# generated using pymatgen
data_Fe
_symmetry_space_group_name_H-M   'P 1'
_cell_length_a   7.42186052
_cell_length_b   7.42186052
_cell_length_c   10.49609580
_cell_angle_alpha   90.00000000
_cell_angle_beta   90.00000000
_cell_angle_gamma   90.00000000
_symmetry_Int_Tables_number   1
_chemical_formula_structural   Fe
_chemical_formula_sum   Fe54
_cell_volume   578.16708340
_cell_formula_units_Z   54
loop_
 _symmetry_equiv_pos_site_id
 _symmetry_equiv_pos_as_xyz
  1  'x, y, z'
loop_
 _atom_site_type_symbol
 _atom_site_label
 _atom_site_symmetry_multiplicity
 _atom_site_fract_x
 _atom_site_fract_y
 _atom_site_fract_z
 _atom_site_occupancy
  Fe  Fe0  1  0.00304419  0.00304419  0.00304419  1
  Fe  Fe1  1  0.16971086  0.16971086  0.16971086  1
  Fe  Fe2  1  0.00304419  0.00304419  0.33637752  1
  Fe  Fe3  1  0.00304419  0.33637752  0.00304419  1
  Fe  Fe4  1  0.16971086  0.50304419  0.16971086  1
  Fe  Fe5  1  0.00304419  0.33637752  0.33637752  1
  Fe  Fe6  1  0.00304419  0.66971086  0.00304419  1
  Fe  Fe7  1  0.16971086  0.83637752  0.16971086  1
  Fe  Fe8  1  0.00304419  0.66971086  0.33637752  1
  Fe  Fe9  1  0.33637752  0.00304419  0.00304419  1
  Fe  Fe10  1  0.50304419  0.16971086  0.16971086  1
  Fe  Fe11  1  0.33637752  0.00304419  0.33637752  1
  Fe  Fe12  1  0.33637752  0.33637752  0.00304419  1
  Fe  Fe13  1  0.50304419  0.50304419  0.16971086  1
  Fe  Fe14  1  0.33637752  0.33637752  0.33637752  1
  Fe  Fe15  1  0.33637752  0.66971086  0.00304419  1
  Fe  Fe16  1  0.50304419  0.83637752  0.16971086  1
  Fe  Fe17  1  0.33637752  0.66971086  0.33637752  1
  Fe  Fe18  1  0.66971086  0.00304419  0.00304419  1
  Fe  Fe19  1  0.83637752  0.16971086  0.16971086  1
  Fe  Fe20  1  0.66971086  0.00304419  0.33637752  1
  Fe  Fe21  1  0.66971086  0.33637752  0.00304419  1
  Fe  Fe22  1  0.83637752  0.50304419  0.16971086  1
  Fe  Fe23  1  0.66971086  0.33637752  0.33637752  1
  Fe  Fe24  1  0.66971086  0.66971086  0.00304419  1
  Fe  Fe25  1  0.83637752  0.83637752  0.16971086  1
  Fe  Fe26  1  0.66971086  0.66971086  0.33637752  1
  Fe  Fe27  1  0.16971086  0.16971086  0.50304419  1
  Fe  Fe28  1  0.00304419  0.00304419  0.66971086  1
  Fe  Fe29  1  0.16971086  0.16971086  0.83637752  1
  Fe  Fe30  1  0.16971086  0.50304419  0.50304419  1
  Fe  Fe31  1  0.00304419  0.33637752  0.66971086  1
  Fe  Fe32  1  0.16971086  0.50304419  0.83637752  1
  Fe  Fe33  1  0.16971086  0.83637752  0.50304419  1
  Fe  Fe34  1  0.00304419  0.66971086  0.66971086  1
  Fe  Fe35  1  0.16971086  0.83637752  0.83637752  1
  Fe  Fe36  1  0.50304419  0.16971086  0.50304419  1
  Fe  Fe37  1  0.33637752  0.00304419  0.66971086  1
  Fe  Fe38  1  0.50304419  0.16971086  0.83637752  1
  Fe  Fe39  1  0.50304419  0.50304419  0.50304419  1
  Fe  Fe40  1  0.33637752  0.33637752  0.66971086  1
  Fe  Fe41  1  0.50304419  0.50304419  0.83637752  1
  Fe  Fe42  1  0.50304419  0.83637752  0.50304419  1
  Fe  Fe43  1  0.33637752  0.66971086  0.66971086  1
  Fe  Fe44  1  0.50304419  0.83637752  0.83637752  1
  Fe  Fe45  1  0.83637752  0.16971086  0.50304419  1
  Fe  Fe46  1  0.66971086  0.00304419  0.66971086  1
  Fe  Fe47  1  0.83637752  0.16971086  0.83637752  1
  Fe  Fe48  1  0.83637752  0.50304419  0.50304419  1
  Fe  Fe49  1  0.66971086  0.33637752  0.66971086  1
  Fe  Fe50  1  0.83637752  0.50304419  0.83637752  1
  Fe  Fe51  1  0.83637752  0.83637752  0.50304419  1
  Fe  Fe52  1  0.66971086  0.66971086  0.66971086  1
  Fe  Fe53  1  0.83637752  0.83637752  0.83637752  1
