4437,Fe11Cr89_3,-221.997312796339, 122.254328224396,Fe11Cr89,"# generated using pymatgen
 data_Cr5Fe49
_symmetry_space_group_name_H-M   'P 1'
_cell_length_a   7.45487128
_cell_length_b   7.45487128
_cell_length_c   10.54278006
_cell_angle_alpha   90.00000000
_cell_angle_beta   90.00000000
_cell_angle_gamma   90.00000000
_symmetry_Int_Tables_number   1
_chemical_formula_structural   Cr5Fe49
_chemical_formula_sum   'Cr5 Fe49'
_cell_volume   585.91611697
_cell_formula_units_Z   1
loop_
 _symmetry_equiv_pos_site_id
 _symmetry_equiv_pos_as_xyz
  1  'x, y, z'
loop_
 _atom_site_type_symbol
 _atom_site_label
 _atom_site_symmetry_multiplicity
 _atom_site_fract_x
 _atom_site_fract_y
 _atom_site_fract_z
 _atom_site_occupancy
  Fe  Fe0  1  0.99980434  1.00027471  0.00160633  1
  Fe  Fe1  1  0.16670993  0.16830646  0.16638725  1
  Fe  Fe2  1  0.99924257  0.00081960  0.33417517  1
  Fe  Fe3  1  0.00162046  0.33493869  0.00160832  1
  Fe  Fe4  1  0.16751235  0.50076465  0.16745517  1
  Fe  Fe5  1  0.00104253  0.33389823  0.33412410  1
  Fe  Fe6  1  1.00059854  0.66723821  1.00078934  1
  Fe  Fe7  1  0.16668663  0.83337788  0.16665491  1
  Fe  Fe8  1  0.00106666  0.66773225  0.33414951  1
  Fe  Fe9  1  0.33439067  0.99942884  0.00245085  1
  Fe  Fe10  1  0.50078348  0.16747399  0.16721938  1
  Cr  Cr11  1  0.33370161  1.00036614  0.33429601  1
  Fe  Fe12  1  0.33253790  0.33573485  0.00244928  1
  Fe  Fe13  1  0.49998147  0.50159832  0.16828612  1
  Fe  Fe14  1  0.33417456  0.33571980  0.33414985  1
  Fe  Fe15  1  0.33439688  0.66728664  1.00076573  1
  Fe  Fe16  1  0.50163965  0.83337767  0.16663174  1
  Fe  Fe17  1  0.33415120  0.66590855  0.33417524  1
  Fe  Fe18  1  0.66825259  0.99841387  0.00160975  1
  Fe  Fe19  1  0.83495762  0.16664777  0.16826137  1
  Fe  Fe20  1  0.66905376  0.00084297  0.33414993  1
  Cr  Cr21  1  0.66926675  0.33533782  0.00110799  1
  Fe  Fe22  1  0.83495803  0.50162290  0.16828840  1
  Fe  Fe23  1  0.66723309  0.33389873  0.33390368  1
  Fe  Fe24  1  0.66745414  0.66910201  1.00078976  1
  Fe  Fe25  1  0.83412293  0.83418040  0.16747982  1
  Fe  Fe26  1  0.66723225  0.66770844  0.33412406  1
  Fe  Fe27  1  0.16589594  0.16909539  0.50107324  1
  Fe  Fe28  1  0.99840330  1.00003345  0.66667250  1
  Cr  Cr29  1  0.16572399  0.16895942  0.83562360  1
  Fe  Fe30  1  0.16753911  0.50079116  0.50084493  1
  Fe  Fe31  1  1.00022426  0.33469055  0.66672112  1
  Fe  Fe32  1  0.16775499  0.50217858  0.83414981  1
  Fe  Fe33  1  0.16587042  0.83256117  0.50082810  1
  Fe  Fe34  1  0.00109048  0.66772910  0.66751109  1
  Fe  Fe35  1  0.16691663  0.83195762  0.83496345  1
  Fe  Fe36  1  0.50240356  0.16909381  0.50107277  1
  Cr  Cr37  1  0.33369394  0.99859903  0.66556934  1
  Cr  Cr38  1  0.50169148  0.16748939  0.83415582  1
  Fe  Fe39  1  0.50076175  0.50079141  0.50084492  1
  Fe  Fe40  1  0.33416806  0.33737456  0.66585542  1
  Fe  Fe41  1  0.49973814  0.50301653  0.83331921  1
  Fe  Fe42  1  0.50242925  0.83256257  0.50082816  1
  Fe  Fe43  1  0.33415076  0.66587717  0.66750935  1
  Fe  Fe44  1  0.50140909  0.83194538  0.83498698  1
  Fe  Fe45  1  0.83414935  0.16742930  0.50087058  1
  Fe  Fe46  1  0.66990050  1.00004978  0.66669043  1
  Fe  Fe47  1  0.83496385  0.16664859  0.83331743  1
  Fe  Fe48  1  0.83414917  0.50081346  0.50082086  1
  Fe  Fe49  1  0.66805750  0.33469673  0.66693543  1
  Fe  Fe50  1  0.83496025  0.50113589  0.83334021  1
  Fe  Fe51  1  0.83414911  0.83420723  0.50081980  1
  Fe  Fe52  1  0.66720887  0.66770554  0.66753611  1
  Fe  Fe53  1  0.83412382  0.83466696  0.83415045  1
" 