8280,Fe11Cr89_15,-221.937363532626, 123.792141230678,Fe11Cr89,"# generated using pymatgen
 data_Cr5Fe49
_symmetry_space_group_name_H-M   'P 1'
_cell_length_a   7.44909670
_cell_length_b   7.44909670
_cell_length_c   10.53461358
_cell_angle_alpha   90.00000000
_cell_angle_beta   90.00000000
_cell_angle_gamma   90.00000000
_symmetry_Int_Tables_number   1
_chemical_formula_structural   Cr5Fe49
_chemical_formula_sum   'Cr5 Fe49'
_cell_volume   584.55561220
_cell_formula_units_Z   1
loop_
 _symmetry_equiv_pos_site_id
 _symmetry_equiv_pos_as_xyz
  1  'x, y, z'
loop_
 _atom_site_type_symbol
 _atom_site_label
 _atom_site_symmetry_multiplicity
 _atom_site_fract_x
 _atom_site_fract_y
 _atom_site_fract_z
 _atom_site_occupancy
  Fe  Fe0  1  1.00070831  1.00102295  0.99937944  1
  Fe  Fe1  1  0.17019317  0.17008117  0.16690734  1
  Cr  Cr2  1  0.00209746  0.00203564  0.33646465  1
  Fe  Fe3  1  0.00187445  0.33603121  0.99987613  1
  Fe  Fe4  1  0.16856163  0.49785178  0.16686608  1
  Fe  Fe5  1  0.00222765  0.33513968  0.33572096  1
  Fe  Fe6  1  0.00207668  0.66644989  1.00013446  1
  Cr  Cr7  1  0.16989007  0.83380584  0.16592330  1
  Cr  Cr8  1  0.99962430  0.66712508  0.33430613  1
  Fe  Fe9  1  0.33640722  0.00220595  0.99966460  1
  Fe  Fe10  1  0.49874622  0.16757757  0.16792033  1
  Fe  Fe11  1  0.33676769  0.00176239  0.33555606  1
  Fe  Fe12  1  0.33525038  0.33498046  1.00078918  1
  Fe  Fe13  1  0.50002318  0.49993418  0.16898859  1
  Fe  Fe14  1  0.33379536  0.33447205  0.33483646  1
  Fe  Fe15  1  0.33450304  0.66621086  0.99956049  1
  Fe  Fe16  1  0.50259616  0.83617095  0.16893503  1
  Fe  Fe17  1  0.33641192  0.66727666  0.33552125  1
  Fe  Fe18  1  0.66646743  0.00218425  0.99976771  1
  Cr  Cr19  1  0.83346942  0.16890999  0.16727421  1
  Fe  Fe20  1  0.66573868  1.00007722  0.33561562  1
  Fe  Fe21  1  0.66632134  0.33392847  0.99974566  1
  Fe  Fe22  1  0.83478443  0.50099656  0.16772087  1
  Fe  Fe23  1  0.66748542  0.33563185  0.33565526  1
  Cr  Cr24  1  0.66791595  0.66752134  0.00175423  1
  Fe  Fe25  1  0.83282721  0.83493085  0.16749201  1
  Fe  Fe26  1  0.66582301  0.66812076  0.33427870  1
  Fe  Fe27  1  0.16937480  0.16929749  0.50275685  1
  Fe  Fe28  1  0.00133197  0.00143181  0.66740434  1
  Fe  Fe29  1  0.16792235  0.16792900  0.83445911  1
  Fe  Fe30  1  0.16894457  0.50036868  0.50233996  1
  Fe  Fe31  1  0.00131097  0.33436875  0.66789442  1
  Fe  Fe32  1  0.16794649  0.50119258  0.83426129  1
  Fe  Fe33  1  0.16998087  0.83398818  0.50292963  1
  Fe  Fe34  1  0.00131803  0.66781410  0.66748777  1
  Fe  Fe35  1  0.16793412  0.83448863  0.83476856  1
  Fe  Fe36  1  0.50124709  0.16808179  0.50142454  1
  Fe  Fe37  1  0.33459877  0.00144475  0.66794471  1
  Fe  Fe38  1  0.50115386  0.16798663  0.83425117  1
  Fe  Fe39  1  0.50126275  0.50115294  0.50146527  1
  Fe  Fe40  1  0.33465643  0.33439991  0.66799400  1
  Fe  Fe41  1  0.50039474  0.50040789  0.83351597  1
  Fe  Fe42  1  0.50122713  0.83437648  0.50159013  1
  Fe  Fe43  1  0.33463916  0.66776998  0.66799668  1
  Fe  Fe44  1  0.50033650  0.83523927  0.83354681  1
  Fe  Fe45  1  0.83305844  0.16926042  0.50227294  1
  Fe  Fe46  1  0.66768153  0.00146084  0.66798495  1
  Fe  Fe47  1  0.83453494  0.16797184  0.83473986  1
  Fe  Fe48  1  0.83323562  0.50011834  0.50257846  1
  Fe  Fe49  1  0.66764753  0.33440356  0.66802899  1
  Fe  Fe50  1  0.83535838  0.50030251  0.83344863  1
  Fe  Fe51  1  0.83229558  0.83426337  0.50344532  1
  Fe  Fe52  1  0.66766080  0.66775101  0.66843059  1
  Fe  Fe53  1  0.83542371  0.83535856  0.83344922  1
" 