3991,Fe11Cr89_4,-222.077828540978, 124.464461193425,Fe11Cr89,"# generated using pymatgen
 data_Cr5Fe49
_symmetry_space_group_name_H-M   'P 1'
_cell_length_a   7.45232666
_cell_length_b   7.45232666
_cell_length_c   10.53918144
_cell_angle_alpha   90.00000000
_cell_angle_beta   90.00000000
_cell_angle_gamma   90.00000000
_symmetry_Int_Tables_number   1
_chemical_formula_structural   Cr5Fe49
_chemical_formula_sum   'Cr5 Fe49'
_cell_volume   585.31633965
_cell_formula_units_Z   1
loop_
 _symmetry_equiv_pos_site_id
 _symmetry_equiv_pos_as_xyz
  1  'x, y, z'
loop_
 _atom_site_type_symbol
 _atom_site_label
 _atom_site_symmetry_multiplicity
 _atom_site_fract_x
 _atom_site_fract_y
 _atom_site_fract_z
 _atom_site_occupancy
  Fe  Fe0  1  0.00105152  1.00097254  1.00094312  1
  Fe  Fe1  1  0.16680742  0.16851996  0.16680006  1
  Fe  Fe2  1  0.99908415  1.00072321  0.33434257  1
  Fe  Fe3  1  1.00014950  0.33349556  0.00180783  1
  Fe  Fe4  1  0.16767091  0.50100277  0.16743737  1
  Fe  Fe5  1  1.00098285  0.33433125  0.33431550  1
  Fe  Fe6  1  1.00012689  0.66849049  0.00181633  1
  Fe  Fe7  1  0.16683541  0.83344457  0.16679286  1
  Fe  Fe8  1  0.00291435  0.66790943  0.33431540  1
  Fe  Fe9  1  0.33345113  0.00183692  0.00180508  1
  Fe  Fe10  1  0.50185247  0.16846674  0.16681939  1
  Cr  Cr11  1  0.33400850  0.00129776  0.33400875  1
  Fe  Fe12  1  0.33516917  0.33344395  0.00179505  1
  Fe  Fe13  1  0.50010715  0.50016735  0.16679335  1
  Fe  Fe14  1  0.33458276  0.33622889  0.33434248  1
  Fe  Fe15  1  0.33432614  0.66767780  0.00267915  1
  Fe  Fe16  1  0.50099697  0.83432564  0.16573410  1
  Fe  Fe17  1  0.33268471  0.66602489  0.33434202  1
  Fe  Fe18  1  0.66846821  0.00181995  0.00185407  1
  Fe  Fe19  1  0.83429923  0.16763122  0.16770480  1
  Fe  Fe20  1  0.66928106  0.00262121  0.33434203  1
  Fe  Fe21  1  0.66764502  0.33437465  1.00097006  1
  Fe  Fe22  1  0.83519322  0.50013412  0.16679636  1
  Fe  Fe23  1  0.66739648  0.33239860  0.33431545  1
  Fe  Fe24  1  0.66851701  0.66677036  0.00208149  1
  Fe  Fe25  1  0.83513485  0.83518980  0.16681993  1
  Cr  Cr26  1  0.66843877  0.66686765  0.33384788  1
  Fe  Fe27  1  0.16596720  0.16936052  0.50098790  1
  Fe  Fe28  1  0.99932855  1.00097258  0.66767740  1
  Fe  Fe29  1  0.16704398  0.16659223  0.83519315  1
  Fe  Fe30  1  0.16768992  0.50100102  0.50122652  1
  Fe  Fe31  1  1.00040522  0.33321474  0.66682820  1
  Cr  Cr32  1  0.16794376  0.50067678  0.83372388  1
  Fe  Fe33  1  0.16600315  0.83261337  0.50100361  1
  Fe  Fe34  1  1.00038054  0.66876910  0.66682021  1
  Fe  Fe35  1  0.16515654  0.83512332  0.83517834  1
  Fe  Fe36  1  0.50267797  0.16929299  0.50098310  1
  Cr  Cr37  1  0.33236365  0.00234627  0.66815369  1
  Fe  Fe38  1  0.50157162  0.17041771  0.83516733  1
  Fe  Fe39  1  0.50009734  0.50017442  0.50185839  1
  Fe  Fe40  1  0.33518605  0.33514724  0.66680920  1
  Fe  Fe41  1  0.50262859  0.49932021  0.83430152  1
  Fe  Fe42  1  0.50182415  0.83349913  0.50206523  1
  Fe  Fe43  1  0.33435660  0.66603278  0.66593917  1
  Cr  Cr44  1  0.50219370  0.83373860  0.83521094  1
  Fe  Fe45  1  0.83430112  0.16761156  0.50095728  1
  Fe  Fe46  1  0.67010980  0.00180587  0.66678015  1
  Fe  Fe47  1  0.83432092  0.16763081  0.83430081  1
  Fe  Fe48  1  0.83518476  0.50014293  0.50184259  1
  Fe  Fe49  1  0.66738015  0.33410933  0.66767813  1
  Fe  Fe50  1  0.83240385  0.50125291  0.83431600  1
  Fe  Fe51  1  0.83512793  0.83520010  0.50183222  1
  Fe  Fe52  1  0.66824763  0.66704016  0.66657640  1
  Fe  Fe53  1  0.83626385  0.83408046  0.83430060  1
" 