8719,Fe11Cr89_18,-222.009426965041, 123.141397164883,Fe11Cr89,"# generated using pymatgen
 data_Cr5Fe49
_symmetry_space_group_name_H-M   'P 1'
_cell_length_a   7.45292403
_cell_length_b   7.45292403
_cell_length_c   10.54002624
_cell_angle_alpha   90.00000000
_cell_angle_beta   90.00000000
_cell_angle_gamma   90.00000000
_symmetry_Int_Tables_number   1
_chemical_formula_structural   Cr5Fe49
_chemical_formula_sum   'Cr5 Fe49'
_cell_volume   585.45710447
_cell_formula_units_Z   1
loop_
 _symmetry_equiv_pos_site_id
 _symmetry_equiv_pos_as_xyz
  1  'x, y, z'
loop_
 _atom_site_type_symbol
 _atom_site_label
 _atom_site_symmetry_multiplicity
 _atom_site_fract_x
 _atom_site_fract_y
 _atom_site_fract_z
 _atom_site_occupancy
  Fe  Fe0  1  0.99909267  1.00083788  1.00087136  1
  Fe  Fe1  1  0.16504758  0.16859353  0.16823212  1
  Fe  Fe2  1  0.99981559  0.00196657  0.33341044  1
  Fe  Fe3  1  0.00131179  0.33400128  1.00086376  1
  Fe  Fe4  1  0.16768113  0.50036821  0.16742907  1
  Fe  Fe5  1  1.00073070  0.33440367  0.33437875  1
  Fe  Fe6  1  0.00135806  0.66802488  0.00100819  1
  Fe  Fe7  1  0.16669247  0.83372423  0.16882359  1
  Fe  Fe8  1  0.99980086  0.66645165  0.33314784  1
  Cr  Cr9  1  0.33368454  1.00021188  1.00035115  1
  Cr  Cr10  1  0.50243386  0.16910656  0.16857843  1
  Fe  Fe11  1  0.33274071  0.00180344  0.33298356  1
  Fe  Fe12  1  0.33350655  0.33666922  1.00010386  1
  Fe  Fe13  1  0.50114864  0.50273185  0.16789835  1
  Fe  Fe14  1  0.33179527  0.33440784  0.33423000  1
  Fe  Fe15  1  0.33424488  0.66575536  1.00087405  1
  Fe  Fe16  1  0.50190584  0.83207671  0.16876839  1
  Fe  Fe17  1  0.33311897  0.66662801  0.33173791  1
  Fe  Fe18  1  0.66993179  1.00010208  1.00010488  1
  Fe  Fe19  1  0.83639630  0.16780693  0.16736223  1
  Fe  Fe20  1  0.67026666  0.00099171  0.33422486  1
  Fe  Fe21  1  0.66823921  0.33497774  0.99992827  1
  Fe  Fe22  1  0.83398462  0.50031072  0.16725860  1
  Fe  Fe23  1  0.67050308  0.33449804  0.33448513  1
  Fe  Fe24  1  0.66725888  0.66797867  1.00086645  1
  Fe  Fe25  1  0.83405272  0.83469837  0.16744209  1
  Fe  Fe26  1  0.66987360  0.66739288  0.33241288  1
  Fe  Fe27  1  0.16830584  0.16938818  0.50100847  1
  Fe  Fe28  1  0.99970373  0.00219074  0.66870483  1
  Fe  Fe29  1  0.16618351  0.16879888  0.83343793  1
  Fe  Fe30  1  0.16611276  0.49954905  0.50105419  1
  Fe  Fe31  1  1.00075153  0.33431355  0.66759793  1
  Fe  Fe32  1  0.16718853  0.50085577  0.83435637  1
  Cr  Cr33  1  0.16623427  0.83403736  0.50165305  1
  Fe  Fe34  1  0.99968692  0.66633562  0.66880545  1
  Fe  Fe35  1  0.16614459  0.83318221  0.83284142  1
  Fe  Fe36  1  0.50056505  0.16719463  0.50052569  1
  Fe  Fe37  1  0.33427824  0.00287329  0.66998308  1
  Fe  Fe38  1  0.50210653  0.16877989  0.83386735  1
  Cr  Cr39  1  0.50134913  0.49996392  0.50046750  1
  Fe  Fe40  1  0.33332404  0.33336644  0.66869176  1
  Fe  Fe41  1  0.50115290  0.50082475  0.83394115  1
  Cr  Cr42  1  0.50091189  0.83477290  0.50045091  1
  Fe  Fe43  1  0.33363182  0.66652136  0.67008837  1
  Fe  Fe44  1  0.50210969  0.83323064  0.83292053  1
  Fe  Fe45  1  0.83398300  0.16724398  0.50100889  1
  Fe  Fe46  1  0.66874660  0.00204637  0.66869716  1
  Fe  Fe47  1  0.83450733  0.16781118  0.83445898  1
  Fe  Fe48  1  0.83634570  0.50179215  0.50105084  1
  Fe  Fe49  1  0.66883594  0.33331399  0.66857147  1
  Fe  Fe50  1  0.83449748  0.50081797  0.83453502  1
  Fe  Fe51  1  0.83386880  0.83381417  0.50105445  1
  Fe  Fe52  1  0.66947700  0.66741583  0.66927376  1
  Fe  Fe53  1  0.83454627  0.83421135  0.83434333  1
" 