2590,Fe11Cr89_11,-221.960248095848, 124.282121460567,Fe11Cr89,"# generated using pymatgen
 data_Cr5Fe49
_symmetry_space_group_name_H-M   'P 1'
_cell_length_a   7.45087452
_cell_length_b   7.45087452
_cell_length_c   10.53712780
_cell_angle_alpha   90.00000000
_cell_angle_beta   90.00000000
_cell_angle_gamma   90.00000000
_symmetry_Int_Tables_number   1
_chemical_formula_structural   Cr5Fe49
_chemical_formula_sum   'Cr5 Fe49'
_cell_volume   584.97424592
_cell_formula_units_Z   1
loop_
 _symmetry_equiv_pos_site_id
 _symmetry_equiv_pos_as_xyz
  1  'x, y, z'
loop_
 _atom_site_type_symbol
 _atom_site_label
 _atom_site_symmetry_multiplicity
 _atom_site_fract_x
 _atom_site_fract_y
 _atom_site_fract_z
 _atom_site_occupancy
  Fe  Fe0  1  0.99945299  0.00108531  0.00108531  1
  Fe  Fe1  1  0.16691380  0.16690962  0.16855673  1
  Fe  Fe2  1  0.00135830  0.00134216  0.33434336  1
  Cr  Cr3  1  1.00091437  0.33341759  0.00213897  1
  Fe  Fe4  1  0.16860759  0.50192480  0.16855587  1
  Fe  Fe5  1  0.99944434  0.33444063  0.33413957  1
  Cr  Cr6  1  1.00091437  0.66875304  1.00003166  1
  Fe  Fe7  1  0.16775533  0.83441905  0.16939120  1
  Fe  Fe8  1  0.00135768  0.66747389  0.33416772  1
  Cr  Cr9  1  0.33502746  0.00108531  0.00108531  1
  Fe  Fe10  1  0.50273730  0.16777850  0.16772673  1
  Fe  Fe11  1  0.33442491  0.99942429  0.33419263  1
  Fe  Fe12  1  0.33581385  0.33632669  0.00131508  1
  Fe  Fe13  1  0.50188010  0.50190653  0.16686352  1
  Cr  Cr14  1  0.33428744  0.33395947  0.33428150  1
  Fe  Fe15  1  0.33581385  0.66584394  1.00085555  1
  Fe  Fe16  1  0.50188327  0.83356810  0.16857198  1
  Fe  Fe17  1  0.33440030  0.66940597  0.33462701  1
  Fe  Fe18  1  0.66990452  0.00108531  0.00108531  1
  Fe  Fe19  1  0.83360794  0.16691815  0.16856182  1
  Fe  Fe20  1  0.66747266  0.00134193  0.33439521  1
  Fe  Fe21  1  0.66607941  0.33441379  0.00111144  1
  Fe  Fe22  1  0.83276453  0.50107296  0.16942096  1
  Fe  Fe23  1  0.66940821  0.33441573  0.33439579  1
  Fe  Fe24  1  0.66607941  0.66775684  1.00105919  1
  Fe  Fe25  1  0.83361948  0.83526511  0.16853046  1
  Fe  Fe26  1  0.66749749  0.66749858  0.33442212  1
  Fe  Fe27  1  0.16695467  0.16693035  0.50193034  1
  Fe  Fe28  1  0.00135830  1.00082847  0.66782727  1
  Fe  Fe29  1  0.16775533  0.16775158  0.83277943  1
  Fe  Fe30  1  0.16610687  0.50108531  0.50108531  1
  Fe  Fe31  1  0.00135768  0.33469674  0.66800291  1
  Fe  Fe32  1  0.16860759  0.50024583  0.83361476  1
  Fe  Fe33  1  0.16695467  0.83524028  0.50024029  1
  Fe  Fe34  1  0.99944434  0.66773000  0.66803106  1
  Fe  Fe35  1  0.16691380  0.83526101  0.83361390  1
  Fe  Fe36  1  0.50187890  0.16693089  0.50192906  1
  Fe  Fe37  1  0.33442491  0.00274634  0.66797800  1
  Fe  Fe38  1  0.50188327  0.16860253  0.83359865  1
  Fe  Fe39  1  0.50272567  0.50108531  0.50108531  1
  Fe  Fe40  1  0.33440030  0.33276466  0.66754362  1
  Fe  Fe41  1  0.50188010  0.50026410  0.83530711  1
  Fe  Fe42  1  0.50187890  0.83523974  0.50024157  1
  Cr  Cr43  1  0.33428744  0.66821116  0.66788913  1
  Fe  Fe44  1  0.50273730  0.83439213  0.83444390  1
  Fe  Fe45  1  0.83442181  0.16777779  0.50106492  1
  Fe  Fe46  1  0.66747266  1.00082870  0.66777542  1
  Fe  Fe47  1  0.83361948  0.16690552  0.83364017  1
  Fe  Fe48  1  0.83442214  0.50108531  0.50108531  1
  Fe  Fe49  1  0.66749749  0.33467205  0.66774851  1
  Fe  Fe50  1  0.83276453  0.50109767  0.83274967  1
  Fe  Fe51  1  0.83442181  0.83439284  0.50110571  1
  Fe  Fe52  1  0.66940821  0.66775490  0.66777484  1
  Fe  Fe53  1  0.83360794  0.83525248  0.83360881  1
" 