4427,Fe11Cr89_12,-221.925955413994, 125.694827164872,Fe11Cr89,"# generated using pymatgen
 data_Cr5Fe49
_symmetry_space_group_name_H-M   'P 1'
_cell_length_a   7.44961581
_cell_length_b   7.44961581
_cell_length_c   10.53534772
_cell_angle_alpha   90.00000000
_cell_angle_beta   90.00000000
_cell_angle_gamma   90.00000000
_symmetry_Int_Tables_number   1
_chemical_formula_structural   Cr5Fe49
_chemical_formula_sum   'Cr5 Fe49'
_cell_volume   584.67782971
_cell_formula_units_Z   1
loop_
 _symmetry_equiv_pos_site_id
 _symmetry_equiv_pos_as_xyz
  1  'x, y, z'
loop_
 _atom_site_type_symbol
 _atom_site_label
 _atom_site_symmetry_multiplicity
 _atom_site_fract_x
 _atom_site_fract_y
 _atom_site_fract_z
 _atom_site_occupancy
  Fe  Fe0  1  0.00296694  1.00101202  0.00133057  1
  Fe  Fe1  1  0.16869437  0.16719844  0.16698343  1
  Fe  Fe2  1  1.00050343  1.00042297  0.33327916  1
  Fe  Fe3  1  1.00111430  0.33400481  0.00175938  1
  Fe  Fe4  1  0.16871929  0.50195550  0.16678674  1
  Cr  Cr5  1  0.00270092  0.33447037  0.33522194  1
  Fe  Fe6  1  1.00111788  0.66851185  0.00130324  1
  Fe  Fe7  1  0.16794375  0.83438454  0.16823278  1
  Fe  Fe8  1  1.00041476  0.66848672  0.33325358  1
  Fe  Fe9  1  0.33256267  1.00097943  0.00128579  1
  Fe  Fe10  1  0.50064607  0.16865427  0.16832534  1
  Fe  Fe11  1  0.33463084  0.00244451  0.33346457  1
  Fe  Fe12  1  0.33469331  0.33398543  0.00130795  1
  Fe  Fe13  1  0.50128264  0.50112852  0.16769806  1
  Fe  Fe14  1  0.33610136  0.33449854  0.33429336  1
  Fe  Fe15  1  0.33471706  0.66855085  0.00126631  1
  Fe  Fe16  1  0.50052486  0.83365772  0.16863407  1
  Fe  Fe17  1  0.33471515  0.66646638  0.33342460  1
  Cr  Cr18  1  0.66711584  1.00041922  0.99969594  1
  Fe  Fe19  1  0.83423247  0.16793907  0.16763083  1
  Fe  Fe20  1  0.66817855  0.00161663  0.33386599  1
  Fe  Fe21  1  0.66771960  0.33585734  1.00077980  1
  Fe  Fe22  1  0.83365996  0.50177160  0.16706191  1
  Fe  Fe23  1  0.66646612  0.33450309  0.33497437  1
  Fe  Fe24  1  0.66768470  0.66635478  1.00072368  1
  Fe  Fe25  1  0.83494739  0.83375423  0.16835900  1
  Fe  Fe26  1  0.66817892  0.66739711  0.33478426  1
  Fe  Fe27  1  0.16917874  0.16802982  0.50246525  1
  Fe  Fe28  1  0.99953945  0.00205970  0.66879053  1
  Fe  Fe29  1  0.16779725  0.16798807  0.83452318  1
  Fe  Fe30  1  0.16915423  0.50049837  0.50227483  1
  Fe  Fe31  1  0.00277777  0.33496044  0.66738840  1
  Fe  Fe32  1  0.16779722  0.50100796  0.83489440  1
  Cr  Cr33  1  0.16747640  0.83416691  0.50131578  1
  Fe  Fe34  1  0.00155942  0.66626469  0.66892843  1
  Fe  Fe35  1  0.16782924  0.83450711  0.83403246  1
  Fe  Fe36  1  0.49978897  0.16636542  0.50020059  1
  Fe  Fe37  1  0.33619063  0.00190005  0.66873379  1
  Fe  Fe38  1  0.49881051  0.16825741  0.83449679  1
  Fe  Fe39  1  0.49918453  0.50167923  0.49972863  1
  Fe  Fe40  1  0.33339404  0.33497672  0.66792383  1
  Fe  Fe41  1  0.49942314  0.50094627  0.83623630  1
  Fe  Fe42  1  0.50160109  0.83572803  0.49980221  1
  Fe  Fe43  1  0.33385421  0.66641819  0.66887735  1
  Fe  Fe44  1  0.49843567  0.83441987  0.83463334  1
  Fe  Fe45  1  0.83487651  0.16506487  0.50109351  1
  Fe  Fe46  1  0.66770010  0.00150659  0.66852017  1
  Fe  Fe47  1  0.83692129  0.16810506  0.83467572  1
  Fe  Fe48  1  0.83540183  0.50305729  0.50069329  1
  Cr  Cr49  1  0.66817663  0.33458944  0.66768461  1
  Fe  Fe50  1  0.83630808  0.50107989  0.83628593  1
  Fe  Fe51  1  0.83353972  0.83562611  0.50005846  1
  Cr  Cr52  1  0.66712064  0.66912815  0.66856657  1
  Fe  Fe53  1  0.83710843  0.83442132  0.83462793  1
" 