1973,Fe11Cr89_16,-222.025886336583, 124.410063833772,Fe11Cr89,"# generated using pymatgen
 data_Cr5Fe49
_symmetry_space_group_name_H-M   'P 1'
_cell_length_a   7.44977073
_cell_length_b   7.44977073
_cell_length_c   10.53556680
_cell_angle_alpha   90.00000000
_cell_angle_beta   90.00000000
_cell_angle_gamma   90.00000000
_symmetry_Int_Tables_number   1
_chemical_formula_structural   Cr5Fe49
_chemical_formula_sum   'Cr5 Fe49'
_cell_volume   584.71430578
_cell_formula_units_Z   1
loop_
 _symmetry_equiv_pos_site_id
 _symmetry_equiv_pos_as_xyz
  1  'x, y, z'
loop_
 _atom_site_type_symbol
 _atom_site_label
 _atom_site_symmetry_multiplicity
 _atom_site_fract_x
 _atom_site_fract_y
 _atom_site_fract_z
 _atom_site_occupancy
  Fe  Fe0  1  0.00162631  0.99955382  1.00087934  1
  Fe  Fe1  1  0.16825841  0.16482004  0.16942364  1
  Fe  Fe2  1  1.00097301  1.00063392  0.33540761  1
  Cr  Cr3  1  1.00015825  0.33353109  0.99975695  1
  Cr  Cr4  1  0.16719034  0.50249117  0.16981775  1
  Fe  Fe5  1  0.99974971  0.33304632  0.33527558  1
  Fe  Fe6  1  1.00095569  0.66981736  1.00014423  1
  Fe  Fe7  1  0.16630020  0.83614840  0.16850114  1
  Fe  Fe8  1  0.99991746  0.66969589  0.33644638  1
  Fe  Fe9  1  0.33239934  1.00044588  0.99975394  1
  Fe  Fe10  1  0.50215032  0.16907034  0.16953508  1
  Fe  Fe11  1  0.33361657  0.00133865  0.33613376  1
  Cr  Cr12  1  0.33621204  0.33373006  1.00004638  1
  Fe  Fe13  1  0.50325327  0.50067010  0.16936971  1
  Fe  Fe14  1  0.33538640  0.33333116  0.33563604  1
  Fe  Fe15  1  0.33312410  0.66898075  0.99933851  1
  Cr  Cr16  1  0.50128685  0.83506632  0.16702487  1
  Fe  Fe17  1  0.33465498  0.66897473  0.33688593  1
  Fe  Fe18  1  0.66915169  0.00323070  1.00038994  1
  Fe  Fe19  1  0.83348437  0.16662872  0.16912205  1
  Fe  Fe20  1  0.66890922  0.00132408  0.33591898  1
  Fe  Fe21  1  0.66830115  0.33429955  0.99971560  1
  Fe  Fe22  1  0.83169944  0.50230072  0.16898574  1
  Fe  Fe23  1  0.66814604  0.33433513  0.33632764  1
  Fe  Fe24  1  0.66891561  0.66622722  1.00005614  1
  Fe  Fe25  1  0.83633561  0.83394023  0.16791523  1
  Fe  Fe26  1  0.66865356  0.66802420  0.33619079  1
  Fe  Fe27  1  0.16752750  0.16783725  0.50162022  1
  Fe  Fe28  1  1.00038848  1.00098099  0.66706334  1
  Fe  Fe29  1  0.16774101  0.16533966  0.83182078  1
  Fe  Fe30  1  0.16751741  0.50085824  0.50061372  1
  Fe  Fe31  1  0.00256523  0.33461189  0.66826744  1
  Fe  Fe32  1  0.16771939  0.50333116  0.83253133  1
  Fe  Fe33  1  0.16756665  0.83478745  0.50205074  1
  Fe  Fe34  1  1.00051256  0.66787065  0.66705730  1
  Fe  Fe35  1  0.16746143  0.83470051  0.83288469  1
  Fe  Fe36  1  0.50056041  0.16695375  0.50094935  1
  Fe  Fe37  1  0.33540190  1.00084762  0.66705474  1
  Fe  Fe38  1  0.50127472  0.16455081  0.83369050  1
  Fe  Fe39  1  0.50048141  0.50165785  0.50083838  1
  Fe  Fe40  1  0.33310126  0.33461285  0.66820458  1
  Fe  Fe41  1  0.50121035  0.50407818  0.83379932  1
  Fe  Fe42  1  0.50130553  0.83487013  0.50074559  1
  Fe  Fe43  1  0.33527444  0.66800300  0.66705179  1
  Fe  Fe44  1  0.50153811  0.83476969  0.83496776  1
  Fe  Fe45  1  0.83540840  0.16699334  0.50109635  1
  Fe  Fe46  1  0.66769387  0.99885248  0.66700664  1
  Fe  Fe47  1  0.83474499  0.16454488  0.83346744  1
  Fe  Fe48  1  0.83548013  0.50160568  0.50095140  1
  Cr  Cr49  1  0.66783443  0.33448270  0.66862931  1
  Fe  Fe50  1  0.83481106  0.50406596  0.83361800  1
  Fe  Fe51  1  0.83459111  0.83486341  0.50159084  1
  Fe  Fe52  1  0.66769563  0.67012546  0.66702979  1
  Fe  Fe53  1  0.83439876  0.83476397  0.83401584  1
" 