6817,Fe11Cr89_0,-221.953461853077, 126.13789837649,Fe11Cr89,"# generated using pymatgen
 data_Cr5Fe49
_symmetry_space_group_name_H-M   'P 1'
_cell_length_a   7.44898447
_cell_length_b   7.44898447
_cell_length_c   10.53445486
_cell_angle_alpha   90.00000000
_cell_angle_beta   90.00000000
_cell_angle_gamma   90.00000000
_symmetry_Int_Tables_number   1
_chemical_formula_structural   Cr5Fe49
_chemical_formula_sum   'Cr5 Fe49'
_cell_volume   584.52919065
_cell_formula_units_Z   1
loop_
 _symmetry_equiv_pos_site_id
 _symmetry_equiv_pos_as_xyz
  1  'x, y, z'
loop_
 _atom_site_type_symbol
 _atom_site_label
 _atom_site_symmetry_multiplicity
 _atom_site_fract_x
 _atom_site_fract_y
 _atom_site_fract_z
 _atom_site_occupancy
  Fe  Fe0  1  1.00005510  1.00010936  1.00036775  1
  Cr  Cr1  1  0.16787912  0.16787808  0.16910048  1
  Fe  Fe2  1  0.00179372  1.00061559  0.33542351  1
  Fe  Fe3  1  1.00008135  0.33564805  1.00039552  1
  Fe  Fe4  1  0.16787912  0.50290974  0.16788006  1
  Fe  Fe5  1  0.00181980  0.33514218  0.33539570  1
  Fe  Fe6  1  0.00293427  0.66787996  0.00124186  1
  Fe  Fe7  1  0.16787912  0.83284932  0.16787999  1
  Fe  Fe8  1  1.00070323  0.66787982  0.33448980  1
  Fe  Fe9  1  0.33570315  1.00010936  1.00036775  1
  Fe  Fe10  1  0.50122510  0.16787953  0.16613662  1
  Fe  Fe11  1  0.33396453  1.00061559  0.33542351  1
  Fe  Fe12  1  0.33567690  0.33564805  1.00039552  1
  Fe  Fe13  1  0.49928024  0.50096584  0.16789780  1
  Fe  Fe14  1  0.33393845  0.33514218  0.33539570  1
  Fe  Fe15  1  0.33282398  0.66787996  0.00124186  1
  Fe  Fe16  1  0.49927705  0.83479195  0.16789665  1
  Fe  Fe17  1  0.33505502  0.66787982  0.33448980  1
  Fe  Fe18  1  0.66787912  0.00296405  0.00126689  1
  Fe  Fe19  1  0.83453314  0.16787953  0.16613662  1
  Cr  Cr20  1  0.66787912  1.00031762  0.33302188  1
  Fe  Fe21  1  0.66787912  0.33277089  0.00149500  1
  Fe  Fe22  1  0.83647801  0.50096584  0.16789780  1
  Cr  Cr23  1  0.66787912  0.33483134  0.33393728  1
  Cr  Cr24  1  0.66787912  0.66848708  0.00181893  1
  Fe  Fe25  1  0.83648119  0.83479195  0.16789665  1
  Fe  Fe26  1  0.66787912  0.66790390  0.33431642  1
  Fe  Fe27  1  0.16787912  0.16784929  0.50092680  1
  Fe  Fe28  1  0.00288000  0.00121270  0.66785059  1
  Fe  Fe29  1  0.16787912  0.16784916  0.83477689  1
  Fe  Fe30  1  0.16787912  0.50115723  0.50115478  1
  Fe  Fe31  1  1.00092737  0.33428816  0.66785058  1
  Fe  Fe32  1  0.16787912  0.50121419  0.83460243  1
  Fe  Fe33  1  0.16787912  0.83463086  0.50118188  1
  Fe  Fe34  1  1.00092714  0.66813652  0.66790555  1
  Fe  Fe35  1  0.16787912  0.83457401  0.83457542  1
  Fe  Fe36  1  0.49863066  0.16872354  0.50204383  1
  Fe  Fe37  1  0.33287824  0.00121270  0.66785059  1
  Fe  Fe38  1  0.50036918  0.16872671  0.83545038  1
  Fe  Fe39  1  0.50041718  0.50206789  0.50206496  1
  Fe  Fe40  1  0.33483088  0.33428816  0.66785058  1
  Fe  Fe41  1  0.50039767  0.50036498  0.83367437  1
  Fe  Fe42  1  0.49954214  0.83284517  0.50119030  1
  Fe  Fe43  1  0.33483110  0.66813652  0.66790555  1
  Fe  Fe44  1  0.49951792  0.83454630  0.83454846  1
  Fe  Fe45  1  0.83712759  0.16872354  0.50204383  1
  Cr  Cr46  1  0.66787912  0.00121258  0.66818638  1
  Fe  Fe47  1  0.83538907  0.16872671  0.83545038  1
  Fe  Fe48  1  0.83534106  0.50206789  0.50206496  1
  Fe  Fe49  1  0.66787912  0.33624091  0.66762418  1
  Fe  Fe50  1  0.83536058  0.50036498  0.83367437  1
  Fe  Fe51  1  0.83621611  0.83284517  0.50119030  1
  Fe  Fe52  1  0.66787912  0.66618392  0.66807846  1
  Fe  Fe53  1  0.83624033  0.83454630  0.83454846  1
" 