2880,Fe11Cr89_14,-221.99701069185, 124.347351485751,Fe11Cr89,"# generated using pymatgen
 data_Cr5Fe49
_symmetry_space_group_name_H-M   'P 1'
_cell_length_a   7.45124750
_cell_length_b   7.45124750
_cell_length_c   10.53765528
_cell_angle_alpha   90.00000000
_cell_angle_beta   90.00000000
_cell_angle_gamma   90.00000000
_symmetry_Int_Tables_number   1
_chemical_formula_structural   Cr5Fe49
_chemical_formula_sum   'Cr5 Fe49'
_cell_volume   585.06210037
_cell_formula_units_Z   1
loop_
 _symmetry_equiv_pos_site_id
 _symmetry_equiv_pos_as_xyz
  1  'x, y, z'
loop_
 _atom_site_type_symbol
 _atom_site_label
 _atom_site_symmetry_multiplicity
 _atom_site_fract_x
 _atom_site_fract_y
 _atom_site_fract_z
 _atom_site_occupancy
  Fe  Fe0  1  0.00146007  1.00037738  0.00140680  1
  Fe  Fe1  1  0.16805076  0.16804375  0.16774077  1
  Fe  Fe2  1  1.00082046  1.00090370  0.33407246  1
  Fe  Fe3  1  0.00148204  0.33471646  0.00113955  1
  Fe  Fe4  1  0.16525234  0.50013949  0.16907959  1
  Fe  Fe5  1  0.99980053  0.33304656  0.33336598  1
  Fe  Fe6  1  0.99912197  0.66806591  0.00123341  1
  Fe  Fe7  1  0.16704027  0.83520625  0.16868379  1
  Fe  Fe8  1  0.99987021  0.66916924  0.33327919  1
  Fe  Fe9  1  0.33413510  0.00260684  0.00120311  1
  Fe  Fe10  1  0.50128141  0.16582121  0.16769641  1
  Fe  Fe11  1  0.33424322  1.00091096  0.33424450  1
  Fe  Fe12  1  0.33344311  0.33213397  0.99985374  1
  Cr  Cr13  1  0.50135497  0.50025135  0.16880793  1
  Fe  Fe14  1  0.33420413  0.33177537  0.33484322  1
  Cr  Cr15  1  0.33288569  0.66871000  1.00071840  1
  Fe  Fe16  1  0.50200820  0.83681362  0.16844447  1
  Fe  Fe17  1  0.33415592  0.67040892  0.33387316  1
  Fe  Fe18  1  0.66761695  1.00043770  0.00119627  1
  Fe  Fe19  1  0.83383278  0.16800795  0.16751897  1
  Fe  Fe20  1  0.66811723  1.00096215  0.33448006  1
  Fe  Fe21  1  0.66839172  0.33385319  0.99988345  1
  Fe  Fe22  1  0.83591466  0.50092542  0.16772990  1
  Fe  Fe23  1  0.66916503  0.33297240  0.33593737  1
  Fe  Fe24  1  0.66994521  0.66871569  1.00051383  1
  Fe  Fe25  1  0.83388439  0.83427308  0.16769722  1
  Fe  Fe26  1  0.66913074  0.66925511  0.33526062  1
  Fe  Fe27  1  0.16685491  0.16510417  0.50031726  1
  Fe  Fe28  1  1.00080451  0.00192697  0.66769337  1
  Fe  Fe29  1  0.16632057  0.16621520  0.83548490  1
  Cr  Cr30  1  0.16757186  0.50130509  0.50043940  1
  Fe  Fe31  1  1.00053699  0.33331030  0.66858863  1
  Fe  Fe32  1  0.16513012  0.50120000  0.83405585  1
  Fe  Fe33  1  0.16753775  0.83619015  0.50116049  1
  Fe  Fe34  1  0.99995112  0.66795438  0.66858431  1
  Fe  Fe35  1  0.16627332  0.83586475  0.83318667  1
  Fe  Fe36  1  0.50044850  0.16599153  0.49924410  1
  Fe  Fe37  1  0.33484850  0.99977591  0.66772528  1
  Fe  Fe38  1  0.50167651  0.16552734  0.83619086  1
  Fe  Fe39  1  0.50244289  0.50303315  0.49865464  1
  Cr  Cr40  1  0.33518449  0.33402614  0.66899361  1
  Fe  Fe41  1  0.50276362  0.50198497  0.83575211  1
  Fe  Fe42  1  0.50065795  0.83409848  0.50094290  1
  Fe  Fe43  1  0.33564698  0.66992334  0.66905331  1
  Fe  Fe44  1  0.50228107  0.83570570  0.83360362  1
  Fe  Fe45  1  0.83614463  0.16661734  0.49988818  1
  Fe  Fe46  1  0.66748945  0.99978613  0.66751679  1
  Fe  Fe47  1  0.83529932  0.16644740  0.83545464  1
  Fe  Fe48  1  0.83397102  0.50249078  0.49974080  1
  Cr  Cr49  1  0.66857070  0.33414048  0.66656784  1
  Fe  Fe50  1  0.83530464  0.50194623  0.83528376  1
  Fe  Fe51  1  0.83499499  0.83416350  0.50117511  1
  Fe  Fe52  1  0.66742946  0.66924344  0.66773442  1
  Fe  Fe53  1  0.83450755  0.83477599  0.83431551  1
" 