2125,Fe11Cr89_17,-222.016536879405, 122.76125783321,Fe11Cr89,"# generated using pymatgen
 data_Cr5Fe49
_symmetry_space_group_name_H-M   'P 1'
_cell_length_a   7.45448144
_cell_length_b   7.45448144
_cell_length_c   10.54222876
_cell_angle_alpha   90.00000000
_cell_angle_beta   90.00000000
_cell_angle_gamma   90.00000000
_symmetry_Int_Tables_number   1
_chemical_formula_structural   Cr5Fe49
_chemical_formula_sum   'Cr5 Fe49'
_cell_volume   585.82420488
_cell_formula_units_Z   1
loop_
 _symmetry_equiv_pos_site_id
 _symmetry_equiv_pos_as_xyz
  1  'x, y, z'
loop_
 _atom_site_type_symbol
 _atom_site_label
 _atom_site_symmetry_multiplicity
 _atom_site_fract_x
 _atom_site_fract_y
 _atom_site_fract_z
 _atom_site_occupancy
  Fe  Fe0  1  1.00005552  0.99853492  1.00002962  1
  Cr  Cr1  1  0.16708653  0.16628089  0.16793154  1
  Fe  Fe2  1  1.00028491  1.00033084  0.33494331  1
  Cr  Cr3  1  0.00099596  0.33542816  0.00100102  1
  Fe  Fe4  1  0.16751066  0.50389717  0.16750772  1
  Fe  Fe5  1  0.99855374  0.33494047  0.33471052  1
  Fe  Fe6  1  0.00086850  0.66905879  1.00084244  1
  Fe  Fe7  1  0.16753304  0.83264290  0.16748390  1
  Fe  Fe8  1  0.00110075  0.66725576  0.33412827  1
  Fe  Fe9  1  0.33397406  0.00109131  1.00083539  1
  Fe  Fe10  1  0.50313396  0.16675256  0.16670075  1
  Fe  Fe11  1  0.33496449  0.99855917  0.33496580  1
  Fe  Fe12  1  0.33648919  0.33493992  1.00028572  1
  Fe  Fe13  1  0.50137398  0.50136991  0.16669883  1
  Cr  Cr14  1  0.33402458  0.33542862  0.33402074  1
  Fe  Fe15  1  0.33315937  0.66649513  0.00164936  1
  Fe  Fe16  1  0.50058535  0.83440824  0.16729868  1
  Fe  Fe17  1  0.33415124  0.66903413  0.33415225  1
  Fe  Fe18  1  0.66849973  0.00186080  0.00139336  1
  Fe  Fe19  1  0.83188194  0.16677486  0.16829096  1
  Fe  Fe20  1  0.66727766  0.00110212  0.33438418  1
  Fe  Fe21  1  0.66594102  0.33412780  1.00084285  1
  Fe  Fe22  1  0.83364393  0.50134721  0.16829226  1
  Fe  Fe23  1  0.66905193  0.33412702  0.33415185  1
  Fe  Fe24  1  0.66850106  0.66653872  0.00157912  1
  Fe  Fe25  1  0.83441038  0.83440869  0.16746044  1
  Fe  Fe26  1  0.66727661  0.66729905  0.33419888  1
  Fe  Fe27  1  0.16675030  0.16672377  0.50139497  1
  Fe  Fe28  1  0.00236574  1.00084220  0.66755770  1
  Fe  Fe29  1  0.16850194  0.16649217  0.83362546  1
  Fe  Fe30  1  0.16675019  0.50158042  0.50158004  1
  Fe  Fe31  1  1.00063394  0.33394225  0.66771861  1
  Fe  Fe32  1  0.16850380  0.50181273  0.83344100  1
  Fe  Fe33  1  0.16755779  0.83422536  0.50084284  1
  Fe  Fe34  1  1.00061211  0.66774421  0.66755791  1
  Fe  Fe35  1  0.16596554  0.83422498  0.83420172  1
  Fe  Fe36  1  0.50081865  0.16748809  0.50084201  1
  Fe  Fe37  1  0.33189863  0.00162550  0.66672820  1
  Fe  Fe38  1  0.50006158  0.16980951  0.83498319  1
  Fe  Fe39  1  0.50162663  0.50162379  0.50165019  1
  Fe  Fe40  1  0.33441091  0.33394326  0.66732616  1
  Fe  Fe41  1  0.50086709  0.49929429  0.83417788  1
  Fe  Fe42  1  0.50005576  0.83341684  0.50029117  1
  Fe  Fe43  1  0.33364746  0.66695797  0.66672648  1
  Cr  Cr44  1  0.50044250  0.83293116  0.83457332  1
  Fe  Fe45  1  0.83495908  0.16829431  0.50003532  1
  Cr  Cr46  1  0.66833142  1.00082017  0.66668857  1
  Fe  Fe47  1  0.83396725  0.16727827  0.83420243  1
  Fe  Fe48  1  0.83415079  0.50081611  0.50084294  1
  Fe  Fe49  1  0.66748354  0.33569437  0.66753399  1
  Fe  Fe50  1  0.83315862  0.50183345  0.83339518  1
  Fe  Fe51  1  0.83491552  0.83341732  0.50010581  1
  Fe  Fe52  1  0.66826793  0.66522845  0.66675111  1
  Fe  Fe53  1  0.83647963  0.83341835  0.83496047  1
" 