5265,Fe11Cr89_13,-222.00376012627, 121.111630353317,Fe11Cr89,"# generated using pymatgen
 data_Cr5Fe49
_symmetry_space_group_name_H-M   'P 1'
_cell_length_a   7.45681311
_cell_length_b   7.45681311
_cell_length_c   10.54552623
_cell_angle_alpha   90.00000000
_cell_angle_beta   90.00000000
_cell_angle_gamma   90.00000000
_symmetry_Int_Tables_number   1
_chemical_formula_structural   Cr5Fe49
_chemical_formula_sum   'Cr5 Fe49'
_cell_volume   586.37409139
_cell_formula_units_Z   1
loop_
 _symmetry_equiv_pos_site_id
 _symmetry_equiv_pos_as_xyz
  1  'x, y, z'
loop_
 _atom_site_type_symbol
 _atom_site_label
 _atom_site_symmetry_multiplicity
 _atom_site_fract_x
 _atom_site_fract_y
 _atom_site_fract_z
 _atom_site_occupancy
  Fe  Fe0  1  1.00041998  1.00044645  1.00060984  1
  Fe  Fe1  1  0.16734979  0.16735492  0.16734918  1
  Fe  Fe2  1  1.00068326  1.00068442  0.33407206  1
  Fe  Fe3  1  0.00124880  0.33347940  0.00122281  1
  Fe  Fe4  1  0.16732798  0.50071362  0.16730200  1
  Fe  Fe5  1  1.00068374  0.33404507  0.33428614  1
  Fe  Fe6  1  0.00302556  0.66812986  0.00119806  1
  Fe  Fe7  1  0.16735031  0.83399021  0.16732649  1
  Fe  Fe8  1  1.00063879  0.66732928  0.33428436  1
  Fe  Fe9  1  0.33425994  1.00044429  1.00067933  1
  Fe  Fe10  1  0.50071485  0.16735459  0.16732636  1
  Fe  Fe11  1  0.33401983  1.00068394  0.33402347  1
  Fe  Fe12  1  0.33423676  0.33428663  1.00063393  1
  Fe  Fe13  1  0.49992829  0.49990505  0.16810854  1
  Fe  Fe14  1  0.33399746  0.33402360  0.33404758  1
  Fe  Fe15  1  0.33245455  0.66732743  1.00060994  1
  Fe  Fe16  1  0.49990444  0.83480031  0.16813437  1
  Fe  Fe17  1  0.33404285  0.66735121  0.33404729  1
  Fe  Fe18  1  0.66737911  0.00223088  1.00063436  1
  Fe  Fe19  1  0.83399410  0.16737699  0.16730180  1
  Fe  Fe20  1  0.66735567  1.00063903  0.33402282  1
  Fe  Fe21  1  0.66657520  0.33168168  0.00143603  1
  Fe  Fe22  1  0.83480225  0.49990509  0.16789539  1
  Fe  Fe23  1  0.66737751  0.33406793  0.33404660  1
  Cr  Cr24  1  0.66662025  0.66866357  0.00171124  1
  Fe  Fe25  1  0.83480367  0.83477784  0.16810986  1
  Fe  Fe26  1  0.66737716  0.66735172  0.33404531  1
  Fe  Fe27  1  0.16811831  0.16656111  0.49992300  1
  Fe  Fe28  1  1.00042159  1.00045968  0.66737726  1
  Fe  Fe29  1  0.16787892  0.16680026  0.83478357  1
  Fe  Fe30  1  0.16891369  0.50070827  0.49915583  1
  Cr  Cr31  1  0.00229390  0.33155702  0.66604332  1
  Fe  Fe32  1  0.17052876  0.50072931  0.83559648  1
  Fe  Fe33  1  0.16812197  0.83478770  0.49994241  1
  Cr  Cr34  1  0.00182106  0.66906241  0.66706226  1
  Fe  Fe35  1  0.16788855  0.83452813  0.83479053  1
  Fe  Fe36  1  0.50071329  0.16737899  0.50073866  1
  Fe  Fe37  1  0.33378157  1.00044761  0.66735590  1
  Fe  Fe38  1  0.50097484  0.16761468  0.83399380  1
  Fe  Fe39  1  0.49991836  0.49989695  0.49997098  1
  Fe  Fe40  1  0.33560193  0.33452248  0.66737749  1
  Fe  Fe41  1  0.49752283  0.49912145  0.83397860  1
  Fe  Fe42  1  0.49989546  0.83478410  0.49992274  1
  Fe  Fe43  1  0.33381343  0.66708860  0.66740164  1
  Fe  Fe44  1  0.49935022  0.83532868  0.83400119  1
  Fe  Fe45  1  0.83322916  0.16658494  0.49997205  1
  Fe  Fe46  1  0.66785540  0.00224593  0.66740154  1
  Fe  Fe47  1  0.83320854  0.16496570  0.83478071  1
  Fe  Fe48  1  0.83322691  0.49989227  0.49855754  1
  Fe  Fe49  1  0.66522095  0.33190706  0.66657986  1
  Cr  Cr50  1  0.83400284  0.49896158  0.83575223  1
  Fe  Fe51  1  0.83403951  0.83558137  0.49915369  1
  Cr  Cr52  1  0.66532704  0.66852115  0.66618470  1
  Fe  Fe53  1  0.83481646  0.83797510  0.83479442  1
" 