8786,Fe11Cr89_8,-221.950710778077, 122.569365759006,Fe11Cr89,"# generated using pymatgen
 data_Cr5Fe49
_symmetry_space_group_name_H-M   'P 1'
_cell_length_a   7.45527519
_cell_length_b   7.45527519
_cell_length_c   10.54335129
_cell_angle_alpha   90.00000000
_cell_angle_beta   90.00000000
_cell_angle_gamma   90.00000000
_symmetry_Int_Tables_number   1
_chemical_formula_structural   Cr5Fe49
_chemical_formula_sum   'Cr5 Fe49'
_cell_volume   586.01135982
_cell_formula_units_Z   1
loop_
 _symmetry_equiv_pos_site_id
 _symmetry_equiv_pos_as_xyz
  1  'x, y, z'
loop_
 _atom_site_type_symbol
 _atom_site_label
 _atom_site_symmetry_multiplicity
 _atom_site_fract_x
 _atom_site_fract_y
 _atom_site_fract_z
 _atom_site_occupancy
  Fe  Fe0  1  1.00078939  0.00078976  0.00084491  1
  Fe  Fe1  1  0.16823396  0.16665540  0.16670816  1
  Fe  Fe2  1  0.00136462  1.00019484  0.33330299  1
  Fe  Fe3  1  1.00076612  0.33414822  0.00109035  1
  Fe  Fe4  1  0.16909848  0.50077543  0.16584451  1
  Cr  Cr5  1  0.00210514  0.33369563  0.33277880  1
  Fe  Fe6  1  0.00081318  0.66743062  0.00104032  1
  Fe  Fe7  1  0.16824355  0.83493824  0.16667142  1
  Cr  Cr8  1  0.00109256  0.66864908  0.33532446  1
  Fe  Fe9  1  0.33412140  1.00076654  1.00076825  1
  Fe  Fe10  1  0.49999064  0.16666151  0.16669001  1
  Fe  Fe11  1  0.33387625  0.00103767  0.33417581  1
  Fe  Fe12  1  0.33412174  0.33414845  0.00081935  1
  Fe  Fe13  1  0.49996724  0.50161063  0.16668970  1
  Fe  Fe14  1  0.33388775  0.33436866  0.33417519  1
  Fe  Fe15  1  0.33409794  0.66745360  1.00056969  1
  Fe  Fe16  1  0.50081719  0.83409580  0.16751240  1
  Fe  Fe17  1  0.33575902  0.66696226  0.33437397  1
  Fe  Fe18  1  0.66745781  0.00081354  0.00081938  1
  Fe  Fe19  1  0.83414341  0.16580659  0.16608332  1
  Fe  Fe20  1  0.66712886  0.99832404  0.33330475  1
  Fe  Fe21  1  0.66748074  0.33412470  0.00106600  1
  Fe  Fe22  1  0.83330286  0.50160006  0.16502548  1
  Cr  Cr23  1  0.66582341  0.33425519  0.33278106  1
  Fe  Fe24  1  0.66745749  0.66743035  0.00081855  1
  Fe  Fe25  1  0.83330840  0.83496158  0.16672199  1
  Fe  Fe26  1  0.66607086  0.66885270  0.33417494  1
  Fe  Fe27  1  0.16992536  0.16665745  0.50158899  1
  Fe  Fe28  1  0.00186143  0.99971754  0.66822130  1
  Fe  Fe29  1  0.16745740  0.16745788  0.83406829  1
  Fe  Fe30  1  0.16804894  0.49971765  0.50160058  1
  Fe  Fe31  1  0.00183698  0.33521794  0.66797662  1
  Fe  Fe32  1  0.16664810  0.49998181  0.83492542  1
  Fe  Fe33  1  0.16719426  0.83599657  0.50077493  1
  Fe  Fe34  1  0.99914851  0.66743217  0.66715358  1
  Fe  Fe35  1  0.16664666  0.83492990  0.83492632  1
  Fe  Fe36  1  0.49830232  0.16666364  0.50160730  1
  Fe  Fe37  1  0.33412187  0.00243218  0.66742452  1
  Fe  Fe38  1  0.50078729  0.16745789  0.83406822  1
  Fe  Fe39  1  0.50101979  0.50055793  0.50075336  1
  Fe  Fe40  1  0.33412222  0.33248640  0.66737442  1
  Fe  Fe41  1  0.50159621  0.49998284  0.83492451  1
  Fe  Fe42  1  0.50186948  0.83514890  0.49993189  1
  Cr  Cr43  1  0.33352391  0.66836175  0.66775930  1
  Fe  Fe44  1  0.50159763  0.83492884  0.83492539  1
  Cr  Cr45  1  0.83471751  0.16566799  0.50197126  1
  Fe  Fe46  1  0.66638606  0.99974224  0.66824566  1
  Fe  Fe47  1  0.83412392  0.16745766  0.83387167  1
  Fe  Fe48  1  0.83329874  0.50328105  0.50327222  1
  Fe  Fe49  1  0.66641013  0.33519353  0.66799982  1
  Fe  Fe50  1  0.83412367  0.50079180  0.83406854  1
  Fe  Fe51  1  0.83330418  0.83326926  0.50158155  1
  Fe  Fe52  1  0.66911864  0.66743188  0.66737523  1
  Fe  Fe53  1  0.83412368  0.83411917  0.83406827  1
" 