6560,Fe11Cr89_6,-222.008342875285, 125.694294072769,Fe11Cr89,"# generated using pymatgen
 data_Cr5Fe49
_symmetry_space_group_name_H-M   'P 1'
_cell_length_a   7.44870328
_cell_length_b   7.44870328
_cell_length_c   10.53405721
_cell_angle_alpha   90.00000000
_cell_angle_beta   90.00000000
_cell_angle_gamma   90.00000000
_symmetry_Int_Tables_number   1
_chemical_formula_structural   Cr5Fe49
_chemical_formula_sum   'Cr5 Fe49'
_cell_volume   584.46299851
_cell_formula_units_Z   1
loop_
 _symmetry_equiv_pos_site_id
 _symmetry_equiv_pos_as_xyz
  1  'x, y, z'
loop_
 _atom_site_type_symbol
 _atom_site_label
 _atom_site_symmetry_multiplicity
 _atom_site_fract_x
 _atom_site_fract_y
 _atom_site_fract_z
 _atom_site_occupancy
  Fe  Fe0  1  0.00123206  0.00282475  1.00099906  1
  Fe  Fe1  1  0.16867259  0.16711966  0.16730175  1
  Fe  Fe2  1  1.00045122  0.99887348  0.33399031  1
  Fe  Fe3  1  0.00123206  0.33297140  0.00141372  1
  Fe  Fe4  1  0.16944747  0.50121362  0.16791555  1
  Cr  Cr5  1  1.00040386  0.33539218  0.33373702  1
  Cr  Cr6  1  0.00123227  0.66789794  0.00123455  1
  Fe  Fe7  1  0.16864168  0.83536128  0.16871848  1
  Fe  Fe8  1  0.00125793  0.66947899  0.33438158  1
  Fe  Fe9  1  0.33353370  1.00022765  0.00197634  1
  Fe  Fe10  1  0.50120692  0.16792408  0.16771400  1
  Fe  Fe11  1  0.33509036  1.00068117  0.33380657  1
  Fe  Fe12  1  0.33353454  0.33556774  0.00202577  1
  Fe  Fe13  1  0.50123079  0.50120588  0.16787239  1
  Fe  Fe14  1  0.33689935  0.33534616  0.33378236  1
  Fe  Fe15  1  0.33613079  0.66789797  1.00120566  1
  Fe  Fe16  1  0.50123040  0.83456418  0.16784816  1
  Fe  Fe17  1  0.33427964  0.66766549  0.33456468  1
  Fe  Fe18  1  0.66892773  1.00022856  0.00197533  1
  Fe  Fe19  1  0.83381424  0.16711940  0.16709467  1
  Fe  Fe20  1  0.66815536  0.00149138  0.33461483  1
  Fe  Fe21  1  0.66892691  0.33556683  0.00202498  1
  Fe  Fe22  1  0.83301537  0.50123777  0.16788974  1
  Fe  Fe23  1  0.66634185  0.33453761  0.33458976  1
  Fe  Fe24  1  0.66633124  0.66789797  1.00120566  1
  Fe  Fe25  1  0.83382195  0.83533745  0.16869307  1
  Fe  Fe26  1  0.66815673  0.66766495  0.33454084  1
  Cr  Cr27  1  0.17010037  0.16790004  0.50178606  1
  Cr  Cr28  1  1.00040145  1.00095780  0.66928289  1
  Fe  Fe29  1  0.16710565  0.16868045  0.83513860  1
  Fe  Fe30  1  0.16864706  0.50357316  0.50203368  1
  Fe  Fe31  1  1.00044913  0.33690413  0.66849863  1
  Fe  Fe32  1  0.16887551  0.50020197  0.83374320  1
  Fe  Fe33  1  0.16864745  0.83222197  0.50043049  1
  Fe  Fe34  1  0.00125781  0.66631473  0.66808231  1
  Fe  Fe35  1  0.16968336  0.83481273  0.83454866  1
  Fe  Fe36  1  0.50280193  0.16789867  0.50146590  1
  Fe  Fe37  1  0.33613087  0.99967136  0.66790790  1
  Cr  Cr38  1  0.50067749  0.16734256  0.83344936  1
  Fe  Fe39  1  0.50099900  0.50094765  0.50123398  1
  Fe  Fe40  1  0.33431921  0.33589308  0.66788518  1
  Fe  Fe41  1  0.50123070  0.50279878  0.83458792  1
  Fe  Fe42  1  0.50099901  0.83484778  0.50128176  1
  Fe  Fe43  1  0.33430638  0.66812951  0.66792383  1
  Fe  Fe44  1  0.50123110  0.83301961  0.83456425  1
  Fe  Fe45  1  0.83142554  0.16789976  0.50125626  1
  Fe  Fe46  1  0.66711181  1.00048397  0.66709990  1
  Fe  Fe47  1  0.83537745  0.16868070  0.83534540  1
  Fe  Fe48  1  0.83404605  0.50177771  0.50203515  1
  Fe  Fe49  1  0.66892796  0.33507883  0.66707628  1
  Fe  Fe50  1  0.83358794  0.50022580  0.83376835  1
  Fe  Fe51  1  0.83404568  0.83401744  0.50042969  1
  Fe  Fe52  1  0.66813012  0.66813006  0.66794770  1
  Fe  Fe53  1  0.83277928  0.83478857  0.83457421  1
" 