2862,Fe11Cr89_19,-222.017597812383, 124.137142556017,Fe11Cr89,"# generated using pymatgen
 data_Cr5Fe49
_symmetry_space_group_name_H-M   'P 1'
_cell_length_a   7.45329872
_cell_length_b   7.45329872
_cell_length_c   10.54055613
_cell_angle_alpha   90.00000000
_cell_angle_beta   90.00000000
_cell_angle_gamma   90.00000000
_symmetry_Int_Tables_number   1
_chemical_formula_structural   Cr5Fe49
_chemical_formula_sum   'Cr5 Fe49'
_cell_volume   585.54540852
_cell_formula_units_Z   1
loop_
 _symmetry_equiv_pos_site_id
 _symmetry_equiv_pos_as_xyz
  1  'x, y, z'
loop_
 _atom_site_type_symbol
 _atom_site_label
 _atom_site_symmetry_multiplicity
 _atom_site_fract_x
 _atom_site_fract_y
 _atom_site_fract_z
 _atom_site_occupancy
  Fe  Fe0  1  1.00067488  0.00264197  1.00092060  1
  Fe  Fe1  1  0.16608357  0.16761279  0.16754169  1
  Fe  Fe2  1  1.00089855  0.00092479  0.33423176  1
  Fe  Fe3  1  0.00240716  0.33276040  0.00094420  1
  Fe  Fe4  1  0.16855013  0.49993730  0.16829942  1
  Fe  Fe5  1  1.00089853  0.33425313  0.33418491  1
  Cr  Cr6  1  0.00106465  0.66745273  1.00078636  1
  Fe  Fe7  1  0.16855049  0.83521717  0.16832135  1
  Fe  Fe8  1  1.00089831  0.66758910  0.33405125  1
  Fe  Fe9  1  0.33353698  1.00018061  1.00015766  1
  Cr  Cr10  1  0.50012697  0.16679467  0.16838558  1
  Fe  Fe11  1  0.33353813  1.00018088  0.33501931  1
  Fe  Fe12  1  0.33180854  0.33522017  1.00018277  1
  Fe  Fe13  1  0.50018466  0.50316337  0.16830423  1
  Fe  Fe14  1  0.33353877  0.33499646  0.33497178  1
  Fe  Fe15  1  0.33599912  0.66736431  1.00092025  1
  Fe  Fe16  1  0.50094831  0.83275019  0.16754194  1
  Fe  Fe17  1  0.33428216  0.66758923  0.33423162  1
  Fe  Fe18  1  0.66855269  0.99845285  0.99993500  1
  Fe  Fe19  1  0.83649449  0.16684916  0.16830418  1
  Fe  Fe20  1  0.66832955  1.00018165  0.33522062  1
  Cr  Cr21  1  0.66811083  0.33477753  0.99904644  1
  Fe  Fe22  1  0.83403400  0.50070293  0.16906236  1
  Fe  Fe23  1  0.66832911  0.33499585  0.33481793  1
  Fe  Fe24  1  0.66609446  0.66909664  1.00069615  1
  Fe  Fe25  1  0.83326891  0.83521627  0.16829935  1
  Fe  Fe26  1  0.66758654  0.66758925  0.33443344  1
  Fe  Fe27  1  0.16761102  0.16756445  0.50092251  1
  Fe  Fe28  1  0.00217832  1.00067554  0.66761464  1
  Fe  Fe29  1  0.16758702  0.16758839  0.83430270  1
  Fe  Fe30  1  0.16758900  0.50094667  0.50094628  1
  Fe  Fe31  1  1.00044821  0.33427705  0.66763818  1
  Fe  Fe32  1  0.16832582  0.50018673  0.83352066  1
  Fe  Fe33  1  0.16758903  0.83425587  0.50096873  1
  Fe  Fe34  1  0.00218372  0.66781423  0.66781684  1
  Fe  Fe35  1  0.16832589  0.83499178  0.83347633  1
  Fe  Fe36  1  0.50020651  0.16833164  0.49997726  1
  Fe  Fe37  1  0.33299705  1.00069737  0.66759155  1
  Fe  Fe38  1  0.49945733  0.16758578  0.83445710  1
  Fe  Fe39  1  0.50020869  0.50015966  0.50018161  1
  Fe  Fe40  1  0.33473027  0.33425508  0.66761513  1
  Fe  Fe41  1  0.49945533  0.50092595  0.83427889  1
  Fe  Fe42  1  0.49944548  0.83427626  0.49942099  1
  Fe  Fe43  1  0.33297720  0.66781440  0.66761499  1
  Fe  Fe44  1  0.49946336  0.83425562  0.83580785  1
  Fe  Fe45  1  0.83494903  0.16833108  0.50018025  1
  Cr  Cr46  1  0.66718121  0.00264417  0.66772279  1
  Fe  Fe47  1  0.83572179  0.16758527  0.83427689  1
  Fe  Fe48  1  0.83497025  0.50018060  0.50020430  1
  Fe  Fe49  1  0.66758849  0.33425519  0.66781569  1
  Fe  Fe50  1  0.83498732  0.50018518  0.83349851  1
  Fe  Fe51  1  0.83573282  0.83425592  0.49944442  1
  Cr  Cr52  1  0.66812686  0.66627801  0.66867219  1
  Fe  Fe53  1  0.83497864  0.83499689  0.83502669  1
" 