2484,Fe11Cr89_1,-221.936287237507, 123.752287632017,Fe11Cr89,"# generated using pymatgen
 data_Cr5Fe49
_symmetry_space_group_name_H-M   'P 1'
_cell_length_a   7.45355561
_cell_length_b   7.45355561
_cell_length_c   10.54091943
_cell_angle_alpha   90.00000000
_cell_angle_beta   90.00000000
_cell_angle_gamma   90.00000000
_symmetry_Int_Tables_number   1
_chemical_formula_structural   Cr5Fe49
_chemical_formula_sum   'Cr5 Fe49'
_cell_volume   585.60595616
_cell_formula_units_Z   1
loop_
 _symmetry_equiv_pos_site_id
 _symmetry_equiv_pos_as_xyz
  1  'x, y, z'
loop_
 _atom_site_type_symbol
 _atom_site_label
 _atom_site_symmetry_multiplicity
 _atom_site_fract_x
 _atom_site_fract_y
 _atom_site_fract_z
 _atom_site_occupancy
  Fe  Fe0  1  1.00067960  0.00432170  0.00134412  1
  Fe  Fe1  1  0.16693269  0.16736422  0.16758099  1
  Fe  Fe2  1  0.00198429  0.00140097  0.33462656  1
  Fe  Fe3  1  1.00081944  0.33427466  1.00075899  1
  Fe  Fe4  1  0.16680086  0.50114370  0.16757289  1
  Fe  Fe5  1  0.00270405  0.33280283  0.33260869  1
  Fe  Fe6  1  1.00085629  0.66376096  0.00108253  1
  Fe  Fe7  1  0.16938122  0.83422978  0.16650857  1
  Fe  Fe8  1  0.00401868  0.66819175  0.33386592  1
  Fe  Fe9  1  0.33439484  0.00400865  0.00346494  1
  Fe  Fe10  1  0.50129288  0.16739272  0.16830283  1
  Fe  Fe11  1  0.33315333  0.99985888  0.33346247  1
  Fe  Fe12  1  0.33430574  0.33420082  0.00153350  1
  Fe  Fe13  1  0.50142386  0.50106653  0.16764866  1
  Fe  Fe14  1  0.33317450  0.33517594  0.33274899  1
  Fe  Fe15  1  0.33456918  0.66481128  0.00317278  1
  Fe  Fe16  1  0.49946798  0.83429678  0.16667723  1
  Fe  Fe17  1  0.33406691  0.66771575  0.33398520  1
  Fe  Fe18  1  0.66762783  0.00402929  0.00127503  1
  Fe  Fe19  1  0.83443287  0.16900805  0.16769583  1
  Fe  Fe20  1  0.66754884  1.00059079  0.33376397  1
  Fe  Fe21  1  0.66759127  0.33423825  1.00076013  1
  Fe  Fe22  1  0.83447438  0.49837924  0.16848291  1
  Fe  Fe23  1  0.66679983  0.33368622  0.33200372  1
  Fe  Fe24  1  0.66727522  0.66444881  1.00073251  1
  Cr  Cr25  1  0.83518713  0.83282634  0.16611773  1
  Fe  Fe26  1  0.66501967  0.66815226  0.33348188  1
  Fe  Fe27  1  0.16518563  0.16873380  0.50071342  1
  Fe  Fe28  1  1.00029740  0.00155708  0.66703463  1
  Fe  Fe29  1  0.16831822  0.16896109  0.83450482  1
  Fe  Fe30  1  0.16996069  0.49974600  0.50065249  1
  Fe  Fe31  1  0.00148126  0.33358418  0.66854802  1
  Fe  Fe32  1  0.16817328  0.49948284  0.83449689  1
  Fe  Fe33  1  0.16758022  0.83423753  0.50133693  1
  Fe  Fe34  1  1.00088737  0.66750801  0.66724618  1
  Cr  Cr35  1  0.16701727  0.83419782  0.83686220  1
  Cr  Cr36  1  0.50033418  0.16851081  0.50135169  1
  Fe  Fe37  1  0.33213866  0.00144345  0.66699111  1
  Fe  Fe38  1  0.49998977  0.16958737  0.83367282  1
  Fe  Fe39  1  0.49947246  0.50203357  0.50066210  1
  Fe  Fe40  1  0.33293405  0.33537641  0.66866233  1
  Fe  Fe41  1  0.50000548  0.50003266  0.83439844  1
  Fe  Fe42  1  0.50130879  0.83224106  0.50145203  1
  Fe  Fe43  1  0.33382321  0.66627526  0.66657494  1
  Cr  Cr44  1  0.50019566  0.83567470  0.83532839  1
  Fe  Fe45  1  0.83567659  0.16648167  0.50051440  1
  Fe  Fe46  1  0.66996653  0.00093555  0.66769250  1
  Fe  Fe47  1  0.83445432  0.16667293  0.83444943  1
  Cr  Cr48  1  0.83481290  0.49993846  0.49836278  1
  Fe  Fe49  1  0.66834490  0.33477981  0.66944697  1
  Fe  Fe50  1  0.83456481  0.50179951  0.83385555  1
  Fe  Fe51  1  0.83382549  0.83623584  0.49995952  1
  Fe  Fe52  1  0.66798670  0.66730512  0.66743280  1
  Fe  Fe53  1  0.83415466  0.83416420  0.83541089  1
" 