866,Fe11Cr89_9,-221.999951551378, 122.78639224429,Fe11Cr89,"# generated using pymatgen
 data_Cr5Fe49
_symmetry_space_group_name_H-M   'P 1'
_cell_length_a   7.45600438
_cell_length_b   7.45600438
_cell_length_c   10.54438251
_cell_angle_alpha   90.00000000
_cell_angle_beta   90.00000000
_cell_angle_gamma   90.00000000
_symmetry_Int_Tables_number   1
_chemical_formula_structural   Cr5Fe49
_chemical_formula_sum   'Cr5 Fe49'
_cell_volume   586.18332558
_cell_formula_units_Z   1
loop_
 _symmetry_equiv_pos_site_id
 _symmetry_equiv_pos_as_xyz
  1  'x, y, z'
loop_
 _atom_site_type_symbol
 _atom_site_label
 _atom_site_symmetry_multiplicity
 _atom_site_fract_x
 _atom_site_fract_y
 _atom_site_fract_z
 _atom_site_occupancy
  Fe  Fe0  1  0.99971012  0.00174716  0.99994660  1
  Fe  Fe1  1  0.16743340  0.16897273  0.16740706  1
  Fe  Fe2  1  1.00018225  0.00127499  0.33486772  1
  Fe  Fe3  1  0.00227295  0.33407396  1.00073985  1
  Fe  Fe4  1  0.16663827  0.49840804  0.16661386  1
  Fe  Fe5  1  0.00095498  0.33430910  0.33405118  1
  Fe  Fe6  1  0.99975505  0.66640097  0.99999477  1
  Cr  Cr7  1  0.16656999  0.83491220  0.16657309  1
  Fe  Fe8  1  0.99842839  0.66663891  0.33484274  1
  Fe  Fe9  1  0.33510502  0.00172436  0.99997098  1
  Fe  Fe10  1  0.49971573  0.16640762  0.16819414  1
  Fe  Fe11  1  0.33486691  0.00304936  0.33486642  1
  Fe  Fe12  1  0.33254477  0.33409625  0.00076387  1
  Fe  Fe13  1  0.50051258  0.50096946  0.16740011  1
  Fe  Fe14  1  0.33409609  0.33253269  0.33405096  1
  Fe  Fe15  1  0.33508237  0.66640150  1.00020604  1
  Fe  Fe16  1  0.50307283  0.83484263  0.16661474  1
  Cr  Cr17  1  0.33361784  0.66700235  0.33447850  1
  Fe  Fe18  1  0.66740611  0.99920516  1.00050473  1
  Fe  Fe19  1  0.83507329  0.16640653  0.16817128  1
  Fe  Fe20  1  0.66717135  1.00052511  0.33428578  1
  Cr  Cr21  1  0.66783737  0.33307359  1.00002560  1
  Fe  Fe22  1  0.83507146  0.50176546  0.16819342  1
  Fe  Fe23  1  0.66717083  0.33428682  0.33409757  1
  Fe  Fe24  1  0.66738383  0.66895987  1.00073934  1
  Fe  Fe25  1  0.83250694  0.83404844  0.16740712  1
  Fe  Fe26  1  0.66894551  0.66740977  0.33407501  1
  Fe  Fe27  1  0.16743310  0.16738454  0.50073952  1
  Fe  Fe28  1  0.00204803  0.00097648  0.66740660  1
  Fe  Fe29  1  0.16740802  0.16740984  0.83407520  1
  Fe  Fe30  1  0.16663730  0.49996709  0.50150949  1
  Fe  Fe31  1  0.00202603  0.33383860  0.66743071  1
  Fe  Fe32  1  0.16740780  0.50071197  0.83409901  1
  Fe  Fe33  1  0.16663696  0.83487019  0.50129841  1
  Fe  Fe34  1  1.00029040  0.66740651  0.66738278  1
  Fe  Fe35  1  0.16740783  0.83409985  0.83428699  1
  Fe  Fe36  1  0.49917564  0.16740597  0.49917751  1
  Fe  Fe37  1  0.33276948  0.00095408  0.66738281  1
  Fe  Fe38  1  0.49843213  0.16664291  0.83485090  1
  Fe  Fe39  1  0.50076514  0.50074178  0.50076236  1
  Fe  Fe40  1  0.33279149  0.33386105  0.66740682  1
  Fe  Fe41  1  0.49923216  0.50227573  0.83405757  1
  Fe  Fe42  1  0.50074475  0.83407473  0.50073987  1
  Fe  Fe43  1  0.33454720  0.66740648  0.66717186  1
  Fe  Fe44  1  0.49999862  0.83330265  0.83486991  1
  Fe  Fe45  1  0.83561406  0.16740564  0.49919980  1
  Cr  Cr46  1  0.66783758  0.00092493  0.66840971  1
  Fe  Fe47  1  0.83638285  0.16664242  0.83485139  1
  Fe  Fe48  1  0.83481855  0.50153719  0.49996929  1
  Cr  Cr49  1  0.66783761  0.33446030  0.66754748  1
  Fe  Fe50  1  0.83558256  0.50227697  0.83405756  1
  Fe  Fe51  1  0.83483929  0.83327949  0.49994656  1
  Fe  Fe52  1  0.66738375  0.66738594  0.66740722  1
  Fe  Fe53  1  0.83481566  0.83330189  0.83487039  1
" 