8107,Fe11Cr89_7,-221.973703316324, 123.038472221522,Fe11Cr89,"# generated using pymatgen
 data_Cr5Fe49
_symmetry_space_group_name_H-M   'P 1'
_cell_length_a   7.45457213
_cell_length_b   7.45457213
_cell_length_c   10.54235701
_cell_angle_alpha   90.00000000
_cell_angle_beta   90.00000000
_cell_angle_gamma   90.00000000
_symmetry_Int_Tables_number   1
_chemical_formula_structural   Cr5Fe49
_chemical_formula_sum   'Cr5 Fe49'
_cell_volume   585.84558541
_cell_formula_units_Z   1
loop_
 _symmetry_equiv_pos_site_id
 _symmetry_equiv_pos_as_xyz
  1  'x, y, z'
loop_
 _atom_site_type_symbol
 _atom_site_label
 _atom_site_symmetry_multiplicity
 _atom_site_fract_x
 _atom_site_fract_y
 _atom_site_fract_z
 _atom_site_occupancy
  Fe  Fe0  1  0.99941409  1.00059186  0.99891242  1
  Cr  Cr1  1  0.16811204  0.16838328  0.16689756  1
  Fe  Fe2  1  0.99916649  0.00084280  0.33609264  1
  Fe  Fe3  1  1.00029275  0.33521556  1.00001222  1
  Fe  Fe4  1  0.16667974  0.50000574  0.16832635  1
  Fe  Fe5  1  1.00004481  0.33496432  0.33499108  1
  Fe  Fe6  1  0.99839428  0.66670467  1.00000848  1
  Cr  Cr7  1  0.16661258  0.83419299  0.16839472  1
  Fe  Fe8  1  1.00006169  0.66670351  0.33497235  1
  Fe  Fe9  1  0.33581702  0.00248074  0.99913613  1
  Fe  Fe10  1  0.50220561  0.16725234  0.16747752  1
  Fe  Fe11  1  0.33581683  1.00081779  0.33584331  1
  Fe  Fe12  1  0.33496492  0.33334248  1.00003688  1
  Fe  Fe13  1  0.50116041  0.50001237  0.16832609  1
  Fe  Fe14  1  0.33496294  0.33501304  0.33494010  1
  Cr  Cr15  1  0.33445781  0.66569581  0.00145906  1
  Fe  Fe16  1  0.50306127  0.83524312  0.16832420  1
  Fe  Fe17  1  0.33496891  0.66667979  0.33472211  1
  Fe  Fe18  1  0.66727903  1.00058600  1.00061053  1
  Fe  Fe19  1  0.83277719  0.16725143  0.16750211  1
  Fe  Fe20  1  0.66752745  1.00083541  0.33439486  1
  Fe  Fe21  1  0.66725358  0.33436672  1.00083478  1
  Fe  Fe22  1  0.83467062  0.50086404  0.16747690  1
  Fe  Fe23  1  0.66750318  0.33411627  0.33416975  1
  Fe  Fe24  1  0.66914858  0.66755801  1.00083492  1
  Fe  Fe25  1  0.83276451  0.83439464  0.16747691  1
  Fe  Fe26  1  0.66747943  0.66755863  0.33414407  1
  Fe  Fe27  1  0.16832386  0.16826947  0.49976487  1
  Cr  Cr28  1  0.00124235  0.00129298  0.66704817  1
  Fe  Fe29  1  0.16834902  0.16826984  0.83526688  1
  Fe  Fe30  1  0.16747554  0.50083744  0.50080863  1
  Fe  Fe31  1  1.00058810  0.33556105  0.66750573  1
  Fe  Fe32  1  0.16665416  0.50001512  0.83337755  1
  Fe  Fe33  1  0.16832305  0.83340381  0.49976591  1
  Fe  Fe34  1  1.00061208  0.66611560  0.66753112  1
  Fe  Fe35  1  0.16750136  0.83422446  0.83441996  1
  Fe  Fe36  1  0.49998937  0.16829329  0.50001452  1
  Fe  Fe37  1  0.33416883  1.00081177  0.66753075  1
  Fe  Fe38  1  0.49996434  0.16829367  0.83501713  1
  Fe  Fe39  1  0.50086140  0.50083745  0.50086033  1
  Fe  Fe40  1  0.33416842  0.33369150  0.66753155  1
  Fe  Fe41  1  0.50168317  0.50001573  0.83332643  1
  Fe  Fe42  1  0.49999017  0.83338000  0.50001491  1
  Fe  Fe43  1  0.33416844  0.66800672  0.66775484  1
  Fe  Fe44  1  0.50081217  0.83419995  0.83417190  1
  Fe  Fe45  1  0.83419689  0.16914134  0.49916951  1
  Cr  Cr46  1  0.66709531  0.00129293  0.66704822  1
  Fe  Fe47  1  0.83419680  0.16913992  0.83583684  1
  Fe  Fe48  1  0.83417336  0.50083767  0.50088595  1
  Fe  Fe49  1  0.66775376  0.33556067  0.66750583  1
  Fe  Fe50  1  0.83417272  0.50086430  0.83414741  1
  Fe  Fe51  1  0.83419693  0.83253218  0.49917042  1
  Fe  Fe52  1  0.66772974  0.66611601  0.66753131  1
  Fe  Fe53  1  0.83419630  0.83250722  0.83586066  1
" 