889,Fe11Cr89_2,-221.94536675231, 125.631242279477,Fe11Cr89,"# generated using pymatgen
 data_Cr5Fe49
_symmetry_space_group_name_H-M   'P 1'
_cell_length_a   7.44921889
_cell_length_b   7.44921889
_cell_length_c   10.53478639
_cell_angle_alpha   90.00000000
_cell_angle_beta   90.00000000
_cell_angle_gamma   90.00000000
_symmetry_Int_Tables_number   1
_chemical_formula_structural   Cr5Fe49
_chemical_formula_sum   'Cr5 Fe49'
_cell_volume   584.58437894
_cell_formula_units_Z   1
loop_
 _symmetry_equiv_pos_site_id
 _symmetry_equiv_pos_as_xyz
  1  'x, y, z'
loop_
 _atom_site_type_symbol
 _atom_site_label
 _atom_site_symmetry_multiplicity
 _atom_site_fract_x
 _atom_site_fract_y
 _atom_site_fract_z
 _atom_site_occupancy
  Fe  Fe0  1  0.00205708  1.00033464  1.00042008  1
  Fe  Fe1  1  0.16809625  0.16761701  0.16617404  1
  Fe  Fe2  1  1.00058738  1.00058057  0.33534075  1
  Fe  Fe3  1  0.00205777  0.33536443  1.00039386  1
  Fe  Fe4  1  0.16704798  0.50204021  0.16704789  1
  Fe  Fe5  1  1.00060048  0.33511919  0.33536730  1
  Fe  Fe6  1  1.00119593  0.66789163  0.00122562  1
  Fe  Fe7  1  0.16511371  0.83393479  0.16704439  1
  Fe  Fe8  1  0.00169479  0.66789069  0.33450363  1
  Fe  Fe9  1  0.33368955  0.00206292  1.00063417  1
  Fe  Fe10  1  0.50121542  0.16954254  0.16617352  1
  Cr  Cr11  1  0.33363797  0.00120664  0.33542249  1
  Fe  Fe12  1  0.33455766  0.33450382  0.00150174  1
  Fe  Fe13  1  0.50226487  0.50010780  0.16704615  1
  Cr  Cr14  1  0.33512909  0.33542120  0.33393364  1
  Fe  Fe15  1  0.33368931  0.66702242  1.00016135  1
  Cr  Cr16  1  0.50119595  0.83333489  0.16756630  1
  Fe  Fe17  1  0.33368900  0.66701602  0.33562281  1
  Fe  Fe18  1  0.66784308  0.00120175  0.99955482  1
  Cr  Cr19  1  0.83483107  0.16816310  0.16906085  1
  Fe  Fe20  1  0.66930876  0.00144731  0.33620567  1
  Fe  Fe21  1  0.66697533  0.33536476  1.00041942  1
  Fe  Fe22  1  0.83427861  0.50309189  0.16789194  1
  Fe  Fe23  1  0.66843662  0.33512016  0.33534143  1
  Fe  Fe24  1  0.66870396  0.66702314  1.00035893  1
  Fe  Fe25  1  0.83620883  0.83288826  0.16789148  1
  Fe  Fe26  1  0.66820617  0.66702078  0.33537094  1
  Fe  Fe27  1  0.16617820  0.16787076  0.50288099  1
  Fe  Fe28  1  0.00147644  1.00094338  0.66783329  1
  Fe  Fe29  1  0.16786875  0.16786258  0.83453293  1
  Fe  Fe30  1  0.16621580  0.50120384  0.50117458  1
  Fe  Fe31  1  0.00147643  0.33478241  0.66783331  1
  Fe  Fe32  1  0.16703584  0.50036674  0.83536224  1
  Fe  Fe33  1  0.16623415  0.83451582  0.50115488  1
  Fe  Fe34  1  0.99953362  0.66786426  0.66786074  1
  Fe  Fe35  1  0.16706150  0.83536067  0.83538949  1
  Fe  Fe36  1  0.50288210  0.16784384  0.50285473  1
  Fe  Fe37  1  0.33453070  0.00288648  0.66758388  1
  Fe  Fe38  1  0.50119190  0.16783715  0.83455988  1
  Fe  Fe39  1  0.50284557  0.50123071  0.50114843  1
  Fe  Fe40  1  0.33453088  0.33283946  0.66758333  1
  Fe  Fe41  1  0.50202496  0.50039248  0.83538958  1
  Fe  Fe42  1  0.50285102  0.83451572  0.50093099  1
  Cr  Cr43  1  0.33452833  0.66786162  0.66666265  1
  Fe  Fe44  1  0.50202462  0.83536027  0.83561313  1
  Fe  Fe45  1  0.83453009  0.16786320  0.50088864  1
  Fe  Fe46  1  0.66758292  1.00094352  0.66783346  1
  Fe  Fe47  1  0.83452941  0.16786274  0.83478365  1
  Fe  Fe48  1  0.83452944  0.50117189  0.50116509  1
  Fe  Fe49  1  0.66758274  0.33478239  0.66783345  1
  Fe  Fe50  1  0.83452920  0.50119967  0.83453301  1
  Fe  Fe51  1  0.83450424  0.83455497  0.50113848  1
  Fe  Fe52  1  0.66952572  0.66786412  0.66786080  1
  Fe  Fe53  1  0.83450373  0.83452764  0.83456007  1
" 