6485,Fe11Cr89_5,-222.004585561887, 122.994631485669,Fe11Cr89,"# generated using pymatgen
 data_Cr5Fe49
_symmetry_space_group_name_H-M   'P 1'
_cell_length_a   7.45371144
_cell_length_b   7.45371144
_cell_length_c   10.54113981
_cell_angle_alpha   90.00000000
_cell_angle_beta   90.00000000
_cell_angle_gamma   90.00000000
_symmetry_Int_Tables_number   1
_chemical_formula_structural   Cr5Fe49
_chemical_formula_sum   'Cr5 Fe49'
_cell_volume   585.64268717
_cell_formula_units_Z   1
loop_
 _symmetry_equiv_pos_site_id
 _symmetry_equiv_pos_as_xyz
  1  'x, y, z'
loop_
 _atom_site_type_symbol
 _atom_site_label
 _atom_site_symmetry_multiplicity
 _atom_site_fract_x
 _atom_site_fract_y
 _atom_site_fract_z
 _atom_site_occupancy
  Fe  Fe0  1  1.00074996  0.00103608  1.00051110  1
  Fe  Fe1  1  0.16802199  0.16518235  0.16643156  1
  Fe  Fe2  1  1.00074361  0.00128324  0.33425547  1
  Fe  Fe3  1  0.99939964  0.33256076  0.99953241  1
  Cr  Cr4  1  0.16730120  0.49907984  0.16586469  1
  Cr  Cr5  1  0.99994024  0.33342858  0.33556826  1
  Fe  Fe6  1  0.99968748  0.66877642  1.00011927  1
  Fe  Fe7  1  0.16812359  0.83601592  0.16645627  1
  Cr  Cr8  1  1.00016843  0.66882190  0.33552260  1
  Fe  Fe9  1  0.33386839  0.00189628  0.00131094  1
  Fe  Fe10  1  0.50041726  0.16822672  0.16750297  1
  Fe  Fe11  1  0.33245378  0.00192727  0.33329730  1
  Fe  Fe12  1  0.33576805  0.33270286  0.99935703  1
  Fe  Fe13  1  0.50237041  0.50047192  0.16708400  1
  Fe  Fe14  1  0.33608128  0.33362638  0.33502257  1
  Fe  Fe15  1  0.33480642  0.66794394  1.00038461  1
  Fe  Fe16  1  0.50049173  0.83403718  0.16752536  1
  Fe  Fe17  1  0.33516581  0.66668660  0.33378954  1
  Fe  Fe18  1  0.66822115  0.00206956  0.00176360  1
  Fe  Fe19  1  0.83390760  0.16744761  0.16626685  1
  Fe  Fe20  1  0.66969549  0.00209069  0.33281556  1
  Fe  Fe21  1  0.66729946  0.33386918  1.00047653  1
  Fe  Fe22  1  0.83166044  0.50053458  0.16593923  1
  Fe  Fe23  1  0.66612471  0.33443998  0.33422439  1
  Fe  Fe24  1  0.66813484  0.66694654  0.00137684  1
  Fe  Fe25  1  0.83379820  0.83485350  0.16631861  1
  Fe  Fe26  1  0.66702855  0.66599470  0.33305359  1
  Fe  Fe27  1  0.16903685  0.16609591  0.50212979  1
  Fe  Fe28  1  0.00092589  0.00128819  0.66800151  1
  Fe  Fe29  1  0.16768720  0.16721393  0.83426848  1
  Fe  Fe30  1  0.17000238  0.50098497  0.50242150  1
  Fe  Fe31  1  0.00095572  0.33409991  0.66721232  1
  Fe  Fe32  1  0.16759462  0.50106546  0.83501201  1
  Fe  Fe33  1  0.16725852  0.83583742  0.50255419  1
  Fe  Fe34  1  0.00097605  0.66732402  0.66720525  1
  Fe  Fe35  1  0.16591326  0.83435355  0.83419529  1
  Fe  Fe36  1  0.50113498  0.16909597  0.50104302  1
  Fe  Fe37  1  0.33273140  0.00293543  0.66793262  1
  Fe  Fe38  1  0.50117175  0.16940877  0.83409491  1
  Fe  Fe39  1  0.50107742  0.49907655  0.50130846  1
  Fe  Fe40  1  0.33425797  0.33405571  0.66803008  1
  Fe  Fe41  1  0.50108743  0.49933118  0.83420465  1
  Cr  Cr42  1  0.50178627  0.83469125  0.50079482  1
  Fe  Fe43  1  0.33271074  0.66583512  0.66797715  1
  Cr  Cr44  1  0.50188590  0.83522567  0.83363643  1
  Fe  Fe45  1  0.83243921  0.16597749  0.50224352  1
  Fe  Fe46  1  0.66929609  0.00316572  0.66794479  1
  Fe  Fe47  1  0.83381188  0.16713406  0.83419655  1
  Fe  Fe48  1  0.83146981  0.50102494  0.50304886  1
  Fe  Fe49  1  0.66745247  0.33398863  0.66803389  1
  Fe  Fe50  1  0.83396158  0.50110105  0.83427296  1
  Fe  Fe51  1  0.83481712  0.83594544  0.50268624  1
  Fe  Fe52  1  0.66925635  0.66568215  0.66797991  1
  Fe  Fe53  1  0.83617977  0.83441929  0.83410804  1
" 