8586,Fe11Cr89_10,-221.923260191653, 126.11421063047,Fe11Cr89,"# generated using pymatgen
 data_Cr5Fe49
_symmetry_space_group_name_H-M   'P 1'
_cell_length_a   7.44983817
_cell_length_b   7.44983817
_cell_length_c   10.53566218
_cell_angle_alpha   90.00000000
_cell_angle_beta   90.00000000
_cell_angle_gamma   90.00000000
_symmetry_Int_Tables_number   1
_chemical_formula_structural   Cr5Fe49
_chemical_formula_sum   'Cr5 Fe49'
_cell_volume   584.73018615
_cell_formula_units_Z   1
loop_
 _symmetry_equiv_pos_site_id
 _symmetry_equiv_pos_as_xyz
  1  'x, y, z'
loop_
 _atom_site_type_symbol
 _atom_site_label
 _atom_site_symmetry_multiplicity
 _atom_site_fract_x
 _atom_site_fract_y
 _atom_site_fract_z
 _atom_site_occupancy
  Fe  Fe0  1  0.00199053  1.00031177  0.00224453  1
  Fe  Fe1  1  0.16888583  0.16839252  0.16675765  1
  Cr  Cr2  1  0.00115628  1.00056600  0.33390069  1
  Fe  Fe3  1  1.00009267  0.33503286  0.00200004  1
  Fe  Fe4  1  0.16804060  0.50137505  0.16806707  1
  Fe  Fe5  1  1.00033739  0.33530507  0.33366863  1
  Fe  Fe6  1  1.00093766  0.66812038  0.00118205  1
  Fe  Fe7  1  0.16699696  0.83369589  0.16697590  1
  Fe  Fe8  1  1.00033921  0.66702629  0.33364570  1
  Fe  Fe9  1  0.33281415  0.00115934  0.00117793  1
  Fe  Fe10  1  0.50030742  0.17026084  0.16864309  1
  Fe  Fe11  1  0.33529807  0.00198088  0.33531138  1
  Fe  Fe12  1  0.33557700  0.33505868  0.00199787  1
  Fe  Fe13  1  0.50115669  0.49950934  0.16782282  1
  Fe  Fe14  1  0.33508448  0.33342494  0.33364551  1
  Fe  Fe15  1  0.33388462  0.66724578  1.00030915  1
  Cr  Cr16  1  0.50117065  0.83420658  0.16927748  1
  Fe  Fe17  1  0.33423127  0.66805892  0.33449706  1
  Cr  Cr18  1  0.66927771  0.00261350  1.00028683  1
  Fe  Fe19  1  0.83427411  0.16922084  0.16780096  1
  Fe  Fe20  1  0.66700972  0.00198178  0.33506829  1
  Fe  Fe21  1  0.66779431  0.33611045  0.00115640  1
  Fe  Fe22  1  0.83426762  0.50140004  0.16784824  1
  Fe  Fe23  1  0.66804095  0.33424321  0.33446067  1
  Fe  Fe24  1  0.66864207  0.66535858  1.00033471  1
  Fe  Fe25  1  0.83613712  0.83284530  0.16782340  1
  Fe  Fe26  1  0.66889332  0.66724144  0.33531147  1
  Fe  Fe27  1  0.16863908  0.16700016  0.50221874  1
  Fe  Fe28  1  1.00034074  1.00033734  0.66675905  1
  Cr  Cr29  1  0.16738036  0.16826370  0.83404465  1
  Cr  Cr30  1  0.16679077  0.50012669  0.50159796  1
  Fe  Fe31  1  0.99951721  0.33446105  0.66779589  1
  Fe  Fe32  1  0.16782160  0.50279009  0.83424266  1
  Fe  Fe33  1  0.16866530  0.83532747  0.50197296  1
  Fe  Fe34  1  1.00036614  0.66866604  0.66863802  1
  Fe  Fe35  1  0.16784621  0.83285947  0.83451428  1
  Fe  Fe36  1  0.50088242  0.16801523  0.50112829  1
  Fe  Fe37  1  0.33527685  1.00033810  0.66697972  1
  Fe  Fe38  1  0.50196255  0.16862055  0.83369086  1
  Fe  Fe39  1  0.50278470  0.50118011  0.50112665  1
  Fe  Fe40  1  0.33612411  0.33448727  0.66782161  1
  Fe  Fe41  1  0.50090908  0.50093309  0.83451536  1
  Fe  Fe42  1  0.50090802  0.83427011  0.50088185  1
  Fe  Fe43  1  0.33527568  0.66863896  0.66866325  1
  Fe  Fe44  1  0.50008455  0.83391304  0.83391198  1
  Fe  Fe45  1  0.83394425  0.16888491  0.50199766  1
  Fe  Fe46  1  0.66784709  0.00118242  0.66806670  1
  Fe  Fe47  1  0.83367988  0.16864699  0.83366286  1
  Fe  Fe48  1  0.83287972  0.50115502  0.50112812  1
  Fe  Fe49  1  0.66782170  0.33446190  0.66784805  1
  Fe  Fe50  1  0.83473452  0.50090777  0.83448866  1
  Fe  Fe51  1  0.83389264  0.83342450  0.50194532  1
  Fe  Fe52  1  0.66782185  0.66782075  0.66782287  1
  Fe  Fe53  1  0.83553571  0.83391210  0.83369159  1
" 