6617,Fe12Cr88_16,-221.918229090429, 126.082685730162,Fe12Cr88,"# generated using pymatgen
 data_CrFe8
_symmetry_space_group_name_H-M   'P 1'
_cell_length_a   7.46109644
_cell_length_b   7.46109644
_cell_length_c   10.55158377
_cell_angle_alpha   90.00000000
_cell_angle_beta   90.00000000
_cell_angle_gamma   90.00000000
_symmetry_Int_Tables_number   1
_chemical_formula_structural   CrFe8
_chemical_formula_sum   'Cr6 Fe48'
_cell_volume   587.38514432
_cell_formula_units_Z   6
loop_
 _symmetry_equiv_pos_site_id
 _symmetry_equiv_pos_as_xyz
  1  'x, y, z'
loop_
 _atom_site_type_symbol
 _atom_site_label
 _atom_site_symmetry_multiplicity
 _atom_site_fract_x
 _atom_site_fract_y
 _atom_site_fract_z
 _atom_site_occupancy
  Cr  Cr0  1  1.00029578  0.00050136  0.00142793  1
  Fe  Fe1  1  0.16768815  0.16767457  0.16767105  1
  Fe  Fe2  1  0.00041355  0.00161402  0.33355281  1
  Fe  Fe3  1  0.00059041  0.33516129  1.00038811  1
  Fe  Fe4  1  0.16705188  0.49915836  0.16703401  1
  Fe  Fe5  1  1.00037899  0.33251756  0.33373229  1
  Fe  Fe6  1  0.99856392  0.66523058  0.00122037  1
  Fe  Fe7  1  0.16769981  0.83436647  0.16749380  1
  Cr  Cr8  1  0.00085139  0.66751806  0.33211050  1
  Fe  Fe9  1  0.33556228  0.00222895  0.00081714  1
  Fe  Fe10  1  0.50038682  0.16705349  0.16704254  1
  Fe  Fe11  1  0.33351848  1.00018515  0.33388997  1
  Fe  Fe12  1  0.33354017  0.33230505  1.00035008  1
  Fe  Fe13  1  0.50102403  0.49978924  0.16769938  1
  Fe  Fe14  1  0.33355412  0.33393048  0.33375049  1
  Cr  Cr15  1  0.33383469  0.66696245  0.00142793  1
  Fe  Fe16  1  0.50100790  0.83435482  0.16767105  1
  Fe  Fe17  1  0.33494736  0.66708022  0.33355281  1
  Fe  Fe18  1  0.66563838  1.00020684  1.00035008  1
  Fe  Fe19  1  0.83312258  0.16769070  0.16769938  1
  Fe  Fe20  1  0.66726382  1.00022078  0.33375049  1
  Fe  Fe21  1  0.66706594  0.33373261  1.00020083  1
  Fe  Fe22  1  0.83312273  0.49978939  0.16642149  1
  Fe  Fe23  1  0.66726253  0.33392920  0.33393085  1
  Fe  Fe24  1  0.66849462  0.66725707  1.00038811  1
  Fe  Fe25  1  0.83249170  0.83371854  0.16703401  1
  Fe  Fe26  1  0.66585089  0.66704566  0.33373229  1
  Fe  Fe27  1  0.16644100  0.16767395  0.49980787  1
  Fe  Fe28  1  0.99836077  0.00120768  0.66661482  1
  Fe  Fe29  1  0.16706570  0.16953584  0.83374574  1
  Fe  Fe30  1  0.16767620  0.49980320  0.50103874  1
  Fe  Fe31  1  0.00180842  0.33353582  0.66707680  1
  Fe  Fe32  1  0.16645805  0.49853899  0.83311132  1
  Fe  Fe33  1  0.16705412  0.83372079  0.50058583  1
  Fe  Fe34  1  0.99977957  0.66644624  0.66627456  1
  Cr  Cr35  1  0.16638048  0.83304714  0.83307878  1
  Fe  Fe36  1  0.50039660  0.16706327  0.49917570  1
  Cr  Cr37  1  0.33407848  0.00074515  0.66765651  1
  Fe  Fe38  1  0.50021259  0.16687926  0.83498648  1
  Fe  Fe39  1  0.49977336  0.50102421  0.49978562  1
  Fe  Fe40  1  0.33251660  0.33496647  0.66709500  1
  Fe  Fe41  1  0.50019603  0.50058635  0.83371628  1
  Fe  Fe42  1  0.50100729  0.83310767  0.49980787  1
  Fe  Fe43  1  0.33454101  0.66502743  0.66661482  1
  Fe  Fe44  1  0.50286917  0.83373236  0.83374574  1
  Fe  Fe45  1  0.83435754  0.16644003  0.49978562  1
  Fe  Fe46  1  0.66829980  0.99918327  0.66709500  1
  Fe  Fe47  1  0.83391968  0.16686270  0.83371628  1
  Fe  Fe48  1  0.83375008  0.50041675  0.50037989  1
  Cr  Cr49  1  0.66694601  0.33361268  0.66671362  1
  Fe  Fe50  1  0.83454641  0.50121308  0.83436038  1
  Fe  Fe51  1  0.83313653  0.83434286  0.50103874  1
  Fe  Fe52  1  0.66686916  0.66847509  0.66707680  1
  Fe  Fe53  1  0.83187233  0.83312471  0.83311132  1
" 