1048,Fe12Cr88_7,-221.874650459864, 126.290896807145,Fe12Cr88,"# generated using pymatgen
 data_CrFe8
_symmetry_space_group_name_H-M   'P 1'
_cell_length_a   7.45748349
_cell_length_b   7.45748349
_cell_length_c   10.54647430
_cell_angle_alpha   90.00000000
_cell_angle_beta   90.00000000
_cell_angle_gamma   90.00000000
_symmetry_Int_Tables_number   1
_chemical_formula_structural   CrFe8
_chemical_formula_sum   'Cr6 Fe48'
_cell_volume   586.53225530
_cell_formula_units_Z   6
loop_
 _symmetry_equiv_pos_site_id
 _symmetry_equiv_pos_as_xyz
  1  'x, y, z'
loop_
 _atom_site_type_symbol
 _atom_site_label
 _atom_site_symmetry_multiplicity
 _atom_site_fract_x
 _atom_site_fract_y
 _atom_site_fract_z
 _atom_site_occupancy
  Fe  Fe0  1  0.00161130  0.99835840  1.00035343  1
  Cr  Cr1  1  0.16632469  0.16628140  0.16592321  1
  Fe  Fe2  1  0.99875188  0.00079885  0.33398926  1
  Fe  Fe3  1  0.00174381  0.33609374  1.00050879  1
  Fe  Fe4  1  0.16733897  0.50204652  0.16728234  1
  Fe  Fe5  1  1.00002987  0.33466386  0.33469294  1
  Fe  Fe6  1  1.00003551  0.66733661  0.00065530  1
  Fe  Fe7  1  0.16730740  0.83205931  0.16770544  1
  Fe  Fe8  1  0.99980190  0.66639105  0.33322461  1
  Fe  Fe9  1  0.33359562  0.99965552  0.99951905  1
  Fe  Fe10  1  0.50001357  0.16734103  0.16938588  1
  Fe  Fe11  1  0.33561130  0.00090812  0.33370240  1
  Fe  Fe12  1  0.33348805  0.33482411  0.99966519  1
  Fe  Fe13  1  0.49921198  0.50141121  0.16878630  1
  Fe  Fe14  1  0.33357204  0.33380289  0.33380418  1
  Fe  Fe15  1  0.33470448  0.66731699  1.00051339  1
  Fe  Fe16  1  0.49912580  0.83318344  0.16840426  1
  Fe  Fe17  1  0.33390832  0.66720934  0.33241486  1
  Cr  Cr18  1  0.66651417  0.99990751  0.00183389  1
  Fe  Fe19  1  0.83398516  0.16730915  0.16884824  1
  Fe  Fe20  1  0.66741997  1.00056888  0.33358722  1
  Cr  Cr21  1  0.66647232  0.33474573  0.00182347  1
  Fe  Fe22  1  0.83537930  0.50131125  0.16827096  1
  Fe  Fe23  1  0.66822331  0.33322976  0.33291821  1
  Fe  Fe24  1  0.66721751  0.66729034  0.00076121  1
  Fe  Fe25  1  0.83547807  0.83332545  0.16827719  1
  Fe  Fe26  1  0.66827073  0.66821206  0.33301253  1
  Fe  Fe27  1  0.16770609  0.16928640  0.50026313  1
  Fe  Fe28  1  0.00101081  1.00040353  0.66692162  1
  Fe  Fe29  1  0.16912858  0.16727496  0.83440008  1
  Fe  Fe30  1  0.16600944  0.49945122  0.50060504  1
  Fe  Fe31  1  0.00170768  0.33490120  0.66635875  1
  Fe  Fe32  1  0.16687740  0.50035801  0.83403268  1
  Cr  Cr33  1  0.16761575  0.83404548  0.49957878  1
  Fe  Fe34  1  1.00026495  0.66665523  0.66778608  1
  Fe  Fe35  1  0.16685475  0.83428485  0.83366215  1
  Fe  Fe36  1  0.50035874  0.16557604  0.50064098  1
  Fe  Fe37  1  0.33441663  0.00123252  0.66790152  1
  Fe  Fe38  1  0.49845324  0.16734956  0.83267733  1
  Cr  Cr39  1  0.50107772  0.50156189  0.50063885  1
  Fe  Fe40  1  0.33292776  0.33332295  0.66794117  1
  Fe  Fe41  1  0.50029071  0.50113986  0.83275022  1
  Fe  Fe42  1  0.50222315  0.83544428  0.50062968  1
  Fe  Fe43  1  0.33353855  0.66747619  0.66876819  1
  Fe  Fe44  1  0.50025202  0.83343362  0.83314164  1
  Fe  Fe45  1  0.83383707  0.16730307  0.50105206  1
  Fe  Fe46  1  0.66663248  0.99989377  0.66696755  1
  Cr  Cr47  1  0.83574484  0.16732014  0.83439424  1
  Fe  Fe48  1  0.83577373  0.50114627  0.50067885  1
  Fe  Fe49  1  0.66742737  0.33391869  0.66763081  1
  Fe  Fe50  1  0.83458192  0.50273845  0.83329147  1
  Fe  Fe51  1  0.83196819  0.83346658  0.50067072  1
  Fe  Fe52  1  0.66815731  0.66818457  0.66808543  1
  Fe  Fe53  1  0.83465322  0.83187526  0.83329435  1
" 