5432,Fe12Cr88_0,-221.974859565497, 124.601341321482,Fe12Cr88,"# generated using pymatgen
 data_CrFe8
_symmetry_space_group_name_H-M   'P 1'
_cell_length_a   7.45939682
_cell_length_b   7.45939682
_cell_length_c   10.54918015
_cell_angle_alpha   90.00000000
_cell_angle_beta   90.00000000
_cell_angle_gamma   90.00000000
_symmetry_Int_Tables_number   1
_chemical_formula_structural   CrFe8
_chemical_formula_sum   'Cr6 Fe48'
_cell_volume   586.98382185
_cell_formula_units_Z   6
loop_
 _symmetry_equiv_pos_site_id
 _symmetry_equiv_pos_as_xyz
  1  'x, y, z'
loop_
 _atom_site_type_symbol
 _atom_site_label
 _atom_site_symmetry_multiplicity
 _atom_site_fract_x
 _atom_site_fract_y
 _atom_site_fract_z
 _atom_site_occupancy
  Fe  Fe0  1  0.99945816  0.00104750  0.00115170  1
  Fe  Fe1  1  0.16708471  0.16462726  0.16557712  1
  Fe  Fe2  1  0.00072883  0.99889845  0.33384616  1
  Fe  Fe3  1  0.99931025  0.33290953  0.99991655  1
  Cr  Cr4  1  0.16647231  0.50317337  0.16555114  1
  Cr  Cr5  1  0.99918092  0.33268310  0.33384616  1
  Fe  Fe6  1  0.99785775  0.66760680  1.00000285  1
  Fe  Fe7  1  0.16705410  0.83598836  0.16665823  1
  Fe  Fe8  1  0.99907506  0.66992979  0.33384616  1
  Fe  Fe9  1  0.33398707  1.00019040  0.00186351  1
  Fe  Fe10  1  0.50152229  0.16635643  0.16565826  1
  Fe  Fe11  1  0.33366273  0.99892443  0.33384616  1
  Fe  Fe12  1  0.33419579  0.33366743  0.00069173  1
  Fe  Fe13  1  0.50297127  0.50142606  0.16631032  1
  Cr  Cr14  1  0.33512209  0.33274765  0.33384616  1
  Fe  Fe15  1  0.33625869  0.66760122  1.00017353  1
  Fe  Fe16  1  0.50044323  0.83352066  0.16719720  1
  Fe  Fe17  1  0.33516448  0.66980838  0.33384616  1
  Fe  Fe18  1  0.66824132  0.99925010  0.00148146  1
  Fe  Fe19  1  0.83292671  0.16635131  0.16610737  1
  Fe  Fe20  1  0.66714661  0.00126019  0.33384616  1
  Fe  Fe21  1  0.66818007  0.33477555  0.00117586  1
  Fe  Fe22  1  0.83123569  0.50146198  0.16635989  1
  Fe  Fe23  1  0.66714762  0.33366449  0.33384616  1
  Fe  Fe24  1  0.66726129  0.66741922  1.00035634  1
  Fe  Fe25  1  0.83405208  0.83347895  0.16723319  1
  Fe  Fe26  1  0.66717289  0.66666574  0.33384616  1
  Fe  Fe27  1  0.16708471  0.16462726  0.50211520  1
  Fe  Fe28  1  0.99945816  0.00104750  0.66654062  1
  Fe  Fe29  1  0.16598270  0.16823105  0.83384616  1
  Cr  Cr30  1  0.16647231  0.50317337  0.50214118  1
  Fe  Fe31  1  0.99931025  0.33290953  0.66777577  1
  Fe  Fe32  1  0.16749807  0.49812129  0.83384616  1
  Fe  Fe33  1  0.16705410  0.83598836  0.50103410  1
  Fe  Fe34  1  0.99785775  0.66760680  0.66768948  1
  Cr  Cr35  1  0.16676409  0.83261368  0.83384616  1
  Fe  Fe36  1  0.50152229  0.16635643  0.50203406  1
  Fe  Fe37  1  0.33398707  1.00019040  0.66582881  1
  Cr  Cr38  1  0.50231674  0.16625787  0.83384616  1
  Fe  Fe39  1  0.50297127  0.50142606  0.50138201  1
  Fe  Fe40  1  0.33419579  0.33366743  0.66700060  1
  Fe  Fe41  1  0.50029331  0.50224675  0.83384616  1
  Fe  Fe42  1  0.50044323  0.83352066  0.50049513  1
  Fe  Fe43  1  0.33625869  0.66760122  0.66751879  1
  Fe  Fe44  1  0.50223338  0.83235445  0.83384616  1
  Fe  Fe45  1  0.83292671  0.16635131  0.50158496  1
  Fe  Fe46  1  0.66824132  0.99925010  0.66621087  1
  Fe  Fe47  1  0.83593409  0.16662831  0.83384616  1
  Fe  Fe48  1  0.83123569  0.50146198  0.50133244  1
  Fe  Fe49  1  0.66818007  0.33477555  0.66651647  1
  Fe  Fe50  1  0.83371331  0.50047248  0.83384616  1
  Fe  Fe51  1  0.83405208  0.83347895  0.50045913  1
  Fe  Fe52  1  0.66726129  0.66741922  0.66733598  1
  Fe  Fe53  1  0.83153028  0.83448035  0.83384616  1
" 