3724,Fe12Cr88_6,-221.886472046413, 125.882167024082,Fe12Cr88,"# generated using pymatgen
 data_CrFe8
_symmetry_space_group_name_H-M   'P 1'
_cell_length_a   7.45872105
_cell_length_b   7.45872105
_cell_length_c   10.54822447
_cell_angle_alpha   90.00000000
_cell_angle_beta   90.00000000
_cell_angle_gamma   90.00000000
_symmetry_Int_Tables_number   1
_chemical_formula_structural   CrFe8
_chemical_formula_sum   'Cr6 Fe48'
_cell_volume   586.82430543
_cell_formula_units_Z   6
loop_
 _symmetry_equiv_pos_site_id
 _symmetry_equiv_pos_as_xyz
  1  'x, y, z'
loop_
 _atom_site_type_symbol
 _atom_site_label
 _atom_site_symmetry_multiplicity
 _atom_site_fract_x
 _atom_site_fract_y
 _atom_site_fract_z
 _atom_site_occupancy
  Fe  Fe0  1  0.99890925  1.00051638  0.00182749  1
  Fe  Fe1  1  0.16565738  0.16737914  0.16521972  1
  Fe  Fe2  1  0.99940771  0.00094858  0.33382480  1
  Fe  Fe3  1  0.99887042  0.33335134  0.00141355  1
  Fe  Fe4  1  0.16720589  0.50054427  0.16729304  1
  Fe  Fe5  1  0.99904462  0.33356587  0.33424297  1
  Cr  Cr6  1  0.99883174  0.66611223  0.99901623  1
  Fe  Fe7  1  0.16679201  0.83347450  0.16684733  1
  Fe  Fe8  1  0.00111697  0.66718453  0.33336187  1
  Fe  Fe9  1  0.33485067  0.99885247  0.00178885  1
  Fe  Fe10  1  0.50244986  0.16749603  0.16542779  1
  Cr  Cr11  1  0.33527910  1.00008946  0.33360504  1
  Fe  Fe12  1  0.33477832  0.33559078  0.00210621  1
  Fe  Fe13  1  0.50141290  0.50125125  0.16669927  1
  Cr  Cr14  1  0.33413979  0.33296815  0.33550271  1
  Fe  Fe15  1  0.33550606  0.66725382  0.00068118  1
  Fe  Fe16  1  0.50183865  0.83278780  0.16624670  1
  Fe  Fe17  1  0.33409828  0.66694025  0.33378219  1
  Fe  Fe18  1  0.66777112  0.99987171  0.00064634  1
  Fe  Fe19  1  0.83374010  0.16725262  0.16721230  1
  Fe  Fe20  1  0.66870370  0.00091951  0.33382697  1
  Fe  Fe21  1  0.66786742  0.33460663  0.00063301  1
  Fe  Fe22  1  0.83293588  0.49985830  0.16819148  1
  Fe  Fe23  1  0.66846262  0.33351978  0.33380995  1
  Fe  Fe24  1  0.66555991  0.66721531  1.00048624  1
  Fe  Fe25  1  0.83304875  0.83443503  0.16804043  1
  Fe  Fe26  1  0.66642366  0.66725511  0.33373842  1
  Fe  Fe27  1  0.16477081  0.16689578  0.50104476  1
  Fe  Fe28  1  0.99851776  0.99885103  0.66662431  1
  Cr  Cr29  1  0.16695387  0.16717515  0.83548661  1
  Fe  Fe30  1  0.16694314  0.50302948  0.50055356  1
  Cr  Cr31  1  0.99916500  0.33612001  0.66728166  1
  Fe  Fe32  1  0.16962671  0.50191190  0.83369452  1
  Fe  Fe33  1  0.16532393  0.83189261  0.50029720  1
  Fe  Fe34  1  0.00056649  0.66975011  0.66780504  1
  Fe  Fe35  1  0.16786239  0.83270941  0.83350661  1
  Fe  Fe36  1  0.50420586  0.16808928  0.50125099  1
  Cr  Cr37  1  0.33563687  0.00066157  0.66583731  1
  Fe  Fe38  1  0.50276927  0.16800836  0.83493845  1
  Fe  Fe39  1  0.50198582  0.50191896  0.50145749  1
  Fe  Fe40  1  0.33589905  0.33602994  0.66612458  1
  Fe  Fe41  1  0.50026934  0.50018565  0.83399197  1
  Fe  Fe42  1  0.50296733  0.83154838  0.50036629  1
  Fe  Fe43  1  0.33368650  0.66527477  0.66720900  1
  Fe  Fe44  1  0.50110878  0.83340832  0.83466955  1
  Fe  Fe45  1  0.83291295  0.16641089  0.49968925  1
  Fe  Fe46  1  0.66968492  0.00082772  0.66720779  1
  Fe  Fe47  1  0.83127359  0.16649604  0.83473265  1
  Fe  Fe48  1  0.83262182  0.50197102  0.49934935  1
  Fe  Fe49  1  0.66509546  0.33359847  0.66722587  1
  Fe  Fe50  1  0.83151858  0.50001251  0.83367640  1
  Fe  Fe51  1  0.83369204  0.83355027  0.50028066  1
  Fe  Fe52  1  0.66741670  0.66720927  0.66745661  1
  Fe  Fe53  1  0.83296373  0.83536376  0.83291096  1
" 