2164,Fe12Cr88_10,-221.840359459283, 124.551431701567,Fe12Cr88,"# generated using pymatgen
 data_CrFe8
_symmetry_space_group_name_H-M   'P 1'
_cell_length_a   7.45968017
_cell_length_b   7.45968017
_cell_length_c   10.54958087
_cell_angle_alpha   90.00000000
_cell_angle_beta   90.00000000
_cell_angle_gamma   90.00000000
_symmetry_Int_Tables_number   1
_chemical_formula_structural   CrFe8
_chemical_formula_sum   'Cr6 Fe48'
_cell_volume   587.05071417
_cell_formula_units_Z   6
loop_
 _symmetry_equiv_pos_site_id
 _symmetry_equiv_pos_as_xyz
  1  'x, y, z'
loop_
 _atom_site_type_symbol
 _atom_site_label
 _atom_site_symmetry_multiplicity
 _atom_site_fract_x
 _atom_site_fract_y
 _atom_site_fract_z
 _atom_site_occupancy
  Fe  Fe0  1  1.00000908  0.00077843  0.00057779  1
  Fe  Fe1  1  0.16718761  0.16689056  0.16736200  1
  Fe  Fe2  1  0.99935184  0.00150971  0.33501549  1
  Fe  Fe3  1  0.00185893  0.33359620  1.00020889  1
  Cr  Cr4  1  0.16717096  0.50087898  0.16810807  1
  Fe  Fe5  1  0.99930988  0.33285485  0.33489090  1
  Fe  Fe6  1  0.99817870  0.66672284  0.99880884  1
  Cr  Cr7  1  0.16721839  0.83289983  0.16847694  1
  Fe  Fe8  1  0.99828476  0.66704602  0.33596607  1
  Fe  Fe9  1  0.33413703  0.00068664  1.00019496  1
  Fe  Fe10  1  0.49852305  0.16598159  0.16799241  1
  Fe  Fe11  1  0.33487262  0.00149445  0.33546974  1
  Fe  Fe12  1  0.33240702  0.33374590  1.00034990  1
  Fe  Fe13  1  0.50051643  0.50250856  0.16876393  1
  Fe  Fe14  1  0.33489393  0.33282596  0.33493216  1
  Fe  Fe15  1  0.33601240  0.66675110  0.99877474  1
  Fe  Fe16  1  0.50176019  0.83327453  0.16740668  1
  Fe  Fe17  1  0.33591693  0.66707942  0.33600737  1
  Fe  Fe18  1  0.66733924  0.99781494  0.00216751  1
  Fe  Fe19  1  0.83582122  0.16593481  0.16807510  1
  Fe  Fe20  1  0.66724190  0.00053774  0.33383304  1
  Cr  Cr21  1  0.66801820  0.33644636  0.00316220  1
  Fe  Fe22  1  0.83385557  0.50258163  0.16883731  1
  Fe  Fe23  1  0.66726824  0.33381822  0.33329224  1
  Fe  Fe24  1  0.66726997  0.66936978  0.00059217  1
  Fe  Fe25  1  0.83253268  0.83325500  0.16740899  1
  Fe  Fe26  1  0.66726803  0.66712380  0.33391931  1
  Fe  Fe27  1  0.16605555  0.16827500  0.49940713  1
  Fe  Fe28  1  0.99987720  0.99889060  0.66559317  1
  Fe  Fe29  1  0.16649342  0.16810011  0.83465241  1
  Fe  Fe30  1  0.16709468  0.50063450  0.49987830  1
  Fe  Fe31  1  0.00220252  0.33476305  0.66582954  1
  Fe  Fe32  1  0.16710126  0.49980269  0.83412658  1
  Fe  Fe33  1  0.16603477  0.83256746  0.49881370  1
  Fe  Fe34  1  0.00110399  0.66766707  0.66704779  1
  Fe  Fe35  1  0.16606851  0.83354792  0.83523723  1
  Fe  Fe36  1  0.50167461  0.16818161  0.50005352  1
  Cr  Cr37  1  0.33219065  0.99936623  0.66612948  1
  Cr  Cr38  1  0.50163431  0.16743625  0.83266711  1
  Fe  Fe39  1  0.50066927  0.50055265  0.50042055  1
  Fe  Fe40  1  0.33265803  0.33656692  0.66597545  1
  Fe  Fe41  1  0.50025083  0.50262215  0.83289110  1
  Fe  Fe42  1  0.50162456  0.83273269  0.49948429  1
  Fe  Fe43  1  0.33359987  0.66537660  0.66704325  1
  Fe  Fe44  1  0.50187074  0.83166755  0.83445343  1
  Fe  Fe45  1  0.83367298  0.16725390  0.50100552  1
  Fe  Fe46  1  0.66843659  0.99788958  0.66461041  1
  Cr  Cr47  1  0.83353082  0.16609336  0.83135751  1
  Fe  Fe48  1  0.83371852  0.50053988  0.50055656  1
  Fe  Fe49  1  0.66679833  0.33593151  0.66510937  1
  Fe  Fe50  1  0.83416823  0.50240657  0.83270424  1
  Fe  Fe51  1  0.83375528  0.83368537  0.50042250  1
  Fe  Fe52  1  0.66680601  0.66761690  0.66694509  1
  Fe  Fe53  1  0.83334983  0.83209018  0.83365619  1
" 