4974,Fe12Cr88_1,-222.019609305139, 125.210245479178,Fe12Cr88,"# generated using pymatgen
 data_CrFe8
_symmetry_space_group_name_H-M   'P 1'
_cell_length_a   7.46275473
_cell_length_b   7.46275473
_cell_length_c   10.55392895
_cell_angle_alpha   90.00000000
_cell_angle_beta   90.00000000
_cell_angle_gamma   90.00000000
_symmetry_Int_Tables_number   1
_chemical_formula_structural   CrFe8
_chemical_formula_sum   'Cr6 Fe48'
_cell_volume   587.77688425
_cell_formula_units_Z   6
loop_
 _symmetry_equiv_pos_site_id
 _symmetry_equiv_pos_as_xyz
  1  'x, y, z'
loop_
 _atom_site_type_symbol
 _atom_site_label
 _atom_site_symmetry_multiplicity
 _atom_site_fract_x
 _atom_site_fract_y
 _atom_site_fract_z
 _atom_site_occupancy
  Fe  Fe0  1  1.00028715  1.00028750  0.00028762  1
  Fe  Fe1  1  0.16588782  0.16694085  0.16800551  1
  Fe  Fe2  1  0.00080486  0.99975353  0.33308360  1
  Fe  Fe3  1  0.99907420  0.33345815  0.00028762  1
  Fe  Fe4  1  0.16644699  0.50082838  0.16744725  1
  Fe  Fe5  1  0.00081911  0.33413733  0.33308327  1
  Fe  Fe6  1  0.00149989  0.66711720  0.00028762  1
  Fe  Fe7  1  0.16645694  0.83309412  0.16745211  1
  Fe  Fe8  1  1.00025606  0.66697246  0.33363149  1
  Cr  Cr9  1  0.33284148  0.99993392  0.00028762  1
  Fe  Fe10  1  0.50084215  0.16747078  0.16854671  1
  Fe  Fe11  1  0.33311923  0.00083588  0.33292213  1
  Cr  Cr12  1  0.33320586  0.33419331  0.00028762  1
  Fe  Fe13  1  0.50028860  0.50030217  0.16798554  1
  Fe  Fe14  1  0.33363960  0.33358878  0.33346914  1
  Fe  Fe15  1  0.33273758  0.66710856  0.00028762  1
  Fe  Fe16  1  0.49974923  0.83308998  0.16867924  1
  Fe  Fe17  1  0.33311939  0.66643769  0.33305267  1
  Cr  Cr18  1  0.66773349  0.00064222  0.00028762  1
  Fe  Fe19  1  0.83413190  0.16748122  0.16760029  1
  Fe  Fe20  1  0.66693896  1.00027326  0.33239057  1
  Fe  Fe21  1  0.66783812  0.33346678  0.00028762  1
  Fe  Fe22  1  0.83412718  0.49973244  0.16746296  1
  Fe  Fe23  1  0.66640465  0.33413760  0.33306852  1
  Cr  Cr24  1  0.66737112  0.66638093  0.00028762  1
  Fe  Fe25  1  0.83465754  0.83364866  0.16802101  1
  Fe  Fe26  1  0.66748697  0.66645206  0.33293674  1
  Fe  Fe27  1  0.16815620  0.16678808  0.50028762  1
  Fe  Fe28  1  0.00080486  0.99975353  0.66749164  1
  Fe  Fe29  1  0.16588782  0.16694085  0.83256973  1
  Fe  Fe30  1  0.16695557  0.50028778  0.50028762  1
  Fe  Fe31  1  0.00081911  0.33413733  0.66749197  1
  Fe  Fe32  1  0.16644699  0.50082838  0.83312799  1
  Fe  Fe33  1  0.16575468  0.83378699  0.50028762  1
  Fe  Fe34  1  1.00025606  0.66697246  0.66694375  1
  Fe  Fe35  1  0.16645694  0.83309412  0.83312313  1
  Fe  Fe36  1  0.49925341  0.16798815  0.50028762  1
  Fe  Fe37  1  0.33311923  0.00083588  0.66765311  1
  Fe  Fe38  1  0.50084215  0.16747078  0.83202853  1
  Fe  Fe39  1  0.50045309  0.49908677  0.50028762  1
  Fe  Fe40  1  0.33363960  0.33358878  0.66710610  1
  Fe  Fe41  1  0.50028860  0.50030217  0.83258970  1
  Cr  Cr42  1  0.50008058  0.83341473  0.50028762  1
  Fe  Fe43  1  0.33311939  0.66643769  0.66752257  1
  Fe  Fe44  1  0.49974923  0.83308998  0.83189601  1
  Cr  Cr45  1  0.83382630  0.16716046  0.50028762  1
  Fe  Fe46  1  0.66693896  1.00027326  0.66818467  1
  Fe  Fe47  1  0.83413190  0.16748122  0.83297495  1
  Fe  Fe48  1  0.83345418  0.50148829  0.50028762  1
  Fe  Fe49  1  0.66640465  0.33413760  0.66750672  1
  Fe  Fe50  1  0.83412718  0.49973244  0.83311228  1
  Fe  Fe51  1  0.83465425  0.83258732  0.50028762  1
  Fe  Fe52  1  0.66748697  0.66645206  0.66763850  1
  Fe  Fe53  1  0.83465754  0.83364866  0.83255423  1
" 