805,Fe12Cr88_5,-221.975277897448, 124.163447790609,Fe12Cr88,"# generated using pymatgen
 data_CrFe8
_symmetry_space_group_name_H-M   'P 1'
_cell_length_a   7.46322087
_cell_length_b   7.46322087
_cell_length_c   10.55458818
_cell_angle_alpha   90.00000000
_cell_angle_beta   90.00000000
_cell_angle_gamma   90.00000000
_symmetry_Int_Tables_number   1
_chemical_formula_structural   CrFe8
_chemical_formula_sum   'Cr6 Fe48'
_cell_volume   587.88703382
_cell_formula_units_Z   6
loop_
 _symmetry_equiv_pos_site_id
 _symmetry_equiv_pos_as_xyz
  1  'x, y, z'
loop_
 _atom_site_type_symbol
 _atom_site_label
 _atom_site_symmetry_multiplicity
 _atom_site_fract_x
 _atom_site_fract_y
 _atom_site_fract_z
 _atom_site_occupancy
  Cr  Cr0  1  0.00025637  0.00025637  0.99968368  1
  Cr  Cr1  1  0.16742601  0.16742601  0.16721461  1
  Fe  Fe2  1  0.00025637  0.00025637  0.33449321  1
  Fe  Fe3  1  0.99972037  0.33520269  0.99972067  1
  Fe  Fe4  1  0.16675358  0.50149373  0.16692422  1
  Fe  Fe5  1  0.99971966  0.33412690  0.33412473  1
  Fe  Fe6  1  0.00079238  0.66531006  0.99972067  1
  Fe  Fe7  1  0.16852955  0.83198320  0.16746197  1
  Fe  Fe8  1  0.00079309  0.66638585  0.33412473  1
  Fe  Fe9  1  0.33520269  0.99972037  0.99972067  1
  Fe  Fe10  1  0.50149373  0.16675358  0.16692422  1
  Fe  Fe11  1  0.33412690  0.99971966  0.33412473  1
  Fe  Fe12  1  0.33395869  0.33395869  0.99955348  1
  Fe  Fe13  1  0.50025637  0.50025637  0.16708960  1
  Fe  Fe14  1  0.33358498  0.33358498  0.33375233  1
  Fe  Fe15  1  0.33342152  0.66709122  1.00025404  1
  Fe  Fe16  1  0.49901901  0.83375917  0.16692422  1
  Fe  Fe17  1  0.33304815  0.66746459  0.33305214  1
  Fe  Fe18  1  0.66531006  0.00079238  0.99972067  1
  Fe  Fe19  1  0.83198320  0.16852955  0.16746197  1
  Fe  Fe20  1  0.66638585  0.00079309  0.33412473  1
  Fe  Fe21  1  0.66709122  0.33342152  1.00025404  1
  Fe  Fe22  1  0.83375917  0.49901901  0.16692422  1
  Fe  Fe23  1  0.66746459  0.33304815  0.33305214  1
  Fe  Fe24  1  0.66655405  0.66655405  0.99955348  1
  Cr  Cr25  1  0.83308673  0.83308673  0.16721461  1
  Fe  Fe26  1  0.66692777  0.66692777  0.33375233  1
  Fe  Fe27  1  0.16655405  0.16655405  0.49955348  1
  Fe  Fe28  1  0.00025637  0.00025637  0.66708960  1
  Fe  Fe29  1  0.16692777  0.16692777  0.83375233  1
  Fe  Fe30  1  0.16531006  0.50079238  0.49972067  1
  Fe  Fe31  1  0.99901901  0.33375917  0.66692422  1
  Fe  Fe32  1  0.16638585  0.50079309  0.83412473  1
  Fe  Fe33  1  0.16709122  0.83342152  0.50025404  1
  Fe  Fe34  1  0.00149373  0.66675358  0.66692422  1
  Fe  Fe35  1  0.16746459  0.83304815  0.83305214  1
  Fe  Fe36  1  0.50079238  0.16531006  0.49972067  1
  Fe  Fe37  1  0.33375917  0.99901901  0.66692422  1
  Fe  Fe38  1  0.50079309  0.16638585  0.83412473  1
  Cr  Cr39  1  0.50025637  0.50025637  0.49968368  1
  Cr  Cr40  1  0.33308673  0.33308673  0.66721461  1
  Fe  Fe41  1  0.50025637  0.50025637  0.83449321  1
  Fe  Fe42  1  0.49972037  0.83520269  0.49972067  1
  Fe  Fe43  1  0.33198320  0.66852955  0.66746197  1
  Fe  Fe44  1  0.49971966  0.83412690  0.83412473  1
  Fe  Fe45  1  0.83342152  0.16709122  0.50025404  1
  Fe  Fe46  1  0.66675358  0.00149373  0.66692422  1
  Fe  Fe47  1  0.83304815  0.16746459  0.83305214  1
  Fe  Fe48  1  0.83520269  0.49972037  0.49972067  1
  Fe  Fe49  1  0.66852955  0.33198320  0.66746197  1
  Fe  Fe50  1  0.83412690  0.49971966  0.83412473  1
  Fe  Fe51  1  0.83395869  0.83395869  0.49955348  1
  Cr  Cr52  1  0.66742601  0.66742601  0.66721461  1
  Fe  Fe53  1  0.83358498  0.83358498  0.83375233  1
" 