2003,Fe12Cr88_8,-221.807845681174, 125.509571988617,Fe12Cr88,"# generated using pymatgen
 data_CrFe8
_symmetry_space_group_name_H-M   'P 1'
_cell_length_a   7.45634372
_cell_length_b   7.45634372
_cell_length_c   10.54486242
_cell_angle_alpha   90.00000000
_cell_angle_beta   90.00000000
_cell_angle_gamma   90.00000000
_symmetry_Int_Tables_number   1
_chemical_formula_structural   CrFe8
_chemical_formula_sum   'Cr6 Fe48'
_cell_volume   586.26336664
_cell_formula_units_Z   6
loop_
 _symmetry_equiv_pos_site_id
 _symmetry_equiv_pos_as_xyz
  1  'x, y, z'
loop_
 _atom_site_type_symbol
 _atom_site_label
 _atom_site_symmetry_multiplicity
 _atom_site_fract_x
 _atom_site_fract_y
 _atom_site_fract_z
 _atom_site_occupancy
  Fe  Fe0  1  0.00071887  0.00074441  0.00074452  1
  Fe  Fe1  1  0.16576996  0.16740942  0.16744155  1
  Fe  Fe2  1  1.00049379  1.00051971  0.33408043  1
  Fe  Fe3  1  0.00071860  0.33402635  0.00074445  1
  Fe  Fe4  1  0.16766299  0.50049105  0.16769110  1
  Fe  Fe5  1  0.99963024  0.33343939  0.33324268  1
  Fe  Fe6  1  0.00071866  0.66738256  0.00071939  1
  Fe  Fe7  1  0.16764040  0.83425304  0.16744100  1
  Fe  Fe8  1  0.00156416  0.66819649  0.33326612  1
  Fe  Fe9  1  0.33323394  0.99987293  0.99987294  1
  Cr  Cr10  1  0.50179209  0.16753098  0.16783527  1
  Fe  Fe11  1  0.33265107  0.99879032  0.33411958  1
  Fe  Fe12  1  0.33323365  0.33489757  0.99987262  1
  Fe  Fe13  1  0.49986086  0.50150720  0.16685529  1
  Fe  Fe14  1  0.33263502  0.33429395  0.33238951  1
  Fe  Fe15  1  0.33410515  0.66738293  1.00051787  1
  Fe  Fe16  1  0.49988494  0.83323827  0.16660827  1
  Fe  Fe17  1  0.33242692  0.66906781  0.33262131  1
  Fe  Fe18  1  0.66820195  0.99987149  0.99992336  1
  Fe  Fe19  1  0.83564613  0.16738555  0.16744012  1
  Fe  Fe20  1  0.66901205  0.00072788  0.33407047  1
  Fe  Fe21  1  0.66820251  0.33489935  0.99992283  1
  Fe  Fe22  1  0.83462674  0.49963460  0.16661141  1
  Fe  Fe23  1  0.66988856  0.33321841  0.33322334  1
  Fe  Fe24  1  0.66732942  0.66738261  0.00096984  1
  Fe  Fe25  1  0.83462539  0.83513282  0.16656122  1
  Cr  Cr26  1  0.66647054  0.66769391  0.33435442  1
  Fe  Fe27  1  0.16602268  0.16596389  0.50071526  1
  Fe  Fe28  1  0.00099588  1.00049308  0.66732834  1
  Fe  Fe29  1  0.16746242  0.16740916  0.83399689  1
  Cr  Cr30  1  0.16478014  0.50119738  0.49966024  1
  Fe  Fe31  1  1.00013214  0.33346754  0.66816467  1
  Fe  Fe32  1  0.16657788  0.49988450  0.83460413  1
  Fe  Fe33  1  0.16704960  0.83653546  0.49985699  1
  Fe  Fe34  1  0.99819237  0.66819247  0.66816461  1
  Fe  Fe35  1  0.16655417  0.83486040  0.83485507  1
  Cr  Cr36  1  0.50103023  0.16614894  0.50102973  1
  Fe  Fe37  1  0.33322000  0.00155895  0.66816311  1
  Fe  Fe38  1  0.50069119  0.16740892  0.83399845  1
  Cr  Cr39  1  0.50161350  0.49917185  0.50010385  1
  Fe  Fe40  1  0.33320734  0.33153883  0.66988882  1
  Fe  Fe41  1  0.50152879  0.49983453  0.83460846  1
  Fe  Fe42  1  0.50047021  0.83552067  0.50068805  1
  Cr  Cr43  1  0.33526314  0.66921466  0.66798756  1
  Fe  Fe44  1  0.50155294  0.83491068  0.83485756  1
  Fe  Fe45  1  0.83566625  0.16788477  0.50066728  1
  Fe  Fe46  1  0.66793730  0.99961016  0.66816164  1
  Fe  Fe47  1  0.83399964  0.16738663  0.83404569  1
  Fe  Fe48  1  0.83465027  0.49966107  0.50157433  1
  Fe  Fe49  1  0.66881219  0.33433697  0.66900827  1
  Fe  Fe50  1  0.83404803  0.50074365  0.83396985  1
  Fe  Fe51  1  0.83463463  0.83460830  0.50157328  1
  Fe  Fe52  1  0.66987449  0.66820206  0.66792550  1
  Fe  Fe53  1  0.83404760  0.83402305  0.83402107  1
" 