7487,Fe12Cr88_13,-221.838450370636, 128.218094896361,Fe12Cr88,"# generated using pymatgen
 data_CrFe8
_symmetry_space_group_name_H-M   'P 1'
_cell_length_a   7.45573906
_cell_length_b   7.45573906
_cell_length_c   10.54400730
_cell_angle_alpha   90.00000000
_cell_angle_beta   90.00000000
_cell_angle_gamma   90.00000000
_symmetry_Int_Tables_number   1
_chemical_formula_structural   CrFe8
_chemical_formula_sum   'Cr6 Fe48'
_cell_volume   586.12075141
_cell_formula_units_Z   6
loop_
 _symmetry_equiv_pos_site_id
 _symmetry_equiv_pos_as_xyz
  1  'x, y, z'
loop_
 _atom_site_type_symbol
 _atom_site_label
 _atom_site_symmetry_multiplicity
 _atom_site_fract_x
 _atom_site_fract_y
 _atom_site_fract_z
 _atom_site_occupancy
  Fe  Fe0  1  0.99914932  0.00076335  1.00074998  1
  Cr  Cr1  1  0.16622378  0.16743014  0.16623020  1
  Fe  Fe2  1  0.99998976  0.99830042  0.33488276  1
  Fe  Fe3  1  0.00099390  0.33385757  0.00099297  1
  Fe  Fe4  1  0.16907274  0.50239645  0.16739740  1
  Cr  Cr5  1  0.99896967  0.33648063  0.33437811  1
  Cr  Cr6  1  1.00000269  0.66607080  0.00180871  1
  Fe  Fe7  1  0.16739599  0.83245143  0.16906750  1
  Fe  Fe8  1  0.00078679  0.66905369  0.33381751  1
  Cr  Cr9  1  0.33573808  1.00032093  0.99912375  1
  Fe  Fe10  1  0.50323066  0.16826365  0.16823428  1
  Fe  Fe11  1  0.33466079  1.00018872  0.33490865  1
  Fe  Fe12  1  0.33463932  0.33673402  0.99991416  1
  Fe  Fe13  1  0.50048638  0.50051049  0.16739691  1
  Fe  Fe14  1  0.33652483  0.33485796  0.33490637  1
  Fe  Fe15  1  0.33567950  0.66582130  1.00075727  1
  Fe  Fe16  1  0.50132612  0.83350013  0.16821026  1
  Fe  Fe17  1  0.33379163  0.66722696  0.33403966  1
  Fe  Fe18  1  0.66846793  0.99972758  0.00156914  1
  Fe  Fe19  1  0.83166683  0.16658902  0.16631719  1
  Fe  Fe20  1  0.66762487  0.00103363  0.33406405  1
  Fe  Fe21  1  0.66664040  0.33487380  0.00161750  1
  Fe  Fe22  1  0.83271320  0.50048921  0.16739451  1
  Fe  Fe23  1  0.66579967  0.33406213  0.33406404  1
  Fe  Fe24  1  0.66558569  0.66767237  1.00073391  1
  Fe  Fe25  1  0.83355506  0.83519845  0.16820670  1
  Fe  Fe26  1  0.66769713  0.66717895  0.33406278  1
  Fe  Fe27  1  0.16740395  0.16742051  0.50054236  1
  Fe  Fe28  1  0.99998216  0.99995064  0.66664253  1
  Fe  Fe29  1  0.16740220  0.16904676  0.83435412  1
  Fe  Fe30  1  0.16826158  0.50154320  0.50156908  1
  Fe  Fe31  1  0.00181556  0.33467377  0.66639833  1
  Fe  Fe32  1  0.16803802  0.49967850  0.83331192  1
  Fe  Fe33  1  0.16659303  0.83331371  0.49990394  1
  Fe  Fe34  1  0.00098202  0.66764889  0.66767387  1
  Fe  Fe35  1  0.16636480  0.83355019  0.83330400  1
  Fe  Fe36  1  0.50156338  0.16825701  0.49992767  1
  Cr  Cr37  1  0.33499570  0.00135788  0.66772000  1
  Fe  Fe38  1  0.50073881  0.16904824  0.83411052  1
  Fe  Fe39  1  0.50072992  0.50072873  0.50075874  1
  Fe  Fe40  1  0.33406483  0.33565347  0.66745206  1
  Fe  Fe41  1  0.50095076  0.50053620  0.83411949  1
  Fe  Fe42  1  0.50156186  0.83328978  0.49995306  1
  Fe  Fe43  1  0.33406475  0.66583819  0.66747848  1
  Fe  Fe44  1  0.50262607  0.83269279  0.83410970  1
  Fe  Fe45  1  0.83330776  0.16658775  0.50181492  1
  Fe  Fe46  1  0.66820919  0.99995211  0.66664489  1
  Cr  Cr47  1  0.83528648  0.16622385  0.83528970  1
  Fe  Fe48  1  0.83328223  0.50154413  0.50159651  1
  Fe  Fe49  1  0.66639557  0.33464773  0.66659612  1
  Fe  Fe50  1  0.83328469  0.50156508  0.83328564  1
  Fe  Fe51  1  0.83412134  0.83414538  0.50078365  1
  Fe  Fe52  1  0.66722807  0.66767363  0.66747820  1
  Fe  Fe53  1  0.83328500  0.83333052  0.83328670  1
" 