445,Fe12Cr88_3,-221.948680366877, 125.930912017839,Fe12Cr88,"# generated using pymatgen
 data_CrFe8
_symmetry_space_group_name_H-M   'P 1'
_cell_length_a   7.45904018
_cell_length_b   7.45904018
_cell_length_c   10.54867579
_cell_angle_alpha   90.00000000
_cell_angle_beta   90.00000000
_cell_angle_gamma   90.00000000
_symmetry_Int_Tables_number   1
_chemical_formula_structural   CrFe8
_chemical_formula_sum   'Cr6 Fe48'
_cell_volume   586.89963266
_cell_formula_units_Z   6
loop_
 _symmetry_equiv_pos_site_id
 _symmetry_equiv_pos_as_xyz
  1  'x, y, z'
loop_
 _atom_site_type_symbol
 _atom_site_label
 _atom_site_symmetry_multiplicity
 _atom_site_fract_x
 _atom_site_fract_y
 _atom_site_fract_z
 _atom_site_occupancy
  Cr  Cr0  1  0.99935666  0.99935572  0.00140981  1
  Fe  Fe1  1  0.16719213  0.16721515  0.16852262  1
  Fe  Fe2  1  0.00131228  0.99976316  0.33284725  1
  Fe  Fe3  1  0.99996783  0.33647088  0.00133125  1
  Fe  Fe4  1  0.16559330  0.50050353  0.16871531  1
  Fe  Fe5  1  0.00131249  0.33462178  0.33301879  1
  Fe  Fe6  1  0.99898135  0.66514774  1.00051374  1
  Fe  Fe7  1  0.16722762  0.83389183  0.16872623  1
  Fe  Fe8  1  1.00053366  0.66722538  0.33384064  1
  Fe  Fe9  1  0.33647033  0.99997065  0.00132982  1
  Fe  Fe10  1  0.50052695  0.16559401  0.16873975  1
  Fe  Fe11  1  0.33384697  0.00056411  0.33381720  1
  Cr  Cr12  1  0.33421243  0.33421134  0.00141357  1
  Fe  Fe13  1  0.50133743  0.50133643  0.16956635  1
  Fe  Fe14  1  0.33389095  0.33386479  0.33360016  1
  Cr  Cr15  1  0.33327798  0.66806691  0.99994691  1
  Fe  Fe16  1  0.50132369  0.83468047  0.16791704  1
  Fe  Fe17  1  0.33386877  0.66718134  0.33359966  1
  Fe  Fe18  1  0.66514871  0.99898297  1.00051383  1
  Fe  Fe19  1  0.83389133  0.16722819  0.16897075  1
  Fe  Fe20  1  0.66645198  0.99978639  0.33304374  1
  Cr  Cr21  1  0.66806675  0.33327849  0.99994703  1
  Fe  Fe22  1  0.83467982  0.50130013  0.16794141  1
  Fe  Fe23  1  0.66640806  0.33464200  0.33282561  1
  Fe  Fe24  1  0.66877936  0.66877841  1.00053518  1
  Fe  Fe25  1  0.83305627  0.83307914  0.16796593  1
  Fe  Fe26  1  0.66720784  0.66718154  0.33384081  1
  Fe  Fe27  1  0.16875920  0.16720451  0.50078000  1
  Fe  Fe28  1  1.00051888  0.99896188  0.66743271  1
  Cr  Cr29  1  0.16719286  0.16778194  0.83272160  1
  Fe  Fe30  1  0.16695840  0.50026696  0.50056226  1
  Fe  Fe31  1  1.00051760  0.33542410  0.66726029  1
  Fe  Fe32  1  0.16559317  0.50211070  0.83233245  1
  Fe  Fe33  1  0.16695856  0.83413887  0.50056232  1
  Fe  Fe34  1  0.00055713  0.66722549  0.66725548  1
  Fe  Fe35  1  0.16722065  0.83228967  0.83232117  1
  Fe  Fe36  1  0.49896365  0.16720422  0.50056228  1
  Fe  Fe37  1  0.33464327  0.99976757  0.66646093  1
  Fe  Fe38  1  0.50213111  0.16559365  0.83230795  1
  Fe  Fe39  1  0.50078093  0.50028927  0.50053833  1
  Fe  Fe40  1  0.33468883  0.33466244  0.66667570  1
  Fe  Fe41  1  0.50109502  0.50109438  0.83150238  1
  Fe  Fe42  1  0.50078094  0.83411676  0.50053832  1
  Fe  Fe43  1  0.33384538  0.66718149  0.66749696  1
  Fe  Fe44  1  0.50108571  0.83492363  0.83315240  1
  Cr  Cr45  1  0.83445896  0.16720465  0.50112912  1
  Fe  Fe46  1  0.66644912  0.99980698  0.66805476  1
  Fe  Fe47  1  0.83228654  0.16722105  0.83207666  1
  Fe  Fe48  1  0.83387087  0.50208702  0.50053806  1
  Fe  Fe49  1  0.66640528  0.33462135  0.66827335  1
  Fe  Fe50  1  0.83492323  0.50106235  0.83312827  1
  Fe  Fe51  1  0.83387063  0.83231888  0.50053816  1
  Fe  Fe52  1  0.66720769  0.66718150  0.66723466  1
  Fe  Fe53  1  0.83329848  0.83332127  0.83310810  1
" 