4639,Fe12Cr88_9,-221.859028665461, 128.250769039828,Fe12Cr88,"# generated using pymatgen
 data_CrFe8
_symmetry_space_group_name_H-M   'P 1'
_cell_length_a   7.45260803
_cell_length_b   7.45260803
_cell_length_c   10.53957935
_cell_angle_alpha   90.00000000
_cell_angle_beta   90.00000000
_cell_angle_gamma   90.00000000
_symmetry_Int_Tables_number   1
_chemical_formula_structural   CrFe8
_chemical_formula_sum   'Cr6 Fe48'
_cell_volume   585.38263921
_cell_formula_units_Z   6
loop_
 _symmetry_equiv_pos_site_id
 _symmetry_equiv_pos_as_xyz
  1  'x, y, z'
loop_
 _atom_site_type_symbol
 _atom_site_label
 _atom_site_symmetry_multiplicity
 _atom_site_fract_x
 _atom_site_fract_y
 _atom_site_fract_z
 _atom_site_occupancy
  Fe  Fe0  1  0.00200366  0.00294111  0.00246412  1
  Fe  Fe1  1  0.16613513  0.16638597  0.16914618  1
  Fe  Fe2  1  0.00110256  1.00068921  0.33433268  1
  Fe  Fe3  1  0.99814910  0.33395513  0.00129300  1
  Fe  Fe4  1  0.16600473  0.50239991  0.16897071  1
  Fe  Fe5  1  0.00118101  0.33470288  0.33427919  1
  Fe  Fe6  1  0.99986828  0.66630401  0.00239339  1
  Fe  Fe7  1  0.16723906  0.83423329  0.16737836  1
  Fe  Fe8  1  0.00114812  0.66751391  0.33451146  1
  Fe  Fe9  1  0.33356134  1.00060991  0.00267934  1
  Fe  Fe10  1  0.50119642  0.16756859  0.17018075  1
  Fe  Fe11  1  0.33299869  0.99975914  0.33334967  1
  Cr  Cr12  1  0.33191893  0.33486547  0.00190424  1
  Fe  Fe13  1  0.50210637  0.50199095  0.16844473  1
  Fe  Fe14  1  0.33276222  0.33588325  0.33258262  1
  Fe  Fe15  1  0.33517796  0.66941608  0.00302811  1
  Fe  Fe16  1  0.50013331  0.83328310  0.16893750  1
  Fe  Fe17  1  0.33391738  0.66742536  0.33428450  1
  Cr  Cr18  1  0.66760693  1.00011330  1.00035297  1
  Fe  Fe19  1  0.83530537  0.16841742  0.16880979  1
  Fe  Fe20  1  0.66881011  0.99974719  0.33336878  1
  Fe  Fe21  1  0.66998439  0.33498630  0.00217937  1
  Fe  Fe22  1  0.83453861  0.50107784  0.16794457  1
  Fe  Fe23  1  0.66901383  0.33585786  0.33310913  1
  Fe  Fe24  1  0.66840092  0.66587168  0.00230924  1
  Fe  Fe25  1  0.83552965  0.83325300  0.16871099  1
  Fe  Fe26  1  0.66783582  0.66750143  0.33433483  1
  Fe  Fe27  1  0.16567471  0.16772778  0.50065180  1
  Fe  Fe28  1  0.00198844  0.00189405  0.66645176  1
  Fe  Fe29  1  0.16662791  0.16933554  0.83312499  1
  Fe  Fe30  1  0.16799019  0.50038658  0.50085413  1
  Fe  Fe31  1  1.00049942  0.33405538  0.66729606  1
  Fe  Fe32  1  0.16499537  0.50059674  0.83316257  1
  Fe  Fe33  1  0.16786171  0.83475130  0.50112706  1
  Fe  Fe34  1  0.99960055  0.66722556  0.66632605  1
  Cr  Cr35  1  0.16678049  0.83490492  0.83553805  1
  Cr  Cr36  1  0.50108232  0.16961392  0.50001197  1
  Fe  Fe37  1  0.33246919  0.00108633  0.66714236  1
  Fe  Fe38  1  0.49887697  0.16658977  0.83303889  1
  Fe  Fe39  1  0.50102166  0.50314906  0.50120446  1
  Fe  Fe40  1  0.33205177  0.33405394  0.66782634  1
  Cr  Cr41  1  0.50317147  0.50079180  0.83313319  1
  Fe  Fe42  1  0.50010394  0.83212968  0.49973134  1
  Fe  Fe43  1  0.33424091  0.66825140  0.66564867  1
  Fe  Fe44  1  0.50019185  0.83326584  0.83431400  1
  Fe  Fe45  1  0.83685672  0.16846562  0.49984820  1
  Cr  Cr46  1  0.66874033  0.99897053  0.66818323  1
  Fe  Fe47  1  0.83673852  0.16991925  0.83429742  1
  Fe  Fe48  1  0.83391735  0.50040979  0.50064363  1
  Fe  Fe49  1  0.67062745  0.33541242  0.66704497  1
  Fe  Fe50  1  0.83755752  0.50161132  0.83434550  1
  Fe  Fe51  1  0.83510281  0.83367865  0.49957324  1
  Fe  Fe52  1  0.66934744  0.66649672  0.66592277  1
  Fe  Fe53  1  0.83456609  0.83078588  0.83459015  1
" 