3744,Fe12Cr88_2,-221.945111373716, 125.362086632042,Fe12Cr88,"# generated using pymatgen
 data_CrFe8
_symmetry_space_group_name_H-M   'P 1'
_cell_length_a   7.46064652
_cell_length_b   7.46064652
_cell_length_c   10.55094749
_cell_angle_alpha   90.00000000
_cell_angle_beta   90.00000000
_cell_angle_gamma   90.00000000
_symmetry_Int_Tables_number   1
_chemical_formula_structural   CrFe8
_chemical_formula_sum   'Cr6 Fe48'
_cell_volume   587.27888886
_cell_formula_units_Z   6
loop_
 _symmetry_equiv_pos_site_id
 _symmetry_equiv_pos_as_xyz
  1  'x, y, z'
loop_
 _atom_site_type_symbol
 _atom_site_label
 _atom_site_symmetry_multiplicity
 _atom_site_fract_x
 _atom_site_fract_y
 _atom_site_fract_z
 _atom_site_occupancy
  Fe  Fe0  1  0.99987696  0.99987002  0.99959202  1
  Cr  Cr1  1  0.16524895  0.16681258  0.16820515  1
  Fe  Fe2  1  0.99872499  0.99871214  0.33380840  1
  Fe  Fe3  1  0.99804541  0.33458022  0.99961099  1
  Fe  Fe4  1  0.16626871  0.50279612  0.16816009  1
  Fe  Fe5  1  0.99790037  0.33462598  0.33298412  1
  Fe  Fe6  1  0.00070882  0.66682048  0.00042907  1
  Fe  Fe7  1  0.16708549  0.83219175  0.16713023  1
  Fe  Fe8  1  0.99961556  0.66792977  0.33298152  1
  Fe  Fe9  1  0.33453862  0.99806984  0.99965141  1
  Fe  Fe10  1  0.50276063  0.16626271  0.16789734  1
  Fe  Fe11  1  0.33463412  0.99955672  0.33301375  1
  Cr  Cr12  1  0.33379737  0.33381245  1.00037728  1
  Fe  Fe13  1  0.50101921  0.50102527  0.16766091  1
  Fe  Fe14  1  0.33624408  0.33456715  0.33269996  1
  Fe  Fe15  1  0.33297271  0.66945926  0.00121610  1
  Fe  Fe16  1  0.50020313  0.83401992  0.16731349  1
  Fe  Fe17  1  0.33378269  0.66711915  0.33216533  1
  Fe  Fe18  1  0.66682015  0.00069371  1.00042889  1
  Fe  Fe19  1  0.83211043  0.16708361  0.16707979  1
  Fe  Fe20  1  0.66790741  0.00121428  0.33300663  1
  Fe  Fe21  1  0.66942863  0.33300530  0.00118395  1
  Fe  Fe22  1  0.83403097  0.50015295  0.16705553  1
  Fe  Fe23  1  0.66708412  0.33376272  0.33376430  1
  Fe  Fe24  1  0.66764357  0.66765250  0.00125947  1
  Fe  Fe25  1  0.83400782  0.83405114  0.16707184  1
  Fe  Fe26  1  0.66792771  0.66628424  0.33296864  1
  Cr  Cr27  1  0.16627632  0.16614538  0.50023933  1
  Fe  Fe28  1  0.99958670  0.99957391  0.66791242  1
  Fe  Fe29  1  0.16649986  0.16654632  0.83293856  1
  Cr  Cr30  1  0.16735074  0.50026951  0.50042970  1
  Fe  Fe31  1  0.99878920  0.33376256  0.66873458  1
  Fe  Fe32  1  0.16473418  0.50121109  0.83269847  1
  Fe  Fe33  1  0.16556643  0.83372956  0.50040176  1
  Fe  Fe34  1  0.99960684  0.66792355  0.66787640  1
  Fe  Fe35  1  0.16737369  0.83349733  0.83375019  1
  Fe  Fe36  1  0.50170929  0.16889227  0.50042950  1
  Fe  Fe37  1  0.33375478  0.00043742  0.66871829  1
  Fe  Fe38  1  0.50125775  0.16478995  0.83295953  1
  Fe  Fe39  1  0.50179608  0.49854955  0.50072703  1
  Fe  Fe40  1  0.33455032  0.33287066  0.66814987  1
  Cr  Cr41  1  0.50171133  0.50283483  0.83177787  1
  Cr  Cr42  1  0.50157835  0.83269735  0.50149760  1
  Fe  Fe43  1  0.33281533  0.66797327  0.66786426  1
  Fe  Fe44  1  0.50048233  0.83544656  0.83350895  1
  Fe  Fe45  1  0.83213479  0.16707180  0.50040290  1
  Fe  Fe46  1  0.66795583  0.00126351  0.66790772  1
  Fe  Fe47  1  0.83350548  0.16736513  0.83380191  1
  Fe  Fe48  1  0.83213581  0.50045730  0.50045778  1
  Fe  Fe49  1  0.66793765  0.33290943  0.66624231  1
  Fe  Fe50  1  0.83538481  0.50044026  0.83377868  1
  Fe  Fe51  1  0.83593563  0.83376868  0.50042920  1
  Fe  Fe52  1  0.66892193  0.66713620  0.66703115  1
  Fe  Fe53  1  0.83342541  0.83347010  0.83378331  1
" 