1084,Fe12Cr88_19,-221.879838552269, 128.237553553322,Fe12Cr88,"# generated using pymatgen
 data_CrFe8
_symmetry_space_group_name_H-M   'P 1'
_cell_length_a   7.45539418
_cell_length_b   7.45539418
_cell_length_c   10.54351956
_cell_angle_alpha   90.00000000
_cell_angle_beta   90.00000000
_cell_angle_gamma   90.00000000
_symmetry_Int_Tables_number   1
_chemical_formula_structural   CrFe8
_chemical_formula_sum   'Cr6 Fe48'
_cell_volume   586.03941860
_cell_formula_units_Z   6
loop_
 _symmetry_equiv_pos_site_id
 _symmetry_equiv_pos_as_xyz
  1  'x, y, z'
loop_
 _atom_site_type_symbol
 _atom_site_label
 _atom_site_symmetry_multiplicity
 _atom_site_fract_x
 _atom_site_fract_y
 _atom_site_fract_z
 _atom_site_occupancy
  Cr  Cr0  1  0.00147185  1.00008293  1.00008540  1
  Fe  Fe1  1  0.16821893  0.16822766  0.16825718  1
  Fe  Fe2  1  0.00100101  0.99900996  0.33388784  1
  Fe  Fe3  1  1.00002207  0.33642660  1.00001191  1
  Fe  Fe4  1  0.16567484  0.50054585  0.16744772  1
  Fe  Fe5  1  0.00280922  0.33562986  0.33407411  1
  Fe  Fe6  1  0.00101523  0.66567203  0.00083318  1
  Fe  Fe7  1  0.16646670  0.83357052  0.16665414  1
  Fe  Fe8  1  0.99942590  0.66770364  0.33408811  1
  Fe  Fe9  1  0.33565680  0.99925094  0.00106475  1
  Fe  Fe10  1  0.50077793  0.16743088  0.16746548  1
  Cr  Cr11  1  0.33354860  0.00329717  0.33297744  1
  Cr  Cr12  1  0.33440310  0.33383277  0.00248881  1
  Fe  Fe13  1  0.50253077  0.50054455  0.16747098  1
  Fe  Fe14  1  0.33411467  0.33407532  0.33387871  1
  Fe  Fe15  1  0.33387950  0.66923830  0.00104372  1
  Fe  Fe16  1  0.50253354  0.83436961  0.16586076  1
  Cr  Cr17  1  0.33454346  0.66563401  0.33397253  1
  Fe  Fe18  1  0.66487793  1.00024504  1.00003674  1
  Cr  Cr19  1  0.83327833  0.16828414  0.16799209  1
  Fe  Fe20  1  0.66724805  0.99900969  0.33409691  1
  Fe  Fe21  1  0.66844199  0.33465304  1.00001149  1
  Fe  Fe22  1  0.83414022  0.50230582  0.16745096  1
  Fe  Fe23  1  0.66542038  0.33565246  0.33409767  1
  Fe  Fe24  1  0.66744982  0.66744833  0.00083379  1
  Fe  Fe25  1  0.83334533  0.83182384  0.16828984  1
  Fe  Fe26  1  0.66880663  0.66768125  0.33411166  1
  Fe  Fe27  1  0.16820559  0.16822265  0.50150547  1
  Fe  Fe28  1  0.00156995  1.00001896  0.66842152  1
  Fe  Fe29  1  0.16740894  0.16745403  0.83258225  1
  Fe  Fe30  1  0.16646708  0.49977452  0.50152338  1
  Fe  Fe31  1  0.00156958  0.33485325  0.66825846  1
  Fe  Fe32  1  0.16665818  0.50154334  0.83337701  1
  Fe  Fe33  1  0.16567213  0.83434856  0.50231733  1
  Fe  Fe34  1  1.00078067  0.66747192  0.66742350  1
  Fe  Fe35  1  0.16824288  0.83334683  0.83336989  1
  Fe  Fe36  1  0.50002300  0.16822179  0.50150458  1
  Fe  Fe37  1  0.33409111  0.00080864  0.66721434  1
  Fe  Fe38  1  0.50159157  0.16665816  0.83337609  1
  Fe  Fe39  1  0.50176229  0.49977397  0.50152377  1
  Fe  Fe40  1  0.33411370  0.33408681  0.66760995  1
  Fe  Fe41  1  0.50154616  0.50154283  0.83335329  1
  Fe  Fe42  1  0.50255684  0.83434989  0.50231695  1
  Fe  Fe43  1  0.33411336  0.66744922  0.66721268  1
  Fe  Fe44  1  0.50075676  0.83414364  0.83416437  1
  Cr  Cr45  1  0.83411377  0.16688092  0.50050409  1
  Fe  Fe46  1  0.66668343  1.00001917  0.66821141  1
  Fe  Fe47  1  0.83334464  0.16824261  0.83336840  1
  Fe  Fe48  1  0.83411570  0.50231027  0.50072947  1
  Fe  Fe49  1  0.66666131  0.33487550  0.66823456  1
  Fe  Fe50  1  0.83414076  0.50070922  0.83416399  1
  Fe  Fe51  1  0.83411553  0.83260872  0.50070698  1
  Fe  Fe52  1  0.66745059  0.66744937  0.66739921  1
  Fe  Fe53  1  0.83334502  0.83339238  0.83334649  1
" 