4103,Fe12Cr88_12,-221.81886498929, 126.063222425069,Fe12Cr88,"# generated using pymatgen
 data_CrFe8
_symmetry_space_group_name_H-M   'P 1'
_cell_length_a   7.45875319
_cell_length_b   7.45875319
_cell_length_c   10.54826992
_cell_angle_alpha   90.00000000
_cell_angle_beta   90.00000000
_cell_angle_gamma   90.00000000
_symmetry_Int_Tables_number   1
_chemical_formula_structural   CrFe8
_chemical_formula_sum   'Cr6 Fe48'
_cell_volume   586.83189081
_cell_formula_units_Z   6
loop_
 _symmetry_equiv_pos_site_id
 _symmetry_equiv_pos_as_xyz
  1  'x, y, z'
loop_
 _atom_site_type_symbol
 _atom_site_label
 _atom_site_symmetry_multiplicity
 _atom_site_fract_x
 _atom_site_fract_y
 _atom_site_fract_z
 _atom_site_occupancy
  Fe  Fe0  1  0.99959912  1.00034118  0.99978974  1
  Cr  Cr1  1  0.16763538  0.16648541  0.16790476  1
  Fe  Fe2  1  0.99955757  0.99920074  0.33510861  1
  Fe  Fe3  1  0.00066115  0.33378370  0.00063377  1
  Fe  Fe4  1  0.16664055  0.50262709  0.16816981  1
  Fe  Fe5  1  1.00054148  0.33389845  0.33405157  1
  Fe  Fe6  1  0.00153623  0.66749468  0.00160717  1
  Fe  Fe7  1  0.16731540  0.83237848  0.16734747  1
  Fe  Fe8  1  0.00147473  0.66856869  0.33321355  1
  Fe  Fe9  1  0.33380991  0.99988713  0.00091892  1
  Fe  Fe10  1  0.50137077  0.16509852  0.16920544  1
  Fe  Fe11  1  0.33490024  0.99914627  0.33530240  1
  Cr  Cr12  1  0.33455762  0.33507044  0.99898006  1
  Fe  Fe13  1  0.49981349  0.50204807  0.16918798  1
  Fe  Fe14  1  0.33484501  0.33485439  0.33458137  1
  Fe  Fe15  1  0.33304761  0.66794280  0.00182348  1
  Fe  Fe16  1  0.49989290  0.83455414  0.16700550  1
  Fe  Fe17  1  0.33387126  0.66762727  0.33414057  1
  Fe  Fe18  1  0.66809659  0.99979691  0.00181341  1
  Fe  Fe19  1  0.83337190  0.16586343  0.16863252  1
  Fe  Fe20  1  0.66726595  1.00014744  0.33413724  1
  Cr  Cr21  1  0.66647648  0.33267833  0.00140450  1
  Fe  Fe22  1  0.83531453  0.50109708  0.16841770  1
  Fe  Fe23  1  0.66634324  0.33299438  0.33263013  1
  Fe  Fe24  1  0.66716593  0.66799976  0.00277206  1
  Fe  Fe25  1  0.83448729  0.83450768  0.16735818  1
  Fe  Fe26  1  0.66629744  0.66858609  0.33296304  1
  Fe  Fe27  1  0.16689397  0.16763986  0.49986137  1
  Fe  Fe28  1  0.00079816  1.00039575  0.66683027  1
  Fe  Fe29  1  0.16621633  0.16579864  0.83319560  1
  Fe  Fe30  1  0.16888711  0.50046541  0.50042334  1
  Fe  Fe31  1  0.00260139  0.33186505  0.66700174  1
  Fe  Fe32  1  0.16827730  0.50253529  0.83242402  1
  Fe  Fe33  1  0.16689107  0.83355185  0.50040450  1
  Fe  Fe34  1  0.00248269  0.66934310  0.66676017  1
  Fe  Fe35  1  0.16507282  0.83353624  0.83392187  1
  Fe  Fe36  1  0.50089912  0.16764719  0.50040948  1
  Fe  Fe37  1  0.33279211  0.00127675  0.66608591  1
  Fe  Fe38  1  0.50103995  0.16710405  0.83152945  1
  Fe  Fe39  1  0.49891850  0.50051024  0.50051523  1
  Fe  Fe40  1  0.33361019  0.33365143  0.66745967  1
  Fe  Fe41  1  0.49966612  0.50125500  0.83140298  1
  Fe  Fe42  1  0.50091780  0.83352746  0.50091425  1
  Fe  Fe43  1  0.33293323  0.66684487  0.66617991  1
  Cr  Cr44  1  0.50016757  0.83427462  0.83466141  1
  Fe  Fe45  1  0.83389513  0.16564104  0.50041860  1
  Fe  Fe46  1  0.66798749  0.00110443  0.66617640  1
  Fe  Fe47  1  0.83425959  0.16422066  0.83290371  1
  Cr  Cr48  1  0.83380923  0.50046825  0.50021808  1
  Fe  Fe49  1  0.66554978  0.33201847  0.66732313  1
  Cr  Cr50  1  0.83410209  0.50103408  0.83335748  1
  Fe  Fe51  1  0.83384588  0.83551514  0.50051649  1
  Fe  Fe52  1  0.66622195  0.66860663  0.66622651  1
  Fe  Fe53  1  0.83539869  0.83551500  0.83380254  1
" 