8903,Fe12Cr88_4,-221.89619388856, 126.928971301655,Fe12Cr88,"# generated using pymatgen
 data_CrFe8
_symmetry_space_group_name_H-M   'P 1'
_cell_length_a   7.45867968
_cell_length_b   7.45867968
_cell_length_c   10.54816595
_cell_angle_alpha   90.00000000
_cell_angle_beta   90.00000000
_cell_angle_gamma   90.00000000
_symmetry_Int_Tables_number   1
_chemical_formula_structural   CrFe8
_chemical_formula_sum   'Cr6 Fe48'
_cell_volume   586.81453986
_cell_formula_units_Z   6
loop_
 _symmetry_equiv_pos_site_id
 _symmetry_equiv_pos_as_xyz
  1  'x, y, z'
loop_
 _atom_site_type_symbol
 _atom_site_label
 _atom_site_symmetry_multiplicity
 _atom_site_fract_x
 _atom_site_fract_y
 _atom_site_fract_z
 _atom_site_occupancy
  Fe  Fe0  1  0.00056185  0.00058359  1.00049237  1
  Fe  Fe1  1  0.16724999  0.16574601  0.16720462  1
  Fe  Fe2  1  1.00035175  1.00032963  0.33391956  1
  Fe  Fe3  1  0.00056343  0.33238390  1.00054065  1
  Cr  Cr4  1  0.16624889  0.50154423  0.16764868  1
  Fe  Fe5  1  0.99958332  0.33338283  0.33463919  1
  Fe  Fe6  1  1.00053996  0.66871926  0.00058195  1
  Fe  Fe7  1  0.16722844  0.83536188  0.16724852  1
  Fe  Fe8  1  0.00130131  0.66797420  0.33464294  1
  Fe  Fe9  1  0.33313446  0.99980401  0.00108329  1
  Fe  Fe10  1  0.50035308  0.16745686  0.16701801  1
  Fe  Fe11  1  0.33412397  1.00033016  0.33412663  1
  Fe  Fe12  1  0.33387631  0.33391438  1.00053209  1
  Fe  Fe13  1  0.50131844  0.49979485  0.16643564  1
  Fe  Fe14  1  0.33486867  0.33336400  0.33465943  1
  Fe  Fe15  1  0.33467992  0.66796601  0.99977537  1
  Fe  Fe16  1  0.49958551  0.83442852  0.16646028  1
  Fe  Fe17  1  0.33315539  0.66799252  0.33466280  1
  Fe  Fe18  1  0.66798672  0.99978211  0.00106641  1
  Fe  Fe19  1  0.83408024  0.16747898  0.16720277  1
  Fe  Fe20  1  0.66720680  0.00204467  0.33414731  1
  Fe  Fe21  1  0.66724141  0.33393228  0.00208014  1
  Fe  Fe22  1  0.83314738  0.49981554  0.16624871  1
  Fe  Fe23  1  0.66722814  0.33241055  0.33389622  1
  Fe  Fe24  1  0.66646143  0.66796798  0.00151340  1
  Fe  Fe25  1  0.83487035  0.83438613  0.16645946  1
  Cr  Cr26  1  0.66765088  0.66679983  0.33347246  1
  Fe  Fe27  1  0.16649281  0.16798107  0.49982726  1
  Fe  Fe28  1  1.00054502  0.00058446  0.66727149  1
  Fe  Fe29  1  0.16473750  0.16821075  0.83464872  1
  Fe  Fe30  1  0.16722964  0.50058509  0.50035411  1
  Fe  Fe31  1  0.00130729  0.33266735  0.66650594  1
  Fe  Fe32  1  0.16896951  0.50033221  0.83410260  1
  Fe  Fe33  1  0.16647153  0.83311745  0.49978416  1
  Fe  Fe34  1  0.00128614  0.66843269  0.66646184  1
  Fe  Fe35  1  0.16646923  0.83313733  0.83465034  1
  Fe  Fe36  1  0.50058237  0.16873487  0.49926365  1
  Cr  Cr37  1  0.33184300  1.00016092  0.66682628  1
  Cr  Cr38  1  0.50070142  0.16816768  0.83511702  1
  Fe  Fe39  1  0.49981880  0.49979867  0.50136950  1
  Fe  Fe40  1  0.33336824  0.33594845  0.66649691  1
  Fe  Fe41  1  0.49905661  0.50206976  0.83387330  1
  Fe  Fe42  1  0.49981303  0.83314666  0.49981735  1
  Fe  Fe43  1  0.33416709  0.66592461  0.66724874  1
  Fe  Fe44  1  0.50079095  0.83065507  0.83539769  1
  Fe  Fe45  1  0.83460786  0.16798348  0.49984994  1
  Cr  Cr46  1  0.66940636  0.99918073  0.66640222  1
  Fe  Fe47  1  0.83615481  0.16647290  0.83462773  1
  Fe  Fe48  1  0.83463560  0.49981900  0.50153663  1
  Fe  Fe49  1  0.66700696  0.33520446  0.66570855  1
  Cr  Cr50  1  0.83417768  0.50084724  0.83389686  1
  Fe  Fe51  1  0.83540019  0.83387718  0.50058773  1
  Fe  Fe52  1  0.66622974  0.66667958  0.66627369  1
  Fe  Fe53  1  0.83442403  0.83487687  0.83463230  1
" 