7696,Fe12Cr88_11,-221.837398013704, 126.246460543138,Fe12Cr88,"# generated using pymatgen
 data_CrFe8
_symmetry_space_group_name_H-M   'P 1'
_cell_length_a   7.45632718
_cell_length_b   7.45632718
_cell_length_c   10.54483903
_cell_angle_alpha   90.00000000
_cell_angle_beta   90.00000000
_cell_angle_gamma   90.00000000
_symmetry_Int_Tables_number   1
_chemical_formula_structural   CrFe8
_chemical_formula_sum   'Cr6 Fe48'
_cell_volume   586.25946572
_cell_formula_units_Z   6
loop_
 _symmetry_equiv_pos_site_id
 _symmetry_equiv_pos_as_xyz
  1  'x, y, z'
loop_
 _atom_site_type_symbol
 _atom_site_label
 _atom_site_symmetry_multiplicity
 _atom_site_fract_x
 _atom_site_fract_y
 _atom_site_fract_z
 _atom_site_occupancy
  Cr  Cr0  1  0.00074265  0.99979655  0.00135303  1
  Fe  Fe1  1  0.16882425  0.16764789  0.16907452  1
  Fe  Fe2  1  0.00158677  0.99987403  0.33482031  1
  Fe  Fe3  1  0.00181942  0.33462358  0.99816730  1
  Cr  Cr4  1  0.16860544  0.50103729  0.16614607  1
  Fe  Fe5  1  0.00156736  0.33316615  0.33656874  1
  Fe  Fe6  1  0.00095069  0.66765486  0.99903333  1
  Fe  Fe7  1  0.16688542  0.83404438  0.16907412  1
  Fe  Fe8  1  1.00069814  0.66911631  0.33570228  1
  Cr  Cr9  1  0.33372109  0.00133945  0.00133459  1
  Fe  Fe10  1  0.49986602  0.16870836  0.16819906  1
  Fe  Fe11  1  0.33397568  0.00074560  0.33374255  1
  Fe  Fe12  1  0.33464222  0.33463865  0.99992844  1
  Fe  Fe13  1  0.50093984  0.50046422  0.16735816  1
  Fe  Fe14  1  0.33488905  0.33318905  0.33480912  1
  Fe  Fe15  1  0.33464108  0.66677708  0.99990366  1
  Fe  Fe16  1  0.50181164  0.83298544  0.16819737  1
  Fe  Fe17  1  0.33488860  0.66822274  0.33483354  1
  Fe  Fe18  1  0.66657676  0.99987328  0.99987331  1
  Cr  Cr19  1  0.83280846  0.16647129  0.16768978  1
  Fe  Fe20  1  0.66659287  0.99987351  0.33484178  1
  Fe  Fe21  1  0.66569477  0.33357083  0.99905805  1
  Cr  Cr22  1  0.83378255  0.50161965  0.16676854  1
  Fe  Fe23  1  0.66570043  0.33407892  0.33570723  1
  Fe  Fe24  1  0.66656707  0.66871239  0.99992655  1
  Fe  Fe25  1  0.83345913  0.83297661  0.16820822  1
  Fe  Fe26  1  0.66657137  0.66820318  0.33483924  1
  Fe  Fe27  1  0.16818706  0.16823656  0.49983497  1
  Cr  Cr28  1  0.00133839  1.00071785  0.66768995  1
  Fe  Fe29  1  0.16819436  0.16992271  0.83325393  1
  Fe  Fe30  1  0.16733140  0.50071835  0.50045941  1
  Fe  Fe31  1  1.00071887  0.33568345  0.66741444  1
  Fe  Fe32  1  0.16733278  0.50071905  0.83436309  1
  Fe  Fe33  1  0.16821064  0.83320167  0.49986025  1
  Fe  Fe34  1  1.00071871  0.66575365  0.66741460  1
  Fe  Fe35  1  0.16821936  0.83151522  0.83322940  1
  Fe  Fe36  1  0.50074306  0.16735706  0.50071345  1
  Fe  Fe37  1  0.33568471  0.00071987  0.66766948  1
  Fe  Fe38  1  0.50158164  0.16816873  0.83324616  1
  Fe  Fe39  1  0.50071872  0.50071794  0.50066200  1
  Fe  Fe40  1  0.33379194  0.33376842  0.66741484  1
  Fe  Fe41  1  0.50069217  0.50071818  0.83413668  1
  Fe  Fe42  1  0.50071911  0.83408164  0.50073920  1
  Fe  Fe43  1  0.33379184  0.66766835  0.66741498  1
  Fe  Fe44  1  0.50155659  0.83327051  0.83322156  1
  Fe  Fe45  1  0.83322749  0.16823512  0.49960747  1
  Fe  Fe46  1  0.66573299  0.00071968  0.66744106  1
  Fe  Fe47  1  0.83238060  0.16905400  0.83434493  1
  Fe  Fe48  1  0.83410651  0.50069429  0.50043396  1
  Fe  Fe49  1  0.66764577  0.33379235  0.66738938  1
  Fe  Fe50  1  0.83413176  0.50069481  0.83436378  1
  Fe  Fe51  1  0.83322773  0.83322703  0.49983523  1
  Fe  Fe52  1  0.66764602  0.66764457  0.66738943  1
  Fe  Fe53  1  0.83238057  0.83240721  0.83411701  1
" 