2383,Fe12Cr88_17,-221.878014666526, 124.810928598961,Fe12Cr88,"# generated using pymatgen
 data_CrFe8
_symmetry_space_group_name_H-M   'P 1'
_cell_length_a   7.46003995
_cell_length_b   7.46003995
_cell_length_c   10.55008967
_cell_angle_alpha   90.00000000
_cell_angle_beta   90.00000000
_cell_angle_gamma   90.00000000
_symmetry_Int_Tables_number   1
_chemical_formula_structural   CrFe8
_chemical_formula_sum   'Cr6 Fe48'
_cell_volume   587.13565897
_cell_formula_units_Z   6
loop_
 _symmetry_equiv_pos_site_id
 _symmetry_equiv_pos_as_xyz
  1  'x, y, z'
loop_
 _atom_site_type_symbol
 _atom_site_label
 _atom_site_symmetry_multiplicity
 _atom_site_fract_x
 _atom_site_fract_y
 _atom_site_fract_z
 _atom_site_occupancy
  Fe  Fe0  1  1.00044925  1.00042186  1.00030680  1
  Fe  Fe1  1  0.16659618  0.16609722  0.16643297  1
  Fe  Fe2  1  0.00249805  0.00200451  0.33401961  1
  Fe  Fe3  1  0.00049229  0.33380194  0.00050130  1
  Fe  Fe4  1  0.16658480  0.49992051  0.16480258  1
  Fe  Fe5  1  0.99891628  0.33222563  0.33382689  1
  Fe  Fe6  1  0.00049220  0.66718526  0.00073746  1
  Fe  Fe7  1  0.16558486  0.83539114  0.16562257  1
  Cr  Cr8  1  0.99961279  0.66830876  0.33380452  1
  Fe  Fe9  1  0.33301934  0.00125029  0.99974082  1
  Fe  Fe10  1  0.50044972  0.16869556  0.16561202  1
  Fe  Fe11  1  0.33121252  0.00103320  0.33460958  1
  Fe  Fe12  1  0.33382633  0.33382366  0.00076163  1
  Fe  Fe13  1  0.50205883  0.49891866  0.16562152  1
  Cr  Cr14  1  0.33483289  0.33338650  0.33277590  1
  Fe  Fe15  1  0.33299734  0.66633438  0.99997641  1
  Cr  Cr16  1  0.49989658  0.83323093  0.16658406  1
  Cr  Cr17  1  0.33391156  0.66635905  0.33422904  1
  Fe  Fe18  1  0.66793995  0.00124951  0.99990931  1
  Fe  Fe19  1  0.83436689  0.16769892  0.16641174  1
  Cr  Cr20  1  0.66889036  0.00163855  0.33525527  1
  Fe  Fe21  1  0.66709044  0.33378074  0.00054711  1
  Fe  Fe22  1  0.83276560  0.49993059  0.16643344  1
  Fe  Fe23  1  0.66866979  0.33582951  0.33378149  1
  Fe  Fe24  1  0.66791887  0.66637821  0.99976466  1
  Fe  Fe25  1  0.83536440  0.83378288  0.16561120  1
  Fe  Fe26  1  0.66769989  0.66456783  0.33458648  1
  Fe  Fe27  1  0.16712774  0.16710261  0.50040454  1
  Cr  Cr28  1  0.99900010  0.99988421  0.66684239  1
  Fe  Fe29  1  0.16790265  0.16789813  0.83456888  1
  Fe  Fe30  1  0.16632572  0.49968130  0.50282324  1
  Fe  Fe31  1  0.00049206  0.33535783  0.66708103  1
  Fe  Fe32  1  0.16711225  0.50047224  0.83378082  1
  Fe  Fe33  1  0.16794070  0.83462503  0.50119311  1
  Fe  Fe34  1  0.00049210  0.66560205  0.66686740  1
  Fe  Fe35  1  0.16792534  0.83303821  0.83459327  1
  Fe  Fe36  1  0.50044421  0.16708978  0.50199264  1
  Fe  Fe37  1  0.33535591  1.00046807  0.66705842  1
  Fe  Fe38  1  0.50046883  0.16708626  0.83380443  1
  Fe  Fe39  1  0.50205713  0.50050429  0.50195780  1
  Fe  Fe40  1  0.33356285  0.33358430  0.66686643  1
  Fe  Fe41  1  0.50046927  0.50049420  0.83382777  1
  Fe  Fe42  1  0.50045619  0.83381491  0.50176820  1
  Fe  Fe43  1  0.33354117  0.66735674  0.66684519  1
  Fe  Fe44  1  0.50046882  0.83382858  0.83401846  1
  Fe  Fe45  1  0.83383804  0.16870661  0.50042860  1
  Fe  Fe46  1  0.66559734  1.00046803  0.66688986  1
  Fe  Fe47  1  0.83303615  0.16790034  0.83457054  1
  Fe  Fe48  1  0.83302704  0.49969349  0.50119483  1
  Fe  Fe49  1  0.66735445  0.33354089  0.66708026  1
  Fe  Fe50  1  0.83382754  0.50047224  0.83378077  1
  Fe  Fe51  1  0.83301152  0.83301040  0.50120491  1
  Fe  Fe52  1  0.66737611  0.66740017  0.66705763  1
  Fe  Fe53  1  0.83301347  0.83303598  0.83459494  1
" 