5909,Fe12Cr88_15,-221.816366672849, 127.070721324568,Fe12Cr88,"# generated using pymatgen
 data_CrFe8
_symmetry_space_group_name_H-M   'P 1'
_cell_length_a   7.45680640
_cell_length_b   7.45680640
_cell_length_c   10.54551674
_cell_angle_alpha   90.00000000
_cell_angle_beta   90.00000000
_cell_angle_gamma   90.00000000
_symmetry_Int_Tables_number   1
_chemical_formula_structural   CrFe8
_chemical_formula_sum   'Cr6 Fe48'
_cell_volume   586.37250836
_cell_formula_units_Z   6
loop_
 _symmetry_equiv_pos_site_id
 _symmetry_equiv_pos_as_xyz
  1  'x, y, z'
loop_
 _atom_site_type_symbol
 _atom_site_label
 _atom_site_symmetry_multiplicity
 _atom_site_fract_x
 _atom_site_fract_y
 _atom_site_fract_z
 _atom_site_occupancy
  Fe  Fe0  1  1.00038334  0.99988593  0.00150969  1
  Fe  Fe1  1  0.16736417  0.16572053  0.16709482  1
  Fe  Fe2  1  0.00071338  0.99907084  0.33404531  1
  Fe  Fe3  1  0.99843944  0.33509271  0.00173450  1
  Fe  Fe4  1  0.16652434  0.50147872  0.16815509  1
  Cr  Cr5  1  0.99977114  0.33402078  0.33402074  1
  Fe  Fe6  1  0.99932352  0.66708024  1.00068521  1
  Fe  Fe7  1  0.16653653  0.83486254  0.16814295  1
  Fe  Fe8  1  0.00071324  0.66897014  0.33399529  1
  Fe  Fe9  1  0.33484321  0.99985655  0.00126163  1
  Fe  Fe10  1  0.50146022  0.16655671  0.16815081  1
  Fe  Fe11  1  0.33376864  0.00093987  0.33421824  1
  Cr  Cr12  1  0.33491919  0.33345285  0.00098046  1
  Fe  Fe13  1  0.50232360  0.50066720  0.16901278  1
  Fe  Fe14  1  0.33565940  0.33401913  0.33379759  1
  Cr  Cr15  1  0.33341327  0.66975117  0.99947471  1
  Fe  Fe16  1  0.50147503  0.83483785  0.16814276  1
  Fe  Fe17  1  0.33376869  0.66710112  0.33377188  1
  Fe  Fe18  1  0.66683277  0.00073738  1.00061031  1
  Fe  Fe19  1  0.83323469  0.16657181  0.16649048  1
  Fe  Fe20  1  0.66757834  0.00096445  0.33407041  1
  Fe  Fe21  1  0.66878073  0.33424267  1.00043661  1
  Fe  Fe22  1  0.83321075  0.50149338  0.16649158  1
  Fe  Fe23  1  0.66570635  0.33401918  0.33424447  1
  Fe  Fe24  1  0.66873966  0.66707947  1.00065866  1
  Fe  Fe25  1  0.83404801  0.83399478  0.16734966  1
  Fe  Fe26  1  0.66757848  0.66707649  0.33402031  1
  Fe  Fe27  1  0.16734801  0.16738735  0.50095521  1
  Fe  Fe28  1  0.99798205  1.00013862  0.66650593  1
  Cr  Cr29  1  0.16616818  0.16795170  0.83401256  1
  Fe  Fe30  1  0.16818899  0.50144350  0.50157164  1
  Fe  Fe31  1  0.00176109  0.33459728  0.66630367  1
  Fe  Fe32  1  0.16573739  0.50231580  0.83232974  1
  Fe  Fe33  1  0.16651193  0.83322789  0.49987443  1
  Fe  Fe34  1  0.00073766  0.66732718  0.66737961  1
  Fe  Fe35  1  0.16573792  0.83237433  0.83404127  1
  Fe  Fe36  1  0.50066443  0.16738496  0.49906354  1
  Cr  Cr37  1  0.33506773  0.99902329  0.66812526  1
  Fe  Fe38  1  0.50313938  0.16653339  0.83484979  1
  Fe  Fe39  1  0.49984742  0.50146905  0.49987872  1
  Fe  Fe40  1  0.33319751  0.33649924  0.66677579  1
  Fe  Fe41  1  0.50124351  0.50125901  0.83316519  1
  Fe  Fe42  1  0.50152731  0.83320363  0.49989768  1
  Fe  Fe43  1  0.33424322  0.66544081  0.66765342  1
  Fe  Fe44  1  0.50208043  0.83426626  0.83401988  1
  Fe  Fe45  1  0.83404799  0.16570546  0.50073622  1
  Fe  Fe46  1  0.66898916  0.99908845  0.66737949  1
  Fe  Fe47  1  0.83318300  0.16654091  0.83483417  1
  Fe  Fe48  1  0.83402348  0.50230717  0.50068777  1
  Cr  Cr49  1  0.66812049  0.33326381  0.66750109  1
  Fe  Fe50  1  0.83508120  0.50124915  0.83488132  1
  Fe  Fe51  1  0.83402141  0.83404700  0.50071442  1
  Fe  Fe52  1  0.66707865  0.66922372  0.66738120  1
  Fe  Fe53  1  0.83424226  0.83426847  0.83399599  1
" 