5816,Fe12Cr88_18,-221.884899965775, 128.633894526324,Fe12Cr88,"# generated using pymatgen
 data_CrFe8
_symmetry_space_group_name_H-M   'P 1'
_cell_length_a   7.45319752
_cell_length_b   7.45319752
_cell_length_c   10.54041302
_cell_angle_alpha   90.00000000
_cell_angle_beta   90.00000000
_cell_angle_gamma   90.00000000
_symmetry_Int_Tables_number   1
_chemical_formula_structural   CrFe8
_chemical_formula_sum   'Cr6 Fe48'
_cell_volume   585.52155953
_cell_formula_units_Z   6
loop_
 _symmetry_equiv_pos_site_id
 _symmetry_equiv_pos_as_xyz
  1  'x, y, z'
loop_
 _atom_site_type_symbol
 _atom_site_label
 _atom_site_symmetry_multiplicity
 _atom_site_fract_x
 _atom_site_fract_y
 _atom_site_fract_z
 _atom_site_occupancy
  Fe  Fe0  1  0.99939025  0.99950266  0.99977468  1
  Cr  Cr1  1  0.16674581  0.16879185  0.16706745  1
  Fe  Fe2  1  0.99818481  0.00203794  0.33544492  1
  Fe  Fe3  1  0.99922901  0.33610236  0.99954809  1
  Fe  Fe4  1  0.16872611  0.50195938  0.16684405  1
  Fe  Fe5  1  0.99867090  0.33189900  0.33455231  1
  Fe  Fe6  1  0.00271151  0.66734894  0.00102105  1
  Fe  Fe7  1  0.16809002  0.83351565  0.16566901  1
  Cr  Cr8  1  0.99937766  0.66821024  0.33223612  1
  Fe  Fe9  1  0.33443411  0.99814491  0.00154590  1
  Fe  Fe10  1  0.50328292  0.16817398  0.16630880  1
  Cr  Cr11  1  0.33437764  0.00149366  0.33647038  1
  Fe  Fe12  1  0.33462752  0.33737414  1.00078937  1
  Fe  Fe13  1  0.49987427  0.49951977  0.16824608  1
  Fe  Fe14  1  0.33660812  0.33604965  0.33403843  1
  Fe  Fe15  1  0.33280524  0.66739116  1.00059042  1
  Fe  Fe16  1  0.50064450  0.83493910  0.16751393  1
  Fe  Fe17  1  0.33689796  0.66715834  0.33314494  1
  Fe  Fe18  1  0.66915292  0.00120668  0.00203406  1
  Fe  Fe19  1  0.83230524  0.16753551  0.16745062  1
  Fe  Fe20  1  0.66969223  1.00056765  0.33465244  1
  Fe  Fe21  1  0.66909813  0.33364397  0.00188462  1
  Fe  Fe22  1  0.83434480  0.49780081  0.16736007  1
  Fe  Fe23  1  0.66754689  0.33406849  0.33439962  1
  Cr  Cr24  1  0.66838088  0.66672741  1.00024176  1
  Fe  Fe25  1  0.83421331  0.83724582  0.16697322  1
  Fe  Fe26  1  0.66504197  0.66809974  0.33354473  1
  Fe  Fe27  1  0.16596866  0.16699068  0.50210098  1
  Fe  Fe28  1  1.00086824  0.00119887  0.66770856  1
  Fe  Fe29  1  0.16599341  0.16741200  0.83499617  1
  Cr  Cr30  1  0.16787394  0.50072860  0.49977628  1
  Fe  Fe31  1  1.00013849  0.33331220  0.66845712  1
  Fe  Fe32  1  0.16793374  0.50061564  0.83356822  1
  Fe  Fe33  1  0.16659250  0.83489641  0.50301583  1
  Fe  Fe34  1  1.00004520  0.66824120  0.66822558  1
  Fe  Fe35  1  0.16800000  0.83480706  0.83411706  1
  Fe  Fe36  1  0.50209745  0.16948953  0.50277843  1
  Fe  Fe37  1  0.33359670  1.00057084  0.66641245  1
  Cr  Cr38  1  0.50175434  0.16663504  0.83607992  1
  Fe  Fe39  1  0.50322749  0.50117926  0.50126390  1
  Fe  Fe40  1  0.33440136  0.33378382  0.66795022  1
  Fe  Fe41  1  0.49994921  0.50163178  0.83292162  1
  Fe  Fe42  1  0.50203525  0.83224354  0.50244368  1
  Fe  Fe43  1  0.33494756  0.66830989  0.66842916  1
  Fe  Fe44  1  0.50003545  0.83328838  0.83306457  1
  Fe  Fe45  1  0.83446759  0.16813583  0.50126517  1
  Fe  Fe46  1  0.66846661  1.00036323  0.66676460  1
  Fe  Fe47  1  0.83607258  0.16739431  0.83419667  1
  Fe  Fe48  1  0.83182532  0.50051681  0.50170344  1
  Fe  Fe49  1  0.66840984  0.33478827  0.66721270  1
  Fe  Fe50  1  0.83484953  0.49944035  0.83288684  1
  Fe  Fe51  1  0.83366216  0.83428102  0.50201548  1
  Fe  Fe52  1  0.66779407  0.66752397  0.66843276  1
  Fe  Fe53  1  0.83471203  0.83588607  0.83303894  1
" 