1672,Fe12Cr88_14,-221.841210750851, 126.198601822035,Fe12Cr88,"# generated using pymatgen
 data_CrFe8
_symmetry_space_group_name_H-M   'P 1'
_cell_length_a   7.45639474
_cell_length_b   7.45639474
_cell_length_c   10.54493457
_cell_angle_alpha   90.00000000
_cell_angle_beta   90.00000000
_cell_angle_gamma   90.00000000
_symmetry_Int_Tables_number   1
_chemical_formula_structural   CrFe8
_chemical_formula_sum   'Cr6 Fe48'
_cell_volume   586.27540045
_cell_formula_units_Z   6
loop_
 _symmetry_equiv_pos_site_id
 _symmetry_equiv_pos_as_xyz
  1  'x, y, z'
loop_
 _atom_site_type_symbol
 _atom_site_label
 _atom_site_symmetry_multiplicity
 _atom_site_fract_x
 _atom_site_fract_y
 _atom_site_fract_z
 _atom_site_occupancy
  Fe  Fe0  1  0.00081854  0.00095679  0.00074555  1
  Fe  Fe1  1  0.16610439  0.16715776  0.16734014  1
  Fe  Fe2  1  0.00166039  0.99987284  0.33318877  1
  Fe  Fe3  1  0.00079627  0.33396020  0.00074465  1
  Fe  Fe4  1  0.16791957  0.50086705  0.16727164  1
  Fe  Fe5  1  0.00180267  0.33508929  0.33290375  1
  Fe  Fe6  1  0.00082060  0.66722814  0.00086139  1
  Fe  Fe7  1  0.16585981  0.83412629  0.16721687  1
  Fe  Fe8  1  0.00088019  0.66731172  0.33397703  1
  Fe  Fe9  1  0.33088393  0.00193161  1.00019413  1
  Cr  Cr10  1  0.50112351  0.16725689  0.16701293  1
  Fe  Fe11  1  0.33117174  1.00004940  0.33481864  1
  Fe  Fe12  1  0.33287764  0.33476781  0.99991939  1
  Fe  Fe13  1  0.50062234  0.50074113  0.16726036  1
  Fe  Fe14  1  0.33238503  0.33549515  0.33404691  1
  Fe  Fe15  1  0.33202695  0.66552183  0.00080857  1
  Cr  Cr16  1  0.50007427  0.83329441  0.16744784  1
  Fe  Fe17  1  0.33278475  0.66639289  0.33507258  1
  Fe  Fe18  1  0.67034931  0.00166951  1.00000368  1
  Fe  Fe19  1  0.83572682  0.16717355  0.16778447  1
  Fe  Fe20  1  0.66936106  0.99894009  0.33409943  1
  Fe  Fe21  1  0.66852415  0.33485205  0.99979488  1
  Fe  Fe22  1  0.83360038  0.50083285  0.16730086  1
  Fe  Fe23  1  0.66807646  0.33665813  0.33327696  1
  Fe  Fe24  1  0.66913441  0.66571298  1.00037471  1
  Fe  Fe25  1  0.83541054  0.83415465  0.16725823  1
  Fe  Fe26  1  0.66837632  0.66648486  0.33532641  1
  Fe  Fe27  1  0.16714775  0.16761705  0.50084643  1
  Fe  Fe28  1  0.00125295  0.99950882  0.66821270  1
  Fe  Fe29  1  0.16753591  0.16714226  0.83393415  1
  Fe  Fe30  1  0.16697400  0.49986513  0.50074980  1
  Fe  Fe31  1  0.00137075  0.33547024  0.66849794  1
  Fe  Fe32  1  0.16746189  0.50120898  0.83413188  1
  Fe  Fe33  1  0.16709010  0.83465488  0.50075218  1
  Fe  Fe34  1  0.00252539  0.66731283  0.66731909  1
  Fe  Fe35  1  0.16536170  0.83376836  0.83417089  1
  Cr  Cr36  1  0.50083126  0.16662098  0.50145655  1
  Fe  Fe37  1  0.33211957  1.00020902  0.66755236  1
  Fe  Fe38  1  0.50054915  0.16934903  0.83412135  1
  Fe  Fe39  1  0.49980463  0.50053212  0.49956287  1
  Fe  Fe40  1  0.33337217  0.33538239  0.66832614  1
  Fe  Fe41  1  0.49995264  0.49907529  0.83476827  1
  Fe  Fe42  1  0.49984639  0.83331762  0.49957162  1
  Fe  Fe43  1  0.33181504  0.66663633  0.66657682  1
  Cr  Cr44  1  0.49952889  0.83465373  0.83489711  1
  Cr  Cr45  1  0.83500621  0.16875809  0.50068075  1
  Fe  Fe46  1  0.66858221  0.00106200  0.66867232  1
  Fe  Fe47  1  0.83409561  0.16718407  0.83365932  1
  Fe  Fe48  1  0.83541018  0.50102332  0.49954671  1
  Fe  Fe49  1  0.66744153  0.33408112  0.66937687  1
  Fe  Fe50  1  0.83491064  0.50041482  0.83478928  1
  Fe  Fe51  1  0.83524942  0.83397143  0.49961205  1
  Cr  Cr52  1  0.66789248  0.66687116  0.66601933  1
  Fe  Fe53  1  0.83627408  0.83438366  0.83471902  1
" 