4448,Fe15Cr85_2,-221.734637266066, 132.353160051339,Fe15Cr85,"# generated using pymatgen
 data_Cr4Fe23
_symmetry_space_group_name_H-M   'P 1'
_cell_length_a   7.46636868
_cell_length_b   7.46636868
_cell_length_c   10.55903985
_cell_angle_alpha   90.00000000
_cell_angle_beta   90.00000000
_cell_angle_gamma   90.00000000
_symmetry_Int_Tables_number   1
_chemical_formula_structural   Cr4Fe23
_chemical_formula_sum   'Cr8 Fe46'
_cell_volume   588.63121753
_cell_formula_units_Z   2
loop_
 _symmetry_equiv_pos_site_id
 _symmetry_equiv_pos_as_xyz
  1  'x, y, z'
loop_
 _atom_site_type_symbol
 _atom_site_label
 _atom_site_symmetry_multiplicity
 _atom_site_fract_x
 _atom_site_fract_y
 _atom_site_fract_z
 _atom_site_occupancy
  Fe  Fe0  1  0.99987852  0.00005515  0.99968593  1
  Fe  Fe1  1  0.16853247  0.16656998  0.16699968  1
  Fe  Fe2  1  1.00000315  0.99719647  0.33334746  1
  Fe  Fe3  1  0.00209740  0.33406562  0.99917177  1
  Fe  Fe4  1  0.16548997  0.49896902  0.16579587  1
  Fe  Fe5  1  0.00177976  0.33596241  0.33308846  1
  Fe  Fe6  1  0.99901124  0.66589254  0.00057783  1
  Fe  Fe7  1  0.16532529  0.83471459  0.16528220  1
  Fe  Fe8  1  0.99764980  0.66669862  0.33332583  1
  Fe  Fe9  1  0.33441413  0.00108511  0.00069007  1
  Fe  Fe10  1  0.49779360  0.16538078  0.16649923  1
  Fe  Fe11  1  0.33473738  0.00084942  0.33222957  1
  Fe  Fe12  1  0.33163103  0.33335856  0.99952119  1
  Fe  Fe13  1  0.49970833  0.50053666  0.16644067  1
  Fe  Fe14  1  0.33208243  0.33249758  0.33198674  1
  Fe  Fe15  1  0.33438882  0.66576011  0.00115968  1
  Fe  Fe16  1  0.50111865  0.83438107  0.16592330  1
  Cr  Cr17  1  0.33097037  0.66817788  0.33411572  1
  Fe  Fe18  1  0.66616181  0.99776090  0.99928127  1
  Cr  Cr19  1  0.83502229  0.16553872  0.16723357  1
  Fe  Fe20  1  0.66568232  0.99680527  0.33410232  1
  Cr  Cr21  1  0.66626303  0.33337389  0.99775026  1
  Fe  Fe22  1  0.83444697  0.50238647  0.16654864  1
  Cr  Cr23  1  0.66669424  0.33245145  0.33472812  1
  Fe  Fe24  1  0.66680433  0.66839112  1.00000978  1
  Fe  Fe25  1  0.83344846  0.83163552  0.16648236  1
  Fe  Fe26  1  0.66866110  0.66905693  0.33258649  1
  Cr  Cr27  1  0.16566467  0.16566449  0.49847846  1
  Fe  Fe28  1  0.99838295  0.00048260  0.66656095  1
  Fe  Fe29  1  0.16565564  0.16738663  0.83406643  1
  Fe  Fe30  1  0.16366638  0.50114339  0.50056290  1
  Fe  Fe31  1  0.99793527  0.33384573  0.66752355  1
  Fe  Fe32  1  0.16567560  0.49983652  0.83443467  1
  Fe  Fe33  1  0.16575949  0.83228792  0.50173465  1
  Fe  Fe34  1  0.99944231  0.66568601  0.66597494  1
  Cr  Cr35  1  0.16722834  0.83377365  0.83256202  1
  Fe  Fe36  1  0.50110502  0.16361347  0.50055309  1
  Fe  Fe37  1  0.33507753  0.99890014  0.66636619  1
  Fe  Fe38  1  0.49956132  0.16392558  0.83329898  1
  Cr  Cr39  1  0.50129607  0.50138047  0.50092858  1
  Cr  Cr40  1  0.33361656  0.33363795  0.66791719  1
  Fe  Fe41  1  0.49966305  0.50303383  0.83295796  1
  Fe  Fe42  1  0.50062611  0.83626929  0.50101771  1
  Fe  Fe43  1  0.33340208  0.66855699  0.66625073  1
  Fe  Fe44  1  0.50176521  0.83321920  0.83342663  1
  Fe  Fe45  1  0.83223440  0.16580946  0.50073627  1
  Fe  Fe46  1  0.66659569  0.00034107  0.66691276  1
  Fe  Fe47  1  0.83485066  0.16508627  0.83283546  1
  Fe  Fe48  1  0.83631005  0.50064545  0.50100912  1
  Fe  Fe49  1  0.66944342  0.33238264  0.66793496  1
  Fe  Fe50  1  0.83476764  0.50172905  0.83243728  1
  Fe  Fe51  1  0.83336005  0.83335877  0.50025340  1
  Fe  Fe52  1  0.66760074  0.66760419  0.66777311  1
  Fe  Fe53  1  0.83197203  0.83330258  0.83338313  1
" 