3018,Fe15Cr85_8,-221.623539957505, 131.66164811996,Fe15Cr85,"# generated using pymatgen
 data_Cr4Fe23
_symmetry_space_group_name_H-M   'P 1'
_cell_length_a   7.46510563
_cell_length_b   7.46510563
_cell_length_c   10.55725363
_cell_angle_alpha   90.00000000
_cell_angle_beta   90.00000000
_cell_angle_gamma   90.00000000
_symmetry_Int_Tables_number   1
_chemical_formula_structural   Cr4Fe23
_chemical_formula_sum   'Cr8 Fe46'
_cell_volume   588.33254074
_cell_formula_units_Z   2
loop_
 _symmetry_equiv_pos_site_id
 _symmetry_equiv_pos_as_xyz
  1  'x, y, z'
loop_
 _atom_site_type_symbol
 _atom_site_label
 _atom_site_symmetry_multiplicity
 _atom_site_fract_x
 _atom_site_fract_y
 _atom_site_fract_z
 _atom_site_occupancy
  Cr  Cr0  1  0.00233092  0.99871030  0.00066814  1
  Fe  Fe1  1  0.16805350  0.16736962  0.16798170  1
  Fe  Fe2  1  0.99999615  1.00003874  0.33334961  1
  Fe  Fe3  1  0.00255642  0.33394762  0.00141853  1
  Fe  Fe4  1  0.16723153  0.50017725  0.16761605  1
  Fe  Fe5  1  0.00054712  0.33267602  0.33234122  1
  Fe  Fe6  1  0.00205502  0.66518618  0.00214434  1
  Fe  Fe7  1  0.16829590  0.83256504  0.16819808  1
  Fe  Fe8  1  0.99924152  0.66721897  0.33272873  1
  Fe  Fe9  1  0.33562586  0.00028765  0.00028387  1
  Fe  Fe10  1  0.49824506  0.16505372  0.16733990  1
  Fe  Fe11  1  0.33387483  1.00012933  0.33331347  1
  Fe  Fe12  1  0.33116686  0.33318308  0.00034653  1
  Fe  Fe13  1  0.49779512  0.50209940  0.16693905  1
  Fe  Fe14  1  0.33247047  0.33282442  0.33248283  1
  Fe  Fe15  1  0.33323402  0.66693667  0.00057377  1
  Fe  Fe16  1  0.49972785  0.83367364  0.16708475  1
  Fe  Fe17  1  0.33451832  0.66700878  0.33288164  1
  Fe  Fe18  1  0.66449723  0.99961710  0.00164408  1
  Fe  Fe19  1  0.83397416  0.16593807  0.16795075  1
  Fe  Fe20  1  0.66658182  0.99890628  0.33356194  1
  Cr  Cr21  1  0.66561149  0.33439242  0.00084614  1
  Fe  Fe22  1  0.83499507  0.50175679  0.16669539  1
  Cr  Cr23  1  0.66536040  0.33546584  0.33387186  1
  Fe  Fe24  1  0.66510019  0.66818811  0.00217777  1
  Fe  Fe25  1  0.83258411  0.83284467  0.16734399  1
  Fe  Fe26  1  0.66654944  0.66894997  0.33332502  1
  Fe  Fe27  1  0.16831101  0.16543433  0.49854754  1
  Cr  Cr28  1  0.00253387  0.99847900  0.66612108  1
  Fe  Fe29  1  0.16792658  0.16838347  0.83356106  1
  Cr  Cr30  1  0.16688780  0.49860542  0.50005142  1
  Fe  Fe31  1  0.00149982  0.33226002  0.66675176  1
  Fe  Fe32  1  0.16934182  0.50063943  0.83303851  1
  Fe  Fe33  1  0.16854801  0.83332568  0.49835565  1
  Fe  Fe34  1  0.00099496  0.66663820  0.66576913  1
  Fe  Fe35  1  0.16884573  0.83115523  0.83354442  1
  Fe  Fe36  1  0.49739229  0.16527656  0.49958244  1
  Fe  Fe37  1  0.33594541  0.00026359  0.66675786  1
  Fe  Fe38  1  0.49931903  0.16504814  0.83347450  1
  Fe  Fe39  1  0.49879369  0.50270717  0.49990011  1
  Fe  Fe40  1  0.33223508  0.33184975  0.66780868  1
  Fe  Fe41  1  0.49843518  0.50232025  0.83353927  1
  Fe  Fe42  1  0.49926631  0.83322929  0.49968644  1
  Fe  Fe43  1  0.33414280  0.66785061  0.66714946  1
  Fe  Fe44  1  0.49778622  0.83309839  0.83363191  1
  Fe  Fe45  1  0.83480344  0.16630108  0.49890818  1
  Fe  Fe46  1  0.66481994  0.99962285  0.66536558  1
  Fe  Fe47  1  0.83342628  0.16672730  0.83332082  1
  Fe  Fe48  1  0.83355559  0.50235319  0.50021393  1
  Cr  Cr49  1  0.66539508  0.33456356  0.66547727  1
  Cr  Cr50  1  0.83590537  0.50129293  0.83308138  1
  Fe  Fe51  1  0.83301156  0.83227794  0.49933275  1
  Fe  Fe52  1  0.66509335  0.66891294  0.66488121  1
  Cr  Cr53  1  0.83058717  0.83326181  0.83406229  1
" 