7658,Fe15Cr85_5,-221.706987646425, 131.13064220505,Fe15Cr85,"# generated using pymatgen
 data_Cr4Fe23
_symmetry_space_group_name_H-M   'P 1'
_cell_length_a   7.46996348
_cell_length_b   7.46996348
_cell_length_c   10.56412366
_cell_angle_alpha   90.00000000
_cell_angle_beta   90.00000000
_cell_angle_gamma   90.00000000
_symmetry_Int_Tables_number   1
_chemical_formula_structural   Cr4Fe23
_chemical_formula_sum   'Cr8 Fe46'
_cell_volume   589.48184357
_cell_formula_units_Z   2
loop_
 _symmetry_equiv_pos_site_id
 _symmetry_equiv_pos_as_xyz
  1  'x, y, z'
loop_
 _atom_site_type_symbol
 _atom_site_label
 _atom_site_symmetry_multiplicity
 _atom_site_fract_x
 _atom_site_fract_y
 _atom_site_fract_z
 _atom_site_occupancy
  Fe  Fe0  1  0.99965290  0.99861393  0.99963967  1
  Cr  Cr1  1  0.16606026  0.16647156  0.16521741  1
  Fe  Fe2  1  0.99929116  0.99930542  0.33278749  1
  Fe  Fe3  1  0.99965102  0.33432739  0.99963812  1
  Fe  Fe4  1  0.16648254  0.50082531  0.16648812  1
  Fe  Fe5  1  0.99876110  0.33416788  0.33333013  1
  Fe  Fe6  1  0.00082333  0.66647160  0.99977389  1
  Fe  Fe7  1  0.16645644  0.83211766  0.16648808  1
  Fe  Fe8  1  0.00033644  0.66594079  0.33265338  1
  Fe  Fe9  1  0.33380138  0.99914383  0.99926224  1
  Fe  Fe10  1  0.50083851  0.16648457  0.16647354  1
  Fe  Fe11  1  0.33416777  0.99876277  0.33316727  1
  Fe  Fe12  1  0.33380139  0.33379908  0.99926233  1
  Fe  Fe13  1  0.49913079  0.49912871  0.16714700  1
  Fe  Fe14  1  0.33364205  0.33365472  0.33263033  1
  Fe  Fe15  1  0.33210081  0.66647163  -0.00018408  1
  Fe  Fe16  1  0.49914366  0.83380140  0.16701209  1
  Fe  Fe17  1  0.33260988  0.66699746  0.33262927  1
  Fe  Fe18  1  0.66595956  0.00031595  0.00032832  1
  Fe  Fe19  1  0.83211582  0.16645843  0.16632468  1
  Fe  Fe20  1  0.66595478  0.00033794  0.33263864  1
  Fe  Fe21  1  0.66596149  0.33262536  0.00032664  1
  Fe  Fe22  1  0.83380108  0.49912880  0.16699692  1
  Fe  Fe23  1  0.66701097  0.33261024  0.33264367  1
  Cr  Cr24  1  0.66625793  0.66647168  0.00001877  1
  Fe  Fe25  1  0.83381392  0.83382708  0.16713082  1
  Fe  Fe26  1  0.66646783  0.66646639  0.33195004  1
  Cr  Cr27  1  0.16728137  0.16647374  0.49921645  1
  Cr  Cr28  1  0.00071682  0.99892800  0.66675645  1
  Fe  Fe29  1  0.16856273  0.16647783  0.83418948  1
  Fe  Fe30  1  0.16579931  0.50152573  0.49927499  1
  Cr  Cr31  1  0.99970390  0.33502920  0.66533948  1
  Fe  Fe32  1  0.16683210  0.50015601  0.83364676  1
  Fe  Fe33  1  0.16817930  0.83141848  0.49927705  1
  Fe  Fe34  1  0.00031055  0.66593951  0.66699078  1
  Fe  Fe35  1  0.16681039  0.83278215  0.83365168  1
  Fe  Fe36  1  0.50101108  0.16528688  0.49983331  1
  Fe  Fe37  1  0.33457275  0.99944547  0.66697842  1
  Fe  Fe38  1  0.49874958  0.16648453  0.83310782  1
  Cr  Cr39  1  0.49980573  0.50002012  0.50021658  1
  Fe  Fe40  1  0.33403804  0.33296909  0.66751794  1
  Fe  Fe41  1  0.49945767  0.49911704  0.83244760  1
  Fe  Fe42  1  0.49860738  0.83433990  0.49982033  1
  Fe  Fe43  1  0.33229943  0.66699941  0.66697095  1
  Fe  Fe44  1  0.49947096  0.83381334  0.83258270  1
  Fe  Fe45  1  0.83089529  0.16766585  0.49889887  1
  Fe  Fe46  1  0.66452515  -0.00003368  0.66645610  1
  Cr  Cr47  1  0.83264900  0.16575303  0.83465887  1
  Fe  Fe48  1  0.83380694  0.49912578  0.49930163  1
  Fe  Fe49  1  0.66558769  0.33298069  0.66645218  1
  Fe  Fe50  1  0.83312612  0.50087292  0.83310827  1
  Cr  Cr51  1  0.83262795  0.83262547  0.50033429  1
  Fe  Fe52  1  0.66680287  0.66646370  0.66767970  1
  Fe  Fe53  1  0.83313573  0.83207293  0.83297725  1
" 