8518,Fe15Cr85_15,-221.543337040557, 133.447566898478,Fe15Cr85,"# generated using pymatgen
 data_Cr4Fe23
_symmetry_space_group_name_H-M   'P 1'
_cell_length_a   7.46426097
_cell_length_b   7.46426097
_cell_length_c   10.55605910
_cell_angle_alpha   90.00000000
_cell_angle_beta   90.00000000
_cell_angle_gamma   90.00000000
_symmetry_Int_Tables_number   1
_chemical_formula_structural   Cr4Fe23
_chemical_formula_sum   'Cr8 Fe46'
_cell_volume   588.13285856
_cell_formula_units_Z   2
loop_
 _symmetry_equiv_pos_site_id
 _symmetry_equiv_pos_as_xyz
  1  'x, y, z'
loop_
 _atom_site_type_symbol
 _atom_site_label
 _atom_site_symmetry_multiplicity
 _atom_site_fract_x
 _atom_site_fract_y
 _atom_site_fract_z
 _atom_site_occupancy
  Cr  Cr0  1  0.00134056  0.99981460  0.99841716  1
  Fe  Fe1  1  0.16681265  0.16651211  0.16765405  1
  Fe  Fe2  1  0.00109427  0.00127697  0.33407156  1
  Fe  Fe3  1  0.00032379  0.33411611  0.00046105  1
  Fe  Fe4  1  0.16608444  0.50100784  0.16705588  1
  Fe  Fe5  1  0.00031440  0.33347452  0.33305189  1
  Fe  Fe6  1  0.00113062  0.66389784  0.99874568  1
  Fe  Fe7  1  0.16724300  0.83276645  0.16781904  1
  Fe  Fe8  1  0.00095513  0.66587545  0.33517848  1
  Fe  Fe9  1  0.33424083  0.00236044  0.00027064  1
  Fe  Fe10  1  0.50058363  0.16811650  0.16777214  1
  Fe  Fe11  1  0.33186122  0.00090418  0.33380405  1
  Fe  Fe12  1  0.33228370  0.33208423  0.00153904  1
  Fe  Fe13  1  0.50052597  0.49896892  0.16668601  1
  Fe  Fe14  1  0.33209539  0.33364547  0.33194802  1
  Fe  Fe15  1  0.33073540  0.66646559  0.00096267  1
  Cr  Cr16  1  0.50054475  0.83352433  0.16731598  1
  Fe  Fe17  1  0.33166503  0.66640287  0.33369581  1
  Fe  Fe18  1  0.66602951  0.00342442  0.99955188  1
  Fe  Fe19  1  0.83340864  0.16832848  0.16750382  1
  Fe  Fe20  1  0.66777906  0.00167724  0.33447092  1
  Fe  Fe21  1  0.66770258  0.33221428  0.00100656  1
  Fe  Fe22  1  0.83381287  0.49903337  0.16705080  1
  Fe  Fe23  1  0.66779060  0.33362726  0.33256436  1
  Fe  Fe24  1  0.66859948  0.66500939  1.00008371  1
  Cr  Cr25  1  0.83523004  0.83338876  0.16631245  1
  Fe  Fe26  1  0.66800907  0.66570992  0.33433204  1
  Fe  Fe27  1  0.16493637  0.16759246  0.49998039  1
  Fe  Fe28  1  1.00014545  0.00170935  0.66751002  1
  Fe  Fe29  1  0.16852982  0.16811722  0.83266284  1
  Fe  Fe30  1  0.16557491  0.49816514  0.49940858  1
  Fe  Fe31  1  1.00011716  0.33197721  0.66709630  1
  Fe  Fe32  1  0.16611471  0.49888223  0.83457015  1
  Fe  Fe33  1  0.16788871  0.83457022  0.49932656  1
  Cr  Cr34  1  1.00005135  0.66678526  0.66742353  1
  Fe  Fe35  1  0.16793211  0.83286422  0.83352121  1
  Cr  Cr36  1  0.49926855  0.16748488  0.50191920  1
  Fe  Fe37  1  0.33040065  0.99972983  0.66671038  1
  Fe  Fe38  1  0.49997071  0.16719576  0.83211700  1
  Cr  Cr39  1  0.49925921  0.50096189  0.50125044  1
  Fe  Fe40  1  0.32932330  0.33338299  0.66750386  1
  Cr  Cr41  1  0.49922489  0.49958294  0.83255251  1
  Fe  Fe42  1  0.50004774  0.83438590  0.49997529  1
  Fe  Fe43  1  0.33190773  0.66802937  0.66564446  1
  Cr  Cr44  1  0.50079140  0.83379560  0.83265047  1
  Fe  Fe45  1  0.83505834  0.16753623  0.49989806  1
  Fe  Fe46  1  0.67005162  0.99984773  0.66646786  1
  Fe  Fe47  1  0.83215980  0.16797161  0.83275672  1
  Fe  Fe48  1  0.83441203  0.49824213  0.49932163  1
  Fe  Fe49  1  0.67056695  0.33349213  0.66741465  1
  Fe  Fe50  1  0.83382135  0.49895236  0.83461014  1
  Fe  Fe51  1  0.83278216  0.83453124  0.49869196  1
  Fe  Fe52  1  0.66833502  0.66776637  0.66552959  1
  Fe  Fe53  1  0.83321130  0.83290010  0.83424042  1
" 