7513,Fe15Cr85_4,-221.618172699921, 132.60427395807,Fe15Cr85,"# generated using pymatgen
 data_Cr4Fe23
_symmetry_space_group_name_H-M   'P 1'
_cell_length_a   7.46231884
_cell_length_b   7.46231884
_cell_length_c   10.55331251
_cell_angle_alpha   90.00000000
_cell_angle_beta   90.00000000
_cell_angle_gamma   90.00000000
_symmetry_Int_Tables_number   1
_chemical_formula_structural   Cr4Fe23
_chemical_formula_sum   'Cr8 Fe46'
_cell_volume   587.67389709
_cell_formula_units_Z   2
loop_
 _symmetry_equiv_pos_site_id
 _symmetry_equiv_pos_as_xyz
  1  'x, y, z'
loop_
 _atom_site_type_symbol
 _atom_site_label
 _atom_site_symmetry_multiplicity
 _atom_site_fract_x
 _atom_site_fract_y
 _atom_site_fract_z
 _atom_site_occupancy
  Fe  Fe0  1  0.99954921  0.00119678  0.00113146  1
  Fe  Fe1  1  0.16627045  0.16635104  0.16584675  1
  Fe  Fe2  1  0.00163431  0.00158305  0.33255039  1
  Fe  Fe3  1  0.99906952  0.33262710  0.00155795  1
  Fe  Fe4  1  0.16689138  0.50039772  0.16663696  1
  Fe  Fe5  1  0.99844981  0.33329633  0.33347020  1
  Cr  Cr6  1  0.00091650  0.66829908  0.99980352  1
  Fe  Fe7  1  0.16763150  0.83430134  0.16810206  1
  Fe  Fe8  1  0.99959201  0.66618164  0.33237784  1
  Fe  Fe9  1  0.33389332  0.99898407  0.00109220  1
  Fe  Fe10  1  0.50070645  0.16698629  0.16594880  1
  Fe  Fe11  1  0.33253548  0.99927777  0.33182135  1
  Fe  Fe12  1  0.33452071  0.33406224  0.00197593  1
  Fe  Fe13  1  0.50135334  0.50103586  0.16626586  1
  Cr  Cr14  1  0.33314821  0.33397805  0.33449829  1
  Fe  Fe15  1  0.33570928  0.66776735  0.00101192  1
  Fe  Fe16  1  0.50005419  0.83291644  0.16632839  1
  Fe  Fe17  1  0.33484095  0.66822456  0.33255234  1
  Fe  Fe18  1  0.66741669  0.99968318  0.00064413  1
  Fe  Fe19  1  0.83398615  0.16762259  0.16628172  1
  Cr  Cr20  1  0.66736244  0.99991501  0.33445035  1
  Fe  Fe21  1  0.66735707  0.33402983  0.99996177  1
  Fe  Fe22  1  0.83280241  0.49981026  0.16744188  1
  Fe  Fe23  1  0.66880920  0.33547917  0.33348884  1
  Fe  Fe24  1  0.66574597  0.66720677  1.00022329  1
  Fe  Fe25  1  0.83337323  0.83357217  0.16711961  1
  Fe  Fe26  1  0.66663247  0.66504455  0.33346449  1
  Fe  Fe27  1  0.16449341  0.16753667  0.50169330  1
  Fe  Fe28  1  0.99774305  0.00032754  0.66690528  1
  Cr  Cr29  1  0.16699093  0.16702865  0.83287046  1
  Fe  Fe30  1  0.16605291  0.49981784  0.50170188  1
  Fe  Fe31  1  0.99969993  0.33378535  0.66515920  1
  Cr  Cr32  1  0.16718622  0.50027709  0.83273285  1
  Cr  Cr33  1  0.16695211  0.83361986  0.50049291  1
  Fe  Fe34  1  0.99777454  0.66693282  0.66718231  1
  Fe  Fe35  1  0.16794498  0.83436071  0.83222851  1
  Cr  Cr36  1  0.50008632  0.16570476  0.50087002  1
  Fe  Fe37  1  0.33520178  0.99927919  0.66782819  1
  Fe  Fe38  1  0.50078347  0.16632165  0.83455644  1
  Fe  Fe39  1  0.50028999  0.50389046  0.50039221  1
  Fe  Fe40  1  0.33308646  0.33470556  0.66546147  1
  Fe  Fe41  1  0.50084475  0.50085278  0.83473710  1
  Fe  Fe42  1  0.50120816  0.83103507  0.50114782  1
  Fe  Fe43  1  0.33609242  0.66684067  0.66691297  1
  Fe  Fe44  1  0.49968969  0.83366526  0.83381211  1
  Fe  Fe45  1  0.83698587  0.16661266  0.50036357  1
  Fe  Fe46  1  0.66792395  0.99774608  0.66764518  1
  Fe  Fe47  1  0.83307069  0.16640226  0.83474370  1
  Fe  Fe48  1  0.83443337  0.50143383  0.49948016  1
  Cr  Cr49  1  0.66668086  0.33334736  0.66683112  1
  Fe  Fe50  1  0.83240521  0.50007836  0.83394543  1
  Fe  Fe51  1  0.83279451  0.83270811  0.50116249  1
  Fe  Fe52  1  0.66708818  0.66836953  0.66728139  1
  Fe  Fe53  1  0.83335353  0.83459915  0.83292316  1
" 