278,Fe15Cr85_7,-221.655864705085, 130.715820046427,Fe15Cr85,"# generated using pymatgen
 data_Cr4Fe23
_symmetry_space_group_name_H-M   'P 1'
_cell_length_a   7.47028649
_cell_length_b   7.47028649
_cell_length_c   10.56458046
_cell_angle_alpha   90.00000000
_cell_angle_beta   90.00000000
_cell_angle_gamma   90.00000000
_symmetry_Int_Tables_number   1
_chemical_formula_structural   Cr4Fe23
_chemical_formula_sum   'Cr8 Fe46'
_cell_volume   589.55831635
_cell_formula_units_Z   2
loop_
 _symmetry_equiv_pos_site_id
 _symmetry_equiv_pos_as_xyz
  1  'x, y, z'
loop_
 _atom_site_type_symbol
 _atom_site_label
 _atom_site_symmetry_multiplicity
 _atom_site_fract_x
 _atom_site_fract_y
 _atom_site_fract_z
 _atom_site_occupancy
  Fe  Fe0  1  0.99925142  0.00029927  0.00028203  1
  Fe  Fe1  1  0.16663024  0.16734314  0.16629786  1
  Fe  Fe2  1  0.99942379  0.00013916  0.33364221  1
  Fe  Fe3  1  0.99926220  0.33364065  0.00013984  1
  Fe  Fe4  1  0.16610006  0.49836023  0.16592035  1
  Fe  Fe5  1  -0.00003655  0.33329591  0.33328149  1
  Fe  Fe6  1  -0.00019285  0.66541210  0.99976292  1
  Cr  Cr7  1  0.16495412  0.83444975  0.16428436  1
  Fe  Fe8  1  0.99820792  0.66591780  0.33365226  1
  Fe  Fe9  1  0.33312760  0.00080535  0.99977236  1
  Fe  Fe10  1  0.49958907  0.16733646  0.16644825  1
  Fe  Fe11  1  0.33312944  0.00188010  0.33417517  1
  Fe  Fe12  1  0.33364038  0.33365319  0.00031747  1
  Fe  Fe13  1  0.50014661  0.49838002  0.16606999  1
  Fe  Fe14  1  0.33258446  0.33154170  0.33258407  1
  Fe  Fe15  1  0.33258373  0.66489086  0.99938821  1
  Cr  Cr16  1  0.50169405  0.83299492  0.16637521  1
  Cr  Cr17  1  0.33282648  0.66615987  0.33340760  1
  Fe  Fe18  1  0.66697126  0.00134995  0.00029725  1
  Fe  Fe19  1  0.83313012  0.16610666  0.16641970  1
  Fe  Fe20  1  0.66679745  0.00013053  0.33364454  1
  Fe  Fe21  1  0.66644604  0.33310243  0.99973978  1
  Fe  Fe22  1  0.83310305  0.50014238  0.16646220  1
  Fe  Fe23  1  0.66680427  0.33275840  0.33259596  1
  Fe  Fe24  1  0.66696052  0.66489492  0.00032609  1
  Fe  Fe25  1  0.83310556  0.83310011  0.16628356  1
  Fe  Fe26  1  0.66855187  0.66645951  0.33311015  1
  Fe  Fe27  1  0.16715079  0.16607979  0.49940075  1
  Fe  Fe28  1  -0.00021263  0.99872881  0.66542380  1
  Cr  Cr29  1  0.16641717  0.16587491  0.83412730  1
  Fe  Fe30  1  0.16540433  0.49977825  0.49979161  1
  Cr  Cr31  1  0.99845690  0.33381371  0.66616925  1
  Fe  Fe32  1  0.16698415  0.50168536  0.83363615  1
  Fe  Fe33  1  0.16608436  0.83349431  0.50019357  1
  Fe  Fe34  1  0.00033465  0.66697456  0.66592831  1
  Fe  Fe35  1  0.16645199  0.83207403  0.83328130  1
  Fe  Fe36  1  0.49975375  0.16539357  0.49979900  1
  Fe  Fe37  1  0.33296591  -0.00008096  0.66539581  1
  Fe  Fe38  1  0.50098577  0.16733984  0.83310214  1
  Cr  Cr39  1  0.50070373  0.49927386  0.50048791  1
  Fe  Fe40  1  0.33416464  0.33312550  0.66645501  1
  Fe  Fe41  1  0.49978176  0.49873664  0.83295267  1
  Fe  Fe42  1  0.50031001  0.83468461  0.50031390  1
  Fe  Fe43  1  0.33189126  0.66630148  0.66631373  1
  Cr  Cr44  1  0.49902055  0.83248593  0.83289730  1
  Fe  Fe45  1  0.83244258  0.16607816  0.49929159  1
  Fe  Fe46  1  0.66659836  0.00100153  0.66541147  1
  Fe  Fe47  1  0.83139007  0.16680889  0.83363756  1
  Fe  Fe48  1  0.83363991  0.50033699  0.49926212  1
  Fe  Fe49  1  0.66592467  0.33257774  0.66701611  1
  Fe  Fe50  1  0.83257974  0.49926304  0.83362501  1
  Fe  Fe51  1  0.83295382  0.83293592  0.49993389  1
  Fe  Fe52  1  0.66712684  0.66576805  0.66591854  1
  Cr  Cr53  1  0.83419628  0.83321379  0.83384699  1
" 