1099,Fe15Cr85_6,-221.551273658382, 132.461229221347,Fe15Cr85,"# generated using pymatgen
 data_Cr4Fe23
_symmetry_space_group_name_H-M   'P 1'
_cell_length_a   7.46328842
_cell_length_b   7.46328842
_cell_length_c   10.55468371
_cell_angle_alpha   90.00000000
_cell_angle_beta   90.00000000
_cell_angle_gamma   90.00000000
_symmetry_Int_Tables_number   1
_chemical_formula_structural   Cr4Fe23
_chemical_formula_sum   'Cr8 Fe46'
_cell_volume   587.90299711
_cell_formula_units_Z   2
loop_
 _symmetry_equiv_pos_site_id
 _symmetry_equiv_pos_as_xyz
  1  'x, y, z'
loop_
 _atom_site_type_symbol
 _atom_site_label
 _atom_site_symmetry_multiplicity
 _atom_site_fract_x
 _atom_site_fract_y
 _atom_site_fract_z
 _atom_site_occupancy
  Fe  Fe0  1  0.00075513  0.00174635  0.99978388  1
  Fe  Fe1  1  0.16739556  0.16741488  0.16541726  1
  Fe  Fe2  1  0.99989792  0.99989066  0.33407136  1
  Fe  Fe3  1  0.00075784  0.33308597  0.99992536  1
  Fe  Fe4  1  0.16727855  0.49960646  0.16643531  1
  Cr  Cr5  1  1.00006661  0.33470668  0.33376180  1
  Cr  Cr6  1  0.99930325  0.66544191  0.00043022  1
  Cr  Cr7  1  0.16636405  0.83338860  0.16766650  1
  Fe  Fe8  1  0.00052855  0.66692509  0.33342839  1
  Fe  Fe9  1  0.33393141  0.00060911  0.99992373  1
  Fe  Fe10  1  0.50010727  0.16678131  0.16594069  1
  Cr  Cr11  1  0.33462040  0.00035272  0.33442357  1
  Fe  Fe12  1  0.33340514  0.33370774  0.00046328  1
  Fe  Fe13  1  0.50073519  0.50074956  0.16643790  1
  Cr  Cr14  1  0.33403557  0.33346793  0.33311847  1
  Fe  Fe15  1  0.33506902  0.66643932  0.99977458  1
  Fe  Fe16  1  0.50190532  0.83322509  0.16642374  1
  Fe  Fe17  1  0.33391865  0.66628585  0.33408170  1
  Fe  Fe18  1  0.66606896  1.00008244  0.00028181  1
  Cr  Cr19  1  0.83321035  0.16581138  0.16673973  1
  Fe  Fe20  1  0.66692785  0.00053232  0.33357418  1
  Fe  Fe21  1  0.66659285  0.33422980  0.99977762  1
  Fe  Fe22  1  0.83274068  0.50140279  0.16693362  1
  Fe  Fe23  1  0.66628994  0.33392875  0.33409173  1
  Fe  Fe24  1  0.66545128  0.66644414  0.00077495  1
  Fe  Fe25  1  0.83210837  0.83310362  0.16744348  1
  Fe  Fe26  1  0.66630784  0.66629404  0.33305149  1
  Fe  Fe27  1  0.16625565  0.16625718  0.50170753  1
  Fe  Fe28  1  0.00124244  0.00122808  0.66689881  1
  Fe  Fe29  1  0.16673499  0.16675150  0.83363019  1
  Fe  Fe30  1  0.16678183  0.50141073  0.50121141  1
  Fe  Fe31  1  1.00023457  0.33359861  0.66676555  1
  Fe  Fe32  1  0.16725921  0.49992348  0.83310673  1
  Fe  Fe33  1  0.16738634  0.83308778  0.50058231  1
  Fe  Fe34  1  0.00122757  0.66593013  0.66704908  1
  Fe  Fe35  1  0.16837800  0.83407895  0.83322868  1
  Fe  Fe36  1  0.50141140  0.16678199  0.50121214  1
  Fe  Fe37  1  0.33358314  1.00023335  0.66675049  1
  Fe  Fe38  1  0.50041856  0.16676398  0.83360236  1
  Fe  Fe39  1  0.50088446  0.50088502  0.50071455  1
  Fe  Fe40  1  0.33356920  0.33357162  0.66673565  1
  Fe  Fe41  1  0.50040458  0.50042100  0.83360199  1
  Fe  Fe42  1  0.49975897  0.83308779  0.50073204  1
  Fe  Fe43  1  0.33356939  0.66695053  0.66690116  1
  Fe  Fe44  1  0.49927104  0.83357038  0.83360176  1
  Fe  Fe45  1  0.83308886  0.16738687  0.50058180  1
  Fe  Fe46  1  0.66593070  0.00122703  0.66689757  1
  Fe  Fe47  1  0.83360208  0.16788684  0.83373744  1
  Fe  Fe48  1  0.83308878  0.49975923  0.50073208  1
  Fe  Fe49  1  0.66695174  0.33358481  0.66688635  1
  Fe  Fe50  1  0.83309153  0.49877768  0.83309150  1
  Cr  Cr51  1  0.83433352  0.83433444  0.49855858  1
  Fe  Fe52  1  0.66595933  0.66594496  0.66692660  1
  Cr  Cr53  1  0.83340821  0.83451113  0.83397895  1
" 