8377,Fe15Cr85_17,-221.543287127552, 131.706622183762,Fe15Cr85,"# generated using pymatgen
 data_Cr4Fe23
_symmetry_space_group_name_H-M   'P 1'
_cell_length_a   7.46226224
_cell_length_b   7.46226224
_cell_length_c   10.55323247
_cell_angle_alpha   90.00000000
_cell_angle_beta   90.00000000
_cell_angle_gamma   90.00000000
_symmetry_Int_Tables_number   1
_chemical_formula_structural   Cr4Fe23
_chemical_formula_sum   'Cr8 Fe46'
_cell_volume   587.66052611
_cell_formula_units_Z   2
loop_
 _symmetry_equiv_pos_site_id
 _symmetry_equiv_pos_as_xyz
  1  'x, y, z'
loop_
 _atom_site_type_symbol
 _atom_site_label
 _atom_site_symmetry_multiplicity
 _atom_site_fract_x
 _atom_site_fract_y
 _atom_site_fract_z
 _atom_site_occupancy
  Fe  Fe0  1  0.99972053  1.00022820  0.00040114  1
  Fe  Fe1  1  0.16773786  0.16949286  0.16599075  1
  Cr  Cr2  1  0.99941928  0.99905234  0.33170601  1
  Fe  Fe3  1  0.00200914  0.33247705  0.99896705  1
  Fe  Fe4  1  0.16761793  0.50116023  0.16555514  1
  Cr  Cr5  1  0.99997339  0.33596052  0.33427896  1
  Fe  Fe6  1  0.00192109  0.66834677  0.99832558  1
  Fe  Fe7  1  0.16680683  0.83013773  0.16628761  1
  Fe  Fe8  1  1.00029796  0.66794168  0.33458782  1
  Cr  Cr9  1  0.33500780  0.99945031  0.00093406  1
  Fe  Fe10  1  0.50087943  0.16861473  0.16615927  1
  Fe  Fe11  1  0.33269946  0.00067441  0.33103671  1
  Fe  Fe12  1  0.33293571  0.33453480  0.99852828  1
  Cr  Cr13  1  0.50068511  0.50119745  0.16733818  1
  Fe  Fe14  1  0.33495929  0.33246833  0.33418322  1
  Fe  Fe15  1  0.33307265  0.66583126  0.99830549  1
  Fe  Fe16  1  0.50093261  0.83233402  0.16722415  1
  Fe  Fe17  1  0.33095177  0.66712285  0.33379649  1
  Fe  Fe18  1  0.66855933  1.00010588  0.99999008  1
  Fe  Fe19  1  0.83270900  0.16769896  0.16366825  1
  Cr  Cr20  1  0.66650650  0.00141098  0.33157509  1
  Fe  Fe21  1  0.66598687  0.33171548  0.99769605  1
  Cr  Cr22  1  0.83363610  0.50108223  0.16499055  1
  Fe  Fe23  1  0.66639425  0.33387974  0.33560657  1
  Fe  Fe24  1  0.66585291  0.66939702  0.99744268  1
  Fe  Fe25  1  0.83308876  0.83282781  0.16411228  1
  Fe  Fe26  1  0.66946771  0.66635358  0.33527816  1
  Cr  Cr27  1  0.16827133  0.16489824  0.50349582  1
  Fe  Fe28  1  0.99895932  0.99894288  0.66839891  1
  Fe  Fe29  1  0.16607911  0.16740808  0.83224669  1
  Fe  Fe30  1  0.16855473  0.50242490  0.50192484  1
  Fe  Fe31  1  0.99910588  0.33533032  0.66772211  1
  Fe  Fe32  1  0.16647901  0.50018382  0.83352455  1
  Fe  Fe33  1  0.16581682  0.83136574  0.50206868  1
  Fe  Fe34  1  1.00007406  0.66638099  0.66781579  1
  Fe  Fe35  1  0.16604170  0.83315983  0.83280255  1
  Fe  Fe36  1  0.50112981  0.16863737  0.50211516  1
  Fe  Fe37  1  0.33418111  0.99973533  0.67022372  1
  Fe  Fe38  1  0.50125571  0.16755156  0.83275589  1
  Fe  Fe39  1  0.49953094  0.49860614  0.50030986  1
  Fe  Fe40  1  0.33478668  0.33518183  0.66874140  1
  Fe  Fe41  1  0.50060553  0.50038901  0.83419732  1
  Cr  Cr42  1  0.49886283  0.83346738  0.50089178  1
  Fe  Fe43  1  0.33316139  0.66570189  0.66873003  1
  Fe  Fe44  1  0.50139360  0.83288897  0.83209879  1
  Fe  Fe45  1  0.83143145  0.16703858  0.50309885  1
  Fe  Fe46  1  0.66772224  0.00092029  0.66800077  1
  Fe  Fe47  1  0.83396870  0.16692710  0.83352671  1
  Fe  Fe48  1  0.83262106  0.50155846  0.50182341  1
  Fe  Fe49  1  0.66702117  0.33444284  0.66777210  1
  Fe  Fe50  1  0.83384274  0.50027661  0.83471769  1
  Fe  Fe51  1  0.83512777  0.83302410  0.50251861  1
  Fe  Fe52  1  0.66765970  0.66561886  0.66827778  1
  Fe  Fe53  1  0.83380079  0.83375611  0.83354904  1
" 