1552,Fe15Cr85_14,-221.549492966611, 126.692156304284,Fe15Cr85,"# generated using pymatgen
 data_Cr4Fe23
_symmetry_space_group_name_H-M   'P 1'
_cell_length_a   7.46814799
_cell_length_b   7.46814799
_cell_length_c   10.56155617
_cell_angle_alpha   90.00000000
_cell_angle_beta   90.00000000
_cell_angle_gamma   90.00000000
_symmetry_Int_Tables_number   1
_chemical_formula_structural   Cr4Fe23
_chemical_formula_sum   'Cr8 Fe46'
_cell_volume   589.05214735
_cell_formula_units_Z   2
loop_
 _symmetry_equiv_pos_site_id
 _symmetry_equiv_pos_as_xyz
  1  'x, y, z'
loop_
 _atom_site_type_symbol
 _atom_site_label
 _atom_site_symmetry_multiplicity
 _atom_site_fract_x
 _atom_site_fract_y
 _atom_site_fract_z
 _atom_site_occupancy
  Cr  Cr0  1  0.00065859  0.00015491  0.00260895  1
  Fe  Fe1  1  0.16895786  0.16660086  0.16643434  1
  Fe  Fe2  1  0.00002229  0.99785393  0.33186192  1
  Fe  Fe3  1  0.00014432  0.33473956  0.00043396  1
  Fe  Fe4  1  0.16753865  0.50077145  0.16591800  1
  Cr  Cr5  1  0.00004348  0.33191596  0.33229952  1
  Fe  Fe6  1  0.00011361  0.66580245  0.00055683  1
  Fe  Fe7  1  0.16777531  0.83237563  0.16730397  1
  Fe  Fe8  1  0.99940286  0.66873514  0.33173254  1
  Fe  Fe9  1  0.33501278  0.99946118  0.00057434  1
  Fe  Fe10  1  0.50008683  0.16634043  0.16618882  1
  Fe  Fe11  1  0.33285316  -0.00000003  0.33230483  1
  Fe  Fe12  1  0.33290270  0.33283079  0.99986664  1
  Fe  Fe13  1  0.50010538  0.49997392  0.16665203  1
  Fe  Fe14  1  0.33438659  0.33137552  0.33133191  1
  Fe  Fe15  1  0.33295963  0.66751211  0.00047058  1
  Fe  Fe16  1  0.50019224  0.83344839  0.16648660  1
  Fe  Fe17  1  0.33274974  0.66850825  0.33084103  1
  Fe  Fe18  1  0.66518875  0.99938765  0.00051184  1
  Fe  Fe19  1  0.83096004  0.16656934  0.16639210  1
  Fe  Fe20  1  0.66690913  0.99985876  0.33263393  1
  Fe  Fe21  1  0.66671114  0.33286153  0.99987985  1
  Fe  Fe22  1  0.83224470  0.50071541  0.16548807  1
  Fe  Fe23  1  0.66605477  0.33197781  0.33206572  1
  Fe  Fe24  1  0.66665988  0.66755713  0.99988256  1
  Fe  Fe25  1  0.83193466  0.83244157  0.16716655  1
  Fe  Fe26  1  0.66778630  0.66767071  0.33212996  1
  Fe  Fe27  1  0.16756845  0.16320392  0.49911419  1
  Fe  Fe28  1  0.99947963  0.99818624  0.66716910  1
  Fe  Fe29  1  0.16752089  0.16492234  0.83487620  1
  Cr  Cr30  1  0.16669505  0.50253469  0.49990052  1
  Cr  Cr31  1  0.99938410  0.33181255  0.66800755  1
  Fe  Fe32  1  0.16672571  0.50162123  0.83499398  1
  Fe  Fe33  1  0.16700517  0.83509550  0.49971068  1
  Fe  Fe34  1  0.00019852  0.66833635  0.66796444  1
  Fe  Fe35  1  0.16712070  0.83304800  0.83335438  1
  Fe  Fe36  1  0.49949763  0.16343393  0.49792265  1
  Fe  Fe37  1  0.33392259  0.99807206  0.66696460  1
  Fe  Fe38  1  0.50032104  0.16496801  0.83509073  1
  Cr  Cr39  1  0.49908494  0.49999002  0.49656358  1
  Cr  Cr40  1  0.33329840  0.33150149  0.66740508  1
  Fe  Fe41  1  0.49922956  0.50065480  0.83582449  1
  Fe  Fe42  1  0.49851266  0.83513948  0.49848573  1
  Fe  Fe43  1  0.33207948  0.66872390  0.66837935  1
  Fe  Fe44  1  0.49911717  0.83443366  0.83467686  1
  Fe  Fe45  1  0.83268837  0.16404938  0.49876154  1
  Fe  Fe46  1  0.66642902  0.00095037  0.66669205  1
  Fe  Fe47  1  0.83210592  0.16530670  0.83488477  1
  Fe  Fe48  1  0.83350206  0.50193074  0.49797517  1
  Cr  Cr49  1  0.66720335  0.33369199  0.66561197  1
  Fe  Fe50  1  0.83359805  0.50096397  0.83589470  1
  Fe  Fe51  1  0.83424126  0.83352448  0.49888112  1
  Cr  Cr52  1  0.66572987  0.66864575  0.66679036  1
  Fe  Fe53  1  0.83340677  0.83383980  0.83410857  1
" 