4285,Fe15Cr85_11,-221.705541073781, 132.579615739495,Fe15Cr85,"# generated using pymatgen
 data_Cr4Fe23
_symmetry_space_group_name_H-M   'P 1'
_cell_length_a   7.46333908
_cell_length_b   7.46333908
_cell_length_c   10.55475535
_cell_angle_alpha   90.00000000
_cell_angle_beta   90.00000000
_cell_angle_gamma   90.00000000
_symmetry_Int_Tables_number   1
_chemical_formula_structural   Cr4Fe23
_chemical_formula_sum   'Cr8 Fe46'
_cell_volume   587.91496934
_cell_formula_units_Z   2
loop_
 _symmetry_equiv_pos_site_id
 _symmetry_equiv_pos_as_xyz
  1  'x, y, z'
loop_
 _atom_site_type_symbol
 _atom_site_label
 _atom_site_symmetry_multiplicity
 _atom_site_fract_x
 _atom_site_fract_y
 _atom_site_fract_z
 _atom_site_occupancy
  Fe  Fe0  1  0.00094592  0.00420609  0.00122886  1
  Fe  Fe1  1  0.16365789  0.16541352  0.16701724  1
  Fe  Fe2  1  0.99957424  0.00153288  0.33517668  1
  Fe  Fe3  1  0.99806464  0.33281059  0.99977636  1
  Cr  Cr4  1  0.16818005  0.50021322  0.16795352  1
  Fe  Fe5  1  0.99971327  0.33219187  0.33457213  1
  Fe  Fe6  1  0.99953261  0.66445344  0.00032449  1
  Fe  Fe7  1  0.16724503  0.83403532  0.16527807  1
  Fe  Fe8  1  0.00063031  0.66735617  0.33609391  1
  Fe  Fe9  1  0.33520492  0.99952147  0.00236630  1
  Fe  Fe10  1  0.50316674  0.16728175  0.16720718  1
  Cr  Cr11  1  0.33387220  0.00087654  0.33158699  1
  Cr  Cr12  1  0.33408215  0.33066480  0.00088378  1
  Fe  Fe13  1  0.50350654  0.50105281  0.16759381  1
  Fe  Fe14  1  0.33509504  0.33415136  0.33421553  1
  Fe  Fe15  1  0.33553160  0.66787518  0.00140796  1
  Fe  Fe16  1  0.49985651  0.83188478  0.16601841  1
  Fe  Fe17  1  0.33498320  0.66660540  0.33499825  1
  Fe  Fe18  1  0.66466448  0.00281714  0.00077813  1
  Fe  Fe19  1  0.83392731  0.16949737  0.16736156  1
  Fe  Fe20  1  0.66742162  0.00152483  0.33480353  1
  Fe  Fe21  1  0.66890313  0.33276593  0.00077416  1
  Fe  Fe22  1  0.83257091  0.49904664  0.16751304  1
  Fe  Fe23  1  0.66636793  0.33298456  0.33377294  1
  Fe  Fe24  1  0.66597563  0.66577359  0.00110723  1
  Cr  Cr25  1  0.83432741  0.83519520  0.16787735  1
  Fe  Fe26  1  0.66563108  0.66659506  0.33469923  1
  Fe  Fe27  1  0.16658992  0.16777405  0.50059005  1
  Fe  Fe28  1  0.00040474  0.00244991  0.66538863  1
  Fe  Fe29  1  0.16602581  0.16769381  0.83227367  1
  Fe  Fe30  1  0.16807859  0.49872768  0.49866170  1
  Fe  Fe31  1  0.99998325  0.33152548  0.66657208  1
  Fe  Fe32  1  0.16511756  0.49857637  0.83407155  1
  Fe  Fe33  1  0.16731552  0.83417502  0.50024420  1
  Cr  Cr34  1  0.99904391  0.66507594  0.66597926  1
  Cr  Cr35  1  0.16728364  0.83423597  0.83548825  1
  Fe  Fe36  1  0.50082080  0.16779512  0.50085640  1
  Fe  Fe37  1  0.33379316  0.00053842  0.66559383  1
  Fe  Fe38  1  0.50118555  0.16355387  0.83220631  1
  Fe  Fe39  1  0.50029089  0.49962346  0.50067738  1
  Fe  Fe40  1  0.33198049  0.33286654  0.66610018  1
  Cr  Cr41  1  0.49959402  0.49954596  0.83231134  1
  Fe  Fe42  1  0.50081013  0.83345391  0.50056447  1
  Fe  Fe43  1  0.33412338  0.66752339  0.66500878  1
  Fe  Fe44  1  0.50014408  0.83530512  0.83332992  1
  Fe  Fe45  1  0.83333052  0.16716030  0.50010608  1
  Fe  Fe46  1  0.66643616  0.00105882  0.66535295  1
  Fe  Fe47  1  0.83328201  0.16895284  0.83331526  1
  Fe  Fe48  1  0.83217244  0.49858169  0.49875976  1
  Fe  Fe49  1  0.66867326  0.33303241  0.66580436  1
  Fe  Fe50  1  0.83413848  0.49839867  0.83439313  1
  Fe  Fe51  1  0.83247424  0.83476185  0.49923039  1
  Fe  Fe52  1  0.66547193  0.66707718  0.66474627  1
  Cr  Cr53  1  0.83221943  0.83562496  0.83340343  1
" 