413,Fe15Cr85_18,-221.674100521957, 129.433605232357,Fe15Cr85,"# generated using pymatgen
 data_Cr4Fe23
_symmetry_space_group_name_H-M   'P 1'
_cell_length_a   7.46725748
_cell_length_b   7.46725748
_cell_length_c   10.56029680
_cell_angle_alpha   90.00000000
_cell_angle_beta   90.00000000
_cell_angle_gamma   90.00000000
_symmetry_Int_Tables_number   1
_chemical_formula_structural   Cr4Fe23
_chemical_formula_sum   'Cr8 Fe46'
_cell_volume   588.84145489
_cell_formula_units_Z   2
loop_
 _symmetry_equiv_pos_site_id
 _symmetry_equiv_pos_as_xyz
  1  'x, y, z'
loop_
 _atom_site_type_symbol
 _atom_site_label
 _atom_site_symmetry_multiplicity
 _atom_site_fract_x
 _atom_site_fract_y
 _atom_site_fract_z
 _atom_site_occupancy
  Fe  Fe0  1  0.99986192  0.99886402  0.99883909  1
  Fe  Fe1  1  0.16671371  0.16706681  0.16892082  1
  Fe  Fe2  1  0.00074103  0.99886821  0.33436172  1
  Fe  Fe3  1  0.00174051  0.33434170  0.99895463  1
  Fe  Fe4  1  0.16304888  0.49959031  0.16866514  1
  Fe  Fe5  1  0.99973881  0.33315908  0.33362536  1
  Fe  Fe6  1  0.99839197  0.66646916  0.99993608  1
  Fe  Fe7  1  0.16423992  0.83333403  0.16883706  1
  Fe  Fe8  1  0.99917965  0.66775397  0.33302757  1
  Cr  Cr9  1  0.33265531  0.99944981  0.00159777  1
  Fe  Fe10  1  0.49999543  0.16498647  0.16937109  1
  Fe  Fe11  1  0.33306755  0.99965090  0.33314655  1
  Cr  Cr12  1  0.33306800  0.33248673  0.99921136  1
  Cr  Cr13  1  0.49936425  0.50119391  0.16867449  1
  Fe  Fe14  1  0.33285504  0.33112501  0.33347419  1
  Cr  Cr15  1  0.33128683  0.66810777  0.99993834  1
  Fe  Fe16  1  0.50254079  0.83531323  0.16870304  1
  Fe  Fe17  1  0.33265265  0.66930319  0.33346083  1
  Fe  Fe18  1  0.66666685  0.99715032  0.99881744  1
  Cr  Cr19  1  0.83380278  0.16472081  0.16578068  1
  Fe  Fe20  1  0.66619152  0.99895488  0.33461755  1
  Cr  Cr21  1  0.66754261  0.33371177  0.99899424  1
  Fe  Fe22  1  0.83525004  0.50193261  0.16752404  1
  Fe  Fe23  1  0.66732384  0.33286550  0.33530124  1
  Fe  Fe24  1  0.66785480  0.66899662  0.99933163  1
  Fe  Fe25  1  0.83293209  0.83107199  0.16673241  1
  Fe  Fe26  1  0.66805399  0.66808211  0.33475570  1
  Fe  Fe27  1  0.16669842  0.16482906  0.50008413  1
  Fe  Fe28  1  0.99932264  0.00024492  0.66631968  1
  Fe  Fe29  1  0.16481116  0.16591099  0.83144276  1
  Cr  Cr30  1  0.16791267  0.50022212  0.50064944  1
  Fe  Fe31  1  0.00056183  0.33230774  0.66729030  1
  Fe  Fe32  1  0.16481177  0.50024769  0.83090304  1
  Fe  Fe33  1  0.16672638  0.83491814  0.50025012  1
  Fe  Fe34  1  0.99847293  0.66732085  0.66714670  1
  Fe  Fe35  1  0.16472247  0.83379626  0.83129556  1
  Fe  Fe36  1  0.49840574  0.16589155  0.49905621  1
  Fe  Fe37  1  0.33360770  0.00020913  0.66680139  1
  Fe  Fe38  1  0.50015025  0.16433624  0.83135072  1
  Fe  Fe39  1  0.50068615  0.50127677  0.49844794  1
  Fe  Fe40  1  0.33271816  0.33221324  0.66796698  1
  Fe  Fe41  1  0.49997084  0.50202224  0.83176229  1
  Fe  Fe42  1  0.49938557  0.83291586  0.50007414  1
  Fe  Fe43  1  0.33461884  0.66744735  0.66781206  1
  Fe  Fe44  1  0.50151689  0.83364851  0.83160893  1
  Fe  Fe45  1  0.83485062  0.16579006  0.49864935  1
  Fe  Fe46  1  0.66700559  0.99845455  0.66623438  1
  Fe  Fe47  1  0.83516083  0.16458443  0.83322126  1
  Fe  Fe48  1  0.83317818  0.50131597  0.49886709  1
  Cr  Cr49  1  0.66764417  0.33375868  0.66496348  1
  Fe  Fe50  1  0.83526616  0.50200052  0.83284385  1
  Fe  Fe51  1  0.83382497  0.83300975  0.50009074  1
  Fe  Fe52  1  0.66695232  0.66856603  0.66637124  1
  Fe  Fe53  1  0.83349712  0.83345157  0.83313731  1
" 