8953,Fe15Cr85_10,-221.670915052404, 132.439926521817,Fe15Cr85,"# generated using pymatgen
 data_Cr4Fe23
_symmetry_space_group_name_H-M   'P 1'
_cell_length_a   7.46555986
_cell_length_b   7.46555986
_cell_length_c   10.55789601
_cell_angle_alpha   90.00000000
_cell_angle_beta   90.00000000
_cell_angle_gamma   90.00000000
_symmetry_Int_Tables_number   1
_chemical_formula_structural   Cr4Fe23
_chemical_formula_sum   'Cr8 Fe46'
_cell_volume   588.43994236
_cell_formula_units_Z   2
loop_
 _symmetry_equiv_pos_site_id
 _symmetry_equiv_pos_as_xyz
  1  'x, y, z'
loop_
 _atom_site_type_symbol
 _atom_site_label
 _atom_site_symmetry_multiplicity
 _atom_site_fract_x
 _atom_site_fract_y
 _atom_site_fract_z
 _atom_site_occupancy
  Fe  Fe0  1  0.99892747  0.99979586  0.00056644  1
  Fe  Fe1  1  0.16668143  0.16406067  0.16537174  1
  Fe  Fe2  1  0.00012579  0.00225599  0.33319151  1
  Fe  Fe3  1  0.99737644  0.33304775  0.00018993  1
  Cr  Cr4  1  0.16656438  0.49906210  0.16454239  1
  Fe  Fe5  1  0.99830465  0.33168391  0.33336822  1
  Fe  Fe6  1  0.99851878  0.66744760  0.99988335  1
  Fe  Fe7  1  0.16642032  0.83507605  0.16559197  1
  Cr  Cr8  1  0.99917076  0.66684056  0.33237248  1
  Fe  Fe9  1  0.33382689  1.00004614  0.99966332  1
  Fe  Fe10  1  0.50103810  0.16727847  0.16594350  1
  Fe  Fe11  1  0.33184571  0.99931755  0.33500947  1
  Fe  Fe12  1  0.33541557  0.33300046  0.00022767  1
  Fe  Fe13  1  0.50214943  0.49922419  0.16583977  1
  Cr  Cr14  1  0.33432023  0.33275143  0.33374323  1
  Fe  Fe15  1  0.33394110  0.66690357  0.99839785  1
  Cr  Cr16  1  0.50078820  0.83269662  0.16852778  1
  Fe  Fe17  1  0.33364950  0.66681970  0.33543730  1
  Fe  Fe18  1  0.66767951  0.00069116  0.99920559  1
  Fe  Fe19  1  0.83314419  0.16661864  0.16656856  1
  Fe  Fe20  1  0.66840737  0.00154416  0.33446298  1
  Fe  Fe21  1  0.66728469  0.33347589  0.00015482  1
  Fe  Fe22  1  0.83054115  0.49988766  0.16572258  1
  Fe  Fe23  1  0.66934885  0.33377740  0.33316226  1
  Fe  Fe24  1  0.66778351  0.66598130  0.99924245  1
  Fe  Fe25  1  0.83410840  0.83426545  0.16582644  1
  Fe  Fe26  1  0.66635061  0.66469131  0.33447024  1
  Fe  Fe27  1  0.16466168  0.16700325  0.50078169  1
  Fe  Fe28  1  0.00015973  0.99867011  0.66611067  1
  Cr  Cr29  1  0.16607522  0.16811138  0.83274919  1
  Fe  Fe30  1  0.16477933  0.49881999  0.50026945  1
  Fe  Fe31  1  0.99902573  0.33431378  0.66591033  1
  Fe  Fe32  1  0.16530190  0.50095709  0.83496017  1
  Fe  Fe33  1  0.16526248  0.83441715  0.49923438  1
  Fe  Fe34  1  0.99766275  0.66756183  0.66640211  1
  Fe  Fe35  1  0.16510513  0.83271584  0.83479329  1
  Fe  Fe36  1  0.50243562  0.16746080  0.49935093  1
  Cr  Cr37  1  0.33525616  0.00020126  0.66627896  1
  Fe  Fe38  1  0.50124928  0.16884613  0.83541138  1
  Fe  Fe39  1  0.50248428  0.50005784  0.50017085  1
  Fe  Fe40  1  0.33501976  0.33365761  0.66526432  1
  Fe  Fe41  1  0.50051371  0.49884638  0.83414361  1
  Fe  Fe42  1  0.50188840  0.83297545  0.49793204  1
  Cr  Cr43  1  0.33185208  0.66595042  0.66627045  1
  Fe  Fe44  1  0.50041302  0.83265146  0.83588395  1
  Fe  Fe45  1  0.83392525  0.16755943  0.50000268  1
  Cr  Cr46  1  0.66783910  0.00106611  0.66904723  1
  Fe  Fe47  1  0.83298363  0.16837332  0.83450048  1
  Fe  Fe48  1  0.83268797  0.49935651  0.50095218  1
  Fe  Fe49  1  0.66603320  0.33525087  0.66708562  1
  Fe  Fe50  1  0.83396184  0.49948091  0.83324609  1
  Fe  Fe51  1  0.83293410  0.83370933  0.50003446  1
  Fe  Fe52  1  0.66724523  0.66628753  0.66734069  1
  Fe  Fe53  1  0.83491101  0.83283720  0.83456955  1
" 