5740,Fe15Cr85_16,-221.554589458823, 133.665996073182,Fe15Cr85,"# generated using pymatgen
 data_Cr4Fe23
_symmetry_space_group_name_H-M   'P 1'
_cell_length_a   7.46054551
_cell_length_b   7.46054551
_cell_length_c   10.55080464
_cell_angle_alpha   90.00000000
_cell_angle_beta   90.00000000
_cell_angle_gamma   90.00000000
_symmetry_Int_Tables_number   1
_chemical_formula_structural   Cr4Fe23
_chemical_formula_sum   'Cr8 Fe46'
_cell_volume   587.25503504
_cell_formula_units_Z   2
loop_
 _symmetry_equiv_pos_site_id
 _symmetry_equiv_pos_as_xyz
  1  'x, y, z'
loop_
 _atom_site_type_symbol
 _atom_site_label
 _atom_site_symmetry_multiplicity
 _atom_site_fract_x
 _atom_site_fract_y
 _atom_site_fract_z
 _atom_site_occupancy
  Fe  Fe0  1  0.00181500  0.00113058  0.00255401  1
  Fe  Fe1  1  0.17019736  0.16643421  0.16616983  1
  Fe  Fe2  1  0.00074704  0.99863821  0.33226561  1
  Fe  Fe3  1  0.00127647  0.33256258  0.00255468  1
  Fe  Fe4  1  0.16795894  0.50092867  0.16704859  1
  Cr  Cr5  1  0.00251489  0.33456420  0.33152410  1
  Cr  Cr6  1  0.99904760  0.66637968  0.00241881  1
  Fe  Fe7  1  0.16969505  0.83409975  0.16799589  1
  Fe  Fe8  1  1.00034919  0.66989128  0.33219914  1
  Fe  Fe9  1  0.33363881  0.99951368  0.00067373  1
  Fe  Fe10  1  0.49977918  0.16585139  0.16673735  1
  Fe  Fe11  1  0.33346048  0.00058522  0.33388285  1
  Fe  Fe12  1  0.33287307  0.33367802  0.99899142  1
  Cr  Cr13  1  0.49831806  0.50141804  0.16891394  1
  Fe  Fe14  1  0.33497244  0.33204503  0.33568477  1
  Fe  Fe15  1  0.33415968  0.66840619  0.99933198  1
  Fe  Fe16  1  0.49957665  0.83569200  0.16753670  1
  Fe  Fe17  1  0.33171708  0.66877641  0.33518566  1
  Fe  Fe18  1  0.66641460  0.99969371  0.00148873  1
  Fe  Fe19  1  0.83212303  0.16637444  0.16609697  1
  Fe  Fe20  1  0.66698739  1.00007875  0.33306314  1
  Fe  Fe21  1  0.66747746  0.33466666  0.00068250  1
  Fe  Fe22  1  0.83179193  0.50062852  0.16802711  1
  Fe  Fe23  1  0.66594709  0.33174970  0.33355425  1
  Fe  Fe24  1  0.66496048  0.66821810  1.00019757  1
  Fe  Fe25  1  0.83156648  0.83467639  0.16776105  1
  Fe  Fe26  1  0.66778103  0.66933437  0.33404337  1
  Fe  Fe27  1  0.16839697  0.16484654  0.49929761  1
  Fe  Fe28  1  0.00595476  0.99989493  0.66610995  1
  Fe  Fe29  1  0.16886821  0.16513674  0.83478588  1
  Fe  Fe30  1  0.16794924  0.50261019  0.49966488  1
  Fe  Fe31  1  0.00287406  0.33493448  0.66763543  1
  Fe  Fe32  1  0.16663471  0.50011230  0.83406476  1
  Fe  Fe33  1  0.16634880  0.83376050  0.49998826  1
  Fe  Fe34  1  0.00409887  0.66675064  0.66745851  1
  Fe  Fe35  1  0.16905362  0.83471768  0.83386801  1
  Fe  Fe36  1  0.50045225  0.16554696  0.49871870  1
  Fe  Fe37  1  0.33424900  0.99784967  0.66650170  1
  Fe  Fe38  1  0.50005061  0.16526178  0.83529124  1
  Fe  Fe39  1  0.49937778  0.50156007  0.49793359  1
  Cr  Cr40  1  0.33423320  0.33212625  0.66501584  1
  Fe  Fe41  1  0.50104095  0.50090114  0.83512275  1
  Fe  Fe42  1  0.50089204  0.83366716  0.49953052  1
  Fe  Fe43  1  0.33410364  0.66826038  0.66706585  1
  Fe  Fe44  1  0.49885230  0.83448241  0.83416429  1
  Cr  Cr45  1  0.83427489  0.16494442  0.50327343  1
  Fe  Fe46  1  0.66195888  1.00025834  0.66625953  1
  Cr  Cr47  1  0.83566624  0.16810236  0.83250847  1
  Cr  Cr48  1  0.83249103  0.50084695  0.50251332  1
  Fe  Fe49  1  0.66493200  0.33451605  0.66837832  1
  Fe  Fe50  1  0.83313070  0.50087173  0.83222561  1
  Fe  Fe51  1  0.83397230  0.83328122  0.50210253  1
  Fe  Fe52  1  0.66270019  0.66694807  0.66712756  1
  Cr  Cr53  1  0.83382761  0.83532663  0.83034108  1
" 