8722,Fe15Cr85_12,-221.574176361335, 130.997330310895,Fe15Cr85,"# generated using pymatgen
 data_Cr4Fe23
_symmetry_space_group_name_H-M   'P 1'
_cell_length_a   7.46777091
_cell_length_b   7.46777091
_cell_length_c   10.56102291
_cell_angle_alpha   90.00000000
_cell_angle_beta   90.00000000
_cell_angle_gamma   90.00000000
_symmetry_Int_Tables_number   1
_chemical_formula_structural   Cr4Fe23
_chemical_formula_sum   'Cr8 Fe46'
_cell_volume   588.96292640
_cell_formula_units_Z   2
loop_
 _symmetry_equiv_pos_site_id
 _symmetry_equiv_pos_as_xyz
  1  'x, y, z'
loop_
 _atom_site_type_symbol
 _atom_site_label
 _atom_site_symmetry_multiplicity
 _atom_site_fract_x
 _atom_site_fract_y
 _atom_site_fract_z
 _atom_site_occupancy
  Fe  Fe0  1  0.00092336  0.99948337  0.00069742  1
  Cr  Cr1  1  0.16609691  0.16691043  0.16728811  1
  Fe  Fe2  1  0.99992255  0.99993636  0.33329141  1
  Fe  Fe3  1  0.99939008  0.33400386  0.99928354  1
  Fe  Fe4  1  0.16734918  0.50197878  0.16733310  1
  Fe  Fe5  1  0.99992336  0.33329556  0.33466812  1
  Fe  Fe6  1  0.00166119  0.66636896  -0.00002925  1
  Fe  Fe7  1  0.16640572  0.83169391  0.16661974  1
  Fe  Fe8  1  0.00133031  0.66663012  0.33329147  1
  Fe  Fe9  1  0.33321971  0.99862818  0.00001213  1
  Fe  Fe10  1  0.50218072  0.16619296  0.16729667  1
  Fe  Fe11  1  0.33397794  0.99925369  0.33395916  1
  Cr  Cr12  1  0.33410387  0.33360169  0.99911454  1
  Fe  Fe13  1  0.49901332  0.50042597  0.16733827  1
  Fe  Fe14  1  0.33398793  0.33398956  0.33376107  1
  Fe  Fe15  1  0.33255567  0.66729704  0.00066164  1
  Fe  Fe16  1  0.49994011  0.83326040  0.16639776  1
  Fe  Fe17  1  0.33328606  0.66662516  0.33328188  1
  Fe  Fe18  1  0.66567239  0.00088088  0.00203780  1
  Fe  Fe19  1  0.83192506  0.16527261  0.16639428  1
  Fe  Fe20  1  0.66594046  0.00064153  0.33258840  1
  Fe  Fe21  1  0.66658131  0.33329360  -0.00004290  1
  Cr  Cr22  1  0.83343242  0.49979845  0.16604083  1
  Fe  Fe23  1  0.66594613  0.33259210  0.33396913  1
  Fe  Fe24  1  0.66560975  0.66567832  0.00043480  1
  Fe  Fe25  1  0.83350785  0.83487049  0.16659293  1
  Fe  Fe26  1  0.66522485  0.66661401  0.33349486  1
  Fe  Fe27  1  0.16640915  0.16641184  0.49971675  1
  Fe  Fe28  1  0.00181045  0.00041790  0.66595188  1
  Fe  Fe29  1  0.16735444  0.16543340  0.83278434  1
  Fe  Fe30  1  0.16640955  0.50016160  0.49989797  1
  Fe  Fe31  1  0.00042387  0.33423056  0.66592155  1
  Fe  Fe32  1  0.16568630  0.50088066  0.83260209  1
  Fe  Fe33  1  0.16799843  0.83328033  0.49996094  1
  Fe  Fe34  1  0.00269172  0.66525804  0.66661111  1
  Fe  Fe35  1  0.16638913  0.83352215  0.83327075  1
  Fe  Fe36  1  0.50014733  0.16639681  0.49995741  1
  Fe  Fe37  1  0.33276326  0.00046752  0.66589355  1
  Fe  Fe38  1  0.49950170  0.16706929  0.83254545  1
  Fe  Fe39  1  0.49942870  0.49946180  0.49920838  1
  Fe  Fe40  1  0.33351470  0.33350416  0.66686467  1
  Fe  Fe41  1  0.50044613  0.49858909  0.83326417  1
  Fe  Fe42  1  0.49785737  0.83396548  0.49950512  1
  Fe  Fe43  1  0.33120856  0.66590547  0.66591375  1
  Cr  Cr44  1  0.49822387  0.83373833  0.83315069  1
  Fe  Fe45  1  0.83329882  0.16801439  0.50016325  1
  Fe  Fe46  1  0.66526553  0.00265259  0.66528030  1
  Cr  Cr47  1  0.83356991  0.16803907  0.83379091  1
  Fe  Fe48  1  0.83400999  0.49786905  0.49900344  1
  Fe  Fe49  1  0.66591342  0.33254324  0.66591639  1
  Fe  Fe50  1  0.83376831  0.49949961  0.83423115  1
  Cr  Cr51  1  0.83311558  0.83361851  0.49984102  1
  Cr  Cr52  1  0.66682711  0.66473168  0.66592986  1
  Cr  Cr53  1  0.83424335  0.83250434  0.83443104  1
" 