401,Fe15Cr85_13,-221.75833895582, 129.219758810202,Fe15Cr85,"# generated using pymatgen
 data_Cr4Fe23
_symmetry_space_group_name_H-M   'P 1'
_cell_length_a   7.47010161
_cell_length_b   7.47010161
_cell_length_c   10.56431900
_cell_angle_alpha   90.00000000
_cell_angle_beta   90.00000000
_cell_angle_gamma   90.00000000
_symmetry_Int_Tables_number   1
_chemical_formula_structural   Cr4Fe23
_chemical_formula_sum   'Cr8 Fe46'
_cell_volume   589.51454501
_cell_formula_units_Z   2
loop_
 _symmetry_equiv_pos_site_id
 _symmetry_equiv_pos_as_xyz
  1  'x, y, z'
loop_
 _atom_site_type_symbol
 _atom_site_label
 _atom_site_symmetry_multiplicity
 _atom_site_fract_x
 _atom_site_fract_y
 _atom_site_fract_z
 _atom_site_occupancy
  Fe  Fe0  1  0.99945690  0.00065582  0.99912319  1
  Fe  Fe1  1  0.16640471  0.16686147  0.16681574  1
  Fe  Fe2  1  0.00097255  0.99797766  0.33219135  1
  Fe  Fe3  1  0.00207756  0.33173797  0.99904585  1
  Fe  Fe4  1  0.16602102  0.50007808  0.16637489  1
  Fe  Fe5  1  0.00189675  0.33341783  0.33289413  1
  Fe  Fe6  1  0.00030874  0.66718795  0.99900698  1
  Fe  Fe7  1  0.16652752  0.83243029  0.16615078  1
  Fe  Fe8  1  0.00184761  0.66741988  0.33395524  1
  Fe  Fe9  1  0.33323682  0.00063876  0.00008446  1
  Fe  Fe10  1  0.49847994  0.16426060  0.16750157  1
  Fe  Fe11  1  0.33328789  0.99920313  0.33286245  1
  Fe  Fe12  1  0.33024492  0.33112258  -0.00009970  1
  Cr  Cr13  1  0.49606904  0.50106933  0.16599385  1
  Fe  Fe14  1  0.33252974  0.33253858  0.33397354  1
  Fe  Fe15  1  0.33106853  0.66855300  0.99940854  1
  Fe  Fe16  1  0.49882973  0.83528524  0.16567524  1
  Fe  Fe17  1  0.33051275  0.66749409  0.33514766  1
  Fe  Fe18  1  0.66668527  0.99828433  -0.00014141  1
  Fe  Fe19  1  0.83453132  0.16364905  0.16837871  1
  Fe  Fe20  1  0.66518603  0.00015739  0.33194407  1
  Cr  Cr21  1  0.66717471  0.33071170  0.00122621  1
  Cr  Cr22  1  0.83465865  0.49947288  0.16666652  1
  Fe  Fe23  1  0.66476158  0.33092184  0.33272102  1
  Fe  Fe24  1  0.66734844  0.66991770  -0.00003038  1
  Fe  Fe25  1  0.83394708  0.83489655  0.16589251  1
  Cr  Cr26  1  0.66550673  0.66698295  0.33471755  1
  Fe  Fe27  1  0.16870200  0.16671115  0.49870656  1
  Cr  Cr28  1  0.00205370  0.99951715  0.66761088  1
  Fe  Fe29  1  0.16806659  0.16741587  0.83392770  1
  Fe  Fe30  1  0.16484870  0.49803893  0.49879386  1
  Fe  Fe31  1  0.00115023  0.33532085  0.66705409  1
  Fe  Fe32  1  0.16476994  0.49960771  0.83359453  1
  Fe  Fe33  1  0.16566798  0.83462197  0.49795027  1
  Fe  Fe34  1  0.99878064  0.66525750  0.66644409  1
  Fe  Fe35  1  0.16740191  0.83272720  0.83477673  1
  Fe  Fe36  1  0.49831255  0.16617702  0.49974965  1
  Fe  Fe37  1  0.33460648  0.00141309  0.66646677  1
  Fe  Fe38  1  0.49904466  0.16448265  0.83256825  1
  Fe  Fe39  1  0.50013023  0.49656589  0.50006333  1
  Fe  Fe40  1  0.33166822  0.33082929  0.66594205  1
  Cr  Cr41  1  0.49969468  0.50069407  0.83405167  1
  Fe  Fe42  1  0.50024045  0.83664725  0.49964914  1
  Cr  Cr43  1  0.33255021  0.66755489  0.66395587  1
  Fe  Fe44  1  0.49999873  0.83543820  0.83368620  1
  Cr  Cr45  1  0.83332554  0.16624609  0.49792499  1
  Fe  Fe46  1  0.66463884  0.99877705  0.66699344  1
  Fe  Fe47  1  0.83272547  0.16669893  0.83241252  1
  Fe  Fe48  1  0.83443490  0.50002138  0.50017345  1
  Fe  Fe49  1  0.66666181  0.33288201  0.66686742  1
  Fe  Fe50  1  0.83512917  0.50044109  0.83324462  1
  Fe  Fe51  1  0.83391774  0.83226830  0.50000724  1
  Fe  Fe52  1  0.66880302  0.66762795  0.66506517  1
  Fe  Fe53  1  0.83206469  0.83205146  0.83380056  1
" 