8091,Fe15Cr85_9,-221.63211044682, 132.308832468166,Fe15Cr85,"# generated using pymatgen
 data_Cr4Fe23
_symmetry_space_group_name_H-M   'P 1'
_cell_length_a   7.46726498
_cell_length_b   7.46726498
_cell_length_c   10.56030740
_cell_angle_alpha   90.00000000
_cell_angle_beta   90.00000000
_cell_angle_gamma   90.00000000
_symmetry_Int_Tables_number   1
_chemical_formula_structural   Cr4Fe23
_chemical_formula_sum   'Cr8 Fe46'
_cell_volume   588.84322916
_cell_formula_units_Z   2
loop_
 _symmetry_equiv_pos_site_id
 _symmetry_equiv_pos_as_xyz
  1  'x, y, z'
loop_
 _atom_site_type_symbol
 _atom_site_label
 _atom_site_symmetry_multiplicity
 _atom_site_fract_x
 _atom_site_fract_y
 _atom_site_fract_z
 _atom_site_occupancy
  Fe  Fe0  1  0.99998377  0.00085261  -0.00001332  1
  Fe  Fe1  1  0.16667071  0.16788807  0.16681151  1
  Fe  Fe2  1  0.99851138  0.00018509  0.33332184  1
  Fe  Fe3  1  0.99981220  0.33351017  0.00000476  1
  Fe  Fe4  1  0.16600450  0.49811207  0.16730101  1
  Fe  Fe5  1  0.00124965  0.33331852  0.33206379  1
  Fe  Fe6  1  0.99854641  0.66559976  -0.00001345  1
  Cr  Cr7  1  0.16630617  0.83488041  0.16676734  1
  Fe  Fe8  1  0.99980685  0.66645506  0.33330127  1
  Fe  Fe9  1  0.33351129  0.00230275  -0.00001343  1
  Fe  Fe10  1  0.49852482  0.16645966  0.16663596  1
  Fe  Fe11  1  0.33477437  0.00016905  0.33328669  1
  Fe  Fe12  1  0.33368489  0.33205193  0.00000460  1
  Fe  Fe13  1  0.49920623  0.49953987  0.16729074  1
  Fe  Fe14  1  0.33267211  0.33397249  0.33268051  1
  Cr  Cr15  1  0.33341958  0.66535432  0.99961905  1
  Fe  Fe16  1  0.50061122  0.83395320  0.16853443  1
  Fe  Fe17  1  0.33413256  0.66581644  0.33376327  1
  Cr  Cr18  1  0.66690678  0.00044253  0.00047038  1
  Fe  Fe19  1  0.83476176  0.16647552  0.16667099  1
  Fe  Fe20  1  0.66667154  0.99871961  0.33312211  1
  Fe  Fe21  1  0.66645893  0.33350179  0.00018070  1
  Fe  Fe22  1  0.83474665  0.50019036  0.16681943  1
  Cr  Cr23  1  0.66631872  0.33176619  0.33249939  1
  Cr  Cr24  1  0.66734376  0.66646109  0.00047004  1
  Fe  Fe25  1  0.83332309  0.83328881  0.16790757  1
  Fe  Fe26  1  0.66601730  0.66854578  0.33245164  1
  Cr  Cr27  1  0.16690394  0.16592038  0.49950155  1
  Fe  Fe28  1  0.99870760  -0.00000715  0.66664586  1
  Fe  Fe29  1  0.16667063  0.16786995  0.83317775  1
  Fe  Fe30  1  0.16788972  0.50123236  0.49996732  1
  Fe  Fe31  1  -0.00000713  0.33331430  0.66788764  1
  Fe  Fe32  1  0.16600325  0.49812904  0.83268650  1
  Fe  Fe33  1  0.16645718  0.83188679  0.49998421  1
  Fe  Fe34  1  0.00000161  0.66664954  0.66666945  1
  Cr  Cr35  1  0.16630492  0.83488162  0.83320227  1
  Fe  Fe36  1  0.50079222  0.16622302  0.50060769  1
  Fe  Fe37  1  0.33457819  0.99997654  0.66668114  1
  Fe  Fe38  1  0.49915176  0.16708249  0.83271371  1
  Fe  Fe39  1  0.49792933  0.50041133  0.50060439  1
  Fe  Fe40  1  0.33393228  0.33397045  0.66726924  1
  Fe  Fe41  1  0.49983263  0.49891818  0.83205946  1
  Fe  Fe42  1  0.49997033  0.83331870  0.49996704  1
  Fe  Fe43  1  0.33393907  0.66601004  0.66620685  1
  Fe  Fe44  1  0.50059741  0.83395371  0.83145677  1
  Fe  Fe45  1  0.83270746  0.16479010  0.50060692  1
  Fe  Fe46  1  0.66667138  0.99998505  0.66682960  1
  Fe  Fe47  1  0.83413463  0.16709838  0.83267835  1
  Cr  Cr48  1  0.83303484  0.50020440  0.50068551  1
  Fe  Fe49  1  0.66603032  0.33267918  0.66710046  1
  Fe  Fe50  1  0.83412139  0.49956993  0.83253152  1
  Fe  Fe51  1  0.83352904  0.83475288  0.49996696  1
  Fe  Fe52  1  0.66601480  0.66729152  0.66750221  1
  Fe  Fe53  1  0.83333803  0.83328819  0.83208487  1
" 