5893,Fe15Cr85_0,-221.612689381935, 129.126804763693,Fe15Cr85,"# generated using pymatgen
 data_Cr4Fe23
_symmetry_space_group_name_H-M   'P 1'
_cell_length_a   7.47044648
_cell_length_b   7.47044648
_cell_length_c   10.56480673
_cell_angle_alpha   90.00000000
_cell_angle_beta   90.00000000
_cell_angle_gamma   90.00000000
_symmetry_Int_Tables_number   1
_chemical_formula_structural   Cr4Fe23
_chemical_formula_sum   'Cr8 Fe46'
_cell_volume   589.59619741
_cell_formula_units_Z   2
loop_
 _symmetry_equiv_pos_site_id
 _symmetry_equiv_pos_as_xyz
  1  'x, y, z'
loop_
 _atom_site_type_symbol
 _atom_site_label
 _atom_site_symmetry_multiplicity
 _atom_site_fract_x
 _atom_site_fract_y
 _atom_site_fract_z
 _atom_site_occupancy
  Fe  Fe0  1  0.99963983  0.99959935  0.99975914  1
  Fe  Fe1  1  0.16703734  0.16675583  0.16598794  1
  Cr  Cr2  1  0.00148243  0.99968326  0.33212185  1
  Fe  Fe3  1  0.99962607  0.33322480  0.99977117  1
  Fe  Fe4  1  0.16656931  0.49993322  0.16644079  1
  Fe  Fe5  1  0.00022322  0.33448494  0.33266638  1
  Fe  Fe6  1  0.00069461  0.66649412  0.99977157  1
  Fe  Fe7  1  0.16598553  0.83262795  0.16596189  1
  Fe  Fe8  1  0.00021110  0.66507566  0.33264174  1
  Fe  Fe9  1  0.33230637  0.00054672  0.99963329  1
  Fe  Fe10  1  0.49979899  0.16732990  0.16643988  1
  Fe  Fe11  1  0.33356559  0.00023183  0.33375028  1
  Fe  Fe12  1  0.33327898  0.33323604  0.99975838  1
  Fe  Fe13  1  0.49931246  0.49840875  0.16688963  1
  Fe  Fe14  1  0.33297662  0.33293446  0.33312046  1
  Fe  Fe15  1  0.33127008  0.66553771  0.99976376  1
  Cr  Cr16  1  0.49933046  0.83372276  0.16761080  1
  Fe  Fe17  1  0.33251425  0.66615189  0.33358005  1
  Fe  Fe18  1  0.66736919  0.00160435  0.99976375  1
  Fe  Fe19  1  0.83248334  0.16674373  0.16612084  1
  Fe  Fe20  1  0.66504788  0.00022369  0.33265025  1
  Fe  Fe21  1  0.66641221  0.33217650  0.99977138  1
  Fe  Fe22  1  0.83343704  0.49945539  0.16694226  1
  Fe  Fe23  1  0.66611649  0.33344069  0.33262740  1
  Cr  Cr24  1  0.66721662  0.66455618  0.00005369  1
  Fe  Fe25  1  0.83400631  0.83311468  0.16657909  1
  Fe  Fe26  1  0.66658860  0.66565500  0.33296715  1
  Fe  Fe27  1  0.16768875  0.16769171  0.49930264  1
  Cr  Cr28  1  0.00060758  0.99968382  0.66779149  1
  Fe  Fe29  1  0.16657817  0.16722352  0.83402188  1
  Fe  Fe30  1  0.16613802  0.49977379  0.49978598  1
  Fe  Fe31  1  0.00036898  0.33435098  0.66688116  1
  Fe  Fe32  1  0.16658240  0.49993168  0.83309085  1
  Fe  Fe33  1  0.16771141  0.83185259  0.49930350  1
  Fe  Fe34  1  0.00035606  0.66520892  0.66690531  1
  Fe  Fe35  1  0.16552220  0.83216372  0.83404645  1
  Fe  Fe36  1  0.49944855  0.16670986  0.49930577  1
  Cr  Cr37  1  0.33245468  0.00058133  0.66453876  1
  Fe  Fe38  1  0.50025863  0.16779791  0.83356493  1
  Fe  Fe39  1  0.50004776  0.49979812  0.49978599  1
  Fe  Fe40  1  0.33297712  0.33387849  0.66643896  1
  Fe  Fe41  1  0.49929963  0.49839935  0.83264298  1
  Fe  Fe42  1  0.49944036  0.83281019  0.49930572  1
  Fe  Fe43  1  0.33251162  0.66520917  0.66597551  1
  Cr  Cr44  1  0.49985879  0.83319334  0.83246335  1
  Cr  Cr45  1  0.83259481  0.16821371  0.50013214  1
  Fe  Fe46  1  0.66597613  0.00022736  0.66690868  1
  Fe  Fe47  1  0.83247974  0.16673676  0.83341638  1
  Fe  Fe48  1  0.83313247  0.49977447  0.49977343  1
  Fe  Fe49  1  0.66597069  0.33330008  0.66691993  1
  Fe  Fe50  1  0.83343666  0.49945563  0.83260269  1
  Cr  Cr51  1  0.83131493  0.83188780  0.50013198  1
  Fe  Fe52  1  0.66644801  0.66579042  0.66657520  1
  Fe  Fe53  1  0.83401060  0.83312151  0.83295917  1
" 