6393,Fe15Cr85_3,-221.48368483938, 132.019729402952,Fe15Cr85,"# generated using pymatgen
 data_Cr4Fe23
_symmetry_space_group_name_H-M   'P 1'
_cell_length_a   7.46860786
_cell_length_b   7.46860786
_cell_length_c   10.56220653
_cell_angle_alpha   90.00000000
_cell_angle_beta   90.00000000
_cell_angle_gamma   90.00000000
_symmetry_Int_Tables_number   1
_chemical_formula_structural   Cr4Fe23
_chemical_formula_sum   'Cr8 Fe46'
_cell_volume   589.16097241
_cell_formula_units_Z   2
loop_
 _symmetry_equiv_pos_site_id
 _symmetry_equiv_pos_as_xyz
  1  'x, y, z'
loop_
 _atom_site_type_symbol
 _atom_site_label
 _atom_site_symmetry_multiplicity
 _atom_site_fract_x
 _atom_site_fract_y
 _atom_site_fract_z
 _atom_site_occupancy
  Fe  Fe0  1  -0.00010362  -0.00008424  0.99969394  1
  Fe  Fe1  1  0.16605987  0.16604973  0.16583246  1
  Fe  Fe2  1  0.00013900  0.99867252  0.33343047  1
  Fe  Fe3  1  -0.00008527  0.33278496  0.00013805  1
  Fe  Fe4  1  0.16514470  0.50134268  0.16531810  1
  Cr  Cr5  1  0.99869853  0.33283748  0.33283559  1
  Fe  Fe6  1  0.99987672  0.66698633  -0.00010368  1
  Fe  Fe7  1  0.16606990  0.83229357  0.16731984  1
  Fe  Fe8  1  0.99937675  0.66850267  0.33252906  1
  Cr  Cr9  1  0.33245420  0.00045164  0.00045264  1
  Fe  Fe10  1  0.50062662  0.16584985  0.16728402  1
  Fe  Fe11  1  0.33300678  0.99866053  0.33300693  1
  Fe  Fe12  1  0.33271389  0.33372161  0.99941879  1
  Cr  Cr13  1  0.50016149  0.50015983  0.16574115  1
  Cr  Cr14  1  0.33360189  0.33146395  0.33224532  1
  Fe  Fe15  1  0.33275268  0.66605286  0.99917846  1
  Fe  Fe16  1  0.49987364  0.83323507  0.16801272  1
  Fe  Fe17  1  0.33303112  0.66924685  0.33322418  1
  Cr  Cr18  1  0.66733599  0.99849439  0.99849120  1
  Fe  Fe19  1  0.83299863  0.16677684  0.16655474  1
  Fe  Fe20  1  0.66654114  0.00031930  0.33300837  1
  Fe  Fe21  1  0.66705761  0.33373591  0.99919853  1
  Fe  Fe22  1  0.83394028  0.50059521  0.16586300  1
  Fe  Fe23  1  0.66728512  0.33253396  0.33396557  1
  Fe  Fe24  1  0.66705692  0.66606515  0.99895549  1
  Fe  Fe25  1  0.83374321  0.83231335  0.16727837  1
  Fe  Fe26  1  0.66727956  0.66683410  0.33416778  1
  Fe  Fe27  1  0.16726985  0.16438818  0.50062820  1
  Cr  Cr28  1  0.00032085  0.00031855  0.66698552  1
  Fe  Fe29  1  0.16655962  0.16798678  0.83322409  1
  Cr  Cr30  1  0.16655708  0.50209549  0.50209035  1
  Fe  Fe31  1  0.99896715  0.33414952  0.66704338  1
  Fe  Fe32  1  0.16658305  0.49991649  0.83300722  1
  Fe  Fe33  1  0.16727252  0.83394686  0.49916445  1
  Fe  Fe34  1  0.00058816  0.66584984  0.66726638  1
  Fe  Fe35  1  0.16655980  0.83178484  0.83320423  1
  Fe  Fe36  1  0.50042120  0.16607799  0.50061932  1
  Fe  Fe37  1  0.33487157  0.99969162  0.66676365  1
  Fe  Fe38  1  0.49991502  0.16799095  0.83178041  1
  Fe  Fe39  1  0.50135535  0.49988889  0.49966818  1
  Fe  Fe40  1  0.33393404  0.33248532  0.66706427  1
  Fe  Fe41  1  0.49916732  0.49918603  0.83417897  1
  Fe  Fe42  1  0.49894333  0.83371727  0.49916616  1
  Fe  Fe43  1  0.33231350  0.66751154  0.66728645  1
  Fe  Fe44  1  0.49918059  0.83250872  0.83250772  1
  Fe  Fe45  1  0.83199631  0.16679345  0.49990684  1
  Fe  Fe46  1  0.66512365  0.00131433  0.66680394  1
  Fe  Fe47  1  0.83321268  0.16796917  0.83322269  1
  Fe  Fe48  1  0.83177389  0.49988585  0.49988621  1
  Fe  Fe49  1  0.66678496  0.33158977  0.66652094  1
  Fe  Fe50  1  0.83393646  0.49918570  0.83393709  1
  Fe  Fe51  1  0.83347167  0.83300610  0.49845835  1
  Cr  Cr52  1  0.66669538  0.66669354  0.66698506  1
  Fe  Fe53  1  0.83394712  0.83253058  0.83394832  1
" 