1052,Fe15Cr85_1,-221.723402316306, 129.764470028206,Fe15Cr85,"# generated using pymatgen
 data_Cr4Fe23
_symmetry_space_group_name_H-M   'P 1'
_cell_length_a   7.46608111
_cell_length_b   7.46608111
_cell_length_c   10.55863316
_cell_angle_alpha   90.00000000
_cell_angle_beta   90.00000000
_cell_angle_gamma   90.00000000
_symmetry_Int_Tables_number   1
_chemical_formula_structural   Cr4Fe23
_chemical_formula_sum   'Cr8 Fe46'
_cell_volume   588.56320620
_cell_formula_units_Z   2
loop_
 _symmetry_equiv_pos_site_id
 _symmetry_equiv_pos_as_xyz
  1  'x, y, z'
loop_
 _atom_site_type_symbol
 _atom_site_label
 _atom_site_symmetry_multiplicity
 _atom_site_fract_x
 _atom_site_fract_y
 _atom_site_fract_z
 _atom_site_occupancy
  Fe  Fe0  1  0.00068789  0.99919922  0.99936027  1
  Fe  Fe1  1  0.16828867  0.16620058  0.16497341  1
  Cr  Cr2  1  1.00002690  0.99624706  0.33332543  1
  Fe  Fe3  1  0.00225390  0.33451570  0.99892789  1
  Fe  Fe4  1  0.16516505  0.50103952  0.16547708  1
  Fe  Fe5  1  0.99832429  0.33630702  0.33351896  1
  Fe  Fe6  1  0.99972444  0.66642533  0.99988869  1
  Fe  Fe7  1  0.16737404  0.83263723  0.16538817  1
  Fe  Fe8  1  0.00006848  0.66470657  0.33333630  1
  Fe  Fe9  1  0.33371838  0.00028969  0.99991094  1
  Fe  Fe10  1  0.49817623  0.16523262  0.16538266  1
  Fe  Fe11  1  0.33392782  0.99732021  0.33243285  1
  Fe  Fe12  1  0.33124604  0.33361196  0.99985315  1
  Fe  Fe13  1  0.50067652  0.50226185  0.16675991  1
  Cr  Cr14  1  0.33400555  0.33379079  0.33047094  1
  Fe  Fe15  1  0.33377315  0.66627107  0.99995502  1
  Fe  Fe16  1  0.49950700  0.83268594  0.16564220  1
  Fe  Fe17  1  0.33240618  0.67016871  0.33240900  1
  Fe  Fe18  1  0.66603894  0.99758305  0.99955979  1
  Cr  Cr19  1  0.83536292  0.16755929  0.16619820  1
  Cr  Cr20  1  0.66592823  0.99922629  0.33401601  1
  Cr  Cr21  1  0.66427980  0.33431827  0.99923589  1
  Fe  Fe22  1  0.83412717  0.50274070  0.16722123  1
  Fe  Fe23  1  0.66890094  0.33490507  0.33299264  1
  Fe  Fe24  1  0.66673627  0.66847490  0.99988073  1
  Fe  Fe25  1  0.83324391  0.83014174  0.16486989  1
  Fe  Fe26  1  0.66798071  0.66618064  0.33227388  1
  Cr  Cr27  1  0.16544103  0.16545111  0.49976327  1
  Fe  Fe28  1  0.99934314  0.99916572  0.66745821  1
  Fe  Fe29  1  0.16553125  0.16540032  0.83422208  1
  Fe  Fe30  1  0.16444828  0.50257521  0.50015679  1
  Fe  Fe31  1  0.99777893  0.33430989  0.66775350  1
  Fe  Fe32  1  0.16549792  0.50152213  0.83463371  1
  Fe  Fe33  1  0.16807596  0.83001003  0.50119035  1
  Fe  Fe34  1  0.00040970  0.66648203  0.66697146  1
  Fe  Fe35  1  0.16667283  0.83336393  0.83353862  1
  Fe  Fe36  1  0.50138993  0.16551524  0.50136684  1
  Fe  Fe37  1  0.33411430  0.99765355  0.66768530  1
  Fe  Fe38  1  0.50025274  0.16423157  0.83360919  1
  Cr  Cr39  1  0.50170509  0.50242891  0.50013581  1
  Cr  Cr40  1  0.33377909  0.33459118  0.67021807  1
  Fe  Fe41  1  0.50033060  0.50277188  0.83329483  1
  Fe  Fe42  1  0.49863761  0.83468058  0.50127640  1
  Fe  Fe43  1  0.33246394  0.66942462  0.66782010  1
  Fe  Fe44  1  0.50007929  0.83330535  0.83344022  1
  Fe  Fe45  1  0.83126011  0.16880969  0.50150817  1
  Fe  Fe46  1  0.66651589  0.00020501  0.66656148  1
  Fe  Fe47  1  0.83428499  0.16571204  0.83305484  1
  Fe  Fe48  1  0.83569710  0.49988005  0.50021819  1
  Fe  Fe49  1  0.66932375  0.33270488  0.66819645  1
  Fe  Fe50  1  0.83425617  0.50112699  0.83265017  1
  Fe  Fe51  1  0.83329596  0.83124449  0.50213225  1
  Fe  Fe52  1  0.66751658  0.66751261  0.66797235  1
  Fe  Fe53  1  0.83344359  0.83337513  0.83340540  1
" 