2935,Fe15Cr85_19,-221.560313061083, 130.886926460196,Fe15Cr85,"# generated using pymatgen
 data_Cr4Fe23
_symmetry_space_group_name_H-M   'P 1'
_cell_length_a   7.46833779
_cell_length_b   7.46833779
_cell_length_c   10.56182460
_cell_angle_alpha   90.00000000
_cell_angle_beta   90.00000000
_cell_angle_gamma   90.00000000
_symmetry_Int_Tables_number   1
_chemical_formula_structural   Cr4Fe23
_chemical_formula_sum   'Cr8 Fe46'
_cell_volume   589.09706184
_cell_formula_units_Z   2
loop_
 _symmetry_equiv_pos_site_id
 _symmetry_equiv_pos_as_xyz
  1  'x, y, z'
loop_
 _atom_site_type_symbol
 _atom_site_label
 _atom_site_symmetry_multiplicity
 _atom_site_fract_x
 _atom_site_fract_y
 _atom_site_fract_z
 _atom_site_occupancy
  Fe  Fe0  1  0.99797102  0.00181525  0.99946252  1
  Cr  Cr1  1  0.16643779  0.16741385  0.16572918  1
  Cr  Cr2  1  0.99951630  0.99904846  0.33383728  1
  Fe  Fe3  1  0.99929274  0.33258932  0.99927179  1
  Fe  Fe4  1  0.16720177  0.49928204  0.16722048  1
  Fe  Fe5  1  0.99907826  0.33499032  0.33386737  1
  Cr  Cr6  1  0.99970671  0.66611543  0.00040197  1
  Cr  Cr7  1  0.16853778  0.83303408  0.16683663  1
  Fe  Fe8  1  0.99909041  0.66484427  0.33367611  1
  Fe  Fe9  1  0.33434484  0.00099598  -0.00006420  1
  Fe  Fe10  1  0.50036295  0.16698187  0.16594105  1
  Fe  Fe11  1  0.33454388  -0.00007975  0.33453223  1
  Fe  Fe12  1  0.33368783  0.33408354  0.99923752  1
  Fe  Fe13  1  0.49953895  0.49995022  0.16656110  1
  Fe  Fe14  1  0.33388554  0.33349191  0.33388576  1
  Fe  Fe15  1  0.33515638  0.66466318  0.00055831  1
  Fe  Fe16  1  0.50036300  0.83280993  0.16572783  1
  Fe  Fe17  1  0.33385893  0.66632884  0.33385719  1
  Fe  Fe18  1  0.66742836  0.00034847  0.00076444  1
  Fe  Fe19  1  0.83217096  0.16766150  0.16528358  1
  Cr  Cr20  1  0.66549628  0.00078390  0.33312797  1
  Fe  Fe21  1  0.66675898  0.33340628  0.99973398  1
  Fe  Fe22  1  0.83300000  0.49927181  0.16725521  1
  Fe  Fe23  1  0.66677780  0.33430418  0.33342616  1
  Fe  Fe24  1  0.66593581  0.66598438  0.00055107  1
  Fe  Fe25  1  0.83150347  0.83280700  0.16590577  1
  Fe  Fe26  1  0.66679457  0.66551273  0.33322788  1
  Fe  Fe27  1  0.16722298  0.16718645  0.50035959  1
  Fe  Fe28  1  0.99905900  0.00071436  0.66576253  1
  Fe  Fe29  1  0.16675859  0.16766435  0.83346388  1
  Fe  Fe30  1  0.16656082  0.49991318  0.49989419  1
  Fe  Fe31  1  0.00118451  0.33324502  0.66659897  1
  Fe  Fe32  1  0.16741728  0.49817830  0.83262823  1
  Fe  Fe33  1  0.16724101  0.83264016  0.50054144  1
  Fe  Fe34  1  0.99907683  0.66578237  0.66613899  1
  Cr  Cr35  1  0.16661855  0.83446964  0.83275591  1
  Fe  Fe36  1  0.49863048  0.16654857  0.49990316  1
  Fe  Fe37  1  0.33345062  0.00138434  0.66527183  1
  Fe  Fe38  1  0.49906923  0.16702105  0.83389629  1
  Fe  Fe39  1  0.49930395  0.50056036  0.49928550  1
  Fe  Fe40  1  0.33198702  0.33324489  0.66661640  1
  Fe  Fe41  1  0.49908754  0.49948428  0.83389453  1
  Fe  Fe42  1  0.49926372  0.83263289  0.50074542  1
  Fe  Fe43  1  0.33343123  0.66511139  0.66532683  1
  Cr  Cr44  1  0.50099017  0.83237511  0.83336787  1
  Fe  Fe45  1  0.83388500  0.16722806  0.50054548  1
  Fe  Fe46  1  0.66723293  0.99927068  0.66574748  1
  Fe  Fe47  1  0.83391039  0.16555629  0.83391113  1
  Fe  Fe48  1  0.83387434  0.50054180  0.49925174  1
  Cr  Cr49  1  0.66533174  0.33275123  0.66657917  1
  Fe  Fe50  1  0.83323353  0.50029589  0.83323526  1
  Fe  Fe51  1  0.83323552  0.83197074  0.50122605  1
  Fe  Fe52  1  0.66723445  0.66723727  0.66596217  1
  Fe  Fe53  1  0.83260289  0.83388799  0.83260941  1
" 