7868,Fe17Cr83_9,-221.470381748017, 136.149101157228,Fe17Cr83,"# generated using pymatgen
 data_CrFe5
_symmetry_space_group_name_H-M   'P 1'
_cell_length_a   7.47025507
_cell_length_b   7.47025507
_cell_length_c   10.56453603
_cell_angle_alpha   90.00000000
_cell_angle_beta   90.00000000
_cell_angle_gamma   90.00000000
_symmetry_Int_Tables_number   1
_chemical_formula_structural   CrFe5
_chemical_formula_sum   'Cr9 Fe45'
_cell_volume   589.55087749
_cell_formula_units_Z   9
loop_
 _symmetry_equiv_pos_site_id
 _symmetry_equiv_pos_as_xyz
  1  'x, y, z'
loop_
 _atom_site_type_symbol
 _atom_site_label
 _atom_site_symmetry_multiplicity
 _atom_site_fract_x
 _atom_site_fract_y
 _atom_site_fract_z
 _atom_site_occupancy
  Fe  Fe0  1  0.00044471  0.99915181  0.99916854  1
  Fe  Fe1  1  0.16743484  0.16644948  0.16546527  1
  Fe  Fe2  1  0.99877988  0.99879658  0.33327668  1
  Fe  Fe3  1  0.00044480  0.33375098  0.99942097  1
  Fe  Fe4  1  0.16631820  0.49965028  0.16647609  1
  Cr  Cr5  1  0.00091969  0.33290526  0.33484881  1
  Fe  Fe6  1  0.99879199  0.66645318  0.99978442  1
  Fe  Fe7  1  0.16531389  0.83325810  0.16661936  1
  Fe  Fe8  1  0.99942312  0.66711256  0.33263230  1
  Fe  Fe9  1  0.33310557  0.00078277  -0.00007546  1
  Fe  Fe10  1  0.49928812  0.16695235  0.16596926  1
  Cr  Cr11  1  0.33264033  0.00141414  0.33167790  1
  Fe  Fe12  1  0.33310545  0.33211995  0.99967163  1
  Fe  Fe13  1  0.50040975  0.49914374  0.16698067  1
  Fe  Fe14  1  0.33410507  0.33411500  0.33327453  1
  Cr  Cr15  1  0.33409834  0.66645231  0.99939467  1
  Fe  Fe16  1  0.50090994  0.83326158  0.16660928  1
  Fe  Fe17  1  0.33297941  0.66429860  0.33199482  1
  Fe  Fe18  1  0.66580488  0.99912570  0.99928060  1
  Cr  Cr19  1  0.83255649  0.16609310  0.16569073  1
  Fe  Fe20  1  0.66761759  -0.00007981  0.33315357  1
  Fe  Fe21  1  0.66580505  0.33377686  0.99928071  1
  Fe  Fe22  1  0.83263153  0.50126647  0.16595468  1
  Fe  Fe23  1  0.66480295  0.33346600  0.33365050  1
  Fe  Fe24  1  0.66744036  0.66645329  0.99964373  1
  Fe  Fe25  1  0.83313327  0.83213871  0.16649538  1
  Fe  Fe26  1  0.66695241  0.66596721  0.33276275  1
  Fe  Fe27  1  0.16659383  0.16730064  0.49977757  1
  Cr  Cr28  1  0.99930268  0.00065498  0.66556193  1
  Fe  Fe29  1  0.16645719  0.16644152  0.83410725  1
  Fe  Fe30  1  0.16660751  0.49993105  0.49980076  1
  Fe  Fe31  1  0.99866592  0.33425975  0.66628233  1
  Fe  Fe32  1  0.16546424  0.49981490  0.83307846  1
  Cr  Cr33  1  0.16618589  0.83129379  0.50047149  1
  Fe  Fe34  1  0.00043311  0.66481438  0.66694059  1
  Fe  Fe35  1  0.16648339  0.83310022  0.83292815  1
  Fe  Fe36  1  0.50064899  0.16730514  0.49978842  1
  Fe  Fe37  1  0.33425388  0.99964348  0.66731694  1
  Fe  Fe38  1  0.50028406  0.16593728  0.83358988  1
  Fe  Fe39  1  0.49961988  0.49892448  0.49877787  1
  Cr  Cr40  1  0.33273054  0.33311921  0.66528390  1
  Fe  Fe41  1  0.50026566  0.49930381  0.83359506  1
  Cr  Cr42  1  0.49966590  0.83320835  0.50086330  1
  Fe  Fe43  1  0.33198385  0.66659175  0.66759812  1
  Fe  Fe44  1  0.49975089  0.83411489  0.83292994  1
  Fe  Fe45  1  0.83211267  0.16614864  0.49964353  1
  Fe  Fe46  1  0.66580081  0.00140971  0.66692492  1
  Fe  Fe47  1  0.83261388  0.16695610  0.83373501  1
  Fe  Fe48  1  0.83313025  0.50006639  0.49980044  1
  Fe  Fe49  1  0.66758159  0.33198100  0.66642219  1
  Fe  Fe50  1  0.83362686  0.49927993  0.83360935  1
  Fe  Fe51  1  0.83312532  0.83314180  0.49876183  1
  Cr  Cr52  1  0.66663812  0.66626687  0.66761747  1
  Fe  Fe53  1  0.83312263  0.83312092  0.83409809  1
" 