8501,Fe17Cr83_3,-221.360498327076, 133.399403884872,Fe17Cr83,"# generated using pymatgen
 data_CrFe5
_symmetry_space_group_name_H-M   'P 1'
_cell_length_a   7.47516991
_cell_length_b   7.47516991
_cell_length_c   10.57148667
_cell_angle_alpha   90.00000000
_cell_angle_beta   90.00000000
_cell_angle_gamma   90.00000000
_symmetry_Int_Tables_number   1
_chemical_formula_structural   CrFe5
_chemical_formula_sum   'Cr9 Fe45'
_cell_volume   590.71527890
_cell_formula_units_Z   9
loop_
 _symmetry_equiv_pos_site_id
 _symmetry_equiv_pos_as_xyz
  1  'x, y, z'
loop_
 _atom_site_type_symbol
 _atom_site_label
 _atom_site_symmetry_multiplicity
 _atom_site_fract_x
 _atom_site_fract_y
 _atom_site_fract_z
 _atom_site_occupancy
  Fe  Fe0  1  0.99904663  0.00075229  0.99944936  1
  Fe  Fe1  1  0.16638005  0.16548712  0.16546932  1
  Fe  Fe2  1  0.00028345  0.99863080  0.33345092  1
  Fe  Fe3  1  0.00118684  0.33234138  0.99901171  1
  Fe  Fe4  1  0.16722577  0.49967425  0.16480889  1
  Cr  Cr5  1  0.99931381  0.33215543  0.33213802  1
  Fe  Fe6  1  0.00120617  0.66527770  0.99884265  1
  Fe  Fe7  1  0.16656380  0.83320769  0.16528865  1
  Fe  Fe8  1  -0.00052306  0.66739541  0.33406689  1
  Fe  Fe9  1  0.33383816  0.00005617  -0.00009037  1
  Fe  Fe10  1  0.49921412  0.16549943  0.16677814  1
  Fe  Fe11  1  0.33260539  0.00089873  0.33298894  1
  Fe  Fe12  1  0.33168206  0.33300693  -0.00052499  1
  Fe  Fe13  1  0.49771323  0.49899858  0.16678393  1
  Fe  Fe14  1  0.33406829  0.33153894  0.33277193  1
  Fe  Fe15  1  0.33232526  0.66530712  0.00030842  1
  Fe  Fe16  1  0.49836692  0.83387215  0.16610056  1
  Cr  Cr17  1  0.33279012  0.66690017  0.33177466  1
  Fe  Fe18  1  0.66548762  0.00008636  0.99860015  1
  Fe  Fe19  1  0.83277709  0.16483451  0.16611226  1
  Fe  Fe20  1  0.66548403  0.00009622  0.33359510  1
  Cr  Cr21  1  0.66716615  0.33081868  0.99921552  1
  Cr  Cr22  1  0.83315123  0.49960065  0.16776704  1
  Fe  Fe23  1  0.66402450  0.33233938  0.33322431  1
  Cr  Cr24  1  0.66412289  0.66785147  0.99745729  1
  Cr  Cr25  1  0.83404143  0.83375823  0.16686627  1
  Fe  Fe26  1  0.66628892  0.66593634  0.33388546  1
  Fe  Fe27  1  0.16613234  0.16609758  0.49946353  1
  Fe  Fe28  1  0.99881828  0.00010322  0.66547405  1
  Fe  Fe29  1  0.16549042  0.16801943  0.83342593  1
  Fe  Fe30  1  0.16613001  0.49947787  0.50072679  1
  Fe  Fe31  1  -0.00054297  0.33239050  0.66595839  1
  Fe  Fe32  1  0.16612644  0.49819137  0.83282593  1
  Fe  Fe33  1  0.16481984  0.83279459  0.49962531  1
  Fe  Fe34  1  0.99882164  0.66587609  0.66547395  1
  Cr  Cr35  1  0.16526889  0.83244348  0.83364773  1
  Fe  Fe36  1  0.49945162  0.16740569  0.49815830  1
  Cr  Cr37  1  0.33244261  0.99929426  0.66449446  1
  Fe  Fe38  1  0.49863145  0.16655516  0.83343943  1
  Fe  Fe39  1  0.50009948  0.49881383  0.50008005  1
  Fe  Fe40  1  0.33297283  0.33387809  0.66612362  1
  Fe  Fe41  1  0.49798964  0.49964475  0.83149424  1
  Fe  Fe42  1  0.50009936  0.83215008  0.49881616  1
  Fe  Fe43  1  0.33363709  0.66441954  0.66531064  1
  Fe  Fe44  1  0.50009623  0.83217078  0.83344444  1
  Fe  Fe45  1  0.83278418  0.16609943  0.49944026  1
  Cr  Cr46  1  0.66682434  0.99894690  0.66842328  1
  Fe  Fe47  1  0.83425263  0.16590041  0.83282365  1
  Fe  Fe48  1  0.83213926  0.50012313  0.49987086  1
  Fe  Fe49  1  0.66594014  0.33387095  0.66632439  1
  Fe  Fe50  1  0.83425522  0.49966717  0.83170668  1
  Fe  Fe51  1  0.83345089  0.83214645  0.49861159  1
  Fe  Fe52  1  0.66590882  0.66505757  0.66633954  1
  Fe  Fe53  1  0.83279105  0.83280214  0.83299832  1
" 