3856,Fe17Cr83_4,-221.566856052801, 132.624930880189,Fe17Cr83,"# generated using pymatgen
 data_CrFe5
_symmetry_space_group_name_H-M   'P 1'
_cell_length_a   7.47636619
_cell_length_b   7.47636619
_cell_length_c   10.57317846
_cell_angle_alpha   90.00000000
_cell_angle_beta   90.00000000
_cell_angle_gamma   90.00000000
_symmetry_Int_Tables_number   1
_chemical_formula_structural   CrFe5
_chemical_formula_sum   'Cr9 Fe45'
_cell_volume   590.99892621
_cell_formula_units_Z   9
loop_
 _symmetry_equiv_pos_site_id
 _symmetry_equiv_pos_as_xyz
  1  'x, y, z'
loop_
 _atom_site_type_symbol
 _atom_site_label
 _atom_site_symmetry_multiplicity
 _atom_site_fract_x
 _atom_site_fract_y
 _atom_site_fract_z
 _atom_site_occupancy
  Fe  Fe0  1  0.99859963  0.99793356  0.99878609  1
  Cr  Cr1  1  0.16687871  0.16557669  0.16642903  1
  Fe  Fe2  1  0.99820341  0.99818416  0.33272652  1
  Cr  Cr3  1  0.99930423  0.33502923  -0.00051494  1
  Fe  Fe4  1  0.16549562  0.50115147  0.16666330  1
  Fe  Fe5  1  0.99820724  0.33390475  0.33249571  1
  Fe  Fe6  1  0.99919446  0.66710084  0.99920683  1
  Fe  Fe7  1  0.16622330  0.83132638  0.16602388  1
  Fe  Fe8  1  -0.00059906  0.66602292  0.33290213  1
  Fe  Fe9  1  0.33334527  0.99918022  0.99858146  1
  Fe  Fe10  1  0.49996135  0.16428535  0.16687539  1
  Fe  Fe11  1  0.33325643  0.99755394  0.33233755  1
  Fe  Fe12  1  0.33271790  0.33270905  0.99820902  1
  Cr  Cr13  1  0.49936678  0.49978585  0.16631376  1
  Fe  Fe14  1  0.33258531  0.33394007  0.33266660  1
  Fe  Fe15  1  0.33208362  0.66623769  0.99878816  1
  Fe  Fe16  1  0.49919418  0.83407493  0.16602547  1
  Fe  Fe17  1  0.33209914  0.66664845  0.33332590  1
  Fe  Fe18  1  0.66620552  0.99834667  0.99918868  1
  Fe  Fe19  1  0.83143503  0.16502983  0.16725811  1
  Fe  Fe20  1  0.66664232  0.99875830  0.33227751  1
  Cr  Cr21  1  0.66612622  0.33113448  -0.00052556  1
  Fe  Fe22  1  0.83402133  0.50043579  0.16724010  1
  Fe  Fe23  1  0.66732016  0.33275399  0.33242891  1
  Fe  Fe24  1  0.66684844  0.66752281  0.99879510  1
  Fe  Fe25  1  0.83270871  0.83268293  0.16601319  1
  Fe  Fe26  1  0.66664060  0.66664231  0.33331975  1
  Cr  Cr27  1  0.16394824  0.16587743  0.50025278  1
  Fe  Fe28  1  0.99875682  -0.00016006  0.66669635  1
  Fe  Fe29  1  0.16599915  0.16605633  0.83271111  1
  Fe  Fe30  1  0.16687123  0.49972401  0.49875324  1
  Fe  Fe31  1  0.99871920  0.33177115  0.66689693  1
  Fe  Fe32  1  0.16726613  0.49939731  0.83270370  1
  Fe  Fe33  1  0.16621493  0.83171435  0.49817324  1
  Cr  Cr34  1  0.00022228  0.66546557  0.66564584  1
  Fe  Fe35  1  0.16597549  0.83268096  0.83391391  1
  Cr  Cr36  1  0.49945375  0.16786329  0.49713097  1
  Cr  Cr37  1  0.33242629  0.99751882  0.66661002  1
  Fe  Fe38  1  0.49873851  0.16664524  0.83311167  1
  Fe  Fe39  1  0.49920495  0.50045089  0.49919906  1
  Fe  Fe40  1  0.33272743  0.33497916  0.66721606  1
  Fe  Fe41  1  0.49882860  0.49997960  0.83232621  1
  Fe  Fe42  1  0.49922820  0.83059416  0.49820054  1
  Fe  Fe43  1  0.33409344  0.66501336  0.66601438  1
  Fe  Fe44  1  0.49943226  0.83147007  0.83392432  1
  Fe  Fe45  1  0.83322184  0.16663763  0.49878511  1
  Cr  Cr46  1  0.66660233  -0.00046513  0.66627429  1
  Fe  Fe47  1  0.83339333  0.16546263  0.83212597  1
  Fe  Fe48  1  0.83209090  0.49838600  0.49880076  1
  Fe  Fe49  1  0.66662016  0.33446415  0.66680862  1
  Fe  Fe50  1  0.83205333  0.50002377  0.83211032  1
  Fe  Fe51  1  0.83273561  0.83309058  0.49823811  1
  Fe  Fe52  1  0.66471646  0.66509515  0.66602552  1
  Fe  Fe53  1  0.83274034  0.83265798  0.83386039  1
" 