1787,Fe17Cr83_2,-221.455742430675, 132.024843074477,Fe17Cr83,"# generated using pymatgen
 data_CrFe5
_symmetry_space_group_name_H-M   'P 1'
_cell_length_a   7.47767104
_cell_length_b   7.47767104
_cell_length_c   10.57502381
_cell_angle_alpha   90.00000000
_cell_angle_beta   90.00000000
_cell_angle_gamma   90.00000000
_symmetry_Int_Tables_number   1
_chemical_formula_structural   CrFe5
_chemical_formula_sum   'Cr9 Fe45'
_cell_volume   591.30842293
_cell_formula_units_Z   9
loop_
 _symmetry_equiv_pos_site_id
 _symmetry_equiv_pos_as_xyz
  1  'x, y, z'
loop_
 _atom_site_type_symbol
 _atom_site_label
 _atom_site_symmetry_multiplicity
 _atom_site_fract_x
 _atom_site_fract_y
 _atom_site_fract_z
 _atom_site_occupancy
  Fe  Fe0  1  0.00040009  0.99914880  0.99928651  1
  Fe  Fe1  1  0.16549040  0.16546201  0.16546499  1
  Fe  Fe2  1  0.99926465  0.99834260  0.33263820  1
  Fe  Fe3  1  0.99927660  0.33262086  -0.00057206  1
  Fe  Fe4  1  0.16611196  0.49913272  0.16595721  1
  Cr  Cr5  1  -0.00050045  0.33222032  0.33342258  1
  Fe  Fe6  1  0.99816063  0.66609933  0.99913260  1
  Fe  Fe7  1  0.16561812  0.83327297  0.16643639  1
  Fe  Fe8  1  0.99928772  0.66691748  0.33277996  1
  Fe  Fe9  1  0.33118516  -0.00023276  0.99879003  1
  Cr  Cr10  1  0.49832073  0.16692676  0.16631429  1
  Fe  Fe11  1  0.33151946  0.99845907  0.33260708  1
  Fe  Fe12  1  0.33229419  0.33199371  0.99880072  1
  Fe  Fe13  1  0.49978524  0.49975604  0.16644906  1
  Fe  Fe14  1  0.33262426  0.33361123  0.33262037  1
  Cr  Cr15  1  0.33250901  0.66604738  0.99919130  1
  Fe  Fe16  1  0.49928943  0.83166688  0.16693164  1
  Fe  Fe17  1  0.33249833  0.66580133  0.33249646  1
  Cr  Cr18  1  0.66613107  0.99893116  0.99813241  1
  Fe  Fe19  1  0.83357740  0.16595813  0.16597204  1
  Fe  Fe20  1  0.66708318  0.99847189  0.33264363  1
  Fe  Fe21  1  0.66629562  0.33422874  0.99863715  1
  Fe  Fe22  1  0.83197241  0.49962683  0.16545297  1
  Fe  Fe23  1  0.66596800  0.33358606  0.33278457  1
  Fe  Fe24  1  0.66691279  0.66498671  0.99910796  1
  Fe  Fe25  1  0.83296261  0.83228171  0.16643953  1
  Fe  Fe26  1  0.66608283  0.66581362  0.33279085  1
  Fe  Fe27  1  0.16545766  0.16547313  0.49979883  1
  Fe  Fe28  1  -0.00004158  0.00028274  0.66594430  1
  Fe  Fe29  1  0.16598097  0.16594238  0.83260807  1
  Fe  Fe30  1  0.16708113  0.49912983  0.49931225  1
  Fe  Fe31  1  -0.00002572  0.33163677  0.66578954  1
  Fe  Fe32  1  0.16596297  0.49832224  0.83260103  1
  Fe  Fe33  1  0.16658263  0.83326376  0.49881913  1
  Cr  Cr34  1  0.00097265  0.66525475  0.66565291  1
  Fe  Fe35  1  0.16596118  0.83360311  0.83261220  1
  Cr  Cr36  1  0.49852261  0.16635529  0.49833751  1
  Fe  Fe37  1  0.33131336  0.99863496  0.66647040  1
  Fe  Fe38  1  0.49781893  0.16644225  0.83312222  1
  Fe  Fe39  1  0.49831946  0.50025512  0.49830641  1
  Fe  Fe40  1  0.33129021  0.33327860  0.66644539  1
  Fe  Fe41  1  0.49881067  0.49879366  0.83311639  1
  Fe  Fe42  1  0.49831792  0.83164720  0.49831641  1
  Fe  Fe43  1  0.33292314  0.66595626  0.66609888  1
  Fe  Fe44  1  0.49830779  0.83263316  0.83262057  1
  Fe  Fe45  1  0.83408919  0.16547036  0.49880012  1
  Cr  Cr46  1  0.66632172  0.99892570  0.66632240  1
  Fe  Fe47  1  0.83407032  0.16644054  0.83309771  1
  Fe  Fe48  1  0.83247118  0.49913749  0.49831872  1
  Cr  Cr49  1  0.66702407  0.33228909  0.66623224  1
  Fe  Fe50  1  0.83309650  0.49881987  0.83410136  1
  Fe  Fe51  1  0.83296955  0.83325887  0.49782514  1
  Cr  Cr52  1  0.66432161  0.66665524  0.66665979  1
  Fe  Fe53  1  0.83359987  0.83260746  0.83360309  1
" 