4711,Fe17Cr83_6,-221.467595558135, 134.313966932551,Fe17Cr83,"# generated using pymatgen
 data_CrFe5
_symmetry_space_group_name_H-M   'P 1'
_cell_length_a   7.47011361
_cell_length_b   7.47011361
_cell_length_c   10.56433598
_cell_angle_alpha   90.00000000
_cell_angle_beta   90.00000000
_cell_angle_gamma   90.00000000
_symmetry_Int_Tables_number   1
_chemical_formula_structural   CrFe5
_chemical_formula_sum   'Cr9 Fe45'
_cell_volume   589.51738704
_cell_formula_units_Z   9
loop_
 _symmetry_equiv_pos_site_id
 _symmetry_equiv_pos_as_xyz
  1  'x, y, z'
loop_
 _atom_site_type_symbol
 _atom_site_label
 _atom_site_symmetry_multiplicity
 _atom_site_fract_x
 _atom_site_fract_y
 _atom_site_fract_z
 _atom_site_occupancy
  Fe  Fe0  1  0.99861881  0.99966425  0.99978188  1
  Fe  Fe1  1  0.16598479  0.16695135  0.16716532  1
  Fe  Fe2  1  0.00097877  0.99863620  0.33211490  1
  Fe  Fe3  1  0.99979410  0.33311139  0.99962324  1
  Fe  Fe4  1  0.16597726  0.49929591  0.16595170  1
  Fe  Fe5  1  -0.00020250  0.33414076  0.33227367  1
  Fe  Fe6  1  0.00095999  0.66660886  0.99979445  1
  Fe  Fe7  1  0.16545260  0.83313612  0.16648240  1
  Fe  Fe8  1  0.99862598  0.66660725  0.33315638  1
  Cr  Cr9  1  0.33304623  0.99872530  0.00147642  1
  Fe  Fe10  1  0.49978831  0.16748028  0.16648289  1
  Fe  Fe11  1  0.33211585  0.99978398  0.33195228  1
  Fe  Fe12  1  0.33277430  0.33479977  0.00029740  1
  Fe  Fe13  1  0.49979473  0.49876493  0.16646269  1
  Fe  Fe14  1  0.33327440  0.33297357  0.33211107  1
  Fe  Fe15  1  0.33214308  0.66545395  -0.00005924  1
  Fe  Fe16  1  0.49978850  0.83313784  0.16645606  1
  Cr  Cr17  1  0.33362214  0.66695387  0.33282237  1
  Fe  Fe18  1  0.66796646  0.00029438  0.00045635  1
  Fe  Fe19  1  0.83361099  0.16695730  0.16609743  1
  Cr  Cr20  1  0.66596523  0.99852123  0.33124350  1
  Fe  Fe21  1  0.66681955  0.33246370  0.00030055  1
  Fe  Fe22  1  0.83361140  0.49929706  0.16700221  1
  Fe  Fe23  1  0.66631253  0.33532105  0.33211658  1
  Cr  Cr24  1  0.66556599  0.66695498  0.00050064  1
  Fe  Fe25  1  0.83414176  0.83312971  0.16646465  1
  Fe  Fe26  1  0.66746231  0.66544158  0.33299700  1
  Cr  Cr27  1  0.16784350  0.16547627  0.49881217  1
  Fe  Fe28  1  -0.00020048  0.99778601  0.66748474  1
  Fe  Fe29  1  0.16547062  0.16644599  0.83295588  1
  Fe  Fe30  1  0.16646972  0.50051238  0.49978642  1
  Cr  Cr31  1  -0.00019961  0.33350604  0.66763870  1
  Fe  Fe32  1  0.16714585  0.50014830  0.83364882  1
  Fe  Fe33  1  0.16594751  0.83292425  0.50029472  1
  Fe  Fe34  1  0.99979467  0.66747768  0.66643327  1
  Fe  Fe35  1  0.16610627  0.83278538  0.83261289  1
  Cr  Cr36  1  0.49881167  0.16744401  0.50016678  1
  Fe  Fe37  1  0.33247886  0.99842144  0.66709838  1
  Cr  Cr38  1  0.50076843  0.16743415  0.83196641  1
  Fe  Fe39  1  0.50030926  0.49998630  0.50030765  1
  Fe  Fe40  1  0.33363360  0.33464754  0.66696564  1
  Fe  Fe41  1  0.49928227  0.50028365  0.83261573  1
  Fe  Fe42  1  0.49978920  0.83242631  0.50081638  1
  Fe  Fe43  1  0.33299799  0.66631696  0.66631508  1
  Fe  Fe44  1  0.49979489  0.83213579  0.83211413  1
  Cr  Cr45  1  0.83272825  0.16645771  0.50019188  1
  Fe  Fe46  1  0.66710712  0.99841794  0.66683935  1
  Fe  Fe47  1  0.83361535  0.16593467  0.83347905  1
  Fe  Fe48  1  0.83260617  0.50103277  0.49926158  1
  Fe  Fe49  1  0.66595119  0.33465254  0.66696710  1
  Fe  Fe50  1  0.83295349  0.49963733  0.83312730  1
  Fe  Fe51  1  0.83364758  0.83189192  0.50029972  1
  Fe  Fe52  1  0.66659166  0.66631669  0.66657749  1
  Fe  Fe53  1  0.83347967  0.83381164  0.83261618  1
" 