7124,Fe17Cr83_12,-221.414561675611, 130.728929956878,Fe17Cr83,"# generated using pymatgen
 data_CrFe5
_symmetry_space_group_name_H-M   'P 1'
_cell_length_a   7.47583437
_cell_length_b   7.47583437
_cell_length_c   10.57242635
_cell_angle_alpha   90.00000000
_cell_angle_beta   90.00000000
_cell_angle_gamma   90.00000000
_symmetry_Int_Tables_number   1
_chemical_formula_structural   CrFe5
_chemical_formula_sum   'Cr9 Fe45'
_cell_volume   590.87281586
_cell_formula_units_Z   9
loop_
 _symmetry_equiv_pos_site_id
 _symmetry_equiv_pos_as_xyz
  1  'x, y, z'
loop_
 _atom_site_type_symbol
 _atom_site_label
 _atom_site_symmetry_multiplicity
 _atom_site_fract_x
 _atom_site_fract_y
 _atom_site_fract_z
 _atom_site_occupancy
  Fe  Fe0  1  0.00124905  0.00211628  0.99918476  1
  Fe  Fe1  1  0.16453698  0.16749153  0.16621473  1
  Fe  Fe2  1  0.99879578  0.00011111  0.33370750  1
  Fe  Fe3  1  -0.00019070  0.33196188  0.00010301  1
  Fe  Fe4  1  0.16680136  0.49799069  0.16602471  1
  Fe  Fe5  1  -0.00045770  0.33307231  0.33268383  1
  Fe  Fe6  1  -0.00006583  0.66397298  0.00021671  1
  Cr  Cr7  1  0.16447003  0.83348882  0.16457198  1
  Fe  Fe8  1  0.99884112  0.66512113  0.33347302  1
  Fe  Fe9  1  0.33153491  0.00062729  0.99738386  1
  Cr  Cr10  1  0.49787984  0.16768286  0.16823930  1
  Fe  Fe11  1  0.32967850  0.99880467  0.33408140  1
  Fe  Fe12  1  0.33213130  0.33333484  0.99849424  1
  Fe  Fe13  1  0.49885135  0.50005724  0.16662634  1
  Fe  Fe14  1  0.32913833  0.33460760  0.33238673  1
  Fe  Fe15  1  0.33313019  0.66461175  0.99805742  1
  Cr  Cr16  1  0.49820649  0.83299932  0.16795111  1
  Fe  Fe17  1  0.33082876  0.66500112  0.33354024  1
  Cr  Cr18  1  0.66664639  -0.00009259  -0.00049052  1
  Fe  Fe19  1  0.83508170  0.16617383  0.16698429  1
  Fe  Fe20  1  0.66924063  0.99865941  0.33374395  1
  Fe  Fe21  1  0.66585846  0.33424383  -0.00030894  1
  Fe  Fe22  1  0.83268059  0.49978685  0.16574109  1
  Fe  Fe23  1  0.66949986  0.33413547  0.33201082  1
  Fe  Fe24  1  0.66501460  0.66347076  0.00040081  1
  Fe  Fe25  1  0.83293213  0.83211947  0.16658841  1
  Fe  Fe26  1  0.66847628  0.66557364  0.33303994  1
  Fe  Fe27  1  0.16456657  0.16666587  0.49936236  1
  Fe  Fe28  1  0.00170732  -0.00001406  0.66526002  1
  Fe  Fe29  1  0.16495915  0.16630241  0.83266100  1
  Fe  Fe30  1  0.16514866  0.49884380  0.49957034  1
  Fe  Fe31  1  0.00034903  0.33145112  0.66501021  1
  Fe  Fe32  1  0.16662167  0.49983595  0.83265870  1
  Fe  Fe33  1  0.16672788  0.83271961  0.49900725  1
  Fe  Fe34  1  0.00113131  0.66653988  0.66411485  1
  Fe  Fe35  1  0.16760360  0.83217846  0.83316074  1
  Cr  Cr36  1  0.49801150  0.16659480  0.49776776  1
  Fe  Fe37  1  0.33043307  0.99874769  0.66681621  1
  Fe  Fe38  1  0.49841733  0.16801902  0.83263008  1
  Cr  Cr39  1  0.50024760  0.49822124  0.49937630  1
  Fe  Fe40  1  0.33135434  0.33239426  0.66754184  1
  Fe  Fe41  1  0.49784614  0.49967588  0.83220171  1
  Fe  Fe42  1  0.49840878  0.83191916  0.49800265  1
  Fe  Fe43  1  0.33212543  0.66710365  0.66662502  1
  Fe  Fe44  1  0.49758115  0.83079520  0.83300743  1
  Fe  Fe45  1  0.83454472  0.16754196  0.49864247  1
  Cr  Cr46  1  0.66624564  0.99912289  0.66604330  1
  Fe  Fe47  1  0.83484840  0.16708307  0.83249365  1
  Fe  Fe48  1  0.83454319  0.49889853  0.49996776  1
  Fe  Fe49  1  0.66629372  0.33261262  0.66627047  1
  Cr  Cr50  1  0.83290650  0.49903891  0.83096099  1
  Fe  Fe51  1  0.83318253  0.83169392  0.49891257  1
  Fe  Fe52  1  0.66540995  0.66617868  0.66539982  1
  Cr  Cr53  1  0.83625985  0.83097684  0.83414915  1
" 