4855,Fe17Cr83_16,-221.468236560405, 129.155832452655,Fe17Cr83,"# generated using pymatgen
 data_CrFe5
_symmetry_space_group_name_H-M   'P 1'
_cell_length_a   7.47680372
_cell_length_b   7.47680372
_cell_length_c   10.57379722
_cell_angle_alpha   90.00000000
_cell_angle_beta   90.00000000
_cell_angle_gamma   90.00000000
_symmetry_Int_Tables_number   1
_chemical_formula_structural   CrFe5
_chemical_formula_sum   'Cr9 Fe45'
_cell_volume   591.10269133
_cell_formula_units_Z   9
loop_
 _symmetry_equiv_pos_site_id
 _symmetry_equiv_pos_as_xyz
  1  'x, y, z'
loop_
 _atom_site_type_symbol
 _atom_site_label
 _atom_site_symmetry_multiplicity
 _atom_site_fract_x
 _atom_site_fract_y
 _atom_site_fract_z
 _atom_site_occupancy
  Fe  Fe0  1  0.00058695  0.00011299  0.00145822  1
  Fe  Fe1  1  0.16481773  0.16633973  0.16681744  1
  Fe  Fe2  1  0.99683240  -0.00026170  0.33104698  1
  Fe  Fe3  1  0.00062528  0.33377340  0.00091483  1
  Fe  Fe4  1  0.16686944  0.49897163  0.16609515  1
  Fe  Fe5  1  -0.00050602  0.33391181  0.33103611  1
  Fe  Fe6  1  -0.00009544  0.66398048  0.00145264  1
  Fe  Fe7  1  0.16665072  0.83267105  0.16645301  1
  Fe  Fe8  1  0.99753341  0.66433394  0.33124687  1
  Fe  Fe9  1  0.33287732  -0.00047107  0.00018209  1
  Cr  Cr10  1  0.49913658  0.16783647  0.16581635  1
  Fe  Fe11  1  0.33454522  0.99875703  0.33119747  1
  Fe  Fe12  1  0.33197389  0.33393799  0.99880037  1
  Fe  Fe13  1  0.49862096  0.50205858  0.16527073  1
  Fe  Fe14  1  0.33136195  0.33518896  0.33187375  1
  Fe  Fe15  1  0.33383072  0.66477042  0.00063212  1
  Fe  Fe16  1  0.49939810  0.83145215  0.16601949  1
  Fe  Fe17  1  0.33470533  0.66427597  0.33093341  1
  Fe  Fe18  1  0.66458235  0.99837408  0.00080279  1
  Fe  Fe19  1  0.83440949  0.16575998  0.16449055  1
  Fe  Fe20  1  0.66654960  0.99728704  0.33273133  1
  Fe  Fe21  1  0.66533730  0.33540915  0.00042578  1
  Fe  Fe22  1  0.83262075  0.49977070  0.16511849  1
  Cr  Cr23  1  0.66532342  0.33330466  0.33261629  1
  Fe  Fe24  1  0.66454889  0.66485233  0.00093438  1
  Fe  Fe25  1  0.83201220  0.83269747  0.16521665  1
  Fe  Fe26  1  0.66581786  0.66732616  0.33234871  1
  Cr  Cr27  1  0.16695603  0.16732706  0.49802710  1
  Cr  Cr28  1  -0.00053187  -0.00008231  0.66596064  1
  Fe  Fe29  1  0.16763900  0.16788245  0.83346512  1
  Fe  Fe30  1  0.16726978  0.49872017  0.49779851  1
  Fe  Fe31  1  0.99931860  0.33369204  0.66600601  1
  Fe  Fe32  1  0.16611385  0.49674871  0.83407351  1
  Cr  Cr33  1  0.16739285  0.83077502  0.49705768  1
  Cr  Cr34  1  -0.00053359  0.66349218  0.66570491  1
  Cr  Cr35  1  0.16843534  0.83160182  0.83411749  1
  Fe  Fe36  1  0.49970302  0.16499015  0.49934237  1
  Fe  Fe37  1  0.33608407  -0.00036269  0.66645261  1
  Fe  Fe38  1  0.49756592  0.16564825  0.83368575  1
  Fe  Fe39  1  0.49710332  0.50015984  0.49968757  1
  Fe  Fe40  1  0.33311671  0.33392640  0.66724425  1
  Fe  Fe41  1  0.50032433  0.49973943  0.83304368  1
  Fe  Fe42  1  0.50047287  0.83265518  0.49867966  1
  Fe  Fe43  1  0.33566586  0.66454717  0.66628374  1
  Fe  Fe44  1  0.50015470  0.83272243  0.83332621  1
  Fe  Fe45  1  0.83139107  0.16585368  0.49942311  1
  Fe  Fe46  1  0.66355730  0.99903256  0.66487822  1
  Cr  Cr47  1  0.83081075  0.16807032  0.83403500  1
  Fe  Fe48  1  0.83331537  0.49918446  0.49862856  1
  Fe  Fe49  1  0.66541777  0.33405374  0.66433854  1
  Fe  Fe50  1  0.83160741  0.49919341  0.83426971  1
  Fe  Fe51  1  0.83033497  0.83245686  0.49802590  1
  Fe  Fe52  1  0.66394644  0.66530311  0.66486841  1
  Cr  Cr53  1  0.83117074  0.83101619  0.83441283  1
" 