5598,Fe17Cr83_8,-221.469638329278, 134.297135297561,Fe17Cr83,"# generated using pymatgen
 data_CrFe5
_symmetry_space_group_name_H-M   'P 1'
_cell_length_a   7.46696319
_cell_length_b   7.46696319
_cell_length_c   10.55988061
_cell_angle_alpha   90.00000000
_cell_angle_beta   90.00000000
_cell_angle_gamma   90.00000000
_symmetry_Int_Tables_number   1
_chemical_formula_structural   CrFe5
_chemical_formula_sum   'Cr9 Fe45'
_cell_volume   588.77183736
_cell_formula_units_Z   9
loop_
 _symmetry_equiv_pos_site_id
 _symmetry_equiv_pos_as_xyz
  1  'x, y, z'
loop_
 _atom_site_type_symbol
 _atom_site_label
 _atom_site_symmetry_multiplicity
 _atom_site_fract_x
 _atom_site_fract_y
 _atom_site_fract_z
 _atom_site_occupancy
  Fe  Fe0  1  0.99826127  0.00177988  0.00009530  1
  Fe  Fe1  1  0.16714441  0.16878113  0.16687281  1
  Cr  Cr2  1  0.00049116  0.99900543  0.33237382  1
  Fe  Fe3  1  0.00034225  0.33164536  0.00010245  1
  Fe  Fe4  1  0.16609491  0.49919744  0.16775848  1
  Fe  Fe5  1  0.99994172  0.33493674  0.33327453  1
  Cr  Cr6  1  0.99963456  0.66654802  0.00172023  1
  Fe  Fe7  1  0.16664256  0.83209222  0.16755127  1
  Fe  Fe8  1  0.99993248  0.66460154  0.33296691  1
  Cr  Cr9  1  0.33223452  0.00184168  0.00043629  1
  Fe  Fe10  1  0.50098471  0.16768839  0.16762681  1
  Fe  Fe11  1  0.33421502  0.00103031  0.33439125  1
  Fe  Fe12  1  0.33195773  0.33480662  0.99906162  1
  Cr  Cr13  1  0.49949831  0.50046361  0.16521093  1
  Fe  Fe14  1  0.33236643  0.33248370  0.33400603  1
  Fe  Fe15  1  0.33212670  0.66442203  0.99919337  1
  Cr  Cr16  1  0.50084028  0.83329900  0.16782456  1
  Fe  Fe17  1  0.33134540  0.66660279  0.33494202  1
  Fe  Fe18  1  0.67003311  0.00131605  0.99978756  1
  Fe  Fe19  1  0.83188195  0.16762018  0.16593156  1
  Fe  Fe20  1  0.66608087  0.00106259  0.33477183  1
  Fe  Fe21  1  0.66764918  0.33263497  0.99916397  1
  Fe  Fe22  1  0.83362654  0.49917896  0.16772134  1
  Fe  Fe23  1  0.66765659  0.33257237  0.33398111  1
  Fe  Fe24  1  0.66756464  0.66577223  0.99930034  1
  Fe  Fe25  1  0.83277424  0.83311693  0.16681123  1
  Fe  Fe26  1  0.66871644  0.66647964  0.33495277  1
  Fe  Fe27  1  0.16677476  0.16937817  0.49904188  1
  Cr  Cr28  1  0.00036039  0.99898603  0.66861605  1
  Fe  Fe29  1  0.16612017  0.16927970  0.83405361  1
  Fe  Fe30  1  0.16650900  0.49988883  0.50004058  1
  Fe  Fe31  1  0.99994231  0.33428448  0.66663311  1
  Fe  Fe32  1  0.16757209  0.49951928  0.83252407  1
  Fe  Fe33  1  0.16709148  0.83064615  0.49912454  1
  Fe  Fe34  1  0.99993327  0.66520323  0.66688918  1
  Fe  Fe35  1  0.16556768  0.83147550  0.83352404  1
  Fe  Fe36  1  0.50004874  0.16883211  0.49800186  1
  Cr  Cr37  1  0.33286782  0.00132122  0.66443509  1
  Fe  Fe38  1  0.50075718  0.17023440  0.83394939  1
  Fe  Fe39  1  0.49999601  0.49991127  0.49962529  1
  Fe  Fe40  1  0.33348114  0.33467925  0.66660423  1
  Fe  Fe41  1  0.50004324  0.49787669  0.83362117  1
  Fe  Fe42  1  0.50004849  0.83143336  0.49811423  1
  Fe  Fe43  1  0.33256141  0.66479597  0.66576606  1
  Cr  Cr44  1  0.50060484  0.83075934  0.83411879  1
  Fe  Fe45  1  0.83323275  0.16916567  0.49916267  1
  Cr  Cr46  1  0.66679947  0.00134692  0.66531118  1
  Fe  Fe47  1  0.83304415  0.16827109  0.83496596  1
  Fe  Fe48  1  0.83351140  0.49988875  0.50004056  1
  Fe  Fe49  1  0.66659420  0.33471893  0.66656925  1
  Fe  Fe50  1  0.83235138  0.49949943  0.83256697  1
  Fe  Fe51  1  0.83291573  0.83085854  0.49924190  1
  Fe  Fe52  1  0.66755058  0.66472346  0.66569702  1
  Fe  Fe53  1  0.83398758  0.83234769  0.83423618  1
" 