3280,Fe17Cr83_13,-221.492471450486, 134.446283149656,Fe17Cr83,"# generated using pymatgen
 data_CrFe5
_symmetry_space_group_name_H-M   'P 1'
_cell_length_a   7.46817219
_cell_length_b   7.46817219
_cell_length_c   10.56159040
_cell_angle_alpha   90.00000000
_cell_angle_beta   90.00000000
_cell_angle_gamma   90.00000000
_symmetry_Int_Tables_number   1
_chemical_formula_structural   CrFe5
_chemical_formula_sum   'Cr9 Fe45'
_cell_volume   589.05787429
_cell_formula_units_Z   9
loop_
 _symmetry_equiv_pos_site_id
 _symmetry_equiv_pos_as_xyz
  1  'x, y, z'
loop_
 _atom_site_type_symbol
 _atom_site_label
 _atom_site_symmetry_multiplicity
 _atom_site_fract_x
 _atom_site_fract_y
 _atom_site_fract_z
 _atom_site_occupancy
  Fe  Fe0  1  0.99925254  0.99800060  0.00118575  1
  Cr  Cr1  1  0.16745802  0.16542706  0.16768543  1
  Fe  Fe2  1  -0.00002659  0.99803605  0.33311963  1
  Cr  Cr3  1  0.00072581  0.33436465  0.00025799  1
  Fe  Fe4  1  0.16740600  0.50228297  0.16834754  1
  Fe  Fe5  1  0.99899804  0.33466435  0.33208988  1
  Fe  Fe6  1  0.99960522  0.66742100  0.00150411  1
  Fe  Fe7  1  0.16704700  0.83148371  0.16632570  1
  Fe  Fe8  1  0.99947296  0.66711587  0.33206665  1
  Fe  Fe9  1  0.33498018  0.99905805  0.00029887  1
  Fe  Fe10  1  0.50149144  0.16605166  0.16715824  1
  Fe  Fe11  1  0.33450940  0.99861377  0.33426424  1
  Cr  Cr12  1  0.33372608  0.33383996  0.99818772  1
  Fe  Fe13  1  0.49998638  0.50033711  0.16728913  1
  Fe  Fe14  1  0.33529356  0.33343853  0.33311715  1
  Fe  Fe15  1  0.33418087  0.66697351  0.00106913  1
  Fe  Fe16  1  0.49941611  0.83358272  0.16661153  1
  Fe  Fe17  1  0.33437627  0.66773270  0.33258020  1
  Fe  Fe18  1  0.66538471  0.99935435  0.00116225  1
  Fe  Fe19  1  0.83089998  0.16580904  0.16742837  1
  Fe  Fe20  1  0.66514936  0.99921063  0.33218526  1
  Fe  Fe21  1  0.66577950  0.33370851  0.00142256  1
  Fe  Fe22  1  0.83245951  0.50055271  0.16721333  1
  Fe  Fe23  1  0.66551076  0.33434273  0.33225538  1
  Fe  Fe24  1  0.66585941  0.66658419  0.00080998  1
  Fe  Fe25  1  0.83330359  0.83363541  0.16697163  1
  Fe  Fe26  1  0.66596527  0.66628178  0.33265679  1
  Fe  Fe27  1  0.16792645  0.16499407  0.49928080  1
  Fe  Fe28  1  0.00182937  0.00027544  0.66676772  1
  Fe  Fe29  1  0.16750010  0.16630157  0.83160801  1
  Cr  Cr30  1  0.16766085  0.50046759  0.49966772  1
  Fe  Fe31  1  0.00170079  0.33256683  0.66670208  1
  Fe  Fe32  1  0.16753445  0.50014816  0.83074460  1
  Fe  Fe33  1  0.16795882  0.83506741  0.50010202  1
  Fe  Fe34  1  0.00079176  0.66692092  0.66660614  1
  Cr  Cr35  1  0.16767563  0.83257218  0.83424610  1
  Fe  Fe36  1  0.49824583  0.16666685  0.49971848  1
  Fe  Fe37  1  0.33417391  0.00042564  0.66588815  1
  Fe  Fe38  1  0.49926066  0.16520339  0.83214319  1
  Fe  Fe39  1  0.50224564  0.50000361  0.49974128  1
  Fe  Fe40  1  0.33431934  0.33241728  0.66758559  1
  Fe  Fe41  1  0.49928794  0.50151382  0.83205977  1
  Fe  Fe42  1  0.49824160  0.83308867  0.49973939  1
  Fe  Fe43  1  0.33531342  0.66695868  0.66656268  1
  Fe  Fe44  1  0.50239142  0.83313146  0.83342635  1
  Cr  Cr45  1  0.83264222  0.16749542  0.49888117  1
  Fe  Fe46  1  0.66367633  0.99941898  0.66710114  1
  Cr  Cr47  1  0.83194176  0.16542093  0.83405141  1
  Fe  Fe48  1  0.83180540  0.50016085  0.50027312  1
  Fe  Fe49  1  0.66359401  0.33348200  0.66559660  1
  Cr  Cr50  1  0.83196939  0.50053895  0.83114198  1
  Cr  Cr51  1  0.83259238  0.83295577  0.50181794  1
  Fe  Fe52  1  0.66377183  0.66686144  0.66633280  1
  Fe  Fe53  1  0.83167156  0.83297273  0.83288360  1
" 