8913,Fe17Cr83_1,-221.585949835847, 133.721729750494,Fe17Cr83,"# generated using pymatgen
 data_CrFe5
_symmetry_space_group_name_H-M   'P 1'
_cell_length_a   7.46768023
_cell_length_b   7.46768023
_cell_length_c   10.56089466
_cell_angle_alpha   90.00000000
_cell_angle_beta   90.00000000
_cell_angle_gamma   90.00000000
_symmetry_Int_Tables_number   1
_chemical_formula_structural   CrFe5
_chemical_formula_sum   'Cr9 Fe45'
_cell_volume   588.94147054
_cell_formula_units_Z   9
loop_
 _symmetry_equiv_pos_site_id
 _symmetry_equiv_pos_as_xyz
  1  'x, y, z'
loop_
 _atom_site_type_symbol
 _atom_site_label
 _atom_site_symmetry_multiplicity
 _atom_site_fract_x
 _atom_site_fract_y
 _atom_site_fract_z
 _atom_site_occupancy
  Fe  Fe0  1  0.99906924  0.00041154  0.00172203  1
  Fe  Fe1  1  0.16531002  0.16498186  0.16535008  1
  Fe  Fe2  1  0.00045754  0.99828447  0.33036209  1
  Fe  Fe3  1  0.00013304  0.33242290  0.00178371  1
  Fe  Fe4  1  0.16519433  0.50122185  0.16503975  1
  Fe  Fe5  1  0.99653482  0.33353080  0.33080177  1
  Fe  Fe6  1  0.99950207  0.66720001  0.00152592  1
  Fe  Fe7  1  0.16664926  0.83318682  0.16514353  1
  Fe  Fe8  1  0.99995517  0.66626480  0.33166795  1
  Fe  Fe9  1  0.33383958  0.00106677  0.00077243  1
  Fe  Fe10  1  0.50039463  0.16556117  0.16483267  1
  Fe  Fe11  1  0.33239938  0.99699243  0.33131873  1
  Fe  Fe12  1  0.33297762  0.33327971  0.00083854  1
  Fe  Fe13  1  0.50107168  0.50100151  0.16562966  1
  Cr  Cr14  1  0.33193757  0.33230093  0.33000358  1
  Fe  Fe15  1  0.33362691  0.66638196  0.00138354  1
  Fe  Fe16  1  0.49961079  0.83261712  0.16546825  1
  Fe  Fe17  1  0.33317985  0.66834796  0.33118980  1
  Fe  Fe18  1  0.66730029  0.99973362  0.00168980  1
  Fe  Fe19  1  0.83351085  0.16666927  0.16573954  1
  Cr  Cr20  1  0.66679286  0.99852197  0.33415418  1
  Fe  Fe21  1  0.66586360  0.33235145  0.00167193  1
  Fe  Fe22  1  0.83314849  0.50016659  0.16498741  1
  Fe  Fe23  1  0.66859766  0.33370464  0.33069713  1
  Fe  Fe24  1  0.66619738  0.66762235  0.00108865  1
  Fe  Fe25  1  0.83376572  0.83235425  0.16559307  1
  Fe  Fe26  1  0.66867148  0.66503333  0.33164792  1
  Cr  Cr27  1  0.16377308  0.16334033  0.49785669  1
  Fe  Fe28  1  0.99706316  0.99931777  0.66662512  1
  Fe  Fe29  1  0.16349237  0.16797463  0.83590975  1
  Fe  Fe30  1  0.16556375  0.50026990  0.49892270  1
  Fe  Fe31  1  0.99750016  0.33227549  0.66688104  1
  Fe  Fe32  1  0.16541403  0.50070514  0.83683004  1
  Fe  Fe33  1  0.16651641  0.82927458  0.49900452  1
  Fe  Fe34  1  0.00310615  0.66544202  0.66610772  1
  Cr  Cr35  1  0.16682088  0.83463911  0.83340500  1
  Fe  Fe36  1  0.50085220  0.16752691  0.49926750  1
  Cr  Cr37  1  0.33600027  0.00148689  0.66529688  1
  Fe  Fe38  1  0.50217164  0.16646675  0.83648736  1
  Cr  Cr39  1  0.50271419  0.50015393  0.49924286  1
  Cr  Cr40  1  0.33040975  0.33487594  0.67091332  1
  Fe  Fe41  1  0.49821862  0.50211293  0.83603578  1
  Fe  Fe42  1  0.49901141  0.83374853  0.49855425  1
  Fe  Fe43  1  0.33338276  0.66712036  0.66686822  1
  Fe  Fe44  1  0.50202982  0.83439334  0.83604091  1
  Fe  Fe45  1  0.83134507  0.16866420  0.49993551  1
  Fe  Fe46  1  0.66878788  0.00319798  0.66614471  1
  Fe  Fe47  1  0.83372665  0.16416210  0.83485967  1
  Fe  Fe48  1  0.83693300  0.49924586  0.49965250  1
  Fe  Fe49  1  0.66615970  0.33130565  0.66768549  1
  Cr  Cr50  1  0.83193910  0.49867663  0.83449679  1
  Fe  Fe51  1  0.83685777  0.83329974  0.49920161  1
  Cr  Cr52  1  0.66902853  0.67126622  0.66746568  1
  Fe  Fe53  1  0.83320254  0.83555773  0.83591743  1
" 