3304,Fe17Cr83_17,-221.463473459344, 135.714208942928,Fe17Cr83,"# generated using pymatgen
 data_CrFe5
_symmetry_space_group_name_H-M   'P 1'
_cell_length_a   7.47020304
_cell_length_b   7.47020304
_cell_length_c   10.56446245
_cell_angle_alpha   90.00000000
_cell_angle_beta   90.00000000
_cell_angle_gamma   90.00000000
_symmetry_Int_Tables_number   1
_chemical_formula_structural   CrFe5
_chemical_formula_sum   'Cr9 Fe45'
_cell_volume   589.53856005
_cell_formula_units_Z   9
loop_
 _symmetry_equiv_pos_site_id
 _symmetry_equiv_pos_as_xyz
  1  'x, y, z'
loop_
 _atom_site_type_symbol
 _atom_site_label
 _atom_site_symmetry_multiplicity
 _atom_site_fract_x
 _atom_site_fract_y
 _atom_site_fract_z
 _atom_site_occupancy
  Fe  Fe0  1  0.99858437  0.00104583  -0.00019313  1
  Fe  Fe1  1  0.16593593  0.16698906  0.16590831  1
  Fe  Fe2  1  0.99821390  0.99927297  0.33365742  1
  Fe  Fe3  1  0.00047379  0.33242377  0.99925450  1
  Cr  Cr4  1  0.16780585  0.49907102  0.16616104  1
  Cr  Cr5  1  0.99924657  0.33243947  0.33238842  1
  Fe  Fe6  1  0.99924197  0.66589518  0.99924502  1
  Cr  Cr7  1  0.16472449  0.83281601  0.16613842  1
  Fe  Fe8  1  0.99941497  0.66819475  0.33367425  1
  Cr  Cr9  1  0.33373408  0.99912940  0.99895530  1
  Fe  Fe10  1  0.49999462  0.16700502  0.16698984  1
  Cr  Cr11  1  0.33353692  0.99954558  0.33353640  1
  Fe  Fe12  1  0.33257344  0.33362668  0.99928191  1
  Fe  Fe13  1  0.50015881  0.50045967  0.16700664  1
  Fe  Fe14  1  0.33470321  0.33364185  0.33364148  1
  Fe  Fe15  1  0.33435624  0.66525804  0.99872213  1
  Fe  Fe16  1  0.50177450  0.83190326  0.16642791  1
  Fe  Fe17  1  0.33402554  0.66523425  0.33418755  1
  Fe  Fe18  1  0.66697600  0.99925521  0.00034538  1
  Fe  Fe19  1  0.83343890  0.16536557  0.16644429  1
  Fe  Fe20  1  0.66767807  -0.00004745  0.33309011  1
  Cr  Cr21  1  0.66824515  0.33407763  0.99947242  1
  Fe  Fe22  1  0.83221417  0.50102724  0.16659695  1
  Fe  Fe23  1  0.66471003  0.33244321  0.33242588  1
  Fe  Fe24  1  0.66576646  0.66714727  0.00034336  1
  Fe  Fe25  1  0.83220968  0.83297534  0.16630416  1
  Fe  Fe26  1  0.66592420  0.66697313  0.33254614  1
  Fe  Fe27  1  0.16681651  0.16609344  0.50029115  1
  Fe  Fe28  1  0.00032553  0.99927423  0.66590179  1
  Fe  Fe29  1  0.16628768  0.16630615  0.83316777  1
  Fe  Fe30  1  0.16857864  0.50085413  0.49960110  1
  Cr  Cr31  1  0.99892678  0.33314870  0.66811978  1
  Fe  Fe32  1  0.16681853  0.50048069  0.83384557  1
  Fe  Fe33  1  0.16571639  0.83241615  0.50015024  1
  Fe  Fe34  1  0.00084461  0.66750222  0.66644707  1
  Fe  Fe35  1  0.16695742  0.83257755  0.83275887  1
  Fe  Fe36  1  0.50048096  0.16717945  0.50031313  1
  Fe  Fe37  1  0.33295471  -0.00006015  0.66646981  1
  Fe  Fe38  1  0.49996146  0.16631328  0.83206046  1
  Fe  Fe39  1  0.49869735  0.49975714  0.49975795  1
  Fe  Fe40  1  0.33417058  0.33311047  0.66644180  1
  Fe  Fe41  1  0.49941548  0.50046182  0.83260094  1
  Fe  Fe42  1  0.50048273  0.83242828  0.50031409  1
  Fe  Fe43  1  0.33295515  0.66631589  0.66645589  1
  Fe  Fe44  1  0.49927248  0.83259049  0.83262245  1
  Fe  Fe45  1  0.83206874  0.16431584  0.49979431  1
  Fe  Fe46  1  0.66608695  0.00049298  0.66593221  1
  Fe  Fe47  1  0.83311841  0.16644892  0.83312868  1
  Cr  Cr48  1  0.83200807  0.50110097  0.50011205  1
  Fe  Fe49  1  0.66489907  0.33259225  0.66715096  1
  Fe  Fe50  1  0.83313300  0.49979839  0.83297820  1
  Fe  Fe51  1  0.83316815  0.83420127  0.49992419  1
  Fe  Fe52  1  0.66556562  0.66628382  0.66647911  1
  Cr  Cr53  1  0.83322230  0.83344177  0.83322347  1
" 