8441,Fe17Cr83_7,-221.524332440351, 130.171443110618,Fe17Cr83,"# generated using pymatgen
 data_CrFe5
_symmetry_space_group_name_H-M   'P 1'
_cell_length_a   7.47052696
_cell_length_b   7.47052696
_cell_length_c   10.56492055
_cell_angle_alpha   90.00000000
_cell_angle_beta   90.00000000
_cell_angle_gamma   90.00000000
_symmetry_Int_Tables_number   1
_chemical_formula_structural   CrFe5
_chemical_formula_sum   'Cr9 Fe45'
_cell_volume   589.61525373
_cell_formula_units_Z   9
loop_
 _symmetry_equiv_pos_site_id
 _symmetry_equiv_pos_as_xyz
  1  'x, y, z'
loop_
 _atom_site_type_symbol
 _atom_site_label
 _atom_site_symmetry_multiplicity
 _atom_site_fract_x
 _atom_site_fract_y
 _atom_site_fract_z
 _atom_site_occupancy
  Cr  Cr0  1  0.99916095  0.99930904  0.99914949  1
  Fe  Fe1  1  0.16823435  0.16649035  0.16476137  1
  Cr  Cr2  1  0.00073663  0.99836295  0.33391177  1
  Fe  Fe3  1  0.00048665  0.33530716  0.99868530  1
  Fe  Fe4  1  0.16557880  0.50121106  0.16464298  1
  Cr  Cr5  1  0.00083645  0.33453380  0.33264576  1
  Fe  Fe6  1  -0.00010634  0.66530180  0.99890108  1
  Fe  Fe7  1  0.16836027  0.83179993  0.16626736  1
  Fe  Fe8  1  -0.00002698  0.66648759  0.33344018  1
  Fe  Fe9  1  0.33339961  0.99845940  0.99790111  1
  Cr  Cr10  1  0.49942779  0.16610029  0.16466617  1
  Fe  Fe11  1  0.33233383  0.99838083  0.33433917  1
  Fe  Fe12  1  0.33031156  0.33269897  0.99862290  1
  Cr  Cr13  1  0.50079514  0.50098162  0.16690410  1
  Cr  Cr14  1  0.33270560  0.33431283  0.33559835  1
  Fe  Fe15  1  0.33132333  0.66822930  0.99907668  1
  Fe  Fe16  1  0.49916466  0.83252777  0.16529403  1
  Fe  Fe17  1  0.33196103  0.66934194  0.33443430  1
  Fe  Fe18  1  0.66500868  0.99775122  0.99775371  1
  Cr  Cr19  1  0.83273776  0.16778699  0.16561808  1
  Cr  Cr20  1  0.66562948  0.99658700  0.33419870  1
  Fe  Fe21  1  0.66837439  0.33347098  0.99746281  1
  Fe  Fe22  1  0.83375763  0.50199258  0.16525728  1
  Fe  Fe23  1  0.66748040  0.33425297  0.33624168  1
  Fe  Fe24  1  0.66801299  0.66823651  0.99873004  1
  Fe  Fe25  1  0.83181654  0.82931795  0.16573207  1
  Fe  Fe26  1  0.66785106  0.66455470  0.33491871  1
  Fe  Fe27  1  0.16666526  0.16530330  0.50277593  1
  Fe  Fe28  1  0.99962537  0.99952037  0.66708901  1
  Fe  Fe29  1  0.16737113  0.16753848  0.83167404  1
  Fe  Fe30  1  0.16589581  0.50201273  0.50208524  1
  Fe  Fe31  1  0.99971065  0.33336299  0.66625347  1
  Fe  Fe32  1  0.16474535  0.50006134  0.83229146  1
  Fe  Fe33  1  0.16685574  0.83233082  0.50158436  1
  Fe  Fe34  1  0.99973398  0.66641926  0.66693923  1
  Fe  Fe35  1  0.16730839  0.83177507  0.83164297  1
  Fe  Fe36  1  0.49987240  0.16581507  0.50169871  1
  Fe  Fe37  1  0.33333577  0.99953277  0.66684529  1
  Fe  Fe38  1  0.49961858  0.16507102  0.83308773  1
  Fe  Fe39  1  0.50055849  0.50128201  0.50156762  1
  Fe  Fe40  1  0.33248369  0.33262654  0.66519021  1
  Cr  Cr41  1  0.49879515  0.50001268  0.83237292  1
  Fe  Fe42  1  0.49876728  0.83199707  0.50136356  1
  Fe  Fe43  1  0.33238331  0.66721290  0.66598654  1
  Fe  Fe44  1  0.49963203  0.83425598  0.83231365  1
  Fe  Fe45  1  0.83285978  0.16691076  0.50201852  1
  Fe  Fe46  1  0.66633181  0.99952882  0.66626200  1
  Fe  Fe47  1  0.83213927  0.16753214  0.83205555  1
  Fe  Fe48  1  0.83307419  0.50063176  0.50126038  1
  Fe  Fe49  1  0.66700834  0.33257203  0.66585064  1
  Fe  Fe50  1  0.83450291  0.50006428  0.83236286  1
  Fe  Fe51  1  0.83360567  0.83130098  0.50215490  1
  Fe  Fe52  1  0.66702178  0.66718831  0.66604303  1
  Fe  Fe53  1  0.83217051  0.83177791  0.83149990  1
" 