1385,Fe17Cr83_18,-221.51520303512, 131.267100739167,Fe17Cr83,"# generated using pymatgen
 data_CrFe5
_symmetry_space_group_name_H-M   'P 1'
_cell_length_a   7.47397167
_cell_length_b   7.47397167
_cell_length_c   10.56979211
_cell_angle_alpha   90.00000000
_cell_angle_beta   90.00000000
_cell_angle_gamma   90.00000000
_symmetry_Int_Tables_number   1
_chemical_formula_structural   CrFe5
_chemical_formula_sum   'Cr9 Fe45'
_cell_volume   590.43125663
_cell_formula_units_Z   9
loop_
 _symmetry_equiv_pos_site_id
 _symmetry_equiv_pos_as_xyz
  1  'x, y, z'
loop_
 _atom_site_type_symbol
 _atom_site_label
 _atom_site_symmetry_multiplicity
 _atom_site_fract_x
 _atom_site_fract_y
 _atom_site_fract_z
 _atom_site_occupancy
  Fe  Fe0  1  0.99927258  0.00083896  0.99830624  1
  Fe  Fe1  1  0.16592455  0.16582156  0.16566175  1
  Fe  Fe2  1  0.00019251  0.00007858  0.33379084  1
  Fe  Fe3  1  0.00121604  0.33115860  0.99864313  1
  Fe  Fe4  1  0.16891322  0.49984390  0.16454498  1
  Cr  Cr5  1  0.99947629  0.33191355  0.33251022  1
  Fe  Fe6  1  0.00188955  0.66671393  0.99794305  1
  Fe  Fe7  1  0.16768056  0.83264641  0.16599324  1
  Cr  Cr8  1  0.00168960  0.66560774  0.33536296  1
  Cr  Cr9  1  0.33406952  0.99916464  0.99711235  1
  Fe  Fe10  1  0.50090200  0.16689373  0.16677972  1
  Fe  Fe11  1  0.33133724  0.00042465  0.33138191  1
  Fe  Fe12  1  0.33286379  0.33414087  0.99943707  1
  Fe  Fe13  1  0.49750448  0.49906237  0.16537131  1
  Fe  Fe14  1  0.33438543  0.33360299  0.33276194  1
  Fe  Fe15  1  0.33290130  0.66444957  0.99894452  1
  Fe  Fe16  1  0.49816005  0.83253838  0.16662958  1
  Fe  Fe17  1  0.33178163  0.66466665  0.33220762  1
  Fe  Fe18  1  0.66690807  0.00078952  0.99784083  1
  Fe  Fe19  1  0.83190317  0.16564901  0.16504116  1
  Fe  Fe20  1  0.66701996  0.00326646  0.33314561  1
  Fe  Fe21  1  0.66452417  0.33110631  0.99821514  1
  Cr  Cr22  1  0.83246267  0.49844922  0.16329205  1
  Fe  Fe23  1  0.66432397  0.33088195  0.33352080  1
  Fe  Fe24  1  0.66381626  0.66680819  0.99788430  1
  Cr  Cr25  1  0.83288255  0.83478317  0.16557902  1
  Cr  Cr26  1  0.66529803  0.66529105  0.33506672  1
  Fe  Fe27  1  0.16761312  0.16500966  0.50044393  1
  Fe  Fe28  1  0.00136186  0.99929843  0.66638183  1
  Fe  Fe29  1  0.16516702  0.16739322  0.83188688  1
  Fe  Fe30  1  0.16786466  0.49822375  0.50088379  1
  Fe  Fe31  1  0.99951644  0.33284020  0.66586520  1
  Fe  Fe32  1  0.16519756  0.49840337  0.83370195  1
  Fe  Fe33  1  0.16516460  0.83527688  0.50019585  1
  Fe  Fe34  1  0.99743900  0.66646463  0.66588245  1
  Fe  Fe35  1  0.16405262  0.83275915  0.83272468  1
  Fe  Fe36  1  0.49858530  0.16854743  0.49894531  1
  Fe  Fe37  1  0.33056359  0.00189891  0.66758949  1
  Fe  Fe38  1  0.49944313  0.16865824  0.83279874  1
  Fe  Fe39  1  0.49889524  0.49595748  0.50013628  1
  Fe  Fe40  1  0.33323377  0.33082646  0.66642388  1
  Fe  Fe41  1  0.50034232  0.49848830  0.83372122  1
  Cr  Cr42  1  0.49824140  0.83433425  0.49866861  1
  Cr  Cr43  1  0.33244045  0.66627851  0.66705409  1
  Fe  Fe44  1  0.50058261  0.83144506  0.83324383  1
  Fe  Fe45  1  0.83239802  0.16572101  0.49993894  1
  Cr  Cr46  1  0.66552277  0.00010363  0.66822743  1
  Fe  Fe47  1  0.83402903  0.16742625  0.83382048  1
  Fe  Fe48  1  0.83187979  0.49838742  0.50208497  1
  Fe  Fe49  1  0.66587717  0.33483138  0.66636417  1
  Fe  Fe50  1  0.83303085  0.49935550  0.83346104  1
  Fe  Fe51  1  0.83500082  0.83451611  0.50074103  1
  Fe  Fe52  1  0.66829734  0.66407595  0.66656986  1
  Fe  Fe53  1  0.83394692  0.83187346  0.83426260  1
" 