7666,Fe17Cr83_14,-221.457107748101, 137.978631115467,Fe17Cr83,"# generated using pymatgen
 data_CrFe5
_symmetry_space_group_name_H-M   'P 1'
_cell_length_a   7.46879596
_cell_length_b   7.46879596
_cell_length_c   10.56247253
_cell_angle_alpha   90.00000000
_cell_angle_beta   90.00000000
_cell_angle_gamma   90.00000000
_symmetry_Int_Tables_number   1
_chemical_formula_structural   CrFe5
_chemical_formula_sum   'Cr9 Fe45'
_cell_volume   589.20548672
_cell_formula_units_Z   9
loop_
 _symmetry_equiv_pos_site_id
 _symmetry_equiv_pos_as_xyz
  1  'x, y, z'
loop_
 _atom_site_type_symbol
 _atom_site_label
 _atom_site_symmetry_multiplicity
 _atom_site_fract_x
 _atom_site_fract_y
 _atom_site_fract_z
 _atom_site_occupancy
  Fe  Fe0  1  0.99988224  0.99985174  -0.00009839  1
  Cr  Cr1  1  0.16600492  0.16684757  0.16403647  1
  Fe  Fe2  1  -0.00010752  0.99852378  0.33320673  1
  Fe  Fe3  1  0.99986398  0.33324778  0.00004689  1
  Fe  Fe4  1  0.16804682  0.50138474  0.16655267  1
  Cr  Cr5  1  0.99813569  0.33496274  0.33496444  1
  Cr  Cr6  1  0.00026687  0.66693611  0.00154581  1
  Fe  Fe7  1  0.16589088  0.83256871  0.16725532  1
  Fe  Fe8  1  0.00055727  0.66723602  0.33254210  1
  Fe  Fe9  1  0.33302103  0.99969150  0.99857225  1
  Fe  Fe10  1  0.50119818  0.16783478  0.16656909  1
  Fe  Fe11  1  0.33237030  0.00070835  0.33387582  1
  Fe  Fe12  1  0.33368405  0.33405119  0.99923116  1
  Fe  Fe13  1  0.49968294  0.49840895  0.16656959  1
  Fe  Fe14  1  0.33521245  0.33386296  0.33388220  1
  Fe  Fe15  1  0.33382849  0.66590522  0.99923773  1
  Cr  Cr16  1  0.50027024  0.83205982  0.16666830  1
  Fe  Fe17  1  0.33166713  0.66507485  0.33321300  1
  Fe  Fe18  1  0.66674763  0.99971061  -0.00011070  1
  Fe  Fe19  1  0.83108689  0.16568148  0.16570301  1
  Fe  Fe20  1  0.66738624  0.00206909  0.33255633  1
  Fe  Fe21  1  0.66610215  0.33404865  0.00038612  1
  Fe  Fe22  1  0.83191764  0.49988642  0.16654920  1
  Fe  Fe23  1  0.66522937  0.33319741  0.33341921  1
  Fe  Fe24  1  0.66594093  0.66588781  0.99918366  1
  Fe  Fe25  1  0.83406090  0.83408412  0.16741755  1
  Fe  Fe26  1  0.66742489  0.66437972  0.33257465  1
  Fe  Fe27  1  0.16716212  0.16551684  0.50038512  1
  Fe  Fe28  1  0.00098965  0.00137010  0.66653403  1
  Fe  Fe29  1  0.16781820  0.16656736  0.83339960  1
  Fe  Fe30  1  0.16785456  0.50024794  0.49988093  1
  Fe  Fe31  1  0.00181311  0.33258131  0.66569580  1
  Fe  Fe32  1  0.16764154  0.49835141  0.83322284  1
  Fe  Fe33  1  0.16720740  0.83388518  0.49917587  1
  Cr  Cr34  1  0.00038531  0.66607323  0.66652035  1
  Fe  Fe35  1  0.16765834  0.83473068  0.83322175  1
  Fe  Fe36  1  0.49943028  0.16699476  0.49919134  1
  Fe  Fe37  1  0.33256349  0.00053364  0.66719898  1
  Fe  Fe38  1  0.49792394  0.16586629  0.83388211  1
  Fe  Fe39  1  0.49942961  0.49944992  0.49920956  1
  Fe  Fe40  1  0.33171239  0.33339933  0.66652990  1
  Fe  Fe41  1  0.49943617  0.50040365  0.83386364  1
  Cr  Cr42  1  0.49966511  0.83194022  0.50115985  1
  Fe  Fe43  1  0.33404978  0.66571418  0.66720145  1
  Fe  Fe44  1  0.50012090  0.83337921  0.83318053  1
  Fe  Fe45  1  0.83305462  0.16635840  0.50008059  1
  Fe  Fe46  1  0.66609810  0.99904068  0.66720917  1
  Cr  Cr47  1  0.83624014  0.16607574  0.83395115  1
  Fe  Fe48  1  0.83236346  0.49941000  0.49924980  1
  Cr  Cr49  1  0.66567049  0.33330303  0.66390976  1
  Fe  Fe50  1  0.83256911  0.50055541  0.83385091  1
  Cr  Cr51  1  0.83229724  0.83407904  0.49952558  1
  Fe  Fe52  1  0.66528300  0.66654176  0.66789422  1
  Fe  Fe53  1  0.83186901  0.83320826  0.83300462  1
" 