2874,Fe17Cr83_10,-221.553661615022, 131.764021104317,Fe17Cr83,"# generated using pymatgen
 data_CrFe5
_symmetry_space_group_name_H-M   'P 1'
_cell_length_a   7.47758418
_cell_length_b   7.47758418
_cell_length_c   10.57490096
_cell_angle_alpha   90.00000000
_cell_angle_beta   90.00000000
_cell_angle_gamma   90.00000000
_symmetry_Int_Tables_number   1
_chemical_formula_structural   CrFe5
_chemical_formula_sum   'Cr9 Fe45'
_cell_volume   591.28781547
_cell_formula_units_Z   9
loop_
 _symmetry_equiv_pos_site_id
 _symmetry_equiv_pos_as_xyz
  1  'x, y, z'
loop_
 _atom_site_type_symbol
 _atom_site_label
 _atom_site_symmetry_multiplicity
 _atom_site_fract_x
 _atom_site_fract_y
 _atom_site_fract_z
 _atom_site_occupancy
  Fe  Fe0  1  0.99927324  0.00015680  0.00013276  1
  Fe  Fe1  1  0.16624686  0.16567348  0.16551877  1
  Fe  Fe2  1  0.99885749  0.99802262  0.33221439  1
  Fe  Fe3  1  0.99928276  0.33177364  -0.00059412  1
  Fe  Fe4  1  0.16764028  0.49927314  0.16596246  1
  Cr  Cr5  1  -0.00044071  0.33322985  0.33202601  1
  Cr  Cr6  1  0.00089815  0.66535659  -0.00044229  1
  Fe  Fe7  1  0.16623747  0.83293946  0.16639322  1
  Fe  Fe8  1  -0.00027435  0.66723373  0.33293749  1
  Fe  Fe9  1  0.33250358  0.99831320  0.00010970  1
  Fe  Fe10  1  0.49940843  0.16609661  0.16585018  1
  Fe  Fe11  1  0.33250716  -0.00057385  0.33180888  1
  Fe  Fe12  1  0.33248347  0.33361086  0.00015281  1
  Fe  Fe13  1  0.49845391  0.49929449  0.16596098  1
  Fe  Fe14  1  0.33389492  0.33305621  0.33221381  1
  Fe  Fe15  1  0.33347350  0.66596210  0.99927214  1
  Fe  Fe16  1  0.49943887  0.83249498  0.16606105  1
  Fe  Fe17  1  0.33205741  0.66540228  0.33220359  1
  Fe  Fe18  1  0.66610507  0.99917851  0.00000181  1
  Fe  Fe19  1  0.83223269  0.16469652  0.16550912  1
  Fe  Fe20  1  0.66652433  -0.00014388  0.33234628  1
  Fe  Fe21  1  0.66611601  0.33273673  0.99927069  1
  Cr  Cr22  1  0.83163445  0.50016134  0.16561748  1
  Fe  Fe23  1  0.66469654  0.33218779  0.33308060  1
  Fe  Fe24  1  0.66427217  0.66597076  0.99927310  1
  Fe  Fe25  1  0.83221277  0.83389106  0.16626951  1
  Fe  Fe26  1  0.66610220  0.66584424  0.33263470  1
  Cr  Cr27  1  0.16713839  0.16530747  0.50029410  1
  Fe  Fe28  1  -0.00027332  0.99887737  0.66554441  1
  Cr  Cr29  1  0.16532633  0.16580244  0.83281187  1
  Fe  Fe30  1  0.16650267  0.50066946  0.49971629  1
  Fe  Fe31  1  0.99831595  0.33333108  0.66586258  1
  Fe  Fe32  1  0.16637316  0.49969996  0.83220541  1
  Fe  Fe33  1  0.16510702  0.83181435  0.49931892  1
  Fe  Fe34  1  -0.00039146  0.66567362  0.66565225  1
  Fe  Fe35  1  0.16736300  0.83236574  0.83217536  1
  Fe  Fe36  1  0.49969841  0.16723225  0.49900300  1
  Fe  Fe37  1  0.33177608  0.99843952  0.66597015  1
  Cr  Cr38  1  0.49847036  0.16604527  0.83218170  1
  Fe  Fe39  1  0.49918477  0.49830623  0.49929779  1
  Fe  Fe40  1  0.33317560  0.33375724  0.66552116  1
  Fe  Fe41  1  0.49931800  0.50015821  0.83262775  1
  Cr  Cr42  1  0.49931991  0.83228628  0.49948344  1
  Fe  Fe43  1  0.33232054  0.66568751  0.66641208  1
  Fe  Fe44  1  0.49789688  0.83148569  0.83292949  1
  Fe  Fe45  1  0.83167470  0.16583911  0.49930926  1
  Cr  Cr46  1  0.66593539  0.00047811  0.66546203  1
  Fe  Fe47  1  0.83307435  0.16723463  0.83306365  1
  Fe  Fe48  1  0.83219816  0.49972428  0.49960577  1
  Fe  Fe49  1  0.66639361  0.33387900  0.66553151  1
  Fe  Fe50  1  0.83219874  0.49776584  0.83233047  1
  Fe  Fe51  1  0.83403127  0.83232764  0.49898311  1
  Fe  Fe52  1  0.66595696  0.66427663  0.66597999  1
  Cr  Cr53  1  0.83203046  0.83165046  0.83289599  1
" 