5793,Fe17Cr83_11,-221.586908117038, 129.741268884405,Fe17Cr83,"# generated using pymatgen
 data_CrFe5
_symmetry_space_group_name_H-M   'P 1'
_cell_length_a   7.47490286
_cell_length_b   7.47490286
_cell_length_c   10.57110900
_cell_angle_alpha   90.00000000
_cell_angle_beta   90.00000000
_cell_angle_gamma   90.00000000
_symmetry_Int_Tables_number   1
_chemical_formula_structural   CrFe5
_chemical_formula_sum   'Cr9 Fe45'
_cell_volume   590.65197104
_cell_formula_units_Z   9
loop_
 _symmetry_equiv_pos_site_id
 _symmetry_equiv_pos_as_xyz
  1  'x, y, z'
loop_
 _atom_site_type_symbol
 _atom_site_label
 _atom_site_symmetry_multiplicity
 _atom_site_fract_x
 _atom_site_fract_y
 _atom_site_fract_z
 _atom_site_occupancy
  Fe  Fe0  1  0.00182934  0.00196749  0.00083893  1
  Fe  Fe1  1  0.16617554  0.16590345  0.16625040  1
  Fe  Fe2  1  0.00034492  0.00180718  0.33365266  1
  Fe  Fe3  1  0.00025364  0.33148711  0.00049814  1
  Fe  Fe4  1  0.16791275  0.49786550  0.16658687  1
  Fe  Fe5  1  -0.00036906  0.33013865  0.33166839  1
  Cr  Cr6  1  -0.00003857  0.66333667  0.99938203  1
  Fe  Fe7  1  0.16917309  0.83430913  0.16574939  1
  Cr  Cr8  1  0.00084970  0.66631806  0.33306204  1
  Fe  Fe9  1  0.33152703  0.00036985  0.00049275  1
  Fe  Fe10  1  0.49874341  0.16681462  0.16716191  1
  Fe  Fe11  1  0.33253754  0.99926121  0.33297227  1
  Fe  Fe12  1  0.33291050  0.33278682  -0.00050191  1
  Fe  Fe13  1  0.49962928  0.49958983  0.16632615  1
  Fe  Fe14  1  0.33342076  0.33214298  0.33194561  1
  Fe  Fe15  1  0.33559588  0.66546630  0.00028338  1
  Fe  Fe16  1  0.49703106  0.83214575  0.16699721  1
  Fe  Fe17  1  0.33523569  0.66689748  0.33210106  1
  Cr  Cr18  1  0.66267550  0.00064178  0.99910725  1
  Fe  Fe19  1  0.83324694  0.16848003  0.16649812  1
  Fe  Fe20  1  0.66540166  0.00020209  0.33351016  1
  Fe  Fe21  1  0.66543449  0.33559016  0.00024930  1
  Fe  Fe22  1  0.83117126  0.49665109  0.16672242  1
  Fe  Fe23  1  0.66544007  0.33212441  0.33206072  1
  Fe  Fe24  1  0.66334454  0.66344207  0.99943848  1
  Cr  Cr25  1  0.83199738  0.83411470  0.16592957  1
  Fe  Fe26  1  0.66327567  0.66615197  0.33284282  1
  Fe  Fe27  1  0.16610724  0.16500803  0.49943003  1
  Fe  Fe28  1  0.00043065  0.00049947  0.66381978  1
  Fe  Fe29  1  0.16769450  0.16756071  0.83275022  1
  Cr  Cr30  1  0.16906770  0.49846930  0.50021725  1
  Fe  Fe31  1  0.00051430  0.33195924  0.66674827  1
  Fe  Fe32  1  0.16664053  0.49701529  0.83147629  1
  Fe  Fe33  1  0.16695118  0.83476316  0.50063659  1
  Fe  Fe34  1  -0.00007243  0.66597074  0.66591628  1
  Cr  Cr35  1  0.16773527  0.83385986  0.83310338  1
  Fe  Fe36  1  0.49934788  0.16701858  0.49931424  1
  Fe  Fe37  1  0.33382753  0.00049968  0.66513190  1
  Fe  Fe38  1  0.49686171  0.16649233  0.83186853  1
  Fe  Fe39  1  0.49952189  0.49928955  0.49937801  1
  Fe  Fe40  1  0.33397444  0.33168882  0.66708498  1
  Fe  Fe41  1  0.49965647  0.49966193  0.83270612  1
  Fe  Fe42  1  0.49934715  0.83214574  0.49942162  1
  Fe  Fe43  1  0.33477302  0.66625766  0.66629418  1
  Fe  Fe44  1  0.49886879  0.83225649  0.83184591  1
  Fe  Fe45  1  0.83294776  0.16494860  0.49977049  1
  Fe  Fe46  1  0.66417213  -0.00005157  0.66466270  1
  Cr  Cr47  1  0.83311384  0.16705426  0.83312566  1
  Cr  Cr48  1  0.83137045  0.49854221  0.50016240  1
  Fe  Fe49  1  0.66401997  0.33249646  0.66631665  1
  Fe  Fe50  1  0.83208468  0.49889209  0.83139994  1
  Fe  Fe51  1  0.83218671  0.83472326  0.50025761  1
  Fe  Fe52  1  0.66384399  0.66596366  0.66591457  1
  Cr  Cr53  1  0.83188880  0.83263422  0.83104638  1
" 