2036,Fe17Cr83_15,-221.553526032541, 133.763975730277,Fe17Cr83,"# generated using pymatgen
 data_CrFe5
_symmetry_space_group_name_H-M   'P 1'
_cell_length_a   7.47248613
_cell_length_b   7.47248613
_cell_length_c   10.56769122
_cell_angle_alpha   90.00000000
_cell_angle_beta   90.00000000
_cell_angle_gamma   90.00000000
_symmetry_Int_Tables_number   1
_chemical_formula_structural   CrFe5
_chemical_formula_sum   'Cr9 Fe45'
_cell_volume   590.07925919
_cell_formula_units_Z   9
loop_
 _symmetry_equiv_pos_site_id
 _symmetry_equiv_pos_as_xyz
  1  'x, y, z'
loop_
 _atom_site_type_symbol
 _atom_site_label
 _atom_site_symmetry_multiplicity
 _atom_site_fract_x
 _atom_site_fract_y
 _atom_site_fract_z
 _atom_site_occupancy
  Fe  Fe0  1  0.99914420  0.99639339  0.00007153  1
  Cr  Cr1  1  0.16262759  0.16724045  0.16462897  1
  Fe  Fe2  1  0.99865980  0.99910392  0.33315792  1
  Fe  Fe3  1  0.99766707  0.33496197  0.00026986  1
  Fe  Fe4  1  0.16597071  0.50112402  0.16571162  1
  Fe  Fe5  1  0.99814371  0.33342552  0.33424905  1
  Fe  Fe6  1  0.99824771  0.66677901  0.00113891  1
  Fe  Fe7  1  0.16524174  0.83070995  0.16527131  1
  Fe  Fe8  1  -0.00033154  0.66698803  0.33233915  1
  Fe  Fe9  1  0.33386070  0.99832447  0.99951635  1
  Fe  Fe10  1  0.49968622  0.16821228  0.16404848  1
  Cr  Cr11  1  0.33284484  0.99849845  0.33097509  1
  Fe  Fe12  1  0.33476344  0.33342565  0.00065805  1
  Fe  Fe13  1  0.49929693  0.49922336  0.16580479  1
  Fe  Fe14  1  0.33363192  0.33412453  0.33279041  1
  Fe  Fe15  1  0.33403501  0.66800083  0.00118093  1
  Fe  Fe16  1  0.49945571  0.83068800  0.16474623  1
  Fe  Fe17  1  0.33296300  0.66366445  0.33143271  1
  Fe  Fe18  1  0.66533714  0.99781316  0.00189614  1
  Fe  Fe19  1  0.83118717  0.16758110  0.16430370  1
  Cr  Cr20  1  0.66611299  0.00016461  0.33080240  1
  Fe  Fe21  1  0.66592562  0.33468321  0.00077302  1
  Fe  Fe22  1  0.83387796  0.49901945  0.16669531  1
  Fe  Fe23  1  0.66576897  0.33429096  0.33235218  1
  Fe  Fe24  1  0.66700302  0.66631824  0.00103477  1
  Fe  Fe25  1  0.83462919  0.83237099  0.16568711  1
  Fe  Fe26  1  0.66681656  0.66426313  0.33074858  1
  Fe  Fe27  1  0.16580080  0.16663561  0.49860518  1
  Fe  Fe28  1  0.99951535  0.99898674  0.66601683  1
  Fe  Fe29  1  0.16763008  0.16626377  0.83649355  1
  Fe  Fe30  1  0.16701751  0.50153229  0.49831556  1
  Cr  Cr31  1  0.99913171  0.33610196  0.66714397  1
  Cr  Cr32  1  0.16716660  0.50037526  0.83543997  1
  Fe  Fe33  1  0.16486589  0.83240264  0.49920950  1
  Fe  Fe34  1  -0.00002561  0.66974232  0.66616177  1
  Fe  Fe35  1  0.16508060  0.83373512  0.83484241  1
  Fe  Fe36  1  0.50001631  0.16729833  0.49956266  1
  Cr  Cr37  1  0.33361427  0.00050012  0.66896702  1
  Fe  Fe38  1  0.49958732  0.16712021  0.83519333  1
  Fe  Fe39  1  0.49998810  0.49701054  0.50001562  1
  Fe  Fe40  1  0.33309402  0.33308970  0.66456405  1
  Cr  Cr41  1  0.49998128  0.50142209  0.83025567  1
  Cr  Cr42  1  0.50120320  0.82900449  0.50011202  1
  Fe  Fe43  1  0.33038894  0.66574615  0.66543187  1
  Fe  Fe44  1  0.50187994  0.83395863  0.83377171  1
  Fe  Fe45  1  0.83259065  0.16622750  0.49973608  1
  Fe  Fe46  1  0.66877706  0.99932570  0.66605711  1
  Cr  Cr47  1  0.83331650  0.16408532  0.83525105  1
  Fe  Fe48  1  0.83150646  0.50173111  0.49846069  1
  Fe  Fe49  1  0.66525456  0.33128563  0.66510482  1
  Fe  Fe50  1  0.83227331  0.50132191  0.83451500  1
  Fe  Fe51  1  0.83535304  0.83248340  0.49920908  1
  Fe  Fe52  1  0.67005021  0.66579988  0.66604694  1
  Fe  Fe53  1  0.83272377  0.82976969  0.83358126  1
" 