3268,Fe17Cr83_19,-221.409010360361, 132.47773006995,Fe17Cr83,"# generated using pymatgen
 data_CrFe5
_symmetry_space_group_name_H-M   'P 1'
_cell_length_a   7.47116559
_cell_length_b   7.47116559
_cell_length_c   10.56582371
_cell_angle_alpha   90.00000000
_cell_angle_beta   90.00000000
_cell_angle_gamma   90.00000000
_symmetry_Int_Tables_number   1
_chemical_formula_structural   CrFe5
_chemical_formula_sum   'Cr9 Fe45'
_cell_volume   589.76647928
_cell_formula_units_Z   9
loop_
 _symmetry_equiv_pos_site_id
 _symmetry_equiv_pos_as_xyz
  1  'x, y, z'
loop_
 _atom_site_type_symbol
 _atom_site_label
 _atom_site_symmetry_multiplicity
 _atom_site_fract_x
 _atom_site_fract_y
 _atom_site_fract_z
 _atom_site_occupancy
  Fe  Fe0  1  0.99757124  0.99968558  0.00043331  1
  Fe  Fe1  1  0.16713983  0.16867130  0.16517630  1
  Cr  Cr2  1  0.00052936  0.00069939  0.33326654  1
  Fe  Fe3  1  0.99858361  0.33414415  0.00034699  1
  Fe  Fe4  1  0.16640070  0.49803057  0.16638610  1
  Fe  Fe5  1  0.00042052  0.33520524  0.33263729  1
  Fe  Fe6  1  0.99854109  0.66529229  0.99837343  1
  Cr  Cr7  1  0.16686865  0.83142917  0.16538035  1
  Fe  Fe8  1  0.00006884  0.66346224  0.33299032  1
  Fe  Fe9  1  0.33410501  0.00021440  0.00094479  1
  Fe  Fe10  1  0.49926930  0.16635911  0.16593567  1
  Fe  Fe11  1  0.33559545  0.00042006  0.33340179  1
  Fe  Fe12  1  0.33347383  0.33470380  0.00139394  1
  Fe  Fe13  1  0.49925892  0.50019580  0.16648936  1
  Fe  Fe14  1  0.33299668  0.33261491  0.33293879  1
  Fe  Fe15  1  0.33351663  0.66416338  -0.00015793  1
  Fe  Fe16  1  0.50130064  0.83265667  0.16594207  1
  Fe  Fe17  1  0.33385459  0.66591708  0.33372851  1
  Fe  Fe18  1  0.66753164  -0.00017287  0.00124626  1
  Fe  Fe19  1  0.83265857  0.16717539  0.16601480  1
  Fe  Fe20  1  0.66353030  0.00007527  0.33154044  1
  Fe  Fe21  1  0.66708855  0.33400489  0.00093158  1
  Fe  Fe22  1  0.83349496  0.50017578  0.16647035  1
  Fe  Fe23  1  0.66560650  0.33339696  0.33193605  1
  Fe  Fe24  1  0.66718283  0.66534350  0.00074077  1
  Fe  Fe25  1  0.83114468  0.83200835  0.16622966  1
  Fe  Fe26  1  0.66528531  0.66566657  0.33178444  1
  Fe  Fe27  1  0.16939326  0.16639482  0.49996150  1
  Fe  Fe28  1  0.00062934  0.99875819  0.66673771  1
  Cr  Cr29  1  0.16628618  0.16636071  0.83396103  1
  Fe  Fe30  1  0.16734830  0.49982659  0.49792072  1
  Cr  Cr31  1  0.99958850  0.33405259  0.66632425  1
  Fe  Fe32  1  0.16897132  0.50096626  0.83480131  1
  Fe  Fe33  1  0.16927080  0.83300127  0.49916208  1
  Cr  Cr34  1  0.00051801  0.66659028  0.66722943  1
  Fe  Fe35  1  0.16631669  0.83262992  0.83489945  1
  Fe  Fe36  1  0.49849348  0.16626917  0.50013456  1
  Fe  Fe37  1  0.33165305  0.99879460  0.66431366  1
  Cr  Cr38  1  0.50006728  0.16799145  0.83205312  1
  Fe  Fe39  1  0.50064760  0.49972795  0.49934544  1
  Fe  Fe40  1  0.33388020  0.33545402  0.66460644  1
  Fe  Fe41  1  0.49928077  0.49939383  0.83333651  1
  Fe  Fe42  1  0.49849156  0.83317542  0.50005825  1
  Fe  Fe43  1  0.33366561  0.66481910  0.66526908  1
  Cr  Cr44  1  0.49943390  0.83172090  0.83319579  1
  Cr  Cr45  1  0.83172097  0.16767304  0.50098795  1
  Fe  Fe46  1  0.66680909  0.99913837  0.66657633  1
  Fe  Fe47  1  0.83196304  0.16533057  0.83363425  1
  Fe  Fe48  1  0.83128017  0.49994076  0.49788972  1
  Fe  Fe49  1  0.66484321  0.33618861  0.66634458  1
  Fe  Fe50  1  0.83082627  0.49924284  0.83471853  1
  Cr  Cr51  1  0.83188212  0.83156612  0.49889752  1
  Fe  Fe52  1  0.66523256  0.66381213  0.66639361  1
  Fe  Fe53  1  0.83360654  0.83475954  0.83386327  1
" 