5606,Fe17Cr83_5,-221.385439328392, 133.314600932377,Fe17Cr83,"# generated using pymatgen
 data_CrFe5
_symmetry_space_group_name_H-M   'P 1'
_cell_length_a   7.46900502
_cell_length_b   7.46900502
_cell_length_c   10.56276820
_cell_angle_alpha   90.00000000
_cell_angle_beta   90.00000000
_cell_angle_gamma   90.00000000
_symmetry_Int_Tables_number   1
_chemical_formula_structural   CrFe5
_chemical_formula_sum   'Cr9 Fe45'
_cell_volume   589.25496696
_cell_formula_units_Z   9
loop_
 _symmetry_equiv_pos_site_id
 _symmetry_equiv_pos_as_xyz
  1  'x, y, z'
loop_
 _atom_site_type_symbol
 _atom_site_label
 _atom_site_symmetry_multiplicity
 _atom_site_fract_x
 _atom_site_fract_y
 _atom_site_fract_z
 _atom_site_occupancy
  Fe  Fe0  1  0.00106750  0.00031899  0.99977616  1
  Fe  Fe1  1  0.16646984  0.16693401  0.16650855  1
  Fe  Fe2  1  0.00180796  0.00071041  0.33100755  1
  Fe  Fe3  1  0.99962799  0.33234822  0.99976628  1
  Fe  Fe4  1  0.16721564  0.49866355  0.16536378  1
  Fe  Fe5  1  0.00124428  0.33322096  0.33173397  1
  Fe  Fe6  1  0.99963224  0.66688776  -0.00003024  1
  Fe  Fe7  1  0.16713641  0.83396042  0.16566801  1
  Cr  Cr8  1  0.00099123  0.66580756  0.33395647  1
  Fe  Fe9  1  0.33100131  0.00084259  0.00046570  1
  Fe  Fe10  1  0.49833689  0.16798741  0.16747002  1
  Fe  Fe11  1  0.33246601  0.00010726  0.33220474  1
  Fe  Fe12  1  0.33271780  0.33150221  0.00070979  1
  Fe  Fe13  1  0.49859229  0.49864301  0.16501079  1
  Fe  Fe14  1  0.33310862  0.33402569  0.33306906  1
  Fe  Fe15  1  0.33175143  0.66705813  0.00165200  1
  Fe  Fe16  1  0.49762689  0.83310178  0.16644760  1
  Fe  Fe17  1  0.33304953  0.66529257  0.33211361  1
  Cr  Cr18  1  0.66522881  0.00133113  0.00027673  1
  Fe  Fe19  1  0.83456506  0.16775471  0.16766776  1
  Fe  Fe20  1  0.66531157  0.00129678  0.33048752  1
  Fe  Fe21  1  0.66729503  0.33377825  0.00077003  1
  Fe  Fe22  1  0.83407431  0.49782263  0.16483867  1
  Fe  Fe23  1  0.66552646  0.33281706  0.33185772  1
  Fe  Fe24  1  0.66805325  0.66568431  0.00202649  1
  Fe  Fe25  1  0.83489371  0.83409284  0.16603361  1
  Cr  Cr26  1  0.66728097  0.66555463  0.33225799  1
  Fe  Fe27  1  0.16863391  0.16585258  0.49953585  1
  Fe  Fe28  1  0.00192225  0.00194574  0.66848867  1
  Fe  Fe29  1  0.16740690  0.16694069  0.83358406  1
  Fe  Fe30  1  0.16814843  0.49777537  0.49989333  1
  Fe  Fe31  1  0.00117346  0.33208839  0.66755056  1
  Fe  Fe32  1  0.16613838  0.49914776  0.83462455  1
  Fe  Fe33  1  0.16681609  0.83573308  0.49989045  1
  Cr  Cr34  1  0.00041410  0.66567473  0.66617623  1
  Fe  Fe35  1  0.16608917  0.83350662  0.83432700  1
  Fe  Fe36  1  0.49921753  0.16716063  0.49978726  1
  Fe  Fe37  1  0.33076503  0.00173010  0.66682221  1
  Fe  Fe38  1  0.49864792  0.16738494  0.83248113  1
  Fe  Fe39  1  0.49976410  0.49685548  0.50085786  1
  Fe  Fe40  1  0.33171672  0.33272128  0.66595699  1
  Cr  Cr41  1  0.49887013  0.50008644  0.83424838  1
  Cr  Cr42  1  0.49890505  0.83225963  0.50051260  1
  Fe  Fe43  1  0.33127994  0.66470587  0.66582667  1
  Cr  Cr44  1  0.49887623  0.83192347  0.83275851  1
  Cr  Cr45  1  0.83539015  0.16724579  0.49815817  1
  Fe  Fe46  1  0.66695032  0.00230164  0.66827302  1
  Fe  Fe47  1  0.83345192  0.16762468  0.83243237  1
  Fe  Fe48  1  0.83205951  0.49860411  0.50053845  1
  Fe  Fe49  1  0.66703073  0.33318679  0.66659931  1
  Fe  Fe50  1  0.83367190  0.49911789  0.83444235  1
  Cr  Cr51  1  0.83255255  0.83656722  0.50049466  1
  Fe  Fe52  1  0.66690471  0.66413213  0.66616428  1
  Fe  Fe53  1  0.83405394  0.83310617  0.83338879  1
" 