1095,Fe17Cr83_0,-221.561576242434, 132.468442932027,Fe17Cr83,"# generated using pymatgen
 data_CrFe5
_symmetry_space_group_name_H-M   'P 1'
_cell_length_a   7.46898387
_cell_length_b   7.46898387
_cell_length_c   10.56273829
_cell_angle_alpha   90.00000000
_cell_angle_beta   90.00000000
_cell_angle_gamma   90.00000000
_symmetry_Int_Tables_number   1
_chemical_formula_structural   CrFe5
_chemical_formula_sum   'Cr9 Fe45'
_cell_volume   589.24996101
_cell_formula_units_Z   9
loop_
 _symmetry_equiv_pos_site_id
 _symmetry_equiv_pos_as_xyz
  1  'x, y, z'
loop_
 _atom_site_type_symbol
 _atom_site_label
 _atom_site_symmetry_multiplicity
 _atom_site_fract_x
 _atom_site_fract_y
 _atom_site_fract_z
 _atom_site_occupancy
  Fe  Fe0  1  0.00137044  0.00026816  0.00065373  1
  Fe  Fe1  1  0.16422650  0.16564068  0.16755214  1
  Fe  Fe2  1  0.00041614  0.99901664  0.33238991  1
  Fe  Fe3  1  0.99824039  0.33286009  0.00066796  1
  Fe  Fe4  1  0.16528247  0.49996586  0.16788650  1
  Fe  Fe5  1  0.00191574  0.33384460  0.33269198  1
  Fe  Fe6  1  0.99893728  0.66634094  0.00145809  1
  Fe  Fe7  1  0.16589824  0.83442228  0.16778168  1
  Fe  Fe8  1  0.99951265  0.66642374  0.33313988  1
  Fe  Fe9  1  0.33136921  0.99915389  0.00013046  1
  Cr  Cr10  1  0.49980150  0.16489810  0.16815732  1
  Fe  Fe11  1  0.33225832  0.99885883  0.33432121  1
  Cr  Cr12  1  0.33345223  0.33392312  0.00047748  1
  Fe  Fe13  1  0.50061143  0.50240357  0.16747637  1
  Fe  Fe14  1  0.33063605  0.33416671  0.33376765  1
  Cr  Cr15  1  0.33339087  0.66923820  0.00003454  1
  Fe  Fe16  1  0.50093238  0.83227287  0.16778770  1
  Fe  Fe17  1  0.33336664  0.66637242  0.33293975  1
  Fe  Fe18  1  0.66690418  0.99867885  0.00067272  1
  Fe  Fe19  1  0.83555073  0.16557690  0.16621098  1
  Fe  Fe20  1  0.66682863  0.99630818  0.33340715  1
  Fe  Fe21  1  0.66919541  0.33477596  0.00009521  1
  Fe  Fe22  1  0.83389582  0.50064956  0.16585021  1
  Cr  Cr23  1  0.66696061  0.33419682  0.33319485  1
  Fe  Fe24  1  0.66746022  0.66557750  0.00078209  1
  Fe  Fe25  1  0.83290662  0.83352328  0.16628602  1
  Fe  Fe26  1  0.66673542  0.66846758  0.33330246  1
  Fe  Fe27  1  0.16790254  0.16646257  0.49971520  1
  Fe  Fe28  1  0.00152930  0.00000806  0.66632257  1
  Fe  Fe29  1  0.16400371  0.16409585  0.83251583  1
  Fe  Fe30  1  0.16618897  0.49980687  0.50017510  1
  Fe  Fe31  1  0.00106822  0.33263045  0.66579584  1
  Cr  Cr32  1  0.16508651  0.50079158  0.83139527  1
  Fe  Fe33  1  0.16608970  0.83339468  0.49975855  1
  Fe  Fe34  1  0.99937708  0.66655727  0.66437952  1
  Fe  Fe35  1  0.16747339  0.83594161  0.83206341  1
  Fe  Fe36  1  0.49697489  0.16525197  0.49986254  1
  Fe  Fe37  1  0.33244098  0.99903591  0.66539360  1
  Cr  Cr38  1  0.49973238  0.16481326  0.83297491  1
  Fe  Fe39  1  0.49841137  0.50129105  0.49985029  1
  Fe  Fe40  1  0.33187667  0.33293178  0.66499872  1
  Fe  Fe41  1  0.50179525  0.50289625  0.83283752  1
  Fe  Fe42  1  0.50008735  0.83347013  0.49970613  1
  Fe  Fe43  1  0.33449078  0.66743151  0.66564788  1
  Fe  Fe44  1  0.49898028  0.83198339  0.83198375  1
  Cr  Cr45  1  0.83283591  0.16420649  0.49981676  1
  Fe  Fe46  1  0.66544537  0.99747917  0.66546984  1
  Fe  Fe47  1  0.83620360  0.16729843  0.83388040  1
  Fe  Fe48  1  0.83484830  0.50244034  0.49981436  1
  Cr  Cr49  1  0.66728005  0.33451334  0.66753218  1
  Fe  Fe50  1  0.83240425  0.49927702  0.83440887  1
  Fe  Fe51  1  0.83341716  0.83099153  0.50015272  1
  Fe  Fe52  1  0.66559199  0.66768066  0.66524027  1
  Cr  Cr53  1  0.83340842  0.83249406  0.83219241  1
" 