251,Fe18Cr82_6,-221.566366591998, 133.165161661145,Fe18Cr82,"# generated using pymatgen
 data_CrFe5
_symmetry_space_group_name_H-M   'P 1'
_cell_length_a   7.47632140
_cell_length_b   7.47632140
_cell_length_c   10.57311512
_cell_angle_alpha   90.00000000
_cell_angle_beta   90.00000000
_cell_angle_gamma   90.00000000
_symmetry_Int_Tables_number   1
_chemical_formula_structural   CrFe5
_chemical_formula_sum   'Cr9 Fe45'
_cell_volume   590.98830591
_cell_formula_units_Z   9
loop_
 _symmetry_equiv_pos_site_id
 _symmetry_equiv_pos_as_xyz
  1  'x, y, z'
loop_
 _atom_site_type_symbol
 _atom_site_label
 _atom_site_symmetry_multiplicity
 _atom_site_fract_x
 _atom_site_fract_y
 _atom_site_fract_z
 _atom_site_occupancy
  Fe  Fe0  1  0.00019010  0.00019236  0.99860105  1
  Fe  Fe1  1  0.16580488  0.16579473  0.16608645  1
  Fe  Fe2  1  0.00164887  0.00007540  0.33337554  1
  Fe  Fe3  1  0.00096460  0.33115680  -0.00057938  1
  Fe  Fe4  1  0.16754988  0.49988810  0.16605053  1
  Fe  Fe5  1  -0.00005846  0.33163459  0.33349637  1
  Fe  Fe6  1  0.00176543  0.66672052  0.99857821  1
  Fe  Fe7  1  0.16576679  0.83246471  0.16604564  1
  Fe  Fe8  1  0.00062851  0.66636779  0.33423415  1
  Fe  Fe9  1  0.33114249  0.00095466  -0.00059716  1
  Fe  Fe10  1  0.49910895  0.16832330  0.16556069  1
  Fe  Fe11  1  0.32970035  -0.00056156  0.33273900  1
  Fe  Fe12  1  0.33269284  0.33271679  0.99912060  1
  Fe  Fe13  1  0.49817678  0.49816909  0.16604204  1
  Fe  Fe14  1  0.33220698  0.33320251  0.33218379  1
  Fe  Fe15  1  0.33121148  0.66454201  0.99933906  1
  Cr  Cr16  1  0.49696797  0.83325260  0.16659420  1
  Fe  Fe17  1  0.33216493  0.66548948  0.33352413  1
  Fe  Fe18  1  0.66674513  0.00166957  0.99886033  1
  Fe  Fe19  1  0.83326936  0.16650523  0.16526991  1
  Cr  Cr20  1  0.66804820  0.99916233  0.33307577  1
  Fe  Fe21  1  0.66454784  0.33121531  -0.00060352  1
  Cr  Cr22  1  0.83346190  0.49824792  0.16694148  1
  Fe  Fe23  1  0.66595169  0.33411708  0.33281217  1
  Fe  Fe24  1  0.66517295  0.66526218  0.99835646  1
  Cr  Cr25  1  0.83417061  0.83145243  0.16351667  1
  Fe  Fe26  1  0.66532429  0.66387083  0.33518867  1
  Fe  Fe27  1  0.16383754  0.16536267  0.49870832  1
  Fe  Fe28  1  0.99936371  0.99937104  0.66604409  1
  Fe  Fe29  1  0.16525067  0.16524299  0.83345777  1
  Fe  Fe30  1  0.16553437  0.49982273  0.49865224  1
  Fe  Fe31  1  0.99840514  0.33216634  0.66525652  1
  Fe  Fe32  1  0.16702891  0.50047708  0.83355020  1
  Fe  Fe33  1  0.16634536  0.83300205  0.49937897  1
  Fe  Fe34  1  0.00188247  0.66654129  0.66529211  1
  Fe  Fe35  1  0.16423696  0.83244856  0.83272008  1
  Cr  Cr36  1  0.49842408  0.16444859  0.50048002  1
  Fe  Fe37  1  0.33128356  0.99771425  0.66602227  1
  Fe  Fe38  1  0.50041872  0.16709065  0.83322946  1
  Fe  Fe39  1  0.49924677  0.50066328  0.49786538  1
  Cr  Cr40  1  0.33160336  0.33430854  0.66853090  1
  Fe  Fe41  1  0.49812901  0.49812796  0.83422940  1
  Fe  Fe42  1  0.49771142  0.83125481  0.49928377  1
  Fe  Fe43  1  0.33043325  0.66681681  0.66527874  1
  Cr  Cr44  1  0.49772559  0.83494894  0.83213761  1
  Fe  Fe45  1  0.83496082  0.16686838  0.50015939  1
  Fe  Fe46  1  0.66744326  0.00112547  0.66583465  1
  Fe  Fe47  1  0.83246175  0.16427522  0.83269681  1
  Fe  Fe48  1  0.83331129  0.49828359  0.49855849  1
  Fe  Fe49  1  0.66751419  0.33127874  0.66605846  1
  Cr  Cr50  1  0.83483922  0.49824035  0.83317826  1
  Fe  Fe51  1  0.83412781  0.83298341  0.49912621  1
  Cr  Cr52  1  0.66583607  0.66693305  0.66326187  1
  Fe  Fe53  1  0.83482796  0.83482506  0.83370376  1
" 