5671,Fe18Cr82_15,-221.42270164883, 128.961258566165,Fe18Cr82,"# generated using pymatgen
 data_CrFe5
_symmetry_space_group_name_H-M   'P 1'
_cell_length_a   7.47478342
_cell_length_b   7.47478342
_cell_length_c   10.57094008
_cell_angle_alpha   90.00000000
_cell_angle_beta   90.00000000
_cell_angle_gamma   90.00000000
_symmetry_Int_Tables_number   1
_chemical_formula_structural   CrFe5
_chemical_formula_sum   'Cr9 Fe45'
_cell_volume   590.62365631
_cell_formula_units_Z   9
loop_
 _symmetry_equiv_pos_site_id
 _symmetry_equiv_pos_as_xyz
  1  'x, y, z'
loop_
 _atom_site_type_symbol
 _atom_site_label
 _atom_site_symmetry_multiplicity
 _atom_site_fract_x
 _atom_site_fract_y
 _atom_site_fract_z
 _atom_site_occupancy
  Fe  Fe0  1  0.99894672  0.00139380  0.00273715  1
  Fe  Fe1  1  0.16654511  0.16699010  0.16540679  1
  Fe  Fe2  1  0.00107440  -0.00008282  0.33009659  1
  Fe  Fe3  1  0.99869875  0.33342745  0.00085088  1
  Fe  Fe4  1  0.16642137  0.49940109  0.16602504  1
  Fe  Fe5  1  0.00181446  0.33335701  0.33106826  1
  Fe  Fe6  1  -0.00051559  0.66387572  0.00191344  1
  Fe  Fe7  1  0.16635876  0.83204117  0.16539323  1
  Fe  Fe8  1  0.00050547  0.66444900  0.33174445  1
  Fe  Fe9  1  0.33421551  0.00090600  0.00209699  1
  Fe  Fe10  1  0.49782220  0.16592069  0.16584495  1
  Fe  Fe11  1  0.33239068  0.99907399  0.33082501  1
  Fe  Fe12  1  0.33393288  0.33332495  0.00097998  1
  Fe  Fe13  1  0.49796420  0.50018958  0.16528775  1
  Fe  Fe14  1  0.33053597  0.33369549  0.33108589  1
  Fe  Fe15  1  0.33346847  0.66417089  0.00208376  1
  Fe  Fe16  1  0.49898399  0.83230585  0.16533471  1
  Fe  Fe17  1  0.33316350  0.66566978  0.33217113  1
  Fe  Fe18  1  0.66533484  0.00135734  0.00206681  1
  Fe  Fe19  1  0.83405350  0.16580216  0.16586852  1
  Fe  Fe20  1  0.66453369  0.99813175  0.32968213  1
  Fe  Fe21  1  0.66586668  0.33248343  0.00113895  1
  Fe  Fe22  1  0.83405054  0.50039479  0.16532421  1
  Cr  Cr23  1  0.66607075  0.33393302  0.33014094  1
  Fe  Fe24  1  0.66555856  0.66392450  0.00193452  1
  Fe  Fe25  1  0.83302734  0.83221109  0.16610502  1
  Fe  Fe26  1  0.66435289  0.66688560  0.33020228  1
  Fe  Fe27  1  0.16600037  0.16621235  0.49938446  1
  Fe  Fe28  1  0.00042177  0.00017235  0.66599186  1
  Cr  Cr29  1  0.16655520  0.16833208  0.83247459  1
  Fe  Fe30  1  0.16672761  0.49767392  0.49759390  1
  Fe  Fe31  1  -0.00027957  0.33394841  0.66642265  1
  Fe  Fe32  1  0.16782777  0.50017387  0.83534597  1
  Fe  Fe33  1  0.16785062  0.83435172  0.49776629  1
  Cr  Cr34  1  0.00144243  0.66537639  0.66664498  1
  Cr  Cr35  1  0.16694808  0.83237269  0.83623918  1
  Cr  Cr36  1  0.49744450  0.16740268  0.49979671  1
  Fe  Fe37  1  0.33152930  0.99837458  0.66488932  1
  Fe  Fe38  1  0.50092047  0.16670246  0.83247410  1
  Fe  Fe39  1  0.49993830  0.50197269  0.49872062  1
  Fe  Fe40  1  0.33229315  0.33668361  0.66596188  1
  Fe  Fe41  1  0.49866640  0.49725251  0.83402537  1
  Fe  Fe42  1  0.49764169  0.83201098  0.49926781  1
  Fe  Fe43  1  0.33398893  0.66413383  0.66429007  1
  Cr  Cr44  1  0.49962115  0.83076912  0.83240041  1
  Cr  Cr45  1  0.83478432  0.16633549  0.49989885  1
  Fe  Fe46  1  0.66575582  -0.00014379  0.66671383  1
  Fe  Fe47  1  0.83115480  0.16728995  0.83294152  1
  Fe  Fe48  1  0.83258909  0.49891131  0.49851025  1
  Fe  Fe49  1  0.66633929  0.33558245  0.66754277  1
  Fe  Fe50  1  0.83248035  0.49735863  0.83492498  1
  Cr  Cr51  1  0.83104721  0.83187149  0.49729904  1
  Fe  Fe52  1  0.66508095  0.66289477  0.66558441  1
  Cr  Cr53  1  0.83211152  0.83280720  0.83554197  1
" 