433,Fe18Cr82_19,-221.442417508236, 130.138066666955,Fe18Cr82,"# generated using pymatgen
 data_CrFe5
_symmetry_space_group_name_H-M   'P 1'
_cell_length_a   7.47476768
_cell_length_b   7.47476768
_cell_length_c   10.57091783
_cell_angle_alpha   90.00000000
_cell_angle_beta   90.00000000
_cell_angle_gamma   90.00000000
_symmetry_Int_Tables_number   1
_chemical_formula_structural   CrFe5
_chemical_formula_sum   'Cr9 Fe45'
_cell_volume   590.61992685
_cell_formula_units_Z   9
loop_
 _symmetry_equiv_pos_site_id
 _symmetry_equiv_pos_as_xyz
  1  'x, y, z'
loop_
 _atom_site_type_symbol
 _atom_site_label
 _atom_site_symmetry_multiplicity
 _atom_site_fract_x
 _atom_site_fract_y
 _atom_site_fract_z
 _atom_site_occupancy
  Cr  Cr0  1  0.00008117  0.99703228  -0.00010161  1
  Fe  Fe1  1  0.16731948  0.16831457  0.16468137  1
  Cr  Cr2  1  0.99869431  0.99586137  0.33168448  1
  Fe  Fe3  1  -0.00032068  0.33427260  0.99871670  1
  Fe  Fe4  1  0.16498999  0.50010661  0.16505919  1
  Fe  Fe5  1  0.99924515  0.33576960  0.33336695  1
  Fe  Fe6  1  0.99900765  0.66448437  0.99933919  1
  Fe  Fe7  1  0.16690233  0.82939302  0.16497111  1
  Fe  Fe8  1  0.00024544  0.66388693  0.33275699  1
  Fe  Fe9  1  0.33309291  0.99915575  -0.00014209  1
  Fe  Fe10  1  0.49932735  0.16756467  0.16466545  1
  Cr  Cr11  1  0.33249607  0.99927413  0.33073233  1
  Fe  Fe12  1  0.33283182  0.33244993  0.99928761  1
  Fe  Fe13  1  0.50107271  0.50030987  0.16494292  1
  Cr  Cr14  1  0.33432019  0.33516164  0.33326009  1
  Fe  Fe15  1  0.33277856  0.66695659  0.99947836  1
  Fe  Fe16  1  0.50023821  0.83051895  0.16571367  1
  Fe  Fe17  1  0.33241490  0.66686572  0.33271137  1
  Cr  Cr18  1  0.66705616  0.99813755  -0.00042924  1
  Cr  Cr19  1  0.83251273  0.16852951  0.16803890  1
  Fe  Fe20  1  0.66475031  0.99839620  0.33341801  1
  Fe  Fe21  1  0.66595614  0.33458894  0.99829338  1
  Fe  Fe22  1  0.83259608  0.50164292  0.16610421  1
  Fe  Fe23  1  0.66683660  0.33387438  0.33460526  1
  Fe  Fe24  1  0.66664069  0.66475568  0.99927117  1
  Fe  Fe25  1  0.83143296  0.82866264  0.16651196  1
  Fe  Fe26  1  0.66575590  0.66645946  0.33295187  1
  Cr  Cr27  1  0.16422286  0.16628344  0.50040627  1
  Fe  Fe28  1  0.99816705  0.99884362  0.66744661  1
  Fe  Fe29  1  0.16631317  0.16616625  0.83229615  1
  Fe  Fe30  1  0.16458891  0.50280498  0.49962107  1
  Fe  Fe31  1  0.99836877  0.33439771  0.66745178  1
  Fe  Fe32  1  0.16546481  0.50065145  0.83374136  1
  Fe  Fe33  1  0.16632298  0.83038299  0.50085655  1
  Fe  Fe34  1  0.99930096  0.66519460  0.66634815  1
  Fe  Fe35  1  0.16724763  0.83154582  0.83166266  1
  Fe  Fe36  1  0.50154624  0.16404007  0.49921523  1
  Fe  Fe37  1  0.33407231  0.99779995  0.66671963  1
  Fe  Fe38  1  0.49841171  0.16532582  0.83360571  1
  Fe  Fe39  1  0.50039709  0.50256579  0.49879854  1
  Cr  Cr40  1  0.33367901  0.33526631  0.66609115  1
  Fe  Fe41  1  0.49942430  0.50157888  0.83465399  1
  Fe  Fe42  1  0.49980741  0.83232918  0.50018779  1
  Fe  Fe43  1  0.33333906  0.66741048  0.66628463  1
  Fe  Fe44  1  0.49854573  0.83165718  0.83201550  1
  Fe  Fe45  1  0.83106626  0.16575976  0.49888716  1
  Fe  Fe46  1  0.66592540  0.99813415  0.66677912  1
  Fe  Fe47  1  0.83379945  0.16674775  0.83257074  1
  Fe  Fe48  1  0.83394034  0.50022508  0.49874458  1
  Cr  Cr49  1  0.66556375  0.33400134  0.66641202  1
  Fe  Fe50  1  0.83351906  0.50058665  0.83354888  1
  Fe  Fe51  1  0.83220067  0.83203984  0.50059134  1
  Fe  Fe52  1  0.66579217  0.66713172  0.66622190  1
  Fe  Fe53  1  0.83281169  0.83081725  0.83106580  1
" 