6449,Fe18Cr82_17,-221.437728146136, 130.071239307501,Fe18Cr82,"# generated using pymatgen
 data_CrFe5
_symmetry_space_group_name_H-M   'P 1'
_cell_length_a   7.47048333
_cell_length_b   7.47048333
_cell_length_c   10.56485884
_cell_angle_alpha   90.00000000
_cell_angle_beta   90.00000000
_cell_angle_gamma   90.00000000
_symmetry_Int_Tables_number   1
_chemical_formula_structural   CrFe5
_chemical_formula_sum   'Cr9 Fe45'
_cell_volume   589.60492238
_cell_formula_units_Z   9
loop_
 _symmetry_equiv_pos_site_id
 _symmetry_equiv_pos_as_xyz
  1  'x, y, z'
loop_
 _atom_site_type_symbol
 _atom_site_label
 _atom_site_symmetry_multiplicity
 _atom_site_fract_x
 _atom_site_fract_y
 _atom_site_fract_z
 _atom_site_occupancy
  Fe  Fe0  1  0.99848699  0.00063669  0.00032657  1
  Fe  Fe1  1  0.16457443  0.16473348  0.16408641  1
  Fe  Fe2  1  0.00225537  0.99786749  0.33310338  1
  Fe  Fe3  1  0.99951542  0.33309664  0.99965915  1
  Fe  Fe4  1  0.16486377  0.50074322  0.16369133  1
  Cr  Cr5  1  0.99922571  0.33307169  0.33310338  1
  Fe  Fe6  1  0.99849000  0.66556920  0.00032004  1
  Fe  Fe7  1  0.16568095  0.83411237  0.16438205  1
  Fe  Fe8  1  0.99811770  0.66839069  0.33310338  1
  Fe  Fe9  1  0.33314161  0.99972974  0.99927682  1
  Cr  Cr10  1  0.49993177  0.16739680  0.16703476  1
  Fe  Fe11  1  0.32946164  0.99934837  0.33310338  1
  Fe  Fe12  1  0.33156145  0.33329981  0.99822186  1
  Cr  Cr13  1  0.50237872  0.49888606  0.16667764  1
  Cr  Cr14  1  0.32826659  0.33392148  0.33310338  1
  Fe  Fe15  1  0.33327758  0.66629101  -0.00008457  1
  Fe  Fe16  1  0.49999856  0.83312947  0.16408724  1
  Cr  Cr17  1  0.33269857  0.66793597  0.33310338  1
  Fe  Fe18  1  0.66735217  0.99907584  0.99906578  1
  Fe  Fe19  1  0.83421901  0.16651112  0.16447591  1
  Cr  Cr20  1  0.66757364  0.99773615  0.33310338  1
  Fe  Fe21  1  0.66854172  0.33289494  0.99722074  1
  Fe  Fe22  1  0.83455731  0.50050044  0.16495734  1
  Fe  Fe23  1  0.66970785  0.33377473  0.33310338  1
  Fe  Fe24  1  0.66750814  0.66733214  0.99841945  1
  Fe  Fe25  1  0.83364659  0.83199545  0.16500205  1
  Fe  Fe26  1  0.67058147  0.66576654  0.33310338  1
  Fe  Fe27  1  0.16457443  0.16473348  0.50212035  1
  Fe  Fe28  1  0.99848699  0.00063669  0.66588019  1
  Fe  Fe29  1  0.16590064  0.16775625  0.83310338  1
  Fe  Fe30  1  0.16486377  0.50074322  0.50251543  1
  Fe  Fe31  1  0.99951542  0.33309664  0.66654761  1
  Fe  Fe32  1  0.16590908  0.49847554  0.83310338  1
  Fe  Fe33  1  0.16568095  0.83411237  0.50182471  1
  Fe  Fe34  1  0.99849000  0.66556920  0.66588672  1
  Cr  Cr35  1  0.16341555  0.83304039  0.83310338  1
  Cr  Cr36  1  0.49993177  0.16739680  0.49917200  1
  Fe  Fe37  1  0.33314161  0.99972974  0.66692994  1
  Fe  Fe38  1  0.49941835  0.16589727  0.83310338  1
  Cr  Cr39  1  0.50237872  0.49888606  0.49952912  1
  Fe  Fe40  1  0.33156145  0.33329981  0.66798491  1
  Fe  Fe41  1  0.49938691  0.50030970  0.83310338  1
  Fe  Fe42  1  0.49999856  0.83312947  0.50211953  1
  Fe  Fe43  1  0.33327758  0.66629101  0.66629133  1
  Fe  Fe44  1  0.50066484  0.83310846  0.83310338  1
  Fe  Fe45  1  0.83421901  0.16651112  0.50173085  1
  Fe  Fe46  1  0.66735217  0.99907584  0.66714098  1
  Fe  Fe47  1  0.83405664  0.16573749  0.83310338  1
  Fe  Fe48  1  0.83455731  0.50050044  0.50124943  1
  Fe  Fe49  1  0.66854172  0.33289494  0.66898602  1
  Fe  Fe50  1  0.83406709  0.50044208  0.83310338  1
  Fe  Fe51  1  0.83364659  0.83199545  0.50120471  1
  Fe  Fe52  1  0.66750814  0.66733214  0.66778731  1
  Fe  Fe53  1  0.83142250  0.83313341  0.83310338  1
" 