1790,Fe18Cr82_8,-221.453144337862, 134.026974366232,Fe18Cr82,"# generated using pymatgen
 data_CrFe5
_symmetry_space_group_name_H-M   'P 1'
_cell_length_a   7.47145128
_cell_length_b   7.47145128
_cell_length_c   10.56622773
_cell_angle_alpha   90.00000000
_cell_angle_beta   90.00000000
_cell_angle_gamma   90.00000000
_symmetry_Int_Tables_number   1
_chemical_formula_structural   CrFe5
_chemical_formula_sum   'Cr9 Fe45'
_cell_volume   589.83413799
_cell_formula_units_Z   9
loop_
 _symmetry_equiv_pos_site_id
 _symmetry_equiv_pos_as_xyz
  1  'x, y, z'
loop_
 _atom_site_type_symbol
 _atom_site_label
 _atom_site_symmetry_multiplicity
 _atom_site_fract_x
 _atom_site_fract_y
 _atom_site_fract_z
 _atom_site_occupancy
  Fe  Fe0  1  0.99898496  0.00022831  0.00147696  1
  Fe  Fe1  1  0.16597523  0.16803054  0.16573552  1
  Fe  Fe2  1  0.99826506  -0.00003500  0.33373115  1
  Fe  Fe3  1  0.00039232  0.33334979  0.00102122  1
  Fe  Fe4  1  0.16906420  0.50044136  0.16778659  1
  Fe  Fe5  1  0.00154167  0.33064451  0.33440878  1
  Cr  Cr6  1  0.00049131  0.66795766  0.99853207  1
  Fe  Fe7  1  0.16480088  0.83342398  0.16780585  1
  Fe  Fe8  1  0.00089646  0.66771071  0.33444909  1
  Fe  Fe9  1  0.33254086  0.99901994  0.00072562  1
  Fe  Fe10  1  0.50049976  0.16855507  0.16617141  1
  Cr  Cr11  1  0.33294435  0.00393775  0.33538092  1
  Fe  Fe12  1  0.33361190  0.33408524  -0.00015784  1
  Fe  Fe13  1  0.49817479  0.49766028  0.16747922  1
  Fe  Fe14  1  0.33309477  0.33581192  0.33474576  1
  Fe  Fe15  1  0.33336420  0.66544453  0.99858974  1
  Cr  Cr16  1  0.49935444  0.83132494  0.16773861  1
  Fe  Fe17  1  0.33203644  0.66578856  0.33486054  1
  Fe  Fe18  1  0.66646916  0.00080910  0.00016592  1
  Fe  Fe19  1  0.83251121  0.16393554  0.16670998  1
  Fe  Fe20  1  0.66860178  0.00029514  0.33413949  1
  Fe  Fe21  1  0.66505818  0.33204794  0.00016561  1
  Cr  Cr22  1  0.83296588  0.49761839  0.16918842  1
  Fe  Fe23  1  0.66473371  0.33053143  0.33453109  1
  Cr  Cr24  1  0.66818224  0.66641160  0.99687738  1
  Fe  Fe25  1  0.83401983  0.83437396  0.16851862  1
  Fe  Fe26  1  0.66610810  0.66646965  0.33498203  1
  Fe  Fe27  1  0.16375622  0.16609026  0.50012317  1
  Fe  Fe28  1  0.99956949  0.00011444  0.66366499  1
  Cr  Cr29  1  0.16540928  0.16506317  0.83186544  1
  Fe  Fe30  1  0.16562691  0.50045188  0.49855032  1
  Fe  Fe31  1  0.99887645  0.33352428  0.66330954  1
  Fe  Fe32  1  0.16759241  0.49858744  0.83273190  1
  Fe  Fe33  1  0.16567926  0.83227582  0.49998332  1
  Cr  Cr34  1  0.99715004  0.66625135  0.66815925  1
  Fe  Fe35  1  0.16825614  0.83355218  0.83244704  1
  Fe  Fe36  1  0.50323140  0.16586647  0.49977613  1
  Fe  Fe37  1  0.33345818  0.99580412  0.66362825  1
  Fe  Fe38  1  0.50008697  0.16497839  0.83319445  1
  Fe  Fe39  1  0.50090137  0.50099096  0.49853102  1
  Cr  Cr40  1  0.33483296  0.32987116  0.66316325  1
  Fe  Fe41  1  0.49944935  0.49751874  0.83199010  1
  Fe  Fe42  1  0.50072357  0.83181905  0.49974872  1
  Fe  Fe43  1  0.33357953  0.66607252  0.66588423  1
  Fe  Fe44  1  0.49833382  0.83520287  0.83209611  1
  Fe  Fe45  1  0.83297119  0.16634064  0.50002089  1
  Fe  Fe46  1  0.66536550  0.99952269  0.66507484  1
  Cr  Cr47  1  0.83354211  0.16892804  0.83239657  1
  Fe  Fe48  1  0.83239118  0.49950556  0.49757881  1
  Fe  Fe49  1  0.66831248  0.33506589  0.66439510  1
  Fe  Fe50  1  0.83275043  0.49836729  0.83218995  1
  Fe  Fe51  1  0.83184613  0.83335641  0.49927827  1
  Fe  Fe52  1  0.66333031  0.66616809  0.66700349  1
  Fe  Fe53  1  0.83237982  0.83692366  0.83154133  1
" 