785,Fe18Cr82_11,-221.478602766413, 134.68086752475,Fe18Cr82,"# generated using pymatgen
 data_CrFe5
_symmetry_space_group_name_H-M   'P 1'
_cell_length_a   7.47023734
_cell_length_b   7.47023734
_cell_length_c   10.56451096
_cell_angle_alpha   90.00000000
_cell_angle_beta   90.00000000
_cell_angle_gamma   90.00000000
_symmetry_Int_Tables_number   1
_chemical_formula_structural   CrFe5
_chemical_formula_sum   'Cr9 Fe45'
_cell_volume   589.54668043
_cell_formula_units_Z   9
loop_
 _symmetry_equiv_pos_site_id
 _symmetry_equiv_pos_as_xyz
  1  'x, y, z'
loop_
 _atom_site_type_symbol
 _atom_site_label
 _atom_site_symmetry_multiplicity
 _atom_site_fract_x
 _atom_site_fract_y
 _atom_site_fract_z
 _atom_site_occupancy
  Fe  Fe0  1  0.99963290  0.00069987  -0.00019630  1
  Fe  Fe1  1  0.16698687  0.16483580  0.16591858  1
  Fe  Fe2  1  0.00017496  0.99908102  0.33256248  1
  Fe  Fe3  1  0.99907647  0.33166675  0.99941457  1
  Cr  Cr4  1  0.16736676  0.50031143  0.16613652  1
  Cr  Cr5  1  0.99961077  0.33162786  0.33416287  1
  Cr  Cr6  1  0.99891341  0.66707778  0.99916585  1
  Fe  Fe7  1  0.16697721  0.83471007  0.16700872  1
  Fe  Fe8  1  0.00083209  0.66752543  0.33295385  1
  Fe  Fe9  1  0.33256480  -0.00001034  0.00034312  1
  Fe  Fe10  1  0.49965231  0.16662198  0.16662190  1
  Fe  Fe11  1  0.33257192  0.99923625  0.33258753  1
  Fe  Fe12  1  0.33366559  0.33291480  0.99924689  1
  Fe  Fe13  1  0.49978889  0.49870540  0.16645630  1
  Fe  Fe14  1  0.33437129  0.33328323  0.33312750  1
  Fe  Fe15  1  0.33314962  0.66645714  0.99978397  1
  Fe  Fe16  1  0.49855300  0.83402999  0.16630514  1
  Fe  Fe17  1  0.33244502  0.66684311  0.33367510  1
  Fe  Fe18  1  0.66716147  0.00120940  0.00032842  1
  Fe  Fe19  1  0.83271963  0.16606774  0.16593285  1
  Fe  Fe20  1  0.66661669  0.00100560  0.33204561  1
  Fe  Fe21  1  0.66661899  0.33224786  -0.00019818  1
  Fe  Fe22  1  0.83204398  0.49871264  0.16647744  1
  Fe  Fe23  1  0.66592808  0.33261965  0.33258601  1
  Cr  Cr24  1  0.66614688  0.66573155  0.00050834  1
  Fe  Fe25  1  0.83382551  0.83457522  0.16716446  1
  Cr  Cr26  1  0.66560704  0.66563277  0.33207527  1
  Fe  Fe27  1  0.16576076  0.16575779  0.50031049  1
  Fe  Fe28  1  0.00016128  0.00015848  0.66699400  1
  Fe  Fe29  1  0.16661894  0.16629854  0.83313406  1
  Fe  Fe30  1  0.16699282  0.50035770  0.50015610  1
  Fe  Fe31  1  0.99960122  0.33328828  0.66627007  1
  Fe  Fe32  1  0.16716123  0.49944769  0.83274575  1
  Fe  Fe33  1  0.16770349  0.83324130  0.49977171  1
  Fe  Fe34  1  0.00138010  0.66591500  0.66715986  1
  Fe  Fe35  1  0.16589837  0.83361345  0.83257700  1
  Cr  Cr36  1  0.50073846  0.16635636  0.50010908  1
  Fe  Fe37  1  0.33220986  0.99961024  0.66642747  1
  Fe  Fe38  1  0.49982031  0.16753936  0.83295127  1
  Fe  Fe39  1  0.49885969  0.49994140  0.49976764  1
  Fe  Fe40  1  0.33275807  0.33382361  0.66698389  1
  Fe  Fe41  1  0.49869276  0.49763184  0.83313557  1
  Fe  Fe42  1  0.49763180  0.83312667  0.49994884  1
  Fe  Fe43  1  0.33152544  0.66592840  0.66589808  1
  Cr  Cr44  1  0.49929107  0.83468210  0.83237283  1
  Fe  Fe45  1  0.83361742  0.16699736  0.50032538  1
  Fe  Fe46  1  0.66699119  0.00138703  0.66698521  1
  Fe  Fe47  1  0.83292048  0.16627231  0.83310455  1
  Fe  Fe48  1  0.83350232  0.49800308  0.50030443  1
  Fe  Fe49  1  0.66700193  0.33259963  0.66697223  1
  Fe  Fe50  1  0.83350559  0.49834370  0.83257945  1
  Cr  Cr51  1  0.83425835  0.83445745  0.50010508  1
  Cr  Cr52  1  0.66612931  0.66553162  0.66677494  1
  Fe  Fe53  1  0.83473677  0.83474082  0.83241141  1
" 