3239,Fe18Cr82_18,-221.403694769705, 132.111844703474,Fe18Cr82,"# generated using pymatgen
 data_CrFe5
_symmetry_space_group_name_H-M   'P 1'
_cell_length_a   7.46992634
_cell_length_b   7.46992634
_cell_length_c   10.56407114
_cell_angle_alpha   90.00000000
_cell_angle_beta   90.00000000
_cell_angle_gamma   90.00000000
_symmetry_Int_Tables_number   1
_chemical_formula_structural   CrFe5
_chemical_formula_sum   'Cr9 Fe45'
_cell_volume   589.47305127
_cell_formula_units_Z   9
loop_
 _symmetry_equiv_pos_site_id
 _symmetry_equiv_pos_as_xyz
  1  'x, y, z'
loop_
 _atom_site_type_symbol
 _atom_site_label
 _atom_site_symmetry_multiplicity
 _atom_site_fract_x
 _atom_site_fract_y
 _atom_site_fract_z
 _atom_site_occupancy
  Fe  Fe0  1  0.99893810  -0.00005685  0.99728519  1
  Fe  Fe1  1  0.16599327  0.16456006  0.16634903  1
  Fe  Fe2  1  0.99925995  0.00025178  0.33545513  1
  Cr  Cr3  1  0.99967873  0.33369958  0.00104172  1
  Fe  Fe4  1  0.16736741  0.50147819  0.16556040  1
  Cr  Cr5  1  0.99783600  0.33429799  0.33213087  1
  Fe  Fe6  1  0.00022182  0.66694800  0.99747968  1
  Cr  Cr7  1  0.16528460  0.83170212  0.16857388  1
  Fe  Fe8  1  0.00098793  0.66606116  0.33551068  1
  Cr  Cr9  1  0.33374772  0.00064802  0.99783638  1
  Fe  Fe10  1  0.50188530  0.16687483  0.16601603  1
  Fe  Fe11  1  0.33338943  0.99934388  0.33578290  1
  Fe  Fe12  1  0.33455582  0.33453285  -0.00011925  1
  Fe  Fe13  1  0.50020274  0.49930406  0.16501586  1
  Cr  Cr14  1  0.33234675  0.33134297  0.33137857  1
  Fe  Fe15  1  0.33274132  0.66380235  0.99795169  1
  Cr  Cr16  1  0.49946437  0.83301877  0.16718501  1
  Fe  Fe17  1  0.33209686  0.66509503  0.33566329  1
  Fe  Fe18  1  0.66818818  0.00169517  0.99748712  1
  Fe  Fe19  1  0.83111191  0.16607401  0.16636038  1
  Fe  Fe20  1  0.66679733  0.00308331  0.33496388  1
  Fe  Fe21  1  0.66489112  0.33288020  0.99927556  1
  Fe  Fe22  1  0.83161625  0.50063412  0.16537374  1
  Fe  Fe23  1  0.66592755  0.33217810  0.33350556  1
  Fe  Fe24  1  0.66652443  0.66485949  0.99811555  1
  Cr  Cr25  1  0.83496890  0.83475388  0.16513457  1
  Cr  Cr26  1  0.66744569  0.66565954  0.33525465  1
  Fe  Fe27  1  0.16524050  0.16635230  0.50097063  1
  Fe  Fe28  1  0.99858098  0.99950641  0.66676171  1
  Fe  Fe29  1  0.16565851  0.16805326  0.83176189  1
  Fe  Fe30  1  0.16638505  0.50043845  0.50182084  1
  Fe  Fe31  1  0.00003251  0.33281703  0.66660051  1
  Fe  Fe32  1  0.16702868  0.49995277  0.83178546  1
  Fe  Fe33  1  0.16562824  0.83237741  0.49930121  1
  Fe  Fe34  1  0.00002995  0.66718121  0.66659999  1
  Fe  Fe35  1  0.16506078  0.83151180  0.83277434  1
  Fe  Fe36  1  0.50140469  0.16712109  0.50031607  1
  Cr  Cr37  1  0.33383361  0.99957075  0.66638501  1
  Fe  Fe38  1  0.50144007  0.16861076  0.83238608  1
  Fe  Fe39  1  0.49955619  0.49896780  0.50162674  1
  Fe  Fe40  1  0.33316281  0.33435720  0.66616469  1
  Fe  Fe41  1  0.50001220  0.49952965  0.83244796  1
  Fe  Fe42  1  0.50004874  0.83313818  0.49973866  1
  Fe  Fe43  1  0.33332102  0.66533430  0.66656642  1
  Fe  Fe44  1  0.50173693  0.83122601  0.83324337  1
  Fe  Fe45  1  0.83247860  0.16635184  0.50135510  1
  Fe  Fe46  1  0.66808949  0.99939420  0.66667818  1
  Fe  Fe47  1  0.83259237  0.16661760  0.83187095  1
  Fe  Fe48  1  0.83322870  0.49923108  0.50264388  1
  Fe  Fe49  1  0.66615292  0.33282522  0.66655453  1
  Fe  Fe50  1  0.83233398  0.50011419  0.83172986  1
  Fe  Fe51  1  0.83409149  0.83418587  0.50090198  1
  Fe  Fe52  1  0.66606561  0.66724430  0.66594731  1
  Fe  Fe53  1  0.83293076  0.83286153  0.83309341  1
" 