5260,Fe18Cr82_0,-221.445007480701, 133.397930979956,Fe18Cr82,"# generated using pymatgen
 data_CrFe5
_symmetry_space_group_name_H-M   'P 1'
_cell_length_a   7.47033232
_cell_length_b   7.47033232
_cell_length_c   10.56464528
_cell_angle_alpha   90.00000000
_cell_angle_beta   90.00000000
_cell_angle_gamma   90.00000000
_symmetry_Int_Tables_number   1
_chemical_formula_structural   CrFe5
_chemical_formula_sum   'Cr9 Fe45'
_cell_volume   589.56916849
_cell_formula_units_Z   9
loop_
 _symmetry_equiv_pos_site_id
 _symmetry_equiv_pos_as_xyz
  1  'x, y, z'
loop_
 _atom_site_type_symbol
 _atom_site_label
 _atom_site_symmetry_multiplicity
 _atom_site_fract_x
 _atom_site_fract_y
 _atom_site_fract_z
 _atom_site_occupancy
  Fe  Fe0  1  -0.00018684  0.00045967  0.99944703  1
  Fe  Fe1  1  0.16519745  0.16419222  0.16788947  1
  Fe  Fe2  1  -0.00013458  0.99890841  0.33165298  1
  Fe  Fe3  1  0.99970482  0.33071460  0.99686120  1
  Cr  Cr4  1  0.16645183  0.49918177  0.16462388  1
  Fe  Fe5  1  0.99869216  0.33299350  0.33368134  1
  Fe  Fe6  1  -0.00008551  0.66914144  0.99765152  1
  Fe  Fe7  1  0.16568928  0.83383160  0.16599187  1
  Fe  Fe8  1  0.00111804  0.66737155  0.33359789  1
  Fe  Fe9  1  0.33376249  0.99816033  0.00020833  1
  Fe  Fe10  1  0.49970744  0.16509606  0.16843250  1
  Fe  Fe11  1  0.33399721  0.99753890  0.33155314  1
  Cr  Cr12  1  0.33225315  0.33099626  0.99976195  1
  Fe  Fe13  1  0.49975364  0.50176327  0.16709548  1
  Fe  Fe14  1  0.33461742  0.33404149  0.33206415  1
  Fe  Fe15  1  0.33370720  0.66965287  -0.00013636  1
  Fe  Fe16  1  0.49995580  0.83211872  0.16643023  1
  Fe  Fe17  1  0.33366184  0.66733897  0.33341128  1
  Fe  Fe18  1  0.66578505  0.99821857  0.00021434  1
  Fe  Fe19  1  0.83461350  0.16525246  0.16725262  1
  Fe  Fe20  1  0.66582741  0.99967479  0.33198332  1
  Cr  Cr21  1  0.66716617  0.33146921  -0.00003326  1
  Cr  Cr22  1  0.83300290  0.50248245  0.16470293  1
  Fe  Fe23  1  0.66604980  0.33313086  0.33246408  1
  Fe  Fe24  1  0.66573648  0.67015238  0.99963198  1
  Fe  Fe25  1  0.83369878  0.83505637  0.16667831  1
  Fe  Fe26  1  0.66466419  0.66695904  0.33319760  1
  Cr  Cr27  1  0.16701758  0.16508195  0.49826068  1
  Fe  Fe28  1  0.00030419  0.99812892  0.66805412  1
  Fe  Fe29  1  0.16712106  0.16412775  0.83258212  1
  Fe  Fe30  1  0.16702037  0.50152499  0.49853124  1
  Cr  Cr31  1  0.99833070  0.33408247  0.66792266  1
  Fe  Fe32  1  0.16515010  0.50215652  0.83425872  1
  Fe  Fe33  1  0.16860834  0.83210490  0.49965098  1
  Fe  Fe34  1  0.00084436  0.66755197  0.66714098  1
  Fe  Fe35  1  0.16706671  0.83278432  0.83353845  1
  Cr  Cr36  1  0.49993512  0.16678371  0.50284908  1
  Fe  Fe37  1  0.33196971  0.99743191  0.66827634  1
  Fe  Fe38  1  0.49969106  0.16333383  0.83087507  1
  Fe  Fe39  1  0.49966122  0.50151356  0.50058527  1
  Fe  Fe40  1  0.33239752  0.33448447  0.66807623  1
  Cr  Cr41  1  0.49957362  0.50084497  0.83302777  1
  Fe  Fe42  1  0.49818389  0.83259703  0.50040733  1
  Fe  Fe43  1  0.33169526  0.66689070  0.66585243  1
  Fe  Fe44  1  0.49982469  0.83467264  0.83261167  1
  Fe  Fe45  1  0.83251687  0.16668871  0.49892354  1
  Fe  Fe46  1  0.66773170  0.99922571  0.66815888  1
  Fe  Fe47  1  0.83235532  0.16399001  0.83315222  1
  Fe  Fe48  1  0.83193237  0.49830486  0.49827421  1
  Fe  Fe49  1  0.66677523  0.33370397  0.66769769  1
  Fe  Fe50  1  0.83426189  0.50239532  0.83432903  1
  Cr  Cr51  1  0.83395432  0.83300272  0.49968661  1
  Fe  Fe52  1  0.66720402  0.66607226  0.66627529  1
  Fe  Fe53  1  0.83259376  0.83275013  0.83281962  1
" 