1303,Fe18Cr82_9,-221.441129102123, 133.648864682294,Fe18Cr82,"# generated using pymatgen
 data_CrFe5
_symmetry_space_group_name_H-M   'P 1'
_cell_length_a   7.46915923
_cell_length_b   7.46915923
_cell_length_c   10.56298628
_cell_angle_alpha   90.00000000
_cell_angle_beta   90.00000000
_cell_angle_gamma   90.00000000
_symmetry_Int_Tables_number   1
_chemical_formula_structural   CrFe5
_chemical_formula_sum   'Cr9 Fe45'
_cell_volume   589.29146488
_cell_formula_units_Z   9
loop_
 _symmetry_equiv_pos_site_id
 _symmetry_equiv_pos_as_xyz
  1  'x, y, z'
loop_
 _atom_site_type_symbol
 _atom_site_label
 _atom_site_symmetry_multiplicity
 _atom_site_fract_x
 _atom_site_fract_y
 _atom_site_fract_z
 _atom_site_occupancy
  Fe  Fe0  1  0.00054387  0.00185202  0.99975639  1
  Fe  Fe1  1  0.16528305  0.16503930  0.16687179  1
  Fe  Fe2  1  0.00013167  0.00075625  0.33422575  1
  Fe  Fe3  1  0.99849419  0.33256483  0.00052456  1
  Fe  Fe4  1  0.16622588  0.50011119  0.16822696  1
  Fe  Fe5  1  0.00038815  0.33230127  0.33227744  1
  Cr  Cr6  1  0.00153038  0.66773573  0.99935693  1
  Fe  Fe7  1  0.16831234  0.83432570  0.16738042  1
  Fe  Fe8  1  0.00148939  0.66659588  0.33272262  1
  Fe  Fe9  1  0.33300197  0.99737859  0.00018902  1
  Fe  Fe10  1  0.50033519  0.16359067  0.16617736  1
  Fe  Fe11  1  0.33382152  -0.00008525  0.33317462  1
  Cr  Cr12  1  0.33428952  0.33279177  -0.00010567  1
  Fe  Fe13  1  0.49962870  0.50161678  0.16624534  1
  Fe  Fe14  1  0.33204085  0.33149164  0.33095718  1
  Fe  Fe15  1  0.33476031  0.66799459  0.99975298  1
  Fe  Fe16  1  0.49781368  0.83392985  0.16596746  1
  Fe  Fe17  1  0.33205988  0.66801888  0.33172022  1
  Fe  Fe18  1  0.66537152  0.00084120  0.99879957  1
  Fe  Fe19  1  0.83421696  0.16717513  0.16529845  1
  Fe  Fe20  1  0.66549566  0.00027800  0.33445386  1
  Fe  Fe21  1  0.66870972  0.33351227  0.99977831  1
  Fe  Fe22  1  0.83423953  0.49854494  0.16537675  1
  Cr  Cr23  1  0.66638528  0.33196376  0.33252989  1
  Fe  Fe24  1  0.66420137  0.66547717  0.99929496  1
  Cr  Cr25  1  0.83182803  0.83519347  0.16630007  1
  Cr  Cr26  1  0.66749378  0.66646526  0.33443475  1
  Fe  Fe27  1  0.16701382  0.16470592  0.50033001  1
  Fe  Fe28  1  0.99841303  0.99902946  0.66550164  1
  Cr  Cr29  1  0.16538926  0.16660252  0.83211970  1
  Cr  Cr30  1  0.16691354  0.49834728  0.50055343  1
  Fe  Fe31  1  0.99907167  0.33303225  0.66652094  1
  Fe  Fe32  1  0.16691284  0.50124693  0.83114187  1
  Fe  Fe33  1  0.16696684  0.83394314  0.49995017  1
  Fe  Fe34  1  0.99869052  0.66739700  0.66782796  1
  Fe  Fe35  1  0.16762061  0.83313151  0.83197544  1
  Fe  Fe36  1  0.49777880  0.16422715  0.49987071  1
  Fe  Fe37  1  0.33435551  0.99928786  0.66585642  1
  Fe  Fe38  1  0.50102844  0.16419644  0.83343881  1
  Cr  Cr39  1  0.49789337  0.50037185  0.50064230  1
  Fe  Fe40  1  0.33269851  0.33200568  0.66792892  1
  Fe  Fe41  1  0.49951602  0.50150453  0.83268219  1
  Fe  Fe42  1  0.49852682  0.83527106  0.50070689  1
  Fe  Fe43  1  0.33324946  0.66840242  0.66835855  1
  Fe  Fe44  1  0.49961107  0.83378734  0.83321571  1
  Fe  Fe45  1  0.83497197  0.16559643  0.49992451  1
  Fe  Fe46  1  0.66664959  0.99806288  0.66639605  1
  Fe  Fe47  1  0.83205622  0.16530268  0.83419688  1
  Fe  Fe48  1  0.83482609  0.50022017  0.50090426  1
  Cr  Cr49  1  0.66608304  0.33222037  0.66680895  1
  Fe  Fe50  1  0.83356849  0.49954116  0.83326074  1
  Fe  Fe51  1  0.83443212  0.83359430  0.50052993  1
  Fe  Fe52  1  0.66746774  0.66908852  0.66708154  1
  Fe  Fe53  1  0.83256900  0.83478903  0.83295430  1
" 