7729,Fe18Cr82_5,-221.459745686424, 129.537357004217,Fe18Cr82,"# generated using pymatgen
 data_CrFe5
_symmetry_space_group_name_H-M   'P 1'
_cell_length_a   7.47758033
_cell_length_b   7.47758033
_cell_length_c   10.57489551
_cell_angle_alpha   90.00000000
_cell_angle_beta   90.00000000
_cell_angle_gamma   90.00000000
_symmetry_Int_Tables_number   1
_chemical_formula_structural   CrFe5
_chemical_formula_sum   'Cr9 Fe45'
_cell_volume   591.28690233
_cell_formula_units_Z   9
loop_
 _symmetry_equiv_pos_site_id
 _symmetry_equiv_pos_as_xyz
  1  'x, y, z'
loop_
 _atom_site_type_symbol
 _atom_site_label
 _atom_site_symmetry_multiplicity
 _atom_site_fract_x
 _atom_site_fract_y
 _atom_site_fract_z
 _atom_site_occupancy
  Fe  Fe0  1  -0.00051176  -0.00017580  0.99893433  1
  Fe  Fe1  1  0.16633024  0.16633236  0.16544005  1
  Cr  Cr2  1  0.00090425  0.00067611  0.33334895  1
  Fe  Fe3  1  0.00015967  0.33279631  0.99929476  1
  Fe  Fe4  1  0.16579352  0.49946369  0.16593444  1
  Fe  Fe5  1  0.99925501  0.33365993  0.33263025  1
  Fe  Fe6  1  0.00070884  0.66526945  0.99874341  1
  Fe  Fe7  1  0.16752777  0.83209567  0.16543085  1
  Fe  Fe8  1  -0.00019578  0.66441026  0.33316763  1
  Fe  Fe9  1  0.33296526  0.99926969  0.99929530  1
  Fe  Fe10  1  0.49895174  0.16526733  0.16664195  1
  Fe  Fe11  1  0.33315665  0.99874659  0.33210932  1
  Fe  Fe12  1  0.33122214  0.33226663  -0.00019080  1
  Fe  Fe13  1  0.49840823  0.49944764  0.16686770  1
  Fe  Fe14  1  0.33196555  0.33299400  0.33212179  1
  Fe  Fe15  1  0.33120671  0.66634862  -0.00033431  1
  Fe  Fe16  1  0.49774055  0.83316901  0.16648912  1
  Fe  Fe17  1  0.33250182  0.66614512  0.33279710  1
  Fe  Fe18  1  0.66543562  -0.00017707  0.99874283  1
  Fe  Fe19  1  0.83261351  0.16699684  0.16597663  1
  Fe  Fe20  1  0.66493029  -0.00070267  0.33263175  1
  Cr  Cr21  1  0.66702876  0.33181953  0.00016097  1
  Fe  Fe22  1  0.83368400  0.49825251  0.16701637  1
  Fe  Fe23  1  0.66666330  0.33300617  0.33209626  1
  Cr  Cr24  1  0.66521342  0.66580628  0.99834615  1
  Cr  Cr25  1  0.83286549  0.83263765  0.16554279  1
  Fe  Fe26  1  0.66557947  0.66558069  0.33318014  1
  Fe  Fe27  1  0.16545176  0.16650274  0.49984857  1
  Fe  Fe28  1  0.99912940  0.99914259  0.66578240  1
  Fe  Fe29  1  0.16615409  0.16615737  0.83260178  1
  Fe  Fe30  1  0.16560025  0.49860198  0.49879829  1
  Fe  Fe31  1  0.00034864  0.33294963  0.66596163  1
  Fe  Fe32  1  0.16435547  0.49877400  0.83315121  1
  Fe  Fe33  1  0.16611020  0.83278802  0.49928988  1
  Fe  Fe34  1  0.99912721  0.66579431  0.66597421  1
  Fe  Fe35  1  0.16558732  0.83296007  0.83316838  1
  Cr  Cr36  1  0.49834280  0.16566478  0.49986313  1
  Fe  Fe37  1  0.33243606  -0.00017510  0.66648812  1
  Fe  Fe38  1  0.49826147  0.16383095  0.83245551  1
  Fe  Fe39  1  0.49876460  0.49980902  0.49787432  1
  Fe  Fe40  1  0.33068378  0.33173004  0.66595929  1
  Cr  Cr41  1  0.49706583  0.49789725  0.83249831  1
  Fe  Fe42  1  0.49932030  0.83264403  0.49823636  1
  Cr  Cr43  1  0.33201560  0.66683487  0.66532488  1
  Fe  Fe44  1  0.49880209  0.83529368  0.83314835  1
  Fe  Fe45  1  0.83365957  0.16594351  0.49928879  1
  Fe  Fe46  1  0.66631759  0.99861130  0.66651329  1
  Fe  Fe47  1  0.83348033  0.16505404  0.83263498  1
  Fe  Fe48  1  0.83352509  0.49915461  0.49823513  1
  Cr  Cr49  1  0.66712853  0.33253356  0.66647404  1
  Fe  Fe50  1  0.83580902  0.49931837  0.83263507  1
  Fe  Fe51  1  0.83245974  0.83279417  0.49914115  1
  Cr  Cr52  1  0.66642963  0.66644279  0.66542453  1
  Fe  Fe53  1  0.83349786  0.83351343  0.83278120  1
" 