1156,Fe18Cr82_3,-221.605617732523, 138.277977854113,Fe18Cr82,"# generated using pymatgen
 data_CrFe5
_symmetry_space_group_name_H-M   'P 1'
_cell_length_a   7.46538502
_cell_length_b   7.46538502
_cell_length_c   10.55764874
_cell_angle_alpha   90.00000000
_cell_angle_beta   90.00000000
_cell_angle_gamma   90.00000000
_symmetry_Int_Tables_number   1
_chemical_formula_structural   CrFe5
_chemical_formula_sum   'Cr9 Fe45'
_cell_volume   588.39859899
_cell_formula_units_Z   9
loop_
 _symmetry_equiv_pos_site_id
 _symmetry_equiv_pos_as_xyz
  1  'x, y, z'
loop_
 _atom_site_type_symbol
 _atom_site_label
 _atom_site_symmetry_multiplicity
 _atom_site_fract_x
 _atom_site_fract_y
 _atom_site_fract_z
 _atom_site_occupancy
  Fe  Fe0  1  0.99843261  0.00140417  0.99947085  1
  Fe  Fe1  1  0.16507557  0.16640178  0.16665799  1
  Fe  Fe2  1  0.00031100  0.99824466  0.33401055  1
  Fe  Fe3  1  0.00104784  0.33114797  0.00131267  1
  Fe  Fe4  1  0.16768180  0.49784156  0.16603612  1
  Cr  Cr5  1  0.99879517  0.33333722  0.33400017  1
  Cr  Cr6  1  0.00093663  0.66723108  0.00137093  1
  Fe  Fe7  1  0.16562863  0.83555699  0.16767781  1
  Fe  Fe8  1  0.99857985  0.66772357  0.33277367  1
  Cr  Cr9  1  0.33329053  0.99823021  0.99938084  1
  Cr  Cr10  1  0.49953668  0.16666034  0.16968602  1
  Fe  Fe11  1  0.33054255  0.00159135  0.33375359  1
  Fe  Fe12  1  0.33254880  0.33534864  0.00017768  1
  Fe  Fe13  1  0.50163027  0.50026912  0.16551621  1
  Fe  Fe14  1  0.33332122  0.33354601  0.33518085  1
  Fe  Fe15  1  0.33527197  0.66488033  0.00076893  1
  Fe  Fe16  1  0.50258182  0.83266982  0.16696765  1
  Cr  Cr17  1  0.33415414  0.66637426  0.33093363  1
  Fe  Fe18  1  0.66890754  0.99881412  0.00035224  1
  Fe  Fe19  1  0.83398963  0.16570255  0.16603469  1
  Fe  Fe20  1  0.66940540  1.00001103  0.33395304  1
  Fe  Fe21  1  0.66698988  0.33372483  0.00072592  1
  Fe  Fe22  1  0.83116256  0.49953565  0.16632320  1
  Fe  Fe23  1  0.66579867  0.33551232  0.33500835  1
  Fe  Fe24  1  0.66468127  0.66775271  0.00055107  1
  Fe  Fe25  1  0.83226703  0.83485076  0.16786545  1
  Fe  Fe26  1  0.66933118  0.66554492  0.33308882  1
  Fe  Fe27  1  0.16871833  0.16595400  0.50029525  1
  Cr  Cr28  1  0.99936989  0.00083837  0.66830450  1
  Fe  Fe29  1  0.16507527  0.16972917  0.83380414  1
  Fe  Fe30  1  0.16729644  0.50113283  0.50109967  1
  Fe  Fe31  1  0.00112899  0.33405321  0.66469770  1
  Fe  Fe32  1  0.16952784  0.49906868  0.83266734  1
  Fe  Fe33  1  0.16532873  0.83300093  0.49984960  1
  Fe  Fe34  1  0.00120566  0.66641810  0.66603887  1
  Fe  Fe35  1  0.16752351  0.83148490  0.83254094  1
  Fe  Fe36  1  0.50001382  0.16906204  0.50004869  1
  Fe  Fe37  1  0.33251231  1.00005135  0.66721715  1
  Cr  Cr38  1  0.50038978  0.16630607  0.83151712  1
  Fe  Fe39  1  0.50044532  0.49944555  0.50076235  1
  Fe  Fe40  1  0.33209662  0.33399004  0.66552971  1
  Fe  Fe41  1  0.49921141  0.50118006  0.83308851  1
  Cr  Cr42  1  0.49971024  0.83597442  0.50003701  1
  Fe  Fe43  1  0.33247104  0.66641806  0.66697287  1
  Fe  Fe44  1  0.50134476  0.83020671  0.83184589  1
  Fe  Fe45  1  0.83127817  0.16593553  0.50017470  1
  Fe  Fe46  1  0.66744001  1.00010567  0.66652491  1
  Fe  Fe47  1  0.83384927  0.16686053  0.83474709  1
  Fe  Fe48  1  0.83247435  0.50163622  0.50149849  1
  Fe  Fe49  1  0.66751742  0.33310320  0.66471701  1
  Cr  Cr50  1  0.83530047  0.49979482  0.83255827  1
  Fe  Fe51  1  0.83460492  0.83256340  0.49950470  1
  Fe  Fe52  1  0.66708119  0.66732222  0.66645966  1
  Fe  Fe53  1  0.83119706  0.83446904  0.83393203  1
" 