8404,Fe18Cr82_16,-221.519386020085, 131.530053799817,Fe18Cr82,"# generated using pymatgen
 data_CrFe5
_symmetry_space_group_name_H-M   'P 1'
_cell_length_a   7.47357872
_cell_length_b   7.47357872
_cell_length_c   10.56923638
_cell_angle_alpha   90.00000000
_cell_angle_beta   90.00000000
_cell_angle_gamma   90.00000000
_symmetry_Int_Tables_number   1
_chemical_formula_structural   CrFe5
_chemical_formula_sum   'Cr9 Fe45'
_cell_volume   590.33813275
_cell_formula_units_Z   9
loop_
 _symmetry_equiv_pos_site_id
 _symmetry_equiv_pos_as_xyz
  1  'x, y, z'
loop_
 _atom_site_type_symbol
 _atom_site_label
 _atom_site_symmetry_multiplicity
 _atom_site_fract_x
 _atom_site_fract_y
 _atom_site_fract_z
 _atom_site_occupancy
  Fe  Fe0  1  0.00071024  0.00172794  0.99870297  1
  Fe  Fe1  1  0.16744076  0.16413201  0.16635817  1
  Fe  Fe2  1  0.00009719  0.00125130  0.33404148  1
  Fe  Fe3  1  -0.00028443  0.33139005  0.99841590  1
  Cr  Cr4  1  0.16709738  0.49839268  0.16878869  1
  Fe  Fe5  1  0.00075389  0.33230689  0.33502139  1
  Cr  Cr6  1  0.99793377  0.66638400  -0.00033520  1
  Fe  Fe7  1  0.16725689  0.83649963  0.16820360  1
  Fe  Fe8  1  0.99791449  0.66484428  0.33370043  1
  Fe  Fe9  1  0.33352084  0.00210670  0.00027928  1
  Fe  Fe10  1  0.49722272  0.16547442  0.16550561  1
  Fe  Fe11  1  0.33424465  0.00093418  0.33235351  1
  Fe  Fe12  1  0.33400352  0.33058206  0.99945944  1
  Fe  Fe13  1  0.50236623  0.49936202  0.16632535  1
  Fe  Fe14  1  0.33257696  0.33148196  0.33431441  1
  Cr  Cr15  1  0.33473976  0.66785737  0.00038431  1
  Fe  Fe16  1  0.49898155  0.83430056  0.16757032  1
  Fe  Fe17  1  0.33570497  0.66603015  0.33275495  1
  Fe  Fe18  1  0.66423347  0.99867113  0.99766127  1
  Cr  Cr19  1  0.83178358  0.16620371  0.16544457  1
  Fe  Fe20  1  0.66420648  0.99844149  0.33495561  1
  Fe  Fe21  1  0.66512399  0.33453177  0.99876341  1
  Fe  Fe22  1  0.83113089  0.49941448  0.16635718  1
  Cr  Cr23  1  0.66593340  0.33283004  0.33416004  1
  Fe  Fe24  1  0.66549109  0.66551247  0.99865405  1
  Cr  Cr25  1  0.83137803  0.83388364  0.16779488  1
  Fe  Fe26  1  0.66503824  0.66691907  0.33417291  1
  Fe  Fe27  1  0.16639366  0.16748996  0.49972484  1
  Fe  Fe28  1  0.99775703  0.00136827  0.66594862  1
  Fe  Fe29  1  0.16638653  0.16620338  0.83264217  1
  Fe  Fe30  1  0.16641913  0.49755228  0.49976326  1
  Fe  Fe31  1  0.99812052  0.33145058  0.66485593  1
  Cr  Cr32  1  0.16764702  0.49802919  0.82908727  1
  Cr  Cr33  1  0.16643717  0.83109155  0.49924517  1
  Fe  Fe34  1  0.99640759  0.66566615  0.66547735  1
  Cr  Cr35  1  0.16639462  0.83388310  0.83190638  1
  Fe  Fe36  1  0.49839908  0.16495654  0.50052856  1
  Fe  Fe37  1  0.33462210  0.00133518  0.66595072  1
  Fe  Fe38  1  0.49896432  0.16634728  0.83273988  1
  Fe  Fe39  1  0.49823835  0.50082240  0.50058436  1
  Fe  Fe40  1  0.33441878  0.33134227  0.66473543  1
  Fe  Fe41  1  0.50196101  0.49887609  0.83186578  1
  Fe  Fe42  1  0.50119420  0.83294147  0.49971276  1
  Fe  Fe43  1  0.33609634  0.66580273  0.66534900  1
  Fe  Fe44  1  0.50188902  0.83362291  0.83164142  1
  Fe  Fe45  1  0.83392002  0.16490248  0.50013570  1
  Fe  Fe46  1  0.66628102  -0.00021572  0.66615727  1
  Fe  Fe47  1  0.83331386  0.16630434  0.83319617  1
  Fe  Fe48  1  0.83405493  0.50084678  0.50054680  1
  Fe  Fe49  1  0.66625483  0.33265166  0.66562757  1
  Fe  Fe50  1  0.83061911  0.49873155  0.83178410  1
  Fe  Fe51  1  0.83104538  0.83297090  0.49923873  1
  Fe  Fe52  1  0.66625989  0.66625709  0.66610779  1
  Fe  Fe53  1  0.83030883  0.83370848  0.83204332  1
" 