390,Fe18Cr82_4,-221.385790249634, 132.330525302578,Fe18Cr82,"# generated using pymatgen
 data_CrFe5
_symmetry_space_group_name_H-M   'P 1'
_cell_length_a   7.47259958
_cell_length_b   7.47259958
_cell_length_c   10.56785167
_cell_angle_alpha   90.00000000
_cell_angle_beta   90.00000000
_cell_angle_gamma   90.00000000
_symmetry_Int_Tables_number   1
_chemical_formula_structural   CrFe5
_chemical_formula_sum   'Cr9 Fe45'
_cell_volume   590.10613684
_cell_formula_units_Z   9
loop_
 _symmetry_equiv_pos_site_id
 _symmetry_equiv_pos_as_xyz
  1  'x, y, z'
loop_
 _atom_site_type_symbol
 _atom_site_label
 _atom_site_symmetry_multiplicity
 _atom_site_fract_x
 _atom_site_fract_y
 _atom_site_fract_z
 _atom_site_occupancy
  Fe  Fe0  1  0.99804474  0.99802702  -0.00033704  1
  Cr  Cr1  1  0.16601150  0.16589837  0.16603671  1
  Fe  Fe2  1  0.99925028  0.99819598  0.33368142  1
  Fe  Fe3  1  0.99891152  0.33370561  0.99863891  1
  Fe  Fe4  1  0.16577656  0.49960420  0.16440814  1
  Fe  Fe5  1  0.00012379  0.33352005  0.33481172  1
  Fe  Fe6  1  0.00033788  0.66711714  0.99891528  1
  Fe  Fe7  1  0.16410055  0.83213589  0.16463160  1
  Fe  Fe8  1  0.99886341  0.66743915  0.33382991  1
  Fe  Fe9  1  0.33490032  0.99776360  -0.00009492  1
  Fe  Fe10  1  0.50182207  0.16660027  0.16647714  1
  Fe  Fe11  1  0.33227180  0.99929000  0.33195017  1
  Fe  Fe12  1  0.33452063  0.33440217  0.99954753  1
  Fe  Fe13  1  0.49903097  0.49797934  0.16518978  1
  Fe  Fe14  1  0.33227342  0.33301728  0.33217185  1
  Fe  Fe15  1  0.33322898  0.66639059  0.00025998  1
  Fe  Fe16  1  0.50107322  0.83408406  0.16538270  1
  Cr  Cr17  1  0.33198945  0.66576998  0.33016193  1
  Fe  Fe18  1  0.66611816  0.99944611  0.99907054  1
  Fe  Fe19  1  0.83192338  0.16528726  0.16608253  1
  Fe  Fe20  1  0.66730763  0.99928558  0.33180684  1
  Fe  Fe21  1  0.66552829  0.33242988  0.99897974  1
  Cr  Cr22  1  0.83295181  0.50114432  0.16635888  1
  Fe  Fe23  1  0.66666752  0.33218312  0.33208981  1
  Fe  Fe24  1  0.66520825  0.66729642  0.99877070  1
  Fe  Fe25  1  0.83353417  0.83526250  0.16597594  1
  Fe  Fe26  1  0.66779492  0.66778195  0.33215362  1
  Fe  Fe27  1  0.16525359  0.16511431  0.49866479  1
  Fe  Fe28  1  0.00024209  0.99745622  0.66546159  1
  Cr  Cr29  1  0.16647054  0.16458151  0.83310138  1
  Fe  Fe30  1  0.16680622  0.50034126  0.49930511  1
  Cr  Cr31  1  0.99852731  0.33338447  0.66532459  1
  Fe  Fe32  1  0.16670744  0.50132953  0.83375684  1
  Fe  Fe33  1  0.16529202  0.83337159  0.50004161  1
  Fe  Fe34  1  0.99904877  0.66822815  0.66642939  1
  Fe  Fe35  1  0.16615988  0.83086558  0.83332336  1
  Cr  Cr36  1  0.49699693  0.16649192  0.49971277  1
  Fe  Fe37  1  0.33076355  0.99846948  0.66696016  1
  Fe  Fe38  1  0.50016092  0.16732389  0.83393517  1
  Cr  Cr39  1  0.50239275  0.50018954  0.50048098  1
  Fe  Fe40  1  0.33344418  0.33380948  0.66771845  1
  Fe  Fe41  1  0.49920674  0.49958837  0.83274812  1
  Cr  Cr42  1  0.50015741  0.83217994  0.50029949  1
  Fe  Fe43  1  0.33108810  0.66612051  0.66778325  1
  Fe  Fe44  1  0.49809884  0.83219889  0.83349956  1
  Fe  Fe45  1  0.83243455  0.16580202  0.49780102  1
  Cr  Cr46  1  0.66753196  0.00055310  0.66827336  1
  Fe  Fe47  1  0.83249773  0.16682974  0.83509675  1
  Fe  Fe48  1  0.83365294  0.50107820  0.49803812  1
  Fe  Fe49  1  0.66661400  0.33402495  0.66852809  1
  Fe  Fe50  1  0.83279608  0.50024993  0.83446872  1
  Fe  Fe51  1  0.83425859  0.83216190  0.49913505  1
  Fe  Fe52  1  0.66916459  0.66495004  0.66880636  1
  Fe  Fe53  1  0.83460666  0.83218727  0.83429417  1
" 