2013,Fe18Cr82_12,-221.465921174845, 135.888752907779,Fe18Cr82,"# generated using pymatgen
 data_CrFe5
_symmetry_space_group_name_H-M   'P 1'
_cell_length_a   7.46862400
_cell_length_b   7.46862400
_cell_length_c   10.56222935
_cell_angle_alpha   90.00000000
_cell_angle_beta   90.00000000
_cell_angle_gamma   90.00000000
_symmetry_Int_Tables_number   1
_chemical_formula_structural   CrFe5
_chemical_formula_sum   'Cr9 Fe45'
_cell_volume   589.16479049
_cell_formula_units_Z   9
loop_
 _symmetry_equiv_pos_site_id
 _symmetry_equiv_pos_as_xyz
  1  'x, y, z'
loop_
 _atom_site_type_symbol
 _atom_site_label
 _atom_site_symmetry_multiplicity
 _atom_site_fract_x
 _atom_site_fract_y
 _atom_site_fract_z
 _atom_site_occupancy
  Fe  Fe0  1  0.00104477  0.99989107  0.99971586  1
  Fe  Fe1  1  0.16696688  0.16576749  0.16598803  1
  Fe  Fe2  1  0.00163387  0.99931542  0.33404472  1
  Fe  Fe3  1  0.00046854  0.33380539  0.00067021  1
  Fe  Fe4  1  0.16694883  0.50066762  0.16599162  1
  Cr  Cr5  1  0.00069179  0.33223926  0.33267097  1
  Fe  Fe6  1  0.00046645  0.66598699  0.99927188  1
  Fe  Fe7  1  0.16773560  0.83324775  0.16657707  1
  Fe  Fe8  1  0.00088969  0.66793312  0.33324663  1
  Fe  Fe9  1  0.33265429  0.00048401  0.00046673  1
  Fe  Fe10  1  0.49950291  0.16696802  0.16613558  1
  Fe  Fe11  1  0.33127321  0.99946965  0.33265643  1
  Fe  Fe12  1  0.33323090  0.33320884  0.99987991  1
  Fe  Fe13  1  0.50011243  0.50006118  0.16661034  1
  Fe  Fe14  1  0.33399644  0.33365531  0.33265142  1
  Fe  Fe15  1  0.33264053  0.66599183  0.00049705  1
  Fe  Fe16  1  0.49813666  0.83265574  0.16580562  1
  Fe  Fe17  1  0.33324485  0.66656146  0.33324598  1
  Fe  Fe18  1  0.66598425  0.00048044  0.00047140  1
  Fe  Fe19  1  0.83321324  0.16774662  0.16523143  1
  Cr  Cr20  1  0.66723815  0.99964776  0.33389116  1
  Fe  Fe21  1  0.66598357  0.33379085  0.00050502  1
  Fe  Fe22  1  0.83262204  0.49928845  0.16615517  1
  Fe  Fe23  1  0.66540622  0.33439732  0.33204904  1
  Fe  Fe24  1  0.66657655  0.66541387  0.99987561  1
  Cr  Cr25  1  0.83424538  0.83221261  0.16554553  1
  Fe  Fe26  1  0.66554980  0.66521520  0.33325583  1
  Fe  Fe27  1  0.16636241  0.16671966  0.49990137  1
  Cr  Cr28  1  0.00032282  0.99967844  0.66452809  1
  Fe  Fe29  1  0.16852932  0.16694818  0.83378321  1
  Fe  Fe30  1  0.16849132  0.50029889  0.50049805  1
  Fe  Fe31  1  0.00090115  0.33422129  0.66636353  1
  Fe  Fe32  1  0.16652713  0.49989463  0.83319174  1
  Fe  Fe33  1  0.16714322  0.83266240  0.49928054  1
  Fe  Fe34  1  0.00028871  0.66614594  0.66716684  1
  Fe  Fe35  1  0.16577518  0.83283816  0.83381849  1
  Cr  Cr36  1  0.49841074  0.16756364  0.50114407  1
  Fe  Fe37  1  0.33204647  -0.00009926  0.66656892  1
  Fe  Fe38  1  0.49811478  0.16831680  0.83362726  1
  Fe  Fe39  1  0.49874756  0.50108250  0.49989669  1
  Fe  Fe40  1  0.33262819  0.33346491  0.66715780  1
  Fe  Fe41  1  0.50011273  0.49852468  0.83317564  1
  Fe  Fe42  1  0.49889681  0.83068359  0.50006657  1
  Fe  Fe43  1  0.33265703  0.66632002  0.66594132  1
  Cr  Cr44  1  0.49908318  0.83356776  0.83379828  1
  Fe  Fe45  1  0.83441717  0.16657607  0.50003891  1
  Cr  Cr46  1  0.66668215  0.99886448  0.66603439  1
  Cr  Cr47  1  0.83302257  0.16815017  0.83412142  1
  Cr  Cr48  1  0.83269611  0.50045302  0.50066482  1
  Fe  Fe49  1  0.66615003  0.33482867  0.66713977  1
  Fe  Fe50  1  0.83304410  0.50128094  0.83302835  1
  Fe  Fe51  1  0.83364913  0.83280521  0.49912187  1
  Fe  Fe52  1  0.66673441  0.66555955  0.66655184  1
  Fe  Fe53  1  0.83440891  0.83084756  0.83458514  1
" 