2312,Fe18Cr82_13,-221.462493777951, 135.628968133639,Fe18Cr82,"# generated using pymatgen
 data_CrFe5
_symmetry_space_group_name_H-M   'P 1'
_cell_length_a   7.46552628
_cell_length_b   7.46552628
_cell_length_c   10.55784851
_cell_angle_alpha   90.00000000
_cell_angle_beta   90.00000000
_cell_angle_gamma   90.00000000
_symmetry_Int_Tables_number   1
_chemical_formula_structural   CrFe5
_chemical_formula_sum   'Cr9 Fe45'
_cell_volume   588.43200079
_cell_formula_units_Z   9
loop_
 _symmetry_equiv_pos_site_id
 _symmetry_equiv_pos_as_xyz
  1  'x, y, z'
loop_
 _atom_site_type_symbol
 _atom_site_label
 _atom_site_symmetry_multiplicity
 _atom_site_fract_x
 _atom_site_fract_y
 _atom_site_fract_z
 _atom_site_occupancy
  Fe  Fe0  1  0.00081406  0.00098623  0.00133990  1
  Fe  Fe1  1  0.16762883  0.16604762  0.16617390  1
  Cr  Cr2  1  0.99992548  0.99879531  0.33216902  1
  Fe  Fe3  1  0.99823592  0.33153476  0.99988407  1
  Cr  Cr4  1  0.16617211  0.50010221  0.16761688  1
  Fe  Fe5  1  0.99846482  0.33485651  0.33385921  1
  Fe  Fe6  1  0.99746355  0.66779403  0.00067541  1
  Fe  Fe7  1  0.16766074  0.83412990  0.16558003  1
  Fe  Fe8  1  0.99928981  0.66596429  0.33462043  1
  Fe  Fe9  1  0.33274000  0.00098404  0.00108437  1
  Fe  Fe10  1  0.49907407  0.16789661  0.16764965  1
  Fe  Fe11  1  0.33573036  0.99933250  0.33262637  1
  Fe  Fe12  1  0.33539995  0.33151890  0.00021759  1
  Fe  Fe13  1  0.50170614  0.50009142  0.16679554  1
  Fe  Fe14  1  0.33485052  0.33312581  0.33347077  1
  Fe  Fe15  1  0.33616692  0.66781654  0.00098001  1
  Fe  Fe16  1  0.49906731  0.83231573  0.16760053  1
  Fe  Fe17  1  0.33397445  0.66793187  0.33424301  1
  Cr  Cr18  1  0.66624907  1.00009595  0.00060448  1
  Fe  Fe19  1  0.83361552  0.16878085  0.16679507  1
  Fe  Fe20  1  0.66510878  1.00008098  0.33305738  1
  Fe  Fe21  1  0.66668867  0.33499142  0.99979824  1
  Fe  Fe22  1  0.83174540  0.50009556  0.16677288  1
  Fe  Fe23  1  0.66699151  0.33314725  0.33367437  1
  Fe  Fe24  1  0.66668436  0.66521659  0.00012549  1
  Fe  Fe25  1  0.83358451  0.83139486  0.16670809  1
  Fe  Fe26  1  0.66700954  0.66708665  0.33342610  1
  Cr  Cr27  1  0.16789455  0.16778922  0.50168996  1
  Fe  Fe28  1  0.99807383  0.00032604  0.66653696  1
  Fe  Fe29  1  0.16761232  0.16595887  0.83399209  1
  Fe  Fe30  1  0.16856764  0.50168652  0.49828347  1
  Cr  Cr31  1  0.99989550  0.33285958  0.66628789  1
  Cr  Cr32  1  0.16841401  0.49844592  0.83366446  1
  Fe  Fe33  1  0.16860536  0.83216953  0.50016854  1
  Cr  Cr34  1  0.99983203  0.66784320  0.66340558  1
  Cr  Cr35  1  0.16697771  0.83537633  0.83419422  1
  Fe  Fe36  1  0.50105026  0.16588899  0.49925147  1
  Fe  Fe37  1  0.33496769  0.00031681  0.66682206  1
  Fe  Fe38  1  0.49781687  0.16663371  0.83349229  1
  Fe  Fe39  1  0.49908173  0.50058787  0.49924409  1
  Fe  Fe40  1  0.33492096  0.33379801  0.66678143  1
  Fe  Fe41  1  0.50072343  0.50130294  0.83436606  1
  Fe  Fe42  1  0.49991517  0.83377987  0.50011074  1
  Fe  Fe43  1  0.33663064  0.66622991  0.66519788  1
  Fe  Fe44  1  0.50071030  0.83234169  0.83260614  1
  Fe  Fe45  1  0.83093538  0.16585641  0.49920049  1
  Fe  Fe46  1  0.66729942  0.99845027  0.66706876  1
  Fe  Fe47  1  0.83481171  0.16583687  0.83428780  1
  Fe  Fe48  1  0.83262859  0.50046206  0.49760458  1
  Cr  Cr49  1  0.66525624  0.33307384  0.66789718  1
  Fe  Fe50  1  0.83153953  0.50133379  0.83573974  1
  Fe  Fe51  1  0.83179389  0.83392519  0.49993581  1
  Fe  Fe52  1  0.66540748  0.66802066  0.66676048  1
  Fe  Fe53  1  0.83209743  0.83309357  0.83336314  1
" 