7458,Fe18Cr82_1,-221.546995863551, 132.362065850483,Fe18Cr82,"# generated using pymatgen
 data_CrFe5
_symmetry_space_group_name_H-M   'P 1'
_cell_length_a   7.47252394
_cell_length_b   7.47252394
_cell_length_c   10.56774470
_cell_angle_alpha   90.00000000
_cell_angle_beta   90.00000000
_cell_angle_gamma   90.00000000
_symmetry_Int_Tables_number   1
_chemical_formula_structural   CrFe5
_chemical_formula_sum   'Cr9 Fe45'
_cell_volume   590.08821773
_cell_formula_units_Z   9
loop_
 _symmetry_equiv_pos_site_id
 _symmetry_equiv_pos_as_xyz
  1  'x, y, z'
loop_
 _atom_site_type_symbol
 _atom_site_label
 _atom_site_symmetry_multiplicity
 _atom_site_fract_x
 _atom_site_fract_y
 _atom_site_fract_z
 _atom_site_occupancy
  Fe  Fe0  1  0.99656802  -0.00024261  0.99956578  1
  Fe  Fe1  1  0.16599221  0.16883983  0.16658381  1
  Fe  Fe2  1  0.99847579  0.00207861  0.33361927  1
  Fe  Fe3  1  0.99895380  0.33347704  0.00043947  1
  Fe  Fe4  1  0.16566786  0.49759637  0.16542260  1
  Fe  Fe5  1  0.00167596  0.33073716  0.33235541  1
  Fe  Fe6  1  0.99896304  0.66570837  0.99909981  1
  Cr  Cr7  1  0.16657074  0.83440048  0.16528720  1
  Cr  Cr8  1  0.99942086  0.66504744  0.33288705  1
  Cr  Cr9  1  0.33526396  0.99919758  0.99871520  1
  Fe  Fe10  1  0.49933430  0.16461630  0.16635437  1
  Fe  Fe11  1  0.33375760  0.00049624  0.33382727  1
  Fe  Fe12  1  0.33301473  0.33437539  0.99959053  1
  Cr  Cr13  1  0.49973432  0.50118078  0.16662017  1
  Fe  Fe14  1  0.33059866  0.33247601  0.33372101  1
  Fe  Fe15  1  0.33294782  0.66469603  0.99766357  1
  Fe  Fe16  1  0.50190429  0.83389750  0.16711262  1
  Fe  Fe17  1  0.33449830  0.66626222  0.33480794  1
  Fe  Fe18  1  0.66814067  -0.00029531  0.99960433  1
  Fe  Fe19  1  0.83386506  0.16532769  0.16537318  1
  Fe  Fe20  1  0.66670733  0.99778963  0.33294897  1
  Fe  Fe21  1  0.66685396  0.33188840  0.99929309  1
  Fe  Fe22  1  0.83468252  0.49989720  0.16484719  1
  Cr  Cr23  1  0.66776474  0.33151024  0.33239184  1
  Fe  Fe24  1  0.66690951  0.66738445  0.99875763  1
  Fe  Fe25  1  0.83042642  0.83337711  0.16557317  1
  Fe  Fe26  1  0.66509035  0.66917142  0.33311611  1
  Fe  Fe27  1  0.16519138  0.16730327  0.49925890  1
  Fe  Fe28  1  0.99774338  0.99847301  0.66555595  1
  Cr  Cr29  1  0.16525868  0.16618750  0.83299128  1
  Fe  Fe30  1  0.16752733  0.49789321  0.49963699  1
  Fe  Fe31  1  0.00019043  0.33302482  0.66628317  1
  Fe  Fe32  1  0.16529236  0.50018185  0.83387422  1
  Fe  Fe33  1  0.16516575  0.83365727  0.49853194  1
  Fe  Fe34  1  0.99893639  0.66748723  0.66686400  1
  Fe  Fe35  1  0.16373308  0.83088021  0.83417155  1
  Fe  Fe36  1  0.50004803  0.16662731  0.49959907  1
  Cr  Cr37  1  0.33380572  0.99935401  0.66621547  1
  Fe  Fe38  1  0.50268793  0.16793726  0.83290004  1
  Fe  Fe39  1  0.49804670  0.49956330  0.49928722  1
  Fe  Fe40  1  0.33379845  0.33360023  0.66558691  1
  Fe  Fe41  1  0.50023087  0.49851405  0.83400892  1
  Fe  Fe42  1  0.50152962  0.83259343  0.49818341  1
  Cr  Cr43  1  0.33139196  0.66632867  0.66686867  1
  Fe  Fe44  1  0.50200279  0.83230303  0.83362277  1
  Fe  Fe45  1  0.83372480  0.16411864  0.50056904  1
  Fe  Fe46  1  0.66759969  0.99935774  0.66635775  1
  Fe  Fe47  1  0.83135511  0.16633074  0.83285603  1
  Cr  Cr48  1  0.83126445  0.50011968  0.50125064  1
  Fe  Fe49  1  0.66479397  0.33204895  0.66690563  1
  Fe  Fe50  1  0.83323942  0.49926610  0.83259916  1
  Fe  Fe51  1  0.83220584  0.83528159  0.50037113  1
  Fe  Fe52  1  0.66638135  0.66758206  0.66733792  1
  Fe  Fe53  1  0.83328442  0.83330601  0.83294641  1
" 