1474,Fe18Cr82_10,-221.431889109773, 134.014272005945,Fe18Cr82,"# generated using pymatgen
 data_CrFe5
_symmetry_space_group_name_H-M   'P 1'
_cell_length_a   7.47140650
_cell_length_b   7.47140650
_cell_length_c   10.56616440
_cell_angle_alpha   90.00000000
_cell_angle_beta   90.00000000
_cell_angle_gamma   90.00000000
_symmetry_Int_Tables_number   1
_chemical_formula_structural   CrFe5
_chemical_formula_sum   'Cr9 Fe45'
_cell_volume   589.82353108
_cell_formula_units_Z   9
loop_
 _symmetry_equiv_pos_site_id
 _symmetry_equiv_pos_as_xyz
  1  'x, y, z'
loop_
 _atom_site_type_symbol
 _atom_site_label
 _atom_site_symmetry_multiplicity
 _atom_site_fract_x
 _atom_site_fract_y
 _atom_site_fract_z
 _atom_site_occupancy
  Fe  Fe0  1  0.99846906  0.99845020  0.99887779  1
  Fe  Fe1  1  0.16718355  0.16809589  0.16675389  1
  Cr  Cr2  1  0.00104205  0.99837468  0.33395307  1
  Fe  Fe3  1  0.00067052  0.33346736  0.99943593  1
  Fe  Fe4  1  0.16640697  0.49992042  0.16656387  1
  Fe  Fe5  1  0.00024244  0.33265648  0.33128720  1
  Fe  Fe6  1  0.99947367  0.66709442  -0.00024707  1
  Fe  Fe7  1  0.16454938  0.83100193  0.16620307  1
  Fe  Fe8  1  0.99940152  0.66642261  0.33105198  1
  Cr  Cr9  1  0.33007390  0.00014951  0.00095917  1
  Fe  Fe10  1  0.49835898  0.16959055  0.16579980  1
  Fe  Fe11  1  0.33289907  0.00070036  0.33387806  1
  Fe  Fe12  1  0.33274814  0.33546790  0.00078421  1
  Fe  Fe13  1  0.50024353  0.49882551  0.16651057  1
  Fe  Fe14  1  0.33373443  0.33169063  0.33263627  1
  Fe  Fe15  1  0.33301648  0.66466536  0.99970294  1
  Cr  Cr16  1  0.50041452  0.83460244  0.16562090  1
  Fe  Fe17  1  0.33315348  0.66742697  0.33265040  1
  Fe  Fe18  1  0.66860866  0.99750230  0.99868715  1
  Cr  Cr19  1  0.83110663  0.16675111  0.16397861  1
  Cr  Cr20  1  0.66628419  -0.00010857  0.33528829  1
  Fe  Fe21  1  0.66612434  0.33596989  0.99937913  1
  Fe  Fe22  1  0.83253384  0.50178144  0.16649541  1
  Fe  Fe23  1  0.66482019  0.33410578  0.33298849  1
  Fe  Fe24  1  0.66698085  0.66551241  0.99853418  1
  Fe  Fe25  1  0.83411965  0.83067330  0.16496955  1
  Fe  Fe26  1  0.66633789  0.66553847  0.33292178  1
  Fe  Fe27  1  0.16692607  0.16641136  0.50107572  1
  Fe  Fe28  1  0.99953088  0.99962127  0.66595266  1
  Fe  Fe29  1  0.16491380  0.16563758  0.83196810  1
  Cr  Cr30  1  0.16602105  0.50035083  0.49956055  1
  Fe  Fe31  1  0.99864618  0.33067900  0.66708830  1
  Cr  Cr32  1  0.16579313  0.50047773  0.83140047  1
  Fe  Fe33  1  0.16710390  0.83331895  0.50115452  1
  Fe  Fe34  1  0.99831621  0.66903824  0.66734821  1
  Fe  Fe35  1  0.16591918  0.83456913  0.83190834  1
  Fe  Fe36  1  0.49873302  0.16819439  0.50147787  1
  Fe  Fe37  1  0.33286403  0.99901076  0.66638209  1
  Cr  Cr38  1  0.50147479  0.16420991  0.83498908  1
  Fe  Fe39  1  0.49983145  0.49988433  0.49976414  1
  Fe  Fe40  1  0.33449305  0.33210655  0.66639654  1
  Fe  Fe41  1  0.50079330  0.50035075  0.83269012  1
  Fe  Fe42  1  0.49859618  0.83098535  0.50035144  1
  Fe  Fe43  1  0.33487018  0.66780413  0.66646478  1
  Fe  Fe44  1  0.49960028  0.83006417  0.83318895  1
  Fe  Fe45  1  0.83387390  0.16667461  0.50136492  1
  Fe  Fe46  1  0.66704742  0.99876761  0.66517330  1
  Fe  Fe47  1  0.83549300  0.16664255  0.83362245  1
  Cr  Cr48  1  0.83447727  0.49899254  0.49862952  1
  Fe  Fe49  1  0.66631496  0.33301923  0.66676055  1
  Fe  Fe50  1  0.83105024  0.49929144  0.83242215  1
  Fe  Fe51  1  0.83376374  0.83197211  0.50170755  1
  Fe  Fe52  1  0.66591628  0.66665525  0.66697967  1
  Fe  Fe53  1  0.83288654  0.83318882  0.83276132  1
" 