3063,Fe18Cr82_14,-221.404190123109, 136.452963715083,Fe18Cr82,"# generated using pymatgen
 data_CrFe5
_symmetry_space_group_name_H-M   'P 1'
_cell_length_a   7.46761955
_cell_length_b   7.46761955
_cell_length_c   10.56080884
_cell_angle_alpha   90.00000000
_cell_angle_beta   90.00000000
_cell_angle_gamma   90.00000000
_symmetry_Int_Tables_number   1
_chemical_formula_structural   CrFe5
_chemical_formula_sum   'Cr9 Fe45'
_cell_volume   588.92711385
_cell_formula_units_Z   9
loop_
 _symmetry_equiv_pos_site_id
 _symmetry_equiv_pos_as_xyz
  1  'x, y, z'
loop_
 _atom_site_type_symbol
 _atom_site_label
 _atom_site_symmetry_multiplicity
 _atom_site_fract_x
 _atom_site_fract_y
 _atom_site_fract_z
 _atom_site_occupancy
  Fe  Fe0  1  0.00018185  0.99841585  0.99994961  1
  Cr  Cr1  1  0.16727352  0.16571414  0.16598709  1
  Fe  Fe2  1  0.99909298  0.99911103  0.33397673  1
  Fe  Fe3  1  0.99862891  0.33462832  -0.00003083  1
  Fe  Fe4  1  0.16598257  0.50062169  0.16731319  1
  Fe  Fe5  1  0.99909492  0.33416311  0.33399307  1
  Fe  Fe6  1  0.99846190  0.66683703  0.99996167  1
  Fe  Fe7  1  0.16596406  0.83264911  0.16727700  1
  Fe  Fe8  1  0.00135405  0.66660922  0.33329630  1
  Fe  Fe9  1  0.33330814  0.99993557  0.99974422  1
  Fe  Fe10  1  0.50060589  0.16731173  0.16750226  1
  Fe  Fe11  1  0.33352707  0.99837703  0.33348619  1
  Fe  Fe12  1  0.33484281  0.33309332  0.99993133  1
  Fe  Fe13  1  0.49976491  0.49839892  0.16682958  1
  Fe  Fe14  1  0.33281087  0.33418285  0.33262234  1
  Cr  Cr15  1  0.33250327  0.66687476  0.00023509  1
  Fe  Fe16  1  0.49907985  0.83417835  0.16732414  1
  Fe  Fe17  1  0.33127946  0.66732318  0.33263510  1
  Cr  Cr18  1  0.66677490  0.00114888  0.00035613  1
  Fe  Fe19  1  0.83261553  0.16729408  0.16731298  1
  Fe  Fe20  1  0.66726482  0.00064667  0.33242914  1
  Fe  Fe21  1  0.66641693  0.33481327  -0.00001973  1
  Fe  Fe22  1  0.83413386  0.49910412  0.16594225  1
  Fe  Fe23  1  0.66797866  0.33192072  0.33190543  1
  Fe  Fe24  1  0.66793418  0.66530485  0.00015022  1
  Fe  Fe25  1  0.83483806  0.83349045  0.16660433  1
  Cr  Cr26  1  0.66623258  0.66751722  0.33213394  1
  Fe  Fe27  1  0.16482596  0.16750981  0.49930117  1
  Fe  Fe28  1  0.99812370  0.99910543  0.66595879  1
  Cr  Cr29  1  0.16702150  0.16648292  0.83418726  1
  Fe  Fe30  1  0.16482340  0.49906327  0.49928427  1
  Fe  Fe31  1  0.99970404  0.33396492  0.66592205  1
  Fe  Fe32  1  0.16532745  0.49994682  0.83328711  1
  Fe  Fe33  1  0.16568578  0.83331076  0.49858827  1
  Fe  Fe34  1  0.99883498  0.66681529  0.66662735  1
  Fe  Fe35  1  0.16460740  0.83264652  0.83402081  1
  Cr  Cr36  1  0.49969281  0.16665060  0.49919380  1
  Cr  Cr37  1  0.33393478  0.99905353  0.66754676  1
  Fe  Fe38  1  0.50126616  0.16799322  0.83310459  1
  Cr  Cr39  1  0.50024311  0.49996842  0.50046917  1
  Fe  Fe40  1  0.33261259  0.33398355  0.66733096  1
  Fe  Fe41  1  0.50109116  0.49839953  0.83308077  1
  Fe  Fe42  1  0.50064788  0.83396751  0.49927461  1
  Cr  Cr43  1  0.33264853  0.66625055  0.66621199  1
  Fe  Fe44  1  0.50111403  0.83349253  0.83328700  1
  Fe  Fe45  1  0.83445342  0.16681423  0.49996331  1
  Fe  Fe46  1  0.66843692  0.99908523  0.66749167  1
  Fe  Fe47  1  0.83261807  0.16727288  0.83261015  1
  Fe  Fe48  1  0.83511140  0.49910942  0.50064711  1
  Fe  Fe49  1  0.66756986  0.33326968  0.66800027  1
  Fe  Fe50  1  0.83346329  0.49979389  0.83329262  1
  Fe  Fe51  1  0.83355024  0.83396325  0.50066669  1
  Fe  Fe52  1  0.66841319  0.66753173  0.66712161  1
  Fe  Fe53  1  0.83416385  0.83282111  0.83261317  1
" 