25,Fe18Cr82_2,-221.465188183877, 138.626062584716,Fe18Cr82,"# generated using pymatgen
 data_CrFe5
_symmetry_space_group_name_H-M   'P 1'
_cell_length_a   7.46790414
_cell_length_b   7.46790414
_cell_length_c   10.56121131
_cell_angle_alpha   90.00000000
_cell_angle_beta   90.00000000
_cell_angle_gamma   90.00000000
_symmetry_Int_Tables_number   1
_chemical_formula_structural   CrFe5
_chemical_formula_sum   'Cr9 Fe45'
_cell_volume   588.99444776
_cell_formula_units_Z   9
loop_
 _symmetry_equiv_pos_site_id
 _symmetry_equiv_pos_as_xyz
  1  'x, y, z'
loop_
 _atom_site_type_symbol
 _atom_site_label
 _atom_site_symmetry_multiplicity
 _atom_site_fract_x
 _atom_site_fract_y
 _atom_site_fract_z
 _atom_site_occupancy
  Fe  Fe0  1  0.99914737  0.99913275  0.00043372  1
  Fe  Fe1  1  0.16406994  0.16661872  0.16659161  1
  Fe  Fe2  1  0.99871187  -0.00003754  0.33341801  1
  Fe  Fe3  1  -0.00003205  0.33324935  0.99993227  1
  Cr  Cr4  1  0.16818611  0.50105537  0.16697826  1
  Fe  Fe5  1  0.99952934  0.33243795  0.33393619  1
  Fe  Fe6  1  0.00074890  0.66744722  0.99928084  1
  Fe  Fe7  1  0.16554390  0.83344962  0.16659184  1
  Fe  Fe8  1  0.99949508  0.66742929  0.33391891  1
  Cr  Cr9  1  0.33133282  0.00045479  0.99799633  1
  Cr  Cr10  1  0.50259027  0.16826102  0.16612357  1
  Cr  Cr11  1  0.33170677  0.00008465  0.33558980  1
  Fe  Fe12  1  0.33346410  0.33471023  0.99848708  1
  Fe  Fe13  1  0.50053434  0.50058703  0.16743226  1
  Fe  Fe14  1  0.33263646  0.33389415  0.33407897  1
  Fe  Fe15  1  0.33267286  0.66597554  0.99933009  1
  Fe  Fe16  1  0.50037262  0.83117008  0.16725331  1
  Fe  Fe17  1  0.33330733  0.66661068  0.33323583  1
  Fe  Fe18  1  0.66786787  0.99991985  0.99994121  1
  Fe  Fe19  1  0.83472902  0.16676777  0.16639621  1
  Fe  Fe20  1  0.66848230  0.99929235  0.33390972  1
  Fe  Fe21  1  0.66640052  0.33311776  0.99993721  1
  Fe  Fe22  1  0.83244374  0.49909973  0.16723735  1
  Fe  Fe23  1  0.66766654  0.33312114  0.33326351  1
  Cr  Cr24  1  0.66723368  0.66549643  0.00079787  1
  Fe  Fe25  1  0.83390464  0.83395744  0.16721711  1
  Fe  Fe26  1  0.66702638  0.66741653  0.33241328  1
  Fe  Fe27  1  0.16616778  0.16745776  0.49930011  1
  Cr  Cr28  1  0.00174289  0.99935084  0.66553252  1
  Fe  Fe29  1  0.16724378  0.16725920  0.83393586  1
  Fe  Fe30  1  0.16472414  0.50056912  0.49912004  1
  Fe  Fe31  1  0.99931046  0.33517598  0.66596472  1
  Fe  Fe32  1  0.16580393  0.50039610  0.83410124  1
  Fe  Fe33  1  0.16682107  0.83179775  0.49994668  1
  Fe  Fe34  1  0.00010411  0.66513857  0.66662893  1
  Fe  Fe35  1  0.16642854  0.83217043  0.83328842  1
  Fe  Fe36  1  0.50122391  0.16533857  0.49978923  1
  Fe  Fe37  1  0.33455598  0.99869650  0.66660998  1
  Fe  Fe38  1  0.49995879  0.16661053  0.83345021  1
  Cr  Cr39  1  0.49930516  0.50053348  0.49740231  1
  Cr  Cr40  1  0.33245321  0.33099158  0.66743362  1
  Fe  Fe41  1  0.50010473  0.49973431  0.83314011  1
  Fe  Fe42  1  0.50055594  0.83393900  0.50059311  1
  Fe  Fe43  1  0.33247185  0.66871860  0.66725480  1
  Fe  Fe44  1  0.50012650  0.83348095  0.83198668  1
  Fe  Fe45  1  0.83243524  0.16743257  0.49949050  1
  Fe  Fe46  1  0.66447795  0.99949203  0.66598092  1
  Cr  Cr47  1  0.83159544  0.16657637  0.83495685  1
  Fe  Fe48  1  0.83456640  0.49990522  0.49997681  1
  Fe  Fe49  1  0.66805387  0.33310341  0.66662193  1
  Fe  Fe50  1  0.83392094  0.50055945  0.83261651  1
  Fe  Fe51  1  0.83245143  0.83248944  0.49931472  1
  Fe  Fe52  1  0.66725149  0.66723534  0.66744863  1
  Fe  Fe53  1  0.83327500  0.83203028  0.83329546  1
" 