3439,Fe18Cr82_7,-221.580391256426, 130.12735595695,Fe18Cr82,"# generated using pymatgen
 data_CrFe5
_symmetry_space_group_name_H-M   'P 1'
_cell_length_a   7.47268734
_cell_length_b   7.47268734
_cell_length_c   10.56797579
_cell_angle_alpha   90.00000000
_cell_angle_beta   90.00000000
_cell_angle_gamma   90.00000000
_symmetry_Int_Tables_number   1
_chemical_formula_structural   CrFe5
_chemical_formula_sum   'Cr9 Fe45'
_cell_volume   590.12692950
_cell_formula_units_Z   9
loop_
 _symmetry_equiv_pos_site_id
 _symmetry_equiv_pos_as_xyz
  1  'x, y, z'
loop_
 _atom_site_type_symbol
 _atom_site_label
 _atom_site_symmetry_multiplicity
 _atom_site_fract_x
 _atom_site_fract_y
 _atom_site_fract_z
 _atom_site_occupancy
  Fe  Fe0  1  0.99735285  0.00183784  0.99954880  1
  Fe  Fe1  1  0.16553422  0.16860852  0.16575430  1
  Fe  Fe2  1  0.99720662  0.99933449  0.33130579  1
  Fe  Fe3  1  0.99840294  0.33191490  0.00047053  1
  Fe  Fe4  1  0.16547106  0.49712720  0.16487507  1
  Fe  Fe5  1  0.00025735  0.33459048  0.33127418  1
  Fe  Fe6  1  0.99644243  0.66517615  0.00025192  1
  Cr  Cr7  1  0.16542865  0.83237467  0.16403561  1
  Fe  Fe8  1  0.99674578  0.66489502  0.33273162  1
  Fe  Fe9  1  0.33494593  0.00173025  -0.00004205  1
  Fe  Fe10  1  0.50056344  0.16704698  0.16526343  1
  Cr  Cr11  1  0.33522430  0.00059623  0.33316475  1
  Fe  Fe12  1  0.33392588  0.33194744  0.00050228  1
  Fe  Fe13  1  0.50052204  0.49895707  0.16516044  1
  Fe  Fe14  1  0.33386448  0.33356948  0.33200678  1
  Fe  Fe15  1  0.33586483  0.66525405  0.00036636  1
  Fe  Fe16  1  0.50278640  0.83283573  0.16460492  1
  Cr  Cr17  1  0.33387230  0.66436140  0.33324276  1
  Fe  Fe18  1  0.66652746  -0.00012712  0.99953903  1
  Fe  Fe19  1  0.83297183  0.16608917  0.16665980  1
  Fe  Fe20  1  0.66704500  0.99828793  0.33172347  1
  Fe  Fe21  1  0.66653698  0.33281514  0.99960060  1
  Fe  Fe22  1  0.83300235  0.49989674  0.16621155  1
  Fe  Fe23  1  0.66455120  0.33405183  0.33173710  1
  Fe  Fe24  1  0.66650104  0.66617895  0.99960212  1
  Fe  Fe25  1  0.83092998  0.83289160  0.16614824  1
  Fe  Fe26  1  0.66776697  0.66653037  0.33292116  1
  Cr  Cr27  1  0.16651350  0.16694944  0.50104389  1
  Fe  Fe28  1  0.99744141  -0.00023654  0.66800724  1
  Fe  Fe29  1  0.16633417  0.16661715  0.83268346  1
  Fe  Fe30  1  0.16399017  0.49750161  0.49994544  1
  Fe  Fe31  1  0.99846975  0.33404021  0.66718043  1
  Cr  Cr32  1  0.16626705  0.49970437  0.83379109  1
  Cr  Cr33  1  0.16391439  0.83235782  0.50100742  1
  Fe  Fe34  1  0.99550820  0.66520354  0.66600638  1
  Cr  Cr35  1  0.16627389  0.83419467  0.83385387  1
  Fe  Fe36  1  0.50043102  0.16719411  0.50066452  1
  Fe  Fe37  1  0.33589203  0.00187099  0.66710214  1
  Fe  Fe38  1  0.49914189  0.16641223  0.83308957  1
  Fe  Fe39  1  0.50170834  0.49695569  0.49955046  1
  Fe  Fe40  1  0.33504335  0.33165963  0.66672855  1
  Fe  Fe41  1  0.50185068  0.49912824  0.83390295  1
  Fe  Fe42  1  0.50402625  0.83457780  0.50028264  1
  Cr  Cr43  1  0.33510879  0.66594667  0.66468964  1
  Fe  Fe44  1  0.50179665  0.83332379  0.83392310  1
  Cr  Cr45  1  0.83036464  0.16681102  0.49846426  1
  Fe  Fe46  1  0.66523262  0.99852724  0.66734965  1
  Fe  Fe47  1  0.83340005  0.16642543  0.83263701  1
  Fe  Fe48  1  0.83338135  0.50113420  0.49954526  1
  Fe  Fe49  1  0.66520162  0.33419461  0.66731431  1
  Fe  Fe50  1  0.83134290  0.49987407  0.83311631  1
  Fe  Fe51  1  0.83110593  0.83175192  0.49960354  1
  Fe  Fe52  1  0.66823319  0.66617968  0.66635926  1
  Fe  Fe53  1  0.83140460  0.83255064  0.83311980  1
" 