3891,Fe19Cr81_2,-221.283940676716, 136.360056806695,Fe19Cr81,"# generated using pymatgen
 data_Cr5Fe22
_symmetry_space_group_name_H-M   'P 1'
_cell_length_a   7.47743245
_cell_length_b   7.47743245
_cell_length_c   10.57468638
_cell_angle_alpha   90.00000000
_cell_angle_beta   90.00000000
_cell_angle_gamma   90.00000000
_symmetry_Int_Tables_number   1
_chemical_formula_structural   Cr5Fe22
_chemical_formula_sum   'Cr10 Fe44'
_cell_volume   591.25182355
_cell_formula_units_Z   2
loop_
 _symmetry_equiv_pos_site_id
 _symmetry_equiv_pos_as_xyz
  1  'x, y, z'
loop_
 _atom_site_type_symbol
 _atom_site_label
 _atom_site_symmetry_multiplicity
 _atom_site_fract_x
 _atom_site_fract_y
 _atom_site_fract_z
 _atom_site_occupancy
  Fe  Fe0  1  0.99880179  0.99880744  0.99862899  1
  Fe  Fe1  1  0.16645789  0.16645664  0.16648476  1
  Fe  Fe2  1  0.99915648  0.99914848  0.33280238  1
  Cr  Cr3  1  0.00030976  0.33142330  -0.00029087  1
  Fe  Fe4  1  0.16646833  0.49883460  0.16645575  1
  Fe  Fe5  1  -0.00033689  0.33328810  0.33213963  1
  Fe  Fe6  1  -0.00068232  0.66696261  0.99927765  1
  Cr  Cr7  1  0.16627984  0.83253950  0.16669262  1
  Fe  Fe8  1  -0.00019733  0.66548060  0.33318572  1
  Fe  Fe9  1  0.33297112  -0.00005903  0.99877253  1
  Fe  Fe10  1  0.49917332  0.16582821  0.16598577  1
  Fe  Fe11  1  0.33277372  0.00014457  0.33267148  1
  Fe  Fe12  1  0.33310804  0.33216385  -0.00022189  1
  Fe  Fe13  1  0.49866286  0.49896680  0.16530544  1
  Fe  Fe14  1  0.33277179  0.33279635  0.33266859  1
  Fe  Fe15  1  0.33248265  0.66581101  0.99915697  1
  Fe  Fe16  1  0.49979264  0.83312309  0.16561812  1
  Fe  Fe17  1  0.33163506  0.66497714  0.33279197  1
  Fe  Fe18  1  0.66614376  -0.00056398  0.99928922  1
  Fe  Fe19  1  0.83228716  0.16532900  0.16662699  1
  Fe  Fe20  1  0.66598329  0.00028255  0.33164103  1
  Fe  Fe21  1  0.66499301  0.33164795  0.00030741  1
  Fe  Fe22  1  0.83278586  0.49945358  0.16581653  1
  Fe  Fe23  1  0.66548044  0.33215145  0.33215163  1
  Fe  Fe24  1  0.66611529  0.66683228  0.00046372  1
  Fe  Fe25  1  0.83215657  0.83313412  0.16547634  1
  Cr  Cr26  1  0.66563189  0.66610176  0.33214875  1
  Fe  Fe27  1  0.16814239  0.16579745  0.49830464  1
  Cr  Cr28  1  -0.00042023  0.99866927  0.66728234  1
  Fe  Fe29  1  0.16748376  0.16577100  0.83313505  1
  Fe  Fe30  1  0.16596170  0.49933656  0.49831506  1
  Cr  Cr31  1  0.00059228  0.33307636  0.66646299  1
  Fe  Fe32  1  0.16646874  0.49982118  0.83314758  1
  Fe  Fe33  1  0.16479588  0.83278078  0.49814898  1
  Fe  Fe34  1  0.99878766  0.66647452  0.66545058  1
  Fe  Fe35  1  0.16595963  0.83232284  0.83378424  1
  Fe  Fe36  1  0.49830197  0.16698905  0.49934673  1
  Fe  Fe37  1  0.33299825  0.00097896  0.66647491  1
  Fe  Fe38  1  0.49945956  0.16512460  0.83258434  1
  Fe  Fe39  1  0.49948177  0.49713927  0.49948459  1
  Fe  Fe40  1  0.33299679  0.33097936  0.66547056  1
  Cr  Cr41  1  0.49932477  0.49830174  0.83282158  1
  Cr  Cr42  1  0.49837378  0.83391600  0.49939840  1
  Cr  Cr43  1  0.33260985  0.66587393  0.66566052  1
  Fe  Fe44  1  0.49995070  0.83399596  0.83298001  1
  Cr  Cr45  1  0.83125876  0.16659393  0.49811952  1
  Fe  Fe46  1  0.66497042  0.99929452  0.66698426  1
  Fe  Fe47  1  0.83097675  0.16462095  0.83299207  1
  Fe  Fe48  1  0.83247644  0.50048761  0.49949436  1
  Fe  Fe49  1  0.66445684  0.33214191  0.66544986  1
  Cr  Cr50  1  0.83242801  0.49987033  0.83142466  1
  Fe  Fe51  1  0.83365965  0.83160964  0.49932852  1
  Fe  Fe52  1  0.66779326  0.66648234  0.66529341  1
  Fe  Fe53  1  0.83200630  0.83298967  0.83311478  1
" 