4691,Fe19Cr81_4,-221.312627007534, 135.917607580349,Fe19Cr81,"# generated using pymatgen
 data_Cr5Fe22
_symmetry_space_group_name_H-M   'P 1'
_cell_length_a   7.47469529
_cell_length_b   7.47469529
_cell_length_c   10.57081545
_cell_angle_alpha   90.00000000
_cell_angle_beta   90.00000000
_cell_angle_gamma   90.00000000
_symmetry_Int_Tables_number   1
_chemical_formula_structural   Cr5Fe22
_chemical_formula_sum   'Cr10 Fe44'
_cell_volume   590.60276566
_cell_formula_units_Z   2
loop_
 _symmetry_equiv_pos_site_id
 _symmetry_equiv_pos_as_xyz
  1  'x, y, z'
loop_
 _atom_site_type_symbol
 _atom_site_label
 _atom_site_symmetry_multiplicity
 _atom_site_fract_x
 _atom_site_fract_y
 _atom_site_fract_z
 _atom_site_occupancy
  Fe  Fe0  1  0.00181218  0.00023051  0.00064312  1
  Fe  Fe1  1  0.16615407  0.16874861  0.16465680  1
  Cr  Cr2  1  0.99809401  0.99791992  0.33003754  1
  Fe  Fe3  1  0.00020075  0.33145885  0.99791476  1
  Fe  Fe4  1  0.16802929  0.49947051  0.16583141  1
  Fe  Fe5  1  0.00049766  0.33526744  0.33236784  1
  Fe  Fe6  1  0.00116935  0.66661052  0.99934791  1
  Fe  Fe7  1  0.16629710  0.83033496  0.16415642  1
  Fe  Fe8  1  0.00213642  0.66546540  0.33341263  1
  Fe  Fe9  1  0.33123103  -0.00049466  -0.00000344  1
  Fe  Fe10  1  0.49939551  0.16931118  0.16623138  1
  Cr  Cr11  1  0.33450151  0.99929154  0.33167781  1
  Fe  Fe12  1  0.33319101  0.33246838  0.99882643  1
  Fe  Fe13  1  0.49693392  0.49869558  0.16523611  1
  Fe  Fe14  1  0.33386987  0.33573753  0.33220633  1
  Fe  Fe15  1  0.33328370  0.66650610  0.99944273  1
  Fe  Fe16  1  0.49803238  0.83062147  0.16539273  1
  Fe  Fe17  1  0.33094998  0.66509416  0.33278731  1
  Cr  Cr18  1  0.66602956  0.99838500  0.00348828  1
  Fe  Fe19  1  0.83288718  0.16735164  0.16646872  1
  Fe  Fe20  1  0.66510370  0.00010037  0.33095234  1
  Fe  Fe21  1  0.66499260  0.33328205  0.99829892  1
  Cr  Cr22  1  0.83303725  0.49925495  0.16471217  1
  Fe  Fe23  1  0.66401564  0.33133661  0.33219680  1
  Fe  Fe24  1  0.66412029  0.66455071  -0.00044636  1
  Fe  Fe25  1  0.83405324  0.83224069  0.16475164  1
  Cr  Cr26  1  0.66596885  0.66812753  0.33226067  1
  Cr  Cr27  1  0.16713108  0.16591774  0.49916706  1
  Fe  Fe28  1  0.00092140  0.99798745  0.66644143  1
  Fe  Fe29  1  0.16615950  0.16378072  0.83428815  1
  Fe  Fe30  1  0.16592804  0.50213312  0.49813185  1
  Cr  Cr31  1  0.99916824  0.33463177  0.66827669  1
  Fe  Fe32  1  0.16625332  0.50205909  0.83493025  1
  Fe  Fe33  1  0.16592401  0.83048215  0.50068699  1
  Fe  Fe34  1  0.00102948  0.66640953  0.66528364  1
  Fe  Fe35  1  0.16815096  0.83270522  0.83295911  1
  Fe  Fe36  1  0.50076231  0.16613233  0.49959010  1
  Fe  Fe37  1  0.33343398  0.99720802  0.66691372  1
  Fe  Fe38  1  0.50023705  0.16510867  0.83344520  1
  Fe  Fe39  1  0.49959698  0.49891191  0.49920288  1
  Cr  Cr40  1  0.33327277  0.33340515  0.66678447  1
  Fe  Fe41  1  0.50062985  0.50102715  0.83382474  1
  Fe  Fe42  1  0.49944797  0.83358870  0.50145682  1
  Fe  Fe43  1  0.33246218  0.66712538  0.66623845  1
  Fe  Fe44  1  0.49757263  0.83224471  0.83244220  1
  Cr  Cr45  1  0.83095895  0.16611170  0.49905585  1
  Fe  Fe46  1  0.66408356  0.00009147  0.66678332  1
  Fe  Fe47  1  0.83189452  0.16657671  0.83335859  1
  Fe  Fe48  1  0.83316574  0.50085584  0.49911748  1
  Fe  Fe49  1  0.66529803  0.33410636  0.66732856  1
  Fe  Fe50  1  0.83148906  0.49901240  0.83465957  1
  Fe  Fe51  1  0.83328889  0.83163572  0.50177217  1
  Fe  Fe52  1  0.66509620  0.66410648  0.66490978  1
  Cr  Cr53  1  0.83303046  0.83165214  0.83247709  1
" 