3941,Fe19Cr81_6,-221.493879954857, 136.075984712786,Fe19Cr81,"# generated using pymatgen
 data_Cr5Fe22
_symmetry_space_group_name_H-M   'P 1'
_cell_length_a   7.48008565
_cell_length_b   7.48008565
_cell_length_c   10.57843858
_cell_angle_alpha   90.00000000
_cell_angle_beta   90.00000000
_cell_angle_gamma   90.00000000
_symmetry_Int_Tables_number   1
_chemical_formula_structural   Cr5Fe22
_chemical_formula_sum   'Cr10 Fe44'
_cell_volume   591.88142427
_cell_formula_units_Z   2
loop_
 _symmetry_equiv_pos_site_id
 _symmetry_equiv_pos_as_xyz
  1  'x, y, z'
loop_
 _atom_site_type_symbol
 _atom_site_label
 _atom_site_symmetry_multiplicity
 _atom_site_fract_x
 _atom_site_fract_y
 _atom_site_fract_z
 _atom_site_occupancy
  Fe  Fe0  1  0.99645665  0.99664392  0.00007266  1
  Cr  Cr1  1  0.16739113  0.16273932  0.16567239  1
  Fe  Fe2  1  0.99693366  0.99694950  0.33280326  1
  Cr  Cr3  1  -0.00074122  0.33195925  0.99793645  1
  Fe  Fe4  1  0.16578451  0.49914090  0.16774631  1
  Fe  Fe5  1  0.99842336  0.33283510  0.33283634  1
  Fe  Fe6  1  0.99805617  0.66756873  -0.00021350  1
  Fe  Fe7  1  0.16443288  0.83080703  0.16650270  1
  Fe  Fe8  1  0.00083339  0.66695832  0.33350740  1
  Fe  Fe9  1  0.33596061  -0.00073340  -0.00021912  1
  Fe  Fe10  1  0.50176361  0.16597357  0.16605785  1
  Fe  Fe11  1  0.33500964  0.99653529  0.33263337  1
  Fe  Fe12  1  0.33582677  0.33167121  0.99906373  1
  Fe  Fe13  1  0.49716258  0.49667015  0.16696143  1
  Fe  Fe14  1  0.33358364  0.33331603  0.33211447  1
  Cr  Cr15  1  0.33298287  0.66492100  -0.00005422  1
  Fe  Fe16  1  0.49922290  0.83489334  0.16570618  1
  Fe  Fe17  1  0.33033926  0.66673325  0.33159274  1
  Fe  Fe18  1  0.66559980  -0.00085979  -0.00085707  1
  Fe  Fe19  1  0.83075808  0.16406771  0.16637931  1
  Fe  Fe20  1  0.66576405  0.00097168  0.33271319  1
  Fe  Fe21  1  0.66269371  0.33137007  0.99895487  1
  Cr  Cr22  1  0.82951618  0.50057793  0.16671945  1
  Fe  Fe23  1  0.66573305  0.32944447  0.33274308  1
  Fe  Fe24  1  0.66561289  0.66791339  -0.00034116  1
  Fe  Fe25  1  0.83336339  0.83568531  0.16519753  1
  Cr  Cr26  1  0.66452155  0.66892474  0.33291076  1
  Cr  Cr27  1  0.16673272  0.16345483  0.49947095  1
  Fe  Fe28  1  0.99585773  0.99842990  0.66463831  1
  Cr  Cr29  1  0.16783710  0.16405184  0.83186857  1
  Fe  Fe30  1  0.16535214  0.50001465  0.49913804  1
  Fe  Fe31  1  0.99828050  0.33285042  0.66566910  1
  Fe  Fe32  1  0.16653377  0.49989895  0.83051796  1
  Fe  Fe33  1  0.16643834  0.83007261  0.49962117  1
  Fe  Fe34  1  -0.00079031  0.66626765  0.66407949  1
  Cr  Cr35  1  0.16529957  0.83477769  0.83237664  1
  Fe  Fe36  1  0.50081946  0.16426237  0.49910689  1
  Fe  Fe37  1  0.33593316  0.99796153  0.66492949  1
  Fe  Fe38  1  0.50145944  0.16551548  0.83221516  1
  Cr  Cr39  1  0.50187132  0.49963486  0.49911899  1
  Fe  Fe40  1  0.33363949  0.33320676  0.66615479  1
  Fe  Fe41  1  0.49694502  0.49846015  0.83091895  1
  Fe  Fe42  1  0.49778210  0.83536330  0.50007555  1
  Fe  Fe43  1  0.33258151  0.66613187  0.66610001  1
  Fe  Fe44  1  0.50127297  0.83298037  0.83186986  1
  Fe  Fe45  1  0.83049855  0.16613159  0.49911849  1
  Fe  Fe46  1  0.66578728  0.99912631  0.66552338  1
  Fe  Fe47  1  0.83075958  0.16337339  0.83154130  1
  Fe  Fe48  1  0.83525673  0.49830770  0.49966162  1
  Fe  Fe49  1  0.66576923  0.32995096  0.66570575  1
  Cr  Cr50  1  0.82874456  0.50188643  0.83136034  1
  Fe  Fe51  1  0.83308206  0.83333389  0.49996553  1
  Fe  Fe52  1  0.66549673  0.66872845  0.66475453  1
  Fe  Fe53  1  0.83071224  0.83508614  0.83229686  1
" 