6562,Fe19Cr81_9,-221.328559648355, 139.35715846775,Fe19Cr81,"# generated using pymatgen
 data_Cr5Fe22
_symmetry_space_group_name_H-M   'P 1'
_cell_length_a   7.47541052
_cell_length_b   7.47541052
_cell_length_c   10.57182695
_cell_angle_alpha   90.00000000
_cell_angle_beta   90.00000000
_cell_angle_gamma   90.00000000
_symmetry_Int_Tables_number   1
_chemical_formula_structural   Cr5Fe22
_chemical_formula_sum   'Cr10 Fe44'
_cell_volume   590.77232273
_cell_formula_units_Z   2
loop_
 _symmetry_equiv_pos_site_id
 _symmetry_equiv_pos_as_xyz
  1  'x, y, z'
loop_
 _atom_site_type_symbol
 _atom_site_label
 _atom_site_symmetry_multiplicity
 _atom_site_fract_x
 _atom_site_fract_y
 _atom_site_fract_z
 _atom_site_occupancy
  Cr  Cr0  1  0.99936346  0.00017599  0.00040227  1
  Fe  Fe1  1  0.16653817  0.16565161  0.16688277  1
  Fe  Fe2  1  0.00000452  0.99885558  0.33196908  1
  Fe  Fe3  1  0.99944020  0.33277418  0.99805092  1
  Cr  Cr4  1  0.16559242  0.49826537  0.16776723  1
  Fe  Fe5  1  0.99924773  0.33137679  0.33296109  1
  Fe  Fe6  1  0.99806565  0.66628576  0.99822259  1
  Fe  Fe7  1  0.16592451  0.83383326  0.16731913  1
  Fe  Fe8  1  -0.00011759  0.66808818  0.33338485  1
  Fe  Fe9  1  0.33277444  0.00063120  -0.00052543  1
  Fe  Fe10  1  0.49821791  0.16767198  0.16611349  1
  Fe  Fe11  1  0.33218664  0.99882463  0.33212179  1
  Fe  Fe12  1  0.33335844  0.33062102  0.99884201  1
  Fe  Fe13  1  0.50007846  0.49884259  0.16691010  1
  Fe  Fe14  1  0.33355243  0.33202599  0.33218007  1
  Cr  Cr15  1  0.33347101  0.66581072  0.99922640  1
  Fe  Fe16  1  0.49884813  0.83180753  0.16671001  1
  Fe  Fe17  1  0.33294927  0.66746628  0.33260384  1
  Cr  Cr18  1  0.66581394  0.99932958  0.00003341  1
  Fe  Fe19  1  0.83356891  0.16690437  0.16674422  1
  Cr  Cr20  1  0.66706819  -0.00007799  0.33350655  1
  Fe  Fe21  1  0.66551763  0.33336617  0.99885282  1
  Cr  Cr22  1  0.83077481  0.50028825  0.16500675  1
  Fe  Fe23  1  0.66551881  0.33214781  0.33216681  1
  Fe  Fe24  1  0.66688372  0.66570491  0.99886660  1
  Fe  Fe25  1  0.83355402  0.83197002  0.16671275  1
  Fe  Fe26  1  0.66548608  0.66672269  0.33211996  1
  Cr  Cr27  1  0.16717379  0.16452802  0.49814448  1
  Fe  Fe28  1  0.99879840  0.99764528  0.66687437  1
  Fe  Fe29  1  0.16732355  0.16610046  0.83263976  1
  Fe  Fe30  1  0.16669841  0.50122770  0.49863332  1
  Cr  Cr31  1  -0.00018642  0.33313624  0.66713038  1
  Fe  Fe32  1  0.16608044  0.49943117  0.83295155  1
  Fe  Fe33  1  0.16608919  0.83120101  0.49942172  1
  Fe  Fe34  1  0.00007182  0.66790810  0.66670925  1
  Fe  Fe35  1  0.16608920  0.83279046  0.83158468  1
  Fe  Fe36  1  0.50022729  0.16571133  0.50005148  1
  Fe  Fe37  1  0.33321435  0.99901688  0.66672113  1
  Fe  Fe38  1  0.49881399  0.16671883  0.83216340  1
  Cr  Cr39  1  0.49950554  0.49921263  0.49847662  1
  Fe  Fe40  1  0.33397478  0.33280345  0.66729827  1
  Fe  Fe41  1  0.50007089  0.49882576  0.83200645  1
  Fe  Fe42  1  0.49884292  0.83337678  0.50003441  1
  Fe  Fe43  1  0.33197241  0.66649719  0.66686089  1
  Fe  Fe44  1  0.49944195  0.83277590  0.83158351  1
  Fe  Fe45  1  0.83139725  0.16510880  0.49942341  1
  Fe  Fe46  1  0.66631137  -0.00035469  0.66607634  1
  Fe  Fe47  1  0.83218423  0.16672985  0.83216824  1
  Cr  Cr48  1  0.83248239  0.50039641  0.49803451  1
  Fe  Fe49  1  0.66490460  0.33153104  0.66728871  1
  Fe  Fe50  1  0.83217165  0.50005916  0.83342453  1
  Fe  Fe51  1  0.83339112  0.83337068  0.50003583  1
  Fe  Fe52  1  0.66627670  0.66714691  0.66732157  1
  Fe  Fe53  1  0.83279075  0.83153466  0.83158362  1
" 