594,Fe19Cr81_13,-221.345085280682, 135.662652545335,Fe19Cr81,"# generated using pymatgen
 data_Cr5Fe22
_symmetry_space_group_name_H-M   'P 1'
_cell_length_a   7.47167758
_cell_length_b   7.47167758
_cell_length_c   10.56654777
_cell_angle_alpha   90.00000000
_cell_angle_beta   90.00000000
_cell_angle_gamma   90.00000000
_symmetry_Int_Tables_number   1
_chemical_formula_structural   Cr5Fe22
_chemical_formula_sum   'Cr10 Fe44'
_cell_volume   589.88773552
_cell_formula_units_Z   2
loop_
 _symmetry_equiv_pos_site_id
 _symmetry_equiv_pos_as_xyz
  1  'x, y, z'
loop_
 _atom_site_type_symbol
 _atom_site_label
 _atom_site_symmetry_multiplicity
 _atom_site_fract_x
 _atom_site_fract_y
 _atom_site_fract_z
 _atom_site_occupancy
  Fe  Fe0  1  0.00025391  0.99945729  0.99945197  1
  Fe  Fe1  1  0.16430906  0.16646482  0.16595251  1
  Cr  Cr2  1  0.99601822  0.99665557  0.33094531  1
  Fe  Fe3  1  0.99902458  0.33369569  0.99935822  1
  Fe  Fe4  1  0.16553935  0.50072989  0.16610492  1
  Fe  Fe5  1  0.99903926  0.33415836  0.33055728  1
  Fe  Fe6  1  0.00023222  0.66581695  -0.00015161  1
  Fe  Fe7  1  0.16784609  0.83235477  0.16511639  1
  Fe  Fe8  1  0.99929173  0.66394297  0.33057154  1
  Fe  Fe9  1  0.33205684  0.99769692  0.99828418  1
  Cr  Cr10  1  0.49910017  0.16328746  0.16598252  1
  Fe  Fe11  1  0.33326734  0.99883333  0.33090539  1
  Cr  Cr12  1  0.33449937  0.33567519  -0.00012089  1
  Fe  Fe13  1  0.50038004  0.50277110  0.16576590  1
  Fe  Fe14  1  0.33050460  0.33543116  0.33126275  1
  Fe  Fe15  1  0.33315479  0.66873213  0.99932967  1
  Fe  Fe16  1  0.49984387  0.83029192  0.16595548  1
  Fe  Fe17  1  0.33345481  0.66489814  0.33060491  1
  Fe  Fe18  1  0.66672477  0.99839836  0.99848830  1
  Fe  Fe19  1  0.83353204  0.16705630  0.16383043  1
  Fe  Fe20  1  0.66612928  0.99816721  0.33179042  1
  Fe  Fe21  1  0.66885911  0.33429243  0.99962981  1
  Fe  Fe22  1  0.83287967  0.50018175  0.16501622  1
  Cr  Cr23  1  0.66355204  0.33424822  0.33320309  1
  Fe  Fe24  1  0.66561957  0.66546573  0.99951086  1
  Fe  Fe25  1  0.83089963  0.83190418  0.16320608  1
  Fe  Fe26  1  0.66837073  0.66860441  0.33126935  1
  Cr  Cr27  1  0.16681857  0.16775891  0.49759754  1
  Cr  Cr28  1  0.99643676  0.99657699  0.66797835  1
  Fe  Fe29  1  0.16611401  0.16641624  0.83376987  1
  Fe  Fe30  1  0.16807425  0.50111161  0.49850350  1
  Fe  Fe31  1  0.00024202  0.33247484  0.66894922  1
  Fe  Fe32  1  0.16520636  0.50103578  0.83388534  1
  Cr  Cr33  1  0.16771637  0.83021910  0.50101901  1
  Fe  Fe34  1  0.00074978  0.66368159  0.66976347  1
  Fe  Fe35  1  0.16673934  0.83191705  0.83422857  1
  Fe  Fe36  1  0.50121148  0.16670190  0.49931738  1
  Fe  Fe37  1  0.33407206  0.00045273  0.66964984  1
  Fe  Fe38  1  0.50142096  0.16559029  0.83458572  1
  Fe  Fe39  1  0.49843782  0.50261799  0.49933651  1
  Cr  Cr40  1  0.33622881  0.33600696  0.66548501  1
  Fe  Fe41  1  0.50247429  0.50185271  0.83361927  1
  Cr  Cr42  1  0.49989489  0.83493703  0.49944758  1
  Fe  Fe43  1  0.33363114  0.66811702  0.66957524  1
  Fe  Fe44  1  0.50019917  0.83290538  0.83346385  1
  Fe  Fe45  1  0.83056661  0.16454141  0.50036034  1
  Fe  Fe46  1  0.66404859  0.00088223  0.66859638  1
  Fe  Fe47  1  0.83214125  0.16707536  0.83501337  1
  Cr  Cr48  1  0.83548287  0.49973656  0.50223015  1
  Fe  Fe49  1  0.66864321  0.33160336  0.66763469  1
  Fe  Fe50  1  0.83276324  0.49976613  0.83329263  1
  Fe  Fe51  1  0.83187351  0.83184435  0.50032231  1
  Fe  Fe52  1  0.66616097  0.66702019  0.66849153  1
  Fe  Fe53  1  0.83153749  0.83121297  0.83533124  1
" 