8987,Fe19Cr81_5,-221.335890349826, 135.295453422557,Fe19Cr81,"# generated using pymatgen
 data_Cr5Fe22
_symmetry_space_group_name_H-M   'P 1'
_cell_length_a   7.47804189
_cell_length_b   7.47804189
_cell_length_c   10.57554826
_cell_angle_alpha   90.00000000
_cell_angle_beta   90.00000000
_cell_angle_gamma   90.00000000
_symmetry_Int_Tables_number   1
_chemical_formula_structural   Cr5Fe22
_chemical_formula_sum   'Cr10 Fe44'
_cell_volume   591.39640293
_cell_formula_units_Z   2
loop_
 _symmetry_equiv_pos_site_id
 _symmetry_equiv_pos_as_xyz
  1  'x, y, z'
loop_
 _atom_site_type_symbol
 _atom_site_label
 _atom_site_symmetry_multiplicity
 _atom_site_fract_x
 _atom_site_fract_y
 _atom_site_fract_z
 _atom_site_occupancy
  Cr  Cr0  1  0.99819360  0.99854024  -0.00018873  1
  Cr  Cr1  1  0.16682123  0.16675647  0.16588538  1
  Fe  Fe2  1  0.99826348  0.99877394  0.33286714  1
  Fe  Fe3  1  0.99695759  0.33358396  -0.00020705  1
  Fe  Fe4  1  0.16802238  0.50099091  0.16390149  1
  Cr  Cr5  1  0.99765154  0.33282859  0.33182421  1
  Fe  Fe6  1  0.99791386  0.66542281  0.00077939  1
  Fe  Fe7  1  0.16670890  0.83166848  0.16566467  1
  Cr  Cr8  1  0.99894750  0.66652282  0.33098214  1
  Fe  Fe9  1  0.33426406  0.99920601  0.99755920  1
  Fe  Fe10  1  0.50074279  0.16730240  0.16604537  1
  Fe  Fe11  1  0.33211995  0.99916527  0.33426715  1
  Fe  Fe12  1  0.33446183  0.33209698  0.99907466  1
  Fe  Fe13  1  0.49895513  0.49752896  0.16582153  1
  Fe  Fe14  1  0.33442452  0.33378107  0.33373564  1
  Fe  Fe15  1  0.33283261  0.66666912  0.99920489  1
  Cr  Cr16  1  0.50015165  0.83282960  0.16661983  1
  Fe  Fe17  1  0.33332200  0.66480194  0.33371461  1
  Fe  Fe18  1  0.66515730  -0.00001408  0.99846140  1
  Fe  Fe19  1  0.82909300  0.16544510  0.16584863  1
  Fe  Fe20  1  0.66753720  0.00003683  0.33328076  1
  Fe  Fe21  1  0.66630825  0.33222329  -0.00065459  1
  Fe  Fe22  1  0.83067087  0.49927990  0.16425689  1
  Fe  Fe23  1  0.66467786  0.33300105  0.33252879  1
  Fe  Fe24  1  0.66707132  0.66566189  0.99874882  1
  Fe  Fe25  1  0.83243279  0.83306652  0.16585801  1
  Fe  Fe26  1  0.66571247  0.66468056  0.33326531  1
  Fe  Fe27  1  0.16589258  0.16409820  0.49760723  1
  Fe  Fe28  1  0.99831363  0.99768855  0.66627746  1
  Fe  Fe29  1  0.16572706  0.16511544  0.83435333  1
  Fe  Fe30  1  0.16616047  0.49998245  0.49852437  1
  Cr  Cr31  1  0.99765763  0.33181282  0.66556822  1
  Cr  Cr32  1  0.16481072  0.49901313  0.83420661  1
  Fe  Fe33  1  0.16513028  0.83373553  0.49851731  1
  Fe  Fe34  1  0.99805521  0.66786738  0.66504565  1
  Fe  Fe35  1  0.16498210  0.83256758  0.83345062  1
  Fe  Fe36  1  0.50101668  0.16535385  0.49767728  1
  Cr  Cr37  1  0.33329098  0.99903825  0.66806581  1
  Fe  Fe38  1  0.50087572  0.16653446  0.83427362  1
  Fe  Fe39  1  0.50132906  0.49934658  0.49752560  1
  Cr  Cr40  1  0.33401601  0.33198942  0.66480441  1
  Fe  Fe41  1  0.50178994  0.49934011  0.83391217  1
  Fe  Fe42  1  0.50108894  0.83309296  0.49734480  1
  Cr  Cr43  1  0.33438963  0.66671634  0.66491107  1
  Fe  Fe44  1  0.50097348  0.83191996  0.83459387  1
  Fe  Fe45  1  0.83078958  0.16419483  0.49915530  1
  Fe  Fe46  1  0.66694674  -0.00042243  0.66606982  1
  Fe  Fe47  1  0.83114719  0.16616853  0.83272079  1
  Fe  Fe48  1  0.83025630  0.50030001  0.49968586  1
  Fe  Fe49  1  0.66511703  0.33255272  0.66593630  1
  Fe  Fe50  1  0.83018136  0.50007785  0.83328532  1
  Fe  Fe51  1  0.83172418  0.83330506  0.49991054  1
  Fe  Fe52  1  0.66719606  0.66567926  0.66594243  1
  Fe  Fe53  1  0.83203013  0.83138489  0.83179303  1
" 