8366,Fe19Cr81_0,-221.256909844871, 135.176695981449,Fe19Cr81,"# generated using pymatgen
 data_Cr5Fe22
_symmetry_space_group_name_H-M   'P 1'
_cell_length_a   7.47746725
_cell_length_b   7.47746725
_cell_length_c   10.57473559
_cell_angle_alpha   90.00000000
_cell_angle_beta   90.00000000
_cell_angle_gamma   90.00000000
_symmetry_Int_Tables_number   1
_chemical_formula_structural   Cr5Fe22
_chemical_formula_sum   'Cr10 Fe44'
_cell_volume   591.26007778
_cell_formula_units_Z   2
loop_
 _symmetry_equiv_pos_site_id
 _symmetry_equiv_pos_as_xyz
  1  'x, y, z'
loop_
 _atom_site_type_symbol
 _atom_site_label
 _atom_site_symmetry_multiplicity
 _atom_site_fract_x
 _atom_site_fract_y
 _atom_site_fract_z
 _atom_site_occupancy
  Cr  Cr0  1  0.99806508  0.00027991  0.99907292  1
  Fe  Fe1  1  0.16649000  0.16647673  0.16644586  1
  Fe  Fe2  1  0.00015655  0.99912514  0.33247206  1
  Fe  Fe3  1  0.00035969  0.33262663  0.99926117  1
  Fe  Fe4  1  0.16647910  0.49879407  0.16646042  1
  Fe  Fe5  1  0.99897063  0.33263497  0.33260760  1
  Cr  Cr6  1  0.99881329  0.66509056  0.00024427  1
  Fe  Fe7  1  0.16702620  0.83263909  0.16685717  1
  Fe  Fe8  1  0.00016902  0.66614955  0.33245715  1
  Fe  Fe9  1  0.33316646  -0.00016279  0.00087286  1
  Fe  Fe10  1  0.49828175  0.16593979  0.16579080  1
  Fe  Fe11  1  0.33177542  0.99914977  0.33264865  1
  Fe  Fe12  1  0.33074152  0.33316809  -0.00035820  1
  Fe  Fe13  1  0.49828414  0.49932200  0.16594095  1
  Fe  Fe14  1  0.33298210  0.33263519  0.33278539  1
  Fe  Fe15  1  0.33369777  0.66490137  0.00034248  1
  Fe  Fe16  1  0.49827633  0.83264841  0.16470707  1
  Fe  Fe17  1  0.33176325  0.66612467  0.33263484  1
  Fe  Fe18  1  0.66614263  0.99807745  0.00036725  1
  Fe  Fe19  1  0.83313516  0.16649512  0.16647304  1
  Cr  Cr20  1  0.66639193  0.00029497  0.33155786  1
  Cr  Cr21  1  0.66529264  0.33284028  -0.00049615  1
  Fe  Fe22  1  0.83314502  0.49877943  0.16648790  1
  Fe  Fe23  1  0.66595661  0.33262487  0.33249860  1
  Fe  Fe24  1  0.66560702  0.66667613  -0.00002677  1
  Fe  Fe25  1  0.83260810  0.83263601  0.16593793  1
  Cr  Cr26  1  0.66639164  0.66540436  0.33221069  1
  Fe  Fe27  1  0.16546629  0.16541191  0.49881957  1
  Fe  Fe28  1  -0.00002630  -0.00001476  0.66563194  1
  Fe  Fe29  1  0.16506169  0.16686521  0.83264636  1
  Fe  Fe30  1  0.16545385  0.49984756  0.49879261  1
  Fe  Fe31  1  0.99810456  0.33245761  0.66604079  1
  Fe  Fe32  1  0.16627827  0.49824039  0.83266589  1
  Fe  Fe33  1  0.16599563  0.83265157  0.49948405  1
  Fe  Fe34  1  0.99876060  0.66546740  0.66562115  1
  Cr  Cr35  1  0.16679986  0.83282862  0.83055515  1
  Fe  Fe36  1  0.49880203  0.16647488  0.49894629  1
  Fe  Fe37  1  0.33107999  0.99879995  0.66439075  1
  Cr  Cr38  1  0.49891283  0.16576266  0.83367746  1
  Fe  Fe39  1  0.49933687  0.49930646  0.49933241  1
  Cr  Cr40  1  0.33221086  0.33348871  0.66662283  1
  Fe  Fe41  1  0.49915655  0.50051467  0.83263797  1
  Fe  Fe42  1  0.49773347  0.83212935  0.50000998  1
  Fe  Fe43  1  0.33282018  0.66611479  0.66492927  1
  Cr  Cr44  1  0.49928356  0.83141111  0.83410395  1
  Fe  Fe45  1  0.83364391  0.16701865  0.49931079  1
  Cr  Cr46  1  0.66754348  0.99897120  0.66547693  1
  Fe  Fe47  1  0.83422300  0.16619412  0.83211825  1
  Fe  Fe48  1  0.83311941  0.49877519  0.49983453  1
  Fe  Fe49  1  0.66751345  0.33420490  0.66559582  1
  Fe  Fe50  1  0.83247029  0.49944912  0.83158834  1
  Fe  Fe51  1  0.83418486  0.83211577  0.49983571  1
  Fe  Fe52  1  0.66632793  0.66425003  0.66532213  1
  Fe  Fe53  1  0.83195009  0.83226740  0.83213149  1
" 