4885,Fe19Cr81_10,-221.334994691311, 136.103501958558,Fe19Cr81,"# generated using pymatgen
 data_Cr5Fe22
_symmetry_space_group_name_H-M   'P 1'
_cell_length_a   7.46866588
_cell_length_b   7.46866588
_cell_length_c   10.56228857
_cell_angle_alpha   90.00000000
_cell_angle_beta   90.00000000
_cell_angle_gamma   90.00000000
_symmetry_Int_Tables_number   1
_chemical_formula_structural   Cr5Fe22
_chemical_formula_sum   'Cr10 Fe44'
_cell_volume   589.17470178
_cell_formula_units_Z   2
loop_
 _symmetry_equiv_pos_site_id
 _symmetry_equiv_pos_as_xyz
  1  'x, y, z'
loop_
 _atom_site_type_symbol
 _atom_site_label
 _atom_site_symmetry_multiplicity
 _atom_site_fract_x
 _atom_site_fract_y
 _atom_site_fract_z
 _atom_site_occupancy
  Fe  Fe0  1  0.99630140  0.00082149  0.99870970  1
  Cr  Cr1  1  0.16706339  0.16620021  0.16389088  1
  Fe  Fe2  1  0.99709681  0.99808407  0.33450104  1
  Fe  Fe3  1  0.99807600  0.33229227  0.99898072  1
  Cr  Cr4  1  0.16702697  0.50043035  0.16599635  1
  Cr  Cr5  1  0.99829486  0.33312085  0.33292938  1
  Fe  Fe6  1  0.99574957  0.66633363  0.99961451  1
  Cr  Cr7  1  0.16649842  0.83299098  0.16773462  1
  Fe  Fe8  1  0.99949948  0.66779055  0.33580060  1
  Fe  Fe9  1  0.33578790  0.00192982  0.99791173  1
  Fe  Fe10  1  0.50002940  0.16711322  0.16789181  1
  Fe  Fe11  1  0.33503860  0.00009280  0.33475943  1
  Fe  Fe12  1  0.33499040  0.33236180  0.99829927  1
  Fe  Fe13  1  0.49870708  0.49872473  0.16689973  1
  Fe  Fe14  1  0.33666362  0.33393334  0.33416960  1
  Fe  Fe15  1  0.33633553  0.66521484  0.99883003  1
  Cr  Cr16  1  0.50128549  0.83430166  0.16475436  1
  Fe  Fe17  1  0.33283106  0.66567962  0.33600867  1
  Fe  Fe18  1  0.66791039  -0.00004506  0.99814414  1
  Fe  Fe19  1  0.83168673  0.16354398  0.16680131  1
  Fe  Fe20  1  0.66771000  0.00222411  0.33411913  1
  Cr  Cr21  1  0.66653756  0.33403600  0.00162310  1
  Fe  Fe22  1  0.83316764  0.50177128  0.16573901  1
  Fe  Fe23  1  0.66466476  0.33145692  0.33288683  1
  Fe  Fe24  1  0.66782722  0.66746663  0.99885204  1
  Fe  Fe25  1  0.83451338  0.83431657  0.16551622  1
  Cr  Cr26  1  0.66680470  0.66585712  0.33252335  1
  Cr  Cr27  1  0.16644839  0.16667538  0.50156761  1
  Fe  Fe28  1  0.99794868  0.99946494  0.66687882  1
  Fe  Fe29  1  0.16639844  0.16627263  0.83288679  1
  Fe  Fe30  1  0.16713229  0.50182417  0.50096514  1
  Fe  Fe31  1  0.99769940  0.33321490  0.66623246  1
  Cr  Cr32  1  0.16574209  0.49823417  0.83306084  1
  Fe  Fe33  1  0.16653119  0.83177174  0.50018697  1
  Fe  Fe34  1  0.99860122  0.66686852  0.66520504  1
  Cr  Cr35  1  0.16696104  0.83334401  0.83389453  1
  Fe  Fe36  1  0.50209446  0.16662777  0.50026468  1
  Fe  Fe37  1  0.33541327  0.99951203  0.66681582  1
  Fe  Fe38  1  0.49902464  0.16612238  0.83239681  1
  Fe  Fe39  1  0.49935988  0.49854718  0.50100580  1
  Fe  Fe40  1  0.33547074  0.33326646  0.66673762  1
  Fe  Fe41  1  0.50099905  0.50105411  0.83219243  1
  Fe  Fe42  1  0.49936738  0.83444865  0.50034762  1
  Fe  Fe43  1  0.33470163  0.66676230  0.66520323  1
  Fe  Fe44  1  0.50189720  0.83275897  0.83336743  1
  Fe  Fe45  1  0.83041979  0.16586039  0.50109108  1
  Fe  Fe46  1  0.66639060  0.99973281  0.66673766  1
  Fe  Fe47  1  0.83424634  0.16620900  0.83235857  1
  Fe  Fe48  1  0.83293880  0.49943655  0.50188583  1
  Fe  Fe49  1  0.66644716  0.33312644  0.66710291  1
  Fe  Fe50  1  0.83196917  0.50098740  0.83214876  1
  Fe  Fe51  1  0.83374593  0.83441953  0.50089371  1
  Fe  Fe52  1  0.66640010  0.66682262  0.66598216  1
  Fe  Fe53  1  0.83170257  0.83274096  0.83285188  1
" 