5509,Fe19Cr81_7,-221.427969871155, 137.786998937817,Fe19Cr81,"# generated using pymatgen
 data_Cr5Fe22
_symmetry_space_group_name_H-M   'P 1'
_cell_length_a   7.47754120
_cell_length_b   7.47754120
_cell_length_c   10.57484018
_cell_angle_alpha   90.00000000
_cell_angle_beta   90.00000000
_cell_angle_gamma   90.00000000
_symmetry_Int_Tables_number   1
_chemical_formula_structural   Cr5Fe22
_chemical_formula_sum   'Cr10 Fe44'
_cell_volume   591.27762011
_cell_formula_units_Z   2
loop_
 _symmetry_equiv_pos_site_id
 _symmetry_equiv_pos_as_xyz
  1  'x, y, z'
loop_
 _atom_site_type_symbol
 _atom_site_label
 _atom_site_symmetry_multiplicity
 _atom_site_fract_x
 _atom_site_fract_y
 _atom_site_fract_z
 _atom_site_occupancy
  Fe  Fe0  1  -0.00020506  -0.00021910  0.99880494  1
  Fe  Fe1  1  0.16628785  0.16631032  0.16533812  1
  Fe  Fe2  1  -0.00005763  0.00090885  0.33410760  1
  Fe  Fe3  1  0.99928976  0.33362530  -0.00069527  1
  Fe  Fe4  1  0.16566165  0.49830177  0.16498268  1
  Fe  Fe5  1  0.99881317  0.33215135  0.33312114  1
  Fe  Fe6  1  -0.00022267  0.66449271  0.99879590  1
  Cr  Cr7  1  0.16731332  0.83339504  0.16498490  1
  Cr  Cr8  1  0.99859616  0.66532270  0.33327396  1
  Fe  Fe9  1  0.33360491  -0.00069194  -0.00068972  1
  Fe  Fe10  1  0.49880069  0.16517117  0.16546773  1
  Fe  Fe11  1  0.33296758  0.99866646  0.33309795  1
  Fe  Fe12  1  0.33310930  0.33309928  -0.00005442  1
  Fe  Fe13  1  0.49993552  0.49994836  0.16549560  1
  Cr  Cr14  1  0.33284288  0.33140672  0.33162417  1
  Fe  Fe15  1  0.33309732  0.66548950  0.99879468  1
  Fe  Fe16  1  0.49944611  0.83277207  0.16597612  1
  Fe  Fe17  1  0.33409385  0.66644766  0.33313406  1
  Fe  Fe18  1  0.66449535  -0.00020295  0.99878931  1
  Cr  Cr19  1  0.83321671  0.16673586  0.16596340  1
  Fe  Fe20  1  0.66498701  0.99929381  0.33362302  1
  Fe  Fe21  1  0.66549666  0.33311595  0.99864595  1
  Fe  Fe22  1  0.83229589  0.49895112  0.16547331  1
  Fe  Fe23  1  0.66661109  0.33328390  0.33327306  1
  Fe  Fe24  1  0.66501980  0.66498365  0.99915519  1
  Cr  Cr25  1  0.83119569  0.83236589  0.16590234  1
  Fe  Fe26  1  0.66436342  0.66532016  0.33327961  1
  Fe  Fe27  1  0.16544510  0.16548722  0.49991946  1
  Fe  Fe28  1  0.99899606  0.00027300  0.66498146  1
  Cr  Cr29  1  0.16568359  0.16648649  0.83232831  1
  Fe  Fe30  1  0.16646400  0.49879905  0.49979968  1
  Fe  Fe31  1  -0.00037095  0.33230145  0.66546785  1
  Fe  Fe32  1  0.16630166  0.49993792  0.83311242  1
  Fe  Fe33  1  0.16693109  0.83360713  0.49915816  1
  Cr  Cr34  1  0.00074397  0.66590641  0.66630470  1
  Fe  Fe35  1  0.16742128  0.83214782  0.83327767  1
  Fe  Fe36  1  0.49930733  0.16499742  0.49930431  1
  Fe  Fe37  1  0.33326574  0.99866134  0.66548338  1
  Fe  Fe38  1  0.49995130  0.16532080  0.83312192  1
  Fe  Fe39  1  0.49880084  0.49979568  0.49880057  1
  Fe  Fe40  1  0.33213747  0.33342244  0.66532800  1
  Fe  Fe41  1  0.49832033  0.49930711  0.83359597  1
  Fe  Fe42  1  0.49881810  0.83309733  0.49879243  1
  Fe  Fe43  1  0.33275761  0.66581300  0.66596337  1
  Fe  Fe44  1  0.49768711  0.83326276  0.83312399  1
  Fe  Fe45  1  0.83314183  0.16546995  0.49867243  1
  Fe  Fe46  1  0.66563123  -0.00034581  0.66548690  1
  Fe  Fe47  1  0.83215723  0.16644926  0.83326268  1
  Fe  Fe48  1  0.83262985  0.49830928  0.49830423  1
  Cr  Cr49  1  0.66544927  0.33115763  0.66666795  1
  Fe  Fe50  1  0.83327480  0.49767573  0.83412040  1
  Fe  Fe51  1  0.83214635  0.83411471  0.49879523  1
  Cr  Cr52  1  0.66554312  0.66622861  0.66528992  1
  Cr  Cr53  1  0.83241797  0.83398027  0.83398086  1
" 