6082,Fe19Cr81_1,-221.206556819677, 137.802500692106,Fe19Cr81,"# generated using pymatgen
 data_Cr5Fe22
_symmetry_space_group_name_H-M   'P 1'
_cell_length_a   7.46975284
_cell_length_b   7.46975284
_cell_length_c   10.56382577
_cell_angle_alpha   90.00000000
_cell_angle_beta   90.00000000
_cell_angle_gamma   90.00000000
_symmetry_Int_Tables_number   1
_chemical_formula_structural   Cr5Fe22
_chemical_formula_sum   'Cr10 Fe44'
_cell_volume   589.43197826
_cell_formula_units_Z   2
loop_
 _symmetry_equiv_pos_site_id
 _symmetry_equiv_pos_as_xyz
  1  'x, y, z'
loop_
 _atom_site_type_symbol
 _atom_site_label
 _atom_site_symmetry_multiplicity
 _atom_site_fract_x
 _atom_site_fract_y
 _atom_site_fract_z
 _atom_site_occupancy
  Cr  Cr0  1  0.99905955  0.00376546  0.99979945  1
  Fe  Fe1  1  0.16609786  0.16762919  0.16962589  1
  Fe  Fe2  1  0.00022230  0.00044895  0.33360972  1
  Fe  Fe3  1  0.00192594  0.33522800  0.00158670  1
  Fe  Fe4  1  0.16554259  0.49981488  0.16893023  1
  Fe  Fe5  1  0.99913195  0.33361481  0.33360250  1
  Fe  Fe6  1  0.00267297  0.66717680  0.00127294  1
  Fe  Fe7  1  0.16695710  0.83293657  0.16986312  1
  Fe  Fe8  1  0.00087971  0.66555297  0.33472127  1
  Cr  Cr9  1  0.33015929  0.99746589  0.00044438  1
  Fe  Fe10  1  0.50020206  0.16621574  0.16759098  1
  Fe  Fe11  1  0.33349125  0.00007502  0.33301693  1
  Fe  Fe12  1  0.33128060  0.33234760  0.00175554  1
  Fe  Fe13  1  0.50028122  0.49760434  0.16800492  1
  Fe  Fe14  1  0.33370798  0.33340282  0.33319398  1
  Cr  Cr15  1  0.33468409  0.66579992  0.00110168  1
  Fe  Fe16  1  0.49924989  0.83345575  0.16927027  1
  Fe  Fe17  1  0.33137112  0.66615947  0.33384446  1
  Fe  Fe18  1  0.66437636  0.00007358  0.00075469  1
  Fe  Fe19  1  0.83223579  0.16810777  0.16839880  1
  Fe  Fe20  1  0.66635376  0.00047062  0.33441850  1
  Fe  Fe21  1  0.66615418  0.33211700  0.00102417  1
  Fe  Fe22  1  0.83334295  0.49741182  0.16658633  1
  Fe  Fe23  1  0.66666527  0.33030417  0.33506880  1
  Fe  Fe24  1  0.66640876  0.66650745  0.00182676  1
  Cr  Cr25  1  0.83343521  0.83157892  0.16721979  1
  Cr  Cr26  1  0.66491204  0.66315842  0.33658117  1
  Fe  Fe27  1  0.16675196  0.16668820  0.49814602  1
  Fe  Fe28  1  0.00008041  0.00132464  0.66494195  1
  Fe  Fe29  1  0.16292780  0.16835415  0.83121672  1
  Fe  Fe30  1  0.16667433  0.49897498  0.49827630  1
  Fe  Fe31  1  0.00263371  0.33365429  0.66474891  1
  Fe  Fe32  1  0.16875654  0.49807434  0.83297685  1
  Fe  Fe33  1  0.16606836  0.83423928  0.49844929  1
  Fe  Fe34  1  0.00042886  0.66578970  0.66374046  1
  Fe  Fe35  1  0.16588512  0.83304669  0.83129840  1
  Fe  Fe36  1  0.49812345  0.16546762  0.49853354  1
  Fe  Fe37  1  0.33133539  0.00102684  0.66496421  1
  Cr  Cr38  1  0.49621291  0.16687385  0.83234608  1
  Fe  Fe39  1  0.49701303  0.49794013  0.49863228  1
  Fe  Fe40  1  0.33177049  0.33264018  0.66430625  1
  Fe  Fe41  1  0.50167882  0.50018812  0.83322755  1
  Fe  Fe42  1  0.49840590  0.83532815  0.49899780  1
  Cr  Cr43  1  0.33489298  0.66673161  0.66619490  1
  Fe  Fe44  1  0.50092542  0.83239216  0.83216799  1
  Fe  Fe45  1  0.83524718  0.16502554  0.49811867  1
  Fe  Fe46  1  0.66531458  0.99911851  0.66382409  1
  Fe  Fe47  1  0.83228996  0.16803740  0.83201850  1
  Fe  Fe48  1  0.83684075  0.49918561  0.49912347  1
  Cr  Cr49  1  0.66855993  0.33424669  0.66253793  1
  Cr  Cr50  1  0.83585598  0.50228282  0.83472242  1
  Fe  Fe51  1  0.83475376  0.83451400  0.49979026  1
  Fe  Fe52  1  0.66785459  0.66742977  0.66231857  1
  Cr  Cr53  1  0.83213775  0.83322254  0.83148836  1
" 