64,Fe19Cr81_14,-221.388470393798, 134.708716945716,Fe19Cr81,"# generated using pymatgen
 data_Cr5Fe22
_symmetry_space_group_name_H-M   'P 1'
_cell_length_a   7.48541123
_cell_length_b   7.48541123
_cell_length_c   10.58597008
_cell_angle_alpha   90.00000000
_cell_angle_beta   90.00000000
_cell_angle_gamma   90.00000000
_symmetry_Int_Tables_number   1
_chemical_formula_structural   Cr5Fe22
_chemical_formula_sum   'Cr10 Fe44'
_cell_volume   593.14652597
_cell_formula_units_Z   2
loop_
 _symmetry_equiv_pos_site_id
 _symmetry_equiv_pos_as_xyz
  1  'x, y, z'
loop_
 _atom_site_type_symbol
 _atom_site_label
 _atom_site_symmetry_multiplicity
 _atom_site_fract_x
 _atom_site_fract_y
 _atom_site_fract_z
 _atom_site_occupancy
  Fe  Fe0  1  -0.00076088  0.99790471  0.99815055  1
  Fe  Fe1  1  0.16669194  0.16515943  0.16366894  1
  Cr  Cr2  1  -0.00051585  0.99638186  0.33251602  1
  Fe  Fe3  1  -0.00056670  0.33304750  -0.00093626  1
  Fe  Fe4  1  0.16454658  0.49781534  0.16388842  1
  Fe  Fe5  1  -0.00110239  0.33451259  0.33204960  1
  Fe  Fe6  1  0.99712662  0.66530889  0.99826590  1
  Cr  Cr7  1  0.16627547  0.82998453  0.16458436  1
  Fe  Fe8  1  0.99869282  0.66259296  0.33282902  1
  Fe  Fe9  1  0.33253829  -0.00016812  0.99732124  1
  Fe  Fe10  1  0.49810243  0.16466283  0.16426519  1
  Fe  Fe11  1  0.33297806  0.99848382  0.33390708  1
  Fe  Fe12  1  0.33218635  0.33102566  0.00029618  1
  Fe  Fe13  1  0.49969461  0.49794870  0.16448871  1
  Cr  Cr14  1  0.33161119  0.33061372  0.33008678  1
  Fe  Fe15  1  0.33249697  0.66554236  0.99861463  1
  Cr  Cr16  1  0.49789345  0.83018708  0.16745639  1
  Fe  Fe17  1  0.33016317  0.66565452  0.33343325  1
  Fe  Fe18  1  0.66465105  0.99769494  0.99804982  1
  Cr  Cr19  1  0.83192105  0.16583039  0.16589583  1
  Fe  Fe20  1  0.66321339  0.99868120  0.33306277  1
  Fe  Fe21  1  0.66498807  0.33280255  -0.00082406  1
  Fe  Fe22  1  0.83214005  0.50105291  0.16530520  1
  Fe  Fe23  1  0.66598345  0.33342769  0.33162668  1
  Fe  Fe24  1  0.66679459  0.66575275  0.99876522  1
  Fe  Fe25  1  0.83148089  0.83022909  0.16476322  1
  Fe  Fe26  1  0.66738086  0.66526600  0.33246182  1
  Fe  Fe27  1  0.16697660  0.16554292  0.50015693  1
  Fe  Fe28  1  0.00040974  0.99680345  0.66487861  1
  Fe  Fe29  1  0.16725845  0.16495914  0.83200297  1
  Fe  Fe30  1  0.16300962  0.49878514  0.50007709  1
  Fe  Fe31  1  -0.00035149  0.33305825  0.66484934  1
  Cr  Cr32  1  0.16646618  0.50056875  0.83132550  1
  Fe  Fe33  1  0.16635166  0.83094411  0.49939329  1
  Fe  Fe34  1  0.99802846  0.66659832  0.66476236  1
  Fe  Fe35  1  0.16537641  0.83407846  0.83262055  1
  Fe  Fe36  1  0.49808604  0.16428318  0.49972160  1
  Fe  Fe37  1  0.33213792  0.99852342  0.66555503  1
  Fe  Fe38  1  0.49729051  0.16506318  0.83196256  1
  Cr  Cr39  1  0.49773717  0.50134849  0.49999674  1
  Fe  Fe40  1  0.33161006  0.33005175  0.66460082  1
  Cr  Cr41  1  0.49849947  0.50061176  0.83218621  1
  Fe  Fe42  1  0.49922601  0.83430060  0.49844723  1
  Fe  Fe43  1  0.33136830  0.66899397  0.66479407  1
  Fe  Fe44  1  0.49860106  0.83395013  0.83246469  1
  Cr  Cr45  1  0.83190862  0.16618032  0.49907819  1
  Fe  Fe46  1  0.66397117  0.99709601  0.66560474  1
  Cr  Cr47  1  0.83286373  0.16483410  0.83133397  1
  Fe  Fe48  1  0.83292599  0.50022245  0.49924560  1
  Fe  Fe49  1  0.66509162  0.33256248  0.66556340  1
  Fe  Fe50  1  0.83233650  0.49986403  0.83189182  1
  Fe  Fe51  1  0.83092516  0.82988140  0.49944500  1
  Fe  Fe52  1  0.66675829  0.66726138  0.66574685  1
  Fe  Fe53  1  0.83229334  0.82999905  0.83206444  1
" 