2217,Fe19Cr81_11,-221.446215420712, 132.146790496332,Fe19Cr81,"# generated using pymatgen
 data_Cr5Fe22
_symmetry_space_group_name_H-M   'P 1'
_cell_length_a   7.48002241
_cell_length_b   7.48002241
_cell_length_c   10.57834914
_cell_angle_alpha   90.00000000
_cell_angle_beta   90.00000000
_cell_angle_gamma   90.00000000
_symmetry_Int_Tables_number   1
_chemical_formula_structural   Cr5Fe22
_chemical_formula_sum   'Cr10 Fe44'
_cell_volume   591.86641250
_cell_formula_units_Z   2
loop_
 _symmetry_equiv_pos_site_id
 _symmetry_equiv_pos_as_xyz
  1  'x, y, z'
loop_
 _atom_site_type_symbol
 _atom_site_label
 _atom_site_symmetry_multiplicity
 _atom_site_fract_x
 _atom_site_fract_y
 _atom_site_fract_z
 _atom_site_occupancy
  Fe  Fe0  1  0.00018070  0.00018232  0.99821413  1
  Fe  Fe1  1  0.16542847  0.16707462  0.16444992  1
  Cr  Cr2  1  0.00183340  0.00124341  0.33054129  1
  Fe  Fe3  1  -0.00071558  0.33248579  0.99909720  1
  Fe  Fe4  1  0.16499894  0.49817871  0.16470524  1
  Fe  Fe5  1  0.00033347  0.33338773  0.33139252  1
  Fe  Fe6  1  0.00015189  0.66476645  0.99861739  1
  Fe  Fe7  1  0.16952346  0.83215812  0.16411858  1
  Cr  Cr8  1  0.00022951  0.66339786  0.33288584  1
  Fe  Fe9  1  0.33168937  0.99851165  0.99829211  1
  Cr  Cr10  1  0.49868521  0.16577331  0.16632649  1
  Fe  Fe11  1  0.33309802  0.99798703  0.33327099  1
  Fe  Fe12  1  0.33083821  0.33240854  0.99757355  1
  Cr  Cr13  1  0.49751772  0.49985306  0.16515312  1
  Fe  Fe14  1  0.32996742  0.33263512  0.33394722  1
  Fe  Fe15  1  0.33155117  0.66652238  0.99815692  1
  Fe  Fe16  1  0.49744255  0.83249401  0.16562184  1
  Fe  Fe17  1  0.33292309  0.66682909  0.33329057  1
  Fe  Fe18  1  0.66549763  -0.00054311  0.99698697  1
  Fe  Fe19  1  0.83271029  0.16873776  0.16503105  1
  Fe  Fe20  1  0.66319287  0.99846791  0.33277886  1
  Fe  Fe21  1  0.66712476  0.33248675  0.99758120  1
  Fe  Fe22  1  0.83266231  0.49658164  0.16483229  1
  Fe  Fe23  1  0.66680963  0.33389099  0.33281884  1
  Fe  Fe24  1  0.66558867  0.66554401  0.99702572  1
  Cr  Cr25  1  0.83155470  0.83290747  0.16433585  1
  Fe  Fe26  1  0.66372279  0.66518246  0.33339712  1
  Fe  Fe27  1  0.16861962  0.16725920  0.49936875  1
  Cr  Cr28  1  0.00168154  -0.00076766  0.66740403  1
  Fe  Fe29  1  0.16687407  0.16690252  0.83343027  1
  Fe  Fe30  1  0.16626327  0.49804390  0.50032057  1
  Fe  Fe31  1  -0.00070682  0.33477789  0.66665410  1
  Fe  Fe32  1  0.16590094  0.49911851  0.83248323  1
  Fe  Fe33  1  0.16940053  0.83200476  0.49984284  1
  Fe  Fe34  1  0.00136443  0.66346241  0.66652568  1
  Fe  Fe35  1  0.16683171  0.83136590  0.83352649  1
  Fe  Fe36  1  0.49676179  0.16645250  0.49798033  1
  Fe  Fe37  1  0.33296101  0.99891594  0.66597524  1
  Fe  Fe38  1  0.49787673  0.16695219  0.83389491  1
  Fe  Fe39  1  0.49867291  0.49807539  0.49793558  1
  Fe  Fe40  1  0.33297467  0.33217717  0.66593050  1
  Fe  Fe41  1  0.49798449  0.49819936  0.83374691  1
  Fe  Fe42  1  0.49640165  0.83271338  0.49779258  1
  Fe  Fe43  1  0.33093573  0.66633042  0.66590770  1
  Fe  Fe44  1  0.49726560  0.83217281  0.83418385  1
  Cr  Cr45  1  0.83188072  0.16738345  0.49785983  1
  Cr  Cr46  1  0.66363891  0.00014831  0.66761466  1
  Fe  Fe47  1  0.83271223  0.16757539  0.83388468  1
  Fe  Fe48  1  0.83248046  0.49739665  0.49929077  1
  Fe  Fe49  1  0.66505240  0.33276244  0.66680847  1
  Fe  Fe50  1  0.83351232  0.49827369  0.83339851  1
  Cr  Cr51  1  0.83305467  0.83138313  0.49987340  1
  Cr  Cr52  1  0.66488314  0.66346263  0.66624372  1
  Fe  Fe53  1  0.83334651  0.83147859  0.83484553  1
" 