5696,Fe19Cr81_18,-221.486691194972, 135.794790817609,Fe19Cr81,"# generated using pymatgen
 data_Cr5Fe22
_symmetry_space_group_name_H-M   'P 1'
_cell_length_a   7.47615084
_cell_length_b   7.47615084
_cell_length_c   10.57287391
_cell_angle_alpha   90.00000000
_cell_angle_beta   90.00000000
_cell_angle_gamma   90.00000000
_symmetry_Int_Tables_number   1
_chemical_formula_structural   Cr5Fe22
_chemical_formula_sum   'Cr10 Fe44'
_cell_volume   590.94785864
_cell_formula_units_Z   2
loop_
 _symmetry_equiv_pos_site_id
 _symmetry_equiv_pos_as_xyz
  1  'x, y, z'
loop_
 _atom_site_type_symbol
 _atom_site_label
 _atom_site_symmetry_multiplicity
 _atom_site_fract_x
 _atom_site_fract_y
 _atom_site_fract_z
 _atom_site_occupancy
  Fe  Fe0  1  0.99799526  -0.00030386  0.00090097  1
  Fe  Fe1  1  0.16681951  0.16722924  0.16389486  1
  Cr  Cr2  1  0.99892683  0.00380516  0.33253971  1
  Fe  Fe3  1  0.99808313  0.33291877  0.00018919  1
  Fe  Fe4  1  0.16556232  0.49661206  0.16632457  1
  Fe  Fe5  1  -0.00021378  0.33521714  0.33263129  1
  Cr  Cr6  1  0.00007102  0.66674663  -0.00010896  1
  Fe  Fe7  1  0.16634356  0.83481522  0.16622424  1
  Fe  Fe8  1  0.99872128  0.66411438  0.33060059  1
  Fe  Fe9  1  0.33420922  0.99910238  0.00042879  1
  Fe  Fe10  1  0.49963516  0.16635284  0.16610882  1
  Fe  Fe11  1  0.33327768  0.00095729  0.33104615  1
  Fe  Fe12  1  0.33431986  0.33262079  0.00027169  1
  Fe  Fe13  1  0.50028128  0.49629587  0.16697038  1
  Fe  Fe14  1  0.33026769  0.33058507  0.33108128  1
  Cr  Cr15  1  0.33295188  0.66519833  0.99755099  1
  Fe  Fe16  1  0.50025715  0.83523014  0.16607683  1
  Cr  Cr17  1  0.33366418  0.66619253  0.33182367  1
  Fe  Fe18  1  0.66609648  0.00022883  0.99919040  1
  Fe  Fe19  1  0.83152159  0.16736730  0.16469176  1
  Fe  Fe20  1  0.66407995  0.99933901  0.33109166  1
  Fe  Fe21  1  0.66589238  0.33160049  0.99912335  1
  Fe  Fe22  1  0.83262866  0.49745611  0.16712643  1
  Fe  Fe23  1  0.66817235  0.33194718  0.33114934  1
  Cr  Cr24  1  0.66515344  0.66520413  0.99881816  1
  Fe  Fe25  1  0.83169907  0.83381028  0.16713059  1
  Fe  Fe26  1  0.66800563  0.66573313  0.33001765  1
  Fe  Fe27  1  0.16493452  0.16900004  0.50117428  1
  Fe  Fe28  1  0.99761197  0.00118957  0.66660428  1
  Cr  Cr29  1  0.16649576  0.16546899  0.83462756  1
  Fe  Fe30  1  0.16441433  0.49769191  0.50022605  1
  Fe  Fe31  1  0.99855523  0.33292969  0.66582874  1
  Fe  Fe32  1  0.16556456  0.49868250  0.83104453  1
  Cr  Cr33  1  0.16552348  0.83331448  0.50171392  1
  Fe  Fe34  1  0.99878993  0.66395809  0.66837539  1
  Fe  Fe35  1  0.16560795  0.83284098  0.83033972  1
  Cr  Cr36  1  0.49823198  0.16597642  0.49886052  1
  Fe  Fe37  1  0.33396642  0.99936366  0.66728142  1
  Fe  Fe38  1  0.50118113  0.16626115  0.83264868  1
  Cr  Cr39  1  0.50145670  0.49891567  0.49943453  1
  Fe  Fe40  1  0.33187789  0.33325965  0.66693454  1
  Fe  Fe41  1  0.49923195  0.49645142  0.83048282  1
  Fe  Fe42  1  0.49987637  0.83299777  0.50053580  1
  Fe  Fe43  1  0.33321580  0.66549532  0.66807423  1
  Fe  Fe44  1  0.49920510  0.83527357  0.83111524  1
  Fe  Fe45  1  0.83262847  0.16828083  0.50045816  1
  Fe  Fe46  1  0.66624786  -0.00009682  0.66734691  1
  Fe  Fe47  1  0.83148555  0.16614651  0.83321906  1
  Fe  Fe48  1  0.83457602  0.49731565  0.49949706  1
  Fe  Fe49  1  0.66784134  0.33208744  0.66760917  1
  Fe  Fe50  1  0.83336141  0.49713760  0.83176969  1
  Cr  Cr51  1  0.83130378  0.83025144  0.49901740  1
  Fe  Fe52  1  0.66618491  0.66575357  0.66880053  1
  Fe  Fe53  1  0.83333061  0.83480027  0.83120921  1
" 