2283,Fe19Cr81_19,-221.382719648308, 137.836527022378,Fe19Cr81,"# generated using pymatgen
 data_Cr5Fe22
_symmetry_space_group_name_H-M   'P 1'
_cell_length_a   7.47118061
_cell_length_b   7.47118061
_cell_length_c   10.56584494
_cell_angle_alpha   90.00000000
_cell_angle_beta   90.00000000
_cell_angle_gamma   90.00000000
_symmetry_Int_Tables_number   1
_chemical_formula_structural   Cr5Fe22
_chemical_formula_sum   'Cr10 Fe44'
_cell_volume   589.77003536
_cell_formula_units_Z   2
loop_
 _symmetry_equiv_pos_site_id
 _symmetry_equiv_pos_as_xyz
  1  'x, y, z'
loop_
 _atom_site_type_symbol
 _atom_site_label
 _atom_site_symmetry_multiplicity
 _atom_site_fract_x
 _atom_site_fract_y
 _atom_site_fract_z
 _atom_site_occupancy
  Cr  Cr0  1  0.99959662  0.00011485  0.00364663  1
  Fe  Fe1  1  0.16782637  0.16892576  0.16682886  1
  Fe  Fe2  1  -0.00013845  0.99888362  0.33119770  1
  Cr  Cr3  1  -0.00009016  0.33429617  0.99615237  1
  Fe  Fe4  1  0.16694190  0.49986791  0.16703901  1
  Fe  Fe5  1  0.99939683  0.33255254  0.33061395  1
  Fe  Fe6  1  0.00039102  0.66594504  0.00053786  1
  Fe  Fe7  1  0.16757984  0.83092504  0.16694281  1
  Fe  Fe8  1  0.99837836  0.66795616  0.33119506  1
  Fe  Fe9  1  0.33395501  -0.00004513  0.00076346  1
  Fe  Fe10  1  0.49912741  0.16793101  0.16508258  1
  Cr  Cr11  1  0.33198449  0.00069440  0.33468900  1
  Fe  Fe12  1  0.33408584  0.33333561  0.99861103  1
  Fe  Fe13  1  0.49943851  0.49960032  0.16530383  1
  Fe  Fe14  1  0.33539817  0.33428837  0.33184315  1
  Fe  Fe15  1  0.33204010  0.66579990  -0.00006663  1
  Fe  Fe16  1  0.49882807  0.83132939  0.16470682  1
  Fe  Fe17  1  0.33526358  0.66589051  0.33155669  1
  Fe  Fe18  1  0.66451119  0.00076041  0.00197143  1
  Fe  Fe19  1  0.83206532  0.16895328  0.16701182  1
  Cr  Cr20  1  0.66720465  0.99737087  0.33163301  1
  Fe  Fe21  1  0.66545977  0.33297505  -0.00026711  1
  Fe  Fe22  1  0.83276398  0.49971620  0.16624682  1
  Fe  Fe23  1  0.66516044  0.33430344  0.33152690  1
  Fe  Fe24  1  0.66614794  0.66513259  0.00077148  1
  Fe  Fe25  1  0.83218993  0.82993325  0.16553781  1
  Fe  Fe26  1  0.66584288  0.66396278  0.33193181  1
  Fe  Fe27  1  0.16724183  0.16679942  0.49886176  1
  Cr  Cr28  1  0.00130972  0.99885246  0.66436142  1
  Fe  Fe29  1  0.16817843  0.16449539  0.83310619  1
  Cr  Cr30  1  0.16621268  0.49975104  0.49745528  1
  Fe  Fe31  1  0.99923727  0.33488775  0.66882664  1
  Fe  Fe32  1  0.16717470  0.50269073  0.83261682  1
  Fe  Fe33  1  0.16495211  0.83199107  0.49897026  1
  Fe  Fe34  1  -0.00022220  0.66407894  0.66695318  1
  Fe  Fe35  1  0.16761681  0.83261345  0.83427032  1
  Fe  Fe36  1  0.49977077  0.16850860  0.49986697  1
  Fe  Fe37  1  0.33373405  0.99964910  0.66741973  1
  Fe  Fe38  1  0.50109885  0.16526286  0.83469116  1
  Fe  Fe39  1  0.50244275  0.49828263  0.49884546  1
  Cr  Cr40  1  0.33469791  0.33348511  0.66670234  1
  Fe  Fe41  1  0.50085932  0.50127387  0.83470209  1
  Cr  Cr42  1  0.50005087  0.83147813  0.50334661  1
  Fe  Fe43  1  0.33152899  0.66738369  0.66823142  1
  Fe  Fe44  1  0.49768103  0.83286333  0.83351614  1
  Cr  Cr45  1  0.83307438  0.16785729  0.49961387  1
  Fe  Fe46  1  0.66424633  0.00173109  0.66719476  1
  Fe  Fe47  1  0.83102074  0.16721985  0.83201259  1
  Fe  Fe48  1  0.83160194  0.50142260  0.49905262  1
  Fe  Fe49  1  0.66769021  0.33419600  0.66774742  1
  Fe  Fe50  1  0.83116516  0.50021370  0.83257435  1
  Fe  Fe51  1  0.83418025  0.82940036  0.49997087  1
  Fe  Fe52  1  0.66623211  0.66359484  0.66748131  1
  Cr  Cr53  1  0.83093719  0.83368119  0.83366409  1
" 