4280,Fe19Cr81_8,-221.378893329962, 134.46149657545,Fe19Cr81,"# generated using pymatgen
 data_Cr5Fe22
_symmetry_space_group_name_H-M   'P 1'
_cell_length_a   7.48139609
_cell_length_b   7.48139609
_cell_length_c   10.58029182
_cell_angle_alpha   90.00000000
_cell_angle_beta   90.00000000
_cell_angle_gamma   90.00000000
_symmetry_Int_Tables_number   1
_chemical_formula_structural   Cr5Fe22
_chemical_formula_sum   'Cr10 Fe44'
_cell_volume   592.19255479
_cell_formula_units_Z   2
loop_
 _symmetry_equiv_pos_site_id
 _symmetry_equiv_pos_as_xyz
  1  'x, y, z'
loop_
 _atom_site_type_symbol
 _atom_site_label
 _atom_site_symmetry_multiplicity
 _atom_site_fract_x
 _atom_site_fract_y
 _atom_site_fract_z
 _atom_site_occupancy
  Fe  Fe0  1  -0.00054943  -0.00058400  0.99800354  1
  Cr  Cr1  1  0.16592730  0.16811003  0.16432191  1
  Fe  Fe2  1  0.99732107  -0.00079115  0.33391395  1
  Fe  Fe3  1  0.99811097  0.33349894  0.99790081  1
  Fe  Fe4  1  0.16562085  0.50091974  0.16600593  1
  Fe  Fe5  1  0.99785027  0.33146868  0.33161542  1
  Fe  Fe6  1  0.00039861  0.66418803  0.99887646  1
  Fe  Fe7  1  0.16667577  0.83066398  0.16468119  1
  Fe  Fe8  1  0.00160161  0.66686998  0.33151280  1
  Fe  Fe9  1  0.33148679  0.99650791  0.99858405  1
  Cr  Cr10  1  0.49998940  0.16566629  0.16577711  1
  Cr  Cr11  1  0.33049207  0.99793090  0.33341686  1
  Fe  Fe12  1  0.33171164  0.33519393  0.99801407  1
  Fe  Fe13  1  0.49789924  0.49952319  0.16457672  1
  Fe  Fe14  1  0.33389251  0.33456737  0.33277385  1
  Fe  Fe15  1  0.33228708  0.66555263  0.99891028  1
  Fe  Fe16  1  0.49706707  0.83120383  0.16424783  1
  Fe  Fe17  1  0.33127090  0.66460052  0.33085090  1
  Fe  Fe18  1  0.66610500  0.99868746  0.99881591  1
  Fe  Fe19  1  0.83271826  0.16723872  0.16552749  1
  Fe  Fe20  1  0.66771371  0.00116925  0.33356467  1
  Fe  Fe21  1  0.66726190  0.33401739  0.99883054  1
  Fe  Fe22  1  0.83341897  0.49589784  0.16512694  1
  Fe  Fe23  1  0.66581924  0.33059618  0.33278451  1
  Fe  Fe24  1  0.66438810  0.66417599  -0.00063319  1
  Cr  Cr25  1  0.83260989  0.83237075  0.16694233  1
  Cr  Cr26  1  0.66444074  0.66371343  0.33190047  1
  Fe  Fe27  1  0.16474214  0.16512215  0.49972894  1
  Fe  Fe28  1  -0.00000083  0.00006233  0.66496513  1
  Fe  Fe29  1  0.16365149  0.16540970  0.83278088  1
  Cr  Cr30  1  0.16648159  0.49863683  0.49748320  1
  Fe  Fe31  1  -0.00066683  0.33081005  0.66726680  1
  Fe  Fe32  1  0.16568148  0.49901672  0.83201415  1
  Fe  Fe33  1  0.16314276  0.83246763  0.50015440  1
  Fe  Fe34  1  0.00063699  0.66622653  0.66649423  1
  Fe  Fe35  1  0.16746705  0.83273242  0.83237260  1
  Fe  Fe36  1  0.49965159  0.16898504  0.49989289  1
  Fe  Fe37  1  0.33030361  -0.00074257  0.66547136  1
  Cr  Cr38  1  0.49745930  0.16491627  0.83262382  1
  Fe  Fe39  1  0.49860797  0.49701243  0.50005200  1
  Fe  Fe40  1  0.33209892  0.33243583  0.66578031  1
  Fe  Fe41  1  0.49940126  0.50079969  0.83231626  1
  Cr  Cr42  1  0.50080173  0.83353619  0.50116095  1
  Fe  Fe43  1  0.33210366  0.66549398  0.66725828  1
  Fe  Fe44  1  0.49740897  0.83074333  0.83200293  1
  Fe  Fe45  1  0.83241667  0.16454122  0.49917777  1
  Fe  Fe46  1  0.66678041  0.00057702  0.66516783  1
  Fe  Fe47  1  0.83361822  0.16695421  0.83243014  1
  Cr  Cr48  1  0.83377265  0.50076154  0.50045740  1
  Fe  Fe49  1  0.66568869  0.33224651  0.66593203  1
  Fe  Fe50  1  0.83207619  0.49698127  0.83196088  1
  Fe  Fe51  1  0.83516398  0.83430122  0.49982794  1
  Fe  Fe52  1  0.66462062  0.66441828  0.66632460  1
  Cr  Cr53  1  0.83157724  0.83081339  0.83027595  1
" 