5864,Fe19Cr81_17,-221.350047769307, 133.605613308855,Fe19Cr81,"# generated using pymatgen
 data_Cr5Fe22
_symmetry_space_group_name_H-M   'P 1'
_cell_length_a   7.48078528
_cell_length_b   7.48078528
_cell_length_c   10.57942800
_cell_angle_alpha   90.00000000
_cell_angle_beta   90.00000000
_cell_angle_gamma   90.00000000
_symmetry_Int_Tables_number   1
_chemical_formula_structural   Cr5Fe22
_chemical_formula_sum   'Cr10 Fe44'
_cell_volume   592.04751999
_cell_formula_units_Z   2
loop_
 _symmetry_equiv_pos_site_id
 _symmetry_equiv_pos_as_xyz
  1  'x, y, z'
loop_
 _atom_site_type_symbol
 _atom_site_label
 _atom_site_symmetry_multiplicity
 _atom_site_fract_x
 _atom_site_fract_y
 _atom_site_fract_z
 _atom_site_occupancy
  Cr  Cr0  1  0.99730041  -0.00012277  0.00092042  1
  Fe  Fe1  1  0.16623608  0.16671986  0.16650466  1
  Fe  Fe2  1  -0.00091706  0.00053705  0.33216142  1
  Fe  Fe3  1  0.00011066  0.33187480  0.99833242  1
  Fe  Fe4  1  0.16772123  0.49674339  0.16655088  1
  Fe  Fe5  1  -0.00025153  0.33042105  0.33307913  1
  Cr  Cr6  1  -0.00062030  0.66455600  -0.00090381  1
  Fe  Fe7  1  0.16695669  0.83379421  0.16699835  1
  Cr  Cr8  1  0.00139588  0.66708841  0.33142931  1
  Fe  Fe9  1  0.33420218  0.00090658  -0.00023225  1
  Fe  Fe10  1  0.49934995  0.16600600  0.16600079  1
  Fe  Fe11  1  0.33142284  0.99808574  0.33166198  1
  Fe  Fe12  1  0.33123669  0.33024617  -0.00022186  1
  Fe  Fe13  1  0.49844040  0.49824200  0.16634137  1
  Fe  Fe14  1  0.33144344  0.33343985  0.33167937  1
  Cr  Cr15  1  0.33198027  0.66486913  0.00273585  1
  Fe  Fe16  1  0.50012239  0.83296431  0.16652825  1
  Fe  Fe17  1  0.33390935  0.66572555  0.33213436  1
  Fe  Fe18  1  0.66421875  0.99863482  0.99880828  1
  Fe  Fe19  1  0.83161774  0.16508503  0.16657025  1
  Fe  Fe20  1  0.66670803  0.99816175  0.33196474  1
  Fe  Fe21  1  0.66594028  0.33104266  0.99878150  1
  Cr  Cr22  1  0.83078070  0.49800901  0.16406788  1
  Fe  Fe23  1  0.66599071  0.33266620  0.33268671  1
  Fe  Fe24  1  0.66591922  0.66754269  0.99903815  1
  Fe  Fe25  1  0.83020299  0.83442995  0.16650555  1
  Fe  Fe26  1  0.66376384  0.66640556  0.33311228  1
  Fe  Fe27  1  0.16427462  0.16570882  0.49909087  1
  Fe  Fe28  1  -0.00054242  0.00016051  0.66516250  1
  Fe  Fe29  1  0.16665624  0.16810813  0.83174240  1
  Fe  Fe30  1  0.16668930  0.49814434  0.49979718  1
  Fe  Fe31  1  0.00026259  0.33216508  0.66574211  1
  Fe  Fe32  1  0.16448185  0.49638260  0.83101802  1
  Fe  Fe33  1  0.16670460  0.83341101  0.50007462  1
  Fe  Fe34  1  0.99782979  0.66497273  0.66498379  1
  Cr  Cr35  1  0.16627164  0.83414627  0.82944063  1
  Cr  Cr36  1  0.49740151  0.16622966  0.49794971  1
  Fe  Fe37  1  0.33136683  -0.00054001  0.66565294  1
  Fe  Fe38  1  0.49733295  0.16412728  0.83364959  1
  Fe  Fe39  1  0.49836225  0.50123097  0.49857076  1
  Fe  Fe40  1  0.32985644  0.33218486  0.66576203  1
  Cr  Cr41  1  0.50050453  0.49878865  0.83246878  1
  Fe  Fe42  1  0.49839290  0.83039034  0.49843700  1
  Fe  Fe43  1  0.33296941  0.66567161  0.66448393  1
  Fe  Fe44  1  0.50032043  0.83364798  0.83257491  1
  Fe  Fe45  1  0.83515704  0.16566279  0.49763512  1
  Cr  Cr46  1  0.66606388  0.99841695  0.66775380  1
  Fe  Fe47  1  0.83319386  0.16654496  0.83319346  1
  Fe  Fe48  1  0.83225896  0.49893278  0.49874042  1
  Cr  Cr49  1  0.66646844  0.33217159  0.66477402  1
  Fe  Fe50  1  0.83409384  0.49926561  0.83260732  1
  Fe  Fe51  1  0.83221241  0.83265486  0.49905989  1
  Fe  Fe52  1  0.66647467  0.66640605  0.66499221  1
  Fe  Fe53  1  0.83017703  0.83135591  0.83182336  1
" 