4468,Fe19Cr81_16,-221.305878181958, 135.528939035656,Fe19Cr81,"# generated using pymatgen
 data_Cr5Fe22
_symmetry_space_group_name_H-M   'P 1'
_cell_length_a   7.47759239
_cell_length_b   7.47759239
_cell_length_c   10.57491257
_cell_angle_alpha   90.00000000
_cell_angle_beta   90.00000000
_cell_angle_gamma   90.00000000
_symmetry_Int_Tables_number   1
_chemical_formula_structural   Cr5Fe22
_chemical_formula_sum   'Cr10 Fe44'
_cell_volume   591.28976461
_cell_formula_units_Z   2
loop_
 _symmetry_equiv_pos_site_id
 _symmetry_equiv_pos_as_xyz
  1  'x, y, z'
loop_
 _atom_site_type_symbol
 _atom_site_label
 _atom_site_symmetry_multiplicity
 _atom_site_fract_x
 _atom_site_fract_y
 _atom_site_fract_z
 _atom_site_occupancy
  Fe  Fe0  1  0.99822239  -0.00057885  -0.00069634  1
  Cr  Cr1  1  0.16451350  0.16604905  0.16529391  1
  Fe  Fe2  1  0.99869305  -0.00039510  0.33309594  1
  Fe  Fe3  1  -0.00022873  0.33311449  0.99884882  1
  Fe  Fe4  1  0.16550562  0.49975810  0.16549785  1
  Fe  Fe5  1  0.99868223  0.33233051  0.33307240  1
  Fe  Fe6  1  0.99869868  0.66535213  -0.00008321  1
  Fe  Fe7  1  0.16659522  0.83201717  0.16536376  1
  Cr  Cr8  1  0.00087917  0.66587110  0.33329602  1
  Fe  Fe9  1  0.33324681  -0.00009976  -0.00023222  1
  Fe  Fe10  1  0.49975454  0.16456126  0.16644790  1
  Fe  Fe11  1  0.33263799  0.99900826  0.33262321  1
  Fe  Fe12  1  0.33170179  0.33263490  0.99834017  1
  Cr  Cr13  1  0.49868231  0.50033124  0.16641170  1
  Fe  Fe14  1  0.33217210  0.33245089  0.33309049  1
  Fe  Fe15  1  0.33229191  0.66535362  -0.00035078  1
  Fe  Fe16  1  0.49867752  0.83415668  0.16548858  1
  Fe  Fe17  1  0.33120312  0.66642637  0.33229010  1
  Fe  Fe18  1  0.66641388  0.99882275  -0.00021249  1
  Fe  Fe19  1  0.83202334  0.16564428  0.16644758  1
  Fe  Fe20  1  0.66654883  0.00058514  0.33213405  1
  Cr  Cr21  1  0.66612823  0.33150068  0.99912713  1
  Fe  Fe22  1  0.83416475  0.49867539  0.16550038  1
  Fe  Fe23  1  0.66702578  0.33088525  0.33247776  1
  Fe  Fe24  1  0.66689469  0.66689022  -0.00056774  1
  Fe  Fe25  1  0.83261641  0.83356223  0.16500484  1
  Cr  Cr26  1  0.66673469  0.66613624  0.33206768  1
  Fe  Fe27  1  0.16625569  0.16595038  0.49915847  1
  Fe  Fe28  1  0.99897471  -0.00042639  0.66548370  1
  Fe  Fe29  1  0.16612326  0.16676159  0.83277637  1
  Fe  Fe30  1  0.16517297  0.49851315  0.49926099  1
  Fe  Fe31  1  -0.00055727  0.33280109  0.66596082  1
  Fe  Fe32  1  0.16566107  0.49802549  0.83312417  1
  Fe  Fe33  1  0.16516923  0.83342069  0.49941947  1
  Fe  Fe34  1  0.99787508  0.66551342  0.66532860  1
  Cr  Cr35  1  0.16468698  0.83413822  0.83318521  1
  Fe  Fe36  1  0.49928293  0.16596139  0.49928146  1
  Fe  Fe37  1  0.33217637  0.00162715  0.66549373  1
  Fe  Fe38  1  0.49866208  0.16629459  0.83215519  1
  Cr  Cr39  1  0.49987451  0.49839760  0.49949648  1
  Fe  Fe40  1  0.33218626  0.33121642  0.66645371  1
  Fe  Fe41  1  0.49915775  0.49851009  0.83262656  1
  Cr  Cr42  1  0.49920866  0.83323438  0.49899912  1
  Cr  Cr43  1  0.33122323  0.66515262  0.66492890  1
  Cr  Cr44  1  0.50103662  0.83213729  0.83347801  1
  Fe  Fe45  1  0.83234578  0.16596116  0.49925803  1
  Fe  Fe46  1  0.66673542  0.00006927  0.66596535  1
  Fe  Fe47  1  0.83309888  0.16520684  0.83218006  1
  Fe  Fe48  1  0.83342057  0.49852087  0.50022765  1
  Fe  Fe49  1  0.66625803  0.33231520  0.66656571  1
  Fe  Fe50  1  0.83306407  0.50006284  0.83215795  1
  Fe  Fe51  1  0.83343013  0.83340236  0.50026453  1
  Fe  Fe52  1  0.66831405  0.66549989  0.66630092  1
  Fe  Fe53  1  0.83260814  0.83261319  0.83261641  1
" 