6765,Fe19Cr81_15,-221.301796521636, 138.886405572866,Fe19Cr81,"# generated using pymatgen
 data_Cr5Fe22
_symmetry_space_group_name_H-M   'P 1'
_cell_length_a   7.47089397
_cell_length_b   7.47089397
_cell_length_c   10.56543958
_cell_angle_alpha   90.00000000
_cell_angle_beta   90.00000000
_cell_angle_gamma   90.00000000
_symmetry_Int_Tables_number   1
_chemical_formula_structural   Cr5Fe22
_chemical_formula_sum   'Cr10 Fe44'
_cell_volume   589.70215782
_cell_formula_units_Z   2
loop_
 _symmetry_equiv_pos_site_id
 _symmetry_equiv_pos_as_xyz
  1  'x, y, z'
loop_
 _atom_site_type_symbol
 _atom_site_label
 _atom_site_symmetry_multiplicity
 _atom_site_fract_x
 _atom_site_fract_y
 _atom_site_fract_z
 _atom_site_occupancy
  Fe  Fe0  1  0.00014818  0.00028874  0.99837176  1
  Fe  Fe1  1  0.16670400  0.16646757  0.16756779  1
  Fe  Fe2  1  0.99932643  0.99946935  0.33444164  1
  Fe  Fe3  1  0.00110342  0.33265588  0.99959436  1
  Fe  Fe4  1  0.16511698  0.49883620  0.16726743  1
  Fe  Fe5  1  0.00163838  0.33407324  0.33417237  1
  Fe  Fe6  1  0.00020757  0.66619676  -0.00013768  1
  Cr  Cr7  1  0.16719731  0.83227428  0.16640796  1
  Fe  Fe8  1  0.00026850  0.66547134  0.33405946  1
  Fe  Fe9  1  0.33405177  0.99906802  0.99881698  1
  Fe  Fe10  1  0.49753771  0.16395438  0.16752375  1
  Fe  Fe11  1  0.33363129  0.99961346  0.33320551  1
  Cr  Cr12  1  0.33132257  0.33188674  0.00016126  1
  Fe  Fe13  1  0.49786137  0.50128918  0.16622317  1
  Fe  Fe14  1  0.33127122  0.33396722  0.33213871  1
  Fe  Fe15  1  0.33421143  0.66677891  0.99891192  1
  Fe  Fe16  1  0.50052989  0.83443639  0.16542043  1
  Fe  Fe17  1  0.33262973  0.66538209  0.33391633  1
  Fe  Fe18  1  0.66523524  0.99812445  0.99900195  1
  Cr  Cr19  1  0.83292275  0.16663219  0.16640413  1
  Fe  Fe20  1  0.66641667  0.99876878  0.33313565  1
  Cr  Cr21  1  0.66505948  0.33377830  0.99912510  1
  Fe  Fe22  1  0.83585532  0.50209103  0.16515779  1
  Cr  Cr23  1  0.66639863  0.33496664  0.33382224  1
  Fe  Fe24  1  0.66515083  0.66874487  0.00060955  1
  Fe  Fe25  1  0.83305599  0.83274771  0.16521626  1
  Cr  Cr26  1  0.66644898  0.66802458  0.33195784  1
  Fe  Fe27  1  0.16627834  0.16537243  0.49881669  1
  Fe  Fe28  1  0.99966372  0.99746196  0.66641063  1
  Fe  Fe29  1  0.16619900  0.16479156  0.83300201  1
  Fe  Fe30  1  0.16759461  0.50017187  0.49913578  1
  Cr  Cr31  1  0.00084140  0.33105548  0.66639545  1
  Fe  Fe32  1  0.16783315  0.50145232  0.83291208  1
  Fe  Fe33  1  0.16691399  0.83345679  0.49933711  1
  Fe  Fe34  1  0.00160224  0.66818866  0.66576797  1
  Fe  Fe35  1  0.16613931  0.83269150  0.83348816  1
  Cr  Cr36  1  0.50023181  0.16614256  0.50042645  1
  Fe  Fe37  1  0.33199011  0.99878676  0.66725149  1
  Fe  Fe38  1  0.49984625  0.16520285  0.83125244  1
  Fe  Fe39  1  0.49705620  0.50059709  0.50030483  1
  Fe  Fe40  1  0.33398559  0.33407605  0.66754635  1
  Fe  Fe41  1  0.49746687  0.50070958  0.83218632  1
  Fe  Fe42  1  0.49780941  0.83322039  0.49959551  1
  Fe  Fe43  1  0.33088869  0.66642760  0.66640502  1
  Fe  Fe44  1  0.49925306  0.83340675  0.83360776  1
  Fe  Fe45  1  0.83467742  0.16467206  0.49937586  1
  Fe  Fe46  1  0.66774567  0.00048210  0.66728522  1
  Fe  Fe47  1  0.83307821  0.16338124  0.83335165  1
  Fe  Fe48  1  0.83450500  0.49970418  0.50012101  1
  Fe  Fe49  1  0.66566171  0.33207617  0.66683984  1
  Cr  Cr50  1  0.83386052  0.49983959  0.83418000  1
  Fe  Fe51  1  0.83428654  0.83494183  0.49962839  1
  Cr  Cr52  1  0.66571316  0.66705486  0.66527229  1
  Fe  Fe53  1  0.83367550  0.83474659  0.83370912  1
" 