519,Fe19Cr81_12,-221.414440157885, 137.997627752205,Fe19Cr81,"# generated using pymatgen
 data_Cr5Fe22
_symmetry_space_group_name_H-M   'P 1'
_cell_length_a   7.47363384
_cell_length_b   7.47363384
_cell_length_c   10.56931434
_cell_angle_alpha   90.00000000
_cell_angle_beta   90.00000000
_cell_angle_gamma   90.00000000
_symmetry_Int_Tables_number   1
_chemical_formula_structural   Cr5Fe22
_chemical_formula_sum   'Cr10 Fe44'
_cell_volume   590.35119597
_cell_formula_units_Z   2
loop_
 _symmetry_equiv_pos_site_id
 _symmetry_equiv_pos_as_xyz
  1  'x, y, z'
loop_
 _atom_site_type_symbol
 _atom_site_label
 _atom_site_symmetry_multiplicity
 _atom_site_fract_x
 _atom_site_fract_y
 _atom_site_fract_z
 _atom_site_occupancy
  Fe  Fe0  1  0.00058527  0.00108585  0.00114990  1
  Fe  Fe1  1  0.16608958  0.16484716  0.16565460  1
  Cr  Cr2  1  0.99816697  0.99807613  0.33277708  1
  Fe  Fe3  1  0.99766964  0.33023268  -0.00011463  1
  Cr  Cr4  1  0.16346839  0.50134978  0.16529338  1
  Fe  Fe5  1  0.99627930  0.33449503  0.33299292  1
  Fe  Fe6  1  0.99791569  0.66768963  0.00064249  1
  Fe  Fe7  1  0.16708460  0.83391351  0.16481564  1
  Fe  Fe8  1  0.99851730  0.66498396  0.33419558  1
  Fe  Fe9  1  0.33309932  0.99928780  0.00025192  1
  Fe  Fe10  1  0.50015620  0.16573107  0.16686031  1
  Fe  Fe11  1  0.33404196  0.99649063  0.33160043  1
  Cr  Cr12  1  0.33328937  0.33330773  0.99637487  1
  Fe  Fe13  1  0.50172563  0.50095505  0.16605778  1
  Cr  Cr14  1  0.33323935  0.33483740  0.33335789  1
  Fe  Fe15  1  0.33561171  0.66785306  -0.00006830  1
  Fe  Fe16  1  0.49876052  0.83172262  0.16682924  1
  Fe  Fe17  1  0.33312163  0.66895013  0.33356951  1
  Cr  Cr18  1  0.66780743  0.99800479  0.99805619  1
  Fe  Fe19  1  0.83290628  0.16818602  0.16603584  1
  Fe  Fe20  1  0.66545432  0.99835897  0.33110628  1
  Fe  Fe21  1  0.66655276  0.33287493  0.00079568  1
  Fe  Fe22  1  0.83048537  0.49982790  0.16566996  1
  Fe  Fe23  1  0.66943111  0.33380039  0.33188730  1
  Fe  Fe24  1  0.66459758  0.66503644  0.00079508  1
  Fe  Fe25  1  0.83307344  0.83026090  0.16600981  1
  Fe  Fe26  1  0.66654876  0.66617956  0.33302700  1
  Cr  Cr27  1  0.16585422  0.16627106  0.49972936  1
  Fe  Fe28  1  0.99663002  0.99895844  0.66607102  1
  Fe  Fe29  1  0.16332105  0.16778035  0.83205570  1
  Fe  Fe30  1  0.16552976  0.50179631  0.50014778  1
  Fe  Fe31  1  0.99935074  0.33330274  0.66661275  1
  Fe  Fe32  1  0.16612861  0.49954896  0.83205164  1
  Fe  Fe33  1  0.16666724  0.83015987  0.50000700  1
  Fe  Fe34  1  -0.00042794  0.66642677  0.66503711  1
  Cr  Cr35  1  0.16567099  0.83245031  0.83523836  1
  Cr  Cr36  1  0.50244733  0.16486664  0.49847886  1
  Cr  Cr37  1  0.33364950  0.99953728  0.66726039  1
  Fe  Fe38  1  0.50139470  0.16703686  0.83141401  1
  Fe  Fe39  1  0.50053394  0.50151832  0.50044503  1
  Fe  Fe40  1  0.33321843  0.33598300  0.66755700  1
  Fe  Fe41  1  0.49900781  0.50155186  0.83157956  1
  Fe  Fe42  1  0.50025665  0.83067680  0.49881961  1
  Fe  Fe43  1  0.33343640  0.66430695  0.66568979  1
  Fe  Fe44  1  0.50153880  0.83020976  0.83263039  1
  Fe  Fe45  1  0.83237594  0.16705692  0.50045095  1
  Fe  Fe46  1  0.66878373  0.99848007  0.66752670  1
  Fe  Fe47  1  0.83436592  0.16524780  0.83175198  1
  Fe  Fe48  1  0.83260201  0.49883012  0.50006466  1
  Fe  Fe49  1  0.66617411  0.33306013  0.66665089  1
  Cr  Cr50  1  0.83243319  0.50002856  0.83559923  1
  Fe  Fe51  1  0.83152795  0.83268203  0.50042723  1
  Fe  Fe52  1  0.66549247  0.66712291  0.66561993  1
  Fe  Fe53  1  0.83256286  0.83297596  0.83166521  1
" 