4613,Fe19Cr81_3,-221.380537188604, 132.415958960951,Fe19Cr81,"# generated using pymatgen
 data_Cr5Fe22
_symmetry_space_group_name_H-M   'P 1'
_cell_length_a   7.47958050
_cell_length_b   7.47958050
_cell_length_c   10.57772418
_cell_angle_alpha   90.00000000
_cell_angle_beta   90.00000000
_cell_angle_gamma   90.00000000
_symmetry_Int_Tables_number   1
_chemical_formula_structural   Cr5Fe22
_chemical_formula_sum   'Cr10 Fe44'
_cell_volume   591.76151773
_cell_formula_units_Z   2
loop_
 _symmetry_equiv_pos_site_id
 _symmetry_equiv_pos_as_xyz
  1  'x, y, z'
loop_
 _atom_site_type_symbol
 _atom_site_label
 _atom_site_symmetry_multiplicity
 _atom_site_fract_x
 _atom_site_fract_y
 _atom_site_fract_z
 _atom_site_occupancy
  Fe  Fe0  1  0.00077829  -0.00040409  0.99706829  1
  Fe  Fe1  1  0.16640081  0.16656059  0.16712064  1
  Fe  Fe2  1  0.00045129  -0.00003969  0.33418485  1
  Fe  Fe3  1  0.00058079  0.33297408  0.99811177  1
  Fe  Fe4  1  0.16491625  0.49682239  0.16637631  1
  Fe  Fe5  1  -0.00029746  0.33152826  0.33335496  1
  Fe  Fe6  1  0.99836333  0.66476987  0.99800092  1
  Fe  Fe7  1  0.16455724  0.83410822  0.16681552  1
  Cr  Cr8  1  0.99872015  0.66520017  0.33234575  1
  Cr  Cr9  1  0.33214035  0.00106510  -0.00049680  1
  Fe  Fe10  1  0.49863090  0.16848428  0.16808959  1
  Fe  Fe11  1  0.32982349  -0.00072119  0.33273965  1
  Fe  Fe12  1  0.33285115  0.33240429  0.99900254  1
  Fe  Fe13  1  0.50084856  0.49655781  0.16675596  1
  Fe  Fe14  1  0.33192322  0.33308968  0.33142516  1
  Cr  Cr15  1  0.33050186  0.66480331  0.00029101  1
  Cr  Cr16  1  0.50013226  0.83216741  0.16881883  1
  Fe  Fe17  1  0.33302420  0.66461451  0.33309280  1
  Cr  Cr18  1  0.66512597  0.00245620  0.99662820  1
  Cr  Cr19  1  0.83361549  0.16668826  0.16687175  1
  Fe  Fe20  1  0.66738771  0.99863600  0.33423304  1
  Fe  Fe21  1  0.66443926  0.33506411  0.99830011  1
  Fe  Fe22  1  0.83130423  0.49862954  0.16479771  1
  Fe  Fe23  1  0.66624642  0.33488354  0.33312352  1
  Fe  Fe24  1  0.66613341  0.66275281  0.99776733  1
  Cr  Cr25  1  0.83200809  0.83258449  0.16257169  1
  Fe  Fe26  1  0.66539742  0.66386076  0.33458063  1
  Fe  Fe27  1  0.16458047  0.16434980  0.49949333  1
  Fe  Fe28  1  0.99887695  -0.00061821  0.66571092  1
  Fe  Fe29  1  0.16509648  0.16672019  0.83117684  1
  Cr  Cr30  1  0.16605709  0.49748370  0.50129572  1
  Fe  Fe31  1  0.99778439  0.33136809  0.66689240  1
  Fe  Fe32  1  0.16508849  0.49856588  0.83082302  1
  Fe  Fe33  1  0.16699045  0.83451118  0.50010152  1
  Fe  Fe34  1  0.99793448  0.66660491  0.66603891  1
  Fe  Fe35  1  0.16345594  0.83231111  0.83091985  1
  Cr  Cr36  1  0.49928346  0.16512031  0.49928011  1
  Fe  Fe37  1  0.33043854  -0.00037443  0.66599149  1
  Fe  Fe38  1  0.49875903  0.16910566  0.82990925  1
  Fe  Fe39  1  0.50036487  0.50007349  0.49952784  1
  Fe  Fe40  1  0.33282463  0.33208118  0.66743923  1
  Fe  Fe41  1  0.49957911  0.49719245  0.83153872  1
  Fe  Fe42  1  0.49856865  0.83031609  0.49945639  1
  Fe  Fe43  1  0.33229599  0.66553188  0.66602687  1
  Cr  Cr44  1  0.50007624  0.83192520  0.83002088  1
  Fe  Fe45  1  0.83465591  0.16652595  0.49894854  1
  Fe  Fe46  1  0.66844927  -0.00027737  0.66579564  1
  Fe  Fe47  1  0.83362821  0.16703016  0.83144200  1
  Fe  Fe48  1  0.83029837  0.49778117  0.50009593  1
  Fe  Fe49  1  0.66690498  0.33320469  0.66645189  1
  Fe  Fe50  1  0.83240108  0.49945524  0.83225588  1
  Fe  Fe51  1  0.83176763  0.83330564  0.49978142  1
  Fe  Fe52  1  0.66732357  0.66448238  0.66451427  1
  Fe  Fe53  1  0.83526950  0.83144143  0.83185786  1
" 