3705,Fe21Cr79_19,-221.077276736003, 134.457442957163,Fe21Cr79,"# generated using pymatgen
 data_Cr11Fe43
_symmetry_space_group_name_H-M   'P 1'
_cell_length_a   7.47636154
_cell_length_b   7.47636154
_cell_length_c   10.57317188
_cell_angle_alpha   90.00000000
_cell_angle_beta   90.00000000
_cell_angle_gamma   90.00000000
_symmetry_Int_Tables_number   1
_chemical_formula_structural   Cr11Fe43
_chemical_formula_sum   'Cr11 Fe43'
_cell_volume   590.99782327
_cell_formula_units_Z   1
loop_
 _symmetry_equiv_pos_site_id
 _symmetry_equiv_pos_as_xyz
  1  'x, y, z'
loop_
 _atom_site_type_symbol
 _atom_site_label
 _atom_site_symmetry_multiplicity
 _atom_site_fract_x
 _atom_site_fract_y
 _atom_site_fract_z
 _atom_site_occupancy
  Fe  Fe0  1  0.99924374  0.99862656  0.00258757  1
  Fe  Fe1  1  0.16713171  0.16502050  0.16605068  1
  Fe  Fe2  1  0.99936757  0.99877494  0.33292983  1
  Fe  Fe3  1  0.99784946  0.33052164  0.00368529  1
  Fe  Fe4  1  0.16867155  0.49930863  0.16670338  1
  Cr  Cr5  1  0.00049796  0.33290469  0.33374072  1
  Cr  Cr6  1  0.00088898  0.66406481  -0.00009513  1
  Fe  Fe7  1  0.16689151  0.83316320  0.16843630  1
  Fe  Fe8  1  -0.00046555  0.66743548  0.33302359  1
  Fe  Fe9  1  0.33059555  0.99788756  0.00154312  1
  Fe  Fe10  1  0.49781139  0.16703335  0.16869607  1
  Fe  Fe11  1  0.33221410  0.00066130  0.33301567  1
  Fe  Fe12  1  0.33516159  0.33082684  0.00284717  1
  Fe  Fe13  1  0.49901036  0.49953859  0.16716582  1
  Fe  Fe14  1  0.33450162  0.33236244  0.33319494  1
  Fe  Fe15  1  0.33411067  0.66874736  0.00161045  1
  Fe  Fe16  1  0.49787239  0.83228994  0.16936890  1
  Fe  Fe17  1  0.33228438  0.66523272  0.33362017  1
  Cr  Cr18  1  0.66176224  0.00215789  0.00129411  1
  Fe  Fe19  1  0.83247441  0.16581364  0.16736038  1
  Fe  Fe20  1  0.66638994  0.00051070  0.33209499  1
  Fe  Fe21  1  0.66653938  0.33358812  0.00205283  1
  Fe  Fe22  1  0.83137252  0.49930811  0.16792620  1
  Fe  Fe23  1  0.66468765  0.33218388  0.33290499  1
  Cr  Cr24  1  0.66640583  0.66733226  0.99797504  1
  Fe  Fe25  1  0.83293902  0.83324934  0.16847057  1
  Fe  Fe26  1  0.66622857  0.66553471  0.33235364  1
  Fe  Fe27  1  0.16758068  0.16489768  0.49943539  1
  Fe  Fe28  1  0.00137704  0.99905271  0.66211449  1
  Cr  Cr29  1  0.16575339  0.16460427  0.83302527  1
  Fe  Fe30  1  0.16829274  0.49892692  0.49812065  1
  Fe  Fe31  1  -0.00010173  0.33107815  0.66189168  1
  Cr  Cr32  1  0.16787967  0.49604040  0.83500628  1
  Fe  Fe33  1  0.16634143  0.83411863  0.49668338  1
  Cr  Cr34  1  -0.00051775  0.66341769  0.66459400  1
  Fe  Fe35  1  0.16734666  0.83417452  0.83365222  1
  Fe  Fe36  1  0.49960864  0.16588684  0.49814328  1
  Fe  Fe37  1  0.33316078  0.00094579  0.66370735  1
  Fe  Fe38  1  0.49842835  0.16619683  0.83119818  1
  Fe  Fe39  1  0.49974265  0.49922902  0.49825383  1
  Fe  Fe40  1  0.33344460  0.33156294  0.66292145  1
  Cr  Cr41  1  0.50043428  0.49943774  0.83324473  1
  Fe  Fe42  1  0.50003801  0.83354882  0.49684181  1
  Cr  Cr43  1  0.33244855  0.66884768  0.66619307  1
  Fe  Fe44  1  0.49640430  0.83703366  0.83179397  1
  Fe  Fe45  1  0.83125657  0.16468124  0.49978413  1
  Fe  Fe46  1  0.66322570  0.99929705  0.66343230  1
  Cr  Cr47  1  0.83331214  0.16618472  0.83190235  1
  Fe  Fe48  1  0.83016510  0.49951776  0.49798944  1
  Fe  Fe49  1  0.66589869  0.33321398  0.66343253  1
  Fe  Fe50  1  0.83330740  0.49641617  0.83133259  1
  Fe  Fe51  1  0.83149067  0.83345827  0.49810108  1
  Fe  Fe52  1  0.66519344  0.66615831  0.66368851  1
  Cr  Cr53  1  0.83241333  0.83435688  0.82932258  1
" 