7375,Fe21Cr79_17,-221.268189458947, 133.177556436779,Fe21Cr79,"# generated using pymatgen
 data_Cr11Fe43
_symmetry_space_group_name_H-M   'P 1'
_cell_length_a   7.48478090
_cell_length_b   7.48478090
_cell_length_c   10.58507866
_cell_angle_alpha   90.00000000
_cell_angle_beta   90.00000000
_cell_angle_gamma   90.00000000
_symmetry_Int_Tables_number   1
_chemical_formula_structural   Cr11Fe43
_chemical_formula_sum   'Cr11 Fe43'
_cell_volume   592.99669523
_cell_formula_units_Z   1
loop_
 _symmetry_equiv_pos_site_id
 _symmetry_equiv_pos_as_xyz
  1  'x, y, z'
loop_
 _atom_site_type_symbol
 _atom_site_label
 _atom_site_symmetry_multiplicity
 _atom_site_fract_x
 _atom_site_fract_y
 _atom_site_fract_z
 _atom_site_occupancy
  Fe  Fe0  1  0.00027398  0.99732132  0.99874318  1
  Fe  Fe1  1  0.16673244  0.16561368  0.16410063  1
  Fe  Fe2  1  -0.00080159  0.99626152  0.33222112  1
  Fe  Fe3  1  0.00023624  0.33380700  -0.00095728  1
  Fe  Fe4  1  0.16611955  0.49950006  0.16460699  1
  Cr  Cr5  1  -0.00002401  0.33517582  0.33171577  1
  Fe  Fe6  1  -0.00117678  0.66530539  0.99865581  1
  Fe  Fe7  1  0.16461094  0.83164581  0.16480641  1
  Fe  Fe8  1  -0.00088094  0.66736381  0.33224922  1
  Fe  Fe9  1  0.33163962  -0.00059911  -0.00036075  1
  Fe  Fe10  1  0.49817007  0.16633429  0.16460428  1
  Cr  Cr11  1  0.33366695  -0.00062623  0.33169763  1
  Fe  Fe12  1  0.33225657  0.33236657  -0.00098457  1
  Fe  Fe13  1  0.49898740  0.49865275  0.16543992  1
  Fe  Fe14  1  0.33371035  0.33377446  0.33193111  1
  Fe  Fe15  1  0.33140624  0.66450823  -0.00015520  1
  Fe  Fe16  1  0.49975137  0.83156561  0.16445657  1
  Fe  Fe17  1  0.33196040  0.66386066  0.33192850  1
  Fe  Fe18  1  0.66448589  0.99790700  -0.00071955  1
  Cr  Cr19  1  0.83205597  0.16481837  0.16585130  1
  Fe  Fe20  1  0.66552263  0.99727750  0.33219714  1
  Fe  Fe21  1  0.66399251  0.33375316  -0.00089841  1
  Fe  Fe22  1  0.83143326  0.50083671  0.16475534  1
  Fe  Fe23  1  0.66244844  0.33344527  0.33187687  1
  Fe  Fe24  1  0.66610628  0.66462113  -0.00029402  1
  Fe  Fe25  1  0.83217652  0.83058985  0.16544511  1
  Fe  Fe26  1  0.66532230  0.66540017  0.33192198  1
  Fe  Fe27  1  0.16742760  0.16668585  0.49799601  1
  Cr  Cr28  1  0.00063227  0.99735779  0.66494915  1
  Fe  Fe29  1  0.16779251  0.16604311  0.83440048  1
  Fe  Fe30  1  0.16767497  0.49958399  0.49816167  1
  Cr  Cr31  1  -0.00018265  0.33453286  0.66630314  1
  Fe  Fe32  1  0.16732955  0.49911745  0.83385639  1
  Fe  Fe33  1  0.16556115  0.83059894  0.49732915  1
  Cr  Cr34  1  0.99727005  0.66450627  0.66601595  1
  Fe  Fe35  1  0.16457457  0.83148619  0.83435082  1
  Fe  Fe36  1  0.49808367  0.16804192  0.49798764  1
  Cr  Cr37  1  0.33245785  0.00007646  0.66558532  1
  Fe  Fe38  1  0.49755739  0.16790279  0.83372866  1
  Fe  Fe39  1  0.49898730  0.49865341  0.49873845  1
  Fe  Fe40  1  0.33343039  0.33361124  0.66550365  1
  Fe  Fe41  1  0.49897267  0.49689765  0.83225909  1
  Fe  Fe42  1  0.49946641  0.82982076  0.49810793  1
  Fe  Fe43  1  0.33223277  0.66366166  0.66465015  1
  Cr  Cr44  1  0.49729664  0.82901385  0.83278232  1
  Cr  Cr45  1  0.83186252  0.16524848  0.49741323  1
  Cr  Cr46  1  0.66342898  0.99747893  0.66486348  1
  Cr  Cr47  1  0.83225248  0.16590377  0.83315699  1
  Fe  Fe48  1  0.82981287  0.50073034  0.49791507  1
  Fe  Fe49  1  0.66324753  0.33445233  0.66547373  1
  Fe  Fe50  1  0.83010562  0.50053444  0.83394527  1
  Fe  Fe51  1  0.83137950  0.82985380  0.49665453  1
  Fe  Fe52  1  0.66475718  0.66336279  0.66479106  1
  Fe  Fe53  1  0.83243599  0.83039250  0.83427593  1
" 