6498,Fe21Cr79_13,-221.201823300463, 137.90761146011,Fe21Cr79,"# generated using pymatgen
 data_Cr11Fe43
_symmetry_space_group_name_H-M   'P 1'
_cell_length_a   7.48021763
_cell_length_b   7.48021763
_cell_length_c   10.57862522
_cell_angle_alpha   90.00000000
_cell_angle_beta   90.00000000
_cell_angle_gamma   90.00000000
_symmetry_Int_Tables_number   1
_chemical_formula_structural   Cr11Fe43
_chemical_formula_sum   'Cr11 Fe43'
_cell_volume   591.91275372
_cell_formula_units_Z   1
loop_
 _symmetry_equiv_pos_site_id
 _symmetry_equiv_pos_as_xyz
  1  'x, y, z'
loop_
 _atom_site_type_symbol
 _atom_site_label
 _atom_site_symmetry_multiplicity
 _atom_site_fract_x
 _atom_site_fract_y
 _atom_site_fract_z
 _atom_site_occupancy
  Fe  Fe0  1  0.00152993  0.99898365  0.99713314  1
  Fe  Fe1  1  0.16516176  0.16437578  0.16488050  1
  Fe  Fe2  1  0.00279872  0.99831306  0.33355754  1
  Fe  Fe3  1  -0.00033964  0.33329287  0.99839729  1
  Fe  Fe4  1  0.16447607  0.49982745  0.16475044  1
  Fe  Fe5  1  -0.00064101  0.33497032  0.33226235  1
  Fe  Fe6  1  -0.00042522  0.66518393  0.99857897  1
  Fe  Fe7  1  0.16752435  0.83314732  0.16568726  1
  Fe  Fe8  1  0.00067298  0.66414992  0.33311296  1
  Fe  Fe9  1  0.33039950  0.99850126  0.99818504  1
  Cr  Cr10  1  0.49938138  0.16671739  0.16601123  1
  Fe  Fe11  1  0.33162488  0.99703544  0.33344382  1
  Fe  Fe12  1  0.33092904  0.33256001  -0.00031193  1
  Fe  Fe13  1  0.50012748  0.50158538  0.16504930  1
  Cr  Cr14  1  0.33035474  0.33326938  0.33232224  1
  Fe  Fe15  1  0.33188314  0.66666953  0.00008110  1
  Fe  Fe16  1  0.49797253  0.83135176  0.16611629  1
  Fe  Fe17  1  0.33164454  0.66729422  0.33175844  1
  Cr  Cr18  1  0.66531910  0.99789468  0.99555290  1
  Cr  Cr19  1  0.83440958  0.16577680  0.16646387  1
  Fe  Fe20  1  0.66362012  0.99748977  0.33351583  1
  Fe  Fe21  1  0.66687752  0.33437907  0.99865609  1
  Fe  Fe22  1  0.83236024  0.49920525  0.16572709  1
  Fe  Fe23  1  0.66644161  0.33523162  0.33246236  1
  Fe  Fe24  1  0.66618251  0.66423251  -0.00058726  1
  Cr  Cr25  1  0.83466679  0.83295900  0.16687811  1
  Fe  Fe26  1  0.66524774  0.66494684  0.33248741  1
  Fe  Fe27  1  0.16620478  0.16649829  0.49887533  1
  Cr  Cr28  1  0.99882918  0.99780641  0.66762552  1
  Fe  Fe29  1  0.16639383  0.16781936  0.83388734  1
  Fe  Fe30  1  0.16311980  0.49973507  0.50011041  1
  Fe  Fe31  1  -0.00032844  0.33355615  0.66629152  1
  Fe  Fe32  1  0.16424561  0.49929498  0.83247041  1
  Fe  Fe33  1  0.16565544  0.83089339  0.49805653  1
  Fe  Fe34  1  -0.00087853  0.66474118  0.66586419  1
  Fe  Fe35  1  0.16660679  0.83027359  0.83384946  1
  Fe  Fe36  1  0.49879306  0.16545682  0.49772694  1
  Cr  Cr37  1  0.33331746  0.00006973  0.66531746  1
  Fe  Fe38  1  0.49758824  0.16731530  0.83337319  1
  Cr  Cr39  1  0.49808694  0.49976834  0.50131815  1
  Fe  Fe40  1  0.33032343  0.33204151  0.66563569  1
  Cr  Cr41  1  0.49762981  0.49926259  0.83199283  1
  Fe  Fe42  1  0.49936559  0.83244235  0.49748862  1
  Fe  Fe43  1  0.33025671  0.66702267  0.66592520  1
  Fe  Fe44  1  0.49721413  0.83062692  0.83285339  1
  Cr  Cr45  1  0.83303467  0.16543152  0.49666285  1
  Cr  Cr46  1  0.66526813  0.99793038  0.66687998  1
  Fe  Fe47  1  0.83327217  0.16901130  0.83307316  1
  Fe  Fe48  1  0.83375171  0.50051657  0.49925807  1
  Fe  Fe49  1  0.66714242  0.33195834  0.66644931  1
  Fe  Fe50  1  0.83385341  0.49929997  0.83238112  1
  Fe  Fe51  1  0.83237358  0.82939844  0.49740595  1
  Fe  Fe52  1  0.66771136  0.66627666  0.66610708  1
  Fe  Fe53  1  0.83343085  0.82867055  0.83341052  1
" 