3068,Fe21Cr79_5,-221.086185536144, 138.495933308501,Fe21Cr79,"# generated using pymatgen
 data_Cr11Fe43
_symmetry_space_group_name_H-M   'P 1'
_cell_length_a   7.47751491
_cell_length_b   7.47751491
_cell_length_c   10.57480300
_cell_angle_alpha   90.00000000
_cell_angle_beta   90.00000000
_cell_angle_gamma   90.00000000
_symmetry_Int_Tables_number   1
_chemical_formula_structural   Cr11Fe43
_chemical_formula_sum   'Cr11 Fe43'
_cell_volume   591.27138381
_cell_formula_units_Z   1
loop_
 _symmetry_equiv_pos_site_id
 _symmetry_equiv_pos_as_xyz
  1  'x, y, z'
loop_
 _atom_site_type_symbol
 _atom_site_label
 _atom_site_symmetry_multiplicity
 _atom_site_fract_x
 _atom_site_fract_y
 _atom_site_fract_z
 _atom_site_occupancy
  Fe  Fe0  1  0.99916277  -0.00054885  0.99928504  1
  Fe  Fe1  1  0.16561595  0.16666106  0.16546675  1
  Fe  Fe2  1  0.99894990  0.99860401  0.33216757  1
  Fe  Fe3  1  0.00034015  0.33267586  0.99927206  1
  Fe  Fe4  1  0.16445796  0.49876510  0.16544844  1
  Fe  Fe5  1  0.00012764  0.33318080  0.33214475  1
  Fe  Fe6  1  0.99915146  0.66577383  0.99915049  1
  Fe  Fe7  1  0.16510862  0.83247869  0.16494789  1
  Fe  Fe8  1  0.99839233  0.66611140  0.33282432  1
  Fe  Fe9  1  0.33282700  -0.00053879  0.99929921  1
  Fe  Fe10  1  0.49930664  0.16496526  0.16599956  1
  Cr  Cr11  1  0.33285754  0.00134826  0.33263115  1
  Fe  Fe12  1  0.33059741  0.33159983  0.99915235  1
  Cr  Cr13  1  0.49856847  0.50002832  0.16647613  1
  Fe  Fe14  1  0.33162569  0.33157569  0.33281495  1
  Fe  Fe15  1  0.33175467  0.66684718  -0.00056621  1
  Fe  Fe16  1  0.50034515  0.83364067  0.16508283  1
  Cr  Cr17  1  0.33004644  0.66631455  0.33358244  1
  Fe  Fe18  1  0.66590975  0.99827361  0.99929881  1
  Fe  Fe19  1  0.83298268  0.16560355  0.16665832  1
  Fe  Fe20  1  0.66681544  0.99916761  0.33161062  1
  Cr  Cr21  1  0.66739432  0.33142733  0.99888046  1
  Fe  Fe22  1  0.83414070  0.49981118  0.16650642  1
  Fe  Fe23  1  0.66615044  0.33210208  0.33199219  1
  Fe  Fe24  1  0.66698812  0.66800717  -0.00069948  1
  Fe  Fe25  1  0.83244369  0.83248282  0.16600996  1
  Fe  Fe26  1  0.66842312  0.66662352  0.33212022  1
  Fe  Fe27  1  0.16574663  0.16648032  0.49877679  1
  Fe  Fe28  1  0.99895346  -0.00005179  0.66645254  1
  Fe  Fe29  1  0.16506970  0.16613951  0.83364883  1
  Fe  Fe30  1  0.16443537  0.49877689  0.49879433  1
  Fe  Fe31  1  0.99891888  0.33199439  0.66648923  1
  Fe  Fe32  1  0.16496360  0.49929459  0.83365182  1
  Fe  Fe33  1  0.16388414  0.83264657  0.49932612  1
  Cr  Cr34  1  0.99884414  0.66554643  0.66471076  1
  Fe  Fe35  1  0.16614673  0.83246052  0.83362293  1
  Fe  Fe36  1  0.49984161  0.16650307  0.49876300  1
  Cr  Cr37  1  0.33275544  0.99923044  0.66565527  1
  Fe  Fe38  1  0.49983512  0.16444411  0.83312681  1
  Cr  Cr39  1  0.49947692  0.49933287  0.49971797  1
  Cr  Cr40  1  0.33246454  0.33134717  0.66471946  1
  Cr  Cr41  1  0.49856773  0.50167270  0.83170487  1
  Cr  Cr42  1  0.50050676  0.83115048  0.50075394  1
  Fe  Fe43  1  0.33207545  0.66649348  0.66632463  1
  Fe  Fe44  1  0.49981685  0.83311846  0.83297513  1
  Cr  Cr45  1  0.83414629  0.16490875  0.50013608  1
  Fe  Fe46  1  0.66697953  -0.00067413  0.66700000  1
  Fe  Fe47  1  0.83299998  0.16561424  0.83191396  1
  Fe  Fe48  1  0.83297676  0.49995670  0.49878726  1
  Fe  Fe49  1  0.66752426  0.33210923  0.66662801  1
  Fe  Fe50  1  0.83363928  0.49927855  0.83259823  1
  Fe  Fe51  1  0.83301230  0.83197946  0.49877625  1
  Fe  Fe52  1  0.66620170  0.66646671  0.66648637  1
  Fe  Fe53  1  0.83193720  0.83300294  0.83310660  1
" 