8175,Fe21Cr79_11,-221.12846804776, 135.14992691964,Fe21Cr79,"# generated using pymatgen
 data_Cr11Fe43
_symmetry_space_group_name_H-M   'P 1'
_cell_length_a   7.47894516
_cell_length_b   7.47894516
_cell_length_c   10.57682568
_cell_angle_alpha   90.00000000
_cell_angle_beta   90.00000000
_cell_angle_gamma   90.00000000
_symmetry_Int_Tables_number   1
_chemical_formula_structural   Cr11Fe43
_chemical_formula_sum   'Cr11 Fe43'
_cell_volume   591.61073283
_cell_formula_units_Z   1
loop_
 _symmetry_equiv_pos_site_id
 _symmetry_equiv_pos_as_xyz
  1  'x, y, z'
loop_
 _atom_site_type_symbol
 _atom_site_label
 _atom_site_symmetry_multiplicity
 _atom_site_fract_x
 _atom_site_fract_y
 _atom_site_fract_z
 _atom_site_occupancy
  Fe  Fe0  1  0.99836466  0.00059743  0.99781438  1
  Fe  Fe1  1  0.16426944  0.16459219  0.16492556  1
  Fe  Fe2  1  0.99792034  0.00133951  0.33223696  1
  Fe  Fe3  1  0.99693106  0.32895116  0.99813123  1
  Cr  Cr4  1  0.16690966  0.49833199  0.16480671  1
  Cr  Cr5  1  -0.00071125  0.33119189  0.33379915  1
  Fe  Fe6  1  0.99734126  0.66784793  0.99742732  1
  Cr  Cr7  1  0.16598542  0.83235689  0.16480566  1
  Cr  Cr8  1  0.99816735  0.66701591  0.33446823  1
  Fe  Fe9  1  0.33306862  0.99880074  0.99739875  1
  Fe  Fe10  1  0.50165606  0.16761324  0.16630168  1
  Cr  Cr11  1  0.33199846  0.00202300  0.33291977  1
  Cr  Cr12  1  0.33459680  0.33001340  0.00106193  1
  Fe  Fe13  1  0.50031077  0.49888557  0.16684244  1
  Fe  Fe14  1  0.33489913  0.33396727  0.33341531  1
  Fe  Fe15  1  0.33482243  0.66720538  0.99695229  1
  Cr  Cr16  1  0.50135826  0.83280154  0.16597212  1
  Fe  Fe17  1  0.33364590  0.66278528  0.33423772  1
  Fe  Fe18  1  0.66634504  0.00067020  0.99771150  1
  Fe  Fe19  1  0.83186985  0.16267212  0.16480006  1
  Fe  Fe20  1  0.66858664  0.00269733  0.33143045  1
  Fe  Fe21  1  0.66652641  0.33097161  0.99747415  1
  Cr  Cr22  1  0.83177804  0.49767154  0.16303120  1
  Fe  Fe23  1  0.66362133  0.33166510  0.33329538  1
  Fe  Fe24  1  0.66526122  0.66582862  0.99668957  1
  Fe  Fe25  1  0.83238792  0.83446075  0.16517056  1
  Fe  Fe26  1  0.66415859  0.66314783  0.33238993  1
  Fe  Fe27  1  0.16592047  0.16511772  0.50170613  1
  Fe  Fe28  1  -0.00036072  -0.00019314  0.66667517  1
  Fe  Fe29  1  0.16524967  0.16376798  0.83174646  1
  Fe  Fe30  1  0.16781600  0.49954735  0.50151829  1
  Fe  Fe31  1  0.99812352  0.33166160  0.66461741  1
  Cr  Cr32  1  0.16398421  0.49794906  0.83351149  1
  Fe  Fe33  1  0.16615168  0.83315033  0.50126944  1
  Fe  Fe34  1  0.99862908  0.66624870  0.66520128  1
  Fe  Fe35  1  0.16581550  0.83425758  0.83274332  1
  Fe  Fe36  1  0.50075697  0.16808393  0.50050803  1
  Fe  Fe37  1  0.33182516  0.00014188  0.66666927  1
  Fe  Fe38  1  0.49964719  0.16552667  0.83150540  1
  Fe  Fe39  1  0.49976446  0.49768278  0.49971706  1
  Fe  Fe40  1  0.33342779  0.33175657  0.66565629  1
  Fe  Fe41  1  0.50088887  0.49936395  0.83183092  1
  Cr  Cr42  1  0.49966781  0.83341130  0.49994229  1
  Fe  Fe43  1  0.33247789  0.66569163  0.66638492  1
  Fe  Fe44  1  0.49893541  0.83248170  0.83220740  1
  Fe  Fe45  1  0.83079645  0.16670775  0.50073530  1
  Fe  Fe46  1  0.66608444  0.00082969  0.66787148  1
  Fe  Fe47  1  0.83294989  0.16642447  0.83222775  1
  Fe  Fe48  1  0.82993450  0.49789470  0.50111532  1
  Fe  Fe49  1  0.66588874  0.33249910  0.66619116  1
  Fe  Fe50  1  0.83052750  0.49885113  0.83280454  1
  Cr  Cr51  1  0.83088011  0.83519768  0.49768031  1
  Fe  Fe52  1  0.66627985  0.66454841  0.66747503  1
  Fe  Fe53  1  0.83291641  0.83234228  0.83202677  1
" 