5049,Fe21Cr79_15,-221.270040910599, 136.294597993,Fe21Cr79,"# generated using pymatgen
 data_Cr11Fe43
_symmetry_space_group_name_H-M   'P 1'
_cell_length_a   7.48139041
_cell_length_b   7.48139041
_cell_length_c   10.58028378
_cell_angle_alpha   90.00000000
_cell_angle_beta   90.00000000
_cell_angle_gamma   90.00000000
_symmetry_Int_Tables_number   1
_chemical_formula_structural   Cr11Fe43
_chemical_formula_sum   'Cr11 Fe43'
_cell_volume   592.19120462
_cell_formula_units_Z   1
loop_
 _symmetry_equiv_pos_site_id
 _symmetry_equiv_pos_as_xyz
  1  'x, y, z'
loop_
 _atom_site_type_symbol
 _atom_site_label
 _atom_site_symmetry_multiplicity
 _atom_site_fract_x
 _atom_site_fract_y
 _atom_site_fract_z
 _atom_site_occupancy
  Fe  Fe0  1  0.99682550  0.00018008  -0.00075297  1
  Fe  Fe1  1  0.16410399  0.16567193  0.16545350  1
  Fe  Fe2  1  0.99821142  -0.00021114  0.33352663  1
  Fe  Fe3  1  0.99662883  0.33171638  -0.00063199  1
  Cr  Cr4  1  0.16453624  0.49782673  0.16705743  1
  Fe  Fe5  1  0.99796014  0.33143187  0.33372508  1
  Cr  Cr6  1  0.99784761  0.66612156  0.99658576  1
  Cr  Cr7  1  0.16582472  0.83294087  0.16595519  1
  Fe  Fe8  1  0.99730998  0.66585896  0.33356836  1
  Fe  Fe9  1  0.33183313  0.99764924  -0.00038029  1
  Cr  Cr10  1  0.49932854  0.16518799  0.16494019  1
  Fe  Fe11  1  0.33265345  -0.00093730  0.33436188  1
  Fe  Fe12  1  0.33282320  0.33498183  -0.00047150  1
  Fe  Fe13  1  0.50024554  0.50077032  0.16591478  1
  Fe  Fe14  1  0.33280872  0.33217008  0.33398231  1
  Fe  Fe15  1  0.33434894  0.66451748  0.99885436  1
  Fe  Fe16  1  0.50046617  0.83036269  0.16552596  1
  Fe  Fe17  1  0.33415108  0.66579577  0.33385828  1
  Fe  Fe18  1  0.66878937  0.99783842  0.00005038  1
  Fe  Fe19  1  0.83468063  0.16581118  0.16591015  1
  Fe  Fe20  1  0.66631960  0.99819761  0.33308281  1
  Fe  Fe21  1  0.66772172  0.33456520  0.99887805  1
  Fe  Fe22  1  0.83012261  0.49843174  0.16650708  1
  Fe  Fe23  1  0.66629868  0.33314829  0.33336050  1
  Fe  Fe24  1  0.66502904  0.66460613  0.00022948  1
  Fe  Fe25  1  0.83026349  0.83295034  0.16654180  1
  Fe  Fe26  1  0.66558055  0.66571468  0.33232336  1
  Fe  Fe27  1  0.16578925  0.16669510  0.49692503  1
  Cr  Cr28  1  0.99865967  0.99736187  0.66681122  1
  Cr  Cr29  1  0.16617899  0.16741676  0.83635662  1
  Fe  Fe30  1  0.16627489  0.50001816  0.49762587  1
  Cr  Cr31  1  0.99832334  0.33357590  0.66620901  1
  Fe  Fe32  1  0.16839546  0.50085956  0.83248271  1
  Fe  Fe33  1  0.16519680  0.83028685  0.49674271  1
  Fe  Fe34  1  -0.00095702  0.66552475  0.66603493  1
  Fe  Fe35  1  0.16630742  0.83094605  0.83301261  1
  Fe  Fe36  1  0.49946750  0.16595671  0.49703701  1
  Cr  Cr37  1  0.33223134  0.99806706  0.66274684  1
  Cr  Cr38  1  0.50044679  0.16594260  0.83132691  1
  Fe  Fe39  1  0.49838249  0.50007241  0.49807369  1
  Fe  Fe40  1  0.33150878  0.33483181  0.66406759  1
  Fe  Fe41  1  0.49793856  0.49957424  0.83319534  1
  Fe  Fe42  1  0.50040255  0.83102870  0.49816672  1
  Fe  Fe43  1  0.33136347  0.66293599  0.66487351  1
  Cr  Cr44  1  0.50086893  0.83196395  0.83291960  1
  Fe  Fe45  1  0.83173385  0.16495887  0.49689862  1
  Fe  Fe46  1  0.66741435  0.99767725  0.66366670  1
  Fe  Fe47  1  0.83138056  0.16464440  0.83475077  1
  Fe  Fe48  1  0.83230305  0.50083359  0.49733712  1
  Cr  Cr49  1  0.66495766  0.33310008  0.66502091  1
  Fe  Fe50  1  0.83053097  0.49949462  0.83293653  1
  Fe  Fe51  1  0.83154701  0.83130886  0.49803439  1
  Fe  Fe52  1  0.66701290  0.66685365  0.66473474  1
  Fe  Fe53  1  0.83186505  0.83300876  0.83229324  1
" 