4476,Fe21Cr79_0,-221.017189601261, 136.272349507723,Fe21Cr79,"# generated using pymatgen
 data_Cr11Fe43
_symmetry_space_group_name_H-M   'P 1'
_cell_length_a   7.48497468
_cell_length_b   7.48497468
_cell_length_c   10.58535271
_cell_angle_alpha   90.00000000
_cell_angle_beta   90.00000000
_cell_angle_gamma   90.00000000
_symmetry_Int_Tables_number   1
_chemical_formula_structural   Cr11Fe43
_chemical_formula_sum   'Cr11 Fe43'
_cell_volume   593.04275549
_cell_formula_units_Z   1
loop_
 _symmetry_equiv_pos_site_id
 _symmetry_equiv_pos_as_xyz
  1  'x, y, z'
loop_
 _atom_site_type_symbol
 _atom_site_label
 _atom_site_symmetry_multiplicity
 _atom_site_fract_x
 _atom_site_fract_y
 _atom_site_fract_z
 _atom_site_occupancy
  Fe  Fe0  1  0.00030663  -0.00070108  0.99845405  1
  Fe  Fe1  1  0.16715866  0.16545777  0.16444295  1
  Cr  Cr2  1  -0.00051420  0.99687668  0.33202739  1
  Fe  Fe3  1  -0.00082757  0.33147945  0.99844373  1
  Fe  Fe4  1  0.16664699  0.49931678  0.16480794  1
  Cr  Cr5  1  0.00095517  0.33365248  0.33308014  1
  Fe  Fe6  1  0.99865319  0.66563077  -0.00118103  1
  Fe  Fe7  1  0.16667032  0.83163216  0.16480670  1
  Fe  Fe8  1  -0.00022081  0.66546951  0.33315071  1
  Fe  Fe9  1  0.33161366  -0.00069470  -0.00069229  1
  Fe  Fe10  1  0.49761592  0.16594968  0.16600855  1
  Fe  Fe11  1  0.33251295  -0.00053050  0.33163692  1
  Fe  Fe12  1  0.33276047  0.33148436  -0.00083555  1
  Fe  Fe13  1  0.49811456  0.49880027  0.16546995  1
  Fe  Fe14  1  0.33300495  0.33196582  0.33229261  1
  Fe  Fe15  1  0.33327468  0.66561933  -0.00020240  1
  Fe  Fe16  1  0.49759993  0.83165551  0.16612054  1
  Fe  Fe17  1  0.33133749  0.66497345  0.33163945  1
  Cr  Cr18  1  0.66507710  0.99773690  0.99799375  1
  Cr  Cr19  1  0.83119143  0.16640547  0.16493745  1
  Fe  Fe20  1  0.66360956  -0.00105202  0.33199993  1
  Fe  Fe21  1  0.66447452  0.33313720  0.99779486  1
  Cr  Cr22  1  0.83194277  0.49836559  0.16485817  1
  Fe  Fe23  1  0.66311592  0.33247401  0.33264435  1
  Fe  Fe24  1  0.66448345  0.66447713  0.99779255  1
  Cr  Cr25  1  0.83222291  0.83163334  0.16661440  1
  Fe  Fe26  1  0.66528637  0.66498822  0.33264481  1
  Fe  Fe27  1  0.16710831  0.16481194  0.49932381  1
  Fe  Fe28  1  -0.00103521  -0.00104572  0.66531633  1
  Fe  Fe29  1  0.16495738  0.16496869  0.83263575  1
  Fe  Fe30  1  0.16545818  0.49981614  0.49896039  1
  Fe  Fe31  1  0.99784022  0.33212981  0.66531690  1
  Cr  Cr32  1  0.16509400  0.49884194  0.83315203  1
  Fe  Fe33  1  0.16482946  0.83177711  0.49946378  1
  Fe  Fe34  1  0.99796768  0.66532717  0.66444202  1
  Cr  Cr35  1  0.16684845  0.83279650  0.83181541  1
  Fe  Fe36  1  0.49831261  0.16594743  0.49827207  1
  Fe  Fe37  1  0.33212656  -0.00118544  0.66546327  1
  Fe  Fe38  1  0.49850512  0.16546203  0.83211930  1
  Fe  Fe39  1  0.49945412  0.49815572  0.49829606  1
  Cr  Cr40  1  0.33231529  0.33175837  0.66403382  1
  Fe  Fe41  1  0.50013849  0.49945724  0.83263511  1
  Cr  Cr42  1  0.49783498  0.83264913  0.49912105  1
  Fe  Fe43  1  0.33262764  0.66595957  0.66497429  1
  Fe  Fe44  1  0.49913543  0.83148421  0.83148374  1
  Cr  Cr45  1  0.83049707  0.16611531  0.49919535  1
  Fe  Fe46  1  0.66531499  -0.00106243  0.66660425  1
  Fe  Fe47  1  0.83294519  0.16597552  0.83165437  1
  Fe  Fe48  1  0.83149994  0.50044106  0.49913566  1
  Fe  Fe49  1  0.66595370  0.33263349  0.66596512  1
  Fe  Fe50  1  0.83129705  0.49893472  0.83230540  1
  Fe  Fe51  1  0.83262314  0.83064657  0.49912657  1
  Fe  Fe52  1  0.66581157  0.66483920  0.66597554  1
  Fe  Fe53  1  0.83180460  0.83149412  0.83179493  1
" 