7343,Fe21Cr79_16,-221.081715428582, 134.464876038845,Fe21Cr79,"# generated using pymatgen
 data_Cr11Fe43
_symmetry_space_group_name_H-M   'P 1'
_cell_length_a   7.48416680
_cell_length_b   7.48416680
_cell_length_c   10.58421020
_cell_angle_alpha   90.00000000
_cell_angle_beta   90.00000000
_cell_angle_gamma   90.00000000
_symmetry_Int_Tables_number   1
_chemical_formula_structural   Cr11Fe43
_chemical_formula_sum   'Cr11 Fe43'
_cell_volume   592.85074889
_cell_formula_units_Z   1
loop_
 _symmetry_equiv_pos_site_id
 _symmetry_equiv_pos_as_xyz
  1  'x, y, z'
loop_
 _atom_site_type_symbol
 _atom_site_label
 _atom_site_symmetry_multiplicity
 _atom_site_fract_x
 _atom_site_fract_y
 _atom_site_fract_z
 _atom_site_occupancy
  Fe  Fe0  1  0.99862365  -0.00070856  0.99711184  1
  Fe  Fe1  1  0.16447216  0.16593935  0.16250021  1
  Fe  Fe2  1  0.99758334  -0.00023667  0.33289988  1
  Fe  Fe3  1  -0.00037848  0.33299992  0.99795600  1
  Fe  Fe4  1  0.16309746  0.49731837  0.16347192  1
  Fe  Fe5  1  0.99799888  0.33235353  0.33210538  1
  Fe  Fe6  1  0.99782073  0.66427570  0.99708323  1
  Cr  Cr7  1  0.16473260  0.83121248  0.16485178  1
  Fe  Fe8  1  0.99602203  0.66454195  0.33206016  1
  Fe  Fe9  1  0.33196704  0.00082863  0.99746122  1
  Fe  Fe10  1  0.49956802  0.16642490  0.16245412  1
  Cr  Cr11  1  0.33270423  0.00213070  0.33232735  1
  Fe  Fe12  1  0.33204560  0.33218933  -0.00076696  1
  Fe  Fe13  1  0.50147406  0.49743915  0.16310440  1
  Cr  Cr14  1  0.33153876  0.33112243  0.32852811  1
  Fe  Fe15  1  0.33207144  0.66341781  0.99739005  1
  Cr  Cr16  1  0.50005448  0.83246737  0.16452343  1
  Cr  Cr17  1  0.33321772  0.66330351  0.33260914  1
  Fe  Fe18  1  0.66583505  -0.00074184  0.99647853  1
  Cr  Cr19  1  0.83060850  0.16637054  0.16513151  1
  Fe  Fe20  1  0.66648185  -0.00091885  0.33424694  1
  Fe  Fe21  1  0.66477704  0.33307751  0.99780236  1
  Fe  Fe22  1  0.83197421  0.50134256  0.16521688  1
  Fe  Fe23  1  0.66524062  0.33313999  0.33307225  1
  Fe  Fe24  1  0.66665692  0.66438933  0.99723172  1
  Fe  Fe25  1  0.83188544  0.83095192  0.16521866  1
  Fe  Fe26  1  0.66738154  0.66451315  0.33322386  1
  Fe  Fe27  1  0.16377506  0.16658300  0.50080700  1
  Fe  Fe28  1  0.99879112  0.00106143  0.66700971  1
  Fe  Fe29  1  0.16565190  0.16581102  0.83217997  1
  Cr  Cr30  1  0.16533151  0.49808735  0.50056900  1
  Fe  Fe31  1  0.99675799  0.32951727  0.66685423  1
  Fe  Fe32  1  0.16674269  0.49744980  0.83274428  1
  Cr  Cr33  1  0.16631730  0.83282085  0.50075001  1
  Cr  Cr34  1  0.99684171  0.66519521  0.66834385  1
  Fe  Fe35  1  0.16667116  0.83321563  0.83330008  1
  Fe  Fe36  1  0.49901236  0.16754378  0.49998601  1
  Fe  Fe37  1  0.33188380  -0.00043722  0.66679610  1
  Fe  Fe38  1  0.49806547  0.16662431  0.83306058  1
  Fe  Fe39  1  0.50039698  0.49680597  0.49929467  1
  Fe  Fe40  1  0.33373403  0.33138848  0.66654263  1
  Fe  Fe41  1  0.49814006  0.49778109  0.83304978  1
  Fe  Fe42  1  0.50027599  0.83215649  0.49830038  1
  Fe  Fe43  1  0.33408791  0.66580172  0.66762668  1
  Fe  Fe44  1  0.49743357  0.83214973  0.83422847  1
  Fe  Fe45  1  0.83378447  0.16670408  0.49772924  1
  Cr  Cr46  1  0.66614173  -0.00093825  0.66591384  1
  Fe  Fe47  1  0.83281413  0.16660336  0.83358363  1
  Fe  Fe48  1  0.83125984  0.49715310  0.49738636  1
  Fe  Fe49  1  0.66625541  0.33230395  0.66586100  1
  Fe  Fe50  1  0.83164675  0.49662639  0.83409470  1
  Fe  Fe51  1  0.83235323  0.83251354  0.49663878  1
  Cr  Cr52  1  0.66620586  0.66535284  0.66554911  1
  Fe  Fe53  1  0.83241360  0.83322139  0.83474648  1
" 