6316,Fe21Cr79_10,-221.153301547784, 136.839455282167,Fe21Cr79,"# generated using pymatgen
 data_Cr11Fe43
_symmetry_space_group_name_H-M   'P 1'
_cell_length_a   7.48460833
_cell_length_b   7.48460833
_cell_length_c   10.58483461
_cell_angle_alpha   90.00000000
_cell_angle_beta   90.00000000
_cell_angle_gamma   90.00000000
_symmetry_Int_Tables_number   1
_chemical_formula_structural   Cr11Fe43
_chemical_formula_sum   'Cr11 Fe43'
_cell_volume   592.95567976
_cell_formula_units_Z   1
loop_
 _symmetry_equiv_pos_site_id
 _symmetry_equiv_pos_as_xyz
  1  'x, y, z'
loop_
 _atom_site_type_symbol
 _atom_site_label
 _atom_site_symmetry_multiplicity
 _atom_site_fract_x
 _atom_site_fract_y
 _atom_site_fract_z
 _atom_site_occupancy
  Cr  Cr0  1  0.99584739  0.00318487  0.00064996  1
  Fe  Fe1  1  0.16469161  0.16699236  0.16660355  1
  Fe  Fe2  1  0.99730418  -0.00063396  0.33043307  1
  Fe  Fe3  1  -0.00114217  0.33436451  0.00012610  1
  Fe  Fe4  1  0.16512515  0.49678695  0.16464247  1
  Fe  Fe5  1  0.99860753  0.33304272  0.33206747  1
  Fe  Fe6  1  -0.00091907  0.66444241  0.00167999  1
  Fe  Fe7  1  0.16566019  0.83332494  0.16516874  1
  Fe  Fe8  1  0.99794032  0.66453210  0.33071529  1
  Fe  Fe9  1  0.33390853  0.99864132  0.00010952  1
  Cr  Cr10  1  0.49826353  0.16712207  0.16778202  1
  Fe  Fe11  1  0.33185390  -0.00055053  0.33248858  1
  Fe  Fe12  1  0.33200232  0.33312667  -0.00085074  1
  Fe  Fe13  1  0.49954488  0.49865512  0.16395788  1
  Fe  Fe14  1  0.32964675  0.33087918  0.33238945  1
  Fe  Fe15  1  0.33266267  0.66477432  0.00010404  1
  Fe  Fe16  1  0.49919556  0.83300678  0.16376651  1
  Cr  Cr17  1  0.33254369  0.66471830  0.33029410  1
  Fe  Fe18  1  0.66370052  -0.00081520  -0.00100610  1
  Fe  Fe19  1  0.83197491  0.16741487  0.16731102  1
  Fe  Fe20  1  0.66652096  -0.00058684  0.33319661  1
  Fe  Fe21  1  0.66621447  0.33092088  -0.00086864  1
  Fe  Fe22  1  0.83185670  0.49733544  0.16456221  1
  Fe  Fe23  1  0.66865024  0.33100256  0.33217680  1
  Fe  Fe24  1  0.66470281  0.66594747  0.00077258  1
  Fe  Fe25  1  0.83113494  0.83263646  0.16536187  1
  Cr  Cr26  1  0.66539292  0.66616365  0.33250526  1
  Fe  Fe27  1  0.16578012  0.16815075  0.49879443  1
  Fe  Fe28  1  0.99708260  0.00174100  0.66413811  1
  Cr  Cr29  1  0.16805527  0.16558543  0.83158456  1
  Fe  Fe30  1  0.16416038  0.49684246  0.49840893  1
  Fe  Fe31  1  -0.00063514  0.33214236  0.66402694  1
  Fe  Fe32  1  0.16509645  0.49824461  0.83351930  1
  Cr  Cr33  1  0.16287799  0.83413804  0.49878921  1
  Fe  Fe34  1  0.99840483  0.66322466  0.66347029  1
  Cr  Cr35  1  0.16484686  0.83216849  0.83276927  1
  Fe  Fe36  1  0.49858314  0.16224106  0.49749546  1
  Fe  Fe37  1  0.33511795  0.00053992  0.66465670  1
  Fe  Fe38  1  0.50201835  0.16534894  0.83290222  1
  Cr  Cr39  1  0.50138462  0.49353651  0.49737440  1
  Fe  Fe40  1  0.33313779  0.33009316  0.66513434  1
  Fe  Fe41  1  0.49787819  0.49747313  0.83366373  1
  Fe  Fe42  1  0.49950342  0.83429468  0.49938125  1
  Cr  Cr43  1  0.33377948  0.66369814  0.66679584  1
  Fe  Fe44  1  0.49983007  0.83311305  0.83345767  1
  Fe  Fe45  1  0.83214454  0.16576162  0.49842960  1
  Fe  Fe46  1  0.66399264  -0.00006578  0.66446563  1
  Fe  Fe47  1  0.83081626  0.16576090  0.83097448  1
  Fe  Fe48  1  0.83555646  0.49811188  0.49971470  1
  Fe  Fe49  1  0.66505795  0.32968996  0.66544597  1
  Cr  Cr50  1  0.83080805  0.49879225  0.83157642  1
  Fe  Fe51  1  0.83029844  0.83320907  0.50025672  1
  Fe  Fe52  1  0.66588845  0.66562268  0.66312643  1
  Cr  Cr53  1  0.83230084  0.83076302  0.83015917  1
" 