8550,Fe21Cr79_6,-221.174297045697, 136.82204389105,Fe21Cr79,"# generated using pymatgen
 data_Cr11Fe43
_symmetry_space_group_name_H-M   'P 1'
_cell_length_a   7.47810207
_cell_length_b   7.47810207
_cell_length_c   10.57563337
_cell_angle_alpha   90.00000000
_cell_angle_beta   90.00000000
_cell_angle_gamma   90.00000000
_symmetry_Int_Tables_number   1
_chemical_formula_structural   Cr11Fe43
_chemical_formula_sum   'Cr11 Fe43'
_cell_volume   591.41068089
_cell_formula_units_Z   1
loop_
 _symmetry_equiv_pos_site_id
 _symmetry_equiv_pos_as_xyz
  1  'x, y, z'
loop_
 _atom_site_type_symbol
 _atom_site_label
 _atom_site_symmetry_multiplicity
 _atom_site_fract_x
 _atom_site_fract_y
 _atom_site_fract_z
 _atom_site_occupancy
  Cr  Cr0  1  -0.00050137  0.99814545  0.00174325  1
  Cr  Cr1  1  0.16491896  0.16714650  0.16713390  1
  Fe  Fe2  1  0.99763276  0.00075763  0.33226767  1
  Fe  Fe3  1  -0.00066373  0.33386020  -0.00065743  1
  Fe  Fe4  1  0.16781425  0.49914571  0.16592602  1
  Fe  Fe5  1  0.99820153  0.33125799  0.33350816  1
  Cr  Cr6  1  0.00056995  0.66335843  0.99827675  1
  Fe  Fe7  1  0.16789706  0.83091850  0.16631168  1
  Cr  Cr8  1  -0.00054683  0.66483550  0.33112596  1
  Fe  Fe9  1  0.33462271  0.99839596  0.99888661  1
  Fe  Fe10  1  0.50055079  0.16780886  0.16418527  1
  Cr  Cr11  1  0.33471363  0.00027111  0.33252979  1
  Fe  Fe12  1  0.33280878  0.33333583  0.99848849  1
  Fe  Fe13  1  0.49893086  0.49892631  0.16590558  1
  Fe  Fe14  1  0.33354979  0.33496245  0.33341536  1
  Fe  Fe15  1  0.33402314  0.66613482  0.99888920  1
  Fe  Fe16  1  0.49896252  0.83116629  0.16436559  1
  Fe  Fe17  1  0.33530265  0.66392878  0.33212737  1
  Fe  Fe18  1  0.66324935  0.99905902  0.00098938  1
  Fe  Fe19  1  0.83084921  0.16791199  0.16556091  1
  Cr  Cr20  1  0.66636873  0.00134023  0.33146906  1
  Fe  Fe21  1  0.66559876  0.33343033  0.00010324  1
  Fe  Fe22  1  0.83119533  0.49728302  0.16584720  1
  Fe  Fe23  1  0.66586657  0.33427009  0.33263462  1
  Fe  Fe24  1  0.66406327  0.66538824  0.00001613  1
  Fe  Fe25  1  0.83112485  0.83247191  0.16566585  1
  Fe  Fe26  1  0.66415160  0.66482932  0.33257544  1
  Fe  Fe27  1  0.16521506  0.16847496  0.49968671  1
  Fe  Fe28  1  0.00038177  0.00134920  0.66538918  1
  Fe  Fe29  1  0.16796301  0.16636422  0.83222958  1
  Fe  Fe30  1  0.16665463  0.49579569  0.49851791  1
  Fe  Fe31  1  0.00040422  0.33199286  0.66513327  1
  Fe  Fe32  1  0.16646539  0.49641633  0.83339274  1
  Cr  Cr33  1  0.16573501  0.83475219  0.49814873  1
  Cr  Cr34  1  0.99822161  0.66359003  0.66800331  1
  Fe  Fe35  1  0.16854661  0.83473007  0.83249422  1
  Fe  Fe36  1  0.49903665  0.16735850  0.50085822  1
  Fe  Fe37  1  0.33322701  0.00138109  0.66640665  1
  Fe  Fe38  1  0.49815187  0.16568224  0.83261008  1
  Fe  Fe39  1  0.49974902  0.49874265  0.49848309  1
  Fe  Fe40  1  0.33239866  0.33130139  0.66596860  1
  Fe  Fe41  1  0.50075635  0.49841491  0.83343904  1
  Fe  Fe42  1  0.50163014  0.83176741  0.50000943  1
  Cr  Cr43  1  0.33280844  0.66515015  0.66671240  1
  Fe  Fe44  1  0.49863677  0.83369018  0.83339375  1
  Fe  Fe45  1  0.83363514  0.16645935  0.50038373  1
  Fe  Fe46  1  0.66416834  0.99908491  0.66402419  1
  Cr  Cr47  1  0.83298327  0.16769826  0.83296924  1
  Fe  Fe48  1  0.83131209  0.49802433  0.49923166  1
  Fe  Fe49  1  0.66505818  0.33397622  0.66512808  1
  Fe  Fe50  1  0.83060162  0.49757624  0.83271310  1
  Fe  Fe51  1  0.83040221  0.83315845  0.50031806  1
  Fe  Fe52  1  0.66477434  0.66478272  0.66492860  1
  Cr  Cr53  1  0.82991485  0.83203236  0.83022278  1
" 