3897,Fe21Cr79_12,-221.288044731348, 137.468659126438,Fe21Cr79,"# generated using pymatgen
 data_Cr11Fe43
_symmetry_space_group_name_H-M   'P 1'
_cell_length_a   7.47900435
_cell_length_b   7.47900435
_cell_length_c   10.57690939
_cell_angle_alpha   90.00000000
_cell_angle_beta   90.00000000
_cell_angle_gamma   90.00000000
_symmetry_Int_Tables_number   1
_chemical_formula_structural   Cr11Fe43
_chemical_formula_sum   'Cr11 Fe43'
_cell_volume   591.62477989
_cell_formula_units_Z   1
loop_
 _symmetry_equiv_pos_site_id
 _symmetry_equiv_pos_as_xyz
  1  'x, y, z'
loop_
 _atom_site_type_symbol
 _atom_site_label
 _atom_site_symmetry_multiplicity
 _atom_site_fract_x
 _atom_site_fract_y
 _atom_site_fract_z
 _atom_site_occupancy
  Fe  Fe0  1  0.99866648  0.99866889  0.99840121  1
  Cr  Cr1  1  0.16402713  0.16619569  0.16462247  1
  Fe  Fe2  1  0.99668540  0.99755484  0.33259072  1
  Fe  Fe3  1  0.99635739  0.33256421  0.99907826  1
  Fe  Fe4  1  0.16364542  0.50122662  0.16489364  1
  Fe  Fe5  1  0.99668660  0.33420368  0.33256089  1
  Fe  Fe6  1  0.99872336  0.66634829  -0.00013520  1
  Fe  Fe7  1  0.16431009  0.83115499  0.16434836  1
  Fe  Fe8  1  -0.00039430  0.66590182  0.33253498  1
  Fe  Fe9  1  0.33179915  0.99699713  0.00014625  1
  Fe  Fe10  1  0.50272070  0.16517147  0.16493496  1
  Cr  Cr11  1  0.33327920  0.99803882  0.33152815  1
  Cr  Cr12  1  0.33398538  0.33292077  0.99913233  1
  Fe  Fe13  1  0.50055151  0.49907348  0.16449055  1
  Cr  Cr14  1  0.33437490  0.33381118  0.33342936  1
  Fe  Fe15  1  0.33242951  0.66724198  0.00083172  1
  Fe  Fe16  1  0.49983552  0.83336713  0.16349299  1
  Cr  Cr17  1  0.33036896  0.66581298  0.33148973  1
  Fe  Fe18  1  0.66712851  -0.00056524  0.00060238  1
  Fe  Fe19  1  0.83104787  0.16587664  0.16591215  1
  Fe  Fe20  1  0.66686137  0.00058235  0.33255281  1
  Fe  Fe21  1  0.66807834  0.33322159  -0.00038358  1
  Fe  Fe22  1  0.83349422  0.49826060  0.16519071  1
  Fe  Fe23  1  0.66691568  0.33111758  0.33277443  1
  Fe  Fe24  1  0.66641086  0.66488000  0.00016591  1
  Fe  Fe25  1  0.83346318  0.83346200  0.16518152  1
  Cr  Cr26  1  0.66759453  0.66581159  0.33358060  1
  Cr  Cr27  1  0.16483690  0.16742323  0.50178074  1
  Fe  Fe28  1  0.99815913  0.99867133  0.66666812  1
  Fe  Fe29  1  0.16396196  0.16349325  0.83181257  1
  Fe  Fe30  1  0.16437183  0.50071818  0.50088436  1
  Fe  Fe31  1  0.99896417  0.33253531  0.66596043  1
  Cr  Cr32  1  0.16439704  0.49837578  0.83115647  1
  Fe  Fe33  1  0.16443060  0.83121783  0.50061684  1
  Fe  Fe34  1  0.99814787  0.66639713  0.66514398  1
  Fe  Fe35  1  0.16480331  0.83409628  0.83252066  1
  Fe  Fe36  1  0.50130820  0.16504088  0.50014830  1
  Fe  Fe37  1  0.33207459  0.99859423  0.66497779  1
  Cr  Cr38  1  0.49843307  0.16449180  0.83249854  1
  Fe  Fe39  1  0.49894813  0.49913714  0.50065083  1
  Fe  Fe40  1  0.33195662  0.33330680  0.66522082  1
  Fe  Fe41  1  0.50053567  0.50060769  0.83254845  1
  Fe  Fe42  1  0.49965597  0.83342614  0.50151737  1
  Fe  Fe43  1  0.33277778  0.66563072  0.66420835  1
  Cr  Cr44  1  0.50050387  0.83113632  0.83253278  1
  Fe  Fe45  1  0.83177373  0.16516587  0.49845327  1
  Fe  Fe46  1  0.66738085  0.99785297  0.66444603  1
  Fe  Fe47  1  0.83460895  0.16517738  0.83323704  1
  Fe  Fe48  1  0.83431420  0.49892411  0.49922102  1
  Cr  Cr49  1  0.66598722  0.33386930  0.66604791  1
  Fe  Fe50  1  0.83127951  0.50002369  0.83329535  1
  Fe  Fe51  1  0.83351842  0.83351599  0.49993427  1
  Fe  Fe52  1  0.66668511  0.66662448  0.66485919  1
  Fe  Fe53  1  0.83397316  0.83247994  0.83254512  1
" 