396,Fe21Cr79_14,-221.191775894112, 137.339307938739,Fe21Cr79,"# generated using pymatgen
 data_Cr11Fe43
_symmetry_space_group_name_H-M   'P 1'
_cell_length_a   7.48269626
_cell_length_b   7.48269626
_cell_length_c   10.58213053
_cell_angle_alpha   90.00000000
_cell_angle_beta   90.00000000
_cell_angle_gamma   90.00000000
_symmetry_Int_Tables_number   1
_chemical_formula_structural   Cr11Fe43
_chemical_formula_sum   'Cr11 Fe43'
_cell_volume   592.50135370
_cell_formula_units_Z   1
loop_
 _symmetry_equiv_pos_site_id
 _symmetry_equiv_pos_as_xyz
  1  'x, y, z'
loop_
 _atom_site_type_symbol
 _atom_site_label
 _atom_site_symmetry_multiplicity
 _atom_site_fract_x
 _atom_site_fract_y
 _atom_site_fract_z
 _atom_site_occupancy
  Fe  Fe0  1  0.99693755  0.00051082  0.00006964  1
  Fe  Fe1  1  0.16546443  0.16770490  0.16569386  1
  Fe  Fe2  1  0.99684342  0.99797016  0.33257404  1
  Fe  Fe3  1  -0.00073501  0.33204938  -0.00062708  1
  Fe  Fe4  1  0.16734312  0.49838696  0.16507796  1
  Cr  Cr5  1  0.99855104  0.33310686  0.33272452  1
  Fe  Fe6  1  0.00005617  0.66453240  0.99890974  1
  Cr  Cr7  1  0.16476336  0.83277553  0.16640007  1
  Fe  Fe8  1  0.99845447  0.66685351  0.33381498  1
  Cr  Cr9  1  0.33313381  0.99793664  -0.00088878  1
  Fe  Fe10  1  0.49918504  0.16592661  0.16585114  1
  Fe  Fe11  1  0.33418343  -0.00058994  0.33178275  1
  Fe  Fe12  1  0.33303618  0.33409414  -0.00037693  1
  Fe  Fe13  1  0.49667781  0.49980265  0.16526962  1
  Fe  Fe14  1  0.33288599  0.33319406  0.33146466  1
  Fe  Fe15  1  0.33266918  0.66259642  -0.00055293  1
  Fe  Fe16  1  0.50151588  0.83089533  0.16629635  1
  Fe  Fe17  1  0.33300956  0.66437536  0.33301596  1
  Fe  Fe18  1  0.66669983  0.00050244  0.00056265  1
  Fe  Fe19  1  0.83239272  0.16336634  0.16465335  1
  Fe  Fe20  1  0.66591903  0.99747280  0.33234992  1
  Fe  Fe21  1  0.66434262  0.33112255  0.99811993  1
  Cr  Cr22  1  0.83047787  0.50037233  0.16494534  1
  Cr  Cr23  1  0.66509030  0.33168274  0.33373059  1
  Fe  Fe24  1  0.66379002  0.66512488  -0.00028966  1
  Fe  Fe25  1  0.83049327  0.83375528  0.16531386  1
  Fe  Fe26  1  0.66515242  0.66744709  0.33331249  1
  Cr  Cr27  1  0.16698148  0.16555930  0.49869845  1
  Fe  Fe28  1  0.99650343  -0.00083886  0.66409533  1
  Cr  Cr29  1  0.16549695  0.16711734  0.83131593  1
  Fe  Fe30  1  0.16652424  0.50100986  0.49962990  1
  Fe  Fe31  1  -0.00092148  0.33418906  0.66494797  1
  Fe  Fe32  1  0.16560161  0.49983650  0.83224319  1
  Fe  Fe33  1  0.16579018  0.83085566  0.49897607  1
  Fe  Fe34  1  0.99812445  0.66371306  0.66403832  1
  Cr  Cr35  1  0.16530561  0.83237653  0.82974893  1
  Fe  Fe36  1  0.49908052  0.16395420  0.49916682  1
  Fe  Fe37  1  0.33457155  -0.00073037  0.66429865  1
  Fe  Fe38  1  0.50030936  0.16617426  0.83238919  1
  Fe  Fe39  1  0.49715896  0.50003120  0.49912357  1
  Fe  Fe40  1  0.33276056  0.33427143  0.66546772  1
  Fe  Fe41  1  0.49798677  0.49816686  0.83298332  1
  Fe  Fe42  1  0.49856288  0.83263361  0.49918055  1
  Fe  Fe43  1  0.33281479  0.66354084  0.66385082  1
  Cr  Cr44  1  0.50002682  0.83099036  0.83137739  1
  Fe  Fe45  1  0.83189628  0.16311107  0.49965140  1
  Fe  Fe46  1  0.66585762  0.99843886  0.66410846  1
  Fe  Fe47  1  0.83162114  0.16548238  0.83323291  1
  Fe  Fe48  1  0.83310268  0.50109198  0.49944180  1
  Cr  Cr49  1  0.66673335  0.33210115  0.66580213  1
  Fe  Fe50  1  0.83338642  0.49828283  0.83362322  1
  Fe  Fe51  1  0.83247517  0.83256769  0.49922554  1
  Fe  Fe52  1  0.66591279  0.66534480  0.66383418  1
  Cr  Cr53  1  0.83153692  0.83129482  0.83388479  1
" 