8607,Fe21Cr79_3,-221.159386651362, 132.672914349999,Fe21Cr79,"# generated using pymatgen
 data_Cr11Fe43
_symmetry_space_group_name_H-M   'P 1'
_cell_length_a   7.48771386
_cell_length_b   7.48771386
_cell_length_c   10.58922650
_cell_angle_alpha   90.00000000
_cell_angle_beta   90.00000000
_cell_angle_gamma   90.00000000
_symmetry_Int_Tables_number   1
_chemical_formula_structural   Cr11Fe43
_chemical_formula_sum   'Cr11 Fe43'
_cell_volume   593.69407852
_cell_formula_units_Z   1
loop_
 _symmetry_equiv_pos_site_id
 _symmetry_equiv_pos_as_xyz
  1  'x, y, z'
loop_
 _atom_site_type_symbol
 _atom_site_label
 _atom_site_symmetry_multiplicity
 _atom_site_fract_x
 _atom_site_fract_y
 _atom_site_fract_z
 _atom_site_occupancy
  Cr  Cr0  1  0.00011019  0.99856913  0.99709011  1
  Fe  Fe1  1  0.16675382  0.16457787  0.16481355  1
  Fe  Fe2  1  -0.00006735  0.99752290  0.33250297  1
  Fe  Fe3  1  -0.00076731  0.33387399  0.99769849  1
  Fe  Fe4  1  0.16335437  0.49848588  0.16365166  1
  Fe  Fe5  1  0.99749126  0.33301793  0.33230905  1
  Fe  Fe6  1  0.99833033  0.66395013  0.99843624  1
  Fe  Fe7  1  0.16307187  0.83230904  0.16518486  1
  Fe  Fe8  1  -0.00130876  0.66566398  0.33119554  1
  Fe  Fe9  1  0.33122676  -0.00025051  0.99746829  1
  Fe  Fe10  1  0.49781061  0.16632958  0.16445417  1
  Fe  Fe11  1  0.33029663  -0.00050997  0.33186656  1
  Fe  Fe12  1  0.33176658  0.33122058  -0.00115249  1
  Fe  Fe13  1  0.49985255  0.49615236  0.16293321  1
  Cr  Cr14  1  0.33183511  0.32945436  0.33059062  1
  Fe  Fe15  1  0.33084760  0.66492757  0.99791465  1
  Cr  Cr16  1  0.49738104  0.83311893  0.16391027  1
  Cr  Cr17  1  0.33035920  0.66431627  0.33207032  1
  Cr  Cr18  1  0.66623295  0.99761309  0.99567529  1
  Cr  Cr19  1  0.83238937  0.16716851  0.16604381  1
  Fe  Fe20  1  0.66531869  0.00087614  0.33253162  1
  Fe  Fe21  1  0.66486171  0.33370166  0.99764581  1
  Fe  Fe22  1  0.83290586  0.49964573  0.16394969  1
  Fe  Fe23  1  0.66638484  0.33081863  0.33232144  1
  Fe  Fe24  1  0.66647511  0.66299586  0.99761294  1
  Fe  Fe25  1  0.83445647  0.83054071  0.16544322  1
  Cr  Cr26  1  0.66849227  0.66436674  0.33082182  1
  Fe  Fe27  1  0.16504293  0.16302259  0.49957862  1
  Fe  Fe28  1  0.99823068  0.99840964  0.66583969  1
  Fe  Fe29  1  0.16613552  0.16633590  0.83096414  1
  Cr  Cr30  1  0.16249079  0.49909577  0.50165582  1
  Fe  Fe31  1  0.99716535  0.33106824  0.66647510  1
  Fe  Fe32  1  0.16522991  0.49852912  0.83159154  1
  Fe  Fe33  1  0.16282809  0.83431751  0.49963450  1
  Fe  Fe34  1  -0.00084377  0.66649225  0.66664041  1
  Fe  Fe35  1  0.16618875  0.83099842  0.83100993  1
  Fe  Fe36  1  0.49917471  0.16511142  0.49962576  1
  Fe  Fe37  1  0.33107831  -0.00050236  0.66656904  1
  Fe  Fe38  1  0.49760400  0.16628844  0.83104729  1
  Cr  Cr39  1  0.49858767  0.49756324  0.50046713  1
  Fe  Fe40  1  0.33209490  0.33030050  0.66693796  1
  Fe  Fe41  1  0.49759413  0.49766507  0.83253036  1
  Cr  Cr42  1  0.49722623  0.83490623  0.49992438  1
  Fe  Fe43  1  0.32974730  0.66628418  0.66776235  1
  Fe  Fe44  1  0.49649940  0.83178981  0.83180403  1
  Fe  Fe45  1  0.83177419  0.16560869  0.49834291  1
  Fe  Fe46  1  0.66635963  0.00115486  0.66675441  1
  Fe  Fe47  1  0.83225036  0.16720124  0.83052457  1
  Fe  Fe48  1  0.83290067  0.49709573  0.49890375  1
  Fe  Fe49  1  0.66633910  0.32940662  0.66635625  1
  Fe  Fe50  1  0.83304964  0.49758826  0.83286989  1
  Fe  Fe51  1  0.83501424  0.83299367  0.49877056  1
  Cr  Cr52  1  0.66652651  0.66533220  0.66691276  1
  Fe  Fe53  1  0.83332838  0.83096507  0.83100257  1
" 