1459,Fe21Cr79_1,-221.142242876398, 137.203246829973,Fe21Cr79,"# generated using pymatgen
 data_Cr11Fe43
_symmetry_space_group_name_H-M   'P 1'
_cell_length_a   7.47670637
_cell_length_b   7.47670637
_cell_length_c   10.57365955
_cell_angle_alpha   90.00000000
_cell_angle_beta   90.00000000
_cell_angle_gamma   90.00000000
_symmetry_Int_Tables_number   1
_chemical_formula_structural   Cr11Fe43
_chemical_formula_sum   'Cr11 Fe43'
_cell_volume   591.07960302
_cell_formula_units_Z   1
loop_
 _symmetry_equiv_pos_site_id
 _symmetry_equiv_pos_as_xyz
  1  'x, y, z'
loop_
 _atom_site_type_symbol
 _atom_site_label
 _atom_site_symmetry_multiplicity
 _atom_site_fract_x
 _atom_site_fract_y
 _atom_site_fract_z
 _atom_site_occupancy
  Fe  Fe0  1  -0.00018504  0.99801133  0.00000763  1
  Fe  Fe1  1  0.16611300  0.16442046  0.16581654  1
  Fe  Fe2  1  0.00062387  0.00051545  0.33175445  1
  Fe  Fe3  1  0.99881037  0.33274685  -0.00044019  1
  Cr  Cr4  1  0.16682434  0.49902235  0.16482322  1
  Fe  Fe5  1  0.00005111  0.33048344  0.33200973  1
  Fe  Fe6  1  0.00049120  0.66739578  0.99875009  1
  Fe  Fe7  1  0.16609725  0.83457277  0.16606082  1
  Fe  Fe8  1  0.00036270  0.66704321  0.33150670  1
  Fe  Fe9  1  0.33289684  0.99878116  -0.00014432  1
  Fe  Fe10  1  0.49859114  0.16644930  0.16595417  1
  Fe  Fe11  1  0.33167847  0.00030617  0.33167329  1
  Fe  Fe12  1  0.33281301  0.33057282  -0.00042791  1
  Fe  Fe13  1  0.49974993  0.49800321  0.16664518  1
  Fe  Fe14  1  0.33319076  0.33170052  0.33361838  1
  Fe  Fe15  1  0.33122816  0.66877626  -0.00028909  1
  Fe  Fe16  1  0.49767166  0.83341415  0.16733637  1
  Fe  Fe17  1  0.33263328  0.66622047  0.33232645  1
  Fe  Fe18  1  0.66514442  -0.00020701  0.00081856  1
  Fe  Fe19  1  0.83333215  0.16637560  0.16558578  1
  Fe  Fe20  1  0.66556052  0.00110302  0.33056013  1
  Fe  Fe21  1  0.66591674  0.33089206  0.00110788  1
  Fe  Fe22  1  0.83256603  0.49785687  0.16772126  1
  Fe  Fe23  1  0.66513858  0.33167193  0.33195148  1
  Cr  Cr24  1  0.66733924  0.66591181  0.00140803  1
  Fe  Fe25  1  0.83442001  0.83364593  0.16760296  1
  Fe  Fe26  1  0.66520339  0.66542876  0.33052342  1
  Fe  Fe27  1  0.16556595  0.16538320  0.49665046  1
  Cr  Cr28  1  0.00208416  0.99915841  0.66450649  1
  Fe  Fe29  1  0.16777195  0.16614826  0.83463877  1
  Fe  Fe30  1  0.16743306  0.50141383  0.49736603  1
  Fe  Fe31  1  0.00102571  0.33390086  0.66638259  1
  Fe  Fe32  1  0.16314425  0.49930976  0.83422508  1
  Fe  Fe33  1  0.16628199  0.83110085  0.49772340  1
  Fe  Fe34  1  0.00301553  0.66393779  0.66756792  1
  Fe  Fe35  1  0.16699188  0.83210874  0.83374524  1
  Fe  Fe36  1  0.50007076  0.16560711  0.49669046  1
  Fe  Fe37  1  0.33377958  0.99892846  0.66734918  1
  Fe  Fe38  1  0.49720930  0.16344178  0.83436051  1
  Fe  Fe39  1  0.49799572  0.49990711  0.49672454  1
  Cr  Cr40  1  0.33107848  0.33114819  0.66394065  1
  Cr  Cr41  1  0.49628158  0.49948721  0.83443302  1
  Cr  Cr42  1  0.49782928  0.83377439  0.50057948  1
  Fe  Fe43  1  0.32878819  0.66716050  0.66651105  1
  Fe  Fe44  1  0.49796524  0.83641124  0.83312350  1
  Fe  Fe45  1  0.83239609  0.16542453  0.49736895  1
  Fe  Fe46  1  0.66353735  0.00089752  0.66712499  1
  Cr  Cr47  1  0.83227501  0.16599465  0.83212069  1
  Cr  Cr48  1  0.83540907  0.49844571  0.49903160  1
  Cr  Cr49  1  0.66429645  0.33282051  0.66489296  1
  Fe  Fe50  1  0.83619705  0.49969428  0.83351919  1
  Cr  Cr51  1  0.83176707  0.83389729  0.49862162  1
  Cr  Cr52  1  0.66664643  0.66610312  0.66816451  1
  Fe  Fe53  1  0.83401986  0.83240016  0.83349625  1
" 