1315,Fe21Cr79_4,-221.041854718573, 137.486716684001,Fe21Cr79,"# generated using pymatgen
 data_Cr11Fe43
_symmetry_space_group_name_H-M   'P 1'
_cell_length_a   7.48137347
_cell_length_b   7.48137347
_cell_length_c   10.58025982
_cell_angle_alpha   90.00000000
_cell_angle_beta   90.00000000
_cell_angle_gamma   90.00000000
_symmetry_Int_Tables_number   1
_chemical_formula_structural   Cr11Fe43
_chemical_formula_sum   'Cr11 Fe43'
_cell_volume   592.18718267
_cell_formula_units_Z   1
loop_
 _symmetry_equiv_pos_site_id
 _symmetry_equiv_pos_as_xyz
  1  'x, y, z'
loop_
 _atom_site_type_symbol
 _atom_site_label
 _atom_site_symmetry_multiplicity
 _atom_site_fract_x
 _atom_site_fract_y
 _atom_site_fract_z
 _atom_site_occupancy
  Fe  Fe0  1  0.99886199  -0.00061879  0.99765085  1
  Cr  Cr1  1  0.16632134  0.16495282  0.16565583  1
  Fe  Fe2  1  0.00065681  -0.00024395  0.33323047  1
  Fe  Fe3  1  0.99770739  0.33191820  0.99745174  1
  Fe  Fe4  1  0.16583158  0.49942348  0.16890780  1
  Fe  Fe5  1  0.00012054  0.33129831  0.33406331  1
  Cr  Cr6  1  0.00207930  0.66598698  0.99711488  1
  Fe  Fe7  1  0.16533609  0.83203002  0.16798243  1
  Fe  Fe8  1  0.00017692  0.66559040  0.33256296  1
  Fe  Fe9  1  0.33288691  0.99781449  0.99798436  1
  Fe  Fe10  1  0.50022209  0.16547109  0.16425284  1
  Fe  Fe11  1  0.33276029  -0.00074831  0.33354874  1
  Cr  Cr12  1  0.33207454  0.33444178  0.99858862  1
  Fe  Fe13  1  0.49716951  0.49857168  0.16761910  1
  Fe  Fe14  1  0.33203388  0.33238452  0.33373603  1
  Cr  Cr15  1  0.33002515  0.66508037  -0.00061032  1
  Fe  Fe16  1  0.49758130  0.83365768  0.16651647  1
  Fe  Fe17  1  0.33291778  0.66570590  0.33303635  1
  Fe  Fe18  1  0.66557892  0.00094085  0.99862577  1
  Fe  Fe19  1  0.83333980  0.16484635  0.16339369  1
  Cr  Cr20  1  0.66737349  -0.00015079  0.33111709  1
  Fe  Fe21  1  0.66631841  0.33180961  0.99832952  1
  Cr  Cr22  1  0.83209360  0.49935266  0.16654346  1
  Cr  Cr23  1  0.66582111  0.32923774  0.33358414  1
  Cr  Cr24  1  0.66461182  0.66819772  0.99802821  1
  Fe  Fe25  1  0.83464450  0.83493073  0.16608430  1
  Fe  Fe26  1  0.66361591  0.66522574  0.33204154  1
  Fe  Fe27  1  0.16563611  0.16545456  0.49893870  1
  Fe  Fe28  1  0.00196539  -0.00074574  0.66569462  1
  Fe  Fe29  1  0.16507842  0.16503799  0.83203123  1
  Fe  Fe30  1  0.16454263  0.49902152  0.49885046  1
  Fe  Fe31  1  -0.00063310  0.33169693  0.66543404  1
  Fe  Fe32  1  0.16351507  0.49599512  0.83039273  1
  Fe  Fe33  1  0.16649259  0.83269896  0.49861665  1
  Fe  Fe34  1  0.99732593  0.66486895  0.66743689  1
  Fe  Fe35  1  0.16503662  0.83586936  0.83152561  1
  Fe  Fe36  1  0.49615003  0.16611706  0.49983226  1
  Fe  Fe37  1  0.33108843  0.00052519  0.66544958  1
  Fe  Fe38  1  0.49914243  0.16595393  0.83212155  1
  Fe  Fe39  1  0.49896525  0.50001603  0.49972962  1
  Fe  Fe40  1  0.33241611  0.32998956  0.66584196  1
  Fe  Fe41  1  0.50066888  0.49718736  0.83101101  1
  Fe  Fe42  1  0.49668073  0.83156193  0.49886890  1
  Cr  Cr43  1  0.33010989  0.66512450  0.66810533  1
  Fe  Fe44  1  0.49872971  0.83498829  0.83184599  1
  Fe  Fe45  1  0.83599263  0.16658962  0.50027682  1
  Cr  Cr46  1  0.66605299  0.00139552  0.66440838  1
  Fe  Fe47  1  0.83312792  0.16669686  0.83243661  1
  Fe  Fe48  1  0.83333356  0.49724106  0.49964760  1
  Fe  Fe49  1  0.66542506  0.33443907  0.66459334  1
  Fe  Fe50  1  0.83202175  0.49723554  0.83104890  1
  Cr  Cr51  1  0.83272087  0.82787178  0.49919180  1
  Fe  Fe52  1  0.66545294  0.66434160  0.66737332  1
  Fe  Fe53  1  0.83309868  0.83401869  0.83055441  1
" 