7327,Fe21Cr79_7,-221.065794466935, 138.849639543344,Fe21Cr79,"# generated using pymatgen
 data_Cr11Fe43
_symmetry_space_group_name_H-M   'P 1'
_cell_length_a   7.47770502
_cell_length_b   7.47770502
_cell_length_c   10.57507185
_cell_angle_alpha   90.00000000
_cell_angle_beta   90.00000000
_cell_angle_gamma   90.00000000
_symmetry_Int_Tables_number   1
_chemical_formula_structural   Cr11Fe43
_chemical_formula_sum   'Cr11 Fe43'
_cell_volume   591.31648213
_cell_formula_units_Z   1
loop_
 _symmetry_equiv_pos_site_id
 _symmetry_equiv_pos_as_xyz
  1  'x, y, z'
loop_
 _atom_site_type_symbol
 _atom_site_label
 _atom_site_symmetry_multiplicity
 _atom_site_fract_x
 _atom_site_fract_y
 _atom_site_fract_z
 _atom_site_occupancy
  Fe  Fe0  1  0.00032602  -0.00018568  0.99897069  1
  Fe  Fe1  1  0.16750888  0.16540842  0.16632009  1
  Fe  Fe2  1  -0.00014929  0.00048775  0.33420647  1
  Fe  Fe3  1  0.00013781  0.33347398  0.99778248  1
  Fe  Fe4  1  0.16710193  0.49843503  0.16625346  1
  Fe  Fe5  1  0.00101759  0.33185914  0.33458833  1
  Cr  Cr6  1  0.00027076  0.66914225  0.99823000  1
  Fe  Fe7  1  0.16673283  0.83507704  0.16632504  1
  Cr  Cr8  1  0.00100060  0.66820414  0.33423229  1
  Fe  Fe9  1  0.33171428  0.99649801  0.00015469  1
  Fe  Fe10  1  0.49926424  0.16369988  0.16581716  1
  Fe  Fe11  1  0.33297873  0.99879210  0.33281245  1
  Cr  Cr12  1  0.33566901  0.33133861  0.99923284  1
  Fe  Fe13  1  0.49764465  0.49990689  0.16604330  1
  Fe  Fe14  1  0.32970961  0.33245429  0.33197091  1
  Fe  Fe15  1  0.33308345  0.66631137  0.00017722  1
  Fe  Fe16  1  0.49949239  0.83361386  0.16490353  1
  Fe  Fe17  1  0.33290128  0.66740542  0.33157447  1
  Fe  Fe18  1  0.66539318  0.99870819  0.99879026  1
  Cr  Cr19  1  0.83594747  0.16542690  0.16456524  1
  Fe  Fe20  1  0.66599116  0.99824756  0.33347541  1
  Fe  Fe21  1  0.66703580  0.33262145  0.99714034  1
  Cr  Cr22  1  0.83262154  0.49768314  0.16562278  1
  Cr  Cr23  1  0.66318009  0.33013283  0.33354858  1
  Fe  Fe24  1  0.66420083  0.66553129  -0.00064520  1
  Fe  Fe25  1  0.83217912  0.83447913  0.16492244  1
  Cr  Cr26  1  0.66763111  0.66810384  0.33311422  1
  Fe  Fe27  1  0.16655593  0.16606148  0.49994942  1
  Fe  Fe28  1  0.99808127  0.99909126  0.66483151  1
  Cr  Cr29  1  0.16357196  0.16461736  0.83181698  1
  Fe  Fe30  1  0.16515874  0.49867956  0.50041887  1
  Fe  Fe31  1  0.99896413  0.33299374  0.66554359  1
  Fe  Fe32  1  0.16685632  0.50099156  0.83107520  1
  Fe  Fe33  1  0.16784998  0.83335572  0.50076540  1
  Fe  Fe34  1  0.99891024  0.66589946  0.66593724  1
  Fe  Fe35  1  0.16534401  0.83225142  0.83056659  1
  Fe  Fe36  1  0.49696279  0.16404924  0.49972420  1
  Fe  Fe37  1  0.33258405  0.00035747  0.66475823  1
  Fe  Fe38  1  0.49942315  0.16364099  0.83269677  1
  Cr  Cr39  1  0.49729108  0.50246896  0.49962804  1
  Fe  Fe40  1  0.33063652  0.33241418  0.66643244  1
  Fe  Fe41  1  0.49854974  0.49919389  0.83182724  1
  Fe  Fe42  1  0.49849882  0.83532240  0.50067364  1
  Fe  Fe43  1  0.33045756  0.66575962  0.66573939  1
  Cr  Cr44  1  0.49840465  0.83071497  0.83088417  1
  Fe  Fe45  1  0.83364596  0.16486643  0.49942685  1
  Fe  Fe46  1  0.66672306  0.99837362  0.66513961  1
  Fe  Fe47  1  0.83112458  0.16406538  0.83394770  1
  Fe  Fe48  1  0.83438299  0.49847136  0.50060275  1
  Cr  Cr49  1  0.66391945  0.33017507  0.66813644  1
  Fe  Fe50  1  0.83282296  0.49980153  0.83278402  1
  Fe  Fe51  1  0.83259492  0.83397254  0.50121801  1
  Fe  Fe52  1  0.66822880  0.66669897  0.66547198  1
  Fe  Fe53  1  0.83339022  0.83437392  0.83139317  1
" 