5429,Fe21Cr79_9,-221.011584808713, 142.618300352591,Fe21Cr79,"# generated using pymatgen
 data_Cr11Fe43
_symmetry_space_group_name_H-M   'P 1'
_cell_length_a   7.47234259
_cell_length_b   7.47234259
_cell_length_c   10.56748824
_cell_angle_alpha   90.00000000
_cell_angle_beta   90.00000000
_cell_angle_gamma   90.00000000
_symmetry_Int_Tables_number   1
_chemical_formula_structural   Cr11Fe43
_chemical_formula_sum   'Cr11 Fe43'
_cell_volume   590.04525694
_cell_formula_units_Z   1
loop_
 _symmetry_equiv_pos_site_id
 _symmetry_equiv_pos_as_xyz
  1  'x, y, z'
loop_
 _atom_site_type_symbol
 _atom_site_label
 _atom_site_symmetry_multiplicity
 _atom_site_fract_x
 _atom_site_fract_y
 _atom_site_fract_z
 _atom_site_occupancy
  Cr  Cr0  1  0.00031346  0.99936073  0.00067294  1
  Fe  Fe1  1  0.16671844  0.16648672  0.16888088  1
  Fe  Fe2  1  0.00056278  0.00009765  0.33212482  1
  Cr  Cr3  1  0.00106898  0.33245586  -0.00007025  1
  Fe  Fe4  1  0.16758836  0.50035009  0.16804843  1
  Fe  Fe5  1  0.99951552  0.33280664  0.33289552  1
  Fe  Fe6  1  -0.00032231  0.66555399  -0.00022822  1
  Fe  Fe7  1  0.16573090  0.83178986  0.16810972  1
  Fe  Fe8  1  0.99856599  0.66581323  0.33234121  1
  Fe  Fe9  1  0.33023791  0.00056495  -0.00025415  1
  Cr  Cr10  1  0.49909066  0.16734822  0.16432684  1
  Fe  Fe11  1  0.33154962  0.00032843  0.33370773  1
  Fe  Fe12  1  0.33145011  0.33469125  0.99950806  1
  Fe  Fe13  1  0.49895813  0.50056554  0.16724517  1
  Fe  Fe14  1  0.33291695  0.33308757  0.33370438  1
  Fe  Fe15  1  0.33022797  0.66429199  -0.00015659  1
  Cr  Cr16  1  0.49874929  0.83274128  0.16431530  1
  Fe  Fe17  1  0.33361910  0.66551564  0.33331094  1
  Fe  Fe18  1  0.66945959  0.99935516  0.00017302  1
  Fe  Fe19  1  0.83382885  0.16665108  0.16848071  1
  Cr  Cr20  1  0.66658205  0.99782843  0.33453569  1
  Cr  Cr21  1  0.66722484  0.33568090  0.99909408  1
  Fe  Fe22  1  0.83264762  0.50101650  0.16820493  1
  Fe  Fe23  1  0.66642895  0.33403755  0.33362975  1
  Fe  Fe24  1  0.66910292  0.66702871  0.99930313  1
  Fe  Fe25  1  0.83413386  0.83105959  0.16697713  1
  Fe  Fe26  1  0.66620972  0.66415128  0.33455088  1
  Fe  Fe27  1  0.16651954  0.16685863  0.49887801  1
  Fe  Fe28  1  0.99863585  0.99806729  0.66720793  1
  Fe  Fe29  1  0.16809408  0.16463854  0.83189459  1
  Fe  Fe30  1  0.16629084  0.49815458  0.49850689  1
  Cr  Cr31  1  0.00131767  0.33211700  0.66802004  1
  Fe  Fe32  1  0.16840000  0.50110670  0.83294192  1
  Cr  Cr33  1  0.16522212  0.83130860  0.50002523  1
  Fe  Fe34  1  0.99940455  0.66586842  0.66728762  1
  Fe  Fe35  1  0.16552119  0.83227329  0.83154905  1
  Fe  Fe36  1  0.49841376  0.16705704  0.50024823  1
  Fe  Fe37  1  0.33231181  0.00048820  0.66510935  1
  Cr  Cr38  1  0.50046427  0.16724198  0.83307172  1
  Fe  Fe39  1  0.49790923  0.49885110  0.49823431  1
  Fe  Fe40  1  0.33462905  0.33455062  0.66510848  1
  Fe  Fe41  1  0.49798227  0.50074429  0.83267922  1
  Fe  Fe42  1  0.49796463  0.83297903  0.49947537  1
  Fe  Fe43  1  0.33071114  0.66434670  0.66624239  1
  Cr  Cr44  1  0.49878312  0.83488499  0.83451046  1
  Fe  Fe45  1  0.83455482  0.16644964  0.49947048  1
  Fe  Fe46  1  0.66764822  0.00133087  0.66370771  1
  Fe  Fe47  1  0.83294070  0.16413371  0.83169178  1
  Fe  Fe48  1  0.83468132  0.49956430  0.49838433  1
  Fe  Fe49  1  0.66615526  0.33315793  0.66506148  1
  Fe  Fe50  1  0.83259019  0.50176409  0.83223051  1
  Fe  Fe51  1  0.83381072  0.83247905  0.49953018  1
  Cr  Cr52  1  0.66403968  0.66687154  0.66400407  1
  Fe  Fe53  1  0.83371120  0.83292055  0.83236407  1
" 