5483,Fe21Cr79_8,-221.150244187236, 138.095684401938,Fe21Cr79,"# generated using pymatgen
 data_Cr11Fe43
_symmetry_space_group_name_H-M   'P 1'
_cell_length_a   7.47895338
_cell_length_b   7.47895338
_cell_length_c   10.57683731
_cell_angle_alpha   90.00000000
_cell_angle_beta   90.00000000
_cell_angle_gamma   90.00000000
_symmetry_Int_Tables_number   1
_chemical_formula_structural   Cr11Fe43
_chemical_formula_sum   'Cr11 Fe43'
_cell_volume   591.61268426
_cell_formula_units_Z   1
loop_
 _symmetry_equiv_pos_site_id
 _symmetry_equiv_pos_as_xyz
  1  'x, y, z'
loop_
 _atom_site_type_symbol
 _atom_site_label
 _atom_site_symmetry_multiplicity
 _atom_site_fract_x
 _atom_site_fract_y
 _atom_site_fract_z
 _atom_site_occupancy
  Fe  Fe0  1  0.99881016  0.99895998  -0.00036779  1
  Fe  Fe1  1  0.16628311  0.16458289  0.16727716  1
  Fe  Fe2  1  0.99877134  0.99804696  0.33144752  1
  Cr  Cr3  1  0.99855353  0.33224254  0.00088588  1
  Fe  Fe4  1  0.16543563  0.50006818  0.16805000  1
  Fe  Fe5  1  -0.00049385  0.33311892  0.33038506  1
  Cr  Cr6  1  0.00042676  0.66763306  0.99889194  1
  Fe  Fe7  1  0.16692321  0.83299775  0.16665167  1
  Fe  Fe8  1  0.99830355  0.66632133  0.33169244  1
  Fe  Fe9  1  0.33260995  0.99736863  -0.00026087  1
  Fe  Fe10  1  0.49926640  0.16341115  0.16588607  1
  Fe  Fe11  1  0.33368438  0.99859413  0.33180433  1
  Cr  Cr12  1  0.33390874  0.33297732  -0.00046008  1
  Cr  Cr13  1  0.49974822  0.50208400  0.16463366  1
  Fe  Fe14  1  0.33218897  0.33217459  0.33131198  1
  Fe  Fe15  1  0.33296765  0.66781256  0.99841850  1
  Fe  Fe16  1  0.49924211  0.83406519  0.16583065  1
  Fe  Fe17  1  0.33287804  0.66697360  0.33261410  1
  Fe  Fe18  1  0.66609350  -0.00059784  -0.00076578  1
  Fe  Fe19  1  0.83205540  0.16443916  0.16628187  1
  Fe  Fe20  1  0.66526547  0.99737472  0.33211319  1
  Fe  Fe21  1  0.66619574  0.33135127  -0.00055019  1
  Fe  Fe22  1  0.83301504  0.50025561  0.16638896  1
  Cr  Cr23  1  0.66494556  0.33253415  0.33252270  1
  Fe  Fe24  1  0.66495585  0.66697082  0.99891863  1
  Fe  Fe25  1  0.83150015  0.83291006  0.16644790  1
  Fe  Fe26  1  0.66641940  0.66776174  0.33321398  1
  Cr  Cr27  1  0.16687455  0.16539848  0.49797025  1
  Cr  Cr28  1  0.99866170  0.99608167  0.66731554  1
  Cr  Cr29  1  0.16557292  0.16506628  0.83145347  1
  Cr  Cr30  1  0.16570454  0.49905372  0.49965082  1
  Fe  Fe31  1  0.99872830  0.33395888  0.66655048  1
  Fe  Fe32  1  0.16752468  0.50081340  0.83060540  1
  Fe  Fe33  1  0.16627418  0.83215684  0.49851201  1
  Fe  Fe34  1  0.99920380  0.66581078  0.66609701  1
  Fe  Fe35  1  0.16736244  0.83096236  0.83252485  1
  Fe  Fe36  1  0.49850948  0.16536626  0.49985449  1
  Fe  Fe37  1  0.33503707  0.99780421  0.66573875  1
  Fe  Fe38  1  0.50129853  0.16540407  0.83196229  1
  Fe  Fe39  1  0.49976053  0.49952437  0.49969600  1
  Fe  Fe40  1  0.33448086  0.33291818  0.66663670  1
  Fe  Fe41  1  0.49831326  0.49983063  0.83206653  1
  Fe  Fe42  1  0.49894970  0.83277996  0.49914171  1
  Fe  Fe43  1  0.33308685  0.66694846  0.66644997  1
  Fe  Fe44  1  0.49927735  0.83250617  0.83264178  1
  Cr  Cr45  1  0.83284093  0.16547393  0.50064877  1
  Fe  Fe46  1  0.66376598  0.99834009  0.66645953  1
  Fe  Fe47  1  0.82988547  0.16465856  0.83241378  1
  Fe  Fe48  1  0.83203653  0.50087743  0.50007133  1
  Fe  Fe49  1  0.66439862  0.33228747  0.66553542  1
  Cr  Cr50  1  0.83084422  0.49907766  0.83132165  1
  Fe  Fe51  1  0.83238309  0.83063491  0.49855389  1
  Fe  Fe52  1  0.66527018  0.66705043  0.66506207  1
  Fe  Fe53  1  0.83101885  0.83380096  0.83282064  1
" 