7947,Fe21Cr79_18,-221.06715628746, 135.871124513221,Fe21Cr79,"# generated using pymatgen
 data_Cr11Fe43
_symmetry_space_group_name_H-M   'P 1'
_cell_length_a   7.47762559
_cell_length_b   7.47762559
_cell_length_c   10.57495953
_cell_angle_alpha   90.00000000
_cell_angle_beta   90.00000000
_cell_angle_gamma   90.00000000
_symmetry_Int_Tables_number   1
_chemical_formula_structural   Cr11Fe43
_chemical_formula_sum   'Cr11 Fe43'
_cell_volume   591.29764104
_cell_formula_units_Z   1
loop_
 _symmetry_equiv_pos_site_id
 _symmetry_equiv_pos_as_xyz
  1  'x, y, z'
loop_
 _atom_site_type_symbol
 _atom_site_label
 _atom_site_symmetry_multiplicity
 _atom_site_fract_x
 _atom_site_fract_y
 _atom_site_fract_z
 _atom_site_occupancy
  Fe  Fe0  1  0.00066564  0.00002311  0.99811925  1
  Fe  Fe1  1  0.16385626  0.16547391  0.16560862  1
  Fe  Fe2  1  0.00089110  -0.00021531  0.33318254  1
  Fe  Fe3  1  0.99900266  0.33236552  -0.00025978  1
  Fe  Fe4  1  0.16479339  0.49802944  0.16650624  1
  Fe  Fe5  1  0.99731960  0.33190666  0.33195041  1
  Fe  Fe6  1  0.99853937  0.66521090  0.99901357  1
  Fe  Fe7  1  0.16692401  0.83454532  0.16613924  1
  Fe  Fe8  1  0.00022607  0.66657410  0.33162118  1
  Fe  Fe9  1  0.33175884  0.00023295  0.99782240  1
  Cr  Cr10  1  0.49968036  0.16543328  0.16626011  1
  Fe  Fe11  1  0.32987478  -0.00070720  0.33287071  1
  Fe  Fe12  1  0.33220853  0.33130878  0.99863561  1
  Fe  Fe13  1  0.49927873  0.49839668  0.16558653  1
  Fe  Fe14  1  0.33167159  0.33194363  0.33192266  1
  Cr  Cr15  1  0.33371070  0.66644106  -0.00035426  1
  Fe  Fe16  1  0.49777460  0.83311772  0.16560240  1
  Fe  Fe17  1  0.33086278  0.66674752  0.32978922  1
  Fe  Fe18  1  0.66547089  0.99914356  0.99749030  1
  Fe  Fe19  1  0.83470791  0.16788726  0.16460871  1
  Cr  Cr20  1  0.66809389  0.00030006  0.33467237  1
  Fe  Fe21  1  0.66650390  0.33379932  0.99855897  1
  Fe  Fe22  1  0.83373262  0.49648180  0.16414513  1
  Fe  Fe23  1  0.66821119  0.33251021  0.33270162  1
  Fe  Fe24  1  0.66712187  0.66480758  0.99885185  1
  Cr  Cr25  1  0.83373674  0.83434355  0.16309398  1
  Cr  Cr26  1  0.66734991  0.66393733  0.32962815  1
  Fe  Fe27  1  0.16495038  0.16507859  0.49784982  1
  Fe  Fe28  1  0.99755098  0.00005333  0.66623428  1
  Fe  Fe29  1  0.16329665  0.16430371  0.83483710  1
  Cr  Cr30  1  0.16449283  0.50013280  0.49985513  1
  Fe  Fe31  1  0.99657604  0.33010218  0.66609327  1
  Cr  Cr32  1  0.16435398  0.49860411  0.83128807  1
  Fe  Fe33  1  0.16411319  0.83329478  0.49871123  1
  Fe  Fe34  1  0.99792140  0.66816992  0.66643645  1
  Fe  Fe35  1  0.16363750  0.83378784  0.83314233  1
  Fe  Fe36  1  0.49919339  0.16717995  0.49858710  1
  Cr  Cr37  1  0.33118160  -0.00026160  0.66712928  1
  Fe  Fe38  1  0.50118949  0.16596237  0.83524796  1
  Cr  Cr39  1  0.49836752  0.49830092  0.50005482  1
  Cr  Cr40  1  0.33264765  0.33055306  0.66875200  1
  Fe  Fe41  1  0.50241133  0.49938281  0.83247623  1
  Cr  Cr42  1  0.49952832  0.83317926  0.49892910  1
  Fe  Fe43  1  0.33273204  0.66751389  0.66818602  1
  Fe  Fe44  1  0.50125321  0.83255220  0.83230419  1
  Fe  Fe45  1  0.83364311  0.16754076  0.50048707  1
  Fe  Fe46  1  0.66785255  0.00084235  0.66653162  1
  Fe  Fe47  1  0.83325573  0.16629262  0.83340416  1
  Fe  Fe48  1  0.83235876  0.49917014  0.50033740  1
  Fe  Fe49  1  0.66790868  0.33103346  0.66724056  1
  Fe  Fe50  1  0.83129329  0.49914485  0.83259915  1
  Fe  Fe51  1  0.83574508  0.83116475  0.50050155  1
  Fe  Fe52  1  0.66720072  0.66621420  0.66738867  1
  Fe  Fe53  1  0.83318196  0.83247333  0.83343300  1
" 