2658,Fe21Cr79_2,-221.124020423083, 136.146755126723,Fe21Cr79,"# generated using pymatgen
 data_Cr11Fe43
_symmetry_space_group_name_H-M   'P 1'
_cell_length_a   7.48306664
_cell_length_b   7.48306664
_cell_length_c   10.58265432
_cell_angle_alpha   90.00000000
_cell_angle_beta   90.00000000
_cell_angle_gamma   90.00000000
_symmetry_Int_Tables_number   1
_chemical_formula_structural   Cr11Fe43
_chemical_formula_sum   'Cr11 Fe43'
_cell_volume   592.58934116
_cell_formula_units_Z   1
loop_
 _symmetry_equiv_pos_site_id
 _symmetry_equiv_pos_as_xyz
  1  'x, y, z'
loop_
 _atom_site_type_symbol
 _atom_site_label
 _atom_site_symmetry_multiplicity
 _atom_site_fract_x
 _atom_site_fract_y
 _atom_site_fract_z
 _atom_site_occupancy
  Fe  Fe0  1  0.99745623  0.99891809  0.99770093  1
  Cr  Cr1  1  0.16659648  0.16509175  0.16503930  1
  Cr  Cr2  1  0.99724708  0.99746071  0.33389540  1
  Fe  Fe3  1  0.99879391  0.33048080  0.99724146  1
  Cr  Cr4  1  0.16447653  0.49903273  0.16467219  1
  Fe  Fe5  1  0.00042671  0.33212501  0.33300343  1
  Fe  Fe6  1  0.99861827  0.66706332  0.99698519  1
  Cr  Cr7  1  0.16907230  0.83260806  0.16486532  1
  Fe  Fe8  1  -0.00053077  0.66537801  0.33387611  1
  Fe  Fe9  1  0.33458946  -0.00082875  0.99684937  1
  Fe  Fe10  1  0.50018223  0.16579185  0.16536538  1
  Fe  Fe11  1  0.33398568  0.00038746  0.33269839  1
  Fe  Fe12  1  0.33412217  0.33237299  0.99732855  1
  Fe  Fe13  1  0.49764835  0.49900252  0.16548729  1
  Fe  Fe14  1  0.33348488  0.33210633  0.33341652  1
  Fe  Fe15  1  0.33426923  0.66524832  0.99712999  1
  Fe  Fe16  1  0.50078830  0.83202786  0.16578325  1
  Fe  Fe17  1  0.33263422  0.66447858  0.33285065  1
  Fe  Fe18  1  0.66523272  -0.00093563  0.99847632  1
  Fe  Fe19  1  0.83097278  0.16429756  0.16511024  1
  Fe  Fe20  1  0.66365574  -0.00059819  0.33119901  1
  Fe  Fe21  1  0.66363975  0.33053302  -0.00097423  1
  Cr  Cr22  1  0.83176074  0.49782366  0.16589401  1
  Fe  Fe23  1  0.66290754  0.33079063  0.33138189  1
  Fe  Fe24  1  0.66395277  0.66687686  -0.00106157  1
  Fe  Fe25  1  0.83134083  0.83278708  0.16451873  1
  Fe  Fe26  1  0.66479158  0.66692424  0.33143567  1
  Fe  Fe27  1  0.16841594  0.16622966  0.49943659  1
  Fe  Fe28  1  0.00181004  0.00024722  0.66620095  1
  Fe  Fe29  1  0.16549309  0.16582956  0.83282007  1
  Fe  Fe30  1  0.16818152  0.49795182  0.49787951  1
  Fe  Fe31  1  0.00176800  0.33059653  0.66676409  1
  Fe  Fe32  1  0.16740396  0.49842432  0.83314370  1
  Fe  Fe33  1  0.16568758  0.83256376  0.49849468  1
  Cr  Cr34  1  0.00030633  0.66739903  0.66426528  1
  Fe  Fe35  1  0.16631798  0.83286324  0.83354419  1
  Fe  Fe36  1  0.49746774  0.16795275  0.49869645  1
  Fe  Fe37  1  0.32986571  -0.00054420  0.66671233  1
  Fe  Fe38  1  0.49842412  0.16672034  0.83292092  1
  Fe  Fe39  1  0.49764037  0.49715123  0.49900620  1
  Fe  Fe40  1  0.33224976  0.33231637  0.66584515  1
  Fe  Fe41  1  0.49709865  0.49887062  0.83231612  1
  Cr  Cr42  1  0.49701083  0.83295310  0.49925469  1
  Fe  Fe43  1  0.33345356  0.66486276  0.66668163  1
  Fe  Fe44  1  0.49838887  0.83130213  0.83264452  1
  Cr  Cr45  1  0.83215517  0.16818254  0.50031988  1
  Cr  Cr46  1  0.66662574  -0.00069290  0.66638716  1
  Fe  Fe47  1  0.83315594  0.16453520  0.83293381  1
  Cr  Cr48  1  0.83078853  0.49855100  0.49893783  1
  Fe  Fe49  1  0.66247943  0.33327465  0.66656016  1
  Cr  Cr50  1  0.83119002  0.49743681  0.83147660  1
  Fe  Fe51  1  0.83101727  0.83196749  0.49858434  1
  Fe  Fe52  1  0.66320717  0.66496951  0.66637544  1
  Fe  Fe53  1  0.83248199  0.83304161  0.83382995  1
" 