3815,Fe27Cr73_17,-220.505425449063, 142.076839140662,Fe27Cr73,"# generated using pymatgen
 data_Cr7Fe20
_symmetry_space_group_name_H-M   'P 1'
_cell_length_a   7.49553918
_cell_length_b   7.49553918
_cell_length_c   10.60029316
_cell_angle_alpha   90.00000000
_cell_angle_beta   90.00000000
_cell_angle_gamma   90.00000000
_symmetry_Int_Tables_number   1
_chemical_formula_structural   Cr7Fe20
_chemical_formula_sum   'Cr14 Fe40'
_cell_volume   595.55741076
_cell_formula_units_Z   2
loop_
 _symmetry_equiv_pos_site_id
 _symmetry_equiv_pos_as_xyz
  1  'x, y, z'
loop_
 _atom_site_type_symbol
 _atom_site_label
 _atom_site_symmetry_multiplicity
 _atom_site_fract_x
 _atom_site_fract_y
 _atom_site_fract_z
 _atom_site_occupancy
  Fe  Fe0  1  -0.00003259  0.99637171  0.99795002  1
  Fe  Fe1  1  0.16516643  0.16302814  0.16363972  1
  Cr  Cr2  1  -0.00103021  0.99734168  0.33444850  1
  Cr  Cr3  1  0.99759349  0.33410626  -0.00007751  1
  Fe  Fe4  1  0.16384727  0.49945154  0.16455702  1
  Fe  Fe5  1  0.99786264  0.33181791  0.33164562  1
  Fe  Fe6  1  -0.00102274  0.66519176  0.99725751  1
  Fe  Fe7  1  0.16497334  0.83179211  0.16191199  1
  Cr  Cr8  1  0.99616065  0.66538717  0.33142735  1
  Fe  Fe9  1  0.33128436  0.99728731  -0.00024059  1
  Fe  Fe10  1  0.49956732  0.16226595  0.16430897  1
  Cr  Cr11  1  0.33176722  0.99766169  0.33172141  1
  Cr  Cr12  1  0.33354906  0.33119014  0.99792290  1
  Fe  Fe13  1  0.50114610  0.50015673  0.16453927  1
  Cr  Cr14  1  0.33315881  0.33022248  0.32914412  1
  Fe  Fe15  1  0.33051627  0.66439739  -0.00066286  1
  Fe  Fe16  1  0.49804984  0.83182114  0.16239176  1
  Cr  Cr17  1  0.33267916  0.66635728  0.33082632  1
  Fe  Fe18  1  0.66287480  -0.00177587  0.99791877  1
  Cr  Cr19  1  0.83134097  0.16484996  0.16677479  1
  Fe  Fe20  1  0.66318060  0.99732437  0.33340299  1
  Cr  Cr21  1  0.66321666  0.33235461  0.99564218  1
  Fe  Fe22  1  0.82951845  0.49897819  0.16559529  1
  Fe  Fe23  1  0.66565494  0.33255570  0.33237211  1
  Fe  Fe24  1  0.66461157  0.66331444  0.99759146  1
  Cr  Cr25  1  0.82788624  0.83187774  0.16205480  1
  Fe  Fe26  1  0.66371720  0.66458324  0.33238638  1
  Fe  Fe27  1  0.16467872  0.16446280  0.50111100  1
  Fe  Fe28  1  0.99771552  0.99626893  0.66267939  1
  Cr  Cr29  1  0.16465694  0.16552674  0.82984826  1
  Cr  Cr30  1  0.16559033  0.49661147  0.49943526  1
  Fe  Fe31  1  0.99639936  0.33217002  0.66452724  1
  Fe  Fe32  1  0.16501948  0.50117849  0.82954801  1
  Fe  Fe33  1  0.16520299  0.83185256  0.50128748  1
  Fe  Fe34  1  0.99693210  0.66583658  0.66520809  1
  Fe  Fe35  1  0.16322323  0.83039187  0.83128123  1
  Fe  Fe36  1  0.49927250  0.16538421  0.49973215  1
  Fe  Fe37  1  0.33198905  0.99757787  0.66305984  1
  Fe  Fe38  1  0.49771116  0.16392310  0.82903201  1
  Fe  Fe39  1  0.50077332  0.49798246  0.49941653  1
  Fe  Fe40  1  0.33376722  0.33140721  0.66491574  1
  Fe  Fe41  1  0.49765775  0.49795231  0.82898721  1
  Fe  Fe42  1  0.49938578  0.83097443  0.50021272  1
  Fe  Fe43  1  0.33196865  0.66526372  0.66479736  1
  Cr  Cr44  1  0.49857278  0.83053638  0.83315624  1
  Fe  Fe45  1  0.83063627  0.16638362  0.49923789  1
  Fe  Fe46  1  0.66458359  0.99761003  0.66324778  1
  Cr  Cr47  1  0.83104106  0.16272554  0.83114602  1
  Fe  Fe48  1  0.82910638  0.49721450  0.49903291  1
  Fe  Fe49  1  0.66410251  0.33221422  0.66452866  1
  Fe  Fe50  1  0.83159615  0.50105730  0.82969034  1
  Fe  Fe51  1  0.82966835  0.83080659  0.49979171  1
  Fe  Fe52  1  0.66554232  0.66427287  0.66422870  1
  Fe  Fe53  1  0.83333792  0.82987274  0.83177926  1
" 