6642,Fe27Cr73_6,-220.452678139467, 150.474854818634,Fe27Cr73,"# generated using pymatgen
 data_Cr7Fe20
_symmetry_space_group_name_H-M   'P 1'
_cell_length_a   7.48512492
_cell_length_b   7.48512492
_cell_length_c   10.58556518
_cell_angle_alpha   90.00000000
_cell_angle_beta   90.00000000
_cell_angle_gamma   90.00000000
_symmetry_Int_Tables_number   1
_chemical_formula_structural   Cr7Fe20
_chemical_formula_sum   'Cr14 Fe40'
_cell_volume   593.07846658
_cell_formula_units_Z   2
loop_
 _symmetry_equiv_pos_site_id
 _symmetry_equiv_pos_as_xyz
  1  'x, y, z'
loop_
 _atom_site_type_symbol
 _atom_site_label
 _atom_site_symmetry_multiplicity
 _atom_site_fract_x
 _atom_site_fract_y
 _atom_site_fract_z
 _atom_site_occupancy
  Cr  Cr0  1  0.99570706  0.99849271  0.99766479  1
  Cr  Cr1  1  0.16562138  0.16511686  0.16614201  1
  Fe  Fe2  1  0.99666889  0.99702571  0.33122435  1
  Fe  Fe3  1  0.99809115  0.33498198  0.99828676  1
  Fe  Fe4  1  0.16546276  0.49862769  0.16542138  1
  Cr  Cr5  1  -0.00006974  0.33442963  0.33351708  1
  Fe  Fe6  1  0.99812023  0.66316970  0.99754199  1
  Cr  Cr7  1  0.16559186  0.83165661  0.16559843  1
  Fe  Fe8  1  0.99643199  0.66624863  0.33246001  1
  Fe  Fe9  1  0.33447850  0.00033873  0.99790458  1
  Fe  Fe10  1  0.49920394  0.16639211  0.16429616  1
  Fe  Fe11  1  0.33423655  -0.00082356  0.33193030  1
  Fe  Fe12  1  0.33300057  0.33070707  0.99757890  1
  Fe  Fe13  1  0.49807904  0.49725325  0.16701832  1
  Fe  Fe14  1  0.33549861  0.33263846  0.33198834  1
  Cr  Cr15  1  0.33116787  0.66279596  0.99694431  1
  Fe  Fe16  1  0.49841487  0.83261732  0.16534189  1
  Fe  Fe17  1  0.33342352  0.66432500  0.33106968  1
  Fe  Fe18  1  0.66353407  0.00085345  -0.00026943  1
  Fe  Fe19  1  0.83048315  0.16679839  0.16496443  1
  Cr  Cr20  1  0.66512043  0.99794753  0.33048243  1
  Fe  Fe21  1  0.66544793  0.33076898  -0.00115951  1
  Fe  Fe22  1  0.83301894  0.49848920  0.16558544  1
  Fe  Fe23  1  0.66451637  0.33314491  0.33054492  1
  Cr  Cr24  1  0.66649951  0.66679941  0.00011799  1
  Fe  Fe25  1  0.83217650  0.83134687  0.16618174  1
  Fe  Fe26  1  0.66683536  0.66418272  0.33056536  1
  Cr  Cr27  1  0.16466396  0.16326872  0.49811744  1
  Fe  Fe28  1  0.99852155  -0.00041760  0.66852344  1
  Fe  Fe29  1  0.16565503  0.16510578  0.83240098  1
  Fe  Fe30  1  0.16531409  0.49973924  0.49841573  1
  Fe  Fe31  1  0.99762144  0.33218952  0.66726062  1
  Fe  Fe32  1  0.16453197  0.49765139  0.83278959  1
  Cr  Cr33  1  0.16672993  0.83290293  0.49791224  1
  Cr  Cr34  1  0.99849619  0.66459126  0.66675531  1
  Fe  Fe35  1  0.16439987  0.83323028  0.83141030  1
  Fe  Fe36  1  0.49865217  0.16381980  0.49888192  1
  Fe  Fe37  1  0.33231430  0.99830604  0.66614536  1
  Fe  Fe38  1  0.50000897  0.16619446  0.83290286  1
  Cr  Cr39  1  0.50206110  0.50075444  0.49929632  1
  Cr  Cr40  1  0.33108648  0.33215959  0.66545408  1
  Fe  Fe41  1  0.50057235  0.49635425  0.83126343  1
  Fe  Fe42  1  0.50004446  0.83381356  0.50008933  1
  Fe  Fe43  1  0.33221706  0.66573937  0.66618197  1
  Cr  Cr44  1  0.49817894  0.83134072  0.83012335  1
  Cr  Cr45  1  0.83203221  0.16707113  0.50079315  1
  Fe  Fe46  1  0.66547144  -0.00116065  0.66523141  1
  Fe  Fe47  1  0.83053395  0.16626340  0.83085597  1
  Fe  Fe48  1  0.83286014  0.50096225  0.49902846  1
  Fe  Fe49  1  0.66702319  0.33275356  0.66741946  1
  Fe  Fe50  1  0.83118046  0.49720378  0.83249157  1
  Fe  Fe51  1  0.83045663  0.83065806  0.49894371  1
  Fe  Fe52  1  0.66556055  0.66509435  0.66594337  1
  Fe  Fe53  1  0.83184261  0.83287737  0.83121835  1
" 