5732,Fe27Cr73_16,-220.758738353136, 141.305200752448,Fe27Cr73,"# generated using pymatgen
 data_Cr7Fe20
_symmetry_space_group_name_H-M   'P 1'
_cell_length_a   7.49853768
_cell_length_b   7.49853768
_cell_length_c   10.60453368
_cell_angle_alpha   90.00000000
_cell_angle_beta   90.00000000
_cell_angle_gamma   90.00000000
_symmetry_Int_Tables_number   1
_chemical_formula_structural   Cr7Fe20
_chemical_formula_sum   'Cr14 Fe40'
_cell_volume   596.27243353
_cell_formula_units_Z   2
loop_
 _symmetry_equiv_pos_site_id
 _symmetry_equiv_pos_as_xyz
  1  'x, y, z'
loop_
 _atom_site_type_symbol
 _atom_site_label
 _atom_site_symmetry_multiplicity
 _atom_site_fract_x
 _atom_site_fract_y
 _atom_site_fract_z
 _atom_site_occupancy
  Fe  Fe0  1  0.99675908  0.99771663  -0.00152918  1
  Fe  Fe1  1  0.16448726  0.16566432  0.16438391  1
  Fe  Fe2  1  0.99708257  0.99747088  0.33029245  1
  Fe  Fe3  1  0.00082052  0.33189663  -0.00065839  1
  Fe  Fe4  1  0.16439408  0.49618398  0.16283199  1
  Cr  Cr5  1  -0.00175978  0.33291533  0.33163388  1
  Fe  Fe6  1  0.99712791  0.66369322  0.99677426  1
  Cr  Cr7  1  0.16269323  0.82856543  0.16503838  1
  Fe  Fe8  1  0.99460834  0.66440380  0.33163463  1
  Cr  Cr9  1  0.33199813  0.99671033  -0.00190273  1
  Fe  Fe10  1  0.49755668  0.16428278  0.16617613  1
  Fe  Fe11  1  0.33065112  0.00059816  0.32908616  1
  Fe  Fe12  1  0.32947672  0.33304143  -0.00130339  1
  Fe  Fe13  1  0.49751711  0.49845003  0.16449709  1
  Fe  Fe14  1  0.33149592  0.33100419  0.32971891  1
  Fe  Fe15  1  0.33223670  0.66201038  0.99764595  1
  Fe  Fe16  1  0.50063258  0.83092469  0.16496011  1
  Cr  Cr17  1  0.33067816  0.66333556  0.33039983  1
  Fe  Fe18  1  0.66593383  0.99518673  -0.00103050  1
  Fe  Fe19  1  0.83202413  0.16260673  0.16487232  1
  Fe  Fe20  1  0.66538547  0.99707138  0.32926963  1
  Cr  Cr21  1  0.66541820  0.33150117  0.00023301  1
  Fe  Fe22  1  0.83202337  0.50033062  0.16456103  1
  Fe  Fe23  1  0.66325455  0.33348258  0.32917654  1
  Fe  Fe24  1  0.66412621  0.66641371  -0.00200443  1
  Fe  Fe25  1  0.82964789  0.83092180  0.16445389  1
  Fe  Fe26  1  0.66694506  0.66336695  0.33034443  1
  Fe  Fe27  1  0.16551567  0.16503793  0.49862843  1
  Fe  Fe28  1  -0.00008840  -0.00145015  0.66552288  1
  Fe  Fe29  1  0.16436205  0.16550757  0.83079602  1
  Fe  Fe30  1  0.16633581  0.49526943  0.49851585  1
  Fe  Fe31  1  0.00092028  0.33115650  0.66437721  1
  Fe  Fe32  1  0.16500111  0.49670533  0.83194168  1
  Cr  Cr33  1  0.16364278  0.83162849  0.49674066  1
  Cr  Cr34  1  0.99735168  0.66369788  0.66250163  1
  Fe  Fe35  1  0.16412124  0.83126977  0.83113459  1
  Cr  Cr36  1  0.49692975  0.16597948  0.49608947  1
  Fe  Fe37  1  0.32807008  0.99774729  0.66608287  1
  Cr  Cr38  1  0.49783259  0.16618507  0.83074001  1
  Fe  Fe39  1  0.49748192  0.49847166  0.49740514  1
  Fe  Fe40  1  0.32819820  0.33308156  0.66452293  1
  Fe  Fe41  1  0.49693416  0.50031352  0.83164643  1
  Cr  Cr42  1  0.49722279  0.83029917  0.49837428  1
  Fe  Fe43  1  0.33280349  0.66288104  0.66597990  1
  Fe  Fe44  1  0.49771355  0.82784970  0.83143366  1
  Cr  Cr45  1  0.83183007  0.16468582  0.49845263  1
  Cr  Cr46  1  0.66451714  0.99557749  0.66702534  1
  Cr  Cr47  1  0.83364205  0.16575350  0.83255265  1
  Fe  Fe48  1  0.82989497  0.50087852  0.49638534  1
  Cr  Cr49  1  0.66551914  0.33477364  0.66310848  1
  Fe  Fe50  1  0.83182383  0.49991017  0.83227174  1
  Fe  Fe51  1  0.83017750  0.83051305  0.49611847  1
  Fe  Fe52  1  0.66399656  0.66390035  0.66563258  1
  Fe  Fe53  1  0.83164858  0.82924041  0.83307688  1
" 