1369,Fe27Cr73_8,-220.468774593355, 142.542429154166,Fe27Cr73,"# generated using pymatgen
 data_Cr7Fe20
_symmetry_space_group_name_H-M   'P 1'
_cell_length_a   7.49082442
_cell_length_b   7.49082442
_cell_length_c   10.59362548
_cell_angle_alpha   90.00000000
_cell_angle_beta   90.00000000
_cell_angle_gamma   90.00000000
_symmetry_Int_Tables_number   1
_chemical_formula_structural   Cr7Fe20
_chemical_formula_sum   'Cr14 Fe40'
_cell_volume   594.43428467
_cell_formula_units_Z   2
loop_
 _symmetry_equiv_pos_site_id
 _symmetry_equiv_pos_as_xyz
  1  'x, y, z'
loop_
 _atom_site_type_symbol
 _atom_site_label
 _atom_site_symmetry_multiplicity
 _atom_site_fract_x
 _atom_site_fract_y
 _atom_site_fract_z
 _atom_site_occupancy
  Fe  Fe0  1  0.00126205  0.99691007  0.99768714  1
  Fe  Fe1  1  0.16421095  0.16577801  0.16442335  1
  Fe  Fe2  1  0.99691643  0.99759555  0.33286650  1
  Fe  Fe3  1  0.00058292  0.33432262  -0.00136872  1
  Fe  Fe4  1  0.16448899  0.49820780  0.16538770  1
  Fe  Fe5  1  -0.00073485  0.33309354  0.33044302  1
  Fe  Fe6  1  -0.00071828  0.66398426  0.99787119  1
  Fe  Fe7  1  0.16489919  0.83109303  0.16399463  1
  Fe  Fe8  1  0.99828001  0.66483754  0.33123175  1
  Fe  Fe9  1  0.32859045  0.99748048  -0.00087923  1
  Cr  Cr10  1  0.49888675  0.16392168  0.16365507  1
  Cr  Cr11  1  0.32981701  0.99746163  0.33121062  1
  Fe  Fe12  1  0.32979946  0.33399428  -0.00147692  1
  Fe  Fe13  1  0.49851104  0.50040164  0.16433357  1
  Fe  Fe14  1  0.33164057  0.33397738  0.33001741  1
  Fe  Fe15  1  0.33023935  0.66349239  -0.00031059  1
  Fe  Fe16  1  0.49741334  0.82923178  0.16403859  1
  Fe  Fe17  1  0.33209967  0.66257958  0.32962374  1
  Fe  Fe18  1  0.66545031  0.99689723  0.99836143  1
  Cr  Cr19  1  0.83323674  0.16502904  0.16463972  1
  Fe  Fe20  1  0.66633952  0.99832999  0.33329144  1
  Fe  Fe21  1  0.66505104  0.33565514  -0.00101705  1
  Fe  Fe22  1  0.83236673  0.49873503  0.16434595  1
  Cr  Cr23  1  0.66546674  0.33444683  0.33307705  1
  Fe  Fe24  1  0.66556874  0.66239338  -0.00109095  1
  Cr  Cr25  1  0.83003212  0.83130758  0.16486017  1
  Fe  Fe26  1  0.66504691  0.66495797  0.33131567  1
  Cr  Cr27  1  0.16389104  0.16880507  0.49768394  1
  Cr  Cr28  1  -0.00069382  0.99592896  0.66523949  1
  Fe  Fe29  1  0.16508284  0.16692765  0.83343849  1
  Cr  Cr30  1  0.16512667  0.49989045  0.49850771  1
  Fe  Fe31  1  0.99715422  0.33312528  0.66629203  1
  Fe  Fe32  1  0.16540608  0.49815965  0.83139851  1
  Fe  Fe33  1  0.16351470  0.82970336  0.49726750  1
  Fe  Fe34  1  0.99747567  0.66414457  0.66619409  1
  Fe  Fe35  1  0.16379241  0.82987281  0.83398017  1
  Fe  Fe36  1  0.49767933  0.16803082  0.49827137  1
  Cr  Cr37  1  0.32983413  0.99763101  0.66568640  1
  Cr  Cr38  1  0.49859033  0.16567543  0.83183601  1
  Fe  Fe39  1  0.49818733  0.49779892  0.49974710  1
  Fe  Fe40  1  0.33241891  0.33387266  0.66590459  1
  Fe  Fe41  1  0.49873575  0.49797202  0.83183008  1
  Cr  Cr42  1  0.49907145  0.82935464  0.49672576  1
  Fe  Fe43  1  0.33142419  0.66405174  0.66625248  1
  Cr  Cr44  1  0.49944166  0.83006619  0.83446381  1
  Fe  Fe45  1  0.83217273  0.16622767  0.49743515  1
  Cr  Cr46  1  0.66624438  -0.00098263  0.66203006  1
  Cr  Cr47  1  0.83235253  0.16562560  0.83385396  1
  Fe  Fe48  1  0.83180144  0.50000759  0.49956076  1
  Fe  Fe49  1  0.66560227  0.33444082  0.66352167  1
  Fe  Fe50  1  0.83106833  0.50014395  0.83188315  1
  Fe  Fe51  1  0.83482086  0.82913955  0.49604745  1
  Fe  Fe52  1  0.66663425  0.66321909  0.66529725  1
  Fe  Fe53  1  0.83272509  0.82935032  0.83341744  1
" 