7069,Fe27Cr73_15,-220.584131176621, 143.433893616558,Fe27Cr73,"# generated using pymatgen
 data_Cr7Fe20
_symmetry_space_group_name_H-M   'P 1'
_cell_length_a   7.49573936
_cell_length_b   7.49573936
_cell_length_c   10.60057626
_cell_angle_alpha   90.00000000
_cell_angle_beta   90.00000000
_cell_angle_gamma   90.00000000
_symmetry_Int_Tables_number   1
_chemical_formula_structural   Cr7Fe20
_chemical_formula_sum   'Cr14 Fe40'
_cell_volume   595.60512802
_cell_formula_units_Z   2
loop_
 _symmetry_equiv_pos_site_id
 _symmetry_equiv_pos_as_xyz
  1  'x, y, z'
loop_
 _atom_site_type_symbol
 _atom_site_label
 _atom_site_symmetry_multiplicity
 _atom_site_fract_x
 _atom_site_fract_y
 _atom_site_fract_z
 _atom_site_occupancy
  Cr  Cr0  1  0.99790520  0.99763056  -0.00056327  1
  Fe  Fe1  1  0.16657239  0.16398449  0.16495841  1
  Fe  Fe2  1  0.00040804  -0.00144026  0.33033280  1
  Fe  Fe3  1  0.99546750  0.33321986  0.99771050  1
  Cr  Cr4  1  0.16336125  0.49645908  0.16274764  1
  Fe  Fe5  1  -0.00149916  0.32936673  0.33145822  1
  Fe  Fe6  1  -0.00159937  0.66435987  0.99685786  1
  Fe  Fe7  1  0.16433654  0.83159694  0.16523802  1
  Fe  Fe8  1  0.99747543  0.66592873  0.33034600  1
  Fe  Fe9  1  0.33310577  0.99783262  0.99750287  1
  Fe  Fe10  1  0.49652072  0.16623544  0.16364528  1
  Fe  Fe11  1  0.32912527  0.00071251  0.33208070  1
  Fe  Fe12  1  0.33323902  0.33128197  0.99776734  1
  Cr  Cr13  1  0.49793675  0.49753083  0.16722141  1
  Fe  Fe14  1  0.33109865  0.32849849  0.33287114  1
  Fe  Fe15  1  0.32986060  0.66563815  0.99639786  1
  Cr  Cr16  1  0.49698142  0.83288561  0.16452864  1
  Cr  Cr17  1  0.33056828  0.66476403  0.33368193  1
  Fe  Fe18  1  0.66398883  -0.00039365  -0.00174937  1
  Fe  Fe19  1  0.83147639  0.16746436  0.16425239  1
  Cr  Cr20  1  0.66553356  -0.00029186  0.32948068  1
  Fe  Fe21  1  0.66511314  0.32984072  -0.00186985  1
  Fe  Fe22  1  0.83179968  0.49719851  0.16614482  1
  Fe  Fe23  1  0.66449953  0.33101030  0.33146895  1
  Cr  Cr24  1  0.66579441  0.66410083  -0.00107463  1
  Fe  Fe25  1  0.83379820  0.82969725  0.16585668  1
  Fe  Fe26  1  0.66686529  0.66420116  0.33030080  1
  Fe  Fe27  1  0.16405359  0.16449644  0.49695175  1
  Fe  Fe28  1  -0.00134656  0.99674744  0.66496831  1
  Cr  Cr29  1  0.16539556  0.16661919  0.83322224  1
  Fe  Fe30  1  0.16545300  0.49829569  0.49811961  1
  Cr  Cr31  1  -0.00129123  0.33206824  0.66406605  1
  Fe  Fe32  1  0.16516713  0.49996474  0.83258722  1
  Fe  Fe33  1  0.16286589  0.83121218  0.49829893  1
  Fe  Fe34  1  -0.00007778  0.66558663  0.66605657  1
  Fe  Fe35  1  0.16453349  0.82977773  0.83139519  1
  Fe  Fe36  1  0.49910407  0.16709788  0.49792435  1
  Cr  Cr37  1  0.33105122  0.99802384  0.66367070  1
  Fe  Fe38  1  0.49821970  0.16533724  0.83198192  1
  Fe  Fe39  1  0.49779712  0.49582570  0.49865135  1
  Fe  Fe40  1  0.33310074  0.33319474  0.66413737  1
  Fe  Fe41  1  0.49732982  0.49659217  0.83136158  1
  Cr  Cr42  1  0.49936317  0.83000986  0.49807320  1
  Fe  Fe43  1  0.33035971  0.66204276  0.66521613  1
  Fe  Fe44  1  0.49821987  0.83209971  0.83143038  1
  Fe  Fe45  1  0.83103982  0.16451871  0.49844258  1
  Fe  Fe46  1  0.66463489  -0.00102953  0.66493550  1
  Cr  Cr47  1  0.83032258  0.16406727  0.82923982  1
  Cr  Cr48  1  0.83058151  0.49837815  0.49603307  1
  Fe  Fe49  1  0.66162588  0.33174926  0.66431320  1
  Fe  Fe50  1  0.83181071  0.49886124  0.83099977  1
  Cr  Cr51  1  0.83177915  0.83216593  0.49984164  1
  Fe  Fe52  1  0.66402214  0.66329750  0.66733643  1
  Fe  Fe53  1  0.83180250  0.83033701  0.82980234  1
" 