6078,Fe27Cr73_1,-220.745169364696, 144.08580670389,Fe27Cr73,"# generated using pymatgen
 data_Cr7Fe20
_symmetry_space_group_name_H-M   'P 1'
_cell_length_a   7.49466100
_cell_length_b   7.49466100
_cell_length_c   10.59905123
_cell_angle_alpha   90.00000000
_cell_angle_beta   90.00000000
_cell_angle_gamma   90.00000000
_symmetry_Int_Tables_number   1
_chemical_formula_structural   Cr7Fe20
_chemical_formula_sum   'Cr14 Fe40'
_cell_volume   595.34810909
_cell_formula_units_Z   2
loop_
 _symmetry_equiv_pos_site_id
 _symmetry_equiv_pos_as_xyz
  1  'x, y, z'
loop_
 _atom_site_type_symbol
 _atom_site_label
 _atom_site_symmetry_multiplicity
 _atom_site_fract_x
 _atom_site_fract_y
 _atom_site_fract_z
 _atom_site_occupancy
  Fe  Fe0  1  0.99764081  0.99535553  -0.00104914  1
  Cr  Cr1  1  0.16202262  0.16334137  0.16444583  1
  Fe  Fe2  1  0.99756231  0.99505686  0.33221869  1
  Fe  Fe3  1  0.99631178  0.33432993  0.99765040  1
  Cr  Cr4  1  0.16546417  0.49962972  0.16538823  1
  Fe  Fe5  1  -0.00145333  0.33295851  0.33286240  1
  Fe  Fe6  1  0.99475188  0.66461492  -0.00173139  1
  Fe  Fe7  1  0.16253380  0.83157299  0.16486926  1
  Fe  Fe8  1  0.99755945  0.66616792  0.33241254  1
  Fe  Fe9  1  0.33384810  0.99778548  -0.00072890  1
  Fe  Fe10  1  0.49926347  0.16414917  0.16478137  1
  Cr  Cr11  1  0.33154829  0.99728687  0.33000002  1
  Cr  Cr12  1  0.33258202  0.32932201  0.99626457  1
  Cr  Cr13  1  0.50001933  0.50014376  0.16850000  1
  Fe  Fe14  1  0.33175695  0.33170115  0.33360695  1
  Cr  Cr15  1  0.33029974  0.66788512  -0.00019139  1
  Fe  Fe16  1  0.50007217  0.83344594  0.16493300  1
  Fe  Fe17  1  0.33121384  0.66539246  0.33374656  1
  Fe  Fe18  1  0.66269807  0.99644599  -0.00160402  1
  Cr  Cr19  1  0.83099502  0.16396094  0.16549460  1
  Fe  Fe20  1  0.66485232  0.99624660  0.33150085  1
  Fe  Fe21  1  0.66602025  0.33218988  0.99814045  1
  Fe  Fe22  1  0.83202167  0.49930755  0.16510051  1
  Fe  Fe23  1  0.66427388  0.33149911  0.33304551  1
  Fe  Fe24  1  0.66729167  0.66609416  -0.00156793  1
  Fe  Fe25  1  0.83175847  0.82941117  0.16495609  1
  Fe  Fe26  1  0.66587989  0.66657534  0.33278438  1
  Fe  Fe27  1  0.16601306  0.16533564  0.49879946  1
  Fe  Fe28  1  0.99802095  0.99607560  0.66320331  1
  Cr  Cr29  1  0.16343777  0.16422717  0.82940789  1
  Fe  Fe30  1  0.16364828  0.49715387  0.49686596  1
  Fe  Fe31  1  0.00001087  0.33421098  0.66359284  1
  Fe  Fe32  1  0.16118342  0.49787763  0.83100176  1
  Fe  Fe33  1  0.16278068  0.83210154  0.49819386  1
  Fe  Fe34  1  0.99546920  0.66391106  0.66405582  1
  Cr  Cr35  1  0.16433873  0.83207722  0.83246134  1
  Fe  Fe36  1  0.49707194  0.16469079  0.49803919  1
  Fe  Fe37  1  0.33331086  -0.00029777  0.66285045  1
  Fe  Fe38  1  0.49819388  0.16130547  0.83108228  1
  Fe  Fe39  1  0.49863269  0.49802035  0.49653249  1
  Fe  Fe40  1  0.33036886  0.33046980  0.66339807  1
  Cr  Cr41  1  0.49880831  0.50119054  0.83103243  1
  Fe  Fe42  1  0.50014708  0.83187217  0.49792477  1
  Cr  Cr43  1  0.33022127  0.66542238  0.66325429  1
  Fe  Fe44  1  0.50083490  0.83500790  0.83129800  1
  Cr  Cr45  1  0.83335157  0.16219580  0.49685648  1
  Fe  Fe46  1  0.66338584  0.99505862  0.66457685  1
  Cr  Cr47  1  0.83226704  0.16300160  0.83237999  1
  Fe  Fe48  1  0.83204882  0.50003950  0.49733101  1
  Cr  Cr49  1  0.66550813  0.33098454  0.66510976  1
  Fe  Fe50  1  0.83433420  0.50036664  0.83207758  1
  Fe  Fe51  1  0.83141302  0.82955179  0.49813299  1
  Fe  Fe52  1  0.66705396  0.66701178  0.66385507  1
  Fe  Fe53  1  0.82987701  0.82978792  0.83137762  1
" 