830,Fe27Cr73_11,-220.737974652775, 141.709179491113,Fe27Cr73,"# generated using pymatgen
 data_Cr7Fe20
_symmetry_space_group_name_H-M   'P 1'
_cell_length_a   7.49708928
_cell_length_b   7.49708928
_cell_length_c   10.60248534
_cell_angle_alpha   90.00000000
_cell_angle_beta   90.00000000
_cell_angle_gamma   90.00000000
_symmetry_Int_Tables_number   1
_chemical_formula_structural   Cr7Fe20
_chemical_formula_sum   'Cr14 Fe40'
_cell_volume   595.92697686
_cell_formula_units_Z   2
loop_
 _symmetry_equiv_pos_site_id
 _symmetry_equiv_pos_as_xyz
  1  'x, y, z'
loop_
 _atom_site_type_symbol
 _atom_site_label
 _atom_site_symmetry_multiplicity
 _atom_site_fract_x
 _atom_site_fract_y
 _atom_site_fract_z
 _atom_site_occupancy
  Fe  Fe0  1  0.00011297  0.00003279  -0.00136575  1
  Fe  Fe1  1  0.16380739  0.16227771  0.16395546  1
  Fe  Fe2  1  0.99724359  -0.00047592  0.33047017  1
  Fe  Fe3  1  0.99735953  0.32821787  -0.00184650  1
  Cr  Cr4  1  0.16437842  0.49732284  0.16507096  1
  Fe  Fe5  1  0.99718366  0.33060239  0.33231129  1
  Cr  Cr6  1  -0.00060106  0.66663027  0.99795238  1
  Fe  Fe7  1  0.16453758  0.83492736  0.16533278  1
  Fe  Fe8  1  0.99453826  0.66409805  0.33099022  1
  Fe  Fe9  1  0.32913569  0.99641956  -0.00134786  1
  Fe  Fe10  1  0.49629750  0.16410488  0.16349901  1
  Fe  Fe11  1  0.33258535  -0.00123670  0.33051935  1
  Fe  Fe12  1  0.33039908  0.33025625  -0.00084932  1
  Fe  Fe13  1  0.49832840  0.49692601  0.16383607  1
  Cr  Cr14  1  0.32968447  0.32829879  0.33376460  1
  Fe  Fe15  1  0.33114887  0.66729658  -0.00119788  1
  Fe  Fe16  1  0.49654074  0.83282405  0.16574690  1
  Cr  Cr17  1  0.33144993  0.66485522  0.33076277  1
  Cr  Cr18  1  0.66652778  -0.00141345  -0.00169357  1
  Fe  Fe19  1  0.83394713  0.16476227  0.16475065  1
  Fe  Fe20  1  0.66406208  0.99629773  0.33087558  1
  Fe  Fe21  1  0.66616477  0.33064911  0.00120052  1
  Fe  Fe22  1  0.83142888  0.49704971  0.16522664  1
  Cr  Cr23  1  0.66492641  0.32985363  0.33001139  1
  Cr  Cr24  1  0.66452304  0.66612730  0.00165969  1
  Fe  Fe25  1  0.83300338  0.83235536  0.16723092  1
  Fe  Fe26  1  0.66665612  0.66649995  0.33017444  1
  Fe  Fe27  1  0.16220498  0.16396888  0.49782850  1
  Fe  Fe28  1  -0.00101360  0.00072090  0.66408071  1
  Fe  Fe29  1  0.16223458  0.16426339  0.83196602  1
  Fe  Fe30  1  0.16041751  0.49824372  0.49787035  1
  Fe  Fe31  1  0.99699332  0.33005616  0.66350179  1
  Fe  Fe32  1  0.16472618  0.49766819  0.83151830  1
  Cr  Cr33  1  0.16320241  0.83275678  0.49669219  1
  Fe  Fe34  1  -0.00036088  0.66329139  0.66393379  1
  Fe  Fe35  1  0.16785773  0.83214514  0.83004029  1
  Fe  Fe36  1  0.49901213  0.15998598  0.49889745  1
  Fe  Fe37  1  0.33111760  0.99661562  0.66464614  1
  Cr  Cr38  1  0.49867847  0.16519672  0.83096682  1
  Cr  Cr39  1  0.50004914  0.49838554  0.49882479  1
  Cr  Cr40  1  0.32821734  0.33117648  0.66141975  1
  Cr  Cr41  1  0.49744647  0.49785401  0.83403008  1
  Fe  Fe42  1  0.49997763  0.83357994  0.49861111  1
  Fe  Fe43  1  0.33044532  0.66687645  0.66516074  1
  Fe  Fe44  1  0.49615362  0.83124159  0.83007599  1
  Fe  Fe45  1  0.83221280  0.16358091  0.49858203  1
  Fe  Fe46  1  0.66431122  -0.00136903  0.66301760  1
  Fe  Fe47  1  0.83355461  0.16545252  0.83041971  1
  Fe  Fe48  1  0.83409506  0.49904177  0.49892059  1
  Fe  Fe49  1  0.66698958  0.32932872  0.66282210  1
  Cr  Cr50  1  0.83064061  0.49557618  0.83058545  1
  Fe  Fe51  1  0.82935683  0.83115446  0.49839541  1
  Fe  Fe52  1  0.66437454  0.66599783  0.66375106  1
  Cr  Cr53  1  0.83354288  0.83345811  0.82820834  1
" 