261,Fe27Cr73_5,-220.32836853488, 146.464823731947,Fe27Cr73,"# generated using pymatgen
 data_Cr7Fe20
_symmetry_space_group_name_H-M   'P 1'
_cell_length_a   7.49198456
_cell_length_b   7.49198456
_cell_length_c   10.59526617
_cell_angle_alpha   90.00000000
_cell_angle_beta   90.00000000
_cell_angle_gamma   90.00000000
_symmetry_Int_Tables_number   1
_chemical_formula_structural   Cr7Fe20
_chemical_formula_sum   'Cr14 Fe40'
_cell_volume   594.71051691
_cell_formula_units_Z   2
loop_
 _symmetry_equiv_pos_site_id
 _symmetry_equiv_pos_as_xyz
  1  'x, y, z'
loop_
 _atom_site_type_symbol
 _atom_site_label
 _atom_site_symmetry_multiplicity
 _atom_site_fract_x
 _atom_site_fract_y
 _atom_site_fract_z
 _atom_site_occupancy
  Fe  Fe0  1  0.99791593  0.99831661  -0.00089100  1
  Fe  Fe1  1  0.16590697  0.16259587  0.16455923  1
  Cr  Cr2  1  0.99816228  0.99788028  0.33515080  1
  Fe  Fe3  1  -0.00146629  0.33358638  -0.00109507  1
  Fe  Fe4  1  0.16437125  0.50076512  0.16444498  1
  Cr  Cr5  1  0.00077735  0.33230100  0.33029394  1
  Fe  Fe6  1  0.99780847  0.66312058  -0.00113654  1
  Fe  Fe7  1  0.16640983  0.83173628  0.16431116  1
  Fe  Fe8  1  -0.00002301  0.66444880  0.33110845  1
  Fe  Fe9  1  0.33415645  0.99734435  0.00010400  1
  Fe  Fe10  1  0.49784760  0.16312028  0.16630083  1
  Fe  Fe11  1  0.33187394  0.00024720  0.33013936  1
  Cr  Cr12  1  0.33194168  0.33290394  0.00016025  1
  Fe  Fe13  1  0.49977019  0.49988358  0.16695130  1
  Fe  Fe14  1  0.33240363  0.33060928  0.33017782  1
  Fe  Fe15  1  0.33368459  0.66567303  -0.00024370  1
  Fe  Fe16  1  0.49728087  0.83209895  0.16555485  1
  Fe  Fe17  1  0.32968486  0.66402076  0.32949190  1
  Fe  Fe18  1  0.66289963  0.99678615  0.99634107  1
  Cr  Cr19  1  0.83079142  0.16558341  0.16337903  1
  Fe  Fe20  1  0.66352648  0.00015513  0.33215277  1
  Cr  Cr21  1  0.66421606  0.33309394  0.99602122  1
  Fe  Fe22  1  0.83103112  0.49966005  0.16503363  1
  Fe  Fe23  1  0.66334259  0.33034742  0.33035056  1
  Fe  Fe24  1  0.66355885  0.66553909  0.99742347  1
  Cr  Cr25  1  0.83093776  0.83180189  0.16604634  1
  Fe  Fe26  1  0.66505332  0.66443694  0.33038623  1
  Fe  Fe27  1  0.16738585  0.16755273  0.50041667  1
  Fe  Fe28  1  0.99750922  -0.00092973  0.66392535  1
  Cr  Cr29  1  0.16382140  0.16438341  0.83245446  1
  Fe  Fe30  1  0.16613478  0.49802895  0.49988264  1
  Fe  Fe31  1  0.99663350  0.33010935  0.66347499  1
  Cr  Cr32  1  0.16498220  0.49817626  0.82924399  1
  Cr  Cr33  1  0.16568477  0.83103906  0.50035588  1
  Fe  Fe34  1  0.99568090  0.66593033  0.66503437  1
  Cr  Cr35  1  0.16610583  0.83244266  0.83281259  1
  Fe  Fe36  1  0.49764572  0.16541346  0.49762337  1
  Fe  Fe37  1  0.33262186  -0.00011692  0.66485112  1
  Fe  Fe38  1  0.49747694  0.16428782  0.83108913  1
  Cr  Cr39  1  0.49835881  0.49725059  0.49873375  1
  Fe  Fe40  1  0.33292613  0.32976094  0.66483750  1
  Fe  Fe41  1  0.49855914  0.49982144  0.82986447  1
  Cr  Cr42  1  0.49792925  0.83095703  0.49623979  1
  Fe  Fe43  1  0.33365895  0.66534097  0.66545549  1
  Fe  Fe44  1  0.49864571  0.83085940  0.83212305  1
  Fe  Fe45  1  0.83018896  0.16510370  0.49864849  1
  Cr  Cr46  1  0.66604375  0.99740692  0.66515557  1
  Fe  Fe47  1  0.83249678  0.16481223  0.83204194  1
  Cr  Cr48  1  0.83053313  0.49805930  0.49708009  1
  Fe  Fe49  1  0.66529039  0.33152887  0.66727743  1
  Fe  Fe50  1  0.83193589  0.49932794  0.83031129  1
  Fe  Fe51  1  0.83030111  0.83023235  0.49840298  1
  Fe  Fe52  1  0.66556788  0.66449242  0.66707264  1
  Fe  Fe53  1  0.83214827  0.83080310  0.83320504  1
" 