155,Fe27Cr73_3,-220.6182011468, 143.630357402892,Fe27Cr73,"# generated using pymatgen
 data_Cr7Fe20
_symmetry_space_group_name_H-M   'P 1'
_cell_length_a   7.49120379
_cell_length_b   7.49120379
_cell_length_c   10.59416200
_cell_angle_alpha   90.00000000
_cell_angle_beta   90.00000000
_cell_angle_gamma   90.00000000
_symmetry_Int_Tables_number   1
_chemical_formula_structural   Cr7Fe20
_chemical_formula_sum   'Cr14 Fe40'
_cell_volume   594.52460536
_cell_formula_units_Z   2
loop_
 _symmetry_equiv_pos_site_id
 _symmetry_equiv_pos_as_xyz
  1  'x, y, z'
loop_
 _atom_site_type_symbol
 _atom_site_label
 _atom_site_symmetry_multiplicity
 _atom_site_fract_x
 _atom_site_fract_y
 _atom_site_fract_z
 _atom_site_occupancy
  Cr  Cr0  1  0.00087344  -0.00119813  0.99668827  1
  Cr  Cr1  1  0.16469703  0.16784705  0.16411298  1
  Fe  Fe2  1  0.99739942  0.99777459  0.33450533  1
  Fe  Fe3  1  0.99612861  0.33314794  0.99721200  1
  Cr  Cr4  1  0.16384698  0.49882603  0.16657814  1
  Fe  Fe5  1  0.99554995  0.33172409  0.33368352  1
  Fe  Fe6  1  0.99695149  0.66374156  0.99787481  1
  Fe  Fe7  1  0.16423371  0.83178936  0.16572038  1
  Fe  Fe8  1  -0.00086125  0.66654302  0.33295529  1
  Fe  Fe9  1  0.33488139  -0.00016626  0.99755931  1
  Fe  Fe10  1  0.49958453  0.16316981  0.16329032  1
  Cr  Cr11  1  0.33044875  0.99761834  0.33043233  1
  Fe  Fe12  1  0.33337952  0.32936686  0.99664562  1
  Cr  Cr13  1  0.49750796  0.49661896  0.16531977  1
  Cr  Cr14  1  0.33486535  0.33051125  0.33279195  1
  Cr  Cr15  1  0.33327446  0.66719861  0.00014519  1
  Fe  Fe16  1  0.49855777  0.83464557  0.16480255  1
  Fe  Fe17  1  0.33161460  0.66707913  0.33240854  1
  Fe  Fe18  1  0.66138874  -0.00100209  0.99730361  1
  Cr  Cr19  1  0.82935181  0.16353182  0.16645282  1
  Fe  Fe20  1  0.66335094  -0.00076897  0.33467643  1
  Fe  Fe21  1  0.66503211  0.33175831  0.99680630  1
  Fe  Fe22  1  0.83198254  0.49700903  0.16418658  1
  Fe  Fe23  1  0.66611837  0.32990994  0.33407069  1
  Fe  Fe24  1  0.66609848  0.66389062  0.99815809  1
  Cr  Cr25  1  0.83006509  0.83284197  0.16535085  1
  Cr  Cr26  1  0.66442329  0.66247583  0.33208648  1
  Fe  Fe27  1  0.16512773  0.16475519  0.49828606  1
  Cr  Cr28  1  -0.00028061  -0.00013779  0.66427317  1
  Fe  Fe29  1  0.16721391  0.16469919  0.83133665  1
  Cr  Cr30  1  0.16715710  0.49832094  0.49817720  1
  Fe  Fe31  1  0.99647981  0.33199655  0.66470630  1
  Cr  Cr32  1  0.16640605  0.49717871  0.83105568  1
  Fe  Fe33  1  0.16547045  0.83153552  0.49855269  1
  Fe  Fe34  1  0.99725502  0.66449706  0.66438906  1
  Fe  Fe35  1  0.16731105  0.83161255  0.83034247  1
  Fe  Fe36  1  0.49940354  0.16477705  0.49998901  1
  Fe  Fe37  1  0.33392563  -0.00138806  0.66469996  1
  Fe  Fe38  1  0.49849111  0.16495662  0.83127991  1
  Fe  Fe39  1  0.50023621  0.49824983  0.50047758  1
  Fe  Fe40  1  0.33325942  0.32938741  0.66457989  1
  Fe  Fe41  1  0.50083494  0.49839239  0.83123573  1
  Fe  Fe42  1  0.49794108  0.83153227  0.49991352  1
  Fe  Fe43  1  0.33311184  0.66688991  0.66543037  1
  Fe  Fe44  1  0.49662170  0.83223516  0.83048278  1
  Fe  Fe45  1  0.83095652  0.16614431  0.49747592  1
  Fe  Fe46  1  0.66335716  -0.00045236  0.66407486  1
  Fe  Fe47  1  0.83044470  0.16801395  0.83154470  1
  Fe  Fe48  1  0.83131121  0.49738288  0.49968255  1
  Fe  Fe49  1  0.66550378  0.33128264  0.66501166  1
  Fe  Fe50  1  0.82990084  0.49704847  0.83127913  1
  Fe  Fe51  1  0.83171147  0.83135137  0.49855635  1
  Fe  Fe52  1  0.66447913  0.66427130  0.66361902  1
  Cr  Cr53  1  0.82855978  0.83251834  0.83066523  1
" 