3378,Fe27Cr73_7,-220.507524671787, 146.267794901496,Fe27Cr73,"# generated using pymatgen
 data_Cr7Fe20
_symmetry_space_group_name_H-M   'P 1'
_cell_length_a   7.49617104
_cell_length_b   7.49617104
_cell_length_c   10.60118675
_cell_angle_alpha   90.00000000
_cell_angle_beta   90.00000000
_cell_angle_gamma   90.00000000
_symmetry_Int_Tables_number   1
_chemical_formula_structural   Cr7Fe20
_chemical_formula_sum   'Cr14 Fe40'
_cell_volume   595.70803682
_cell_formula_units_Z   2
loop_
 _symmetry_equiv_pos_site_id
 _symmetry_equiv_pos_as_xyz
  1  'x, y, z'
loop_
 _atom_site_type_symbol
 _atom_site_label
 _atom_site_symmetry_multiplicity
 _atom_site_fract_x
 _atom_site_fract_y
 _atom_site_fract_z
 _atom_site_occupancy
  Fe  Fe0  1  0.99763289  -0.00170843  0.99764925  1
  Fe  Fe1  1  0.16580889  0.16541830  0.16520748  1
  Fe  Fe2  1  -0.00083638  -0.00186664  0.33117450  1
  Cr  Cr3  1  0.00093622  0.33030698  0.99550759  1
  Cr  Cr4  1  0.16589973  0.50057492  0.16421758  1
  Fe  Fe5  1  0.00059408  0.33127412  0.33161228  1
  Fe  Fe6  1  0.99553287  0.66578157  0.99659524  1
  Cr  Cr7  1  0.16538905  0.83187670  0.16270933  1
  Fe  Fe8  1  -0.00110849  0.66469551  0.33157490  1
  Fe  Fe9  1  0.33154614  0.00041739  0.99787933  1
  Fe  Fe10  1  0.49495328  0.16575895  0.16540949  1
  Fe  Fe11  1  0.33241237  0.99801541  0.33059264  1
  Fe  Fe12  1  0.33424733  0.33053290  0.99694233  1
  Fe  Fe13  1  0.49716053  0.49713219  0.16373413  1
  Fe  Fe14  1  0.33167372  0.33186872  0.33181673  1
  Fe  Fe15  1  0.33442538  0.66392388  0.99711896  1
  Fe  Fe16  1  0.49724400  0.83102979  0.16425944  1
  Fe  Fe17  1  0.33217311  0.66430876  0.33200605  1
  Cr  Cr18  1  0.66484386  0.99512207  -0.00090579  1
  Cr  Cr19  1  0.82877222  0.16581028  0.16721988  1
  Fe  Fe20  1  0.66272412  0.99777807  0.33009969  1
  Fe  Fe21  1  0.66302393  0.33130713  0.99641612  1
  Cr  Cr22  1  0.83026201  0.49717004  0.16380674  1
  Fe  Fe23  1  0.66136329  0.33258314  0.33094895  1
  Fe  Fe24  1  0.66407347  0.66318278  0.99735040  1
  Fe  Fe25  1  0.83245949  0.83104041  0.16494764  1
  Cr  Cr26  1  0.66342568  0.66732638  0.33042969  1
  Fe  Fe27  1  0.16342038  0.16472597  0.49724616  1
  Fe  Fe28  1  -0.00111880  -0.00019564  0.66608590  1
  Fe  Fe29  1  0.16558949  0.16363069  0.83095165  1
  Fe  Fe30  1  0.16496574  0.49690117  0.49685942  1
  Fe  Fe31  1  0.99740464  0.33129871  0.66709896  1
  Fe  Fe32  1  0.16544355  0.49894225  0.83162673  1
  Cr  Cr33  1  0.16758733  0.83000881  0.49892205  1
  Fe  Fe34  1  -0.00127892  0.66274532  0.66612988  1
  Cr  Cr35  1  0.16620841  0.83081180  0.83254796  1
  Cr  Cr36  1  0.49927946  0.16451719  0.49795138  1
  Fe  Fe37  1  0.33240193  0.99778969  0.66546210  1
  Fe  Fe38  1  0.49771804  0.16419436  0.83118243  1
  Fe  Fe39  1  0.49698671  0.49966875  0.49827272  1
  Cr  Cr40  1  0.32824900  0.33194818  0.66469097  1
  Fe  Fe41  1  0.49806822  0.49901207  0.83187792  1
  Fe  Fe42  1  0.49893966  0.83103481  0.49924261  1
  Fe  Fe43  1  0.33308312  0.66451826  0.66517821  1
  Fe  Fe44  1  0.49878608  0.83053522  0.83075133  1
  Cr  Cr45  1  0.82941574  0.16594548  0.49848157  1
  Fe  Fe46  1  0.66376286  0.99751135  0.66714360  1
  Fe  Fe47  1  0.83092899  0.16388304  0.83008043  1
  Cr  Cr48  1  0.83099289  0.49619865  0.49844002  1
  Fe  Fe49  1  0.66389502  0.33221693  0.66751845  1
  Fe  Fe50  1  0.83069372  0.49925519  0.83064275  1
  Cr  Cr51  1  0.83298565  0.83244597  0.49871835  1
  Fe  Fe52  1  0.66322446  0.66437395  0.66561793  1
  Fe  Fe53  1  0.83083593  0.83052260  0.83006004  1
" 