2074,Fe27Cr73_13,-220.577050660471, 143.802959499777,Fe27Cr73,"# generated using pymatgen
 data_Cr7Fe20
_symmetry_space_group_name_H-M   'P 1'
_cell_length_a   7.49571139
_cell_length_b   7.49571139
_cell_length_c   10.60053671
_cell_angle_alpha   90.00000000
_cell_angle_beta   90.00000000
_cell_angle_gamma   90.00000000
_symmetry_Int_Tables_number   1
_chemical_formula_structural   Cr7Fe20
_chemical_formula_sum   'Cr14 Fe40'
_cell_volume   595.59846213
_cell_formula_units_Z   2
loop_
 _symmetry_equiv_pos_site_id
 _symmetry_equiv_pos_as_xyz
  1  'x, y, z'
loop_
 _atom_site_type_symbol
 _atom_site_label
 _atom_site_symmetry_multiplicity
 _atom_site_fract_x
 _atom_site_fract_y
 _atom_site_fract_z
 _atom_site_occupancy
  Fe  Fe0  1  -0.00132654  -0.00087445  0.99717205  1
  Cr  Cr1  1  0.16522832  0.16314464  0.16486186  1
  Fe  Fe2  1  -0.00038402  0.99791295  0.33300856  1
  Cr  Cr3  1  0.99754361  0.33364650  0.99698490  1
  Fe  Fe4  1  0.16501177  0.50059187  0.16656358  1
  Fe  Fe5  1  0.99667327  0.33094432  0.33128596  1
  Cr  Cr6  1  0.00160815  0.66440031  -0.00173251  1
  Fe  Fe7  1  0.16715585  0.83056233  0.16569130  1
  Fe  Fe8  1  0.00013797  0.66511644  0.33132364  1
  Fe  Fe9  1  0.33202457  0.99600623  0.99736165  1
  Fe  Fe10  1  0.49898234  0.16290567  0.16489404  1
  Fe  Fe11  1  0.33064001  0.99580573  0.33240673  1
  Cr  Cr12  1  0.33194676  0.33261198  0.99627091  1
  Fe  Fe13  1  0.49871151  0.50045908  0.16552024  1
  Cr  Cr14  1  0.33256616  0.33252781  0.33246667  1
  Fe  Fe15  1  0.33343463  0.66587730  -0.00182971  1
  Fe  Fe16  1  0.49546382  0.83115242  0.16407830  1
  Fe  Fe17  1  0.33180943  0.66702885  0.33145031  1
  Fe  Fe18  1  0.66324845  0.99765891  -0.00190213  1
  Fe  Fe19  1  0.83117681  0.16501225  0.16590009  1
  Cr  Cr20  1  0.66300356  -0.00059721  0.33250143  1
  Cr  Cr21  1  0.66473219  0.32873803  -0.00031530  1
  Fe  Fe22  1  0.83100509  0.49708751  0.16760210  1
  Fe  Fe23  1  0.66510808  0.33210935  0.33033007  1
  Fe  Fe24  1  0.66203944  0.66367522  -0.00189218  1
  Cr  Cr25  1  0.83093995  0.83049223  0.16466217  1
  Fe  Fe26  1  0.66208554  0.66387467  0.33099704  1
  Fe  Fe27  1  0.16447575  0.16361652  0.49788350  1
  Fe  Fe28  1  -0.00003047  -0.00093496  0.66385734  1
  Fe  Fe29  1  0.16566758  0.16154427  0.83120522  1
  Fe  Fe30  1  0.16640569  0.49894821  0.49759516  1
  Cr  Cr31  1  -0.00006054  0.33202625  0.66731808  1
  Fe  Fe32  1  0.16774195  0.49972067  0.83058968  1
  Fe  Fe33  1  0.16552048  0.83194830  0.49720443  1
  Cr  Cr34  1  0.00071423  0.66607493  0.66464099  1
  Fe  Fe35  1  0.16792929  0.83318806  0.83147678  1
  Fe  Fe36  1  0.49619556  0.16517337  0.49810852  1
  Fe  Fe37  1  0.32941977  -0.00170587  0.66453286  1
  Fe  Fe38  1  0.49664193  0.16227073  0.83139011  1
  Fe  Fe39  1  0.49624407  0.49988052  0.49835036  1
  Fe  Fe40  1  0.33140566  0.33137825  0.66475455  1
  Fe  Fe41  1  0.49791336  0.50086454  0.83070542  1
  Fe  Fe42  1  0.49653829  0.82919321  0.49801212  1
  Fe  Fe43  1  0.33364235  0.66461271  0.66465980  1
  Fe  Fe44  1  0.49556757  0.83079149  0.83206911  1
  Fe  Fe45  1  0.83357751  0.16430589  0.49701494  1
  Cr  Cr46  1  0.66348459  0.99733293  0.66284432  1
  Fe  Fe47  1  0.83182731  0.16331438  0.83204929  1
  Cr  Cr48  1  0.82895136  0.49983409  0.49610581  1
  Cr  Cr49  1  0.66271428  0.32949720  0.66502933  1
  Fe  Fe50  1  0.82915919  0.49850104  0.83123726  1
  Fe  Fe51  1  0.83240714  0.83225051  0.49717287  1
  Fe  Fe52  1  0.66212486  0.66425967  0.66449862  1
  Cr  Cr53  1  0.83000587  0.83099351  0.83078309  1
" 