6080,Fe27Cr73_19,-220.555014207723, 144.023298298335,Fe27Cr73,"# generated using pymatgen
 data_Cr7Fe20
_symmetry_space_group_name_H-M   'P 1'
_cell_length_a   7.48899745
_cell_length_b   7.48899745
_cell_length_c   10.59104176
_cell_angle_alpha   90.00000000
_cell_angle_beta   90.00000000
_cell_angle_gamma   90.00000000
_symmetry_Int_Tables_number   1
_chemical_formula_structural   Cr7Fe20
_chemical_formula_sum   'Cr14 Fe40'
_cell_volume   593.99945316
_cell_formula_units_Z   2
loop_
 _symmetry_equiv_pos_site_id
 _symmetry_equiv_pos_as_xyz
  1  'x, y, z'
loop_
 _atom_site_type_symbol
 _atom_site_label
 _atom_site_symmetry_multiplicity
 _atom_site_fract_x
 _atom_site_fract_y
 _atom_site_fract_z
 _atom_site_occupancy
  Fe  Fe0  1  0.99744417  0.99677038  0.99792758  1
  Cr  Cr1  1  0.16543664  0.16425701  0.16502867  1
  Fe  Fe2  1  0.99826380  -0.00081616  0.33195495  1
  Cr  Cr3  1  0.99668828  0.33305988  -0.00043876  1
  Fe  Fe4  1  0.16491904  0.50037143  0.16517851  1
  Fe  Fe5  1  0.99764888  0.33069660  0.33259196  1
  Fe  Fe6  1  0.99730850  0.66748390  -0.00009860  1
  Fe  Fe7  1  0.16628522  0.83079997  0.16430252  1
  Cr  Cr8  1  0.99845783  0.66380056  0.33083238  1
  Fe  Fe9  1  0.33200946  0.99542905  0.99829643  1
  Fe  Fe10  1  0.50008160  0.16241165  0.16665761  1
  Fe  Fe11  1  0.33133373  0.99603551  0.33198462  1
  Cr  Cr12  1  0.33198085  0.33071741  0.99740675  1
  Cr  Cr13  1  0.49770836  0.49853620  0.16492956  1
  Fe  Fe14  1  0.32971486  0.33277697  0.33182709  1
  Fe  Fe15  1  0.33225915  0.66808572  -0.00109463  1
  Fe  Fe16  1  0.49819746  0.83374722  0.16519419  1
  Fe  Fe17  1  0.33210000  0.66697257  0.33200429  1
  Fe  Fe18  1  0.66616914  0.99651186  -0.00055028  1
  Fe  Fe19  1  0.83011626  0.16371967  0.16681857  1
  Fe  Fe20  1  0.66601817  0.99743663  0.33020926  1
  Cr  Cr21  1  0.66700214  0.33206440  0.99766835  1
  Fe  Fe22  1  0.83224217  0.49904182  0.16588987  1
  Fe  Fe23  1  0.66810903  0.33211308  0.33060682  1
  Fe  Fe24  1  0.66613183  0.66709343  0.99802139  1
  Fe  Fe25  1  0.83117653  0.83273476  0.16469668  1
  Fe  Fe26  1  0.66464621  0.66638531  0.33141910  1
  Fe  Fe27  1  0.16323519  0.16417624  0.49595307  1
  Fe  Fe28  1  0.99831900  0.99811773  0.66616771  1
  Fe  Fe29  1  0.16232915  0.16154514  0.83274815  1
  Fe  Fe30  1  0.16446250  0.49942114  0.49803768  1
  Cr  Cr31  1  0.99669826  0.33171279  0.66375877  1
  Cr  Cr32  1  0.16586573  0.50120950  0.83350413  1
  Fe  Fe33  1  0.16682943  0.83134936  0.49792909  1
  Fe  Fe34  1  -0.00042351  0.66662303  0.66515729  1
  Fe  Fe35  1  0.16432417  0.83308417  0.83293246  1
  Cr  Cr36  1  0.49982068  0.16565731  0.49533425  1
  Cr  Cr37  1  0.33189638  0.99595934  0.66455302  1
  Cr  Cr38  1  0.49958931  0.16526008  0.83315590  1
  Cr  Cr39  1  0.49838115  0.49948850  0.50048313  1
  Cr  Cr40  1  0.33075084  0.33087290  0.66690472  1
  Fe  Fe41  1  0.50109037  0.50288712  0.83108068  1
  Fe  Fe42  1  0.49838166  0.83126964  0.49751673  1
  Fe  Fe43  1  0.33131269  0.66631896  0.66536901  1
  Fe  Fe44  1  0.49911727  0.82944527  0.83269688  1
  Fe  Fe45  1  0.83208049  0.16598575  0.49728539  1
  Fe  Fe46  1  0.66677520  -0.00109045  0.66611604  1
  Fe  Fe47  1  0.83336831  0.16267529  0.83108200  1
  Fe  Fe48  1  0.83105514  0.49748308  0.49811205  1
  Fe  Fe49  1  0.66644232  0.33197048  0.66631079  1
  Fe  Fe50  1  0.83003087  0.50107497  0.83077030  1
  Cr  Cr51  1  0.83258570  0.83301775  0.50021451  1
  Fe  Fe52  1  0.66508746  0.66531765  0.66690920  1
  Fe  Fe53  1  0.83200943  0.83179494  0.83151666  1
" 