5270,Fe27Cr73_9,-220.564062840423, 141.739353010447,Fe27Cr73,"# generated using pymatgen
 data_Cr7Fe20
_symmetry_space_group_name_H-M   'P 1'
_cell_length_a   7.49980229
_cell_length_b   7.49980229
_cell_length_c   10.60632212
_cell_angle_alpha   90.00000000
_cell_angle_beta   90.00000000
_cell_angle_gamma   90.00000000
_symmetry_Int_Tables_number   1
_chemical_formula_structural   Cr7Fe20
_chemical_formula_sum   'Cr14 Fe40'
_cell_volume   596.57416554
_cell_formula_units_Z   2
loop_
 _symmetry_equiv_pos_site_id
 _symmetry_equiv_pos_as_xyz
  1  'x, y, z'
loop_
 _atom_site_type_symbol
 _atom_site_label
 _atom_site_symmetry_multiplicity
 _atom_site_fract_x
 _atom_site_fract_y
 _atom_site_fract_z
 _atom_site_occupancy
  Cr  Cr0  1  0.99687962  0.00011278  0.99691177  1
  Fe  Fe1  1  0.16516106  0.16520412  0.16540291  1
  Fe  Fe2  1  0.00038890  0.99726267  0.32887697  1
  Fe  Fe3  1  0.00014393  0.33192120  0.99771193  1
  Fe  Fe4  1  0.16361044  0.49469099  0.16582424  1
  Fe  Fe5  1  -0.00051506  0.33239531  0.33039614  1
  Cr  Cr6  1  -0.00034360  0.66448940  -0.00185859  1
  Fe  Fe7  1  0.16341133  0.83406227  0.16578477  1
  Fe  Fe8  1  0.99761063  0.66334998  0.32942340  1
  Fe  Fe9  1  0.33144047  -0.00196481  -0.00042640  1
  Fe  Fe10  1  0.49675854  0.16359125  0.16507636  1
  Fe  Fe11  1  0.33104855  -0.00023359  0.33106380  1
  Fe  Fe12  1  0.32779531  0.33038409  0.00001613  1
  Fe  Fe13  1  0.49808755  0.49558693  0.16549377  1
  Fe  Fe14  1  0.33111106  0.32984568  0.33123127  1
  Cr  Cr15  1  0.33020299  0.66613383  0.00046253  1
  Fe  Fe16  1  0.49879608  0.83433109  0.16568690  1
  Cr  Cr17  1  0.33042582  0.66567070  0.32992236  1
  Fe  Fe18  1  0.66376724  0.99612479  -0.00135133  1
  Fe  Fe19  1  0.83173653  0.16407117  0.16743417  1
  Fe  Fe20  1  0.66222928  0.99717618  0.32982264  1
  Cr  Cr21  1  0.66804541  0.32840441  -0.00112179  1
  Fe  Fe22  1  0.83196573  0.49746871  0.16662473  1
  Fe  Fe23  1  0.66293256  0.33228657  0.33018268  1
  Cr  Cr24  1  0.66351246  0.66513201  0.99772887  1
  Fe  Fe25  1  0.83104759  0.83184015  0.16664500  1
  Fe  Fe26  1  0.66470464  0.66353269  0.32970236  1
  Fe  Fe27  1  0.16585114  0.16357408  0.49700092  1
  Fe  Fe28  1  0.00068181  0.99621112  0.66590781  1
  Fe  Fe29  1  0.16513793  0.16474426  0.83147053  1
  Fe  Fe30  1  0.16241722  0.49700762  0.49705374  1
  Cr  Cr31  1  0.99743357  0.32940440  0.66634990  1
  Fe  Fe32  1  0.16453776  0.49621572  0.83129165  1
  Fe  Fe33  1  0.16427440  0.83344269  0.49722386  1
  Fe  Fe34  1  0.99673550  0.66476255  0.66591073  1
  Fe  Fe35  1  0.16552174  0.83314859  0.82997735  1
  Fe  Fe36  1  0.49545256  0.16357846  0.49641751  1
  Fe  Fe37  1  0.32853458  -0.00007639  0.66324521  1
  Cr  Cr38  1  0.49439416  0.16490025  0.83286144  1
  Fe  Fe39  1  0.49861367  0.49786485  0.49654192  1
  Fe  Fe40  1  0.33014414  0.32953810  0.66228859  1
  Cr  Cr41  1  0.49591401  0.49656279  0.83087654  1
  Fe  Fe42  1  0.49826440  0.83287120  0.49691060  1
  Cr  Cr43  1  0.33037090  0.66635398  0.66315971  1
  Fe  Fe44  1  0.49643048  0.83200679  0.83142201  1
  Cr  Cr45  1  0.83266878  0.16210768  0.49493918  1
  Cr  Cr46  1  0.66443750  -0.00105100  0.66656837  1
  Fe  Fe47  1  0.83192803  0.16426481  0.83158294  1
  Fe  Fe48  1  0.83220790  0.49815660  0.49575197  1
  Cr  Cr49  1  0.66552242  0.33077259  0.66173626  1
  Fe  Fe50  1  0.83204820  0.49887927  0.83112476  1
  Cr  Cr51  1  0.83300498  0.82939446  0.49704763  1
  Fe  Fe52  1  0.66607618  0.66430217  0.66472561  1
  Fe  Fe53  1  0.83152101  0.83027183  0.83002571  1
" 