3855,Fe27Cr73_10,-220.40133595542, 144.994839973999,Fe27Cr73,"# generated using pymatgen
 data_Cr7Fe20
_symmetry_space_group_name_H-M   'P 1'
_cell_length_a   7.49184563
_cell_length_b   7.49184563
_cell_length_c   10.59506970
_cell_angle_alpha   90.00000000
_cell_angle_beta   90.00000000
_cell_angle_gamma   90.00000000
_symmetry_Int_Tables_number   1
_chemical_formula_structural   Cr7Fe20
_chemical_formula_sum   'Cr14 Fe40'
_cell_volume   594.67743356
_cell_formula_units_Z   2
loop_
 _symmetry_equiv_pos_site_id
 _symmetry_equiv_pos_as_xyz
  1  'x, y, z'
loop_
 _atom_site_type_symbol
 _atom_site_label
 _atom_site_symmetry_multiplicity
 _atom_site_fract_x
 _atom_site_fract_y
 _atom_site_fract_z
 _atom_site_occupancy
  Fe  Fe0  1  0.99712431  -0.00128874  -0.00065402  1
  Fe  Fe1  1  0.16546433  0.16706448  0.16308901  1
  Cr  Cr2  1  0.99755790  -0.00084951  0.33165203  1
  Fe  Fe3  1  0.99807984  0.33232826  0.99790020  1
  Fe  Fe4  1  0.16434359  0.49692345  0.16363903  1
  Fe  Fe5  1  0.00015628  0.33073983  0.33189988  1
  Fe  Fe6  1  -0.00055672  0.66397654  -0.00043019  1
  Fe  Fe7  1  0.16621715  0.83096505  0.16273806  1
  Cr  Cr8  1  0.99759685  0.66253512  0.33024716  1
  Fe  Fe9  1  0.33292545  -0.00130655  -0.00054063  1
  Fe  Fe10  1  0.49772111  0.16449580  0.16231949  1
  Cr  Cr11  1  0.33308729  -0.00031863  0.33264257  1
  Fe  Fe12  1  0.33136162  0.33157791  0.99712133  1
  Cr  Cr13  1  0.49803821  0.49730836  0.16644171  1
  Fe  Fe14  1  0.32776687  0.33174137  0.33197090  1
  Fe  Fe15  1  0.33047257  0.66461185  -0.00154430  1
  Fe  Fe16  1  0.49695607  0.83237835  0.16366170  1
  Fe  Fe17  1  0.33197186  0.66551999  0.33107481  1
  Fe  Fe18  1  0.66489173  0.00015300  -0.00164244  1
  Fe  Fe19  1  0.83194890  0.16641323  0.16231923  1
  Cr  Cr20  1  0.66436175  0.99599418  0.33040403  1
  Fe  Fe21  1  0.66551700  0.33007017  0.99784522  1
  Fe  Fe22  1  0.83366082  0.49663013  0.16365580  1
  Cr  Cr23  1  0.66615492  0.33066918  0.33218993  1
  Cr  Cr24  1  0.66545725  0.66602776  -0.00107393  1
  Fe  Fe25  1  0.83194756  0.83170983  0.16319735  1
  Fe  Fe26  1  0.66511210  0.66692048  0.33091576  1
  Fe  Fe27  1  0.16631254  0.16799776  0.49726834  1
  Cr  Cr28  1  0.99717916  -0.00031272  0.66383944  1
  Fe  Fe29  1  0.16510655  0.16572277  0.83422037  1
  Fe  Fe30  1  0.16515375  0.49823705  0.49704028  1
  Cr  Cr31  1  -0.00052923  0.33369413  0.66348129  1
  Fe  Fe32  1  0.16475229  0.49838928  0.83359642  1
  Cr  Cr33  1  0.16557288  0.83168875  0.50109621  1
  Fe  Fe34  1  0.99635274  0.66358012  0.66525577  1
  Cr  Cr35  1  0.16420541  0.83249366  0.83158505  1
  Fe  Fe36  1  0.49744402  0.16444693  0.49931428  1
  Fe  Fe37  1  0.33288261  -0.00085788  0.66531481  1
  Fe  Fe38  1  0.49818582  0.16443583  0.83356297  1
  Cr  Cr39  1  0.49992326  0.49907089  0.49765338  1
  Cr  Cr40  1  0.33129890  0.33131846  0.66608610  1
  Fe  Fe41  1  0.49822925  0.49880485  0.83197897  1
  Fe  Fe42  1  0.49895908  0.83005866  0.49929439  1
  Fe  Fe43  1  0.33287302  0.66536773  0.66631705  1
  Fe  Fe44  1  0.49815791  0.83170190  0.83192500  1
  Fe  Fe45  1  0.83094632  0.16672980  0.49821544  1
  Cr  Cr46  1  0.66328069  0.99698172  0.66446989  1
  Fe  Fe47  1  0.83155162  0.16534950  0.83358272  1
  Fe  Fe48  1  0.83264551  0.49996500  0.49900368  1
  Fe  Fe49  1  0.66610297  0.33186473  0.66590102  1
  Fe  Fe50  1  0.83218206  0.49854524  0.83186235  1
  Fe  Fe51  1  0.82911132  0.82785971  0.49870224  1
  Fe  Fe52  1  0.66629531  0.66318678  0.66671641  1
  Fe  Fe53  1  0.83111756  0.83131840  0.83230638  1
" 