1088,Fe27Cr73_12,-220.465899586024, 148.807063961088,Fe27Cr73,"# generated using pymatgen
 data_Cr7Fe20
_symmetry_space_group_name_H-M   'P 1'
_cell_length_a   7.49116113
_cell_length_b   7.49116113
_cell_length_c   10.59410167
_cell_angle_alpha   90.00000000
_cell_angle_beta   90.00000000
_cell_angle_gamma   90.00000000
_symmetry_Int_Tables_number   1
_chemical_formula_structural   Cr7Fe20
_chemical_formula_sum   'Cr14 Fe40'
_cell_volume   594.51444890
_cell_formula_units_Z   2
loop_
 _symmetry_equiv_pos_site_id
 _symmetry_equiv_pos_as_xyz
  1  'x, y, z'
loop_
 _atom_site_type_symbol
 _atom_site_label
 _atom_site_symmetry_multiplicity
 _atom_site_fract_x
 _atom_site_fract_y
 _atom_site_fract_z
 _atom_site_occupancy
  Fe  Fe0  1  0.99807366  -0.00160306  -0.00159870  1
  Cr  Cr1  1  0.16465295  0.16363522  0.16329650  1
  Fe  Fe2  1  0.99677470  0.99675184  0.33116358  1
  Fe  Fe3  1  -0.00124017  0.33135007  0.99784180  1
  Cr  Cr4  1  0.16662318  0.49948938  0.16552185  1
  Cr  Cr5  1  0.99634800  0.33287005  0.33259607  1
  Cr  Cr6  1  0.99825387  0.66517178  -0.00146322  1
  Fe  Fe7  1  0.16451237  0.83227308  0.16578598  1
  Fe  Fe8  1  0.99731084  0.66614254  0.33155182  1
  Fe  Fe9  1  0.33188929  0.99822620  0.99714182  1
  Fe  Fe10  1  0.49877178  0.16577857  0.16578728  1
  Fe  Fe11  1  0.33210715  0.99800164  0.33132660  1
  Fe  Fe12  1  0.33171693  0.33203574  0.99728740  1
  Fe  Fe13  1  0.49822957  0.49713400  0.16633191  1
  Fe  Fe14  1  0.33336762  0.33226448  0.33118261  1
  Fe  Fe15  1  0.33188650  0.66490843  0.99730749  1
  Cr  Cr16  1  0.49823124  0.83121696  0.16620319  1
  Fe  Fe17  1  0.33155730  0.66490350  0.33172600  1
  Fe  Fe18  1  0.66520858  0.99823231  -0.00160077  1
  Fe  Fe19  1  0.83063458  0.16396099  0.16488967  1
  Fe  Fe20  1  0.66629021  -0.00143445  0.33172321  1
  Cr  Cr21  1  0.66494663  0.33185521  0.00082099  1
  Fe  Fe22  1  0.83061971  0.49838669  0.16614356  1
  Fe  Fe23  1  0.66504217  0.33173290  0.33044068  1
  Cr  Cr24  1  0.66519978  0.66491363  0.99808047  1
  Fe  Fe25  1  0.83315186  0.83282506  0.16614527  1
  Fe  Fe26  1  0.66630453  0.66487286  0.33154027  1
  Cr  Cr27  1  0.16401073  0.16557961  0.49833238  1
  Fe  Fe28  1  0.99675658  0.99676442  0.66559435  1
  Fe  Fe29  1  0.16613799  0.16507682  0.83282434  1
  Fe  Fe30  1  0.16525512  0.49932273  0.49822317  1
  Cr  Cr31  1  -0.00152320  0.33345436  0.66450818  1
  Fe  Fe32  1  0.16599879  0.49820830  0.83188201  1
  Cr  Cr33  1  0.16375444  0.83002515  0.49595365  1
  Fe  Fe34  1  0.99801000  0.66575083  0.66575678  1
  Fe  Fe35  1  0.16488002  0.83188923  0.83158382  1
  Cr  Cr36  1  0.50034649  0.16548136  0.49760155  1
  Cr  Cr37  1  0.33312982  0.99790466  0.66637866  1
  Fe  Fe38  1  0.49730485  0.16508201  0.83156374  1
  Cr  Cr39  1  0.49797327  0.49928388  0.49792125  1
  Fe  Fe40  1  0.33226770  0.33335939  0.66669282  1
  Fe  Fe41  1  0.49745032  0.49821233  0.83047118  1
  Fe  Fe42  1  0.49984538  0.83133397  0.49767221  1
  Fe  Fe43  1  0.33155125  0.66379346  0.66613413  1
  Fe  Fe44  1  0.49856464  0.83187925  0.83188384  1
  Fe  Fe45  1  0.83063339  0.16395439  0.49856473  1
  Fe  Fe46  1  0.66631061  0.99747285  0.66504867  1
  Cr  Cr47  1  0.83218745  0.16324598  0.83172610  1
  Fe  Fe48  1  0.83188660  0.49930455  0.49839413  1
  Fe  Fe49  1  0.66435582  0.33210356  0.66575774  1
  Fe  Fe50  1  0.83172288  0.49946446  0.83064198  1
  Fe  Fe51  1  0.83047860  0.83191774  0.49840046  1
  Fe  Fe52  1  0.66560623  0.66559442  0.66577761  1
  Fe  Fe53  1  0.83172828  0.83173354  0.83062609  1
" 