7360,Fe27Cr73_2,-220.836200791645, 142.698582348495,Fe27Cr73,"# generated using pymatgen
 data_Cr7Fe20
_symmetry_space_group_name_H-M   'P 1'
_cell_length_a   7.49326002
_cell_length_b   7.49326002
_cell_length_c   10.59706995
_cell_angle_alpha   90.00000000
_cell_angle_beta   90.00000000
_cell_angle_gamma   90.00000000
_symmetry_Int_Tables_number   1
_chemical_formula_structural   Cr7Fe20
_chemical_formula_sum   'Cr14 Fe40'
_cell_volume   595.01430584
_cell_formula_units_Z   2
loop_
 _symmetry_equiv_pos_site_id
 _symmetry_equiv_pos_as_xyz
  1  'x, y, z'
loop_
 _atom_site_type_symbol
 _atom_site_label
 _atom_site_symmetry_multiplicity
 _atom_site_fract_x
 _atom_site_fract_y
 _atom_site_fract_z
 _atom_site_occupancy
  Fe  Fe0  1  0.99672024  0.99557903  0.99821716  1
  Cr  Cr1  1  0.16449501  0.16642284  0.16548936  1
  Fe  Fe2  1  -0.00155444  0.99574069  0.33348507  1
  Cr  Cr3  1  -0.00159382  0.33214635  0.99484283  1
  Fe  Fe4  1  0.16691406  0.50089185  0.16529732  1
  Cr  Cr5  1  -0.00109315  0.33297638  0.33777207  1
  Fe  Fe6  1  -0.00106398  0.66894727  -0.00174023  1
  Fe  Fe7  1  0.16228486  0.82977468  0.16620192  1
  Fe  Fe8  1  -0.00093790  0.66733996  0.33333233  1
  Cr  Cr9  1  0.32977144  0.99663679  0.99792303  1
  Fe  Fe10  1  0.49817608  0.16644516  0.16617178  1
  Fe  Fe11  1  0.32878392  0.99678574  0.33186355  1
  Fe  Fe12  1  0.33281495  0.33380575  -0.00126358  1
  Fe  Fe13  1  0.49796180  0.49719198  0.16579654  1
  Fe  Fe14  1  0.33229861  0.33372941  0.33252194  1
  Fe  Fe15  1  0.33190829  0.66419036  -0.00114914  1
  Cr  Cr16  1  0.49838249  0.83101943  0.16835740  1
  Fe  Fe17  1  0.32982555  0.66367042  0.33304176  1
  Fe  Fe18  1  0.66678602  0.99497849  -0.00105482  1
  Cr  Cr19  1  0.82967479  0.16387738  0.16670046  1
  Fe  Fe20  1  0.66728711  0.99606615  0.33298273  1
  Fe  Fe21  1  0.66334971  0.33319763  -0.00117830  1
  Cr  Cr22  1  0.83410614  0.50008695  0.16472330  1
  Fe  Fe23  1  0.66379265  0.33371750  0.33302178  1
  Fe  Fe24  1  0.66446645  0.66591917  0.99794177  1
  Fe  Fe25  1  0.83309963  0.83135903  0.16580616  1
  Fe  Fe26  1  0.66606208  0.66419617  0.33338676  1
  Fe  Fe27  1  0.16476671  0.16242661  0.49857073  1
  Fe  Fe28  1  -0.00096814  0.99726684  0.66315967  1
  Fe  Fe29  1  0.16469676  0.16240380  0.83034735  1
  Fe  Fe30  1  0.16615032  0.50062251  0.49985933  1
  Fe  Fe31  1  -0.00150544  0.33247112  0.66241825  1
  Cr  Cr32  1  0.16379269  0.50080552  0.83113950  1
  Fe  Fe33  1  0.16532327  0.83164243  0.49834849  1
  Fe  Fe34  1  0.99683071  0.66532116  0.66318852  1
  Fe  Fe35  1  0.16239592  0.83298915  0.82935316  1
  Cr  Cr36  1  0.49858621  0.16151420  0.49515091  1
  Fe  Fe37  1  0.32969555  0.99657419  0.66331933  1
  Cr  Cr38  1  0.49925225  0.16257362  0.83430673  1
  Fe  Fe39  1  0.49757972  0.49968659  0.49715072  1
  Cr  Cr40  1  0.33162057  0.33005593  0.66603736  1
  Fe  Fe41  1  0.49920662  0.49889631  0.83262433  1
  Fe  Fe42  1  0.49791204  0.82876653  0.49787534  1
  Fe  Fe43  1  0.33095006  0.66461437  0.66211703  1
  Cr  Cr44  1  0.49801149  0.82957935  0.82565564  1
  Fe  Fe45  1  0.83255453  0.16256880  0.49907287  1
  Fe  Fe46  1  0.66652115  0.99712210  0.66243413  1
  Cr  Cr47  1  0.83226081  0.16440749  0.83010049  1
  Fe  Fe48  1  0.83100659  0.50156377  0.49817829  1
  Cr  Cr49  1  0.66615139  0.33483451  0.66407760  1
  Fe  Fe50  1  0.82905886  0.50242838  0.83166374  1
  Fe  Fe51  1  0.83154078  0.83184058  0.49827068  1
  Fe  Fe52  1  0.66638436  0.66593651  0.66220017  1
  Fe  Fe53  1  0.83305607  0.82994550  0.83043912  1
" 