1800,Fe27Cr73_18,-220.528655839974, 150.538549589111,Fe27Cr73,"# generated using pymatgen
 data_Cr7Fe20
_symmetry_space_group_name_H-M   'P 1'
_cell_length_a   7.48359600
_cell_length_b   7.48359600
_cell_length_c   10.58340296
_cell_angle_alpha   90.00000000
_cell_angle_beta   90.00000000
_cell_angle_gamma   90.00000000
_symmetry_Int_Tables_number   1
_chemical_formula_structural   Cr7Fe20
_chemical_formula_sum   'Cr14 Fe40'
_cell_volume   592.71511237
_cell_formula_units_Z   2
loop_
 _symmetry_equiv_pos_site_id
 _symmetry_equiv_pos_as_xyz
  1  'x, y, z'
loop_
 _atom_site_type_symbol
 _atom_site_label
 _atom_site_symmetry_multiplicity
 _atom_site_fract_x
 _atom_site_fract_y
 _atom_site_fract_z
 _atom_site_occupancy
  Fe  Fe0  1  0.00009938  0.99580269  0.00068392  1
  Cr  Cr1  1  0.16476679  0.16523930  0.16701552  1
  Fe  Fe2  1  0.99742555  -0.00050926  0.32948663  1
  Fe  Fe3  1  -0.00079697  0.33444375  0.00083439  1
  Fe  Fe4  1  0.16587400  0.49819042  0.16570528  1
  Fe  Fe5  1  0.99800617  0.33259281  0.33110615  1
  Fe  Fe6  1  0.99573879  0.66544287  0.00140145  1
  Fe  Fe7  1  0.16587580  0.83334279  0.16687550  1
  Cr  Cr8  1  0.99827950  0.66454838  0.32827880  1
  Fe  Fe9  1  0.33334367  0.00040234  -0.00050377  1
  Fe  Fe10  1  0.50037438  0.16588698  0.16563619  1
  Fe  Fe11  1  0.33441107  0.99804670  0.33156223  1
  Fe  Fe12  1  0.33283430  0.33226126  0.00113387  1
  Fe  Fe13  1  0.49958073  0.49804475  0.16531247  1
  Cr  Cr14  1  0.33451108  0.33297806  0.33598179  1
  Cr  Cr15  1  0.32790419  0.66832752  0.00175851  1
  Fe  Fe16  1  0.49908053  0.83352520  0.16645335  1
  Fe  Fe17  1  0.33435465  0.66582411  0.33034449  1
  Fe  Fe18  1  0.66447149  0.99730578  0.00096905  1
  Fe  Fe19  1  0.83042818  0.16560298  0.16497448  1
  Fe  Fe20  1  0.66476274  0.99874486  0.32979115  1
  Fe  Fe21  1  0.66563642  0.33214082  0.00065467  1
  Fe  Fe22  1  0.83079846  0.49708377  0.16437870  1
  Fe  Fe23  1  0.66760666  0.33363939  0.33145616  1
  Fe  Fe24  1  0.66564468  0.66578912  0.00108737  1
  Fe  Fe25  1  0.83076347  0.83377850  0.16483787  1
  Fe  Fe26  1  0.66382991  0.66451199  0.33006598  1
  Fe  Fe27  1  0.16671030  0.16635606  0.49868213  1
  Fe  Fe28  1  0.00032848  -0.00099346  0.66533290  1
  Cr  Cr29  1  0.16810133  0.16882962  0.83204518  1
  Fe  Fe30  1  0.16290075  0.49837698  0.49809560  1
  Fe  Fe31  1  0.00165580  0.33372156  0.66469225  1
  Fe  Fe32  1  0.16180032  0.50077855  0.83320866  1
  Cr  Cr33  1  0.16452135  0.83433442  0.49525412  1
  Fe  Fe34  1  0.99707440  0.66251246  0.66484243  1
  Fe  Fe35  1  0.16367571  0.83249377  0.83312703  1
  Fe  Fe36  1  0.50105370  0.16274578  0.49760269  1
  Cr  Cr37  1  0.33529317  0.00021204  0.66672994  1
  Fe  Fe38  1  0.50095757  0.16495195  0.83502805  1
  Fe  Fe39  1  0.50163646  0.50129454  0.49853183  1
  Fe  Fe40  1  0.33299701  0.33373332  0.66270806  1
  Cr  Cr41  1  0.49695454  0.49892708  0.83415384  1
  Fe  Fe42  1  0.49933856  0.83243582  0.49623853  1
  Cr  Cr43  1  0.32909132  0.66722711  0.66411548  1
  Fe  Fe44  1  0.49846363  0.83396959  0.83434134  1
  Cr  Cr45  1  0.83606557  0.16392183  0.49632405  1
  Fe  Fe46  1  0.66472535  0.99737663  0.66556058  1
  Cr  Cr47  1  0.83472780  0.16283493  0.83484652  1
  Fe  Fe48  1  0.83239923  0.49872161  0.49781748  1
  Cr  Cr49  1  0.66756726  0.32979033  0.66513371  1
  Fe  Fe50  1  0.83323560  0.49748311  0.83364459  1
  Cr  Cr51  1  0.82924002  0.83136327  0.50020133  1
  Fe  Fe52  1  0.66317681  0.66446739  0.66520899  1
  Cr  Cr53  1  0.83099757  0.82944104  0.82954567  1
" 