1032,Fe27Cr73_0,-220.499825123608, 143.259191254501,Fe27Cr73,"# generated using pymatgen
 data_Cr7Fe20
_symmetry_space_group_name_H-M   'P 1'
_cell_length_a   7.49384206
_cell_length_b   7.49384206
_cell_length_c   10.59789308
_cell_angle_alpha   90.00000000
_cell_angle_beta   90.00000000
_cell_angle_gamma   90.00000000
_symmetry_Int_Tables_number   1
_chemical_formula_structural   Cr7Fe20
_chemical_formula_sum   'Cr14 Fe40'
_cell_volume   595.15297016
_cell_formula_units_Z   2
loop_
 _symmetry_equiv_pos_site_id
 _symmetry_equiv_pos_as_xyz
  1  'x, y, z'
loop_
 _atom_site_type_symbol
 _atom_site_label
 _atom_site_symmetry_multiplicity
 _atom_site_fract_x
 _atom_site_fract_y
 _atom_site_fract_z
 _atom_site_occupancy
  Fe  Fe0  1  0.99798914  0.99726588  0.99698514  1
  Cr  Cr1  1  0.16458699  0.16376709  0.16243895  1
  Fe  Fe2  1  -0.00163963  0.99728547  0.33405803  1
  Fe  Fe3  1  0.99767996  0.33315620  0.99629399  1
  Fe  Fe4  1  0.16279919  0.49880451  0.16308799  1
  Fe  Fe5  1  0.99709212  0.33217289  0.33361698  1
  Fe  Fe6  1  -0.00124621  0.66251734  0.99705209  1
  Cr  Cr7  1  0.16247156  0.83063157  0.16230841  1
  Fe  Fe8  1  -0.00018211  0.66486971  0.33354796  1
  Fe  Fe9  1  0.33223004  0.99594339  0.99790837  1
  Fe  Fe10  1  0.49904483  0.16528545  0.16437487  1
  Cr  Cr11  1  0.33456632  0.99790709  0.33159554  1
  Fe  Fe12  1  0.33095155  0.33369633  0.99801980  1
  Cr  Cr13  1  0.49852388  0.49876014  0.16521195  1
  Cr  Cr14  1  0.32667821  0.33417608  0.32970568  1
  Fe  Fe15  1  0.33235936  0.66474881  0.99647827  1
  Fe  Fe16  1  0.49922021  0.83041681  0.16533715  1
  Fe  Fe17  1  0.33005944  0.66593290  0.33225848  1
  Cr  Cr18  1  0.66408912  0.99741230  0.00082957  1
  Cr  Cr19  1  0.83271924  0.16481472  0.16529652  1
  Fe  Fe20  1  0.66744401  0.99688436  0.33221018  1
  Fe  Fe21  1  0.66554986  0.33344732  0.99686934  1
  Cr  Cr22  1  0.83055511  0.50084316  0.16617800  1
  Fe  Fe23  1  0.66572705  0.33106445  0.33245692  1
  Fe  Fe24  1  0.66390174  0.66370746  0.99684811  1
  Fe  Fe25  1  0.83082472  0.83068606  0.16587204  1
  Fe  Fe26  1  0.66473527  0.66781969  0.33307063  1
  Fe  Fe27  1  0.16260084  0.16519522  0.49972868  1
  Fe  Fe28  1  -0.00117293  0.99680230  0.66290723  1
  Cr  Cr29  1  0.16359778  0.16104305  0.83073276  1
  Fe  Fe30  1  0.16364707  0.49897588  0.49964193  1
  Fe  Fe31  1  0.99695519  0.33194035  0.66439756  1
  Fe  Fe32  1  0.16466051  0.49859244  0.83101971  1
  Fe  Fe33  1  0.16513322  0.83040858  0.49877376  1
  Fe  Fe34  1  -0.00138613  0.66410112  0.66414308  1
  Fe  Fe35  1  0.16750464  0.82883324  0.83174876  1
  Cr  Cr36  1  0.49741789  0.16724032  0.49827919  1
  Fe  Fe37  1  0.33000497  0.99586677  0.66318485  1
  Cr  Cr38  1  0.49636719  0.16839755  0.83151759  1
  Cr  Cr39  1  0.49991360  0.50005766  0.50009958  1
  Fe  Fe40  1  0.32903484  0.33360317  0.66494484  1
  Fe  Fe41  1  0.49806376  0.50108194  0.83073202  1
  Fe  Fe42  1  0.49839478  0.83075332  0.49885844  1
  Fe  Fe43  1  0.33082715  0.66609641  0.66578289  1
  Fe  Fe44  1  0.49665489  0.83076294  0.83119082  1
  Fe  Fe45  1  0.83282891  0.16592327  0.49744302  1
  Cr  Cr46  1  0.66523228  0.99779024  0.66398078  1
  Fe  Fe47  1  0.83184280  0.16595616  0.83194512  1
  Fe  Fe48  1  0.83314079  0.49834192  0.49783941  1
  Fe  Fe49  1  0.66781502  0.33343640  0.66590192  1
  Fe  Fe50  1  0.83193620  0.49567973  0.83154543  1
  Fe  Fe51  1  0.83185044  0.82975942  0.49801492  1
  Fe  Fe52  1  0.66652765  0.66376378  0.66611306  1
  Cr  Cr53  1  0.83533641  0.82904034  0.83308239  1
" 