3971,Fe27Cr73_4,-220.453283132683, 147.647011215774,Fe27Cr73,"# generated using pymatgen
 data_Cr7Fe20
_symmetry_space_group_name_H-M   'P 1'
_cell_length_a   7.48557202
_cell_length_b   7.48557202
_cell_length_c   10.58619747
_cell_angle_alpha   90.00000000
_cell_angle_beta   90.00000000
_cell_angle_gamma   90.00000000
_symmetry_Int_Tables_number   1
_chemical_formula_structural   Cr7Fe20
_chemical_formula_sum   'Cr14 Fe40'
_cell_volume   593.18474898
_cell_formula_units_Z   2
loop_
 _symmetry_equiv_pos_site_id
 _symmetry_equiv_pos_as_xyz
  1  'x, y, z'
loop_
 _atom_site_type_symbol
 _atom_site_label
 _atom_site_symmetry_multiplicity
 _atom_site_fract_x
 _atom_site_fract_y
 _atom_site_fract_z
 _atom_site_occupancy
  Fe  Fe0  1  0.99668601  -0.00015029  0.99814830  1
  Fe  Fe1  1  0.16408494  0.16619148  0.16509962  1
  Fe  Fe2  1  -0.00045007  -0.00123525  0.33107953  1
  Fe  Fe3  1  0.99617901  0.33257123  0.99847990  1
  Fe  Fe4  1  0.16499573  0.49776287  0.16573444  1
  Fe  Fe5  1  0.99869119  0.33316146  0.33103103  1
  Fe  Fe6  1  0.99748496  0.66307467  0.99753037  1
  Cr  Cr7  1  0.16431014  0.83142544  0.16174490  1
  Fe  Fe8  1  0.99842427  0.66487736  0.33137548  1
  Fe  Fe9  1  0.33134596  -0.00060369  0.99761121  1
  Cr  Cr10  1  0.50065508  0.16713166  0.16425626  1
  Fe  Fe11  1  0.33044202  -0.00044551  0.33254124  1
  Cr  Cr12  1  0.33079267  0.33416716  0.99639250  1
  Fe  Fe13  1  0.49817679  0.49896937  0.16544831  1
  Fe  Fe14  1  0.33082039  0.33229748  0.33086222  1
  Fe  Fe15  1  0.33119865  0.66407432  0.99677515  1
  Cr  Cr16  1  0.49587109  0.83057914  0.16470119  1
  Fe  Fe17  1  0.33005547  0.66437483  0.33258191  1
  Fe  Fe18  1  0.66767471  -0.00050535  0.99849380  1
  Fe  Fe19  1  0.83529572  0.16565205  0.16482419  1
  Cr  Cr20  1  0.66709046  0.99672947  0.33237763  1
  Fe  Fe21  1  0.66766501  0.33308219  0.99776967  1
  Fe  Fe22  1  0.83262769  0.49862709  0.16452125  1
  Fe  Fe23  1  0.66767690  0.33322733  0.33031473  1
  Fe  Fe24  1  0.66647216  0.66333987  -0.00091503  1
  Fe  Fe25  1  0.83232765  0.83188645  0.16292834  1
  Cr  Cr26  1  0.66592291  0.66733356  0.33322557  1
  Fe  Fe27  1  0.16626744  0.16673949  0.49834343  1
  Fe  Fe28  1  0.99729403  0.99651801  0.66622592  1
  Cr  Cr29  1  0.16420556  0.16260563  0.83093022  1
  Fe  Fe30  1  0.16469192  0.49654554  0.49709484  1
  Cr  Cr31  1  0.00092226  0.33363954  0.66603443  1
  Fe  Fe32  1  0.16346847  0.50123060  0.83303213  1
  Cr  Cr33  1  0.16368164  0.83204914  0.49927283  1
  Fe  Fe34  1  0.99660169  0.66600111  0.66692360  1
  Fe  Fe35  1  0.16243083  0.83046699  0.83352335  1
  Cr  Cr36  1  0.49851307  0.16632365  0.50206026  1
  Fe  Fe37  1  0.33121467  -0.00065585  0.66607928  1
  Fe  Fe38  1  0.50110551  0.16593240  0.83131733  1
  Cr  Cr39  1  0.50135050  0.49743293  0.49838978  1
  Fe  Fe40  1  0.33325156  0.33174261  0.66776209  1
  Fe  Fe41  1  0.50127243  0.49752138  0.83185133  1
  Fe  Fe42  1  0.49912537  0.83288106  0.50077823  1
  Cr  Cr43  1  0.33139497  0.66285039  0.66700358  1
  Cr  Cr44  1  0.49795880  0.83229913  0.83327398  1
  Cr  Cr45  1  0.83302228  0.16786776  0.49932093  1
  Fe  Fe46  1  0.66694402  0.99747393  0.66660560  1
  Fe  Fe47  1  0.82961970  0.16454688  0.83215145  1
  Fe  Fe48  1  0.83504241  0.50099818  0.49904921  1
  Fe  Fe49  1  0.66608957  0.33395279  0.66850701  1
  Fe  Fe50  1  0.83158867  0.49982438  0.83301607  1
  Fe  Fe51  1  0.83155587  0.83140676  0.50097968  1
  Fe  Fe52  1  0.66862744  0.66513173  0.66582759  1
  Fe  Fe53  1  0.83342539  0.83226107  0.83289570  1
" 