6616,Fe27Cr73_14,-220.514269425536, 144.812378485616,Fe27Cr73,"# generated using pymatgen
 data_Cr7Fe20
_symmetry_space_group_name_H-M   'P 1'
_cell_length_a   7.49173383
_cell_length_b   7.49173383
_cell_length_c   10.59491159
_cell_angle_alpha   90.00000000
_cell_angle_beta   90.00000000
_cell_angle_gamma   90.00000000
_symmetry_Int_Tables_number   1
_chemical_formula_structural   Cr7Fe20
_chemical_formula_sum   'Cr14 Fe40'
_cell_volume   594.65081059
_cell_formula_units_Z   2
loop_
 _symmetry_equiv_pos_site_id
 _symmetry_equiv_pos_as_xyz
  1  'x, y, z'
loop_
 _atom_site_type_symbol
 _atom_site_label
 _atom_site_symmetry_multiplicity
 _atom_site_fract_x
 _atom_site_fract_y
 _atom_site_fract_z
 _atom_site_occupancy
  Fe  Fe0  1  0.99789543  -0.00159812  -0.00134100  1
  Fe  Fe1  1  0.16467799  0.16229631  0.16453933  1
  Fe  Fe2  1  -0.00136154  0.99693509  0.33158079  1
  Fe  Fe3  1  -0.00144100  0.33079620  -0.00026741  1
  Fe  Fe4  1  0.16450384  0.50101546  0.16483673  1
  Cr  Cr5  1  -0.00163376  0.33085301  0.33180682  1
  Fe  Fe6  1  0.00066188  0.66571085  -0.00095050  1
  Fe  Fe7  1  0.16295849  0.83169201  0.16507926  1
  Fe  Fe8  1  -0.00139128  0.66651405  0.33200752  1
  Fe  Fe9  1  0.33023014  0.99685647  0.99832737  1
  Fe  Fe10  1  0.49847042  0.16405708  0.16601048  1
  Fe  Fe11  1  0.32945981  -0.00147850  0.33170228  1
  Cr  Cr12  1  0.33083739  0.33216960  -0.00139615  1
  Fe  Fe13  1  0.49838509  0.49965617  0.16661917  1
  Cr  Cr14  1  0.33355048  0.33070447  0.33278098  1
  Fe  Fe15  1  0.32962862  0.66625119  0.99731765  1
  Cr  Cr16  1  0.49654840  0.83335204  0.16496004  1
  Fe  Fe17  1  0.32976419  0.66525857  0.33194599  1
  Fe  Fe18  1  0.66669860  -0.00153602  -0.00129278  1
  Fe  Fe19  1  0.83206641  0.16235690  0.16558378  1
  Fe  Fe20  1  0.66656721  0.00042023  0.33153472  1
  Cr  Cr21  1  0.66471651  0.33035675  0.00193767  1
  Fe  Fe22  1  0.83241747  0.50031090  0.16546238  1
  Fe  Fe23  1  0.66569401  0.33140737  0.33150176  1
  Cr  Cr24  1  0.66503637  0.66770356  0.99616989  1
  Fe  Fe25  1  0.83359458  0.83229413  0.16574988  1
  Fe  Fe26  1  0.66631140  0.66353114  0.33119098  1
  Fe  Fe27  1  0.16525662  0.16080010  0.49788874  1
  Fe  Fe28  1  -0.00127663  -0.00143717  0.66484677  1
  Fe  Fe29  1  0.16260865  0.16263275  0.83289283  1
  Fe  Fe30  1  0.16518456  0.50083689  0.49705555  1
  Cr  Cr31  1  -0.00014482  0.32942195  0.66464330  1
  Fe  Fe32  1  0.16535397  0.49914811  0.83348040  1
  Fe  Fe33  1  0.16404013  0.83337201  0.49661863  1
  Cr  Cr34  1  0.99791565  0.66873213  0.66303007  1
  Fe  Fe35  1  0.16459043  0.83365761  0.83349027  1
  Fe  Fe36  1  0.49929101  0.16340865  0.49754636  1
  Fe  Fe37  1  0.32877460  0.99824057  0.66488290  1
  Cr  Cr38  1  0.49814912  0.16120474  0.83112126  1
  Fe  Fe39  1  0.49990604  0.49979576  0.49658415  1
  Cr  Cr40  1  0.33107425  0.33147889  0.66343650  1
  Fe  Fe41  1  0.49817901  0.49901857  0.83217369  1
  Cr  Cr42  1  0.49775309  0.83286404  0.49901736  1
  Cr  Cr43  1  0.33184492  0.66511930  0.66754335  1
  Fe  Fe44  1  0.49850372  0.83164511  0.83156879  1
  Fe  Fe45  1  0.83075730  0.16172320  0.49735323  1
  Fe  Fe46  1  0.66745378  0.99631005  0.66493056  1
  Fe  Fe47  1  0.83318634  0.16167055  0.83261210  1
  Fe  Fe48  1  0.83016107  0.50029237  0.49699799  1
  Cr  Cr49  1  0.66423994  0.33132392  0.66251709  1
  Cr  Cr50  1  0.83419481  0.49705013  0.83162663  1
  Fe  Fe51  1  0.83189180  0.83309539  0.49676104  1
  Fe  Fe52  1  0.66537601  0.66619331  0.66559501  1
  Fe  Fe53  1  0.83191901  0.83554574  0.83141935  1
" 