7982,Fe28Cr72_17,-220.474976712994, 146.569815275888,Fe28Cr72,"# generated using pymatgen
 data_Cr5Fe13
_symmetry_space_group_name_H-M   'P 1'
_cell_length_a   7.49879752
_cell_length_b   7.49879752
_cell_length_c   10.60490115
_cell_angle_alpha   90.00000000
_cell_angle_beta   90.00000000
_cell_angle_gamma   90.00000000
_symmetry_Int_Tables_number   1
_chemical_formula_structural   Cr5Fe13
_chemical_formula_sum   'Cr15 Fe39'
_cell_volume   596.33442229
_cell_formula_units_Z   3
loop_
 _symmetry_equiv_pos_site_id
 _symmetry_equiv_pos_as_xyz
  1  'x, y, z'
loop_
 _atom_site_type_symbol
 _atom_site_label
 _atom_site_symmetry_multiplicity
 _atom_site_fract_x
 _atom_site_fract_y
 _atom_site_fract_z
 _atom_site_occupancy
  Fe  Fe0  1  -0.00008814  0.99505291  -0.00169351  1
  Cr  Cr1  1  0.16362972  0.16600019  0.16094326  1
  Fe  Fe2  1  0.99694209  -0.00193788  0.33153855  1
  Fe  Fe3  1  0.99646670  0.33341336  -0.00168464  1
  Fe  Fe4  1  0.16096785  0.49848305  0.16296573  1
  Fe  Fe5  1  -0.00148824  0.33197917  0.33233164  1
  Fe  Fe6  1  0.99596828  0.66474792  -0.00071233  1
  Fe  Fe7  1  0.16084321  0.83150874  0.16393646  1
  Fe  Fe8  1  0.99580410  0.66395473  0.33107539  1
  Fe  Fe9  1  0.33037257  0.99752243  -0.00208725  1
  Fe  Fe10  1  0.49844020  0.16573793  0.16357331  1
  Cr  Cr11  1  0.33291934  0.99707034  0.33006355  1
  Fe  Fe12  1  0.33310381  0.33169915  -0.00125585  1
  Fe  Fe13  1  0.49966653  0.49701153  0.16397166  1
  Cr  Cr14  1  0.32967300  0.33292621  0.33165859  1
  Cr  Cr15  1  0.33105185  0.66634571  -0.00036320  1
  Fe  Fe16  1  0.49956872  0.83076993  0.16536595  1
  Cr  Cr17  1  0.32747155  0.66407583  0.32852701  1
  Cr  Cr18  1  0.66406940  0.99761582  0.00160687  1
  Fe  Fe19  1  0.83232735  0.16490275  0.16423485  1
  Fe  Fe20  1  0.66725899  0.99612664  0.33010026  1
  Fe  Fe21  1  0.66405376  0.33454270  -0.00018951  1
  Fe  Fe22  1  0.83256488  0.49804920  0.16418912  1
  Cr  Cr23  1  0.66682572  0.32814569  0.33202733  1
  Fe  Fe24  1  0.66538922  0.66272801  -0.00107402  1
  Fe  Fe25  1  0.83314009  0.83028150  0.16556018  1
  Fe  Fe26  1  0.66587361  0.66448772  0.32962759  1
  Fe  Fe27  1  0.16462454  0.16314161  0.49784773  1
  Fe  Fe28  1  0.00028262  0.99686529  0.66322768  1
  Fe  Fe29  1  0.16410982  0.16239441  0.83246601  1
  Fe  Fe30  1  0.16253781  0.50012266  0.49890857  1
  Cr  Cr31  1  0.99601393  0.33131109  0.66265067  1
  Cr  Cr32  1  0.16482090  0.49699928  0.83192964  1
  Fe  Fe33  1  0.16273093  0.83066608  0.49869321  1
  Fe  Fe34  1  -0.00197270  0.66596750  0.66320337  1
  Fe  Fe35  1  0.16556242  0.83367001  0.83064217  1
  Fe  Fe36  1  0.49699218  0.16463664  0.49917651  1
  Fe  Fe37  1  0.32788225  -0.00202085  0.66377737  1
  Cr  Cr38  1  0.49553817  0.16646858  0.83074598  1
  Cr  Cr39  1  0.49717318  0.49818234  0.50104099  1
  Fe  Fe40  1  0.33038960  0.32984731  0.66360587  1
  Fe  Fe41  1  0.50047146  0.49967043  0.83019317  1
  Cr  Cr42  1  0.49967093  0.82985366  0.49772463  1
  Fe  Fe43  1  0.32962662  0.66599317  0.66595857  1
  Fe  Fe44  1  0.49680236  0.83025419  0.82998175  1
  Fe  Fe45  1  0.83223015  0.16312003  0.49680776  1
  Cr  Cr46  1  0.66544102  -0.00113093  0.66177414  1
  Cr  Cr47  1  0.83301546  0.16454679  0.83425941  1
  Fe  Fe48  1  0.83175161  0.50072652  0.49722950  1
  Fe  Fe49  1  0.66493021  0.33257550  0.66432036  1
  Fe  Fe50  1  0.82928500  0.49752507  0.83200307  1
  Fe  Fe51  1  0.83391183  0.82957974  0.49695984  1
  Fe  Fe52  1  0.66665421  0.66236777  0.66557028  1
  Cr  Cr53  1  0.83238934  0.82910685  0.83074674  1
" 