1009,Fe28Cr72_6,-220.328672095442, 142.873554010667,Fe28Cr72,"# generated using pymatgen
 data_Cr5Fe13
_symmetry_space_group_name_H-M   'P 1'
_cell_length_a   7.49795269
_cell_length_b   7.49795269
_cell_length_c   10.60370639
_cell_angle_alpha   90.00000000
_cell_angle_beta   90.00000000
_cell_angle_gamma   90.00000000
_symmetry_Int_Tables_number   1
_chemical_formula_structural   Cr5Fe13
_chemical_formula_sum   'Cr15 Fe39'
_cell_volume   596.13289314
_cell_formula_units_Z   3
loop_
 _symmetry_equiv_pos_site_id
 _symmetry_equiv_pos_as_xyz
  1  'x, y, z'
loop_
 _atom_site_type_symbol
 _atom_site_label
 _atom_site_symmetry_multiplicity
 _atom_site_fract_x
 _atom_site_fract_y
 _atom_site_fract_z
 _atom_site_occupancy
  Fe  Fe0  1  -0.00089573  -0.00117145  0.99732262  1
  Fe  Fe1  1  0.16599440  0.16726865  0.16471964  1
  Cr  Cr2  1  -0.00074555  0.99730973  0.33255520  1
  Fe  Fe3  1  -0.00079655  0.33177262  0.99672622  1
  Fe  Fe4  1  0.16523721  0.49523148  0.16406665  1
  Fe  Fe5  1  -0.00079969  0.33029517  0.32980091  1
  Fe  Fe6  1  -0.00185821  0.66318810  0.99763852  1
  Cr  Cr7  1  0.16595907  0.82931868  0.16376495  1
  Cr  Cr8  1  0.99735468  0.66394374  0.33098137  1
  Cr  Cr9  1  0.33077098  -0.00065750  0.99762193  1
  Fe  Fe10  1  0.49407461  0.16630182  0.16431784  1
  Fe  Fe11  1  0.33211746  -0.00151353  0.33169036  1
  Fe  Fe12  1  0.33087793  0.33332301  -0.00172649  1
  Fe  Fe13  1  0.49596144  0.49826495  0.16288924  1
  Fe  Fe14  1  0.33041461  0.33004747  0.33011051  1
  Fe  Fe15  1  0.33242625  0.66257766  0.99690382  1
  Fe  Fe16  1  0.49746472  0.82932371  0.16434775  1
  Fe  Fe17  1  0.33359361  0.66518699  0.33096929  1
  Cr  Cr18  1  0.66308095  0.99773572  0.00039553  1
  Cr  Cr19  1  0.83169330  0.16560154  0.16243976  1
  Cr  Cr20  1  0.66215764  0.99729064  0.33058383  1
  Fe  Fe21  1  0.66386604  0.33421139  -0.00204549  1
  Fe  Fe22  1  0.83230089  0.49891995  0.16230324  1
  Cr  Cr23  1  0.66143655  0.33158584  0.33038142  1
  Fe  Fe24  1  0.66342170  0.66246851  -0.00117821  1
  Fe  Fe25  1  0.83145469  0.82911312  0.16230150  1
  Cr  Cr26  1  0.66505880  0.66495375  0.33107554  1
  Fe  Fe27  1  0.16689118  0.16445814  0.49897355  1
  Fe  Fe28  1  0.00015012  -0.00102184  0.66491090  1
  Fe  Fe29  1  0.16258502  0.16501676  0.83055131  1
  Cr  Cr30  1  0.16730711  0.49783945  0.49510598  1
  Fe  Fe31  1  -0.00032588  0.33010790  0.66686411  1
  Fe  Fe32  1  0.16550828  0.49727169  0.83176474  1
  Fe  Fe33  1  0.16695191  0.83321457  0.49862428  1
  Cr  Cr34  1  -0.00091958  0.66451745  0.66408089  1
  Fe  Fe35  1  0.16648645  0.83136669  0.83154197  1
  Fe  Fe36  1  0.49481634  0.16529467  0.49995388  1
  Fe  Fe37  1  0.33011568  0.99695375  0.66440165  1
  Cr  Cr38  1  0.49951834  0.16583261  0.83034624  1
  Fe  Fe39  1  0.49702174  0.49774417  0.49960479  1
  Fe  Fe40  1  0.33058922  0.33192474  0.66468619  1
  Fe  Fe41  1  0.49819588  0.49986851  0.83125375  1
  Fe  Fe42  1  0.49640821  0.83079909  0.49967472  1
  Fe  Fe43  1  0.33308608  0.66499921  0.66527911  1
  Fe  Fe44  1  0.49675437  0.82904578  0.83019939  1
  Cr  Cr45  1  0.83073553  0.16445229  0.50161246  1
  Fe  Fe46  1  0.66362216  0.99632073  0.66431188  1
  Fe  Fe47  1  0.83311593  0.16662026  0.83079951  1
  Cr  Cr48  1  0.83087550  0.49626217  0.49855201  1
  Fe  Fe49  1  0.66371573  0.33293220  0.66546462  1
  Fe  Fe50  1  0.83017463  0.49586409  0.83160906  1
  Fe  Fe51  1  0.83039086  0.83173693  0.50038903  1
  Fe  Fe52  1  0.66192966  0.66465824  0.66464579  1
  Cr  Cr53  1  0.83138904  0.83273935  0.83255205  1
" 