3267,Fe28Cr72_7,-220.275861028884, 148.995668317114,Fe28Cr72,"# generated using pymatgen
 data_Cr5Fe13
_symmetry_space_group_name_H-M   'P 1'
_cell_length_a   7.49039285
_cell_length_b   7.49039285
_cell_length_c   10.59301516
_cell_angle_alpha   90.00000000
_cell_angle_beta   90.00000000
_cell_angle_gamma   90.00000000
_symmetry_Int_Tables_number   1
_chemical_formula_structural   Cr5Fe13
_chemical_formula_sum   'Cr15 Fe39'
_cell_volume   594.33155033
_cell_formula_units_Z   3
loop_
 _symmetry_equiv_pos_site_id
 _symmetry_equiv_pos_as_xyz
  1  'x, y, z'
loop_
 _atom_site_type_symbol
 _atom_site_label
 _atom_site_symmetry_multiplicity
 _atom_site_fract_x
 _atom_site_fract_y
 _atom_site_fract_z
 _atom_site_occupancy
  Cr  Cr0  1  0.00040183  0.00025779  -0.00086410  1
  Fe  Fe1  1  0.16926232  0.16573015  0.16441542  1
  Fe  Fe2  1  -0.00064099  0.99810028  0.33268113  1
  Fe  Fe3  1  0.00041646  0.33301721  0.00064048  1
  Fe  Fe4  1  0.16480403  0.49833151  0.16342807  1
  Cr  Cr5  1  0.00004101  0.32980811  0.32846856  1
  Fe  Fe6  1  0.00022623  0.66329628  0.99832381  1
  Cr  Cr7  1  0.16788957  0.83005496  0.16617219  1
  Cr  Cr8  1  0.99756589  0.66384043  0.33546005  1
  Fe  Fe9  1  0.33568046  -0.00080444  0.99792041  1
  Fe  Fe10  1  0.49694397  0.16175739  0.16698663  1
  Fe  Fe11  1  0.33172799  -0.00126586  0.33249816  1
  Fe  Fe12  1  0.32979125  0.33130994  -0.00118195  1
  Cr  Cr13  1  0.49571905  0.49961211  0.16698553  1
  Fe  Fe14  1  0.33181711  0.33223866  0.33223634  1
  Fe  Fe15  1  0.33244579  0.66494106  0.99658457  1
  Fe  Fe16  1  0.49787462  0.83377030  0.16464557  1
  Fe  Fe17  1  0.33029568  0.66447204  0.33470584  1
  Fe  Fe18  1  0.66203454  0.99791042  0.99763112  1
  Fe  Fe19  1  0.82991897  0.16504630  0.16558396  1
  Fe  Fe20  1  0.66455099  -0.00076136  0.33115015  1
  Cr  Cr21  1  0.66276470  0.33176171  0.00018261  1
  Fe  Fe22  1  0.83306480  0.49919733  0.16332531  1
  Fe  Fe23  1  0.66501446  0.33096344  0.33037561  1
  Fe  Fe24  1  0.66289426  0.66751043  0.99727374  1
  Cr  Cr25  1  0.83131263  0.83189215  0.16387987  1
  Cr  Cr26  1  0.66268000  0.66446567  0.33331382  1
  Fe  Fe27  1  0.16713643  0.16590111  0.49844943  1
  Cr  Cr28  1  0.00107241  0.99639411  0.66228717  1
  Cr  Cr29  1  0.16698566  0.16623140  0.82957909  1
  Fe  Fe30  1  0.16727633  0.49648549  0.49981891  1
  Fe  Fe31  1  0.00049815  0.33527198  0.66310063  1
  Fe  Fe32  1  0.16707709  0.50000816  0.83168468  1
  Fe  Fe33  1  0.16869951  0.83251919  0.49764758  1
  Fe  Fe34  1  0.00080116  0.66425343  0.66304879  1
  Fe  Fe35  1  0.16576760  0.82883816  0.83230789  1
  Cr  Cr36  1  0.49848938  0.16654675  0.49981193  1
  Fe  Fe37  1  0.33458253  0.99534579  0.66538744  1
  Fe  Fe38  1  0.49775845  0.16516109  0.83014748  1
  Fe  Fe39  1  0.49606014  0.49805749  0.49824546  1
  Fe  Fe40  1  0.33217648  0.33473007  0.66508128  1
  Fe  Fe41  1  0.49522838  0.49757972  0.83213783  1
  Fe  Fe42  1  0.49628720  0.83288732  0.49829253  1
  Fe  Fe43  1  0.32940213  0.66588284  0.66500999  1
  Fe  Fe44  1  0.49751414  0.83267091  0.83241597  1
  Cr  Cr45  1  0.83071508  0.16567719  0.49939178  1
  Fe  Fe46  1  0.66260398  0.99633852  0.66586514  1
  Cr  Cr47  1  0.83029507  0.16509396  0.82904184  1
  Fe  Fe48  1  0.83137244  0.49658823  0.50025521  1
  Fe  Fe49  1  0.66265893  0.33288882  0.66604441  1
  Cr  Cr50  1  0.83372087  0.49912578  0.83252424  1
  Fe  Fe51  1  0.83005027  0.83257868  0.49833746  1
  Cr  Cr52  1  0.66309165  0.66468970  0.66444383  1
  Fe  Fe53  1  0.83203022  0.83164944  0.83266847  1
" 