7969,Fe28Cr72_16,-220.303762273328, 148.998364798055,Fe28Cr72,"# generated using pymatgen
 data_Cr5Fe13
_symmetry_space_group_name_H-M   'P 1'
_cell_length_a   7.48957888
_cell_length_b   7.48957888
_cell_length_c   10.59186403
_cell_angle_alpha   90.00000000
_cell_angle_beta   90.00000000
_cell_angle_gamma   90.00000000
_symmetry_Int_Tables_number   1
_chemical_formula_structural   Cr5Fe13
_chemical_formula_sum   'Cr15 Fe39'
_cell_volume   594.13781595
_cell_formula_units_Z   3
loop_
 _symmetry_equiv_pos_site_id
 _symmetry_equiv_pos_as_xyz
  1  'x, y, z'
loop_
 _atom_site_type_symbol
 _atom_site_label
 _atom_site_symmetry_multiplicity
 _atom_site_fract_x
 _atom_site_fract_y
 _atom_site_fract_z
 _atom_site_occupancy
  Fe  Fe0  1  0.99778594  0.99758613  0.99840019  1
  Cr  Cr1  1  0.16491129  0.16594779  0.16326123  1
  Fe  Fe2  1  0.99645663  0.99833757  0.33289018  1
  Fe  Fe3  1  -0.00138391  0.33552012  -0.00097298  1
  Fe  Fe4  1  0.16346670  0.49884602  0.16522973  1
  Fe  Fe5  1  0.99525006  0.33355632  0.33179718  1
  Fe  Fe6  1  -0.00097090  0.66231666  0.99783510  1
  Cr  Cr7  1  0.16472462  0.83164336  0.16657678  1
  Fe  Fe8  1  -0.00044642  0.66332140  0.33339084  1
  Fe  Fe9  1  0.33424253  0.99765721  0.99698470  1
  Cr  Cr10  1  0.49834328  0.16488130  0.16483474  1
  Fe  Fe11  1  0.33360934  0.99593644  0.33346152  1
  Fe  Fe12  1  0.33231781  0.33405282  0.99773376  1
  Fe  Fe13  1  0.49699815  0.49945708  0.16573312  1
  Cr  Cr14  1  0.33152346  0.33318519  0.33164947  1
  Cr  Cr15  1  0.33192694  0.66538185  0.99821647  1
  Fe  Fe16  1  0.49705493  0.83314008  0.16590636  1
  Fe  Fe17  1  0.33119114  0.66584006  0.33273054  1
  Fe  Fe18  1  0.66343717  0.99815472  0.99803819  1
  Fe  Fe19  1  0.83291543  0.16526590  0.16588119  1
  Fe  Fe20  1  0.66532816  -0.00003163  0.33331627  1
  Cr  Cr21  1  0.66641801  0.33290904  -0.00048207  1
  Fe  Fe22  1  0.83496329  0.49598569  0.16610710  1
  Fe  Fe23  1  0.66741775  0.33104815  0.33228137  1
  Cr  Cr24  1  0.66542514  0.66466260  -0.00082836  1
  Cr  Cr25  1  0.83159600  0.83172056  0.16395823  1
  Cr  Cr26  1  0.66518380  0.66483846  0.32972688  1
  Cr  Cr27  1  0.16444218  0.16551603  0.49729954  1
  Fe  Fe28  1  0.99781169  0.99755412  0.66386910  1
  Cr  Cr29  1  0.16555329  0.16615298  0.83534239  1
  Fe  Fe30  1  0.16408414  0.50101160  0.49881650  1
  Fe  Fe31  1  0.99736596  0.33336881  0.66444329  1
  Fe  Fe32  1  0.16260835  0.50043811  0.83170914  1
  Fe  Fe33  1  0.16448120  0.82942920  0.49746593  1
  Fe  Fe34  1  0.00003344  0.66449599  0.66416765  1
  Fe  Fe35  1  0.16441430  0.83062287  0.83204811  1
  Fe  Fe36  1  0.50132563  0.16488636  0.49783751  1
  Cr  Cr37  1  0.33098820  0.99757966  0.66560763  1
  Fe  Fe38  1  0.50009700  0.16409077  0.83305811  1
  Fe  Fe39  1  0.49914833  0.49917662  0.49918692  1
  Cr  Cr40  1  0.33224590  0.33202911  0.66708636  1
  Fe  Fe41  1  0.49967929  0.49878166  0.83081627  1
  Fe  Fe42  1  0.49856977  0.83151673  0.49831899  1
  Fe  Fe43  1  0.33169471  0.66516000  0.66543649  1
  Fe  Fe44  1  0.49827927  0.83269887  0.83116223  1
  Fe  Fe45  1  0.83013475  0.16535317  0.49896486  1
  Fe  Fe46  1  0.66492051  -0.00138126  0.66342410  1
  Cr  Cr47  1  0.83190560  0.16461254  0.83108509  1
  Fe  Fe48  1  0.83244195  0.49787055  0.49915557  1
  Fe  Fe49  1  0.66581757  0.33234391  0.66445653  1
  Fe  Fe50  1  0.83342199  0.49790993  0.83011490  1
  Fe  Fe51  1  0.83248550  0.83226845  0.49907965  1
  Fe  Fe52  1  0.66368508  0.66437784  0.66415293  1
  Cr  Cr53  1  0.83145264  0.82974907  0.83101103  1
" 