5552,Fe28Cr72_19,-220.417606310109, 140.258176345673,Fe28Cr72,"# generated using pymatgen
 data_Cr5Fe13
_symmetry_space_group_name_H-M   'P 1'
_cell_length_a   7.50593764
_cell_length_b   7.50593764
_cell_length_c   10.61499881
_cell_angle_alpha   90.00000000
_cell_angle_beta   90.00000000
_cell_angle_gamma   90.00000000
_symmetry_Int_Tables_number   1
_chemical_formula_structural   Cr5Fe13
_chemical_formula_sum   'Cr15 Fe39'
_cell_volume   598.03947745
_cell_formula_units_Z   3
loop_
 _symmetry_equiv_pos_site_id
 _symmetry_equiv_pos_as_xyz
  1  'x, y, z'
loop_
 _atom_site_type_symbol
 _atom_site_label
 _atom_site_symmetry_multiplicity
 _atom_site_fract_x
 _atom_site_fract_y
 _atom_site_fract_z
 _atom_site_occupancy
  Fe  Fe0  1  0.99552163  -0.00146373  -0.00253881  1
  Fe  Fe1  1  0.16398211  0.16612462  0.16370668  1
  Fe  Fe2  1  -0.00237229  -0.00020318  0.32924894  1
  Fe  Fe3  1  -0.00123416  0.32918634  -0.00247943  1
  Fe  Fe4  1  0.16632587  0.49510250  0.16299405  1
  Fe  Fe5  1  0.00020745  0.32887809  0.32965626  1
  Fe  Fe6  1  -0.00167926  0.66363464  -0.00197407  1
  Cr  Cr7  1  0.16701049  0.83165871  0.16227885  1
  Cr  Cr8  1  0.99647509  0.66466521  0.32870569  1
  Fe  Fe9  1  0.33310772  -0.00100286  0.99697430  1
  Fe  Fe10  1  0.49719161  0.16424321  0.16437874  1
  Fe  Fe11  1  0.33005996  -0.00121127  0.32883635  1
  Fe  Fe12  1  0.33115501  0.33088477  0.99712156  1
  Fe  Fe13  1  0.49468798  0.49672675  0.16450161  1
  Fe  Fe14  1  0.32922608  0.33208888  0.32985626  1
  Fe  Fe15  1  0.33132250  0.66217185  -0.00248542  1
  Fe  Fe16  1  0.49842383  0.83161904  0.16522984  1
  Fe  Fe17  1  0.33212656  0.66155955  0.32945087  1
  Fe  Fe18  1  0.66403294  -0.00061941  -0.00247797  1
  Fe  Fe19  1  0.83100727  0.16187922  0.16420073  1
  Fe  Fe20  1  0.66488201  0.99667158  0.32805198  1
  Fe  Fe21  1  0.66248228  0.32815627  0.99695136  1
  Cr  Cr22  1  0.83013635  0.49339140  0.16369326  1
  Fe  Fe23  1  0.66258250  0.33108974  0.32899403  1
  Cr  Cr24  1  0.66477351  0.66598696  -0.00134757  1
  Fe  Fe25  1  0.82981909  0.83361714  0.16414819  1
  Fe  Fe26  1  0.66150568  0.66409147  0.32895441  1
  Fe  Fe27  1  0.16255982  0.16532195  0.49555795  1
  Fe  Fe28  1  0.99642541  -0.00010602  0.66607459  1
  Fe  Fe29  1  0.16215805  0.16582597  0.83280370  1
  Fe  Fe30  1  0.16492693  0.49656140  0.49659499  1
  Fe  Fe31  1  -0.00027793  0.32924576  0.66501848  1
  Fe  Fe32  1  0.16492131  0.49650096  0.83209265  1
  Cr  Cr33  1  0.16557460  0.83141102  0.49780383  1
  Fe  Fe34  1  -0.00082926  0.66260942  0.66476698  1
  Cr  Cr35  1  0.16573300  0.82989746  0.83162106  1
  Cr  Cr36  1  0.49767853  0.16418954  0.49460113  1
  Cr  Cr37  1  0.33044607  0.00033946  0.66504160  1
  Fe  Fe38  1  0.49770748  0.16349725  0.83307365  1
  Fe  Fe39  1  0.49622716  0.49866979  0.49582650  1
  Cr  Cr40  1  0.32902524  0.33123625  0.66361622  1
  Fe  Fe41  1  0.49488291  0.49879461  0.83225037  1
  Cr  Cr42  1  0.49579032  0.83036525  0.49713616  1
  Fe  Fe43  1  0.33189629  0.66189182  0.66523017  1
  Fe  Fe44  1  0.49915909  0.83058935  0.83061026  1
  Cr  Cr45  1  0.83094529  0.16588628  0.49725961  1
  Fe  Fe46  1  0.66455354  0.99703399  0.66670895  1
  Fe  Fe47  1  0.83194691  0.16124889  0.83154421  1
  Cr  Cr48  1  0.82983961  0.49576999  0.49799172  1
  Cr  Cr49  1  0.66138277  0.33065489  0.66605375  1
  Cr  Cr50  1  0.83197961  0.49528982  0.83058208  1
  Cr  Cr51  1  0.83059936  0.83078128  0.49948620  1
  Fe  Fe52  1  0.66159724  0.66534930  0.66630964  1
  Fe  Fe53  1  0.83049752  0.83232349  0.82981952  1
" 