8209,Fe28Cr72_2,-220.370291916403, 141.652021166778,Fe28Cr72,"# generated using pymatgen
 data_Cr5Fe13
_symmetry_space_group_name_H-M   'P 1'
_cell_length_a   7.50182618
_cell_length_b   7.50182618
_cell_length_c   10.60918433
_cell_angle_alpha   90.00000000
_cell_angle_beta   90.00000000
_cell_angle_gamma   90.00000000
_symmetry_Int_Tables_number   1
_chemical_formula_structural   Cr5Fe13
_chemical_formula_sum   'Cr15 Fe39'
_cell_volume   597.05726814
_cell_formula_units_Z   3
loop_
 _symmetry_equiv_pos_site_id
 _symmetry_equiv_pos_as_xyz
  1  'x, y, z'
loop_
 _atom_site_type_symbol
 _atom_site_label
 _atom_site_symmetry_multiplicity
 _atom_site_fract_x
 _atom_site_fract_y
 _atom_site_fract_z
 _atom_site_occupancy
  Fe  Fe0  1  0.99699865  0.99639774  -0.00167972  1
  Cr  Cr1  1  0.16270684  0.16459922  0.16530877  1
  Fe  Fe2  1  0.99699858  0.99685504  0.33337285  1
  Fe  Fe3  1  -0.00190501  0.33561533  -0.00203245  1
  Fe  Fe4  1  0.16460313  0.49742537  0.16543669  1
  Fe  Fe5  1  0.99672799  0.33318554  0.33141333  1
  Fe  Fe6  1  0.99676230  0.66098523  -0.00118565  1
  Cr  Cr7  1  0.16283306  0.82906824  0.16514652  1
  Fe  Fe8  1  0.99614412  0.66337660  0.33185064  1
  Cr  Cr9  1  0.33305785  -0.00143751  -0.00230496  1
  Fe  Fe10  1  0.49693552  0.16554904  0.16463307  1
  Fe  Fe11  1  0.33009946  0.99756299  0.33298718  1
  Fe  Fe12  1  0.33162702  0.33447255  -0.00168971  1
  Fe  Fe13  1  0.49726405  0.49432266  0.16583884  1
  Fe  Fe14  1  0.33144350  0.33112392  0.33087269  1
  Fe  Fe15  1  0.33178725  0.65969391  0.99753145  1
  Cr  Cr16  1  0.49691788  0.82573866  0.16442053  1
  Fe  Fe17  1  0.33005744  0.66297728  0.33181539  1
  Fe  Fe18  1  0.66410478  0.99671818  -0.00110328  1
  Cr  Cr19  1  0.83106138  0.16541131  0.16125286  1
  Cr  Cr20  1  0.66292374  0.99729024  0.33110881  1
  Fe  Fe21  1  0.66261484  0.33478177  -0.00173905  1
  Fe  Fe22  1  0.83130764  0.49989428  0.16482393  1
  Fe  Fe23  1  0.66512267  0.33255601  0.32997822  1
  Fe  Fe24  1  0.66398734  0.66139010  -0.00225976  1
  Fe  Fe25  1  0.83109769  0.82929822  0.16361213  1
  Fe  Fe26  1  0.66651400  0.66239921  0.33053514  1
  Fe  Fe27  1  0.16589536  0.16720554  0.49552628  1
  Cr  Cr28  1  -0.00045811  0.99680417  0.66229469  1
  Cr  Cr29  1  0.16264682  0.16629752  0.83210500  1
  Fe  Fe30  1  0.16279568  0.49745493  0.49703462  1
  Fe  Fe31  1  -0.00100489  0.33468450  0.66387802  1
  Fe  Fe32  1  0.16404237  0.49708944  0.83087095  1
  Fe  Fe33  1  0.16461763  0.82802406  0.49541796  1
  Fe  Fe34  1  -0.00207987  0.66241625  0.66352617  1
  Cr  Cr35  1  0.16576277  0.82700603  0.83346656  1
  Fe  Fe36  1  0.49721621  0.16621352  0.49743253  1
  Cr  Cr37  1  0.33320752  0.99730893  0.66096537  1
  Cr  Cr38  1  0.49994310  0.16721115  0.82983997  1
  Cr  Cr39  1  0.49815793  0.49890505  0.49687557  1
  Fe  Fe40  1  0.32945466  0.33325145  0.66344581  1
  Fe  Fe41  1  0.49771214  0.50042866  0.82987229  1
  Fe  Fe42  1  0.49829083  0.83021921  0.49656564  1
  Fe  Fe43  1  0.33011771  0.66318160  0.66390343  1
  Fe  Fe44  1  0.49877251  0.82945167  0.83105524  1
  Cr  Cr45  1  0.83141153  0.16649676  0.50033054  1
  Fe  Fe46  1  0.66435194  0.99572854  0.66265050  1
  Cr  Cr47  1  0.83107302  0.16609481  0.83188744  1
  Fe  Fe48  1  0.83204871  0.49959990  0.49773019  1
  Fe  Fe49  1  0.66440047  0.33415507  0.66422001  1
  Fe  Fe50  1  0.83121209  0.49813844  0.83068890  1
  Fe  Fe51  1  0.83023588  0.82787946  0.49778190  1
  Fe  Fe52  1  0.66465542  0.66519281  0.66446272  1
  Cr  Cr53  1  0.83055447  0.83113701  0.83305483  1
" 