5704,Fe28Cr72_12,-220.2847353898, 144.502340335335,Fe28Cr72,"# generated using pymatgen
 data_Cr5Fe13
_symmetry_space_group_name_H-M   'P 1'
_cell_length_a   7.49679003
_cell_length_b   7.49679003
_cell_length_c   10.60206214
_cell_angle_alpha   90.00000000
_cell_angle_beta   90.00000000
_cell_angle_gamma   90.00000000
_symmetry_Int_Tables_number   1
_chemical_formula_structural   Cr5Fe13
_chemical_formula_sum   'Cr15 Fe39'
_cell_volume   595.85562055
_cell_formula_units_Z   3
loop_
 _symmetry_equiv_pos_site_id
 _symmetry_equiv_pos_as_xyz
  1  'x, y, z'
loop_
 _atom_site_type_symbol
 _atom_site_label
 _atom_site_symmetry_multiplicity
 _atom_site_fract_x
 _atom_site_fract_y
 _atom_site_fract_z
 _atom_site_occupancy
  Fe  Fe0  1  0.99644229  0.99744472  0.99767565  1
  Fe  Fe1  1  0.16563530  0.16544518  0.16551524  1
  Cr  Cr2  1  -0.00112344  -0.00149377  0.32950722  1
  Cr  Cr3  1  -0.00068964  0.33063033  -0.00112059  1
  Fe  Fe4  1  0.16651984  0.49922263  0.16566002  1
  Cr  Cr5  1  0.00039816  0.33302793  0.33245581  1
  Fe  Fe6  1  -0.00122183  0.66597406  0.99695404  1
  Cr  Cr7  1  0.16481161  0.83053069  0.16394711  1
  Fe  Fe8  1  -0.00047795  0.66428577  0.33220375  1
  Cr  Cr9  1  0.33262330  -0.00166516  -0.00158831  1
  Fe  Fe10  1  0.49958159  0.16464776  0.16621698  1
  Fe  Fe11  1  0.33318296  -0.00104557  0.33141340  1
  Cr  Cr12  1  0.33153837  0.33274971  -0.00019290  1
  Fe  Fe13  1  0.49679184  0.49947155  0.16606828  1
  Fe  Fe14  1  0.33213402  0.33020816  0.33007983  1
  Fe  Fe15  1  0.33194040  0.66413473  0.99725943  1
  Fe  Fe16  1  0.50041008  0.83015542  0.16545541  1
  Fe  Fe17  1  0.33063813  0.66470658  0.33132883  1
  Fe  Fe18  1  0.66611671  -0.00138339  0.99768641  1
  Fe  Fe19  1  0.82933311  0.16269718  0.16428699  1
  Fe  Fe20  1  0.66224023  -0.00150581  0.33031343  1
  Fe  Fe21  1  0.66330809  0.32959686  0.99792724  1
  Cr  Cr22  1  0.82944091  0.49857969  0.16665065  1
  Fe  Fe23  1  0.66280141  0.32975439  0.33099623  1
  Fe  Fe24  1  0.66276433  0.66577286  0.99773450  1
  Fe  Fe25  1  0.82885810  0.83191215  0.16397255  1
  Fe  Fe26  1  0.66378752  0.66568790  0.33100902  1
  Fe  Fe27  1  0.16777947  0.16441953  0.49940663  1
  Fe  Fe28  1  -0.00008761  -0.00123667  0.66572963  1
  Fe  Fe29  1  0.16416349  0.16423301  0.82950552  1
  Fe  Fe30  1  0.16524671  0.49784004  0.49796868  1
  Fe  Fe31  1  0.00099461  0.32990270  0.66488516  1
  Fe  Fe32  1  0.16649127  0.49884587  0.83056488  1
  Fe  Fe33  1  0.16832137  0.83182705  0.49734344  1
  Cr  Cr34  1  -0.00085756  0.66370369  0.66177160  1
  Fe  Fe35  1  0.16433689  0.83097310  0.83153248  1
  Fe  Fe36  1  0.49529157  0.16294658  0.49671320  1
  Fe  Fe37  1  0.32981060  0.99747489  0.66517180  1
  Fe  Fe38  1  0.49766803  0.16526202  0.83181158  1
  Cr  Cr39  1  0.49768942  0.49722898  0.49745184  1
  Fe  Fe40  1  0.32954010  0.33099871  0.66571099  1
  Fe  Fe41  1  0.49535309  0.49886242  0.83185031  1
  Fe  Fe42  1  0.49520129  0.83309264  0.49623854  1
  Fe  Fe43  1  0.33139910  0.66561020  0.66541619  1
  Fe  Fe44  1  0.49708994  0.83008190  0.83253530  1
  Cr  Cr45  1  0.83116997  0.16597574  0.49965183  1
  Cr  Cr46  1  0.66201524  0.99643501  0.66560168  1
  Fe  Fe47  1  0.83230593  0.16222651  0.83192852  1
  Fe  Fe48  1  0.83197860  0.49796732  0.49645011  1
  Cr  Cr49  1  0.66401548  0.33113329  0.66542631  1
  Cr  Cr50  1  0.83007343  0.49708042  0.83034798  1
  Cr  Cr51  1  0.83223124  0.83116396  0.49536870  1
  Cr  Cr52  1  0.66333103  0.66643990  0.66400296  1
  Fe  Fe53  1  0.83254328  0.83285008  0.83307932  1
" 