5709,Fe28Cr72_8,-220.536997758827, 140.979427357841,Fe28Cr72,"# generated using pymatgen
 data_Cr5Fe13
_symmetry_space_group_name_H-M   'P 1'
_cell_length_a   7.50983078
_cell_length_b   7.50983078
_cell_length_c   10.62050454
_cell_angle_alpha   90.00000000
_cell_angle_beta   90.00000000
_cell_angle_gamma   90.00000000
_symmetry_Int_Tables_number   1
_chemical_formula_structural   Cr5Fe13
_chemical_formula_sum   'Cr15 Fe39'
_cell_volume   598.97052438
_cell_formula_units_Z   3
loop_
 _symmetry_equiv_pos_site_id
 _symmetry_equiv_pos_as_xyz
  1  'x, y, z'
loop_
 _atom_site_type_symbol
 _atom_site_label
 _atom_site_symmetry_multiplicity
 _atom_site_fract_x
 _atom_site_fract_y
 _atom_site_fract_z
 _atom_site_occupancy
  Fe  Fe0  1  0.99708986  -0.00274059  0.99710306  1
  Fe  Fe1  1  0.16218487  0.16364829  0.16348957  1
  Fe  Fe2  1  -0.00262328  0.00025710  0.33107865  1
  Fe  Fe3  1  0.99655717  0.33038031  0.99710528  1
  Cr  Cr4  1  0.16576409  0.49585341  0.16269908  1
  Fe  Fe5  1  0.99646724  0.32720333  0.33090894  1
  Fe  Fe6  1  0.99699828  0.66381813  0.99472066  1
  Cr  Cr7  1  0.16448861  0.83050666  0.16471389  1
  Cr  Cr8  1  0.99637122  0.66393163  0.33125278  1
  Fe  Fe9  1  0.33061529  0.99562429  0.99690146  1
  Cr  Cr10  1  0.49708204  0.16381330  0.16201439  1
  Fe  Fe11  1  0.33062461  -0.00267554  0.33196284  1
  Fe  Fe12  1  0.33098053  0.33183230  0.99667990  1
  Fe  Fe13  1  0.49729543  0.49897222  0.16383372  1
  Fe  Fe14  1  0.33133833  0.32959412  0.33110847  1
  Fe  Fe15  1  0.33191274  0.66398488  0.99547126  1
  Fe  Fe16  1  0.49694693  0.82866528  0.16383065  1
  Fe  Fe17  1  0.33370884  0.66435723  0.33127480  1
  Fe  Fe18  1  0.66365791  0.99591757  0.99688718  1
  Fe  Fe19  1  0.83215026  0.16398936  0.16351883  1
  Fe  Fe20  1  0.66326080  -0.00212320  0.33093428  1
  Fe  Fe21  1  0.66401152  0.33189897  0.99707481  1
  Cr  Cr22  1  0.82985471  0.49710785  0.16469504  1
  Fe  Fe23  1  0.66383496  0.33032216  0.33160336  1
  Fe  Fe24  1  0.66251618  0.66365194  0.99581494  1
  Cr  Cr25  1  0.82856649  0.83180718  0.16263986  1
  Fe  Fe26  1  0.66075180  0.66342971  0.33109507  1
  Fe  Fe27  1  0.16223552  0.16235898  0.49605929  1
  Fe  Fe28  1  -0.00269319  -0.00209955  0.66325327  1
  Cr  Cr29  1  0.16421786  0.16479550  0.83155765  1
  Cr  Cr30  1  0.16417452  0.49645157  0.49634675  1
  Fe  Fe31  1  0.99592705  0.32987035  0.66309658  1
  Fe  Fe32  1  0.16346476  0.49727032  0.83267897  1
  Fe  Fe33  1  0.16451887  0.83240039  0.49568527  1
  Cr  Cr34  1  0.99591075  0.66370659  0.66691341  1
  Fe  Fe35  1  0.16339034  0.83087189  0.83289433  1
  Fe  Fe36  1  0.49877920  0.16384136  0.49568437  1
  Cr  Cr37  1  0.33081668  0.99638437  0.66214571  1
  Cr  Cr38  1  0.49834763  0.16359943  0.83019428  1
  Fe  Fe39  1  0.49992640  0.49750228  0.49598603  1
  Cr  Cr40  1  0.33228364  0.33026166  0.66383769  1
  Fe  Fe41  1  0.49863904  0.49790445  0.83188963  1
  Fe  Fe42  1  0.49696319  0.83010574  0.49560955  1
  Cr  Cr43  1  0.33099166  0.66494685  0.66467832  1
  Fe  Fe44  1  0.49866598  0.82997343  0.83184170  1
  Fe  Fe45  1  0.83061915  0.16547183  0.49751154  1
  Fe  Fe46  1  0.66388022  0.99611534  0.66305490  1
  Cr  Cr47  1  0.82903357  0.16268798  0.82934089  1
  Fe  Fe48  1  0.82813342  0.49498477  0.49710658  1
  Fe  Fe49  1  0.66510511  0.33231695  0.66235581  1
  Fe  Fe50  1  0.82938731  0.49679951  0.83170322  1
  Cr  Cr51  1  0.82919614  0.83112225  0.49825215  1
  Fe  Fe52  1  0.66250956  0.66303041  0.66463797  1
  Fe  Fe53  1  0.82935038  0.83047964  0.83145358  1
" 