1544,Fe28Cr72_4,-220.493174183154, 145.659248602111,Fe28Cr72,"# generated using pymatgen
 data_Cr5Fe13
_symmetry_space_group_name_H-M   'P 1'
_cell_length_a   7.49787169
_cell_length_b   7.49787169
_cell_length_c   10.60359183
_cell_angle_alpha   90.00000000
_cell_angle_beta   90.00000000
_cell_angle_gamma   90.00000000
_symmetry_Int_Tables_number   1
_chemical_formula_structural   Cr5Fe13
_chemical_formula_sum   'Cr15 Fe39'
_cell_volume   596.11357288
_cell_formula_units_Z   3
loop_
 _symmetry_equiv_pos_site_id
 _symmetry_equiv_pos_as_xyz
  1  'x, y, z'
loop_
 _atom_site_type_symbol
 _atom_site_label
 _atom_site_symmetry_multiplicity
 _atom_site_fract_x
 _atom_site_fract_y
 _atom_site_fract_z
 _atom_site_occupancy
  Fe  Fe0  1  0.99611545  -0.00116108  0.99728026  1
  Fe  Fe1  1  0.16111628  0.16768168  0.16536072  1
  Fe  Fe2  1  0.99539169  -0.00103203  0.33016950  1
  Fe  Fe3  1  0.99726829  0.33018457  0.99656900  1
  Fe  Fe4  1  0.16413972  0.49667299  0.16517527  1
  Fe  Fe5  1  0.99774702  0.33142540  0.33140915  1
  Fe  Fe6  1  -0.00151618  0.66464504  0.99648094  1
  Cr  Cr7  1  0.16331016  0.83026397  0.16463420  1
  Fe  Fe8  1  0.99793854  0.66342216  0.33139385  1
  Cr  Cr9  1  0.33092347  0.99704361  -0.00091628  1
  Cr  Cr10  1  0.50017303  0.16582457  0.16452372  1
  Cr  Cr11  1  0.33224987  0.99721920  0.32895790  1
  Cr  Cr12  1  0.32957018  0.33097364  0.99578181  1
  Cr  Cr13  1  0.49812229  0.49892441  0.16336238  1
  Fe  Fe14  1  0.33080654  0.33363011  0.33149580  1
  Fe  Fe15  1  0.33006238  0.66384163  0.99721430  1
  Fe  Fe16  1  0.50143415  0.82961247  0.16433591  1
  Fe  Fe17  1  0.33071901  0.66205242  0.33150233  1
  Fe  Fe18  1  0.66742158  -0.00190526  0.99793924  1
  Fe  Fe19  1  0.83300237  0.16328403  0.16449774  1
  Fe  Fe20  1  0.66742802  -0.00156781  0.33064619  1
  Fe  Fe21  1  0.66627035  0.33030757  0.99543132  1
  Cr  Cr22  1  0.83171417  0.49657259  0.16338330  1
  Fe  Fe23  1  0.66523457  0.33075807  0.33351237  1
  Fe  Fe24  1  0.66539869  0.66532518  0.99727734  1
  Fe  Fe25  1  0.82918372  0.83236722  0.16472836  1
  Fe  Fe26  1  0.66507010  0.66460615  0.33103944  1
  Cr  Cr27  1  0.16398953  0.16575829  0.49721737  1
  Fe  Fe28  1  0.99553054  -0.00139348  0.66720874  1
  Fe  Fe29  1  0.16277764  0.16427678  0.83092073  1
  Fe  Fe30  1  0.16524654  0.49911727  0.49720997  1
  Cr  Cr31  1  0.99652406  0.33373828  0.66490102  1
  Fe  Fe32  1  0.16455620  0.50004758  0.83114622  1
  Cr  Cr33  1  0.16302335  0.83036810  0.50108271  1
  Fe  Fe34  1  0.99739973  0.66417827  0.66680172  1
  Fe  Fe35  1  0.16183885  0.82977894  0.83129237  1
  Fe  Fe36  1  0.49959714  0.16563184  0.49682684  1
  Cr  Cr37  1  0.33187473  -0.00125320  0.66637794  1
  Fe  Fe38  1  0.49977552  0.16565368  0.83168688  1
  Fe  Fe39  1  0.49680056  0.49726054  0.49683703  1
  Fe  Fe40  1  0.33158574  0.33350841  0.66570451  1
  Fe  Fe41  1  0.49827618  0.49783964  0.83156927  1
  Cr  Cr42  1  0.49892835  0.83008059  0.49711360  1
  Fe  Fe43  1  0.33104857  0.66040060  0.66557868  1
  Cr  Cr44  1  0.49894579  0.82976701  0.83223661  1
  Fe  Fe45  1  0.82997757  0.16426254  0.49658453  1
  Fe  Fe46  1  0.66670751  -0.00100797  0.66560945  1
  Fe  Fe47  1  0.83096606  0.16315210  0.83254662  1
  Fe  Fe48  1  0.83164113  0.49841093  0.49597661  1
  Cr  Cr49  1  0.66455731  0.33245141  0.66404495  1
  Fe  Fe50  1  0.83080642  0.49977933  0.83320184  1
  Cr  Cr51  1  0.83197959  0.83140705  0.49965286  1
  Fe  Fe52  1  0.66553736  0.66365012  0.66546749  1
  Fe  Fe53  1  0.83281437  0.83116467  0.83101921  1
" 