6094,Fe28Cr72_11,-220.127408012415, 145.046713923942,Fe28Cr72,"# generated using pymatgen
 data_Cr5Fe13
_symmetry_space_group_name_H-M   'P 1'
_cell_length_a   7.49435953
_cell_length_b   7.49435953
_cell_length_c   10.59862489
_cell_angle_alpha   90.00000000
_cell_angle_beta   90.00000000
_cell_angle_gamma   90.00000000
_symmetry_Int_Tables_number   1
_chemical_formula_structural   Cr5Fe13
_chemical_formula_sum   'Cr15 Fe39'
_cell_volume   595.27626900
_cell_formula_units_Z   3
loop_
 _symmetry_equiv_pos_site_id
 _symmetry_equiv_pos_as_xyz
  1  'x, y, z'
loop_
 _atom_site_type_symbol
 _atom_site_label
 _atom_site_symmetry_multiplicity
 _atom_site_fract_x
 _atom_site_fract_y
 _atom_site_fract_z
 _atom_site_occupancy
  Fe  Fe0  1  0.99806691  0.99780206  -0.00098556  1
  Fe  Fe1  1  0.16551908  0.16484641  0.16231783  1
  Cr  Cr2  1  0.99536823  -0.00032116  0.33284166  1
  Fe  Fe3  1  0.99731468  0.33230572  -0.00024838  1
  Fe  Fe4  1  0.16497830  0.49836862  0.16313242  1
  Cr  Cr5  1  0.99811828  0.33093544  0.33005307  1
  Fe  Fe6  1  0.99662963  0.66430835  0.99697261  1
  Cr  Cr7  1  0.16528166  0.83017398  0.16435390  1
  Fe  Fe8  1  0.99606473  0.66457071  0.32951261  1
  Fe  Fe9  1  0.33139148  0.99719052  -0.00117060  1
  Fe  Fe10  1  0.49757738  0.16474624  0.16453545  1
  Fe  Fe11  1  0.33310399  -0.00133754  0.33072681  1
  Fe  Fe12  1  0.33190368  0.33279722  0.00027555  1
  Fe  Fe13  1  0.49856321  0.49965026  0.16402336  1
  Cr  Cr14  1  0.33140544  0.33248630  0.33160047  1
  Fe  Fe15  1  0.33304320  0.66434835  0.99692149  1
  Fe  Fe16  1  0.49889430  0.83023226  0.16545438  1
  Fe  Fe17  1  0.33413283  0.66535537  0.33020536  1
  Cr  Cr18  1  0.66504706  0.99674022  0.00007083  1
  Fe  Fe19  1  0.83096694  0.16535084  0.16346302  1
  Fe  Fe20  1  0.66355154  -0.00161441  0.32977436  1
  Fe  Fe21  1  0.66529297  0.33385649  0.00021868  1
  Fe  Fe22  1  0.83096061  0.49973389  0.16415085  1
  Fe  Fe23  1  0.66519142  0.33080346  0.32918477  1
  Fe  Fe24  1  0.66491213  0.66320013  -0.00170033  1
  Fe  Fe25  1  0.83043260  0.82955960  0.16500767  1
  Fe  Fe26  1  0.66445434  0.66514463  0.33005824  1
  Fe  Fe27  1  0.16391403  0.16565411  0.49997558  1
  Fe  Fe28  1  0.99687954  0.99769740  0.66347556  1
  Cr  Cr29  1  0.16491837  0.16371334  0.83134727  1
  Cr  Cr30  1  0.16456868  0.50016469  0.49684673  1
  Fe  Fe31  1  -0.00098774  0.33116987  0.66428089  1
  Fe  Fe32  1  0.16480470  0.49676769  0.83361389  1
  Cr  Cr33  1  0.16500462  0.83142691  0.49488082  1
  Cr  Cr34  1  0.99685624  0.66545411  0.66757735  1
  Fe  Fe35  1  0.16439454  0.83099078  0.83437674  1
  Cr  Cr36  1  0.50083806  0.16491873  0.49901068  1
  Cr  Cr37  1  0.33241898  0.99677833  0.66479630  1
  Cr  Cr38  1  0.49876062  0.16641062  0.83268094  1
  Fe  Fe39  1  0.49907936  0.50015768  0.49763010  1
  Fe  Fe40  1  0.33150424  0.33272455  0.66472134  1
  Fe  Fe41  1  0.49964107  0.49807731  0.83320397  1
  Fe  Fe42  1  0.50096668  0.82916075  0.49638756  1
  Cr  Cr43  1  0.33432655  0.66280747  0.66694861  1
  Fe  Fe44  1  0.49938541  0.83043576  0.83297053  1
  Fe  Fe45  1  0.83186420  0.16416541  0.50062208  1
  Fe  Fe46  1  0.66643438  0.99456172  0.66492875  1
  Cr  Cr47  1  0.83080125  0.16632340  0.82902494  1
  Cr  Cr48  1  0.82919495  0.49842388  0.49726816  1
  Fe  Fe49  1  0.66381667  0.33473856  0.66507467  1
  Fe  Fe50  1  0.83027369  0.49819392  0.83247005  1
  Fe  Fe51  1  0.82826121  0.83221080  0.49807262  1
  Fe  Fe52  1  0.66435370  0.66592242  0.66626506  1
  Fe  Fe53  1  0.83116252  0.83131890  0.83240140  1
" 