8575,Fe28Cr72_10,-220.242381609026, 148.826724657055,Fe28Cr72,"# generated using pymatgen
 data_Cr5Fe13
_symmetry_space_group_name_H-M   'P 1'
_cell_length_a   7.49744148
_cell_length_b   7.49744148
_cell_length_c   10.60298343
_cell_angle_alpha   90.00000000
_cell_angle_beta   90.00000000
_cell_angle_gamma   90.00000000
_symmetry_Int_Tables_number   1
_chemical_formula_structural   Cr5Fe13
_chemical_formula_sum   'Cr15 Fe39'
_cell_volume   596.01096848
_cell_formula_units_Z   3
loop_
 _symmetry_equiv_pos_site_id
 _symmetry_equiv_pos_as_xyz
  1  'x, y, z'
loop_
 _atom_site_type_symbol
 _atom_site_label
 _atom_site_symmetry_multiplicity
 _atom_site_fract_x
 _atom_site_fract_y
 _atom_site_fract_z
 _atom_site_occupancy
  Fe  Fe0  1  -0.00116268  0.00035465  0.99693134  1
  Fe  Fe1  1  0.16430649  0.16524360  0.16360878  1
  Fe  Fe2  1  -0.00061136  -0.00024588  0.33388961  1
  Fe  Fe3  1  -0.00071985  0.33049262  0.99609997  1
  Fe  Fe4  1  0.16483873  0.49697332  0.16259391  1
  Fe  Fe5  1  -0.00140934  0.32976803  0.33284800  1
  Fe  Fe6  1  -0.00188716  0.66335441  0.99646388  1
  Cr  Cr7  1  0.16653187  0.83203748  0.16485241  1
  Cr  Cr8  1  0.00029191  0.66252521  0.33318689  1
  Fe  Fe9  1  0.33048073  -0.00093246  -0.00150085  1
  Fe  Fe10  1  0.49643819  0.16422797  0.16462245  1
  Fe  Fe11  1  0.33175210  0.99635514  0.33176272  1
  Fe  Fe12  1  0.33022300  0.33131294  -0.00033357  1
  Fe  Fe13  1  0.49648769  0.49832593  0.16271854  1
  Cr  Cr14  1  0.32808368  0.33315231  0.32988795  1
  Fe  Fe15  1  0.33275350  0.66387410  -0.00184555  1
  Fe  Fe16  1  0.49716238  0.83149696  0.16444597  1
  Fe  Fe17  1  0.33187683  0.66547584  0.33219094  1
  Cr  Cr18  1  0.66350704  0.99522134  0.99781512  1
  Cr  Cr19  1  0.83051526  0.16631088  0.16887367  1
  Fe  Fe20  1  0.66336417  -0.00112748  0.33236657  1
  Fe  Fe21  1  0.66434263  0.33161015  0.99767900  1
  Cr  Cr22  1  0.83040084  0.49637002  0.16271203  1
  Fe  Fe23  1  0.66343346  0.33136576  0.33164464  1
  Fe  Fe24  1  0.66346550  0.66339984  0.99716968  1
  Cr  Cr25  1  0.83484830  0.83120562  0.16446532  1
  Cr  Cr26  1  0.66161277  0.66818380  0.33073547  1
  Fe  Fe27  1  0.16330448  0.16317455  0.49777419  1
  Fe  Fe28  1  -0.00127973  0.99738151  0.66376418  1
  Fe  Fe29  1  0.16445737  0.16568587  0.83231352  1
  Fe  Fe30  1  0.16724436  0.49847788  0.49923326  1
  Cr  Cr31  1  0.00153945  0.33098463  0.66537094  1
  Fe  Fe32  1  0.16511090  0.49744875  0.83233390  1
  Fe  Fe33  1  0.16570098  0.83232538  0.49900484  1
  Fe  Fe34  1  0.99739974  0.66632460  0.66405670  1
  Cr  Cr35  1  0.16390743  0.83243299  0.83091234  1
  Cr  Cr36  1  0.49864238  0.16676000  0.49875737  1
  Fe  Fe37  1  0.32889689  0.99777339  0.66369556  1
  Cr  Cr38  1  0.49597271  0.16615332  0.83043571  1
  Fe  Fe39  1  0.49588100  0.49969391  0.49980484  1
  Fe  Fe40  1  0.33071543  0.33190797  0.66328881  1
  Cr  Cr41  1  0.49994708  0.49670348  0.82824889  1
  Fe  Fe42  1  0.49617268  0.83010808  0.49846038  1
  Fe  Fe43  1  0.33100691  0.66479552  0.66313892  1
  Fe  Fe44  1  0.49710072  0.82946020  0.83112531  1
  Fe  Fe45  1  0.83300520  0.16291113  0.49638905  1
  Cr  Cr46  1  0.66582101  0.99480867  0.66561395  1
  Fe  Fe47  1  0.83318031  0.16527416  0.83234776  1
  Cr  Cr48  1  0.82883527  0.49621008  0.49803872  1
  Fe  Fe49  1  0.66599552  0.33172914  0.66451113  1
  Fe  Fe50  1  0.83272120  0.49883392  0.83204224  1
  Fe  Fe51  1  0.83210834  0.83348672  0.49813741  1
  Fe  Fe52  1  0.66527848  0.66429148  0.66411322  1
  Fe  Fe53  1  0.83095197  0.82907530  0.83174670  1
" 