1943,Fe28Cr72_15,-220.332330668688, 145.195119488389,Fe28Cr72,"# generated using pymatgen
 data_Cr5Fe13
_symmetry_space_group_name_H-M   'P 1'
_cell_length_a   7.49614087
_cell_length_b   7.49614087
_cell_length_c   10.60114409
_cell_angle_alpha   90.00000000
_cell_angle_beta   90.00000000
_cell_angle_gamma   90.00000000
_symmetry_Int_Tables_number   1
_chemical_formula_structural   Cr5Fe13
_chemical_formula_sum   'Cr15 Fe39'
_cell_volume   595.70084546
_cell_formula_units_Z   3
loop_
 _symmetry_equiv_pos_site_id
 _symmetry_equiv_pos_as_xyz
  1  'x, y, z'
loop_
 _atom_site_type_symbol
 _atom_site_label
 _atom_site_symmetry_multiplicity
 _atom_site_fract_x
 _atom_site_fract_y
 _atom_site_fract_z
 _atom_site_occupancy
  Fe  Fe0  1  -0.00133470  -0.00004069  0.99741367  1
  Fe  Fe1  1  0.16386084  0.16379975  0.16406992  1
  Fe  Fe2  1  0.99800262  -0.00110257  0.33139849  1
  Fe  Fe3  1  -0.00051354  0.32907591  0.99797742  1
  Cr  Cr4  1  0.16343868  0.49450233  0.16553022  1
  Fe  Fe5  1  0.99753509  0.33092049  0.33207997  1
  Cr  Cr6  1  -0.00191422  0.66500569  -0.00167881  1
  Fe  Fe7  1  0.16456302  0.83375970  0.16468122  1
  Fe  Fe8  1  -0.00122558  0.66433113  0.33178331  1
  Fe  Fe9  1  0.33007359  -0.00065647  -0.00064103  1
  Fe  Fe10  1  0.49801074  0.16470369  0.16451703  1
  Cr  Cr11  1  0.33028334  -0.00163631  0.33067167  1
  Fe  Fe12  1  0.32997883  0.33041045  -0.00191581  1
  Fe  Fe13  1  0.49924031  0.49694926  0.16466630  1
  Fe  Fe14  1  0.33229415  0.33097968  0.33206158  1
  Cr  Cr15  1  0.33230498  0.66560066  -0.00174536  1
  Fe  Fe16  1  0.49781261  0.83254172  0.16346692  1
  Cr  Cr17  1  0.32932734  0.66560256  0.33168772  1
  Fe  Fe18  1  0.66538040  0.99721216  -0.00151322  1
  Fe  Fe19  1  0.83232691  0.16553723  0.16540663  1
  Fe  Fe20  1  0.66515253  0.00087797  0.33100187  1
  Cr  Cr21  1  0.66608495  0.33172193  -0.00038849  1
  Fe  Fe22  1  0.83095282  0.49611493  0.16512335  1
  Fe  Fe23  1  0.66433570  0.32996548  0.33118646  1
  Fe  Fe24  1  0.66422010  0.66516321  -0.00105293  1
  Cr  Cr25  1  0.82996263  0.83183450  0.16430436  1
  Cr  Cr26  1  0.66534702  0.66108192  0.32860290  1
  Fe  Fe27  1  0.16341497  0.16563815  0.49797672  1
  Fe  Fe28  1  -0.00132751  -0.00125351  0.66539651  1
  Fe  Fe29  1  0.16276952  0.16540482  0.83203157  1
  Fe  Fe30  1  0.16404833  0.49780741  0.49850572  1
  Fe  Fe31  1  -0.00133847  0.33029505  0.66412654  1
  Fe  Fe32  1  0.16644611  0.49675831  0.83036157  1
  Fe  Fe33  1  0.16284055  0.83073909  0.49864337  1
  Fe  Fe34  1  -0.00057392  0.66514779  0.66495307  1
  Fe  Fe35  1  0.16292972  0.83201510  0.83077553  1
  Fe  Fe36  1  0.49879732  0.16768339  0.49759939  1
  Cr  Cr37  1  0.32799867  0.99762625  0.66332194  1
  Cr  Cr38  1  0.49594261  0.16578280  0.83174037  1
  Fe  Fe39  1  0.49824855  0.49584548  0.49927102  1
  Fe  Fe40  1  0.33093836  0.33303539  0.66405840  1
  Fe  Fe41  1  0.49691441  0.49796523  0.83016718  1
  Cr  Cr42  1  0.49882538  0.83196678  0.49843345  1
  Fe  Fe43  1  0.33035535  0.66245769  0.66476140  1
  Cr  Cr44  1  0.50058805  0.83023187  0.83301840  1
  Fe  Fe45  1  0.83188934  0.16646075  0.49735161  1
  Cr  Cr46  1  0.66733743  0.00104743  0.66435522  1
  Fe  Fe47  1  0.83362835  0.16342641  0.83148877  1
  Fe  Fe48  1  0.83182720  0.49641069  0.49886328  1
  Fe  Fe49  1  0.66455899  0.33256485  0.66370533  1
  Cr  Cr50  1  0.83248974  0.49922419  0.83083959  1
  Cr  Cr51  1  0.83308366  0.83129917  0.49882379  1
  Fe  Fe52  1  0.66452046  0.66248819  0.66456275  1
  Fe  Fe53  1  0.83255599  0.83288522  0.83138250  1
" 