761,Fe28Cr72_14,-220.347755714193, 147.919636318835,Fe28Cr72,"# generated using pymatgen
 data_Cr5Fe13
_symmetry_space_group_name_H-M   'P 1'
_cell_length_a   7.49570213
_cell_length_b   7.49570213
_cell_length_c   10.60052361
_cell_angle_alpha   90.00000000
_cell_angle_beta   90.00000000
_cell_angle_gamma   90.00000000
_symmetry_Int_Tables_number   1
_chemical_formula_structural   Cr5Fe13
_chemical_formula_sum   'Cr15 Fe39'
_cell_volume   595.59625437
_cell_formula_units_Z   3
loop_
 _symmetry_equiv_pos_site_id
 _symmetry_equiv_pos_as_xyz
  1  'x, y, z'
loop_
 _atom_site_type_symbol
 _atom_site_label
 _atom_site_symmetry_multiplicity
 _atom_site_fract_x
 _atom_site_fract_y
 _atom_site_fract_z
 _atom_site_occupancy
  Fe  Fe0  1  -0.00166037  -0.00181068  -0.00141641  1
  Cr  Cr1  1  0.16457420  0.16204983  0.16729629  1
  Fe  Fe2  1  0.99668747  0.99466150  0.33022459  1
  Fe  Fe3  1  -0.00182083  0.33145561  -0.00146799  1
  Fe  Fe4  1  0.16698324  0.49950025  0.16311243  1
  Cr  Cr5  1  0.99716385  0.33333336  0.32949828  1
  Fe  Fe6  1  0.00051904  0.66480336  -0.00017386  1
  Fe  Fe7  1  0.16558790  0.83004686  0.16388853  1
  Cr  Cr8  1  0.99685617  0.66345900  0.33181654  1
  Fe  Fe9  1  0.33247172  0.99715274  0.99715240  1
  Fe  Fe10  1  0.49825402  0.16547132  0.16360827  1
  Fe  Fe11  1  0.33083068  0.99481902  0.33113814  1
  Fe  Fe12  1  0.33118632  0.33105046  -0.00124600  1
  Fe  Fe13  1  0.49618777  0.49651960  0.16583362  1
  Fe  Fe14  1  0.33484816  0.33151542  0.32922784  1
  Fe  Fe15  1  0.32916388  0.66561119  -0.00090639  1
  Fe  Fe16  1  0.49441507  0.83259931  0.16495157  1
  Fe  Fe17  1  0.33275493  0.66682719  0.32929608  1
  Fe  Fe18  1  0.66364041  0.00085746  -0.00039426  1
  Fe  Fe19  1  0.82930522  0.16409729  0.16333888  1
  Cr  Cr20  1  0.66097598  0.99647768  0.33103279  1
  Fe  Fe21  1  0.66434334  0.32937533  -0.00055653  1
  Fe  Fe22  1  0.83096310  0.49663268  0.16314841  1
  Fe  Fe23  1  0.66425218  0.33230791  0.32928129  1
  Cr  Cr24  1  0.66357861  0.66704727  0.00294462  1
  Fe  Fe25  1  0.83350261  0.83387402  0.16416329  1
  Fe  Fe26  1  0.66414315  0.66354688  0.32957147  1
  Cr  Cr27  1  0.16557067  0.16215756  0.49395575  1
  Fe  Fe28  1  -0.00069611  0.99637701  0.66531828  1
  Fe  Fe29  1  0.16471145  0.16450785  0.83374920  1
  Cr  Cr30  1  0.16943872  0.49826781  0.49996549  1
  Cr  Cr31  1  -0.00045961  0.33266032  0.66668177  1
  Fe  Fe32  1  0.16454484  0.49996378  0.83276840  1
  Fe  Fe33  1  0.16506640  0.83109413  0.49787904  1
  Fe  Fe34  1  0.00106031  0.66853488  0.66394302  1
  Fe  Fe35  1  0.16619967  0.82990276  0.83268371  1
  Fe  Fe36  1  0.49776047  0.16535318  0.49760834  1
  Cr  Cr37  1  0.33395132  -0.00170855  0.66512877  1
  Fe  Fe38  1  0.50011315  0.16360384  0.83303849  1
  Cr  Cr39  1  0.49877234  0.49748078  0.49644646  1
  Fe  Fe40  1  0.33291191  0.32991449  0.66614386  1
  Cr  Cr41  1  0.49581650  0.49862208  0.83102575  1
  Fe  Fe42  1  0.49565144  0.83248885  0.49659463  1
  Fe  Fe43  1  0.32942819  0.66611798  0.66603465  1
  Fe  Fe44  1  0.49761456  0.83229713  0.83287986  1
  Cr  Cr45  1  0.83175946  0.16182331  0.49905419  1
  Fe  Fe46  1  0.66479174  0.00032886  0.66476553  1
  Fe  Fe47  1  0.83004734  0.16508790  0.83241821  1
  Fe  Fe48  1  0.83158947  0.49750872  0.49840103  1
  Fe  Fe49  1  0.66223235  0.32800821  0.66491232  1
  Cr  Cr50  1  0.82941116  0.49986688  0.83082154  1
  Fe  Fe51  1  0.83318867  0.83077064  0.49831589  1
  Cr  Cr52  1  0.66458667  0.66781409  0.66046074  1
  Cr  Cr53  1  0.83201365  0.83465821  0.83142575  1
" 