3809,Fe28Cr72_0,-220.334007381946, 144.683333810658,Fe28Cr72,"# generated using pymatgen
 data_Cr5Fe13
_symmetry_space_group_name_H-M   'P 1'
_cell_length_a   7.49236810
_cell_length_b   7.49236810
_cell_length_c   10.59580858
_cell_angle_alpha   90.00000000
_cell_angle_beta   90.00000000
_cell_angle_gamma   90.00000000
_symmetry_Int_Tables_number   1
_chemical_formula_structural   Cr5Fe13
_chemical_formula_sum   'Cr15 Fe39'
_cell_volume   594.80185700
_cell_formula_units_Z   3
loop_
 _symmetry_equiv_pos_site_id
 _symmetry_equiv_pos_as_xyz
  1  'x, y, z'
loop_
 _atom_site_type_symbol
 _atom_site_label
 _atom_site_symmetry_multiplicity
 _atom_site_fract_x
 _atom_site_fract_y
 _atom_site_fract_z
 _atom_site_occupancy
  Cr  Cr0  1  0.00028165  0.00079752  0.00187932  1
  Fe  Fe1  1  0.16638530  0.16625135  0.16775340  1
  Fe  Fe2  1  0.99813392  -0.00135093  0.33174188  1
  Fe  Fe3  1  0.99775714  0.33527098  0.00049901  1
  Fe  Fe4  1  0.16431614  0.49678010  0.16666143  1
  Fe  Fe5  1  -0.00114448  0.33256241  0.33245381  1
  Fe  Fe6  1  0.99805134  0.66529097  0.00111849  1
  Fe  Fe7  1  0.16335055  0.83047172  0.16813778  1
  Fe  Fe8  1  0.99743633  0.66330016  0.33101488  1
  Fe  Fe9  1  0.33196276  -0.00164618  0.00068562  1
  Fe  Fe10  1  0.49594465  0.16703619  0.16594611  1
  Fe  Fe11  1  0.33099768  0.00097830  0.33239326  1
  Fe  Fe12  1  0.33000004  0.32923962  0.00003871  1
  Fe  Fe13  1  0.49982437  0.49494592  0.16813406  1
  Fe  Fe14  1  0.33161002  0.33164440  0.33269357  1
  Cr  Cr15  1  0.33407334  0.66032822  -0.00051206  1
  Cr  Cr16  1  0.49620602  0.83292486  0.16882992  1
  Fe  Fe17  1  0.33175147  0.66120811  0.33131438  1
  Cr  Cr18  1  0.66798036  0.99594653  -0.00084081  1
  Cr  Cr19  1  0.82834058  0.16887298  0.16826482  1
  Fe  Fe20  1  0.66503309  -0.00082725  0.33306638  1
  Fe  Fe21  1  0.66366682  0.33311834  0.00033018  1
  Fe  Fe22  1  0.83168407  0.50029268  0.16734853  1
  Fe  Fe23  1  0.66360242  0.33305820  0.33379953  1
  Cr  Cr24  1  0.66615355  0.66307009  0.99741505  1
  Fe  Fe25  1  0.83237041  0.83030618  0.16910986  1
  Fe  Fe26  1  0.66587100  0.66383490  0.33243854  1
  Fe  Fe27  1  0.16422561  0.16482979  0.49526950  1
  Cr  Cr28  1  0.99780908  0.00255948  0.66308321  1
  Fe  Fe29  1  0.16495301  0.16611256  0.83232230  1
  Fe  Fe30  1  0.16321305  0.49592620  0.49556750  1
  Fe  Fe31  1  0.99553200  0.33517072  0.66089331  1
  Cr  Cr32  1  0.16098174  0.49922960  0.83020840  1
  Cr  Cr33  1  0.16735179  0.82780355  0.49628113  1
  Fe  Fe34  1  0.99761032  0.66459601  0.66236728  1
  Cr  Cr35  1  0.16797796  0.83061357  0.83192692  1
  Fe  Fe36  1  0.49860216  0.16391990  0.49662659  1
  Fe  Fe37  1  0.33375494  0.99755656  0.66298298  1
  Cr  Cr38  1  0.49949795  0.16289997  0.83349705  1
  Fe  Fe39  1  0.49962882  0.49792817  0.49468289  1
  Cr  Cr40  1  0.32908749  0.32951612  0.66149068  1
  Fe  Fe41  1  0.49935465  0.49439497  0.83176456  1
  Fe  Fe42  1  0.50082795  0.83230052  0.49454267  1
  Cr  Cr43  1  0.33625412  0.66173288  0.66216625  1
  Fe  Fe44  1  0.49952956  0.83185338  0.83160744  1
  Fe  Fe45  1  0.83059992  0.16624630  0.49587468  1
  Fe  Fe46  1  0.66277827  -0.00084673  0.66247308  1
  Cr  Cr47  1  0.82977388  0.17072563  0.82960007  1
  Fe  Fe48  1  0.83210714  0.49906792  0.49657244  1
  Fe  Fe49  1  0.66415991  0.33213641  0.66087124  1
  Fe  Fe50  1  0.83070283  0.49959568  0.83139164  1
  Fe  Fe51  1  0.83114327  0.83158108  0.49615172  1
  Cr  Cr52  1  0.66539763  0.66576964  0.66611571  1
  Fe  Fe53  1  0.83425777  0.83182715  0.83070651  1
" 