1352,Fe28Cr72_13,-220.133177049495, 145.830641605613,Fe28Cr72,"# generated using pymatgen
 data_Cr5Fe13
_symmetry_space_group_name_H-M   'P 1'
_cell_length_a   7.50621744
_cell_length_b   7.50621744
_cell_length_c   10.61539451
_cell_angle_alpha   90.00000000
_cell_angle_beta   90.00000000
_cell_angle_gamma   90.00000000
_symmetry_Int_Tables_number   1
_chemical_formula_structural   Cr5Fe13
_chemical_formula_sum   'Cr15 Fe39'
_cell_volume   598.10636082
_cell_formula_units_Z   3
loop_
 _symmetry_equiv_pos_site_id
 _symmetry_equiv_pos_as_xyz
  1  'x, y, z'
loop_
 _atom_site_type_symbol
 _atom_site_label
 _atom_site_symmetry_multiplicity
 _atom_site_fract_x
 _atom_site_fract_y
 _atom_site_fract_z
 _atom_site_occupancy
  Fe  Fe0  1  -0.00166293  -0.00246003  0.99627641  1
  Cr  Cr1  1  0.16475760  0.16356558  0.16497193  1
  Fe  Fe2  1  -0.00092659  -0.00205752  0.33128494  1
  Fe  Fe3  1  -0.00203960  0.33129909  0.99572997  1
  Cr  Cr4  1  0.16474837  0.49718014  0.16445697  1
  Fe  Fe5  1  0.99720584  0.33057269  0.33183694  1
  Fe  Fe6  1  -0.00222006  0.66332820  0.99682767  1
  Fe  Fe7  1  0.16515631  0.83105931  0.16423191  1
  Fe  Fe8  1  -0.00222733  0.66365523  0.33015079  1
  Fe  Fe9  1  0.33033424  0.99698249  0.99666992  1
  Cr  Cr10  1  0.49508389  0.16485296  0.16222747  1
  Fe  Fe11  1  0.33014876  0.99681099  0.33144417  1
  Fe  Fe12  1  0.32960065  0.33072815  0.99625961  1
  Fe  Fe13  1  0.49812458  0.49891861  0.16445467  1
  Fe  Fe14  1  0.33144490  0.33112020  0.33241059  1
  Fe  Fe15  1  0.33032751  0.66446099  -0.00219948  1
  Fe  Fe16  1  0.49556836  0.82920610  0.16331193  1
  Fe  Fe17  1  0.33200875  0.66424390  0.33088516  1
  Fe  Fe18  1  0.66350311  0.99681959  0.99698852  1
  Cr  Cr19  1  0.83233476  0.16432357  0.16497409  1
  Cr  Cr20  1  0.66296614  -0.00171920  0.33233276  1
  Cr  Cr21  1  0.66611011  0.33097069  -0.00153937  1
  Fe  Fe22  1  0.83017717  0.49765001  0.16479989  1
  Fe  Fe23  1  0.66352270  0.33242962  0.33110086  1
  Fe  Fe24  1  0.66406402  0.66406579  -0.00147019  1
  Cr  Cr25  1  0.83105644  0.82885237  0.16371013  1
  Fe  Fe26  1  0.66239139  0.66236920  0.33015317  1
  Fe  Fe27  1  0.16316219  0.16572815  0.49662172  1
  Fe  Fe28  1  0.99699012  -0.00112490  0.66461037  1
  Fe  Fe29  1  0.16368960  0.16444625  0.83148111  1
  Fe  Fe30  1  0.16443354  0.49587808  0.49665515  1
  Fe  Fe31  1  -0.00173649  0.33019006  0.66461401  1
  Fe  Fe32  1  0.16237689  0.49717205  0.83145424  1
  Cr  Cr33  1  0.16263508  0.83114324  0.49526323  1
  Fe  Fe34  1  -0.00245774  0.66311099  0.66518817  1
  Fe  Fe35  1  0.16307986  0.83055487  0.83169205  1
  Fe  Fe36  1  0.49754750  0.16500932  0.49723530  1
  Cr  Cr37  1  0.33135577  -0.00186139  0.66365192  1
  Fe  Fe38  1  0.49755681  0.16388849  0.83091447  1
  Fe  Fe39  1  0.49684879  0.49717853  0.49698783  1
  Fe  Fe40  1  0.33017706  0.33016451  0.66349742  1
  Cr  Cr41  1  0.49618878  0.49548536  0.83033495  1
  Fe  Fe42  1  0.49813490  0.82998556  0.49700796  1
  Cr  Cr43  1  0.32918060  0.66314585  0.66279390  1
  Cr  Cr44  1  0.49924095  0.83192414  0.83193337  1
  Fe  Fe45  1  0.83146491  0.16443856  0.49776843  1
  Fe  Fe46  1  0.66444621  -0.00110417  0.66333121  1
  Fe  Fe47  1  0.83093051  0.16457135  0.83034024  1
  Cr  Cr48  1  0.83030950  0.49784309  0.49726797  1
  Fe  Fe49  1  0.66373027  0.32960421  0.66421918  1
  Fe  Fe50  1  0.83222470  0.49705028  0.83000337  1
  Cr  Cr51  1  0.83026178  0.83116173  0.49996710  1
  Fe  Fe52  1  0.66445112  0.66367180  0.66349100  1
  Cr  Cr53  1  0.83132311  0.83062067  0.82849829  1
" 