3732,Fe28Cr72_3,-220.241515994555, 146.723978842665,Fe28Cr72,"# generated using pymatgen
 data_Cr5Fe13
_symmetry_space_group_name_H-M   'P 1'
_cell_length_a   7.49297850
_cell_length_b   7.49297850
_cell_length_c   10.59667181
_cell_angle_alpha   90.00000000
_cell_angle_beta   90.00000000
_cell_angle_gamma   90.00000000
_symmetry_Int_Tables_number   1
_chemical_formula_structural   Cr5Fe13
_chemical_formula_sum   'Cr15 Fe39'
_cell_volume   594.94724334
_cell_formula_units_Z   3
loop_
 _symmetry_equiv_pos_site_id
 _symmetry_equiv_pos_as_xyz
  1  'x, y, z'
loop_
 _atom_site_type_symbol
 _atom_site_label
 _atom_site_symmetry_multiplicity
 _atom_site_fract_x
 _atom_site_fract_y
 _atom_site_fract_z
 _atom_site_occupancy
  Fe  Fe0  1  0.99792481  0.99636382  0.99677694  1
  Cr  Cr1  1  0.16480097  0.16404020  0.16517437  1
  Fe  Fe2  1  -0.00119114  0.99574059  0.33257856  1
  Cr  Cr3  1  0.99811396  0.33225186  0.99658132  1
  Cr  Cr4  1  0.16771196  0.49860008  0.16357627  1
  Fe  Fe5  1  0.99712245  0.33300227  0.33245116  1
  Fe  Fe6  1  0.99755850  0.66716397  0.99798366  1
  Fe  Fe7  1  0.16579724  0.83309091  0.16347461  1
  Cr  Cr8  1  0.00069979  0.66483493  0.33047334  1
  Fe  Fe9  1  0.33148157  0.99738051  0.99659592  1
  Cr  Cr10  1  0.49725816  0.16576300  0.16553399  1
  Fe  Fe11  1  0.33133287  0.99361487  0.33132279  1
  Fe  Fe12  1  0.33104502  0.33096236  0.99653412  1
  Fe  Fe13  1  0.49838441  0.49950204  0.16432935  1
  Fe  Fe14  1  0.33103154  0.33448938  0.33151056  1
  Fe  Fe15  1  0.33142803  0.66667655  0.99813669  1
  Fe  Fe16  1  0.49677267  0.83183998  0.16349888  1
  Fe  Fe17  1  0.33165080  0.66721069  0.33130698  1
  Fe  Fe18  1  0.66537009  0.99629432  0.99686300  1
  Cr  Cr19  1  0.83249287  0.16115908  0.16870761  1
  Fe  Fe20  1  0.66444493  0.99617093  0.33255221  1
  Cr  Cr21  1  0.66564326  0.33089627  -0.00121173  1
  Fe  Fe22  1  0.83139748  0.49810319  0.16432382  1
  Fe  Fe23  1  0.66657224  0.33274937  0.33193511  1
  Fe  Fe24  1  0.66599122  0.66690581  -0.00058976  1
  Fe  Fe25  1  0.83219785  0.83093742  0.16343879  1
  Cr  Cr26  1  0.66445399  0.66506045  0.33044059  1
  Cr  Cr27  1  0.16349354  0.16469772  0.49685272  1
  Fe  Fe28  1  -0.00074493  -0.00109114  0.66690153  1
  Fe  Fe29  1  0.16612189  0.16411318  0.83080275  1
  Fe  Fe30  1  0.16391645  0.49917108  0.49931247  1
  Fe  Fe31  1  -0.00016700  0.33179624  0.66646363  1
  Fe  Fe32  1  0.16417769  0.50009943  0.83078073  1
  Fe  Fe33  1  0.16766667  0.83064869  0.49941713  1
  Fe  Fe34  1  -0.00106910  0.66409924  0.66561618  1
  Fe  Fe35  1  0.16518066  0.83081167  0.83162975  1
  Cr  Cr36  1  0.49711747  0.16530123  0.49628230  1
  Fe  Fe37  1  0.32950654  0.99747700  0.66616222  1
  Fe  Fe38  1  0.49593774  0.16340988  0.83259868  1
  Cr  Cr39  1  0.49685190  0.50007987  0.49846337  1
  Fe  Fe40  1  0.32974417  0.33091271  0.66608843  1
  Cr  Cr41  1  0.49742971  0.49930487  0.83236856  1
  Fe  Fe42  1  0.49538917  0.83210031  0.49844694  1
  Fe  Fe43  1  0.33045776  0.66689156  0.66534063  1
  Fe  Fe44  1  0.49717068  0.83180324  0.83270671  1
  Fe  Fe45  1  0.83214603  0.16597846  0.49635068  1
  Cr  Cr46  1  0.66211148  -0.00133998  0.66591868  1
  Fe  Fe47  1  0.83289261  0.16300860  0.83185466  1
  Fe  Fe48  1  0.83394301  0.49676191  0.49850580  1
  Cr  Cr49  1  0.66717296  0.33080321  0.66503795  1
  Fe  Fe50  1  0.83298089  0.50140325  0.83072317  1
  Cr  Cr51  1  0.83240041  0.83208800  0.50018930  1
  Fe  Fe52  1  0.66517976  0.66522443  0.66573338  1
  Fe  Fe53  1  0.83206562  0.83020181  0.83171386  1
" 