2903,Fe28Cr72_18,-220.223484672225, 151.878755172221,Fe28Cr72,"# generated using pymatgen
 data_Cr5Fe13
_symmetry_space_group_name_H-M   'P 1'
_cell_length_a   7.49268159
_cell_length_b   7.49268159
_cell_length_c   10.59625193
_cell_angle_alpha   90.00000000
_cell_angle_beta   90.00000000
_cell_angle_gamma   90.00000000
_symmetry_Int_Tables_number   1
_chemical_formula_structural   Cr5Fe13
_chemical_formula_sum   'Cr15 Fe39'
_cell_volume   594.87652323
_cell_formula_units_Z   3
loop_
 _symmetry_equiv_pos_site_id
 _symmetry_equiv_pos_as_xyz
  1  'x, y, z'
loop_
 _atom_site_type_symbol
 _atom_site_label
 _atom_site_symmetry_multiplicity
 _atom_site_fract_x
 _atom_site_fract_y
 _atom_site_fract_z
 _atom_site_occupancy
  Fe  Fe0  1  0.99691024  -0.00001799  -0.00111629  1
  Fe  Fe1  1  0.16402574  0.16587458  0.16496103  1
  Cr  Cr2  1  0.99788164  -0.00125643  0.33291109  1
  Fe  Fe3  1  0.99796184  0.33102126  0.99768357  1
  Cr  Cr4  1  0.16547511  0.49761300  0.16544569  1
  Fe  Fe5  1  -0.00111448  0.33193217  0.33219740  1
  Fe  Fe6  1  0.99750654  0.66386361  0.99827057  1
  Cr  Cr7  1  0.16406678  0.83073925  0.16411602  1
  Fe  Fe8  1  0.99737672  0.66402706  0.33256636  1
  Cr  Cr9  1  0.33256837  0.99726379  0.99749359  1
  Fe  Fe10  1  0.49848737  0.16450722  0.16543174  1
  Cr  Cr11  1  0.33252151  0.99803695  0.33220511  1
  Cr  Cr12  1  0.33028546  0.33122500  0.99789156  1
  Fe  Fe13  1  0.49860758  0.49980208  0.16528243  1
  Fe  Fe14  1  0.33103612  0.33191961  0.33194315  1
  Fe  Fe15  1  0.33269531  0.66483410  0.99813963  1
  Fe  Fe16  1  0.50000151  0.83056041  0.16492885  1
  Fe  Fe17  1  0.33254675  0.66404564  0.33267885  1
  Fe  Fe18  1  0.66526478  0.99796607  -0.00138245  1
  Fe  Fe19  1  0.83236083  0.16448410  0.16448729  1
  Fe  Fe20  1  0.66493808  0.99739632  0.33174598  1
  Cr  Cr21  1  0.66772832  0.33187764  0.99784991  1
  Fe  Fe22  1  0.83175867  0.49934077  0.16494053  1
  Cr  Cr23  1  0.66587336  0.33237068  0.33153773  1
  Fe  Fe24  1  0.66466215  0.66588807  -0.00079189  1
  Fe  Fe25  1  0.83036908  0.83104843  0.16434267  1
  Fe  Fe26  1  0.66494428  0.66614619  0.33161254  1
  Fe  Fe27  1  0.16495644  0.16587776  0.49829761  1
  Fe  Fe28  1  -0.00156400  0.99817430  0.66388363  1
  Fe  Fe29  1  0.16402046  0.16589437  0.83161607  1
  Fe  Fe30  1  0.16496650  0.49828518  0.49722835  1
  Cr  Cr31  1  0.99705726  0.33245737  0.66615484  1
  Fe  Fe32  1  0.16343009  0.49795816  0.83223345  1
  Fe  Fe33  1  0.16401216  0.83070680  0.49830317  1
  Fe  Fe34  1  0.99735789  0.66522146  0.66402912  1
  Cr  Cr35  1  0.16352549  0.83126098  0.83198385  1
  Fe  Fe36  1  0.49828790  0.16589902  0.49829370  1
  Cr  Cr37  1  0.33127035  -0.00140560  0.66516713  1
  Fe  Fe38  1  0.49875875  0.16421798  0.83113993  1
  Fe  Fe39  1  0.49827818  0.49826508  0.49843271  1
  Fe  Fe40  1  0.33220548  0.33099739  0.66464314  1
  Cr  Cr41  1  0.49838826  0.49771972  0.83033576  1
  Fe  Fe42  1  0.49921194  0.83070578  0.49736903  1
  Cr  Cr43  1  0.33131608  0.66550254  0.66489316  1
  Fe  Fe44  1  0.49922376  0.83161967  0.83257071  1
  Fe  Fe45  1  0.83162271  0.16494408  0.49829954  1
  Cr  Cr46  1  0.66443907  -0.00103972  0.66447029  1
  Fe  Fe47  1  0.83208990  0.16540996  0.83208505  1
  Fe  Fe48  1  0.83162259  0.49921116  0.49831103  1
  Fe  Fe49  1  0.66422952  0.33207574  0.66450965  1
  Fe  Fe50  1  0.83269823  0.49843170  0.83161933  1
  Fe  Fe51  1  0.83164347  0.83071698  0.49844543  1
  Fe  Fe52  1  0.66588757  0.66403403  0.66404428  1
  Cr  Cr53  1  0.83195184  0.83197606  0.83189491  1
" 