5993,Fe28Cr72_5,-220.301348975475, 146.034217838386,Fe28Cr72,"# generated using pymatgen
 data_Cr5Fe13
_symmetry_space_group_name_H-M   'P 1'
_cell_length_a   7.49690512
_cell_length_b   7.49690512
_cell_length_c   10.60222490
_cell_angle_alpha   90.00000000
_cell_angle_beta   90.00000000
_cell_angle_gamma   90.00000000
_symmetry_Int_Tables_number   1
_chemical_formula_structural   Cr5Fe13
_chemical_formula_sum   'Cr15 Fe39'
_cell_volume   595.88306351
_cell_formula_units_Z   3
loop_
 _symmetry_equiv_pos_site_id
 _symmetry_equiv_pos_as_xyz
  1  'x, y, z'
loop_
 _atom_site_type_symbol
 _atom_site_label
 _atom_site_symmetry_multiplicity
 _atom_site_fract_x
 _atom_site_fract_y
 _atom_site_fract_z
 _atom_site_occupancy
  Fe  Fe0  1  -0.00177995  0.00084603  -0.00115615  1
  Fe  Fe1  1  0.16414656  0.16523087  0.16392954  1
  Fe  Fe2  1  0.99761669  -0.00077389  0.33051692  1
  Fe  Fe3  1  -0.00111523  0.32942238  -0.00172349  1
  Fe  Fe4  1  0.16573513  0.49758851  0.16538264  1
  Fe  Fe5  1  -0.00111811  0.32970150  0.33033743  1
  Cr  Cr6  1  0.99731340  0.66371095  0.99690167  1
  Fe  Fe7  1  0.16292343  0.83152001  0.16476792  1
  Fe  Fe8  1  0.99768731  0.66485163  0.32976774  1
  Fe  Fe9  1  0.33003431  0.00068364  -0.00112967  1
  Fe  Fe10  1  0.49643636  0.16649872  0.16508670  1
  Cr  Cr11  1  0.33179493  0.00104854  0.33191409  1
  Fe  Fe12  1  0.32873141  0.33047963  -0.00124575  1
  Fe  Fe13  1  0.49698517  0.49679297  0.16533586  1
  Fe  Fe14  1  0.33165703  0.33290096  0.33157778  1
  Fe  Fe15  1  0.33190544  0.66305386  -0.00147139  1
  Cr  Cr16  1  0.49619941  0.82895494  0.16197550  1
  Fe  Fe17  1  0.33192353  0.66210533  0.33128358  1
  Cr  Cr18  1  0.66535699  -0.00163463  0.99694767  1
  Fe  Fe19  1  0.83352211  0.16503776  0.16549808  1
  Cr  Cr20  1  0.66651088  -0.00077566  0.33244845  1
  Cr  Cr21  1  0.66435950  0.33037740  0.00032725  1
  Fe  Fe22  1  0.83119204  0.49837822  0.16665950  1
  Fe  Fe23  1  0.66331316  0.33176240  0.32991905  1
  Fe  Fe24  1  0.66566418  0.66443279  0.99791360  1
  Fe  Fe25  1  0.83307314  0.83082832  0.16540795  1
  Fe  Fe26  1  0.66415571  0.66369300  0.33131981  1
  Fe  Fe27  1  0.16272470  0.16756548  0.49700212  1
  Cr  Cr28  1  0.99574209  -0.00131145  0.66356114  1
  Fe  Fe29  1  0.16479167  0.16675171  0.83271748  1
  Fe  Fe30  1  0.16450877  0.49577802  0.49496033  1
  Fe  Fe31  1  0.99725030  0.33075261  0.66563550  1
  Fe  Fe32  1  0.16424554  0.49480625  0.83279061  1
  Cr  Cr33  1  0.16527176  0.83240293  0.49526093  1
  Cr  Cr34  1  -0.00128998  0.66253513  0.66576099  1
  Cr  Cr35  1  0.16786935  0.83439725  0.83360000  1
  Fe  Fe36  1  0.49935283  0.16580899  0.49880104  1
  Fe  Fe37  1  0.33381887  -0.00164019  0.66403462  1
  Fe  Fe38  1  0.49655206  0.16268431  0.83050614  1
  Fe  Fe39  1  0.49751454  0.49754266  0.49589452  1
  Cr  Cr40  1  0.32997254  0.33031491  0.66300737  1
  Cr  Cr41  1  0.49989290  0.49836956  0.83389229  1
  Fe  Fe42  1  0.50016965  0.83101538  0.49760458  1
  Cr  Cr43  1  0.33040467  0.66316444  0.66289404  1
  Fe  Fe44  1  0.49836692  0.83355065  0.83233650  1
  Fe  Fe45  1  0.83175969  0.16472324  0.49793094  1
  Fe  Fe46  1  0.66228104  0.00000125  0.66458104  1
  Fe  Fe47  1  0.83200834  0.16601717  0.83077433  1
  Cr  Cr48  1  0.83013180  0.49473129  0.49808387  1
  Fe  Fe49  1  0.66589874  0.32884449  0.66541659  1
  Fe  Fe50  1  0.83294580  0.49551459  0.83152406  1
  Fe  Fe51  1  0.83061831  0.83154161  0.49677245  1
  Cr  Cr52  1  0.66553050  0.66762292  0.66650085  1
  Fe  Fe53  1  0.82991064  0.83226721  0.83213192  1
" 