5456,Fe28Cr72_1,-220.252967530829, 150.131190369669,Fe28Cr72,"# generated using pymatgen
 data_Cr5Fe13
_symmetry_space_group_name_H-M   'P 1'
_cell_length_a   7.49714303
_cell_length_b   7.49714303
_cell_length_c   10.60256135
_cell_angle_alpha   90.00000000
_cell_angle_beta   90.00000000
_cell_angle_gamma   90.00000000
_symmetry_Int_Tables_number   1
_chemical_formula_structural   Cr5Fe13
_chemical_formula_sum   'Cr15 Fe39'
_cell_volume   595.93979445
_cell_formula_units_Z   3
loop_
 _symmetry_equiv_pos_site_id
 _symmetry_equiv_pos_as_xyz
  1  'x, y, z'
loop_
 _atom_site_type_symbol
 _atom_site_label
 _atom_site_symmetry_multiplicity
 _atom_site_fract_x
 _atom_site_fract_y
 _atom_site_fract_z
 _atom_site_occupancy
  Fe  Fe0  1  -0.00143300  -0.00199894  0.99781942  1
  Fe  Fe1  1  0.16389922  0.16138003  0.16374733  1
  Cr  Cr2  1  0.99747800  0.99733609  0.33273001  1
  Fe  Fe3  1  0.99645199  0.33028170  0.99788835  1
  Cr  Cr4  1  0.15812317  0.49796905  0.16716175  1
  Fe  Fe5  1  0.99666526  0.32893041  0.33008454  1
  Fe  Fe6  1  0.99578679  0.66537321  0.99774975  1
  Fe  Fe7  1  0.16350036  0.83252620  0.16439652  1
  Fe  Fe8  1  0.99629717  0.66564164  0.33090467  1
  Fe  Fe9  1  0.32968253  -0.00101575  -0.00162489  1
  Fe  Fe10  1  0.49975975  0.16472906  0.16400071  1
  Fe  Fe11  1  0.33042058  0.99798875  0.33170956  1
  Cr  Cr12  1  0.33370207  0.33104955  -0.00015717  1
  Fe  Fe13  1  0.50024041  0.50104667  0.16444263  1
  Cr  Cr14  1  0.33167992  0.33256310  0.32828002  1
  Cr  Cr15  1  0.33125454  0.66367212  0.99795444  1
  Cr  Cr16  1  0.49971820  0.83609536  0.16663498  1
  Fe  Fe17  1  0.33111976  0.66693909  0.33139133  1
  Fe  Fe18  1  0.66627675  0.00051779  0.99779202  1
  Fe  Fe19  1  0.83147869  0.16406104  0.16307124  1
  Fe  Fe20  1  0.66579809  0.99776629  0.33228532  1
  Fe  Fe21  1  0.66663928  0.33190916  -0.00137575  1
  Fe  Fe22  1  0.82836376  0.49965653  0.16391563  1
  Cr  Cr23  1  0.66353165  0.33297682  0.32995466  1
  Fe  Fe24  1  0.66619524  0.66409434  0.99750583  1
  Fe  Fe25  1  0.83299843  0.83045760  0.16355557  1
  Fe  Fe26  1  0.66541858  0.66648433  0.33213992  1
  Fe  Fe27  1  0.16469177  0.16530853  0.49861855  1
  Cr  Cr28  1  -0.00049615  0.99714326  0.66426558  1
  Fe  Fe29  1  0.16579966  0.16298652  0.83198311  1
  Cr  Cr30  1  0.16239094  0.49774133  0.49901850  1
  Fe  Fe31  1  0.99519346  0.32853332  0.66586418  1
  Cr  Cr32  1  0.15980268  0.49761885  0.82778530  1
  Fe  Fe33  1  0.16674579  0.83121013  0.49793051  1
  Fe  Fe34  1  0.99666358  0.66705866  0.66509913  1
  Fe  Fe35  1  0.16361342  0.83239212  0.83235330  1
  Cr  Cr36  1  0.49918802  0.15894294  0.49918740  1
  Fe  Fe37  1  0.33119462  0.99730100  0.66472182  1
  Fe  Fe38  1  0.49889081  0.16740515  0.83027535  1
  Fe  Fe39  1  0.49711507  0.49772592  0.49857626  1
  Fe  Fe40  1  0.33263600  0.32988492  0.66512128  1
  Fe  Fe41  1  0.49849371  0.49691132  0.83076473  1
  Fe  Fe42  1  0.49662725  0.82745420  0.49633952  1
  Fe  Fe43  1  0.33007484  0.66701443  0.66474899  1
  Cr  Cr44  1  0.49849561  0.83646791  0.83184127  1
  Fe  Fe45  1  0.83369254  0.16575180  0.49736068  1
  Cr  Cr46  1  0.67050516  0.99704513  0.66216071  1
  Fe  Fe47  1  0.83159828  0.16564899  0.83318263  1
  Cr  Cr48  1  0.83483734  0.49634594  0.49812798  1
  Fe  Fe49  1  0.66544591  0.33002844  0.66555755  1
  Fe  Fe50  1  0.82881366  0.49712184  0.83212371  1
  Fe  Fe51  1  0.83143311  0.82961885  0.49617659  1
  Cr  Cr52  1  0.66348529  0.66239632  0.66463034  1
  Fe  Fe53  1  0.83363563  0.83012613  0.83384183  1
" 