4376,Fe28Cr72_9,-220.292995509833, 149.291141397998,Fe28Cr72,"# generated using pymatgen
 data_Cr5Fe13
_symmetry_space_group_name_H-M   'P 1'
_cell_length_a   7.49689915
_cell_length_b   7.49689915
_cell_length_c   10.60221646
_cell_angle_alpha   90.00000000
_cell_angle_beta   90.00000000
_cell_angle_gamma   90.00000000
_symmetry_Int_Tables_number   1
_chemical_formula_structural   Cr5Fe13
_chemical_formula_sum   'Cr15 Fe39'
_cell_volume   595.88163951
_cell_formula_units_Z   3
loop_
 _symmetry_equiv_pos_site_id
 _symmetry_equiv_pos_as_xyz
  1  'x, y, z'
loop_
 _atom_site_type_symbol
 _atom_site_label
 _atom_site_symmetry_multiplicity
 _atom_site_fract_x
 _atom_site_fract_y
 _atom_site_fract_z
 _atom_site_occupancy
  Fe  Fe0  1  -0.00189614  0.00163574  -0.00180147  1
  Fe  Fe1  1  0.16397875  0.16461644  0.16385013  1
  Fe  Fe2  1  -0.00147133  0.99722267  0.33226850  1
  Fe  Fe3  1  -0.00076682  0.33042200  -0.00062092  1
  Fe  Fe4  1  0.16579779  0.49738719  0.16376622  1
  Cr  Cr5  1  0.99638581  0.32983881  0.32640959  1
  Fe  Fe6  1  0.99726597  0.66153377  -0.00118194  1
  Cr  Cr7  1  0.16363123  0.83029388  0.16620066  1
  Fe  Fe8  1  0.99649200  0.66550802  0.33217202  1
  Fe  Fe9  1  0.33025548  -0.00040866  -0.00097005  1
  Cr  Cr10  1  0.49716883  0.16567808  0.16675634  1
  Fe  Fe11  1  0.33037735  0.99725534  0.33216958  1
  Fe  Fe12  1  0.32991151  0.33163925  -0.00120818  1
  Fe  Fe13  1  0.49743426  0.50088157  0.16542779  1
  Fe  Fe14  1  0.33317125  0.33224158  0.33091858  1
  Fe  Fe15  1  0.33246113  0.66267867  -0.00066833  1
  Fe  Fe16  1  0.49729444  0.82933209  0.16367328  1
  Fe  Fe17  1  0.33317656  0.66475011  0.33171862  1
  Fe  Fe18  1  0.66530079  -0.00093041  -0.00045793  1
  Fe  Fe19  1  0.83302923  0.16420450  0.16359589  1
  Cr  Cr20  1  0.66517031  0.99795222  0.33246515  1
  Cr  Cr21  1  0.66770696  0.33252338  0.99800464  1
  Fe  Fe22  1  0.83103630  0.49853317  0.16455965  1
  Fe  Fe23  1  0.66390867  0.33367755  0.33189611  1
  Fe  Fe24  1  0.66402495  0.66325886  -0.00109980  1
  Cr  Cr25  1  0.83048360  0.83005339  0.16302665  1
  Fe  Fe26  1  0.66433323  0.66231312  0.33242113  1
  Cr  Cr27  1  0.16745971  0.16469792  0.49851938  1
  Fe  Fe28  1  0.99688961  -0.00172946  0.66369583  1
  Fe  Fe29  1  0.16307057  0.16387584  0.83092590  1
  Cr  Cr30  1  0.16371577  0.49921882  0.49718859  1
  Fe  Fe31  1  0.99562584  0.33103438  0.66492822  1
  Cr  Cr32  1  0.16333415  0.49588705  0.83130637  1
  Fe  Fe33  1  0.16376046  0.83218041  0.49707661  1
  Fe  Fe34  1  0.99620991  0.66462209  0.66309371  1
  Cr  Cr35  1  0.16253434  0.83107557  0.83014692  1
  Fe  Fe36  1  0.49904022  0.16604492  0.49879622  1
  Fe  Fe37  1  0.33204030  -0.00164313  0.66347515  1
  Cr  Cr38  1  0.49781163  0.16583021  0.82786808  1
  Fe  Fe39  1  0.49907957  0.49590196  0.49641897  1
  Fe  Fe40  1  0.33287586  0.33109390  0.66432489  1
  Fe  Fe41  1  0.49847127  0.49804648  0.83223425  1
  Fe  Fe42  1  0.49667761  0.83214911  0.49735183  1
  Cr  Cr43  1  0.33231098  0.66618967  0.66450780  1
  Cr  Cr44  1  0.49980924  0.83383462  0.83680115  1
  Fe  Fe45  1  0.83091222  0.16556748  0.49929085  1
  Fe  Fe46  1  0.66531127  -0.00098274  0.66211171  1
  Fe  Fe47  1  0.83389573  0.16507204  0.83043437  1
  Fe  Fe48  1  0.83038511  0.49717983  0.49753529  1
  Fe  Fe49  1  0.66552610  0.33093905  0.66387482  1
  Fe  Fe50  1  0.83120159  0.49677584  0.83115430  1
  Fe  Fe51  1  0.83352201  0.83110395  0.49809842  1
  Cr  Cr52  1  0.66376871  0.66341330  0.66498308  1
  Cr  Cr53  1  0.83158814  0.83101857  0.83305539  1
" 