5407,Fe30Cr70_9,-220.053134848031, 144.32799938977,Fe30Cr70,"# generated using pymatgen
 data_Cr8Fe19
_symmetry_space_group_name_H-M   'P 1'
_cell_length_a   7.50173442
_cell_length_b   7.50173442
_cell_length_c   10.60905456
_cell_angle_alpha   90.00000000
_cell_angle_beta   90.00000000
_cell_angle_gamma   90.00000000
_symmetry_Int_Tables_number   1
_chemical_formula_structural   Cr8Fe19
_chemical_formula_sum   'Cr16 Fe38'
_cell_volume   597.03535965
_cell_formula_units_Z   2
loop_
 _symmetry_equiv_pos_site_id
 _symmetry_equiv_pos_as_xyz
  1  'x, y, z'
loop_
 _atom_site_type_symbol
 _atom_site_label
 _atom_site_symmetry_multiplicity
 _atom_site_fract_x
 _atom_site_fract_y
 _atom_site_fract_z
 _atom_site_occupancy
  Fe  Fe0  1  0.99508568  -0.00056716  0.99630153  1
  Cr  Cr1  1  0.16103351  0.16426203  0.16529248  1
  Cr  Cr2  1  0.99524368  0.99612619  0.33065330  1
  Fe  Fe3  1  0.99592438  0.32859415  0.99687297  1
  Cr  Cr4  1  0.16303394  0.49856039  0.16491825  1
  Fe  Fe5  1  0.99535045  0.33342664  0.33209083  1
  Cr  Cr6  1  0.99516001  0.66514005  -0.00121333  1
  Cr  Cr7  1  0.16557033  0.83021970  0.16376288  1
  Fe  Fe8  1  0.99625423  0.66213392  0.33207795  1
  Cr  Cr9  1  0.33259431  -0.00127008  -0.00159580  1
  Fe  Fe10  1  0.50167865  0.16352457  0.16413488  1
  Cr  Cr11  1  0.33519893  0.00079736  0.33111128  1
  Cr  Cr12  1  0.33189793  0.33025693  0.99536652  1
  Cr  Cr13  1  0.50035737  0.49818288  0.16063252  1
  Cr  Cr14  1  0.33220568  0.32854083  0.33378754  1
  Fe  Fe15  1  0.33279586  0.66519009  0.99522480  1
  Fe  Fe16  1  0.50077335  0.83221348  0.16320106  1
  Cr  Cr17  1  0.33198968  0.66376050  0.33099233  1
  Fe  Fe18  1  0.66606960  -0.00223961  0.99752239  1
  Fe  Fe19  1  0.82851500  0.16551282  0.16379971  1
  Fe  Fe20  1  0.66348882  -0.00131703  0.33041607  1
  Fe  Fe21  1  0.66603924  0.32881010  0.99749782  1
  Fe  Fe22  1  0.83130751  0.49584412  0.16413928  1
  Fe  Fe23  1  0.66535726  0.32957521  0.33086338  1
  Fe  Fe24  1  0.66255185  0.66633067  0.99736005  1
  Fe  Fe25  1  0.82881255  0.83171414  0.16351154  1
  Cr  Cr26  1  0.66894988  0.66522218  0.33285008  1
  Fe  Fe27  1  0.16446909  0.16595982  0.49991974  1
  Fe  Fe28  1  -0.00230145  -0.00088768  0.66558156  1
  Fe  Fe29  1  0.16259353  0.16439170  0.82969358  1
  Fe  Fe30  1  0.16329396  0.49519850  0.49832249  1
  Fe  Fe31  1  -0.00086885  0.32985226  0.66464588  1
  Fe  Fe32  1  0.16547775  0.49762364  0.83025597  1
  Cr  Cr33  1  0.16571937  0.83142950  0.49715421  1
  Cr  Cr34  1  0.99462859  0.66482926  0.66173581  1
  Fe  Fe35  1  0.16463982  0.83132714  0.83023739  1
  Fe  Fe36  1  0.49789277  0.16394225  0.50000533  1
  Fe  Fe37  1  0.33155292  -0.00173639  0.66523596  1
  Fe  Fe38  1  0.49980198  0.16449058  0.82929804  1
  Fe  Fe39  1  0.49871076  0.49704815  0.49981472  1
  Fe  Fe40  1  0.33084052  0.33126542  0.66444271  1
  Fe  Fe41  1  0.49692007  0.49858294  0.83035724  1
  Fe  Fe42  1  0.50021597  0.83211509  0.49994272  1
  Fe  Fe43  1  0.33281405  0.66356537  0.66481927  1
  Fe  Fe44  1  0.49876049  0.83011491  0.83026468  1
  Cr  Cr45  1  0.82978505  0.16549778  0.49905283  1
  Fe  Fe46  1  0.66393997  0.99663601  0.66521487  1
  Fe  Fe47  1  0.83084307  0.16250692  0.83053209  1
  Fe  Fe48  1  0.83109716  0.49745719  0.49811755  1
  Fe  Fe49  1  0.66286760  0.33132829  0.66437879  1
  Cr  Cr50  1  0.82775570  0.49457495  0.83155662  1
  Fe  Fe51  1  0.82885514  0.83127693  0.49867490  1
  Fe  Fe52  1  0.66205184  0.66492607  0.66348321  1
  Fe  Fe53  1  0.82955980  0.83329469  0.83084591  1
" 