6537,Fe30Cr70_14,-220.048791310904, 148.779929667226,Fe30Cr70,"# generated using pymatgen
 data_Cr8Fe19
_symmetry_space_group_name_H-M   'P 1'
_cell_length_a   7.50105804
_cell_length_b   7.50105804
_cell_length_c   10.60809802
_cell_angle_alpha   90.00000000
_cell_angle_beta   90.00000000
_cell_angle_gamma   90.00000000
_symmetry_Int_Tables_number   1
_chemical_formula_structural   Cr8Fe19
_chemical_formula_sum   'Cr16 Fe38'
_cell_volume   596.87388284
_cell_formula_units_Z   2
loop_
 _symmetry_equiv_pos_site_id
 _symmetry_equiv_pos_as_xyz
  1  'x, y, z'
loop_
 _atom_site_type_symbol
 _atom_site_label
 _atom_site_symmetry_multiplicity
 _atom_site_fract_x
 _atom_site_fract_y
 _atom_site_fract_z
 _atom_site_occupancy
  Cr  Cr0  1  0.99764720  -0.00204256  0.99760947  1
  Fe  Fe1  1  0.16424464  0.16728425  0.16504575  1
  Fe  Fe2  1  0.99647709  -0.00082699  0.32987340  1
  Fe  Fe3  1  -0.00217726  0.33084749  0.99767010  1
  Fe  Fe4  1  0.16406805  0.49591615  0.16510382  1
  Fe  Fe5  1  0.99700817  0.33140824  0.33055974  1
  Cr  Cr6  1  -0.00203526  0.66211711  -0.00126010  1
  Cr  Cr7  1  0.16347271  0.83021065  0.16687066  1
  Fe  Fe8  1  -0.00161974  0.66258658  0.33068502  1
  Cr  Cr9  1  0.33223760  0.00009314  0.99710739  1
  Fe  Fe10  1  0.49814147  0.16600446  0.16358371  1
  Cr  Cr11  1  0.33192284  0.00008734  0.33144802  1
  Fe  Fe12  1  0.32994624  0.33195777  0.99692468  1
  Cr  Cr13  1  0.49715982  0.49589328  0.16304966  1
  Fe  Fe14  1  0.33132842  0.33222190  0.33134492  1
  Fe  Fe15  1  0.33016640  0.66327879  0.99600791  1
  Cr  Cr16  1  0.49807600  0.82981143  0.16317966  1
  Fe  Fe17  1  0.33062784  0.66220655  0.33211956  1
  Fe  Fe18  1  0.66529860  -0.00068836  0.99706942  1
  Fe  Fe19  1  0.83091348  0.16569443  0.16422292  1
  Cr  Cr20  1  0.66350116  -0.00009937  0.32979598  1
  Fe  Fe21  1  0.66529287  0.32907059  0.99686051  1
  Fe  Fe22  1  0.83226292  0.49628324  0.16507209  1
  Fe  Fe23  1  0.66465425  0.33051961  0.33190849  1
  Cr  Cr24  1  0.66624160  0.66421891  0.99504751  1
  Fe  Fe25  1  0.83106358  0.83120256  0.16516874  1
  Cr  Cr26  1  0.66607616  0.66288780  0.33372165  1
  Cr  Cr27  1  0.16264806  0.16506778  0.49972070  1
  Fe  Fe28  1  0.99773182  -0.00079595  0.66649899  1
  Fe  Fe29  1  0.16436584  0.16569396  0.82965578  1
  Fe  Fe30  1  0.16468451  0.49742309  0.49723585  1
  Fe  Fe31  1  -0.00206061  0.33036982  0.66524206  1
  Fe  Fe32  1  0.16562381  0.49636930  0.83114218  1
  Cr  Cr33  1  0.16475211  0.83141566  0.49764511  1
  Cr  Cr34  1  0.99746634  0.66219932  0.66575791  1
  Fe  Fe35  1  0.16550601  0.83105084  0.83008196  1
  Fe  Fe36  1  0.49741793  0.16531804  0.49776757  1
  Fe  Fe37  1  0.33090474  -0.00219429  0.66570979  1
  Fe  Fe38  1  0.49747908  0.16552397  0.83133558  1
  Fe  Fe39  1  0.49597749  0.49784029  0.49760069  1
  Fe  Fe40  1  0.33061180  0.33178848  0.66505562  1
  Fe  Fe41  1  0.49662099  0.49734095  0.83111649  1
  Fe  Fe42  1  0.49654253  0.83017287  0.49867209  1
  Fe  Fe43  1  0.33309745  0.66372027  0.66497673  1
  Fe  Fe44  1  0.49701151  0.83048739  0.83067019  1
  Fe  Fe45  1  0.83171292  0.16575583  0.49710752  1
  Cr  Cr46  1  0.66252938  -0.00214111  0.66447060  1
  Fe  Fe47  1  0.83136042  0.16526029  0.83133310  1
  Fe  Fe48  1  0.83267295  0.49590371  0.49729887  1
  Cr  Cr49  1  0.66455792  0.33217572  0.66214300  1
  Fe  Fe50  1  0.83102612  0.49598146  0.83091403  1
  Cr  Cr51  1  0.83181546  0.83205999  0.49751344  1
  Fe  Fe52  1  0.66278751  0.66387390  0.66492181  1
  Fe  Fe53  1  0.83073876  0.83177316  0.83020136  1
" 