3375,Fe30Cr70_2,-220.404093712354, 143.954086553267,Fe30Cr70,"# generated using pymatgen
 data_Cr8Fe19
_symmetry_space_group_name_H-M   'P 1'
_cell_length_a   7.50869554
_cell_length_b   7.50869554
_cell_length_c   10.61889907
_cell_angle_alpha   90.00000000
_cell_angle_beta   90.00000000
_cell_angle_gamma   90.00000000
_symmetry_Int_Tables_number   1
_chemical_formula_structural   Cr8Fe19
_chemical_formula_sum   'Cr16 Fe38'
_cell_volume   598.69893224
_cell_formula_units_Z   2
loop_
 _symmetry_equiv_pos_site_id
 _symmetry_equiv_pos_as_xyz
  1  'x, y, z'
loop_
 _atom_site_type_symbol
 _atom_site_label
 _atom_site_symmetry_multiplicity
 _atom_site_fract_x
 _atom_site_fract_y
 _atom_site_fract_z
 _atom_site_occupancy
  Fe  Fe0  1  -0.00201538  0.99645922  0.99687074  1
  Fe  Fe1  1  0.16685911  0.16395751  0.16239010  1
  Cr  Cr2  1  0.99686170  0.99705849  0.33170948  1
  Fe  Fe3  1  -0.00247053  0.33068559  -0.00196925  1
  Fe  Fe4  1  0.16385296  0.49573503  0.16171957  1
  Cr  Cr5  1  -0.00161065  0.33027958  0.32818664  1
  Fe  Fe6  1  0.99562846  0.66432630  -0.00229043  1
  Cr  Cr7  1  0.16544598  0.82869059  0.16395123  1
  Cr  Cr8  1  0.99577140  0.66399120  0.32866268  1
  Fe  Fe9  1  0.33068576  -0.00198485  0.99613672  1
  Fe  Fe10  1  0.49513806  0.16348226  0.16329769  1
  Fe  Fe11  1  0.33161307  -0.00122063  0.33190357  1
  Fe  Fe12  1  0.33079284  0.32888897  0.99677039  1
  Cr  Cr13  1  0.49426151  0.49753879  0.16431491  1
  Fe  Fe14  1  0.33067367  0.32865539  0.33060214  1
  Fe  Fe15  1  0.33148709  0.66485721  0.99598361  1
  Cr  Cr16  1  0.49771170  0.83214776  0.16518687  1
  Fe  Fe17  1  0.33089300  0.66436190  0.33181086  1
  Fe  Fe18  1  0.66294140  0.99633666  0.99594924  1
  Cr  Cr19  1  0.82855970  0.16221460  0.16322628  1
  Fe  Fe20  1  0.66337592  -0.00232483  0.33263613  1
  Fe  Fe21  1  0.66296419  0.33124660  0.99688790  1
  Fe  Fe22  1  0.83005707  0.49829156  0.16142364  1
  Cr  Cr23  1  0.66322292  0.33007439  0.33277912  1
  Fe  Fe24  1  0.66453173  0.66408669  0.99652777  1
  Fe  Fe25  1  0.82997107  0.83006460  0.16167064  1
  Cr  Cr26  1  0.66446297  0.66562194  0.33156996  1
  Fe  Fe27  1  0.16558221  0.16209329  0.49733549  1
  Fe  Fe28  1  -0.00054490  0.99517765  0.66316182  1
  Fe  Fe29  1  0.16444367  0.16203433  0.83175203  1
  Cr  Cr30  1  0.16518016  0.49899090  0.49452503  1
  Cr  Cr31  1  -0.00256985  0.33011863  0.66243046  1
  Cr  Cr32  1  0.16377153  0.49874201  0.83258636  1
  Fe  Fe33  1  0.16471220  0.83236157  0.49762130  1
  Fe  Fe34  1  0.99581040  0.66578075  0.66373286  1
  Fe  Fe35  1  0.16286657  0.83296947  0.83155848  1
  Fe  Fe36  1  0.49573100  0.16290282  0.49692676  1
  Fe  Fe37  1  0.32916004  -0.00269682  0.66421670  1
  Fe  Fe38  1  0.49641808  0.16352632  0.83200693  1
  Fe  Fe39  1  0.49797952  0.49756877  0.49769536  1
  Cr  Cr40  1  0.33181976  0.32914652  0.66504835  1
  Fe  Fe41  1  0.49999091  0.49699372  0.83213485  1
  Fe  Fe42  1  0.49580134  0.83121731  0.49622746  1
  Cr  Cr43  1  0.33243919  0.66575214  0.66469465  1
  Fe  Fe44  1  0.49764898  0.83088457  0.83221529  1
  Fe  Fe45  1  0.83029876  0.16336766  0.49788962  1
  Cr  Cr46  1  0.66246900  0.99588098  0.66277570  1
  Cr  Cr47  1  0.83010349  0.16391245  0.82960958  1
  Fe  Fe48  1  0.82951283  0.49812548  0.49866241  1
  Fe  Fe49  1  0.66298180  0.33227211  0.66300599  1
  Fe  Fe50  1  0.82918088  0.49870673  0.83102258  1
  Fe  Fe51  1  0.83126198  0.82995198  0.49868819  1
  Fe  Fe52  1  0.66518113  0.66215940  0.66380476  1
  Fe  Fe53  1  0.83134367  0.82877777  0.83100387  1
" 