361,Fe30Cr70_8,-219.868191485427, 153.728870635365,Fe30Cr70,"# generated using pymatgen
 data_Cr8Fe19
_symmetry_space_group_name_H-M   'P 1'
_cell_length_a   7.49039442
_cell_length_b   7.49039442
_cell_length_c   10.59301738
_cell_angle_alpha   90.00000000
_cell_angle_beta   90.00000000
_cell_angle_gamma   90.00000000
_symmetry_Int_Tables_number   1
_chemical_formula_structural   Cr8Fe19
_chemical_formula_sum   'Cr16 Fe38'
_cell_volume   594.33192466
_cell_formula_units_Z   2
loop_
 _symmetry_equiv_pos_site_id
 _symmetry_equiv_pos_as_xyz
  1  'x, y, z'
loop_
 _atom_site_type_symbol
 _atom_site_label
 _atom_site_symmetry_multiplicity
 _atom_site_fract_x
 _atom_site_fract_y
 _atom_site_fract_z
 _atom_site_occupancy
  Fe  Fe0  1  0.99624181  0.99791905  0.99805689  1
  Cr  Cr1  1  0.16444331  0.16435819  0.16417775  1
  Fe  Fe2  1  -0.00019990  0.99620088  0.33337891  1
  Fe  Fe3  1  -0.00154531  0.33361984  0.99790966  1
  Fe  Fe4  1  0.16713562  0.49928304  0.16560509  1
  Cr  Cr5  1  -0.00023753  0.33278564  0.33312374  1
  Cr  Cr6  1  -0.00089070  0.66445337  -0.00042521  1
  Fe  Fe7  1  0.16426395  0.83156738  0.16571174  1
  Fe  Fe8  1  0.99839618  0.66721562  0.33196719  1
  Fe  Fe9  1  0.33252109  0.99806102  0.99822037  1
  Cr  Cr10  1  0.49730279  0.16585228  0.16504865  1
  Fe  Fe11  1  0.32849098  0.99737802  0.33309874  1
  Fe  Fe12  1  0.33055819  0.33503970  0.99766639  1
  Fe  Fe13  1  0.49702794  0.49793376  0.16709913  1
  Fe  Fe14  1  0.33150222  0.33271259  0.33167843  1
  Fe  Fe15  1  0.33205401  0.66208469  -0.00093026  1
  Cr  Cr16  1  0.49740470  0.82970030  0.16574397  1
  Fe  Fe17  1  0.32938589  0.66522623  0.33187567  1
  Fe  Fe18  1  0.66634419  0.99779197  0.99729004  1
  Cr  Cr19  1  0.83332087  0.16543465  0.16441661  1
  Cr  Cr20  1  0.66449811  0.99804040  0.33232286  1
  Cr  Cr21  1  0.66353177  0.33156121  0.99769691  1
  Fe  Fe22  1  0.83136041  0.49942653  0.16683695  1
  Fe  Fe23  1  0.66573275  0.33370884  0.33104020  1
  Cr  Cr24  1  0.66618522  0.66502689  -0.00155112  1
  Fe  Fe25  1  0.83392703  0.83192913  0.16639374  1
  Fe  Fe26  1  0.66753479  0.66367535  0.33151985  1
  Fe  Fe27  1  0.16461054  0.16470574  0.49952733  1
  Fe  Fe28  1  0.99706943  -0.00082587  0.66366337  1
  Cr  Cr29  1  0.16288937  0.16604671  0.83237688  1
  Fe  Fe30  1  0.16600090  0.49829099  0.49856264  1
  Fe  Fe31  1  0.99742520  0.33102278  0.66381196  1
  Fe  Fe32  1  0.16669433  0.49778298  0.83168004  1
  Fe  Fe33  1  0.16642052  0.83221372  0.49814691  1
  Cr  Cr34  1  -0.00055056  0.66407980  0.66448055  1
  Cr  Cr35  1  0.16545921  0.83133653  0.83279295  1
  Cr  Cr36  1  0.49832593  0.16621797  0.49865187  1
  Fe  Fe37  1  0.33102221  0.99802012  0.66386808  1
  Fe  Fe38  1  0.49809835  0.16509217  0.83057462  1
  Cr  Cr39  1  0.49962711  0.49995233  0.49698435  1
  Fe  Fe40  1  0.33105392  0.33327450  0.66544325  1
  Fe  Fe41  1  0.49563950  0.49649060  0.83067459  1
  Fe  Fe42  1  0.49677934  0.83162484  0.49863551  1
  Fe  Fe43  1  0.33114017  0.66411456  0.66397969  1
  Cr  Cr44  1  0.49820841  0.83115685  0.83036439  1
  Fe  Fe45  1  0.83282258  0.16554116  0.49964966  1
  Fe  Fe46  1  0.66703168  0.00000163  0.66452824  1
  Fe  Fe47  1  0.83085293  0.16369199  0.83120031  1
  Fe  Fe48  1  0.83196224  0.49777018  0.49809351  1
  Fe  Fe49  1  0.66663553  0.33100906  0.66665674  1
  Fe  Fe50  1  0.83321949  0.49633255  0.83129714  1
  Fe  Fe51  1  0.83216688  0.83201098  0.49795875  1
  Cr  Cr52  1  0.66598861  0.66587226  0.66557910  1
  Fe  Fe53  1  0.83295949  0.83503000  0.83168838  1
" 