308,Fe30Cr70_5,-220.309633467638, 147.649077316106,Fe30Cr70,"# generated using pymatgen
 data_Cr8Fe19
_symmetry_space_group_name_H-M   'P 1'
_cell_length_a   7.50078779
_cell_length_b   7.50078779
_cell_length_c   10.60771583
_cell_angle_alpha   90.00000000
_cell_angle_beta   90.00000000
_cell_angle_gamma   90.00000000
_symmetry_Int_Tables_number   1
_chemical_formula_structural   Cr8Fe19
_chemical_formula_sum   'Cr16 Fe38'
_cell_volume   596.80937248
_cell_formula_units_Z   2
loop_
 _symmetry_equiv_pos_site_id
 _symmetry_equiv_pos_as_xyz
  1  'x, y, z'
loop_
 _atom_site_type_symbol
 _atom_site_label
 _atom_site_symmetry_multiplicity
 _atom_site_fract_x
 _atom_site_fract_y
 _atom_site_fract_z
 _atom_site_occupancy
  Fe  Fe0  1  -0.00165844  0.99716070  0.99760673  1
  Cr  Cr1  1  0.16393862  0.16432406  0.16729284  1
  Fe  Fe2  1  0.99756250  -0.00223207  0.33192385  1
  Cr  Cr3  1  0.99637184  0.33173932  0.99700069  1
  Fe  Fe4  1  0.16642247  0.49981755  0.16486147  1
  Fe  Fe5  1  -0.00124252  0.33063159  0.33197372  1
  Fe  Fe6  1  0.00119199  0.66566167  -0.00216048  1
  Fe  Fe7  1  0.16441842  0.82973985  0.16323285  1
  Cr  Cr8  1  -0.00153952  0.66466076  0.33134883  1
  Fe  Fe9  1  0.33134120  0.99646445  0.99731869  1
  Fe  Fe10  1  0.50078599  0.16546216  0.16471660  1
  Cr  Cr11  1  0.33226243  -0.00223346  0.33161809  1
  Cr  Cr12  1  0.33339351  0.33106879  0.99768248  1
  Fe  Fe13  1  0.49646558  0.49655156  0.16592472  1
  Fe  Fe14  1  0.33172220  0.33342902  0.33170481  1
  Fe  Fe15  1  0.32895990  0.66488957  0.99705970  1
  Cr  Cr16  1  0.49680507  0.82989123  0.16429415  1
  Fe  Fe17  1  0.33175718  0.66273231  0.33195425  1
  Fe  Fe18  1  0.66356426  0.00122072  0.99726257  1
  Fe  Fe19  1  0.82890916  0.16373608  0.16546073  1
  Fe  Fe20  1  0.66491750  -0.00197744  0.33178717  1
  Fe  Fe21  1  0.66325278  0.32850396  0.99741833  1
  Cr  Cr22  1  0.82954151  0.49658295  0.16550966  1
  Fe  Fe23  1  0.66276239  0.33078709  0.33160865  1
  Cr  Cr24  1  0.66318578  0.66382355  0.99658537  1
  Cr  Cr25  1  0.83090030  0.83257663  0.16509634  1
  Fe  Fe26  1  0.66217728  0.66421226  0.33289753  1
  Fe  Fe27  1  0.16637210  0.16446838  0.49778155  1
  Fe  Fe28  1  -0.00195375  0.99707385  0.66330701  1
  Cr  Cr29  1  0.16544309  0.16337074  0.82708310  1
  Fe  Fe30  1  0.16641725  0.49692237  0.49703007  1
  Cr  Cr31  1  -0.00149046  0.33220889  0.66353475  1
  Fe  Fe32  1  0.16686624  0.50025403  0.83111656  1
  Fe  Fe33  1  0.16497551  0.83208475  0.49839271  1
  Cr  Cr34  1  -0.00185546  0.66490997  0.66413112  1
  Fe  Fe35  1  0.16620528  0.83018438  0.83164203  1
  Fe  Fe36  1  0.49709874  0.16481417  0.49810410  1
  Fe  Fe37  1  0.33201562  0.99690250  0.66301383  1
  Fe  Fe38  1  0.49909630  0.16241352  0.83127134  1
  Fe  Fe39  1  0.49746821  0.49789701  0.49735264  1
  Fe  Fe40  1  0.33180193  0.33231737  0.66363868  1
  Fe  Fe41  1  0.49513979  0.49890164  0.83038307  1
  Fe  Fe42  1  0.49859286  0.83065563  0.49819705  1
  Fe  Fe43  1  0.33248949  0.66397468  0.66424750  1
  Fe  Fe44  1  0.49541692  0.83190222  0.83049242  1
  Cr  Cr45  1  0.83325202  0.16339664  0.49670356  1
  Fe  Fe46  1  0.66337338  0.99663517  0.66394823  1
  Fe  Fe47  1  0.82968734  0.16247998  0.83149483  1
  Fe  Fe48  1  0.82925354  0.49844228  0.49677113  1
  Cr  Cr49  1  0.66284252  0.33040329  0.66759558  1
  Cr  Cr50  1  0.83007375  0.49815877  0.83111931  1
  Fe  Fe51  1  0.82964674  0.83077538  0.49773276  1
  Fe  Fe52  1  0.66192584  0.66545124  0.66322028  1
  Cr  Cr53  1  0.83022392  0.83232435  0.83026253  1
" 