7233,Fe30Cr70_17,-220.292815365628, 148.900471133888,Fe30Cr70,"# generated using pymatgen
 data_Cr8Fe19
_symmetry_space_group_name_H-M   'P 1'
_cell_length_a   7.50316323
_cell_length_b   7.50316323
_cell_length_c   10.61107520
_cell_angle_alpha   90.00000000
_cell_angle_beta   90.00000000
_cell_angle_gamma   90.00000000
_symmetry_Int_Tables_number   1
_chemical_formula_structural   Cr8Fe19
_chemical_formula_sum   'Cr16 Fe38'
_cell_volume   597.37656445
_cell_formula_units_Z   2
loop_
 _symmetry_equiv_pos_site_id
 _symmetry_equiv_pos_as_xyz
  1  'x, y, z'
loop_
 _atom_site_type_symbol
 _atom_site_label
 _atom_site_symmetry_multiplicity
 _atom_site_fract_x
 _atom_site_fract_y
 _atom_site_fract_z
 _atom_site_occupancy
  Fe  Fe0  1  -0.00100357  -0.00085375  -0.00228928  1
  Fe  Fe1  1  0.16433842  0.16310668  0.16296478  1
  Fe  Fe2  1  -0.00169625  0.99756066  0.33036273  1
  Fe  Fe3  1  0.99724297  0.32748084  0.99662474  1
  Cr  Cr4  1  0.16738357  0.49825286  0.16356656  1
  Cr  Cr5  1  -0.00121260  0.33075162  0.33212613  1
  Cr  Cr6  1  -0.00095502  0.66332357  0.99511330  1
  Fe  Fe7  1  0.16285960  0.83244903  0.16379895  1
  Cr  Cr8  1  0.99731386  0.66604089  0.33368297  1
  Fe  Fe9  1  0.32745924  -0.00221942  0.99755260  1
  Fe  Fe10  1  0.49612200  0.16833414  0.16361871  1
  Cr  Cr11  1  0.33112396  -0.00134518  0.33172078  1
  Fe  Fe12  1  0.32989624  0.32863530  0.99755370  1
  Fe  Fe13  1  0.49752665  0.49565506  0.16335580  1
  Fe  Fe14  1  0.33280100  0.33276537  0.33176838  1
  Fe  Fe15  1  0.33090053  0.66588545  0.99597166  1
  Cr  Cr16  1  0.49617978  0.82785867  0.16189473  1
  Fe  Fe17  1  0.33255245  0.66342970  0.33324072  1
  Cr  Cr18  1  0.66414435  -0.00049168  -0.00180580  1
  Fe  Fe19  1  0.83293009  0.16444752  0.16391694  1
  Cr  Cr20  1  0.66593935  0.99718845  0.32871456  1
  Fe  Fe21  1  0.66548177  0.33059166  -0.00205078  1
  Cr  Cr22  1  0.82947242  0.49820563  0.16322197  1
  Fe  Fe23  1  0.66279039  0.33247636  0.33076966  1
  Fe  Fe24  1  0.66465754  0.66418004  0.99718395  1
  Fe  Fe25  1  0.83358089  0.83128137  0.16336745  1
  Fe  Fe26  1  0.66271056  0.66309443  0.33221660  1
  Fe  Fe27  1  0.16293220  0.16269865  0.49844301  1
  Fe  Fe28  1  0.00087655  0.99730737  0.66484107  1
  Fe  Fe29  1  0.16182732  0.16347757  0.83129602  1
  Fe  Fe30  1  0.16423040  0.49747847  0.49733707  1
  Fe  Fe31  1  0.99683315  0.33275892  0.66492731  1
  Fe  Fe32  1  0.16287352  0.49587550  0.83137946  1
  Fe  Fe33  1  0.16320908  0.83320941  0.49888799  1
  Fe  Fe34  1  0.99729907  0.66243379  0.66325307  1
  Fe  Fe35  1  0.16636578  0.83320791  0.83090634  1
  Cr  Cr36  1  0.49776769  0.16497509  0.49898329  1
  Fe  Fe37  1  0.32896081  0.99628836  0.66360990  1
  Cr  Cr38  1  0.49643970  0.16279327  0.82876435  1
  Fe  Fe39  1  0.49936616  0.49908999  0.49673599  1
  Cr  Cr40  1  0.32805225  0.33124791  0.66235466  1
  Cr  Cr41  1  0.49807805  0.49794869  0.83499575  1
  Fe  Fe42  1  0.49929043  0.82969524  0.49788865  1
  Cr  Cr43  1  0.33001638  0.66499219  0.66455614  1
  Fe  Fe44  1  0.49644879  0.83110600  0.83159399  1
  Cr  Cr45  1  0.83149923  0.16330333  0.50011457  1
  Fe  Fe46  1  0.66320748  0.99521852  0.66428415  1
  Fe  Fe47  1  0.83245548  0.16610578  0.82929211  1
  Fe  Fe48  1  0.82884161  0.49822795  0.49912861  1
  Fe  Fe49  1  0.66532678  0.33394414  0.66517981  1
  Fe  Fe50  1  0.83163217  0.49479299  0.83031313  1
  Fe  Fe51  1  0.83014224  0.83028441  0.50035107  1
  Fe  Fe52  1  0.66425317  0.66297070  0.66332089  1
  Cr  Cr53  1  0.83127291  0.83052118  0.82913767  1
" 