8044,Fe30Cr70_18,-220.146584118393, 147.08371140933,Fe30Cr70,"# generated using pymatgen
 data_Cr8Fe19
_symmetry_space_group_name_H-M   'P 1'
_cell_length_a   7.50694540
_cell_length_b   7.50694540
_cell_length_c   10.61642400
_cell_angle_alpha   90.00000000
_cell_angle_beta   90.00000000
_cell_angle_gamma   90.00000000
_symmetry_Int_Tables_number   1
_chemical_formula_structural   Cr8Fe19
_chemical_formula_sum   'Cr16 Fe38'
_cell_volume   598.28039213
_cell_formula_units_Z   2
loop_
 _symmetry_equiv_pos_site_id
 _symmetry_equiv_pos_as_xyz
  1  'x, y, z'
loop_
 _atom_site_type_symbol
 _atom_site_label
 _atom_site_symmetry_multiplicity
 _atom_site_fract_x
 _atom_site_fract_y
 _atom_site_fract_z
 _atom_site_occupancy
  Cr  Cr0  1  0.00015489  -0.00180571  0.99463537  1
  Cr  Cr1  1  0.16551596  0.16601101  0.16430924  1
  Cr  Cr2  1  0.00115943  -0.00255383  0.33206236  1
  Fe  Fe3  1  0.99694314  0.33271369  0.99682125  1
  Fe  Fe4  1  0.16232195  0.50004347  0.16278267  1
  Cr  Cr5  1  0.99665575  0.33207000  0.33010520  1
  Fe  Fe6  1  -0.00225633  0.66344044  0.99725629  1
  Fe  Fe7  1  0.16616675  0.82819585  0.16454484  1
  Fe  Fe8  1  -0.00117308  0.66293965  0.33165999  1
  Cr  Cr9  1  0.33024374  0.99635089  0.99573304  1
  Cr  Cr10  1  0.49782806  0.16351361  0.16522083  1
  Fe  Fe11  1  0.33303579  0.99594486  0.33248181  1
  Fe  Fe12  1  0.32938168  0.33008891  0.99634598  1
  Cr  Cr13  1  0.49391170  0.49723694  0.16196797  1
  Fe  Fe14  1  0.33045740  0.33213155  0.33317357  1
  Fe  Fe15  1  0.32914347  0.66499010  0.99727541  1
  Fe  Fe16  1  0.49592273  0.83115938  0.16409617  1
  Fe  Fe17  1  0.32816000  0.66402905  0.33155628  1
  Fe  Fe18  1  0.66372277  0.99628292  0.99488971  1
  Cr  Cr19  1  0.82941904  0.16145722  0.16344388  1
  Fe  Fe20  1  0.66318982  0.99695887  0.33348913  1
  Fe  Fe21  1  0.66498654  0.33047554  0.99595375  1
  Fe  Fe22  1  0.83162385  0.49725780  0.16154686  1
  Cr  Cr23  1  0.66433239  0.33404772  0.33229680  1
  Fe  Fe24  1  0.66433819  0.66508846  0.99627862  1
  Cr  Cr25  1  0.83118483  0.83121507  0.16485439  1
  Cr  Cr26  1  0.66263131  0.66198974  0.33053125  1
  Fe  Fe27  1  0.16588401  0.16565648  0.49765914  1
  Cr  Cr28  1  -0.00102298  -0.00169629  0.66603097  1
  Fe  Fe29  1  0.16477817  0.16789734  0.83063016  1
  Fe  Fe30  1  0.16457528  0.49801879  0.49861397  1
  Fe  Fe31  1  0.99652185  0.33165583  0.66287317  1
  Cr  Cr32  1  0.16417594  0.49800402  0.82914680  1
  Fe  Fe33  1  0.16511938  0.82849090  0.49761408  1
  Fe  Fe34  1  -0.00198465  0.66418824  0.66312254  1
  Fe  Fe35  1  0.16421534  0.82719251  0.83026318  1
  Fe  Fe36  1  0.49668290  0.16345055  0.49766971  1
  Cr  Cr37  1  0.32985266  0.99722378  0.66660559  1
  Fe  Fe38  1  0.49874734  0.16450133  0.83088594  1
  Fe  Fe39  1  0.49432530  0.49685733  0.49865854  1
  Fe  Fe40  1  0.33066495  0.33030609  0.66213894  1
  Cr  Cr41  1  0.49549576  0.49661152  0.82983298  1
  Fe  Fe42  1  0.49626475  0.83146794  0.49736475  1
  Fe  Fe43  1  0.32926006  0.66465920  0.66223930  1
  Fe  Fe44  1  0.49845155  0.82983965  0.83079408  1
  Fe  Fe45  1  0.82999634  0.16354605  0.49865424  1
  Fe  Fe46  1  0.66405769  -0.00215178  0.66415257  1
  Fe  Fe47  1  0.82899229  0.16656072  0.83064147  1
  Fe  Fe48  1  0.83290960  0.49762908  0.49911861  1
  Fe  Fe49  1  0.66451116  0.32764876  0.66292311  1
  Fe  Fe50  1  0.83095691  0.49661409  0.83118860  1
  Fe  Fe51  1  0.83094715  0.83077195  0.49759027  1
  Cr  Cr52  1  0.66329072  0.66145166  0.66372379  1
  Fe  Fe53  1  0.82982958  0.82883189  0.83105170  1
" 