6930,Fe30Cr70_7,-220.144755558463, 153.091588300555,Fe30Cr70,"# generated using pymatgen
 data_Cr8Fe19
_symmetry_space_group_name_H-M   'P 1'
_cell_length_a   7.49153698
_cell_length_b   7.49153698
_cell_length_c   10.59463320
_cell_angle_alpha   90.00000000
_cell_angle_beta   90.00000000
_cell_angle_gamma   90.00000000
_symmetry_Int_Tables_number   1
_chemical_formula_structural   Cr8Fe19
_chemical_formula_sum   'Cr16 Fe38'
_cell_volume   594.60393693
_cell_formula_units_Z   2
loop_
 _symmetry_equiv_pos_site_id
 _symmetry_equiv_pos_as_xyz
  1  'x, y, z'
loop_
 _atom_site_type_symbol
 _atom_site_label
 _atom_site_symmetry_multiplicity
 _atom_site_fract_x
 _atom_site_fract_y
 _atom_site_fract_z
 _atom_site_occupancy
  Fe  Fe0  1  0.99680996  -0.00103540  0.99789304  1
  Cr  Cr1  1  0.16316711  0.16300858  0.16545653  1
  Fe  Fe2  1  0.99749806  0.99784939  0.33084868  1
  Cr  Cr3  1  0.99544463  0.33286160  -0.00084456  1
  Cr  Cr4  1  0.16839140  0.50018354  0.16718715  1
  Fe  Fe5  1  0.99724379  0.33107644  0.33137704  1
  Fe  Fe6  1  0.99689842  0.66529450  -0.00082704  1
  Fe  Fe7  1  0.16623212  0.83134128  0.16358630  1
  Cr  Cr8  1  0.99769177  0.66235058  0.33387435  1
  Fe  Fe9  1  0.33396509  0.99750015  -0.00069393  1
  Fe  Fe10  1  0.50162057  0.16523697  0.16475213  1
  Cr  Cr11  1  0.33618208  0.99696694  0.33160221  1
  Cr  Cr12  1  0.33278876  0.33105686  0.99670628  1
  Fe  Fe13  1  0.50158582  0.49909659  0.16583488  1
  Fe  Fe14  1  0.33317536  0.33239416  0.33149579  1
  Fe  Fe15  1  0.33434876  0.66655649  -0.00101351  1
  Fe  Fe16  1  0.49754299  0.83039393  0.16357444  1
  Fe  Fe17  1  0.33474114  0.66500145  0.33197904  1
  Fe  Fe18  1  0.66397919  0.00024862  0.99702344  1
  Fe  Fe19  1  0.82848869  0.16638181  0.16651784  1
  Fe  Fe20  1  0.66537679  0.99721234  0.33130456  1
  Fe  Fe21  1  0.66451241  0.33160376  0.99822192  1
  Fe  Fe22  1  0.82890797  0.49757558  0.16554675  1
  Fe  Fe23  1  0.66460182  0.33212641  0.32956250  1
  Fe  Fe24  1  0.66423175  0.66349085  0.99777277  1
  Cr  Cr25  1  0.83121954  0.83399010  0.16438426  1
  Fe  Fe26  1  0.66325704  0.66594247  0.33133542  1
  Cr  Cr27  1  0.16584972  0.16570758  0.50032747  1
  Fe  Fe28  1  0.99694437  0.99735734  0.66662451  1
  Fe  Fe29  1  0.16537182  0.16369436  0.83095016  1
  Fe  Fe30  1  0.16488086  0.49691209  0.49776778  1
  Cr  Cr31  1  0.99755513  0.33402158  0.66525108  1
  Cr  Cr32  1  0.16689787  0.49996342  0.82992079  1
  Cr  Cr33  1  0.16303226  0.83271888  0.49844765  1
  Fe  Fe34  1  0.99418330  0.66714457  0.66442247  1
  Cr  Cr35  1  0.16346034  0.83356606  0.83513490  1
  Fe  Fe36  1  0.49830615  0.16522048  0.49819794  1
  Fe  Fe37  1  0.33179667  0.00023135  0.66627789  1
  Fe  Fe38  1  0.49844565  0.16438164  0.83131026  1
  Cr  Cr39  1  0.49947406  0.49703305  0.49808909  1
  Fe  Fe40  1  0.33547391  0.32911985  0.66658962  1
  Fe  Fe41  1  0.50189128  0.49923095  0.83107622  1
  Fe  Fe42  1  0.50075476  0.83229439  0.49724053  1
  Cr  Cr43  1  0.33268099  0.66680697  0.66322766  1
  Fe  Fe44  1  0.49929272  0.83104885  0.83335141  1
  Cr  Cr45  1  0.83051691  0.16353134  0.49417891  1
  Cr  Cr46  1  0.66277185  0.99653082  0.66341210  1
  Fe  Fe47  1  0.83095678  0.16365426  0.83168493  1
  Fe  Fe48  1  0.83129879  0.49898294  0.49874473  1
  Fe  Fe49  1  0.66404449  0.33243834  0.66640212  1
  Fe  Fe50  1  0.82889616  0.50060671  0.83191798  1
  Fe  Fe51  1  0.82911837  0.82963142  0.49795145  1
  Fe  Fe52  1  0.66783188  0.66353039  0.66581977  1
  Fe  Fe53  1  0.83010854  0.83067303  0.83296097  1
" 