7781,Fe30Cr70_12,-220.110086320657, 147.755627602164,Fe30Cr70,"# generated using pymatgen
 data_Cr8Fe19
_symmetry_space_group_name_H-M   'P 1'
_cell_length_a   7.50635580
_cell_length_b   7.50635580
_cell_length_c   10.61559018
_cell_angle_alpha   90.00000000
_cell_angle_beta   90.00000000
_cell_angle_gamma   90.00000000
_symmetry_Int_Tables_number   1
_chemical_formula_structural   Cr8Fe19
_chemical_formula_sum   'Cr16 Fe38'
_cell_volume   598.13943555
_cell_formula_units_Z   2
loop_
 _symmetry_equiv_pos_site_id
 _symmetry_equiv_pos_as_xyz
  1  'x, y, z'
loop_
 _atom_site_type_symbol
 _atom_site_label
 _atom_site_symmetry_multiplicity
 _atom_site_fract_x
 _atom_site_fract_y
 _atom_site_fract_z
 _atom_site_occupancy
  Fe  Fe0  1  -0.00243536  0.99693615  0.99587028  1
  Cr  Cr1  1  0.16513903  0.16442925  0.16249168  1
  Fe  Fe2  1  0.99632583  -0.00203880  0.33114005  1
  Fe  Fe3  1  0.99540321  0.33046176  0.99679584  1
  Cr  Cr4  1  0.16237787  0.49716716  0.16545497  1
  Cr  Cr5  1  0.99572313  0.32736302  0.33047930  1
  Fe  Fe6  1  0.99585379  0.66452696  0.99689169  1
  Fe  Fe7  1  0.16538047  0.83354670  0.16431694  1
  Cr  Cr8  1  -0.00246576  0.66480836  0.32884127  1
  Fe  Fe9  1  0.32898338  0.99733697  0.99728780  1
  Cr  Cr10  1  0.49940369  0.16206193  0.16366847  1
  Fe  Fe11  1  0.33016450  -0.00252102  0.33048210  1
  Fe  Fe12  1  0.33096953  0.33126856  0.99675826  1
  Fe  Fe13  1  0.49871558  0.49607130  0.16386510  1
  Fe  Fe14  1  0.33365831  0.33094352  0.33173353  1
  Cr  Cr15  1  0.33138999  0.66476407  -0.00000183  1
  Fe  Fe16  1  0.49577056  0.83156743  0.16438151  1
  Fe  Fe17  1  0.33173894  0.66401492  0.32913248  1
  Fe  Fe18  1  0.66584899  0.99718507  0.99717064  1
  Fe  Fe19  1  0.83046848  0.16466939  0.16265706  1
  Fe  Fe20  1  0.66599384  -0.00001136  0.33186660  1
  Fe  Fe21  1  0.66519463  0.33245368  0.99725386  1
  Fe  Fe22  1  0.82820621  0.49462896  0.16214128  1
  Fe  Fe23  1  0.66304353  0.32971059  0.33120883  1
  Fe  Fe24  1  0.66571389  0.66240868  -0.00232953  1
  Cr  Cr25  1  0.82931662  0.83173669  0.16407058  1
  Cr  Cr26  1  0.66180384  0.66312422  0.33017649  1
  Fe  Fe27  1  0.16487627  0.16318016  0.49793916  1
  Fe  Fe28  1  -0.00151941  -0.00159362  0.66495816  1
  Fe  Fe29  1  0.16263978  0.16226882  0.83113094  1
  Cr  Cr30  1  0.16433216  0.49637442  0.49777161  1
  Fe  Fe31  1  0.99608376  0.32705664  0.66445835  1
  Cr  Cr32  1  0.16149828  0.49630035  0.82903321  1
  Cr  Cr33  1  0.16336811  0.83018270  0.49709082  1
  Fe  Fe34  1  0.99548775  0.66647358  0.66535138  1
  Fe  Fe35  1  0.16294782  0.83239198  0.83004148  1
  Fe  Fe36  1  0.49633354  0.16697612  0.49664353  1
  Fe  Fe37  1  0.32870678  -0.00109953  0.66418115  1
  Cr  Cr38  1  0.49696772  0.16383130  0.83200887  1
  Fe  Fe39  1  0.49677323  0.49599908  0.49840073  1
  Fe  Fe40  1  0.33201698  0.32909138  0.66361157  1
  Fe  Fe41  1  0.49859838  0.49732392  0.83032374  1
  Cr  Cr42  1  0.49812349  0.83268138  0.49642548  1
  Fe  Fe43  1  0.33221522  0.66422699  0.66496874  1
  Cr  Cr44  1  0.49927498  0.83221259  0.83166937  1
  Fe  Fe45  1  0.83125455  0.16258274  0.49724575  1
  Cr  Cr46  1  0.66634545  -0.00198954  0.66250518  1
  Fe  Fe47  1  0.83240839  0.16476268  0.83141000  1
  Cr  Cr48  1  0.83145655  0.49780425  0.49916812  1
  Fe  Fe49  1  0.66355815  0.33120822  0.66461821  1
  Fe  Fe50  1  0.82812481  0.49729935  0.83029800  1
  Fe  Fe51  1  0.83199738  0.83167038  0.49705964  1
  Fe  Fe52  1  0.66413170  0.66271943  0.66487500  1
  Fe  Fe53  1  0.83292180  0.83006038  0.83161686  1
" 