8553,Fe30Cr70_4,-220.2735006284, 141.650914038279,Fe30Cr70,"# generated using pymatgen
 data_Cr8Fe19
_symmetry_space_group_name_H-M   'P 1'
_cell_length_a   7.50031510
_cell_length_b   7.50031510
_cell_length_c   10.60704734
_cell_angle_alpha   90.00000000
_cell_angle_beta   90.00000000
_cell_angle_gamma   90.00000000
_symmetry_Int_Tables_number   1
_chemical_formula_structural   Cr8Fe19
_chemical_formula_sum   'Cr16 Fe38'
_cell_volume   596.69654828
_cell_formula_units_Z   2
loop_
 _symmetry_equiv_pos_site_id
 _symmetry_equiv_pos_as_xyz
  1  'x, y, z'
loop_
 _atom_site_type_symbol
 _atom_site_label
 _atom_site_symmetry_multiplicity
 _atom_site_fract_x
 _atom_site_fract_y
 _atom_site_fract_z
 _atom_site_occupancy
  Fe  Fe0  1  0.00060804  0.99644823  -0.00116248  1
  Fe  Fe1  1  0.16400376  0.16507148  0.16535588  1
  Fe  Fe2  1  -0.00046752  0.99616154  0.33123614  1
  Fe  Fe3  1  0.00199674  0.33274306  -0.00194892  1
  Fe  Fe4  1  0.16370795  0.49660415  0.16531942  1
  Fe  Fe5  1  0.00076232  0.33246524  0.33111327  1
  Fe  Fe6  1  0.99715702  0.66367301  -0.00096833  1
  Fe  Fe7  1  0.16266147  0.83169055  0.16624534  1
  Fe  Fe8  1  0.99773587  0.66415340  0.33109175  1
  Cr  Cr9  1  0.32791257  0.99679303  0.99672221  1
  Cr  Cr10  1  0.49598843  0.16646018  0.16638335  1
  Fe  Fe11  1  0.33011196  0.99701002  0.33173501  1
  Fe  Fe12  1  0.32755260  0.33146457  -0.00117285  1
  Fe  Fe13  1  0.49724109  0.50005780  0.16539766  1
  Fe  Fe14  1  0.32759703  0.33132636  0.33122369  1
  Cr  Cr15  1  0.32887927  0.66600992  -0.00154288  1
  Fe  Fe16  1  0.49838913  0.82954170  0.16670993  1
  Fe  Fe17  1  0.33004445  0.66514962  0.32981407  1
  Cr  Cr18  1  0.66269224  0.99594442  -0.00197176  1
  Cr  Cr19  1  0.83449215  0.16137426  0.16353378  1
  Fe  Fe20  1  0.66389593  0.99437503  0.33177427  1
  Cr  Cr21  1  0.66690383  0.33410874  0.99702716  1
  Fe  Fe22  1  0.83259705  0.50008233  0.16477195  1
  Cr  Cr23  1  0.66630216  0.33203418  0.33304515  1
  Fe  Fe24  1  0.66545415  0.66485288  -0.00068678  1
  Fe  Fe25  1  0.83194218  0.82853174  0.16508462  1
  Fe  Fe26  1  0.66525336  0.66661260  0.33080873  1
  Fe  Fe27  1  0.16640460  0.16472773  0.49765264  1
  Fe  Fe28  1  0.00082431  0.99667023  0.66364646  1
  Fe  Fe29  1  0.16373558  0.16537374  0.83009483  1
  Fe  Fe30  1  0.16215992  0.49771698  0.49767453  1
  Fe  Fe31  1  0.00067042  0.33266548  0.66417401  1
  Fe  Fe32  1  0.16142094  0.49693747  0.83035519  1
  Fe  Fe33  1  0.16447743  0.83093002  0.49759578  1
  Fe  Fe34  1  -0.00017535  0.66374691  0.66361294  1
  Fe  Fe35  1  0.16476881  0.83107071  0.82912811  1
  Fe  Fe36  1  0.49386166  0.16271863  0.49667627  1
  Fe  Fe37  1  0.32841001  0.99669232  0.66368147  1
  Cr  Cr38  1  0.49545876  0.16609904  0.82912928  1
  Cr  Cr39  1  0.49345522  0.49873695  0.49674296  1
  Fe  Fe40  1  0.32784529  0.33072200  0.66340971  1
  Cr  Cr41  1  0.49423651  0.49925166  0.83261453  1
  Fe  Fe42  1  0.49613975  0.83228017  0.49600726  1
  Fe  Fe43  1  0.32856148  0.66612473  0.66459680  1
  Fe  Fe44  1  0.49610242  0.83078513  0.83003443  1
  Cr  Cr45  1  0.83348620  0.16168580  0.49741799  1
  Cr  Cr46  1  0.66178012  0.99728027  0.66252611  1
  Cr  Cr47  1  0.83522836  0.16312725  0.83210012  1
  Fe  Fe48  1  0.83469085  0.49998997  0.49696066  1
  Cr  Cr49  1  0.66729103  0.33190339  0.66343203  1
  Fe  Fe50  1  0.83488622  0.49846575  0.83171170  1
  Fe  Fe51  1  0.83263902  0.82888019  0.49640657  1
  Cr  Cr52  1  0.66583476  0.66410608  0.66499935  1
  Cr  Cr53  1  0.83463258  0.83081339  0.83292098  1
" 