2120,Fe30Cr70_3,-220.083010822802, 149.641068146503,Fe30Cr70,"# generated using pymatgen
 data_Cr8Fe19
_symmetry_space_group_name_H-M   'P 1'
_cell_length_a   7.49712639
_cell_length_b   7.49712639
_cell_length_c   10.60253782
_cell_angle_alpha   90.00000000
_cell_angle_beta   90.00000000
_cell_angle_gamma   90.00000000
_symmetry_Int_Tables_number   1
_chemical_formula_structural   Cr8Fe19
_chemical_formula_sum   'Cr16 Fe38'
_cell_volume   595.93582585
_cell_formula_units_Z   2
loop_
 _symmetry_equiv_pos_site_id
 _symmetry_equiv_pos_as_xyz
  1  'x, y, z'
loop_
 _atom_site_type_symbol
 _atom_site_label
 _atom_site_symmetry_multiplicity
 _atom_site_fract_x
 _atom_site_fract_y
 _atom_site_fract_z
 _atom_site_occupancy
  Fe  Fe0  1  0.00014766  0.00038850  -0.00120681  1
  Fe  Fe1  1  0.16470073  0.16325585  0.16469152  1
  Cr  Cr2  1  0.99581468  0.99706048  0.33029758  1
  Fe  Fe3  1  -0.00177843  0.32849221  0.99612917  1
  Cr  Cr4  1  0.16508477  0.49656382  0.16691346  1
  Fe  Fe5  1  -0.00113777  0.33017970  0.33192880  1
  Cr  Cr6  1  -0.00181135  0.66627448  0.99673244  1
  Fe  Fe7  1  0.16610265  0.83362088  0.16491283  1
  Cr  Cr8  1  0.99748896  0.66623683  0.33371200  1
  Fe  Fe9  1  0.33000030  0.99794665  -0.00192339  1
  Fe  Fe10  1  0.49709149  0.16492936  0.16695206  1
  Fe  Fe11  1  0.33275349  -0.00182900  0.33087072  1
  Cr  Cr12  1  0.33138362  0.32976590  0.99722539  1
  Fe  Fe13  1  0.49824091  0.49827852  0.16633636  1
  Fe  Fe14  1  0.33204816  0.33009081  0.33262968  1
  Cr  Cr15  1  0.33147268  0.66622199  -0.00172316  1
  Fe  Fe16  1  0.49775343  0.83074452  0.16643063  1
  Fe  Fe17  1  0.33411057  0.66557360  0.33156310  1
  Cr  Cr18  1  0.66437818  0.99771224  -0.00017066  1
  Fe  Fe19  1  0.83201914  0.16473071  0.16546460  1
  Fe  Fe20  1  0.66218207  0.99676941  0.33017843  1
  Cr  Cr21  1  0.66437701  0.32915403  0.99551345  1
  Cr  Cr22  1  0.82932054  0.49667167  0.16267201  1
  Fe  Fe23  1  0.66280145  0.33046413  0.33049127  1
  Fe  Fe24  1  0.66381117  0.66600018  -0.00148887  1
  Fe  Fe25  1  0.83010471  0.83160138  0.16439125  1
  Fe  Fe26  1  0.66231832  0.66650735  0.33130667  1
  Fe  Fe27  1  0.16593289  0.16519970  0.49681050  1
  Fe  Fe28  1  -0.00082694  -0.00151040  0.66493808  1
  Fe  Fe29  1  0.16417765  0.16180472  0.83172334  1
  Fe  Fe30  1  0.16654666  0.49706648  0.49673151  1
  Cr  Cr31  1  -0.00052836  0.33226211  0.66615876  1
  Fe  Fe32  1  0.16352013  0.49922151  0.83088635  1
  Cr  Cr33  1  0.16679376  0.83250355  0.50073257  1
  Fe  Fe34  1  -0.00062282  0.66488117  0.66516204  1
  Fe  Fe35  1  0.16672759  0.83299058  0.82915456  1
  Fe  Fe36  1  0.49719647  0.16340161  0.49689915  1
  Fe  Fe37  1  0.33230156  -0.00200222  0.66561590  1
  Fe  Fe38  1  0.49802208  0.16100238  0.82951384  1
  Fe  Fe39  1  0.49715578  0.49905477  0.49717043  1
  Cr  Cr40  1  0.33260502  0.33128425  0.66334624  1
  Cr  Cr41  1  0.50000885  0.49954019  0.83157402  1
  Fe  Fe42  1  0.50039394  0.83153808  0.49814257  1
  Fe  Fe43  1  0.33159339  0.66528776  0.66537589  1
  Fe  Fe44  1  0.49679217  0.83342828  0.82975106  1
  Cr  Cr45  1  0.82995942  0.16388851  0.49818919  1
  Fe  Fe46  1  0.66254294  -0.00115057  0.66471000  1
  Fe  Fe47  1  0.83165728  0.16463405  0.83017634  1
  Cr  Cr48  1  0.82965108  0.49775383  0.49919380  1
  Fe  Fe49  1  0.66403055  0.33021879  0.66583471  1
  Fe  Fe50  1  0.83221357  0.49769065  0.83046361  1
  Fe  Fe51  1  0.82846022  0.83174553  0.50024393  1
  Fe  Fe52  1  0.66326739  0.66491099  0.66369732  1
  Cr  Cr53  1  0.83132348  0.83162239  0.82864863  1
" 