8414,Fe30Cr70_11,-220.072880460913, 142.341777573492,Fe30Cr70,"# generated using pymatgen
 data_Cr8Fe19
_symmetry_space_group_name_H-M   'P 1'
_cell_length_a   7.51148469
_cell_length_b   7.51148469
_cell_length_c   10.62284352
_cell_angle_alpha   90.00000000
_cell_angle_beta   90.00000000
_cell_angle_gamma   90.00000000
_symmetry_Int_Tables_number   1
_chemical_formula_structural   Cr8Fe19
_chemical_formula_sum   'Cr16 Fe38'
_cell_volume   599.36634934
_cell_formula_units_Z   2
loop_
 _symmetry_equiv_pos_site_id
 _symmetry_equiv_pos_as_xyz
  1  'x, y, z'
loop_
 _atom_site_type_symbol
 _atom_site_label
 _atom_site_symmetry_multiplicity
 _atom_site_fract_x
 _atom_site_fract_y
 _atom_site_fract_z
 _atom_site_occupancy
  Fe  Fe0  1  0.00012212  -0.00140850  -0.00246904  1
  Fe  Fe1  1  0.16353791  0.16507989  0.16361526  1
  Cr  Cr2  1  -0.00177635  -0.00121593  0.33180832  1
  Fe  Fe3  1  -0.00126906  0.32971165  0.99688946  1
  Fe  Fe4  1  0.16550949  0.49462673  0.16430293  1
  Fe  Fe5  1  -0.00224119  0.33091433  0.33111694  1
  Fe  Fe6  1  -0.00189050  0.66294762  0.99649805  1
  Cr  Cr7  1  0.16476418  0.82775838  0.16341316  1
  Fe  Fe8  1  0.99689165  0.66324165  0.33194981  1
  Fe  Fe9  1  0.32793206  -0.00192125  -0.00264852  1
  Cr  Cr10  1  0.49604588  0.16382323  0.16496169  1
  Fe  Fe11  1  0.33151845  0.99684858  0.33173359  1
  Fe  Fe12  1  0.32934328  0.32968912  -0.00189930  1
  Fe  Fe13  1  0.49649187  0.49854088  0.16404323  1
  Fe  Fe14  1  0.33017265  0.32973703  0.33038148  1
  Fe  Fe15  1  0.33098989  0.66327332  -0.00161164  1
  Fe  Fe16  1  0.49681412  0.82814926  0.16484517  1
  Fe  Fe17  1  0.33217142  0.66407162  0.33030304  1
  Cr  Cr18  1  0.66224698  0.99585802  -0.00065079  1
  Cr  Cr19  1  0.82964969  0.16430789  0.16454902  1
  Fe  Fe20  1  0.66184323  0.99642713  0.33269267  1
  Fe  Fe21  1  0.66300573  0.33207773  -0.00274500  1
  Cr  Cr22  1  0.83231917  0.49709872  0.16350956  1
  Fe  Fe23  1  0.66315895  0.33098967  0.33233723  1
  Fe  Fe24  1  0.66262356  0.66144935  -0.00252548  1
  Cr  Cr25  1  0.82980000  0.82990138  0.16447369  1
  Fe  Fe26  1  0.66259822  0.66350254  0.33226113  1
  Fe  Fe27  1  0.16480832  0.16384059  0.49767323  1
  Fe  Fe28  1  -0.00203674  -0.00177215  0.66171306  1
  Fe  Fe29  1  0.16417303  0.16264104  0.82965828  1
  Cr  Cr30  1  0.16445054  0.49852974  0.49450411  1
  Fe  Fe31  1  0.99666298  0.32967451  0.66244887  1
  Cr  Cr32  1  0.16383870  0.49812783  0.82996927  1
  Fe  Fe33  1  0.16525877  0.83179719  0.49647399  1
  Cr  Cr34  1  0.99645763  0.66484053  0.66329894  1
  Fe  Fe35  1  0.16445467  0.83295572  0.83108303  1
  Fe  Fe36  1  0.49638881  0.16407617  0.49706575  1
  Fe  Fe37  1  0.32878781  0.99632128  0.66173206  1
  Cr  Cr38  1  0.49680896  0.16410763  0.82735982  1
  Fe  Fe39  1  0.49752462  0.49622941  0.49641592  1
  Fe  Fe40  1  0.32963269  0.33004211  0.66147502  1
  Cr  Cr41  1  0.49523850  0.49518871  0.82954758  1
  Fe  Fe42  1  0.49594770  0.83034855  0.49684280  1
  Fe  Fe43  1  0.33015664  0.66516929  0.66188405  1
  Cr  Cr44  1  0.49457107  0.83094456  0.83081890  1
  Fe  Fe45  1  0.83007242  0.16478586  0.49744679  1
  Fe  Fe46  1  0.66435781  0.99666364  0.66093966  1
  Cr  Cr47  1  0.83035375  0.16446820  0.82966334  1
  Fe  Fe48  1  0.82952005  0.49593265  0.49522534  1
  Fe  Fe49  1  0.66480612  0.32993949  0.66087434  1
  Fe  Fe50  1  0.82989623  0.49594290  0.83205892  1
  Fe  Fe51  1  0.82975359  0.83054787  0.49609557  1
  Cr  Cr52  1  0.66356060  0.66184514  0.66401889  1
  Cr  Cr53  1  0.83245245  0.83160260  0.83284792  1
" 