6037,Fe30Cr70_6,-219.940130989585, 146.784289762888,Fe30Cr70,"# generated using pymatgen
 data_Cr8Fe19
_symmetry_space_group_name_H-M   'P 1'
_cell_length_a   7.50152209
_cell_length_b   7.50152209
_cell_length_c   10.60875427
_cell_angle_alpha   90.00000000
_cell_angle_beta   90.00000000
_cell_angle_gamma   90.00000000
_symmetry_Int_Tables_number   1
_chemical_formula_structural   Cr8Fe19
_chemical_formula_sum   'Cr16 Fe38'
_cell_volume   596.98466416
_cell_formula_units_Z   2
loop_
 _symmetry_equiv_pos_site_id
 _symmetry_equiv_pos_as_xyz
  1  'x, y, z'
loop_
 _atom_site_type_symbol
 _atom_site_label
 _atom_site_symmetry_multiplicity
 _atom_site_fract_x
 _atom_site_fract_y
 _atom_site_fract_z
 _atom_site_occupancy
  Cr  Cr0  1  0.99623579  -0.00114204  0.99482096  1
  Fe  Fe1  1  0.16273886  0.16592876  0.16464067  1
  Fe  Fe2  1  -0.00050675  -0.00035758  0.33124053  1
  Fe  Fe3  1  -0.00217703  0.33184342  0.99717997  1
  Fe  Fe4  1  0.16183623  0.49732268  0.16319399  1
  Fe  Fe5  1  -0.00077381  0.33103616  0.32915273  1
  Fe  Fe6  1  0.99742285  0.66250550  0.99604449  1
  Cr  Cr7  1  0.16404002  0.83020608  0.16426769  1
  Fe  Fe8  1  -0.00187137  0.66273447  0.33187619  1
  Cr  Cr9  1  0.32986357  -0.00033440  -0.00215796  1
  Fe  Fe10  1  0.49858238  0.16369313  0.16392838  1
  Fe  Fe11  1  0.33041577  -0.00108368  0.33174816  1
  Fe  Fe12  1  0.32823146  0.33038208  -0.00222633  1
  Cr  Cr13  1  0.49781557  0.49845704  0.16110348  1
  Cr  Cr14  1  0.32957655  0.33050175  0.33088928  1
  Fe  Fe15  1  0.32727722  0.66257339  0.99647628  1
  Cr  Cr16  1  0.49813367  0.83156329  0.16382488  1
  Cr  Cr17  1  0.33134389  0.66428801  0.33477461  1
  Fe  Fe18  1  0.66546507  0.00058345  0.99729367  1
  Fe  Fe19  1  0.83166704  0.16504686  0.16448092  1
  Fe  Fe20  1  0.66340835  -0.00229775  0.33205305  1
  Fe  Fe21  1  0.66675174  0.32809341  -0.00227952  1
  Fe  Fe22  1  0.83367057  0.49783204  0.16344154  1
  Cr  Cr23  1  0.66546912  0.33175610  0.32928113  1
  Fe  Fe24  1  0.66829579  0.66404689  0.99655838  1
  Cr  Cr25  1  0.83105115  0.83102920  0.16660138  1
  Fe  Fe26  1  0.66502078  0.66518465  0.33304896  1
  Fe  Fe27  1  0.16326331  0.16394568  0.49926974  1
  Fe  Fe28  1  -0.00159515  0.99591093  0.66644946  1
  Fe  Fe29  1  0.16511435  0.16637413  0.82914995  1
  Fe  Fe30  1  0.16303534  0.49500202  0.49890341  1
  Fe  Fe31  1  -0.00076417  0.33200348  0.66640815  1
  Fe  Fe32  1  0.16252720  0.49726341  0.83142547  1
  Fe  Fe33  1  0.16130621  0.83403707  0.49755410  1
  Fe  Fe34  1  -0.00186104  0.66522792  0.66501128  1
  Fe  Fe35  1  0.16273858  0.82949232  0.83054420  1
  Cr  Cr36  1  0.49660824  0.16373635  0.50177279  1
  Fe  Fe37  1  0.32909250  0.99759136  0.66587056  1
  Fe  Fe38  1  0.49808616  0.16477034  0.82964632  1
  Fe  Fe39  1  0.49800258  0.49593613  0.49848904  1
  Fe  Fe40  1  0.32871108  0.33030975  0.66455357  1
  Cr  Cr41  1  0.49720803  0.49538689  0.83158523  1
  Fe  Fe42  1  0.49920256  0.83321479  0.49707362  1
  Cr  Cr43  1  0.32989177  0.66419855  0.66150158  1
  Cr  Cr44  1  0.49720957  0.83175222  0.83445635  1
  Cr  Cr45  1  0.83357457  0.16404039  0.49908239  1
  Fe  Fe46  1  0.66541050  0.99708715  0.66612514  1
  Fe  Fe47  1  0.82962997  0.16579781  0.82901172  1
  Cr  Cr48  1  0.83326671  0.49717886  0.49718515  1
  Fe  Fe49  1  0.66526542  0.33032946  0.66567993  1
  Fe  Fe50  1  0.83242930  0.49728921  0.83089088  1
  Fe  Fe51  1  0.83263724  0.83265333  0.49595466  1
  Cr  Cr52  1  0.66548809  0.66418403  0.66060167  1
  Fe  Fe53  1  0.83145366  0.82981062  0.83046317  1
" 