7961,Fe30Cr70_13,-220.012444136247, 147.941463392946,Fe30Cr70,"# generated using pymatgen
 data_Cr8Fe19
_symmetry_space_group_name_H-M   'P 1'
_cell_length_a   7.50341247
_cell_length_b   7.50341247
_cell_length_c   10.61142767
_cell_angle_alpha   90.00000000
_cell_angle_beta   90.00000000
_cell_angle_gamma   90.00000000
_symmetry_Int_Tables_number   1
_chemical_formula_structural   Cr8Fe19
_chemical_formula_sum   'Cr16 Fe38'
_cell_volume   597.43609731
_cell_formula_units_Z   2
loop_
 _symmetry_equiv_pos_site_id
 _symmetry_equiv_pos_as_xyz
  1  'x, y, z'
loop_
 _atom_site_type_symbol
 _atom_site_label
 _atom_site_symmetry_multiplicity
 _atom_site_fract_x
 _atom_site_fract_y
 _atom_site_fract_z
 _atom_site_occupancy
  Fe  Fe0  1  0.99659330  -0.00181010  0.99648687  1
  Fe  Fe1  1  0.16170810  0.16669937  0.16478976  1
  Fe  Fe2  1  -0.00146660  -0.00173171  0.33083795  1
  Fe  Fe3  1  -0.00095655  0.33133777  0.99612238  1
  Fe  Fe4  1  0.16533704  0.49704727  0.16432468  1
  Fe  Fe5  1  0.00024084  0.32987433  0.33110114  1
  Fe  Fe6  1  0.00000506  0.66298104  0.99689610  1
  Fe  Fe7  1  0.16375258  0.82859771  0.16447181  1
  Fe  Fe8  1  0.00101391  0.66448099  0.33021997  1
  Cr  Cr9  1  0.32824686  0.99681832  0.00072847  1
  Cr  Cr10  1  0.49735723  0.16786846  0.16236351  1
  Cr  Cr11  1  0.33025006  0.99634757  0.32956273  1
  Fe  Fe12  1  0.32894463  0.33477610  0.99732163  1
  Fe  Fe13  1  0.49602915  0.49870033  0.16487566  1
  Fe  Fe14  1  0.33113099  0.33327284  0.33096637  1
  Fe  Fe15  1  0.32922804  0.66177841  -0.00146810  1
  Fe  Fe16  1  0.49784057  0.82793844  0.16421502  1
  Fe  Fe17  1  0.33179231  0.66207368  0.33013611  1
  Fe  Fe18  1  0.66613514  -0.00225926  0.99682680  1
  Cr  Cr19  1  0.83046422  0.16576953  0.16479472  1
  Cr  Cr20  1  0.66329642  0.99727067  0.33289990  1
  Fe  Fe21  1  0.66496924  0.33148635  0.99565926  1
  Cr  Cr22  1  0.83077139  0.49695126  0.16650735  1
  Fe  Fe23  1  0.66131722  0.33144698  0.33266888  1
  Cr  Cr24  1  0.66402706  0.66277981  0.99600329  1
  Cr  Cr25  1  0.83330265  0.82990612  0.16386744  1
  Fe  Fe26  1  0.66021826  0.66389272  0.33058078  1
  Cr  Cr27  1  0.16561498  0.16545338  0.49898208  1
  Fe  Fe28  1  0.99551283  -0.00011087  0.66556850  1
  Fe  Fe29  1  0.16285539  0.16563578  0.83010141  1
  Fe  Fe30  1  0.16536185  0.49789381  0.49761652  1
  Fe  Fe31  1  -0.00136236  0.33168500  0.66564478  1
  Fe  Fe32  1  0.16511971  0.49580844  0.83079307  1
  Cr  Cr33  1  0.16431677  0.82938241  0.49900416  1
  Fe  Fe34  1  0.99659271  0.66102837  0.66548945  1
  Cr  Cr35  1  0.16338794  0.82996216  0.82925332  1
  Fe  Fe36  1  0.49814762  0.16492956  0.49851810  1
  Fe  Fe37  1  0.33205479  -0.00110421  0.66353282  1
  Cr  Cr38  1  0.49628587  0.16564059  0.83195169  1
  Fe  Fe39  1  0.49489015  0.49869379  0.49700125  1
  Fe  Fe40  1  0.32992273  0.33301636  0.66453507  1
  Fe  Fe41  1  0.49528964  0.49784521  0.83053215  1
  Fe  Fe42  1  0.49716674  0.82897216  0.49983585  1
  Fe  Fe43  1  0.33191223  0.66085963  0.66350211  1
  Cr  Cr44  1  0.49691338  0.83186294  0.82905839  1
  Fe  Fe45  1  0.83214058  0.16421756  0.49743187  1
  Fe  Fe46  1  0.66509680  -0.00219534  0.66317682  1
  Fe  Fe47  1  0.83290583  0.16301116  0.83188965  1
  Cr  Cr48  1  0.83179814  0.49790113  0.49386747  1
  Cr  Cr49  1  0.66592016  0.33196861  0.66347131  1
  Fe  Fe50  1  0.83251250  0.49775710  0.83080201  1
  Cr  Cr51  1  0.83189182  0.82905290  0.49898286  1
  Fe  Fe52  1  0.66421124  0.66372904  0.66486977  1
  Fe  Fe53  1  0.83113690  0.83195439  0.82997311  1
" 