4488,Fe30Cr70_10,-220.015258644094, 144.633530956059,Fe30Cr70,"# generated using pymatgen
 data_Cr8Fe19
_symmetry_space_group_name_H-M   'P 1'
_cell_length_a   7.50124377
_cell_length_b   7.50124377
_cell_length_c   10.60836067
_cell_angle_alpha   90.00000000
_cell_angle_beta   90.00000000
_cell_angle_gamma   90.00000000
_symmetry_Int_Tables_number   1
_chemical_formula_structural   Cr8Fe19
_chemical_formula_sum   'Cr16 Fe38'
_cell_volume   596.91821856
_cell_formula_units_Z   2
loop_
 _symmetry_equiv_pos_site_id
 _symmetry_equiv_pos_as_xyz
  1  'x, y, z'
loop_
 _atom_site_type_symbol
 _atom_site_label
 _atom_site_symmetry_multiplicity
 _atom_site_fract_x
 _atom_site_fract_y
 _atom_site_fract_z
 _atom_site_occupancy
  Fe  Fe0  1  0.99480863  0.99709561  -0.00142562  1
  Cr  Cr1  1  0.16511541  0.16413727  0.16381450  1
  Cr  Cr2  1  0.99563636  -0.00036066  0.33066814  1
  Cr  Cr3  1  0.99591576  0.33102688  0.99483982  1
  Fe  Fe4  1  0.16429017  0.49558627  0.16552493  1
  Fe  Fe5  1  -0.00214513  0.33261097  0.33061663  1
  Cr  Cr6  1  0.99710365  0.66228243  -0.00074326  1
  Fe  Fe7  1  0.16330550  0.83006849  0.16486839  1
  Fe  Fe8  1  0.99746429  0.66416902  0.32935815  1
  Cr  Cr9  1  0.33425813  0.99692945  -0.00118550  1
  Cr  Cr10  1  0.49923349  0.16759663  0.16314520  1
  Cr  Cr11  1  0.33361006  -0.00224527  0.33256413  1
  Fe  Fe12  1  0.33206252  0.33290767  0.99617793  1
  Fe  Fe13  1  0.49892679  0.49688884  0.16365848  1
  Fe  Fe14  1  0.33180032  0.33128706  0.33279902  1
  Cr  Cr15  1  0.33213564  0.66289659  -0.00222967  1
  Fe  Fe16  1  0.50024725  0.83068382  0.16358197  1
  Cr  Cr17  1  0.33117779  0.66310761  0.33034105  1
  Fe  Fe18  1  0.66754650  0.99695323  0.99702715  1
  Fe  Fe19  1  0.83005390  0.16592059  0.16319525  1
  Cr  Cr20  1  0.66406509  -0.00055406  0.33322308  1
  Fe  Fe21  1  0.66326783  0.33294364  0.99592518  1
  Fe  Fe22  1  0.82965523  0.49520637  0.16564944  1
  Fe  Fe23  1  0.66359988  0.33069213  0.33125053  1
  Fe  Fe24  1  0.66469974  0.66396400  -0.00223611  1
  Fe  Fe25  1  0.82986760  0.83210050  0.16334589  1
  Cr  Cr26  1  0.66331201  0.66540951  0.33072150  1
  Fe  Fe27  1  0.16387277  0.16776751  0.49926671  1
  Fe  Fe28  1  0.99501110  -0.00053868  0.66338240  1
  Cr  Cr29  1  0.16568382  0.16317573  0.83032575  1
  Fe  Fe30  1  0.16517039  0.49530087  0.49796585  1
  Fe  Fe31  1  0.99684919  0.32940107  0.66463909  1
  Fe  Fe32  1  0.16638477  0.49683958  0.82958345  1
  Cr  Cr33  1  0.16381009  0.83177607  0.49842485  1
  Cr  Cr34  1  0.99736583  0.66151176  0.66517374  1
  Cr  Cr35  1  0.16361668  0.83243861  0.83118349  1
  Fe  Fe36  1  0.49800813  0.16692468  0.49995540  1
  Fe  Fe37  1  0.33377515  -0.00142151  0.66343796  1
  Fe  Fe38  1  0.49998673  0.16469635  0.83060237  1
  Fe  Fe39  1  0.49590600  0.49661840  0.49928564  1
  Fe  Fe40  1  0.33178157  0.33214002  0.66381458  1
  Fe  Fe41  1  0.49827120  0.49681854  0.82990006  1
  Fe  Fe42  1  0.49936564  0.82981366  0.50098404  1
  Fe  Fe43  1  0.33358659  0.66305264  0.66469617  1
  Fe  Fe44  1  0.50008826  0.83138628  0.82955404  1
  Fe  Fe45  1  0.83137694  0.16488991  0.49989098  1
  Fe  Fe46  1  0.66463157  -0.00210038  0.66393688  1
  Fe  Fe47  1  0.82870735  0.16286198  0.82979089  1
  Cr  Cr48  1  0.82913269  0.49764168  0.49609503  1
  Fe  Fe49  1  0.66415108  0.33077175  0.66507848  1
  Fe  Fe50  1  0.82824759  0.49730154  0.82982902  1
  Fe  Fe51  1  0.82985277  0.83180163  0.49985871  1
  Fe  Fe52  1  0.66263629  0.66447502  0.66481271  1
  Fe  Fe53  1  0.82862961  0.83226496  0.83096978  1
" 