2675,Fe30Cr70_15,-220.308152075923, 148.847081994777,Fe30Cr70,"# generated using pymatgen
 data_Cr8Fe19
_symmetry_space_group_name_H-M   'P 1'
_cell_length_a   7.50598725
_cell_length_b   7.50598725
_cell_length_c   10.61506897
_cell_angle_alpha   90.00000000
_cell_angle_beta   90.00000000
_cell_angle_gamma   90.00000000
_symmetry_Int_Tables_number   1
_chemical_formula_structural   Cr8Fe19
_chemical_formula_sum   'Cr16 Fe38'
_cell_volume   598.05133657
_cell_formula_units_Z   2
loop_
 _symmetry_equiv_pos_site_id
 _symmetry_equiv_pos_as_xyz
  1  'x, y, z'
loop_
 _atom_site_type_symbol
 _atom_site_label
 _atom_site_symmetry_multiplicity
 _atom_site_fract_x
 _atom_site_fract_y
 _atom_site_fract_z
 _atom_site_occupancy
  Fe  Fe0  1  -0.00080432  0.99517149  0.99668524  1
  Cr  Cr1  1  0.16511077  0.16773227  0.16104965  1
  Cr  Cr2  1  -0.00113486  0.99530531  0.32864189  1
  Fe  Fe3  1  0.99704221  0.33332679  0.99663682  1
  Cr  Cr4  1  0.16584002  0.50071310  0.16686109  1
  Cr  Cr5  1  0.99629027  0.32986810  0.33213181  1
  Fe  Fe6  1  0.99715402  0.66430599  -0.00203947  1
  Fe  Fe7  1  0.16394796  0.83036284  0.16200123  1
  Fe  Fe8  1  0.99619685  0.66444616  0.33200701  1
  Fe  Fe9  1  0.32993722  0.99569061  0.99629849  1
  Cr  Cr10  1  0.49791982  0.16357223  0.16549982  1
  Cr  Cr11  1  0.32859464  -0.00248903  0.33229204  1
  Fe  Fe12  1  0.33205764  0.33256188  0.99595342  1
  Fe  Fe13  1  0.49766385  0.49826964  0.16263395  1
  Fe  Fe14  1  0.33082734  0.33243542  0.33339138  1
  Fe  Fe15  1  0.33129592  0.66441628  0.99643376  1
  Cr  Cr16  1  0.49889021  0.82939428  0.16430695  1
  Fe  Fe17  1  0.33133351  0.66291904  0.33294541  1
  Fe  Fe18  1  0.66313838  0.99512142  0.99687830  1
  Cr  Cr19  1  0.82887865  0.16144277  0.16152594  1
  Fe  Fe20  1  0.66444823  0.99531175  0.33253287  1
  Fe  Fe21  1  0.66323355  0.33442223  -0.00259233  1
  Fe  Fe22  1  0.82954965  0.49995337  0.16251828  1
  Cr  Cr23  1  0.66252216  0.33557854  0.33021765  1
  Fe  Fe24  1  0.66394139  0.66206273  0.99674270  1
  Fe  Fe25  1  0.83198120  0.82733331  0.16245556  1
  Fe  Fe26  1  0.66536699  0.66609219  0.33210132  1
  Fe  Fe27  1  0.16591586  0.16601328  0.49884196  1
  Cr  Cr28  1  0.00234929  -0.00242442  0.66458386  1
  Fe  Fe29  1  0.16490518  0.16394866  0.83221301  1
  Fe  Fe30  1  0.16494789  0.49848747  0.49858743  1
  Fe  Fe31  1  -0.00259104  0.33318249  0.66272721  1
  Cr  Cr32  1  0.16398588  0.49938108  0.82829907  1
  Fe  Fe33  1  0.16456093  0.82762100  0.49829008  1
  Fe  Fe34  1  -0.00196943  0.66351321  0.66248842  1
  Fe  Fe35  1  0.16640237  0.83194024  0.83166690  1
  Fe  Fe36  1  0.49541574  0.16460011  0.49902529  1
  Fe  Fe37  1  0.33296151  0.99581236  0.66272175  1
  Cr  Cr38  1  0.49840073  0.16224923  0.82956534  1
  Fe  Fe39  1  0.49562665  0.49765625  0.49790348  1
  Fe  Fe40  1  0.33111091  0.33074478  0.66268246  1
  Fe  Fe41  1  0.49810497  0.49732119  0.83185298  1
  Fe  Fe42  1  0.49813235  0.83029833  0.49753958  1
  Fe  Fe43  1  0.32984670  0.66575914  0.66298362  1
  Fe  Fe44  1  0.49462733  0.82913188  0.83181817  1
  Cr  Cr45  1  0.82750979  0.16187119  0.49909455  1
  Fe  Fe46  1  0.66173848  0.99527725  0.66299073  1
  Cr  Cr47  1  0.82993110  0.16498658  0.83064430  1
  Fe  Fe48  1  0.83143290  0.49941237  0.49824624  1
  Fe  Fe49  1  0.66289131  0.33129363  0.66318670  1
  Fe  Fe50  1  0.83005710  0.49657863  0.83172741  1
  Fe  Fe51  1  0.83028681  0.82800666  0.49772036  1
  Cr  Cr52  1  0.66239683  0.66098909  0.66586020  1
  Cr  Cr53  1  0.82972775  0.83095672  0.83055726  1
" 