3396,Fe30Cr70_19,-220.356418450031, 148.170785445888,Fe30Cr70,"# generated using pymatgen
 data_Cr8Fe19
_symmetry_space_group_name_H-M   'P 1'
_cell_length_a   7.50012995
_cell_length_b   7.50012995
_cell_length_c   10.60678549
_cell_angle_alpha   90.00000000
_cell_angle_beta   90.00000000
_cell_angle_gamma   90.00000000
_symmetry_Int_Tables_number   1
_chemical_formula_structural   Cr8Fe19
_chemical_formula_sum   'Cr16 Fe38'
_cell_volume   596.65235840
_cell_formula_units_Z   2
loop_
 _symmetry_equiv_pos_site_id
 _symmetry_equiv_pos_as_xyz
  1  'x, y, z'
loop_
 _atom_site_type_symbol
 _atom_site_label
 _atom_site_symmetry_multiplicity
 _atom_site_fract_x
 _atom_site_fract_y
 _atom_site_fract_z
 _atom_site_occupancy
  Fe  Fe0  1  0.99662024  0.99650092  0.99758553  1
  Fe  Fe1  1  0.16475739  0.16561740  0.16574051  1
  Fe  Fe2  1  -0.00099448  -0.00034015  0.33131933  1
  Cr  Cr3  1  -0.00218552  0.33256970  -0.00083042  1
  Fe  Fe4  1  0.16398233  0.49613840  0.16544725  1
  Fe  Fe5  1  -0.00042425  0.33113193  0.33077156  1
  Fe  Fe6  1  0.99566930  0.66539909  0.99701277  1
  Cr  Cr7  1  0.15979607  0.83267705  0.16526993  1
  Fe  Fe8  1  0.99579711  0.66260091  0.33106990  1
  Cr  Cr9  1  0.33213650  -0.00094230  0.99533552  1
  Fe  Fe10  1  0.49667451  0.16625822  0.16386245  1
  Fe  Fe11  1  0.32922942  0.00028574  0.33167306  1
  Fe  Fe12  1  0.33151466  0.33025002  -0.00134343  1
  Fe  Fe13  1  0.49816307  0.49582591  0.16387448  1
  Fe  Fe14  1  0.32910160  0.32962708  0.32984889  1
  Cr  Cr15  1  0.32809713  0.66212333  0.99737980  1
  Cr  Cr16  1  0.50026195  0.82983952  0.16703554  1
  Cr  Cr17  1  0.32977427  0.66465029  0.33272537  1
  Fe  Fe18  1  0.66668795  -0.00152950  -0.00145793  1
  Fe  Fe19  1  0.83225343  0.16299485  0.16328457  1
  Cr  Cr20  1  0.66511491  -0.00140873  0.33021841  1
  Fe  Fe21  1  0.66294481  0.33075556  -0.00037836  1
  Fe  Fe22  1  0.83126964  0.50004318  0.16441684  1
  Cr  Cr23  1  0.66886424  0.33015501  0.33000262  1
  Fe  Fe24  1  0.66769861  0.66376279  -0.00152263  1
  Fe  Fe25  1  0.83178993  0.83036425  0.16395862  1
  Fe  Fe26  1  0.66675466  0.66333527  0.33056280  1
  Fe  Fe27  1  0.16261088  0.16451458  0.49778268  1
  Fe  Fe28  1  0.00082743  0.99735231  0.66432707  1
  Fe  Fe29  1  0.16607587  0.16484908  0.82973062  1
  Fe  Fe30  1  0.16159971  0.49618304  0.49781138  1
  Fe  Fe31  1  -0.00141561  0.33193774  0.66398983  1
  Fe  Fe32  1  0.16219434  0.49685521  0.83025504  1
  Fe  Fe33  1  0.16475451  0.83295567  0.49740498  1
  Fe  Fe34  1  0.99665241  0.66394629  0.66518221  1
  Fe  Fe35  1  0.16068426  0.83193061  0.83066964  1
  Cr  Cr36  1  0.49469382  0.16521366  0.50025951  1
  Fe  Fe37  1  0.32789544  -0.00076708  0.66491482  1
  Fe  Fe38  1  0.49669644  0.16580052  0.83066744  1
  Cr  Cr39  1  0.49955905  0.49836585  0.49816981  1
  Fe  Fe40  1  0.32892314  0.32932701  0.66534007  1
  Cr  Cr41  1  0.49901944  0.49414258  0.83199285  1
  Fe  Fe42  1  0.49675384  0.83150842  0.49772805  1
  Cr  Cr43  1  0.32810233  0.66642676  0.66352900  1
  Cr  Cr44  1  0.49935236  0.83095934  0.82936088  1
  Fe  Fe45  1  0.83432908  0.16659929  0.49884110  1
  Cr  Cr46  1  0.66387876  -0.00078999  0.66407955  1
  Cr  Cr47  1  0.83197033  0.16399284  0.83006611  1
  Fe  Fe48  1  0.83334031  0.49662819  0.49857990  1
  Fe  Fe49  1  0.66605746  0.33292913  0.66426058  1
  Fe  Fe50  1  0.83177854  0.49991212  0.83047587  1
  Cr  Cr51  1  0.83294276  0.82947924  0.49664352  1
  Fe  Fe52  1  0.66722007  0.66310205  0.66446062  1
  Fe  Fe53  1  0.83305918  0.82886548  0.83151957  1
" 