2782,Fe30Cr70_1,-220.318577977476, 150.174022368783,Fe30Cr70,"# generated using pymatgen
 data_Cr8Fe19
_symmetry_space_group_name_H-M   'P 1'
_cell_length_a   7.50152141
_cell_length_b   7.50152141
_cell_length_c   10.60875331
_cell_angle_alpha   90.00000000
_cell_angle_beta   90.00000000
_cell_angle_gamma   90.00000000
_symmetry_Int_Tables_number   1
_chemical_formula_structural   Cr8Fe19
_chemical_formula_sum   'Cr16 Fe38'
_cell_volume   596.98450162
_cell_formula_units_Z   2
loop_
 _symmetry_equiv_pos_site_id
 _symmetry_equiv_pos_as_xyz
  1  'x, y, z'
loop_
 _atom_site_type_symbol
 _atom_site_label
 _atom_site_symmetry_multiplicity
 _atom_site_fract_x
 _atom_site_fract_y
 _atom_site_fract_z
 _atom_site_occupancy
  Fe  Fe0  1  0.00116494  0.99757222  -0.00203614  1
  Fe  Fe1  1  0.16607857  0.16412630  0.16463759  1
  Cr  Cr2  1  -0.00197807  0.99614128  0.33025630  1
  Fe  Fe3  1  -0.00206766  0.33199981  0.99767438  1
  Fe  Fe4  1  0.16376622  0.49711282  0.16659287  1
  Fe  Fe5  1  0.99747032  0.33288200  0.32980529  1
  Cr  Cr6  1  0.99724886  0.66549617  -0.00180041  1
  Fe  Fe7  1  0.16380682  0.83155987  0.16482011  1
  Fe  Fe8  1  0.99748555  0.66280529  0.32928786  1
  Fe  Fe9  1  0.32832019  0.99704954  0.99767207  1
  Fe  Fe10  1  0.49642924  0.16569963  0.16553851  1
  Fe  Fe11  1  0.33144903  -0.00108233  0.33061748  1
  Cr  Cr12  1  0.33091838  0.33072994  -0.00209612  1
  Fe  Fe13  1  0.49872465  0.49570329  0.16624982  1
  Fe  Fe14  1  0.33209642  0.33056798  0.32953433  1
  Cr  Cr15  1  0.33072498  0.66288572  0.99588402  1
  Cr  Cr16  1  0.49642971  0.83047297  0.16449120  1
  Fe  Fe17  1  0.33002713  0.66389347  0.33030494  1
  Cr  Cr18  1  0.66599931  0.99732937  -0.00122830  1
  Cr  Cr19  1  0.83164562  0.16659729  0.16220045  1
  Fe  Fe20  1  0.66281182  -0.00099190  0.33007280  1
  Fe  Fe21  1  0.66475377  0.33347666  -0.00192328  1
  Fe  Fe22  1  0.83067049  0.49836872  0.16573466  1
  Fe  Fe23  1  0.66337426  0.33196741  0.33100488  1
  Cr  Cr24  1  0.66499972  0.66286458  0.99510227  1
  Fe  Fe25  1  0.83176394  0.82942425  0.16590183  1
  Fe  Fe26  1  0.66528575  0.66241378  0.33011426  1
  Cr  Cr27  1  0.16503029  0.16598525  0.50012677  1
  Fe  Fe28  1  -0.00073796  0.99584590  0.66545185  1
  Fe  Fe29  1  0.16397267  0.16376693  0.83000733  1
  Cr  Cr30  1  0.16347371  0.49859710  0.49640279  1
  Fe  Fe31  1  -0.00192430  0.33326622  0.66577205  1
  Fe  Fe32  1  0.16243681  0.49539962  0.82966741  1
  Fe  Fe33  1  0.16417874  0.83113057  0.49790961  1
  Fe  Fe34  1  0.99643889  0.66419506  0.66600494  1
  Fe  Fe35  1  0.16347036  0.83386416  0.83042797  1
  Fe  Fe36  1  0.49754840  0.16586502  0.49801020  1
  Fe  Fe37  1  0.33034517  -0.00201865  0.66504581  1
  Cr  Cr38  1  0.49754081  0.16314771  0.83072336  1
  Fe  Fe39  1  0.49968360  0.49567541  0.49709441  1
  Fe  Fe40  1  0.33181043  0.33070690  0.66532434  1
  Fe  Fe41  1  0.49947754  0.49665203  0.82956659  1
  Cr  Cr42  1  0.49686855  0.83119705  0.49739876  1
  Cr  Cr43  1  0.33096198  0.66312433  0.66667329  1
  Fe  Fe44  1  0.49815642  0.83148331  0.82971296  1
  Cr  Cr45  1  0.82977904  0.16615831  0.49971139  1
  Fe  Fe46  1  0.66351058  0.99670682  0.66539785  1
  Cr  Cr47  1  0.83347778  0.16573403  0.83135721  1
  Fe  Fe48  1  0.82961759  0.49787997  0.49770907  1
  Fe  Fe49  1  0.66318652  0.33359361  0.66399025  1
  Fe  Fe50  1  0.83115645  0.49743376  0.82942916  1
  Cr  Cr51  1  0.82991567  0.82962294  0.49800085  1
  Fe  Fe52  1  0.66555694  0.66289058  0.66604971  1
  Fe  Fe53  1  0.83158686  0.83094946  0.82853990  1
" 