8204,Fe30Cr70_16,-220.069774494815, 149.126230397874,Fe30Cr70,"# generated using pymatgen
 data_Cr8Fe19
_symmetry_space_group_name_H-M   'P 1'
_cell_length_a   7.49903581
_cell_length_b   7.49903581
_cell_length_c   10.60523815
_cell_angle_alpha   90.00000000
_cell_angle_beta   90.00000000
_cell_angle_gamma   90.00000000
_symmetry_Int_Tables_number   1
_chemical_formula_structural   Cr8Fe19
_chemical_formula_sum   'Cr16 Fe38'
_cell_volume   596.39127427
_cell_formula_units_Z   2
loop_
 _symmetry_equiv_pos_site_id
 _symmetry_equiv_pos_as_xyz
  1  'x, y, z'
loop_
 _atom_site_type_symbol
 _atom_site_label
 _atom_site_symmetry_multiplicity
 _atom_site_fract_x
 _atom_site_fract_y
 _atom_site_fract_z
 _atom_site_occupancy
  Fe  Fe0  1  -0.00110779  -0.00065827  -0.00055630  1
  Fe  Fe1  1  0.16359162  0.16488719  0.16517632  1
  Fe  Fe2  1  -0.00091500  -0.00018106  0.33079111  1
  Fe  Fe3  1  -0.00202803  0.33062408  0.99640903  1
  Fe  Fe4  1  0.16498247  0.49639421  0.16570931  1
  Fe  Fe5  1  -0.00139194  0.32837859  0.33184527  1
  Fe  Fe6  1  -0.00185799  0.66333975  -0.00109593  1
  Fe  Fe7  1  0.16415858  0.83270974  0.16469324  1
  Cr  Cr8  1  -0.00122584  0.66474142  0.33196223  1
  Fe  Fe9  1  0.33091279  -0.00160491  -0.00028394  1
  Fe  Fe10  1  0.49649629  0.16545384  0.16548398  1
  Fe  Fe11  1  0.32992404  -0.00087903  0.33049402  1
  Cr  Cr12  1  0.32814960  0.33198582  0.99606586  1
  Fe  Fe13  1  0.49611909  0.49659785  0.16660571  1
  Fe  Fe14  1  0.33077086  0.33096875  0.33096271  1
  Cr  Cr15  1  0.33085964  0.66496480  -0.00149644  1
  Fe  Fe16  1  0.49620575  0.83158159  0.16687935  1
  Fe  Fe17  1  0.33262391  0.66398477  0.32993317  1
  Cr  Cr18  1  0.66441960  0.99688462  -0.00162158  1
  Fe  Fe19  1  0.83350981  0.16362097  0.16514730  1
  Cr  Cr20  1  0.66585537  0.99766229  0.33207877  1
  Cr  Cr21  1  0.66551137  0.33025293  0.99695290  1
  Cr  Cr22  1  0.83092096  0.49585436  0.16350870  1
  Fe  Fe23  1  0.66310095  0.33092554  0.33067446  1
  Cr  Cr24  1  0.66344474  0.66590021  -0.00075761  1
  Fe  Fe25  1  0.83356002  0.83237048  0.16466923  1
  Fe  Fe26  1  0.66266814  0.66395526  0.33007163  1
  Fe  Fe27  1  0.16541411  0.16648272  0.49633574  1
  Fe  Fe28  1  0.99689940  -0.00086584  0.66335927  1
  Fe  Fe29  1  0.16169997  0.16440495  0.83205493  1
  Fe  Fe30  1  0.16744772  0.49706422  0.49724276  1
  Cr  Cr31  1  0.00011686  0.33093957  0.66509644  1
  Fe  Fe32  1  0.16330929  0.49832721  0.83040214  1
  Cr  Cr33  1  0.16371172  0.83259515  0.49808548  1
  Fe  Fe34  1  -0.00095701  0.66390171  0.66319151  1
  Cr  Cr35  1  0.16502375  0.83216140  0.83230150  1
  Fe  Fe36  1  0.49786249  0.16759737  0.49798781  1
  Cr  Cr37  1  0.33154382  0.00003670  0.66582659  1
  Cr  Cr38  1  0.49713409  0.16468791  0.83009627  1
  Fe  Fe39  1  0.49555798  0.49671378  0.49744279  1
  Fe  Fe40  1  0.33218232  0.33349733  0.66417136  1
  Fe  Fe41  1  0.49819375  0.49991415  0.82875250  1
  Cr  Cr42  1  0.49681955  0.83054330  0.50011618  1
  Fe  Fe43  1  0.33030375  0.66111640  0.66563332  1
  Fe  Fe44  1  0.49863643  0.82994547  0.82891498  1
  Fe  Fe45  1  0.83186512  0.16310782  0.49804650  1
  Fe  Fe46  1  0.66717935  -0.00004319  0.66344060  1
  Fe  Fe47  1  0.83356477  0.16370215  0.83047889  1
  Cr  Cr48  1  0.82872468  0.49702702  0.49695500  1
  Fe  Fe49  1  0.66365758  0.33086916  0.66465693  1
  Fe  Fe50  1  0.83179987  0.49691254  0.83053813  1
  Fe  Fe51  1  0.83083238  0.83170123  0.49997793  1
  Fe  Fe52  1  0.66357840  0.66257878  0.66502900  1
  Cr  Cr53  1  0.83346652  0.82919287  0.82839063  1
" 