8800,Fe30Cr70_0,-220.258282305939, 147.748419814221,Fe30Cr70,"# generated using pymatgen
 data_Cr8Fe19
_symmetry_space_group_name_H-M   'P 1'
_cell_length_a   7.50551394
_cell_length_b   7.50551394
_cell_length_c   10.61439960
_cell_angle_alpha   90.00000000
_cell_angle_beta   90.00000000
_cell_angle_gamma   90.00000000
_symmetry_Int_Tables_number   1
_chemical_formula_structural   Cr8Fe19
_chemical_formula_sum   'Cr16 Fe38'
_cell_volume   597.93820755
_cell_formula_units_Z   2
loop_
 _symmetry_equiv_pos_site_id
 _symmetry_equiv_pos_as_xyz
  1  'x, y, z'
loop_
 _atom_site_type_symbol
 _atom_site_label
 _atom_site_symmetry_multiplicity
 _atom_site_fract_x
 _atom_site_fract_y
 _atom_site_fract_z
 _atom_site_occupancy
  Fe  Fe0  1  0.99468005  -0.00154729  -0.00220472  1
  Cr  Cr1  1  0.16207946  0.16174535  0.16466237  1
  Fe  Fe2  1  0.99693687  -0.00236276  0.33209011  1
  Fe  Fe3  1  0.99582792  0.32949471  0.99743244  1
  Fe  Fe4  1  0.16410358  0.49433598  0.16317059  1
  Fe  Fe5  1  0.99709653  0.32942329  0.33223664  1
  Cr  Cr6  1  -0.00021134  0.66258972  -0.00210510  1
  Fe  Fe7  1  0.16464141  0.83149152  0.16246930  1
  Cr  Cr8  1  0.00001366  0.66362257  0.33171736  1
  Fe  Fe9  1  0.33210742  0.99639877  -0.00219890  1
  Cr  Cr10  1  0.49547821  0.16667700  0.16557086  1
  Fe  Fe11  1  0.33071578  0.99688869  0.33237473  1
  Fe  Fe12  1  0.32906653  0.33144488  -0.00256152  1
  Cr  Cr13  1  0.49685699  0.49680419  0.16319882  1
  Fe  Fe14  1  0.32793343  0.33000309  0.33215758  1
  Fe  Fe15  1  0.33179666  0.66560725  -0.00216428  1
  Fe  Fe16  1  0.49770623  0.83361530  0.16215398  1
  Cr  Cr17  1  0.32946266  0.66524686  0.32756184  1
  Fe  Fe18  1  0.66412170  -0.00191708  -0.00233671  1
  Fe  Fe19  1  0.82946519  0.16353846  0.16462306  1
  Fe  Fe20  1  0.66437092  -0.00141782  0.33111355  1
  Fe  Fe21  1  0.66646370  0.32862392  0.99705010  1
  Cr  Cr22  1  0.82874328  0.49794621  0.16530029  1
  Fe  Fe23  1  0.66615197  0.32826569  0.33184641  1
  Fe  Fe24  1  0.66408647  0.66638398  -0.00171505  1
  Fe  Fe25  1  0.83131470  0.83493120  0.16365082  1
  Cr  Cr26  1  0.66344764  0.66656191  0.32964763  1
  Fe  Fe27  1  0.16484324  0.16511821  0.49652202  1
  Cr  Cr28  1  0.99661403  0.00088956  0.66330680  1
  Cr  Cr29  1  0.16552866  0.16509830  0.83176220  1
  Fe  Fe30  1  0.16339162  0.49581840  0.49818409  1
  Fe  Fe31  1  -0.00232800  0.33309720  0.66366254  1
  Fe  Fe32  1  0.16376529  0.49714602  0.83039889  1
  Fe  Fe33  1  0.16614192  0.83249613  0.49793546  1
  Fe  Fe34  1  0.99710181  0.66125047  0.66346354  1
  Cr  Cr35  1  0.16262536  0.83389649  0.82998421  1
  Fe  Fe36  1  0.49795113  0.16183892  0.49657346  1
  Fe  Fe37  1  0.33297969  -0.00011790  0.66264552  1
  Fe  Fe38  1  0.49911813  0.16173755  0.83147880  1
  Cr  Cr39  1  0.49927168  0.49504014  0.49459451  1
  Fe  Fe40  1  0.33146312  0.32907190  0.66344842  1
  Cr  Cr41  1  0.49986703  0.49602093  0.83355368  1
  Fe  Fe42  1  0.49690466  0.83262366  0.49753867  1
  Cr  Cr43  1  0.33059121  0.66464660  0.66404548  1
  Fe  Fe44  1  0.49701916  0.83257029  0.83131353  1
  Fe  Fe45  1  0.82930809  0.16603033  0.49676799  1
  Fe  Fe46  1  0.66082870  -0.00149253  0.66395393  1
  Fe  Fe47  1  0.82912033  0.16543491  0.83117801  1
  Fe  Fe48  1  0.83224844  0.49473515  0.49794689  1
  Fe  Fe49  1  0.66526385  0.32868898  0.66422630  1
  Fe  Fe50  1  0.83285085  0.49490041  0.83044361  1
  Cr  Cr51  1  0.83139887  0.82931281  0.49868223  1
  Fe  Fe52  1  0.66411601  0.66225743  0.66373434  1
  Cr  Cr53  1  0.82918046  0.82911697  0.82953563  1
" 