5108,Fe31Cr69_11,-220.089821712474, 153.150635909532,Fe31Cr69,"# generated using pymatgen
 data_Cr8Fe19
_symmetry_space_group_name_H-M   'P 1'
_cell_length_a   7.49676471
_cell_length_b   7.49676471
_cell_length_c   10.60202633
_cell_angle_alpha   90.00000000
_cell_angle_beta   90.00000000
_cell_angle_gamma   90.00000000
_symmetry_Int_Tables_number   1
_chemical_formula_structural   Cr8Fe19
_chemical_formula_sum   'Cr16 Fe38'
_cell_volume   595.84958319
_cell_formula_units_Z   2
loop_
 _symmetry_equiv_pos_site_id
 _symmetry_equiv_pos_as_xyz
  1  'x, y, z'
loop_
 _atom_site_type_symbol
 _atom_site_label
 _atom_site_symmetry_multiplicity
 _atom_site_fract_x
 _atom_site_fract_y
 _atom_site_fract_z
 _atom_site_occupancy
  Fe  Fe0  1  0.99688222  -0.00069096  0.99778199  1
  Fe  Fe1  1  0.16289648  0.16524394  0.16514979  1
  Fe  Fe2  1  0.99774845  0.00016153  0.33273088  1
  Fe  Fe3  1  0.99750926  0.33054032  -0.00134775  1
  Cr  Cr4  1  0.16544306  0.49641402  0.16459640  1
  Fe  Fe5  1  0.99716423  0.32968978  0.33199602  1
  Cr  Cr6  1  0.99600115  0.66446579  0.99516546  1
  Cr  Cr7  1  0.16581987  0.83171540  0.16485919  1
  Cr  Cr8  1  0.99693256  0.66398878  0.33354504  1
  Cr  Cr9  1  0.33164338  0.00017937  0.99752837  1
  Cr  Cr10  1  0.49964213  0.16471957  0.16413039  1
  Fe  Fe11  1  0.33095160  0.99720262  0.33184226  1
  Fe  Fe12  1  0.33130465  0.33289231  0.99655070  1
  Cr  Cr13  1  0.49738543  0.49912428  0.16430028  1
  Fe  Fe14  1  0.33034643  0.33155158  0.33283890  1
  Fe  Fe15  1  0.33242253  0.66360148  0.99671501  1
  Fe  Fe16  1  0.49777232  0.83124316  0.16447024  1
  Fe  Fe17  1  0.33189227  0.66529364  0.33324371  1
  Fe  Fe18  1  0.66596580  0.99789181  0.99783785  1
  Fe  Fe19  1  0.83289157  0.16627926  0.16449069  1
  Fe  Fe20  1  0.66547845  -0.00153487  0.33197899  1
  Fe  Fe21  1  0.66528307  0.33205302  0.99739806  1
  Fe  Fe22  1  0.83084597  0.49511364  0.16404322  1
  Fe  Fe23  1  0.66666186  0.33086333  0.33197813  1
  Fe  Fe24  1  0.66373583  0.66418754  0.99755597  1
  Cr  Cr25  1  0.82983804  0.83406362  0.16239513  1
  Cr  Cr26  1  0.66450021  0.66431929  0.33129643  1
  Fe  Fe27  1  0.16364052  0.16478204  0.49705804  1
  Cr  Cr28  1  -0.00131309  0.99627077  0.66413120  1
  Cr  Cr29  1  0.16406372  0.16574221  0.83219375  1
  Fe  Fe30  1  0.16561305  0.49709192  0.49740979  1
  Fe  Fe31  1  0.99693364  0.33243625  0.66344583  1
  Fe  Fe32  1  0.16536319  0.49868571  0.83209616  1
  Fe  Fe33  1  0.16678378  0.83211510  0.49724992  1
  Cr  Cr34  1  0.99674224  0.66434660  0.66522818  1
  Fe  Fe35  1  0.16463709  0.83040248  0.83154147  1
  Cr  Cr36  1  0.49969518  0.16388702  0.49995632  1
  Fe  Fe37  1  0.33168473  0.99596888  0.66436548  1
  Fe  Fe38  1  0.49934555  0.16578653  0.83136436  1
  Fe  Fe39  1  0.49793992  0.49909977  0.49790427  1
  Cr  Cr40  1  0.33290700  0.33053409  0.66670454  1
  Fe  Fe41  1  0.49875823  0.49699929  0.83222448  1
  Fe  Fe42  1  0.49742275  0.83069083  0.49883606  1
  Fe  Fe43  1  0.33160928  0.66535500  0.66402029  1
  Cr  Cr44  1  0.49873803  0.83042164  0.83068172  1
  Fe  Fe45  1  0.83205891  0.16529618  0.49766197  1
  Fe  Fe46  1  0.66420308  0.99729560  0.66414491  1
  Cr  Cr47  1  0.82982287  0.16476232  0.83121946  1
  Fe  Fe48  1  0.83044193  0.49585923  0.49871769  1
  Fe  Fe49  1  0.66642309  0.33273624  0.66469388  1
  Fe  Fe50  1  0.82992563  0.49788930  0.83126628  1
  Fe  Fe51  1  0.82977503  0.83285710  0.49790361  1
  Fe  Fe52  1  0.66403835  0.66398970  0.66379677  1
  Fe  Fe53  1  0.83075974  0.83109722  0.83208447  1
" 