7936,Fe31Cr69_13,-220.335270205303, 147.392002221168,Fe31Cr69,"# generated using pymatgen
 data_Cr8Fe19
_symmetry_space_group_name_H-M   'P 1'
_cell_length_a   7.50161681
_cell_length_b   7.50161681
_cell_length_c   10.60888824
_cell_angle_alpha   90.00000000
_cell_angle_beta   90.00000000
_cell_angle_gamma   90.00000000
_symmetry_Int_Tables_number   1
_chemical_formula_structural   Cr8Fe19
_chemical_formula_sum   'Cr16 Fe38'
_cell_volume   597.00727993
_cell_formula_units_Z   2
loop_
 _symmetry_equiv_pos_site_id
 _symmetry_equiv_pos_as_xyz
  1  'x, y, z'
loop_
 _atom_site_type_symbol
 _atom_site_label
 _atom_site_symmetry_multiplicity
 _atom_site_fract_x
 _atom_site_fract_y
 _atom_site_fract_z
 _atom_site_occupancy
  Cr  Cr0  1  -0.00170143  -0.00096499  -0.00151583  1
  Fe  Fe1  1  0.16546608  0.16418438  0.16543958  1
  Fe  Fe2  1  -0.00139925  -0.00066748  0.33024624  1
  Cr  Cr3  1  0.99415594  0.33066220  -0.00026219  1
  Fe  Fe4  1  0.16489656  0.49595131  0.16478340  1
  Fe  Fe5  1  -0.00095570  0.32995273  0.32965869  1
  Cr  Cr6  1  -0.00028481  0.66329611  0.99758823  1
  Fe  Fe7  1  0.16616607  0.83294134  0.16517294  1
  Cr  Cr8  1  -0.00108629  0.66253400  0.33113629  1
  Fe  Fe9  1  0.33126771  -0.00168114  -0.00165826  1
  Fe  Fe10  1  0.49724577  0.16480616  0.16501138  1
  Fe  Fe11  1  0.33144047  -0.00073046  0.33047283  1
  Fe  Fe12  1  0.33311684  0.32968099  -0.00112894  1
  Fe  Fe13  1  0.49914696  0.49666201  0.16454543  1
  Fe  Fe14  1  0.33019332  0.32938923  0.33042188  1
  Cr  Cr15  1  0.33186311  0.66586724  -0.00154376  1
  Fe  Fe16  1  0.49714396  0.83173865  0.16493716  1
  Cr  Cr17  1  0.33162360  0.66397039  0.33036596  1
  Cr  Cr18  1  0.66234391  0.00140742  0.99669326  1
  Fe  Fe19  1  0.83028682  0.16607605  0.16650232  1
  Fe  Fe20  1  0.66301791  0.99739690  0.33092495  1
  Fe  Fe21  1  0.66319736  0.33256402  0.99768399  1
  Fe  Fe22  1  0.82909102  0.49593984  0.16523606  1
  Fe  Fe23  1  0.66383917  0.33077917  0.32927265  1
  Fe  Fe24  1  0.66374175  0.66217071  0.99769411  1
  Cr  Cr25  1  0.83008694  0.83037416  0.16773072  1
  Fe  Fe26  1  0.66368216  0.66489149  0.33052378  1
  Fe  Fe27  1  0.16560880  0.16608742  0.49791120  1
  Fe  Fe28  1  -0.00216320  0.99763702  0.66456175  1
  Cr  Cr29  1  0.16668185  0.16250375  0.82995789  1
  Fe  Fe30  1  0.16360612  0.49450375  0.49854145  1
  Fe  Fe31  1  -0.00222607  0.33111074  0.66444393  1
  Cr  Cr32  1  0.16507993  0.49685787  0.82839889  1
  Cr  Cr33  1  0.16279744  0.83376961  0.49956318  1
  Fe  Fe34  1  0.99652080  0.66431471  0.66428366  1
  Fe  Fe35  1  0.16558396  0.83220993  0.82963094  1
  Fe  Fe36  1  0.49651158  0.16310408  0.49768292  1
  Fe  Fe37  1  0.33242080  -0.00109027  0.66432305  1
  Fe  Fe38  1  0.49830010  0.16507701  0.83034327  1
  Cr  Cr39  1  0.49757239  0.49619812  0.49724541  1
  Fe  Fe40  1  0.33176864  0.32915699  0.66363674  1
  Fe  Fe41  1  0.50011769  0.49651204  0.83085991  1
  Fe  Fe42  1  0.50045736  0.83336317  0.49766217  1
  Cr  Cr43  1  0.33073926  0.66471784  0.66423110  1
  Fe  Fe44  1  0.49667562  0.83167948  0.83044158  1
  Cr  Cr45  1  0.83167146  0.16224543  0.49724153  1
  Fe  Fe46  1  0.66285960  0.99759571  0.66450381  1
  Fe  Fe47  1  0.82953757  0.16635205  0.82895814  1
  Cr  Cr48  1  0.83063100  0.49973693  0.49858850  1
  Fe  Fe49  1  0.66359585  0.33053733  0.66611643  1
  Fe  Fe50  1  0.82881809  0.49623754  0.82960461  1
  Fe  Fe51  1  0.82896892  0.83143570  0.49827300  1
  Fe  Fe52  1  0.66474239  0.66490561  0.66489127  1
  Cr  Cr53  1  0.83111375  0.82962570  0.82774850  1
" 