6902,Fe31Cr69_16,-220.232671096339, 147.724784730274,Fe31Cr69,"# generated using pymatgen
 data_Cr8Fe19
_symmetry_space_group_name_H-M   'P 1'
_cell_length_a   7.50191493
_cell_length_b   7.50191493
_cell_length_c   10.60930984
_cell_angle_alpha   90.00000000
_cell_angle_beta   90.00000000
_cell_angle_gamma   90.00000000
_symmetry_Int_Tables_number   1
_chemical_formula_structural   Cr8Fe19
_chemical_formula_sum   'Cr16 Fe38'
_cell_volume   597.07845953
_cell_formula_units_Z   2
loop_
 _symmetry_equiv_pos_site_id
 _symmetry_equiv_pos_as_xyz
  1  'x, y, z'
loop_
 _atom_site_type_symbol
 _atom_site_label
 _atom_site_symmetry_multiplicity
 _atom_site_fract_x
 _atom_site_fract_y
 _atom_site_fract_z
 _atom_site_occupancy
  Cr  Cr0  1  0.99600178  0.00105836  -0.00010863  1
  Fe  Fe1  1  0.16646939  0.16652783  0.16380902  1
  Cr  Cr2  1  0.99507976  -0.00222827  0.33211250  1
  Fe  Fe3  1  -0.00100158  0.33370853  0.99690392  1
  Fe  Fe4  1  0.16597717  0.49526167  0.16442250  1
  Cr  Cr5  1  0.00025502  0.33041762  0.33122082  1
  Fe  Fe6  1  -0.00118513  0.66267259  0.99728271  1
  Cr  Cr7  1  0.16451824  0.82896503  0.16479274  1
  Fe  Fe8  1  0.99759383  0.66406198  0.33273101  1
  Fe  Fe9  1  0.33291213  -0.00127075  -0.00167646  1
  Fe  Fe10  1  0.49534880  0.16549091  0.16401404  1
  Cr  Cr11  1  0.33041905  -0.00080471  0.33302707  1
  Fe  Fe12  1  0.33051158  0.32836510  0.99754013  1
  Fe  Fe13  1  0.49666700  0.49582413  0.16568155  1
  Fe  Fe14  1  0.33315087  0.33273912  0.33214547  1
  Cr  Cr15  1  0.33275840  0.66186913  -0.00230748  1
  Fe  Fe16  1  0.49990661  0.83217861  0.16597707  1
  Fe  Fe17  1  0.33119945  0.66228381  0.33231295  1
  Fe  Fe18  1  0.66054812  -0.00074355  0.99660102  1
  Cr  Cr19  1  0.82637114  0.16476884  0.16455146  1
  Fe  Fe20  1  0.66271099  0.99644075  0.33212341  1
  Fe  Fe21  1  0.66316104  0.32951532  0.99656424  1
  Cr  Cr22  1  0.83010335  0.49757077  0.16393928  1
  Fe  Fe23  1  0.66143235  0.33133468  0.33171934  1
  Cr  Cr24  1  0.66380582  0.66592075  0.99626787  1
  Fe  Fe25  1  0.82867968  0.83025549  0.16512156  1
  Fe  Fe26  1  0.66389299  0.66534011  0.33150531  1
  Fe  Fe27  1  0.16421202  0.16412269  0.49888683  1
  Fe  Fe28  1  -0.00004322  -0.00074817  0.66298955  1
  Fe  Fe29  1  0.16421304  0.16597793  0.83109185  1
  Fe  Fe30  1  0.16330774  0.49887213  0.49703183  1
  Fe  Fe31  1  0.99623971  0.33216320  0.66447753  1
  Fe  Fe32  1  0.16224504  0.49654427  0.83066391  1
  Fe  Fe33  1  0.16319078  0.83026676  0.49874678  1
  Fe  Fe34  1  0.99712342  0.66221174  0.66245177  1
  Cr  Cr35  1  0.16664915  0.83206467  0.82910853  1
  Fe  Fe36  1  0.49773562  0.16537146  0.49765359  1
  Fe  Fe37  1  0.33110010  -0.00119820  0.66192296  1
  Fe  Fe38  1  0.49635050  0.16236058  0.83168273  1
  Fe  Fe39  1  0.50022080  0.49709426  0.49615180  1
  Cr  Cr40  1  0.32940247  0.33098502  0.66231673  1
  Cr  Cr41  1  0.49941968  0.49479564  0.82976294  1
  Fe  Fe42  1  0.49969551  0.83034635  0.49680919  1
  Cr  Cr43  1  0.33415994  0.66426839  0.66312456  1
  Fe  Fe44  1  0.49766703  0.83283616  0.83086787  1
  Cr  Cr45  1  0.82884132  0.16607391  0.49865137  1
  Cr  Cr46  1  0.66422214  0.99621222  0.66579759  1
  Fe  Fe47  1  0.83091457  0.16744648  0.83075301  1
  Fe  Fe48  1  0.83027724  0.49955897  0.49722321  1
  Fe  Fe49  1  0.66485929  0.33235638  0.66411352  1
  Fe  Fe50  1  0.83376875  0.49576820  0.83061456  1
  Fe  Fe51  1  0.83046473  0.82854941  0.49874775  1
  Fe  Fe52  1  0.66668382  0.66207988  0.66334285  1
  Cr  Cr53  1  0.83430063  0.83060547  0.83125045  1
" 