2396,Fe31Cr69_0,-219.99715982081, 152.888653010422,Fe31Cr69,"# generated using pymatgen
 data_Cr8Fe19
_symmetry_space_group_name_H-M   'P 1'
_cell_length_a   7.49774775
_cell_length_b   7.49774775
_cell_length_c   10.60341656
_cell_angle_alpha   90.00000000
_cell_angle_beta   90.00000000
_cell_angle_gamma   90.00000000
_symmetry_Int_Tables_number   1
_chemical_formula_structural   Cr8Fe19
_chemical_formula_sum   'Cr16 Fe38'
_cell_volume   596.08401244
_cell_formula_units_Z   2
loop_
 _symmetry_equiv_pos_site_id
 _symmetry_equiv_pos_as_xyz
  1  'x, y, z'
loop_
 _atom_site_type_symbol
 _atom_site_label
 _atom_site_symmetry_multiplicity
 _atom_site_fract_x
 _atom_site_fract_y
 _atom_site_fract_z
 _atom_site_occupancy
  Fe  Fe0  1  0.99757549  -0.00166533  0.99741997  1
  Fe  Fe1  1  0.16570886  0.16460885  0.16462201  1
  Cr  Cr2  1  -0.00037726  -0.00055838  0.33322999  1
  Fe  Fe3  1  -0.00171813  0.33128329  0.99688517  1
  Cr  Cr4  1  0.16378215  0.49776063  0.16415147  1
  Fe  Fe5  1  -0.00169228  0.33058462  0.33182401  1
  Fe  Fe6  1  0.99649197  0.66423776  0.99758398  1
  Fe  Fe7  1  0.16569469  0.83237496  0.16447324  1
  Cr  Cr8  1  -0.00110006  0.66364955  0.33103637  1
  Cr  Cr9  1  0.33211741  -0.00102643  0.00037057  1
  Fe  Fe10  1  0.49687136  0.16463232  0.16461286  1
  Fe  Fe11  1  0.33059545  0.99724574  0.33055480  1
  Fe  Fe12  1  0.33021651  0.33021274  -0.00204524  1
  Cr  Cr13  1  0.49959648  0.49642674  0.16688335  1
  Fe  Fe14  1  0.33058473  0.33057918  0.33179728  1
  Cr  Cr15  1  0.33130690  0.66434750  -0.00158146  1
  Fe  Fe16  1  0.49741276  0.83181908  0.16516540  1
  Fe  Fe17  1  0.33238206  0.66603335  0.33218603  1
  Fe  Fe18  1  0.66499234  0.99724555  0.99740090  1
  Cr  Cr19  1  0.83081538  0.16612368  0.16443495  1
  Cr  Cr20  1  0.66336128  0.99789960  0.33207583  1
  Fe  Fe21  1  0.66536041  0.33129051  -0.00202415  1
  Fe  Fe22  1  0.83073109  0.49741586  0.16424547  1
  Fe  Fe23  1  0.66496344  0.33236475  0.33128490  1
  Fe  Fe24  1  0.66605947  0.66531702  0.99742093  1
  Cr  Cr25  1  0.83215211  0.82964664  0.16197231  1
  Fe  Fe26  1  0.66316553  0.66423690  0.33181357  1
  Fe  Fe27  1  0.16445661  0.16583898  0.49795102  1
  Cr  Cr28  1  0.99708274  -0.00052901  0.66289698  1
  Fe  Fe29  1  0.16372230  0.16690933  0.83129353  1
  Fe  Fe30  1  0.16637714  0.49725553  0.49833525  1
  Fe  Fe31  1  -0.00167590  0.33164717  0.66514313  1
  Fe  Fe32  1  0.16318508  0.49617640  0.83091283  1
  Fe  Fe33  1  0.16622313  0.83076721  0.49864329  1
  Fe  Fe34  1  0.99778649  0.66372027  0.66445490  1
  Cr  Cr35  1  0.16291609  0.83062234  0.83105965  1
  Cr  Cr36  1  0.49715069  0.16608304  0.49758400  1
  Fe  Fe37  1  0.33075970  0.99741250  0.66424694  1
  Cr  Cr38  1  0.49785570  0.16525179  0.83213185  1
  Fe  Fe39  1  0.49690980  0.49901874  0.49793969  1
  Fe  Fe40  1  0.32967341  0.33149256  0.66410609  1
  Cr  Cr41  1  0.49818560  0.49717127  0.82913469  1
  Fe  Fe42  1  0.49704637  0.82899276  0.49795822  1
  Fe  Fe43  1  0.33130114  0.66495347  0.66370785  1
  Fe  Fe44  1  0.49956379  0.83075869  0.83075019  1
  Fe  Fe45  1  0.83233917  0.16570282  0.49778878  1
  Cr  Cr46  1  0.66533878  0.99684606  0.66535021  1
  Fe  Fe47  1  0.83235061  0.16567044  0.83252156  1
  Cr  Cr48  1  0.83039025  0.49752938  0.49649775  1
  Fe  Fe49  1  0.66585800  0.33217601  0.66459507  1
  Fe  Fe50  1  0.83234680  0.49796683  0.83115808  1
  Fe  Fe51  1  0.83059285  0.83090672  0.49833611  1
  Fe  Fe52  1  0.66476891  0.66479599  0.66461087  1
  Fe  Fe53  1  0.82989092  0.83022234  0.83254320  1
" 