5728,Fe31Cr69_6,-220.056043013782, 151.684270321998,Fe31Cr69,"# generated using pymatgen
 data_Cr8Fe19
_symmetry_space_group_name_H-M   'P 1'
_cell_length_a   7.49168272
_cell_length_b   7.49168272
_cell_length_c   10.59483931
_cell_angle_alpha   90.00000000
_cell_angle_beta   90.00000000
_cell_angle_gamma   90.00000000
_symmetry_Int_Tables_number   1
_chemical_formula_structural   Cr8Fe19
_chemical_formula_sum   'Cr16 Fe38'
_cell_volume   594.63864093
_cell_formula_units_Z   2
loop_
 _symmetry_equiv_pos_site_id
 _symmetry_equiv_pos_as_xyz
  1  'x, y, z'
loop_
 _atom_site_type_symbol
 _atom_site_label
 _atom_site_symmetry_multiplicity
 _atom_site_fract_x
 _atom_site_fract_y
 _atom_site_fract_z
 _atom_site_occupancy
  Fe  Fe0  1  -0.00152049  0.99497014  0.99791974  1
  Cr  Cr1  1  0.16197669  0.16178612  0.16273929  1
  Fe  Fe2  1  -0.00126565  0.99551477  0.33133208  1
  Fe  Fe3  1  0.99730725  0.33379274  0.99791260  1
  Fe  Fe4  1  0.16246619  0.49999076  0.16513702  1
  Fe  Fe5  1  0.99642026  0.33181137  0.33120650  1
  Fe  Fe6  1  0.99793666  0.66502391  0.99702224  1
  Fe  Fe7  1  0.16283931  0.82839360  0.16439096  1
  Fe  Fe8  1  0.00123907  0.66601146  0.33240594  1
  Fe  Fe9  1  0.33253412  0.99580016  -0.00139225  1
  Fe  Fe10  1  0.50096515  0.16536573  0.16303265  1
  Cr  Cr11  1  0.33237576  0.99819652  0.33037247  1
  Cr  Cr12  1  0.32992961  0.33114372  0.99792268  1
  Fe  Fe13  1  0.49807563  0.49932359  0.16538007  1
  Cr  Cr14  1  0.32877391  0.33256802  0.32963739  1
  Cr  Cr15  1  0.33140697  0.66326655  -0.00161134  1
  Fe  Fe16  1  0.49952818  0.83111201  0.16331082  1
  Fe  Fe17  1  0.33041699  0.66669320  0.32994099  1
  Fe  Fe18  1  0.66393918  0.99705479  -0.00057637  1
  Fe  Fe19  1  0.83049593  0.16461856  0.16302407  1
  Cr  Cr20  1  0.66706221  0.99830761  0.33221169  1
  Fe  Fe21  1  0.66376332  0.33323083  0.99835328  1
  Cr  Cr22  1  0.83029134  0.49997633  0.16471825  1
  Fe  Fe23  1  0.66456571  0.33152887  0.33034723  1
  Fe  Fe24  1  0.66537949  0.66579946  0.99672029  1
  Fe  Fe25  1  0.83408114  0.83358841  0.16289533  1
  Cr  Cr26  1  0.66691565  0.66816295  0.33238044  1
  Cr  Cr27  1  0.16385726  0.16269315  0.50228007  1
  Fe  Fe28  1  0.99620316  0.99342230  0.66582757  1
  Cr  Cr29  1  0.16445456  0.16212711  0.82942435  1
  Fe  Fe30  1  0.16340374  0.49912517  0.49894696  1
  Fe  Fe31  1  0.99692903  0.33560120  0.66590509  1
  Fe  Fe32  1  0.16300814  0.49854543  0.83046267  1
  Fe  Fe33  1  0.16559711  0.82850116  0.49903707  1
  Fe  Fe34  1  0.00061790  0.66488040  0.66584703  1
  Fe  Fe35  1  0.16432367  0.83005108  0.83143895  1
  Cr  Cr36  1  0.49819163  0.16651593  0.50247974  1
  Fe  Fe37  1  0.33166252  0.99244187  0.66535467  1
  Cr  Cr38  1  0.49785976  0.16410618  0.82874887  1
  Cr  Cr39  1  0.49897711  0.50143016  0.49731391  1
  Fe  Fe40  1  0.33044072  0.33633701  0.66606241  1
  Fe  Fe41  1  0.49916029  0.49841079  0.83084995  1
  Fe  Fe42  1  0.49698879  0.83311201  0.50031958  1
  Fe  Fe43  1  0.33065412  0.66521247  0.66676450  1
  Fe  Fe44  1  0.49824156  0.83206861  0.83236787  1
  Cr  Cr45  1  0.83253610  0.16645470  0.49809802  1
  Fe  Fe46  1  0.66710799  0.99725119  0.66518711  1
  Cr  Cr47  1  0.83188763  0.16567264  0.83336298  1
  Fe  Fe48  1  0.83486132  0.49931135  0.49812600  1
  Fe  Fe49  1  0.66736787  0.33470918  0.66601181  1
  Fe  Fe50  1  0.83270686  0.49939378  0.83369232  1
  Fe  Fe51  1  0.83531900  0.83124619  0.49968111  1
  Cr  Cr52  1  0.66793673  0.66742813  0.66714907  1
  Fe  Fe53  1  0.83302101  0.83213373  0.83374139  1
" 