7278,Fe31Cr69_9,-220.019572679637, 150.839752140728,Fe31Cr69,"# generated using pymatgen
 data_Cr8Fe19
_symmetry_space_group_name_H-M   'P 1'
_cell_length_a   7.49691577
_cell_length_b   7.49691577
_cell_length_c   10.60223996
_cell_angle_alpha   90.00000000
_cell_angle_beta   90.00000000
_cell_angle_gamma   90.00000000
_symmetry_Int_Tables_number   1
_chemical_formula_structural   Cr8Fe19
_chemical_formula_sum   'Cr16 Fe38'
_cell_volume   595.88560209
_cell_formula_units_Z   2
loop_
 _symmetry_equiv_pos_site_id
 _symmetry_equiv_pos_as_xyz
  1  'x, y, z'
loop_
 _atom_site_type_symbol
 _atom_site_label
 _atom_site_symmetry_multiplicity
 _atom_site_fract_x
 _atom_site_fract_y
 _atom_site_fract_z
 _atom_site_occupancy
  Fe  Fe0  1  -0.00155260  0.99748821  -0.00125114  1
  Fe  Fe1  1  0.16463728  0.16503694  0.16288055  1
  Cr  Cr2  1  -0.00115568  0.99668243  0.32961750  1
  Fe  Fe3  1  -0.00081880  0.33120137  -0.00167832  1
  Fe  Fe4  1  0.16505409  0.49787951  0.16320937  1
  Cr  Cr5  1  -0.00063214  0.33105249  0.33001876  1
  Fe  Fe6  1  -0.00174095  0.66541929  0.99731397  1
  Fe  Fe7  1  0.16505024  0.83104967  0.16318919  1
  Fe  Fe8  1  -0.00066642  0.66594827  0.33131524  1
  Fe  Fe9  1  0.33037980  0.99676241  0.99789214  1
  Cr  Cr10  1  0.49561372  0.16361862  0.16725036  1
  Fe  Fe11  1  0.33175552  -0.00160074  0.33249805  1
  Fe  Fe12  1  0.32924458  0.33122961  -0.00185334  1
  Cr  Cr13  1  0.49749702  0.49811873  0.16461977  1
  Fe  Fe14  1  0.33117928  0.33022156  0.33288353  1
  Fe  Fe15  1  0.33039391  0.66612291  -0.00171296  1
  Fe  Fe16  1  0.49744475  0.83184571  0.16384924  1
  Cr  Cr17  1  0.33001281  0.66493535  0.33218569  1
  Cr  Cr18  1  0.66534876  0.99731024  0.99579069  1
  Fe  Fe19  1  0.83207586  0.16351979  0.16470399  1
  Fe  Fe20  1  0.66339087  0.99775845  0.33115751  1
  Cr  Cr21  1  0.66675984  0.33127647  0.99741982  1
  Cr  Cr22  1  0.83226320  0.49973233  0.16457737  1
  Fe  Fe23  1  0.66292949  0.32968167  0.33213032  1
  Fe  Fe24  1  0.66536084  0.66662464  0.99755745  1
  Fe  Fe25  1  0.83150025  0.83215404  0.16385055  1
  Cr  Cr26  1  0.66380024  0.66569912  0.33071275  1
  Fe  Fe27  1  0.16687625  0.16608741  0.49818209  1
  Cr  Cr28  1  0.99719318  0.99712490  0.66504789  1
  Cr  Cr29  1  0.16485514  0.16488118  0.83291262  1
  Fe  Fe30  1  0.16573594  0.49773723  0.49938055  1
  Fe  Fe31  1  0.00018940  0.33296836  0.66509676  1
  Fe  Fe32  1  0.16337013  0.49939649  0.83137155  1
  Fe  Fe33  1  0.16397773  0.83002000  0.49805601  1
  Fe  Fe34  1  -0.00112390  0.66407765  0.66545595  1
  Fe  Fe35  1  0.16497377  0.82851506  0.83262401  1
  Fe  Fe36  1  0.49684759  0.16489981  0.49645042  1
  Cr  Cr37  1  0.33239765  0.99640171  0.66384248  1
  Fe  Fe38  1  0.49772047  0.16347482  0.83148423  1
  Fe  Fe39  1  0.49637426  0.49708396  0.49874487  1
  Fe  Fe40  1  0.32980217  0.33234956  0.66347549  1
  Cr  Cr41  1  0.49732915  0.49996533  0.83207225  1
  Fe  Fe42  1  0.49931209  0.83197971  0.49859808  1
  Fe  Fe43  1  0.33064105  0.66388729  0.66371428  1
  Fe  Fe44  1  0.49759149  0.83152866  0.83128311  1
  Cr  Cr45  1  0.83020024  0.16314109  0.49746345  1
  Fe  Fe46  1  0.66400349  0.99598251  0.66569878  1
  Fe  Fe47  1  0.83146435  0.16484474  0.83100091  1
  Cr  Cr48  1  0.83211393  0.50086557  0.49852770  1
  Cr  Cr49  1  0.66441201  0.33073028  0.66613349  1
  Fe  Fe50  1  0.83433296  0.49927775  0.83128301  1
  Fe  Fe51  1  0.83070265  0.83085220  0.49857757  1
  Fe  Fe52  1  0.66453651  0.66784153  0.66458860  1
  Fe  Fe53  1  0.83147494  0.82974650  0.83123615  1
" 