4942,Fe31Cr69_3,-220.117650022597, 153.860638769388,Fe31Cr69,"# generated using pymatgen
 data_Cr8Fe19
_symmetry_space_group_name_H-M   'P 1'
_cell_length_a   7.49503671
_cell_length_b   7.49503671
_cell_length_c   10.59958257
_cell_angle_alpha   90.00000000
_cell_angle_beta   90.00000000
_cell_angle_gamma   90.00000000
_symmetry_Int_Tables_number   1
_chemical_formula_structural   Cr8Fe19
_chemical_formula_sum   'Cr16 Fe38'
_cell_volume   595.43764948
_cell_formula_units_Z   2
loop_
 _symmetry_equiv_pos_site_id
 _symmetry_equiv_pos_as_xyz
  1  'x, y, z'
loop_
 _atom_site_type_symbol
 _atom_site_label
 _atom_site_symmetry_multiplicity
 _atom_site_fract_x
 _atom_site_fract_y
 _atom_site_fract_z
 _atom_site_occupancy
  Cr  Cr0  1  0.99695892  0.00118464  0.99743030  1
  Fe  Fe1  1  0.16395803  0.16758174  0.16503521  1
  Cr  Cr2  1  0.99735574  0.00072617  0.33315526  1
  Fe  Fe3  1  -0.00062287  0.33274413  0.99712407  1
  Fe  Fe4  1  0.16718033  0.49571855  0.16549407  1
  Fe  Fe5  1  0.99697903  0.33118739  0.33089013  1
  Fe  Fe6  1  0.00006349  0.66237851  0.99719096  1
  Cr  Cr7  1  0.16351983  0.82915405  0.16600201  1
  Fe  Fe8  1  0.99692028  0.66551409  0.33226473  1
  Fe  Fe9  1  0.32970561  -0.00166713  -0.00103001  1
  Cr  Cr10  1  0.49756939  0.16480765  0.16315202  1
  Fe  Fe11  1  0.33173474  0.99723811  0.33203799  1
  Fe  Fe12  1  0.32830487  0.33224575  -0.00135411  1
  Fe  Fe13  1  0.49618584  0.49928216  0.16381230  1
  Fe  Fe14  1  0.33161990  0.33153301  0.33013667  1
  Fe  Fe15  1  0.33027400  0.66333297  -0.00166538  1
  Fe  Fe16  1  0.49815846  0.82898190  0.16252692  1
  Fe  Fe17  1  0.33160541  0.66543522  0.33164727  1
  Fe  Fe18  1  0.66491465  -0.00154839  -0.00013176  1
  Fe  Fe19  1  0.83302132  0.16630223  0.16370594  1
  Cr  Cr20  1  0.66660969  0.99779354  0.32834010  1
  Fe  Fe21  1  0.66714517  0.33113755  -0.00164199  1
  Cr  Cr22  1  0.83457312  0.49914792  0.16517625  1
  Fe  Fe23  1  0.66576274  0.33148932  0.33186999  1
  Fe  Fe24  1  0.66460584  0.66431551  0.00011765  1
  Fe  Fe25  1  0.83026839  0.83110515  0.16282310  1
  Cr  Cr26  1  0.66183094  0.66452635  0.33441012  1
  Fe  Fe27  1  0.16395696  0.16479468  0.49909699  1
  Fe  Fe28  1  0.00094686  -0.00004137  0.66439114  1
  Fe  Fe29  1  0.16416201  0.16549245  0.83052684  1
  Cr  Cr30  1  0.16241868  0.49812937  0.49379347  1
  Fe  Fe31  1  0.99784062  0.32973337  0.66533230  1
  Fe  Fe32  1  0.16391420  0.49671964  0.83281269  1
  Fe  Fe33  1  0.16600187  0.83366120  0.49733566  1
  Cr  Cr34  1  -0.00099389  0.66440797  0.66572492  1
  Fe  Fe35  1  0.16633650  0.83238608  0.83273229  1
  Cr  Cr36  1  0.49693338  0.16551601  0.49896845  1
  Fe  Fe37  1  0.32753893  -0.00176079  0.66431772  1
  Cr  Cr38  1  0.49702672  0.16490989  0.83148450  1
  Fe  Fe39  1  0.49848692  0.49713291  0.49883304  1
  Fe  Fe40  1  0.32836303  0.33064132  0.66439176  1
  Cr  Cr41  1  0.50002918  0.49618091  0.83086325  1
  Fe  Fe42  1  0.49614063  0.83124671  0.49833250  1
  Cr  Cr43  1  0.33262519  0.66346480  0.66443964  1
  Cr  Cr44  1  0.49793321  0.83332656  0.83358544  1
  Fe  Fe45  1  0.83347326  0.16816345  0.49883982  1
  Cr  Cr46  1  0.66748518  0.99803172  0.66405055  1
  Fe  Fe47  1  0.83167050  0.16782232  0.83103883  1
  Fe  Fe48  1  0.82994206  0.49580999  0.49814135  1
  Fe  Fe49  1  0.66757861  0.33413136  0.66382059  1
  Fe  Fe50  1  0.83201223  0.49511680  0.83283242  1
  Fe  Fe51  1  0.83278613  0.83061059  0.49901754  1
  Fe  Fe52  1  0.66575327  0.66317430  0.66250118  1
  Cr  Cr53  1  0.83260741  0.82872216  0.83344779  1
" 