334,Fe31Cr69_12,-220.110046997707, 145.395423946728,Fe31Cr69,"# generated using pymatgen
 data_Cr8Fe19
_symmetry_space_group_name_H-M   'P 1'
_cell_length_a   7.50386579
_cell_length_b   7.50386579
_cell_length_c   10.61206877
_cell_angle_alpha   90.00000000
_cell_angle_beta   90.00000000
_cell_angle_gamma   90.00000000
_symmetry_Int_Tables_number   1
_chemical_formula_structural   Cr8Fe19
_chemical_formula_sum   'Cr16 Fe38'
_cell_volume   597.54438785
_cell_formula_units_Z   2
loop_
 _symmetry_equiv_pos_site_id
 _symmetry_equiv_pos_as_xyz
  1  'x, y, z'
loop_
 _atom_site_type_symbol
 _atom_site_label
 _atom_site_symmetry_multiplicity
 _atom_site_fract_x
 _atom_site_fract_y
 _atom_site_fract_z
 _atom_site_occupancy
  Cr  Cr0  1  0.99676946  0.99752859  -0.00122283  1
  Fe  Fe1  1  0.16682437  0.16471777  0.16585690  1
  Fe  Fe2  1  -0.00219437  -0.00160025  0.32954894  1
  Cr  Cr3  1  -0.00120716  0.33177705  0.99560800  1
  Fe  Fe4  1  0.16703351  0.49632505  0.16468410  1
  Fe  Fe5  1  -0.00177136  0.33088652  0.33124309  1
  Cr  Cr6  1  0.99734117  0.66343401  0.99700398  1
  Fe  Fe7  1  0.16619885  0.83156913  0.16499903  1
  Cr  Cr8  1  -0.00133010  0.66237681  0.32972969  1
  Fe  Fe9  1  0.33095341  -0.00134315  -0.00169852  1
  Fe  Fe10  1  0.49598000  0.16530643  0.16490211  1
  Fe  Fe11  1  0.33262493  -0.00237109  0.32936440  1
  Fe  Fe12  1  0.33161010  0.32950662  -0.00140916  1
  Fe  Fe13  1  0.49573283  0.49716960  0.16382828  1
  Fe  Fe14  1  0.33165969  0.33204632  0.33018927  1
  Fe  Fe15  1  0.33205674  0.66461674  -0.00086598  1
  Fe  Fe16  1  0.49748123  0.83014484  0.16487068  1
  Fe  Fe17  1  0.33364171  0.66311411  0.33027822  1
  Cr  Cr18  1  0.66170220  -0.00168868  0.99598148  1
  Cr  Cr19  1  0.83107684  0.16469323  0.16803318  1
  Fe  Fe20  1  0.66224152  0.99726792  0.33069086  1
  Fe  Fe21  1  0.66319642  0.33051156  0.99741281  1
  Cr  Cr22  1  0.82605038  0.49715417  0.16321739  1
  Fe  Fe23  1  0.66242284  0.33142772  0.33262852  1
  Fe  Fe24  1  0.66327449  0.66482984  -0.00224008  1
  Fe  Fe25  1  0.82898464  0.83095364  0.16578870  1
  Fe  Fe26  1  0.66121317  0.66399523  0.33090715  1
  Cr  Cr27  1  0.16350683  0.16483751  0.49680596  1
  Cr  Cr28  1  0.99490230  -0.00083578  0.66660161  1
  Fe  Fe29  1  0.16639759  0.16744183  0.83063948  1
  Fe  Fe30  1  0.16453293  0.49548688  0.49642048  1
  Fe  Fe31  1  0.99728044  0.33112243  0.66522975  1
  Fe  Fe32  1  0.16572057  0.49520492  0.83049879  1
  Cr  Cr33  1  0.16564596  0.83228576  0.49554337  1
  Cr  Cr34  1  0.99697460  0.65992038  0.66550045  1
  Cr  Cr35  1  0.16594316  0.83228784  0.83156008  1
  Fe  Fe36  1  0.49973595  0.16449382  0.49656494  1
  Cr  Cr37  1  0.33642453  -0.00073638  0.66545219  1
  Fe  Fe38  1  0.49734506  0.16477733  0.83105154  1
  Fe  Fe39  1  0.49843148  0.49662068  0.49666649  1
  Fe  Fe40  1  0.33074555  0.33115297  0.66430322  1
  Cr  Cr41  1  0.49901873  0.49715427  0.83367647  1
  Fe  Fe42  1  0.49882537  0.83140226  0.49577365  1
  Cr  Cr43  1  0.33177220  0.66241861  0.66076649  1
  Fe  Fe44  1  0.49928207  0.83042644  0.83122794  1
  Fe  Fe45  1  0.82881586  0.16619111  0.49637705  1
  Fe  Fe46  1  0.66371400  -0.00202856  0.66526231  1
  Fe  Fe47  1  0.82883730  0.16624976  0.83002834  1
  Fe  Fe48  1  0.82986980  0.49468286  0.49706593  1
  Fe  Fe49  1  0.66466359  0.33019702  0.66356409  1
  Fe  Fe50  1  0.82977293  0.49673894  0.83044742  1
  Cr  Cr51  1  0.82912888  0.83172947  0.49679744  1
  Fe  Fe52  1  0.66375107  0.66449308  0.66426348  1
  Fe  Fe53  1  0.82691657  0.82945763  0.83010366  1
" 