203,Fe31Cr69_17,-220.252872717362, 146.051196370167,Fe31Cr69,"# generated using pymatgen
 data_Cr8Fe19
_symmetry_space_group_name_H-M   'P 1'
_cell_length_a   7.50532754
_cell_length_b   7.50532754
_cell_length_c   10.61413600
_cell_angle_alpha   90.00000000
_cell_angle_beta   90.00000000
_cell_angle_gamma   90.00000000
_symmetry_Int_Tables_number   1
_chemical_formula_structural   Cr8Fe19
_chemical_formula_sum   'Cr16 Fe38'
_cell_volume   597.89366022
_cell_formula_units_Z   2
loop_
 _symmetry_equiv_pos_site_id
 _symmetry_equiv_pos_as_xyz
  1  'x, y, z'
loop_
 _atom_site_type_symbol
 _atom_site_label
 _atom_site_symmetry_multiplicity
 _atom_site_fract_x
 _atom_site_fract_y
 _atom_site_fract_z
 _atom_site_occupancy
  Fe  Fe0  1  0.00023393  -0.00166401  -0.00128748  1
  Fe  Fe1  1  0.16326551  0.16333684  0.16335586  1
  Fe  Fe2  1  -0.00236274  -0.00029854  0.33067714  1
  Fe  Fe3  1  -0.00193971  0.32962602  -0.00075437  1
  Fe  Fe4  1  0.16162817  0.49661677  0.16510586  1
  Fe  Fe5  1  0.99464369  0.32950381  0.33002829  1
  Cr  Cr6  1  0.99688410  0.66317462  -0.00235041  1
  Fe  Fe7  1  0.16527957  0.83221264  0.16598086  1
  Fe  Fe8  1  0.99655165  0.66358510  0.32921315  1
  Fe  Fe9  1  0.33054505  -0.00121585  -0.00235712  1
  Fe  Fe10  1  0.49854720  0.16185455  0.16345063  1
  Fe  Fe11  1  0.33040857  -0.00243639  0.32900957  1
  Fe  Fe12  1  0.33066159  0.32821338  -0.00221248  1
  Cr  Cr13  1  0.49689449  0.49717759  0.16461237  1
  Cr  Cr14  1  0.32977334  0.32900347  0.33089245  1
  Cr  Cr15  1  0.33114249  0.66606651  -0.00104448  1
  Fe  Fe16  1  0.49696225  0.83334685  0.16550615  1
  Fe  Fe17  1  0.32992247  0.66626931  0.32839450  1
  Fe  Fe18  1  0.66154243  0.99708642  -0.00195020  1
  Fe  Fe19  1  0.83039927  0.16625217  0.16355426  1
  Fe  Fe20  1  0.66420397  0.00004278  0.33089498  1
  Fe  Fe21  1  0.66381920  0.33165576  -0.00201857  1
  Fe  Fe22  1  0.83118313  0.49559907  0.16488841  1
  Fe  Fe23  1  0.66672308  0.32914461  0.33063572  1
  Fe  Fe24  1  0.66388029  0.66386915  0.99688337  1
  Cr  Cr25  1  0.82981874  0.83390358  0.16467216  1
  Fe  Fe26  1  0.66582277  0.66347402  0.33030836  1
  Fe  Fe27  1  0.16386223  0.16210714  0.49662663  1
  Fe  Fe28  1  -0.00064242  -0.00211734  0.66386982  1
  Fe  Fe29  1  0.16486410  0.16103591  0.83223671  1
  Cr  Cr30  1  0.16417393  0.49825365  0.49444006  1
  Cr  Cr31  1  0.99612634  0.33045485  0.66218817  1
  Cr  Cr32  1  0.16523309  0.49562069  0.83155257  1
  Cr  Cr33  1  0.16215676  0.83223730  0.49831895  1
  Fe  Fe34  1  0.99498667  0.66470134  0.66413212  1
  Fe  Fe35  1  0.16429190  0.83467808  0.83046929  1
  Fe  Fe36  1  0.49755661  0.16324562  0.49619749  1
  Fe  Fe37  1  0.32963173  -0.00147248  0.66532024  1
  Fe  Fe38  1  0.49673372  0.16363780  0.83255997  1
  Cr  Cr39  1  0.49900633  0.49634366  0.49824753  1
  Cr  Cr40  1  0.33194062  0.32750249  0.66469872  1
  Fe  Fe41  1  0.50176415  0.49653494  0.83198090  1
  Cr  Cr42  1  0.49755139  0.83042065  0.49394060  1
  Cr  Cr43  1  0.33120232  0.66540149  0.66654572  1
  Fe  Fe44  1  0.49745068  0.83230963  0.83150988  1
  Fe  Fe45  1  0.83081141  0.16397649  0.49566409  1
  Cr  Cr46  1  0.66361867  -0.00179663  0.66142929  1
  Cr  Cr47  1  0.83148940  0.16363493  0.83443341  1
  Fe  Fe48  1  0.83022925  0.49907587  0.49629043  1
  Fe  Fe49  1  0.66472350  0.33152970  0.66476310  1
  Fe  Fe50  1  0.82834043  0.49691873  0.83080063  1
  Fe  Fe51  1  0.83136349  0.82927356  0.49629746  1
  Fe  Fe52  1  0.66601966  0.66176910  0.66451145  1
  Cr  Cr53  1  0.83136963  0.83161269  0.82917585  1
" 