5581,Fe31Cr69_1,-220.070095917637, 145.467390508213,Fe31Cr69,"# generated using pymatgen
 data_Cr8Fe19
_symmetry_space_group_name_H-M   'P 1'
_cell_length_a   7.50561251
_cell_length_b   7.50561251
_cell_length_c   10.61453901
_cell_angle_alpha   90.00000000
_cell_angle_beta   90.00000000
_cell_angle_gamma   90.00000000
_symmetry_Int_Tables_number   1
_chemical_formula_structural   Cr8Fe19
_chemical_formula_sum   'Cr16 Fe38'
_cell_volume   597.96176667
_cell_formula_units_Z   2
loop_
 _symmetry_equiv_pos_site_id
 _symmetry_equiv_pos_as_xyz
  1  'x, y, z'
loop_
 _atom_site_type_symbol
 _atom_site_label
 _atom_site_symmetry_multiplicity
 _atom_site_fract_x
 _atom_site_fract_y
 _atom_site_fract_z
 _atom_site_occupancy
  Fe  Fe0  1  -0.00148244  -0.00192541  -0.00165529  1
  Fe  Fe1  1  0.16233330  0.16358019  0.16549625  1
  Fe  Fe2  1  0.99527117  -0.00218010  0.32828746  1
  Cr  Cr3  1  0.99609488  0.32985169  -0.00243410  1
  Fe  Fe4  1  0.16369055  0.49748580  0.16605693  1
  Fe  Fe5  1  0.99620061  0.33166256  0.32931847  1
  Cr  Cr6  1  0.99525772  0.66262531  -0.00157038  1
  Fe  Fe7  1  0.16461097  0.83068929  0.16434734  1
  Fe  Fe8  1  -0.00130609  0.66296532  0.32867992  1
  Fe  Fe9  1  0.32932048  0.99505465  0.99689788  1
  Cr  Cr10  1  0.49843610  0.16645585  0.16333140  1
  Cr  Cr11  1  0.33234492  0.99741214  0.33071386  1
  Cr  Cr12  1  0.32682059  0.32714710  0.99637513  1
  Cr  Cr13  1  0.49666950  0.49705275  0.16232172  1
  Fe  Fe14  1  0.33051224  0.33330524  0.33141219  1
  Fe  Fe15  1  0.32949034  0.66652418  0.99737042  1
  Fe  Fe16  1  0.49744704  0.83121512  0.16237911  1
  Fe  Fe17  1  0.32958172  0.66286319  0.33110089  1
  Fe  Fe18  1  0.66492477  -0.00232748  0.99741450  1
  Fe  Fe19  1  0.83125593  0.16363234  0.16489772  1
  Fe  Fe20  1  0.66595292  -0.00084497  0.33057751  1
  Fe  Fe21  1  0.66683325  0.32977341  0.99708462  1
  Fe  Fe22  1  0.83065193  0.49596637  0.16518041  1
  Fe  Fe23  1  0.66544044  0.32955825  0.33215323  1
  Fe  Fe24  1  0.66423654  0.66524588  -0.00173550  1
  Fe  Fe25  1  0.83020375  0.83262846  0.16388496  1
  Cr  Cr26  1  0.66532402  0.66548543  0.33046949  1
  Cr  Cr27  1  0.16221541  0.16421143  0.49587791  1
  Fe  Fe28  1  0.99733371  -0.00009943  0.66545718  1
  Fe  Fe29  1  0.16164244  0.16222341  0.83044476  1
  Fe  Fe30  1  0.16187680  0.49736899  0.49574318  1
  Fe  Fe31  1  0.99512945  0.33169901  0.66514473  1
  Fe  Fe32  1  0.16203266  0.49851587  0.82980584  1
  Cr  Cr33  1  0.16065917  0.82992392  0.49828800  1
  Fe  Fe34  1  -0.00151842  0.66103411  0.66538479  1
  Fe  Fe35  1  0.16488997  0.83093164  0.83174114  1
  Fe  Fe36  1  0.50090558  0.16420910  0.49645447  1
  Cr  Cr37  1  0.33306317  -0.00202407  0.66635918  1
  Fe  Fe38  1  0.50058764  0.16187832  0.83226904  1
  Fe  Fe39  1  0.49720704  0.49605246  0.49581333  1
  Cr  Cr40  1  0.32952572  0.32931283  0.66338246  1
  Cr  Cr41  1  0.49816416  0.49572789  0.83434406  1
  Fe  Fe42  1  0.49782829  0.83213806  0.49670079  1
  Cr  Cr43  1  0.33154914  0.66473393  0.66340771  1
  Fe  Fe44  1  0.49796229  0.83178704  0.83330503  1
  Fe  Fe45  1  0.82978864  0.16567738  0.49742577  1
  Fe  Fe46  1  0.66394362  0.00059057  0.66402789  1
  Fe  Fe47  1  0.82952247  0.16528365  0.82996135  1
  Fe  Fe48  1  0.83326029  0.49494240  0.49711906  1
  Fe  Fe49  1  0.66495756  0.32891896  0.66358627  1
  Fe  Fe50  1  0.83128220  0.49561080  0.82976706  1
  Cr  Cr51  1  0.83304384  0.83333757  0.49821462  1
  Cr  Cr52  1  0.66533945  0.66411119  0.66333001  1
  Cr  Cr53  1  0.83296073  0.83227061  0.82955839  1
" 