7325,Fe31Cr69_4,-220.059019259399, 150.408921531563,Fe31Cr69,"# generated using pymatgen
 data_Cr8Fe19
_symmetry_space_group_name_H-M   'P 1'
_cell_length_a   7.49584338
_cell_length_b   7.49584338
_cell_length_c   10.60072337
_cell_angle_alpha   90.00000000
_cell_angle_beta   90.00000000
_cell_angle_gamma   90.00000000
_symmetry_Int_Tables_number   1
_chemical_formula_structural   Cr8Fe19
_chemical_formula_sum   'Cr16 Fe38'
_cell_volume   595.62992490
_cell_formula_units_Z   2
loop_
 _symmetry_equiv_pos_site_id
 _symmetry_equiv_pos_as_xyz
  1  'x, y, z'
loop_
 _atom_site_type_symbol
 _atom_site_label
 _atom_site_symmetry_multiplicity
 _atom_site_fract_x
 _atom_site_fract_y
 _atom_site_fract_z
 _atom_site_occupancy
  Fe  Fe0  1  -0.00083755  -0.00063512  0.00026601  1
  Fe  Fe1  1  0.16607343  0.16415133  0.16306491  1
  Cr  Cr2  1  0.99631111  0.00064136  0.33200331  1
  Fe  Fe3  1  -0.00062293  0.33042602  -0.00027047  1
  Fe  Fe4  1  0.16720382  0.49895093  0.16446264  1
  Cr  Cr5  1  0.00003347  0.33344452  0.32868174  1
  Cr  Cr6  1  -0.00008823  0.66189544  0.99729181  1
  Fe  Fe7  1  0.16777350  0.83144383  0.16495111  1
  Fe  Fe8  1  -0.00111138  0.66461083  0.32961904  1
  Fe  Fe9  1  0.33195772  -0.00165665  -0.00028048  1
  Fe  Fe10  1  0.49648492  0.16429560  0.16173412  1
  Fe  Fe11  1  0.33092739  0.00035087  0.32962908  1
  Fe  Fe12  1  0.33059510  0.33301239  -0.00053709  1
  Fe  Fe13  1  0.49759103  0.49906185  0.16445080  1
  Fe  Fe14  1  0.33164799  0.32954683  0.32952102  1
  Fe  Fe15  1  0.33415825  0.66418506  0.99800243  1
  Fe  Fe16  1  0.49669708  0.83053876  0.16381390  1
  Fe  Fe17  1  0.33217235  0.66407387  0.32949356  1
  Fe  Fe18  1  0.66338426  0.99708425  -0.00062949  1
  Fe  Fe19  1  0.83110731  0.16517297  0.16093014  1
  Cr  Cr20  1  0.66096676  0.99778429  0.33197042  1
  Fe  Fe21  1  0.66427442  0.33362430  0.00032383  1
  Fe  Fe22  1  0.83037033  0.49760325  0.16372762  1
  Cr  Cr23  1  0.66428239  0.32731107  0.32890768  1
  Fe  Fe24  1  0.66353057  0.66426897  0.99805344  1
  Cr  Cr25  1  0.83298668  0.83038447  0.16473546  1
  Fe  Fe26  1  0.66334552  0.66433875  0.32968267  1
  Fe  Fe27  1  0.16722996  0.16702086  0.49790067  1
  Fe  Fe28  1  -0.00152805  -0.00165753  0.66382237  1
  Fe  Fe29  1  0.16539029  0.16609733  0.83333419  1
  Fe  Fe30  1  0.16641445  0.49777300  0.49656184  1
  Cr  Cr31  1  0.00066962  0.33188416  0.66543314  1
  Fe  Fe32  1  0.16704569  0.49451656  0.83357902  1
  Cr  Cr33  1  0.16395272  0.83285178  0.49469667  1
  Cr  Cr34  1  -0.00172603  0.66383364  0.66575382  1
  Cr  Cr35  1  0.16406771  0.83530554  0.83407247  1
  Fe  Fe36  1  0.49482443  0.16375738  0.49883219  1
  Fe  Fe37  1  0.32914263  -0.00061869  0.66428187  1
  Cr  Cr38  1  0.49644737  0.16753423  0.83174764  1
  Cr  Cr39  1  0.49816622  0.49544666  0.49843347  1
  Fe  Fe40  1  0.33185629  0.33044889  0.66503139  1
  Fe  Fe41  1  0.49946358  0.49862281  0.83314163  1
  Fe  Fe42  1  0.49707388  0.82916624  0.49731414  1
  Cr  Cr43  1  0.33242110  0.66398659  0.66924968  1
  Fe  Fe44  1  0.49963683  0.83242823  0.83357100  1
  Fe  Fe45  1  0.83170122  0.16515027  0.49941950  1
  Cr  Cr46  1  0.66312009  0.99654036  0.66146045  1
  Cr  Cr47  1  0.83239281  0.16449442  0.83449958  1
  Cr  Cr48  1  0.82989444  0.49942405  0.49635271  1
  Fe  Fe49  1  0.66473789  0.33286256  0.66511813  1
  Fe  Fe50  1  0.82898825  0.49798157  0.83233965  1
  Fe  Fe51  1  0.82965568  0.83033380  0.49711507  1
  Fe  Fe52  1  0.66490415  0.66391343  0.66666186  1
  Fe  Fe53  1  0.82911921  0.83126959  0.83295438  1
" 