3509,Fe31Cr69_18,-220.163851869179, 150.916087698501,Fe31Cr69,"# generated using pymatgen
 data_Cr8Fe19
_symmetry_space_group_name_H-M   'P 1'
_cell_length_a   7.50136289
_cell_length_b   7.50136289
_cell_length_c   10.60852914
_cell_angle_alpha   90.00000000
_cell_angle_beta   90.00000000
_cell_angle_gamma   90.00000000
_symmetry_Int_Tables_number   1
_chemical_formula_structural   Cr8Fe19
_chemical_formula_sum   'Cr16 Fe38'
_cell_volume   596.94665834
_cell_formula_units_Z   2
loop_
 _symmetry_equiv_pos_site_id
 _symmetry_equiv_pos_as_xyz
  1  'x, y, z'
loop_
 _atom_site_type_symbol
 _atom_site_label
 _atom_site_symmetry_multiplicity
 _atom_site_fract_x
 _atom_site_fract_y
 _atom_site_fract_z
 _atom_site_occupancy
  Fe  Fe0  1  -0.00169492  0.99731379  0.99589337  1
  Fe  Fe1  1  0.16298804  0.16344338  0.16565421  1
  Fe  Fe2  1  -0.00003799  -0.00130371  0.33046792  1
  Cr  Cr3  1  0.99677105  0.33151296  -0.00189271  1
  Fe  Fe4  1  0.16532447  0.49903691  0.16516454  1
  Fe  Fe5  1  -0.00047850  0.33152786  0.32887310  1
  Fe  Fe6  1  -0.00165601  0.66619671  0.99746705  1
  Fe  Fe7  1  0.16434804  0.83041132  0.16574639  1
  Fe  Fe8  1  0.99627788  0.66251813  0.33053071  1
  Cr  Cr9  1  0.32833220  0.99632169  0.99581764  1
  Cr  Cr10  1  0.49831087  0.16542038  0.16191956  1
  Fe  Fe11  1  0.32921997  -0.00104187  0.33061310  1
  Fe  Fe12  1  0.32990247  0.33155306  -0.00163057  1
  Fe  Fe13  1  0.49678306  0.49917758  0.16259369  1
  Fe  Fe14  1  0.33001829  0.33144136  0.33060752  1
  Fe  Fe15  1  0.32908442  0.66299682  -0.00094721  1
  Cr  Cr16  1  0.49803056  0.83006122  0.16555916  1
  Fe  Fe17  1  0.33207486  0.66211299  0.33108935  1
  Cr  Cr18  1  0.66580785  -0.00086533  0.99485616  1
  Fe  Fe19  1  0.83330896  0.16453316  0.16513767  1
  Cr  Cr20  1  0.66377716  0.99629676  0.33347371  1
  Fe  Fe21  1  0.66497555  0.33280639  -0.00188955  1
  Fe  Fe22  1  0.83103129  0.49898703  0.16369968  1
  Cr  Cr23  1  0.66476946  0.33432261  0.32884736  1
  Fe  Fe24  1  0.66616658  0.66239252  -0.00201102  1
  Cr  Cr25  1  0.83289226  0.83214995  0.16433340  1
  Fe  Fe26  1  0.66479564  0.66327466  0.33275825  1
  Fe  Fe27  1  0.16442923  0.16416807  0.49733474  1
  Cr  Cr28  1  -0.00123813  0.99760145  0.66710118  1
  Fe  Fe29  1  0.16584854  0.16562616  0.83059336  1
  Cr  Cr30  1  0.16278520  0.49589193  0.49926370  1
  Fe  Fe31  1  0.99611741  0.33130050  0.66549600  1
  Cr  Cr32  1  0.16319575  0.49926500  0.82949603  1
  Cr  Cr33  1  0.16409409  0.82986578  0.49655006  1
  Fe  Fe34  1  0.99497907  0.66426284  0.66462744  1
  Fe  Fe35  1  0.16339688  0.82968104  0.83072811  1
  Cr  Cr36  1  0.49698549  0.16392238  0.50053765  1
  Fe  Fe37  1  0.33073209  -0.00223658  0.66558143  1
  Fe  Fe38  1  0.49720714  0.16604388  0.82903778  1
  Fe  Fe39  1  0.49819623  0.49918948  0.49887254  1
  Fe  Fe40  1  0.33034580  0.32967864  0.66508288  1
  Cr  Cr41  1  0.49660862  0.49628219  0.83309490  1
  Fe  Fe42  1  0.49792935  0.82814200  0.49905276  1
  Fe  Fe43  1  0.33189370  0.66521077  0.66370513  1
  Cr  Cr44  1  0.49828824  0.83062763  0.82953334  1
  Cr  Cr45  1  0.83274870  0.16502310  0.49632831  1
  Fe  Fe46  1  0.66533837  0.99693935  0.66495092  1
  Fe  Fe47  1  0.82989260  0.16683488  0.82971350  1
  Fe  Fe48  1  0.83034969  0.49961283  0.49849722  1
  Fe  Fe49  1  0.66592644  0.33206617  0.66495293  1
  Fe  Fe50  1  0.82976927  0.49886162  0.83033469  1
  Fe  Fe51  1  0.83101460  0.82821534  0.49839291  1
  Fe  Fe52  1  0.66584954  0.66405426  0.66338832  1
  Fe  Fe53  1  0.83268000  0.82775843  0.83150713  1
" 