480,Fe31Cr69_19,-220.272901290555, 146.619192052112,Fe31Cr69,"# generated using pymatgen
 data_Cr8Fe19
_symmetry_space_group_name_H-M   'P 1'
_cell_length_a   7.50476559
_cell_length_b   7.50476559
_cell_length_c   10.61334128
_cell_angle_alpha   90.00000000
_cell_angle_beta   90.00000000
_cell_angle_gamma   90.00000000
_symmetry_Int_Tables_number   1
_chemical_formula_structural   Cr8Fe19
_chemical_formula_sum   'Cr16 Fe38'
_cell_volume   597.75937116
_cell_formula_units_Z   2
loop_
 _symmetry_equiv_pos_site_id
 _symmetry_equiv_pos_as_xyz
  1  'x, y, z'
loop_
 _atom_site_type_symbol
 _atom_site_label
 _atom_site_symmetry_multiplicity
 _atom_site_fract_x
 _atom_site_fract_y
 _atom_site_fract_z
 _atom_site_occupancy
  Fe  Fe0  1  -0.00197022  0.00017562  -0.00070967  1
  Fe  Fe1  1  0.16274452  0.16453799  0.16298862  1
  Cr  Cr2  1  -0.00063295  -0.00141278  0.33050801  1
  Fe  Fe3  1  0.99547534  0.33104140  -0.00147202  1
  Fe  Fe4  1  0.16347216  0.49815593  0.16455794  1
  Fe  Fe5  1  -0.00181736  0.33078912  0.32924921  1
  Fe  Fe6  1  0.99732204  0.66180666  -0.00027191  1
  Fe  Fe7  1  0.16578448  0.82979633  0.16222880  1
  Cr  Cr8  1  0.99462302  0.66283267  0.33328115  1
  Fe  Fe9  1  0.33251143  0.99647930  -0.00047635  1
  Fe  Fe10  1  0.50038832  0.16357302  0.16445023  1
  Cr  Cr11  1  0.33122408  -0.00014531  0.33067827  1
  Cr  Cr12  1  0.33187867  0.32929830  -0.00029739  1
  Fe  Fe13  1  0.49913710  0.49868616  0.16526991  1
  Fe  Fe14  1  0.32967548  0.33100938  0.32795015  1
  Fe  Fe15  1  0.33206769  0.66503349  0.00006257  1
  Fe  Fe16  1  0.49686203  0.83019745  0.16339226  1
  Fe  Fe17  1  0.33132974  0.66454371  0.32835662  1
  Fe  Fe18  1  0.66176778  -0.00006339  -0.00230005  1
  Fe  Fe19  1  0.82967303  0.16699209  0.16369819  1
  Fe  Fe20  1  0.66257148  0.99711220  0.33065944  1
  Fe  Fe21  1  0.66641057  0.33001181  -0.00164572  1
  Fe  Fe22  1  0.82974445  0.49594957  0.16354627  1
  Fe  Fe23  1  0.66447926  0.33041029  0.32862950  1
  Fe  Fe24  1  0.66317280  0.66307775  -0.00178870  1
  Cr  Cr25  1  0.82965494  0.83392787  0.16475219  1
  Fe  Fe26  1  0.66208186  0.66502913  0.33072200  1
  Fe  Fe27  1  0.16671616  0.16665742  0.49845738  1
  Cr  Cr28  1  -0.00216314  0.99746885  0.66177619  1
  Cr  Cr29  1  0.16360480  0.16409231  0.82901805  1
  Cr  Cr30  1  0.16623324  0.49541725  0.49994013  1
  Fe  Fe31  1  0.99403498  0.33209297  0.66365945  1
  Cr  Cr32  1  0.16479503  0.49846743  0.82814573  1
  Cr  Cr33  1  0.16472651  0.82946161  0.49958380  1
  Fe  Fe34  1  0.99582745  0.66257967  0.66363605  1
  Cr  Cr35  1  0.16483397  0.82978798  0.83344852  1
  Fe  Fe36  1  0.49598515  0.16368141  0.49825403  1
  Fe  Fe37  1  0.33535939  -0.00226477  0.66347942  1
  Fe  Fe38  1  0.49930138  0.16140936  0.83046680  1
  Cr  Cr39  1  0.49637416  0.49565980  0.49416518  1
  Fe  Fe40  1  0.33302880  0.32786454  0.66363789  1
  Cr  Cr41  1  0.49743540  0.49630575  0.83130644  1
  Fe  Fe42  1  0.49902573  0.83240668  0.49713157  1
  Fe  Fe43  1  0.33283180  0.66626605  0.66424225  1
  Fe  Fe44  1  0.49673292  0.83262561  0.83154389  1
  Cr  Cr45  1  0.82839527  0.16298219  0.49523779  1
  Fe  Fe46  1  0.66138005  -0.00104389  0.66423082  1
  Fe  Fe47  1  0.82880729  0.16691645  0.83123242  1
  Fe  Fe48  1  0.83060497  0.49615970  0.49742789  1
  Fe  Fe49  1  0.66492783  0.32842565  0.66456763  1
  Fe  Fe50  1  0.83188522  0.49570514  0.83182331  1
  Fe  Fe51  1  0.82742175  0.82949706  0.49688649  1
  Cr  Cr52  1  0.66589034  0.66329580  0.66287961  1
  Cr  Cr53  1  0.83067330  0.83353771  0.83210325  1
" 