1425,Fe31Cr69_10,-219.994460982044, 147.74766651444,Fe31Cr69,"# generated using pymatgen
 data_Cr8Fe19
_symmetry_space_group_name_H-M   'P 1'
_cell_length_a   7.50634387
_cell_length_b   7.50634387
_cell_length_c   10.61557331
_cell_angle_alpha   90.00000000
_cell_angle_beta   90.00000000
_cell_angle_gamma   90.00000000
_symmetry_Int_Tables_number   1
_chemical_formula_structural   Cr8Fe19
_chemical_formula_sum   'Cr16 Fe38'
_cell_volume   598.13658322
_cell_formula_units_Z   2
loop_
 _symmetry_equiv_pos_site_id
 _symmetry_equiv_pos_as_xyz
  1  'x, y, z'
loop_
 _atom_site_type_symbol
 _atom_site_label
 _atom_site_symmetry_multiplicity
 _atom_site_fract_x
 _atom_site_fract_y
 _atom_site_fract_z
 _atom_site_occupancy
  Cr  Cr0  1  0.99693493  -0.00216233  -0.00253778  1
  Fe  Fe1  1  0.16415136  0.16396034  0.16500294  1
  Fe  Fe2  1  -0.00105456  -0.00226892  0.33025560  1
  Cr  Cr3  1  -0.00258608  0.33047539  0.99629314  1
  Cr  Cr4  1  0.16350035  0.49654688  0.16330305  1
  Fe  Fe5  1  -0.00211362  0.33025063  0.33021672  1
  Fe  Fe6  1  0.99625237  0.66418925  0.99640204  1
  Cr  Cr7  1  0.16323821  0.83210117  0.16333919  1
  Fe  Fe8  1  0.99643404  0.66418864  0.33064035  1
  Fe  Fe9  1  0.32960947  -0.00147349  0.99638915  1
  Cr  Cr10  1  0.49602086  0.16575522  0.16251438  1
  Fe  Fe11  1  0.32941449  -0.00128701  0.33206805  1
  Fe  Fe12  1  0.33108973  0.32995033  0.99688700  1
  Fe  Fe13  1  0.49858037  0.49709806  0.16340587  1
  Fe  Fe14  1  0.33085787  0.32963685  0.33164577  1
  Fe  Fe15  1  0.33006427  0.66369285  0.99701889  1
  Cr  Cr16  1  0.49725641  0.82984804  0.16257835  1
  Cr  Cr17  1  0.33251111  0.66284770  0.33322875  1
  Cr  Cr18  1  0.66513596  0.99732400  0.99607468  1
  Fe  Fe19  1  0.83178169  0.16487668  0.16516225  1
  Cr  Cr20  1  0.66478949  0.99652459  0.33090261  1
  Fe  Fe21  1  0.66430985  0.33148647  -0.00259645  1
  Fe  Fe22  1  0.82916939  0.49796974  0.16465701  1
  Fe  Fe23  1  0.66334480  0.33227146  0.33018542  1
  Fe  Fe24  1  0.66578853  0.66263960  -0.00216886  1
  Fe  Fe25  1  0.83116994  0.82926359  0.16466644  1
  Fe  Fe26  1  0.66450367  0.66262330  0.33019680  1
  Fe  Fe27  1  0.16551897  0.16404723  0.49648252  1
  Cr  Cr28  1  0.99698968  0.99722912  0.66578422  1
  Fe  Fe29  1  0.16633550  0.16401900  0.83076430  1
  Fe  Fe30  1  0.16460439  0.49731684  0.49728591  1
  Cr  Cr31  1  -0.00146425  0.33160039  0.66580358  1
  Fe  Fe32  1  0.16426347  0.49854607  0.83090325  1
  Fe  Fe33  1  0.16463084  0.83077736  0.49728177  1
  Fe  Fe34  1  -0.00164145  0.66404721  0.66501085  1
  Fe  Fe35  1  0.16417922  0.82960134  0.83091708  1
  Fe  Fe36  1  0.49626652  0.16451881  0.49771744  1
  Fe  Fe37  1  0.33099479  -0.00198001  0.66354254  1
  Fe  Fe38  1  0.49689115  0.16452822  0.83038424  1
  Fe  Fe39  1  0.49730566  0.49682572  0.49808131  1
  Fe  Fe40  1  0.33108075  0.33013665  0.66358603  1
  Cr  Cr41  1  0.49744788  0.49575373  0.83232354  1
  Fe  Fe42  1  0.49680025  0.83077182  0.49840809  1
  Fe  Fe43  1  0.32952798  0.66398938  0.66298979  1
  Cr  Cr44  1  0.49639929  0.83213450  0.83061344  1
  Cr  Cr45  1  0.83008517  0.16501938  0.49673105  1
  Fe  Fe46  1  0.66279832  -0.00198502  0.66449897  1
  Fe  Fe47  1  0.82893068  0.16458579  0.83007724  1
  Cr  Cr48  1  0.83083324  0.49768287  0.49707684  1
  Fe  Fe49  1  0.66282039  0.33011299  0.66453661  1
  Fe  Fe50  1  0.83053680  0.49851215  0.83055866  1
  Cr  Cr51  1  0.83110893  0.82944613  0.49735294  1
  Fe  Fe52  1  0.66425285  0.66401700  0.66412077  1
  Fe  Fe53  1  0.83100109  0.82906935  0.83008869  1
" 