7713,Fe31Cr69_5,-220.30975884483, 152.027087830335,Fe31Cr69,"# generated using pymatgen
 data_Cr8Fe19
_symmetry_space_group_name_H-M   'P 1'
_cell_length_a   7.50233999
_cell_length_b   7.50233999
_cell_length_c   10.60991096
_cell_angle_alpha   90.00000000
_cell_angle_beta   90.00000000
_cell_angle_gamma   90.00000000
_symmetry_Int_Tables_number   1
_chemical_formula_structural   Cr8Fe19
_chemical_formula_sum   'Cr16 Fe38'
_cell_volume   597.17995610
_cell_formula_units_Z   2
loop_
 _symmetry_equiv_pos_site_id
 _symmetry_equiv_pos_as_xyz
  1  'x, y, z'
loop_
 _atom_site_type_symbol
 _atom_site_label
 _atom_site_symmetry_multiplicity
 _atom_site_fract_x
 _atom_site_fract_y
 _atom_site_fract_z
 _atom_site_occupancy
  Fe  Fe0  1  0.99624846  0.00019765  0.99553293  1
  Fe  Fe1  1  0.16225222  0.16447894  0.16442039  1
  Fe  Fe2  1  -0.00139229  0.00084484  0.33264689  1
  Fe  Fe3  1  0.99668280  0.32773979  0.99634205  1
  Cr  Cr4  1  0.16575809  0.49549020  0.16230761  1
  Fe  Fe5  1  0.99565930  0.33057867  0.33183424  1
  Cr  Cr6  1  0.99682579  0.66281771  0.99509573  1
  Cr  Cr7  1  0.16103902  0.83362174  0.16586079  1
  Fe  Fe8  1  0.99623237  0.66200651  0.33183243  1
  Cr  Cr9  1  0.33208527  0.99629490  -0.00005249  1
  Fe  Fe10  1  0.49937033  0.16259198  0.16455570  1
  Fe  Fe11  1  0.33217288  -0.00087117  0.33199245  1
  Fe  Fe12  1  0.32960416  0.32877645  0.99683655  1
  Cr  Cr13  1  0.49896811  0.49616553  0.16088979  1
  Cr  Cr14  1  0.33123897  0.32865121  0.33275656  1
  Fe  Fe15  1  0.33151704  0.66547520  0.99639677  1
  Fe  Fe16  1  0.49936663  0.83222352  0.16428166  1
  Cr  Cr17  1  0.33181240  0.66813394  0.32954650  1
  Fe  Fe18  1  0.66575639  -0.00162793  0.99676836  1
  Fe  Fe19  1  0.83146754  0.16669702  0.16435813  1
  Fe  Fe20  1  0.66206667  -0.00068638  0.33113541  1
  Fe  Fe21  1  0.66671301  0.32870929  0.99712211  1
  Fe  Fe22  1  0.83141207  0.49630166  0.16475020  1
  Fe  Fe23  1  0.66660284  0.32999002  0.33102873  1
  Fe  Fe24  1  0.66381519  0.66616606  0.99670148  1
  Cr  Cr25  1  0.83092398  0.83404588  0.16453092  1
  Fe  Fe26  1  0.66528701  0.66356301  0.33102155  1
  Fe  Fe27  1  0.16285046  0.16355020  0.49700566  1
  Cr  Cr28  1  -0.00192528  -0.00167319  0.66816886  1
  Fe  Fe29  1  0.16558025  0.16611539  0.83237320  1
  Fe  Fe30  1  0.16138827  0.49880917  0.49686750  1
  Cr  Cr31  1  0.99621949  0.33294306  0.66378379  1
  Fe  Fe32  1  0.16352820  0.49604063  0.83177208  1
  Fe  Fe33  1  0.16365291  0.83143728  0.49591933  1
  Fe  Fe34  1  0.99652238  0.66395460  0.66593592  1
  Fe  Fe35  1  0.16483478  0.83087893  0.83219667  1
  Fe  Fe36  1  0.49983505  0.16106645  0.49663810  1
  Cr  Cr37  1  0.33310260  -0.00232200  0.66144774  1
  Fe  Fe38  1  0.49836515  0.16297985  0.83161016  1
  Cr  Cr39  1  0.49713695  0.49615826  0.49958404  1
  Fe  Fe40  1  0.32901186  0.32913568  0.66410854  1
  Cr  Cr41  1  0.49552723  0.49523502  0.83200212  1
  Fe  Fe42  1  0.49947491  0.83240425  0.49652264  1
  Cr  Cr43  1  0.32888689  0.66638766  0.66496441  1
  Fe  Fe44  1  0.49999710  0.83187808  0.83164518  1
  Fe  Fe45  1  0.83058471  0.16459780  0.49535220  1
  Fe  Fe46  1  0.66416516  0.99683956  0.66544359  1
  Fe  Fe47  1  0.82954306  0.16435503  0.83324653  1
  Fe  Fe48  1  0.83212586  0.49823324  0.49563565  1
  Cr  Cr49  1  0.66627704  0.32875413  0.66292405  1
  Fe  Fe50  1  0.83009253  0.49762939  0.83126160  1
  Cr  Cr51  1  0.83226189  0.83250956  0.49917686  1
  Fe  Fe52  1  0.66610550  0.66591653  0.66576728  1
  Fe  Fe53  1  0.82835586  0.83079627  0.83113991  1
" 