2693,Fe31Cr69_15,-220.276712974055, 147.643093763668,Fe31Cr69,"# generated using pymatgen
 data_Cr8Fe19
_symmetry_space_group_name_H-M   'P 1'
_cell_length_a   7.50245397
_cell_length_b   7.50245397
_cell_length_c   10.61007215
_cell_angle_alpha   90.00000000
_cell_angle_beta   90.00000000
_cell_angle_gamma   90.00000000
_symmetry_Int_Tables_number   1
_chemical_formula_structural   Cr8Fe19
_chemical_formula_sum   'Cr16 Fe38'
_cell_volume   597.20717394
_cell_formula_units_Z   2
loop_
 _symmetry_equiv_pos_site_id
 _symmetry_equiv_pos_as_xyz
  1  'x, y, z'
loop_
 _atom_site_type_symbol
 _atom_site_label
 _atom_site_symmetry_multiplicity
 _atom_site_fract_x
 _atom_site_fract_y
 _atom_site_fract_z
 _atom_site_occupancy
  Fe  Fe0  1  0.99537570  0.99470903  0.99740046  1
  Cr  Cr1  1  0.16375253  0.16168228  0.16525626  1
  Fe  Fe2  1  0.99541146  -0.00205681  0.33127630  1
  Cr  Cr3  1  0.99666635  0.33034925  -0.00155035  1
  Cr  Cr4  1  0.16356402  0.49972945  0.16518469  1
  Fe  Fe5  1  0.99694300  0.32985583  0.33126314  1
  Fe  Fe6  1  0.99760358  0.66651815  0.99669841  1
  Fe  Fe7  1  0.16292723  0.83071206  0.16599390  1
  Fe  Fe8  1  -0.00219541  0.66507578  0.33068428  1
  Cr  Cr9  1  0.33061619  -0.00218973  -0.00155870  1
  Fe  Fe10  1  0.49949848  0.16230959  0.16404504  1
  Fe  Fe11  1  0.33262042  0.99531316  0.33045608  1
  Fe  Fe12  1  0.33245127  0.33099530  0.99656253  1
  Cr  Cr13  1  0.49851246  0.49649711  0.16333347  1
  Cr  Cr14  1  0.32831802  0.32911717  0.33149023  1
  Cr  Cr15  1  0.33056039  0.66605639  0.99604158  1
  Fe  Fe16  1  0.49730132  0.83310525  0.16517053  1
  Fe  Fe17  1  0.33047798  0.66631587  0.33073465  1
  Fe  Fe18  1  0.66566201  -0.00117386  0.99748161  1
  Fe  Fe19  1  0.83000126  0.16250437  0.16375427  1
  Fe  Fe20  1  0.66491978  -0.00204473  0.33036078  1
  Fe  Fe21  1  0.66332472  0.32863015  0.99679863  1
  Fe  Fe22  1  0.83250014  0.49831055  0.16452030  1
  Cr  Cr23  1  0.66678579  0.33018433  0.32935643  1
  Cr  Cr24  1  0.66610460  0.66469244  0.99714877  1
  Fe  Fe25  1  0.83297012  0.83232594  0.16428861  1
  Cr  Cr26  1  0.66426751  0.66747821  0.33111059  1
  Fe  Fe27  1  0.16207586  0.16503590  0.49892581  1
  Fe  Fe28  1  0.99581047  0.99712706  0.66417523  1
  Cr  Cr29  1  0.16454281  0.16254258  0.82995700  1
  Fe  Fe30  1  0.16378501  0.49716981  0.49839983  1
  Fe  Fe31  1  0.99732302  0.33111548  0.66466365  1
  Fe  Fe32  1  0.16376285  0.49814918  0.82996974  1
  Cr  Cr33  1  0.16383794  0.83150111  0.49725069  1
  Fe  Fe34  1  -0.00138798  0.66438119  0.66546135  1
  Fe  Fe35  1  0.16276564  0.83006210  0.82924951  1
  Cr  Cr36  1  0.49840205  0.16286268  0.49882202  1
  Fe  Fe37  1  0.33186666  0.99606086  0.66509733  1
  Fe  Fe38  1  0.49952618  0.16455459  0.83000210  1
  Cr  Cr39  1  0.49667723  0.49826797  0.49852642  1
  Fe  Fe40  1  0.33030493  0.33177556  0.66480068  1
  Fe  Fe41  1  0.49715885  0.49550208  0.83012614  1
  Fe  Fe42  1  0.49745476  0.83227003  0.49792824  1
  Fe  Fe43  1  0.32924270  0.66469291  0.66618087  1
  Fe  Fe44  1  0.49754717  0.83316933  0.82990214  1
  Fe  Fe45  1  0.83300074  0.16219440  0.49846721  1
  Fe  Fe46  1  0.66541159  -0.00159295  0.66532282  1
  Fe  Fe47  1  0.82945860  0.16353436  0.83040835  1
  Cr  Cr48  1  0.83240486  0.49770124  0.49701122  1
  Fe  Fe49  1  0.66546455  0.32969840  0.66584754  1
  Fe  Fe50  1  0.83185048  0.49674869  0.82986278  1
  Fe  Fe51  1  0.83056231  0.83391876  0.49788614  1
  Cr  Cr52  1  0.66418636  0.66634451  0.66428371  1
  Fe  Fe53  1  0.83260223  0.83278845  0.83074786  1
" 