7482,Fe31Cr69_14,-220.140885770921, 152.299491610666,Fe31Cr69,"# generated using pymatgen
 data_Cr8Fe19
_symmetry_space_group_name_H-M   'P 1'
_cell_length_a   7.49537909
_cell_length_b   7.49537909
_cell_length_c   10.60006677
_cell_angle_alpha   90.00000000
_cell_angle_beta   90.00000000
_cell_angle_gamma   90.00000000
_symmetry_Int_Tables_number   1
_chemical_formula_structural   Cr8Fe19
_chemical_formula_sum   'Cr16 Fe38'
_cell_volume   595.51925368
_cell_formula_units_Z   2
loop_
 _symmetry_equiv_pos_site_id
 _symmetry_equiv_pos_as_xyz
  1  'x, y, z'
loop_
 _atom_site_type_symbol
 _atom_site_label
 _atom_site_symmetry_multiplicity
 _atom_site_fract_x
 _atom_site_fract_y
 _atom_site_fract_z
 _atom_site_occupancy
  Fe  Fe0  1  -0.00111114  0.99752603  0.99762813  1
  Fe  Fe1  1  0.16663230  0.16389588  0.16322552  1
  Cr  Cr2  1  -0.00149258  0.99765862  0.32878086  1
  Cr  Cr3  1  -0.00180015  0.32979108  0.99565400  1
  Fe  Fe4  1  0.16607279  0.49785956  0.16362049  1
  Cr  Cr5  1  -0.00123290  0.33257444  0.33599487  1
  Cr  Cr6  1  0.99799840  0.66806115  0.00014452  1
  Fe  Fe7  1  0.16547839  0.83265899  0.16416952  1
  Fe  Fe8  1  -0.00149763  0.66464562  0.33097652  1
  Fe  Fe9  1  0.32962283  0.99747667  -0.00062470  1
  Fe  Fe10  1  0.49760902  0.16403074  0.16317815  1
  Fe  Fe11  1  0.33347723  -0.00108155  0.33060230  1
  Fe  Fe12  1  0.33256953  0.33197565  0.00011937  1
  Fe  Fe13  1  0.49846741  0.49774952  0.16332130  1
  Cr  Cr14  1  0.33232795  0.32961967  0.33028687  1
  Fe  Fe15  1  0.33292064  0.66477062  -0.00030329  1
  Fe  Fe16  1  0.49983324  0.83249588  0.16351229  1
  Cr  Cr17  1  0.33137115  0.66623566  0.32990792  1
  Fe  Fe18  1  0.66568060  0.99642950  -0.00181291  1
  Cr  Cr19  1  0.82912920  0.16427797  0.16401052  1
  Fe  Fe20  1  0.66068762  -0.00136888  0.33121317  1
  Fe  Fe21  1  0.66324886  0.33315291  0.99748060  1
  Cr  Cr22  1  0.83044466  0.49862468  0.16854353  1
  Fe  Fe23  1  0.66347258  0.33023090  0.33304999  1
  Fe  Fe24  1  0.66346113  0.66462179  0.99805560  1
  Fe  Fe25  1  0.82906103  0.83159917  0.16523235  1
  Fe  Fe26  1  0.66448233  0.66541694  0.33099172  1
  Fe  Fe27  1  0.16567574  0.16496272  0.50039590  1
  Fe  Fe28  1  0.99730678  0.00105754  0.66574931  1
  Fe  Fe29  1  0.16474870  0.16184531  0.83042941  1
  Fe  Fe30  1  0.16416060  0.49723523  0.50003258  1
  Fe  Fe31  1  -0.00125137  0.32896657  0.66401980  1
  Cr  Cr32  1  0.16763511  0.49772806  0.82962400  1
  Cr  Cr33  1  0.16667240  0.83184461  0.49934259  1
  Cr  Cr34  1  0.99709997  0.66460679  0.66460059  1
  Fe  Fe35  1  0.16504735  0.83456478  0.83105969  1
  Fe  Fe36  1  0.49810737  0.16116816  0.49858903  1
  Fe  Fe37  1  0.33105931  -0.00038282  0.66427853  1
  Cr  Cr38  1  0.49741787  0.16548123  0.83353347  1
  Cr  Cr39  1  0.49820389  0.49875408  0.50047286  1
  Fe  Fe40  1  0.32946323  0.33010386  0.66372592  1
  Fe  Fe41  1  0.49898454  0.49859002  0.83194175  1
  Fe  Fe42  1  0.49860839  0.83364100  0.49922847  1
  Fe  Fe43  1  0.33305365  0.66446889  0.66438589  1
  Cr  Cr44  1  0.49771686  0.82992252  0.82808710  1
  Fe  Fe45  1  0.83053226  0.16477305  0.49854396  1
  Fe  Fe46  1  0.66594375  0.99746575  0.66410514  1
  Fe  Fe47  1  0.83261756  0.16263667  0.83160462  1
  Fe  Fe48  1  0.83175166  0.49813237  0.49746052  1
  Cr  Cr49  1  0.66613779  0.33066626  0.66559452  1
  Fe  Fe50  1  0.82856369  0.49877810  0.83212167  1
  Cr  Cr51  1  0.82938968  0.83143210  0.49551607  1
  Fe  Fe52  1  0.66483935  0.66539916  0.66530384  1
  Fe  Fe53  1  0.83154315  0.83317257  0.83123734  1
" 