3535,Fe31Cr69_8,-219.990335504221, 144.666179741779,Fe31Cr69,"# generated using pymatgen
 data_Cr8Fe19
_symmetry_space_group_name_H-M   'P 1'
_cell_length_a   7.50249689
_cell_length_b   7.50249689
_cell_length_c   10.61013286
_cell_angle_alpha   90.00000000
_cell_angle_beta   90.00000000
_cell_angle_gamma   90.00000000
_symmetry_Int_Tables_number   1
_chemical_formula_structural   Cr8Fe19
_chemical_formula_sum   'Cr16 Fe38'
_cell_volume   597.21742517
_cell_formula_units_Z   2
loop_
 _symmetry_equiv_pos_site_id
 _symmetry_equiv_pos_as_xyz
  1  'x, y, z'
loop_
 _atom_site_type_symbol
 _atom_site_label
 _atom_site_symmetry_multiplicity
 _atom_site_fract_x
 _atom_site_fract_y
 _atom_site_fract_z
 _atom_site_occupancy
  Cr  Cr0  1  0.99608421  -0.00222451  -0.00225467  1
  Fe  Fe1  1  0.16467908  0.16204275  0.16434219  1
  Fe  Fe2  1  -0.00077356  0.99663616  0.33002080  1
  Fe  Fe3  1  0.99397038  0.33030747  0.99678734  1
  Cr  Cr4  1  0.16270352  0.49780304  0.16236021  1
  Cr  Cr5  1  -0.00210063  0.32810486  0.33163369  1
  Cr  Cr6  1  0.99754281  0.66592970  0.99556402  1
  Fe  Fe7  1  0.16485936  0.83283332  0.16515547  1
  Fe  Fe8  1  -0.00232404  0.66665417  0.33103834  1
  Fe  Fe9  1  0.33012368  0.99521786  -0.00033765  1
  Fe  Fe10  1  0.49835413  0.16272817  0.16499290  1
  Fe  Fe11  1  0.33071433  -0.00206331  0.33124044  1
  Cr  Cr12  1  0.33101195  0.33181588  -0.00204382  1
  Cr  Cr13  1  0.49928321  0.49744232  0.16334034  1
  Cr  Cr14  1  0.33209413  0.32909450  0.33388429  1
  Fe  Fe15  1  0.33032311  0.66767720  0.99696808  1
  Fe  Fe16  1  0.49720931  0.83294530  0.16479641  1
  Cr  Cr17  1  0.33203918  0.66504951  0.33109223  1
  Cr  Cr18  1  0.66639209  -0.00211913  -0.00169228  1
  Fe  Fe19  1  0.82990670  0.16414351  0.16549460  1
  Fe  Fe20  1  0.66292210  -0.00099343  0.33010085  1
  Fe  Fe21  1  0.66790622  0.33064356  0.99686887  1
  Cr  Cr22  1  0.83100115  0.49786818  0.16738914  1
  Fe  Fe23  1  0.66367304  0.32922949  0.33310094  1
  Cr  Cr24  1  0.66457324  0.66535025  0.99611207  1
  Fe  Fe25  1  0.83091508  0.83141497  0.16763204  1
  Fe  Fe26  1  0.66444953  0.66465045  0.33180279  1
  Fe  Fe27  1  0.16351006  0.16059738  0.49997489  1
  Fe  Fe28  1  0.99716628  0.99730440  0.66416291  1
  Cr  Cr29  1  0.16384299  0.16474465  0.83002454  1
  Cr  Cr30  1  0.16214091  0.49787353  0.49878125  1
  Fe  Fe31  1  0.99557621  0.33094146  0.66388414  1
  Fe  Fe32  1  0.16528334  0.49896548  0.82900092  1
  Fe  Fe33  1  0.16476070  0.83313098  0.49857519  1
  Fe  Fe34  1  0.99726176  0.66452870  0.66612346  1
  Fe  Fe35  1  0.16465080  0.83053900  0.82888501  1
  Fe  Fe36  1  0.49907386  0.16274969  0.49945132  1
  Fe  Fe37  1  0.33040444  0.99706280  0.66209594  1
  Cr  Cr38  1  0.49826020  0.16355999  0.83120064  1
  Fe  Fe39  1  0.50087966  0.49838900  0.49911917  1
  Fe  Fe40  1  0.33216042  0.33153080  0.66332369  1
  Fe  Fe41  1  0.49709296  0.49697718  0.82937179  1
  Fe  Fe42  1  0.49684173  0.83175176  0.49904079  1
  Fe  Fe43  1  0.33106822  0.66426638  0.66374013  1
  Cr  Cr44  1  0.49685860  0.83160183  0.83004385  1
  Fe  Fe45  1  0.83038601  0.16476917  0.49866299  1
  Fe  Fe46  1  0.66531821  -0.00174746  0.66348033  1
  Fe  Fe47  1  0.83072854  0.16551696  0.82892487  1
  Fe  Fe48  1  0.82865264  0.49676301  0.49801633  1
  Fe  Fe49  1  0.66505779  0.33169623  0.66340712  1
  Fe  Fe50  1  0.83069145  0.49552859  0.82936327  1
  Cr  Cr51  1  0.83056614  0.83038802  0.49651859  1
  Fe  Fe52  1  0.66446004  0.66279271  0.66457788  1
  Fe  Fe53  1  0.83219780  0.83202054  0.82728441  1
" 