7607,Fe31Cr69_2,-219.97781284024, 148.587731683112,Fe31Cr69,"# generated using pymatgen
 data_Cr8Fe19
_symmetry_space_group_name_H-M   'P 1'
_cell_length_a   7.49815359
_cell_length_b   7.49815359
_cell_length_c   10.60399050
_cell_angle_alpha   90.00000000
_cell_angle_beta   90.00000000
_cell_angle_gamma   90.00000000
_symmetry_Int_Tables_number   1
_chemical_formula_structural   Cr8Fe19
_chemical_formula_sum   'Cr16 Fe38'
_cell_volume   596.18081238
_cell_formula_units_Z   2
loop_
 _symmetry_equiv_pos_site_id
 _symmetry_equiv_pos_as_xyz
  1  'x, y, z'
loop_
 _atom_site_type_symbol
 _atom_site_label
 _atom_site_symmetry_multiplicity
 _atom_site_fract_x
 _atom_site_fract_y
 _atom_site_fract_z
 _atom_site_occupancy
  Fe  Fe0  1  0.99746767  0.99728007  0.99774271  1
  Fe  Fe1  1  0.16630291  0.16434004  0.16358078  1
  Fe  Fe2  1  0.99588669  0.99721513  0.32994062  1
  Fe  Fe3  1  -0.00186258  0.33084339  -0.00034447  1
  Fe  Fe4  1  0.16605584  0.49629317  0.16251638  1
  Cr  Cr5  1  -0.00173106  0.33196010  0.32862720  1
  Fe  Fe6  1  0.99655865  0.66547943  -0.00119425  1
  Cr  Cr7  1  0.16664830  0.83010676  0.16487187  1
  Cr  Cr8  1  0.99559805  0.66406612  0.33090298  1
  Fe  Fe9  1  0.33143046  -0.00126054  -0.00094142  1
  Fe  Fe10  1  0.49593121  0.16392009  0.16385225  1
  Fe  Fe11  1  0.33448695  -0.00131382  0.32981541  1
  Fe  Fe12  1  0.33238515  0.33083097  -0.00029822  1
  Fe  Fe13  1  0.49798249  0.49782063  0.16392798  1
  Fe  Fe14  1  0.33471719  0.33153467  0.32910800  1
  Fe  Fe15  1  0.33276984  0.66345627  -0.00090292  1
  Fe  Fe16  1  0.50025317  0.83243756  0.16332134  1
  Fe  Fe17  1  0.33368552  0.66314260  0.33029565  1
  Fe  Fe18  1  0.66499412  0.99721430  -0.00138119  1
  Cr  Cr19  1  0.82865558  0.16505979  0.16315412  1
  Fe  Fe20  1  0.66345444  -0.00104066  0.33097629  1
  Fe  Fe21  1  0.66272077  0.33187536  -0.00102980  1
  Fe  Fe22  1  0.82999643  0.49957418  0.16183114  1
  Fe  Fe23  1  0.66224820  0.33169336  0.33067927  1
  Fe  Fe24  1  0.66455773  0.66439391  -0.00000504  1
  Fe  Fe25  1  0.82991454  0.83143022  0.16293359  1
  Cr  Cr26  1  0.66462974  0.66582522  0.33304669  1
  Cr  Cr27  1  0.16473623  0.16381441  0.49716570  1
  Fe  Fe28  1  0.99650838  0.99771908  0.66578957  1
  Cr  Cr29  1  0.16367141  0.16424070  0.83005602  1
  Cr  Cr30  1  0.16586701  0.49742528  0.49656925  1
  Fe  Fe31  1  0.99695874  0.33110454  0.66457958  1
  Cr  Cr32  1  0.16502523  0.49860710  0.83326664  1
  Cr  Cr33  1  0.16696205  0.83239187  0.49667871  1
  Cr  Cr34  1  0.99604611  0.66639799  0.66409205  1
  Fe  Fe35  1  0.16343594  0.83225796  0.83350339  1
  Fe  Fe36  1  0.49682098  0.16439550  0.49825702  1
  Fe  Fe37  1  0.33252969  -0.00194355  0.66447181  1
  Cr  Cr38  1  0.50049410  0.16435235  0.83086353  1
  Fe  Fe39  1  0.49922042  0.49550405  0.49791803  1
  Fe  Fe40  1  0.33329562  0.33085911  0.66403272  1
  Fe  Fe41  1  0.49809959  0.49657476  0.83295446  1
  Fe  Fe42  1  0.49953446  0.83410000  0.49827685  1
  Cr  Cr43  1  0.33353231  0.66435648  0.66555638  1
  Cr  Cr44  1  0.49827823  0.82935291  0.83348679  1
  Cr  Cr45  1  0.82843823  0.16550396  0.49957784  1
  Fe  Fe46  1  0.66492210  0.99537576  0.66462650  1
  Fe  Fe47  1  0.83099591  0.16294591  0.83160009  1
  Fe  Fe48  1  0.82920555  0.49739492  0.49941259  1
  Fe  Fe49  1  0.66270825  0.33302459  0.66412038  1
  Cr  Cr50  1  0.82880624  0.49671037  0.83187863  1
  Fe  Fe51  1  0.83017376  0.83330003  0.49849674  1
  Fe  Fe52  1  0.66429999  0.66495651  0.66294485  1
  Fe  Fe53  1  0.83168633  0.83308999  0.83278780  1
" 