4008,Fe31Cr69_7,-220.031222810535, 153.551835321333,Fe31Cr69,"# generated using pymatgen
 data_Cr8Fe19
_symmetry_space_group_name_H-M   'P 1'
_cell_length_a   7.49301866
_cell_length_b   7.49301866
_cell_length_c   10.59672861
_cell_angle_alpha   90.00000000
_cell_angle_beta   90.00000000
_cell_angle_gamma   90.00000000
_symmetry_Int_Tables_number   1
_chemical_formula_structural   Cr8Fe19
_chemical_formula_sum   'Cr16 Fe38'
_cell_volume   594.95680999
_cell_formula_units_Z   2
loop_
 _symmetry_equiv_pos_site_id
 _symmetry_equiv_pos_as_xyz
  1  'x, y, z'
loop_
 _atom_site_type_symbol
 _atom_site_label
 _atom_site_symmetry_multiplicity
 _atom_site_fract_x
 _atom_site_fract_y
 _atom_site_fract_z
 _atom_site_occupancy
  Fe  Fe0  1  0.99725282  0.99679276  0.99809284  1
  Cr  Cr1  1  0.16617263  0.16273631  0.16554235  1
  Fe  Fe2  1  0.99799928  0.99601565  0.33336778  1
  Cr  Cr3  1  -0.00070776  0.33159216  0.99752195  1
  Fe  Fe4  1  0.16292191  0.49868170  0.16469519  1
  Fe  Fe5  1  0.99614335  0.33322972  0.33329442  1
  Fe  Fe6  1  -0.00161395  0.66435177  -0.00135518  1
  Cr  Cr7  1  0.16390375  0.83271438  0.16568517  1
  Fe  Fe8  1  0.99735551  0.66567891  0.33368055  1
  Fe  Fe9  1  0.33413481  0.99705499  0.99741715  1
  Cr  Cr10  1  0.49771736  0.16657571  0.16460604  1
  Fe  Fe11  1  0.33371808  0.99672651  0.33282235  1
  Fe  Fe12  1  0.33400618  0.33257565  0.99754790  1
  Fe  Fe13  1  0.49854327  0.49949731  0.16422316  1
  Cr  Cr14  1  0.32941869  0.33448127  0.32987468  1
  Cr  Cr15  1  0.33259645  0.66446395  0.99789149  1
  Fe  Fe16  1  0.50118019  0.83116105  0.16423130  1
  Cr  Cr17  1  0.33311431  0.66555601  0.33208733  1
  Fe  Fe18  1  0.66388042  0.99800417  0.99818443  1
  Cr  Cr19  1  0.83131064  0.16691162  0.16593028  1
  Cr  Cr20  1  0.66580775  0.99619986  0.33320848  1
  Fe  Fe21  1  0.66350807  0.33322286  0.99618729  1
  Cr  Cr22  1  0.82770272  0.50172373  0.16691963  1
  Fe  Fe23  1  0.66357080  0.33295355  0.33431812  1
  Fe  Fe24  1  0.66462788  0.66422727  0.99760323  1
  Fe  Fe25  1  0.83013850  0.83269819  0.16368558  1
  Fe  Fe26  1  0.66474575  0.66453489  0.33467474  1
  Cr  Cr27  1  0.16718807  0.16235325  0.49614655  1
  Fe  Fe28  1  0.99575637  0.99756186  0.66325453  1
  Cr  Cr29  1  0.16865167  0.16283960  0.83259063  1
  Fe  Fe30  1  0.16417853  0.49914802  0.49924022  1
  Cr  Cr31  1  0.99814239  0.33040089  0.66570941  1
  Fe  Fe32  1  0.16566853  0.49900917  0.83019702  1
  Fe  Fe33  1  0.16447135  0.82958735  0.49977703  1
  Fe  Fe34  1  0.99737489  0.66408225  0.66279948  1
  Cr  Cr35  1  0.16434122  0.83127202  0.82745050  1
  Fe  Fe36  1  0.49974757  0.16604762  0.49885064  1
  Fe  Fe37  1  0.33504084  0.99798401  0.66345921  1
  Fe  Fe38  1  0.50096078  0.16418487  0.83153297  1
  Fe  Fe39  1  0.49841648  0.49670455  0.49912008  1
  Fe  Fe40  1  0.33390282  0.33239486  0.66440933  1
  Fe  Fe41  1  0.49815922  0.49730005  0.83058909  1
  Fe  Fe42  1  0.49651195  0.83308342  0.49966571  1
  Fe  Fe43  1  0.33061895  0.66306074  0.66331894  1
  Fe  Fe44  1  0.49788351  0.83380744  0.83117165  1
  Fe  Fe45  1  0.83088330  0.16562306  0.49819524  1
  Fe  Fe46  1  0.66562731  0.00086958  0.66417009  1
  Fe  Fe47  1  0.82981312  0.16364255  0.83199841  1
  Fe  Fe48  1  0.83123889  0.49828171  0.49737789  1
  Fe  Fe49  1  0.66383617  0.33120625  0.66498297  1
  Fe  Fe50  1  0.83042116  0.49748721  0.83176402  1
  Fe  Fe51  1  0.83364956  0.83146868  0.49915421  1
  Cr  Cr52  1  0.66277797  0.66734783  0.66425005  1
  Cr  Cr53  1  0.83200505  0.82930634  0.83330301  1
" 