5700,Fe33Cr67_19,-219.874485054428, 148.905503385665,Fe33Cr67,"# generated using pymatgen
 data_Cr17Fe37
_symmetry_space_group_name_H-M   'P 1'
_cell_length_a   7.50678085
_cell_length_b   7.50678085
_cell_length_c   10.61619128
_cell_angle_alpha   90.00000000
_cell_angle_beta   90.00000000
_cell_angle_gamma   90.00000000
_symmetry_Int_Tables_number   1
_chemical_formula_structural   Cr17Fe37
_chemical_formula_sum   'Cr17 Fe37'
_cell_volume   598.24104950
_cell_formula_units_Z   1
loop_
 _symmetry_equiv_pos_site_id
 _symmetry_equiv_pos_as_xyz
  1  'x, y, z'
loop_
 _atom_site_type_symbol
 _atom_site_label
 _atom_site_symmetry_multiplicity
 _atom_site_fract_x
 _atom_site_fract_y
 _atom_site_fract_z
 _atom_site_occupancy
  Fe  Fe0  1  0.99611898  -0.00118111  -0.00164454  1
  Fe  Fe1  1  0.16390678  0.16512914  0.16445318  1
  Cr  Cr2  1  0.99697829  0.99538895  0.32800052  1
  Fe  Fe3  1  -0.00207073  0.32678193  0.99651260  1
  Cr  Cr4  1  0.16292861  0.49537286  0.16175495  1
  Fe  Fe5  1  0.99636078  0.33001466  0.32997434  1
  Fe  Fe6  1  -0.00246354  0.66396088  0.99672150  1
  Cr  Cr7  1  0.16453156  0.82968584  0.16435307  1
  Fe  Fe8  1  0.99513886  0.66272941  0.33160348  1
  Cr  Cr9  1  0.32969142  -0.00085218  -0.00137978  1
  Fe  Fe10  1  0.49839459  0.16764097  0.16435945  1
  Fe  Fe11  1  0.33368132  0.00010375  0.32900265  1
  Fe  Fe12  1  0.33183842  0.33112004  0.99566338  1
  Fe  Fe13  1  0.49743810  0.49613777  0.16283671  1
  Fe  Fe14  1  0.33193580  0.32874295  0.32932923  1
  Fe  Fe15  1  0.33228206  0.66212332  0.99610807  1
  Cr  Cr16  1  0.49976018  0.83243211  0.16214866  1
  Cr  Cr17  1  0.33196075  0.66222496  0.32999621  1
  Fe  Fe18  1  0.66469711  0.00021771  0.99715413  1
  Fe  Fe19  1  0.82913923  0.16266159  0.16335985  1
  Fe  Fe20  1  0.66334857  -0.00134340  0.33027707  1
  Fe  Fe21  1  0.66195996  0.32849029  0.99665525  1
  Cr  Cr22  1  0.82950131  0.49495548  0.16441676  1
  Fe  Fe23  1  0.66200321  0.33054870  0.33120846  1
  Fe  Fe24  1  0.66245114  0.66273564  0.99700150  1
  Fe  Fe25  1  0.83073298  0.82967944  0.16160746  1
  Fe  Fe26  1  0.66536851  0.66522855  0.33110574  1
  Cr  Cr27  1  0.16586350  0.16437006  0.49829480  1
  Fe  Fe28  1  0.99687754  -0.00083922  0.66493756  1
  Fe  Fe29  1  0.16286326  0.16557723  0.83028715  1
  Cr  Cr30  1  0.16221414  0.49447409  0.49746268  1
  Fe  Fe31  1  -0.00192917  0.33005139  0.66588623  1
  Fe  Fe32  1  0.16483786  0.49637852  0.83124469  1
  Cr  Cr33  1  0.16762536  0.83209736  0.49756794  1
  Cr  Cr34  1  0.99693902  0.66452237  0.65960845  1
  Cr  Cr35  1  0.16666611  0.83037217  0.82980093  1
  Fe  Fe36  1  0.49606377  0.16562032  0.49710663  1
  Fe  Fe37  1  0.33299858  0.00059829  0.66672948  1
  Fe  Fe38  1  0.49793700  0.16348562  0.83135989  1
  Fe  Fe39  1  0.49727890  0.49611344  0.49702006  1
  Fe  Fe40  1  0.33009009  0.33114292  0.66642503  1
  Fe  Fe41  1  0.49606425  0.49846029  0.83192898  1
  Cr  Cr42  1  0.49918197  0.83319607  0.50074322  1
  Fe  Fe43  1  0.33340634  0.66105919  0.66476869  1
  Fe  Fe44  1  0.49799229  0.83026902  0.83092581  1
  Cr  Cr45  1  0.82948085  0.16654586  0.49985069  1
  Fe  Fe46  1  0.66404836  -0.00236072  0.66584941  1
  Fe  Fe47  1  0.83100878  0.16290753  0.83104825  1
  Fe  Fe48  1  0.82758836  0.49882462  0.49554399  1
  Cr  Cr49  1  0.66177587  0.33134259  0.66416621  1
  Cr  Cr50  1  0.83107150  0.49431293  0.83212043  1
  Fe  Fe51  1  0.83049362  0.83193459  0.49715918  1
  Fe  Fe52  1  0.66281465  0.66400856  0.66429213  1
  Cr  Cr53  1  0.82822252  0.83189424  0.83238114  1
" 