6699,Fe33Cr67_18,-220.032564768592, 156.662790597445,Fe33Cr67,"# generated using pymatgen
 data_Cr17Fe37
_symmetry_space_group_name_H-M   'P 1'
_cell_length_a   7.49703016
_cell_length_b   7.49703016
_cell_length_c   10.60240173
_cell_angle_alpha   90.00000000
_cell_angle_beta   90.00000000
_cell_angle_gamma   90.00000000
_symmetry_Int_Tables_number   1
_chemical_formula_structural   Cr17Fe37
_chemical_formula_sum   'Cr17 Fe37'
_cell_volume   595.91288006
_cell_formula_units_Z   1
loop_
 _symmetry_equiv_pos_site_id
 _symmetry_equiv_pos_as_xyz
  1  'x, y, z'
loop_
 _atom_site_type_symbol
 _atom_site_label
 _atom_site_symmetry_multiplicity
 _atom_site_fract_x
 _atom_site_fract_y
 _atom_site_fract_z
 _atom_site_occupancy
  Cr  Cr0  1  -0.00107955  0.99640134  -0.00059114  1
  Fe  Fe1  1  0.16384336  0.16340720  0.16532660  1
  Fe  Fe2  1  0.99798276  0.00132111  0.33096064  1
  Fe  Fe3  1  0.99695970  0.33236577  0.99742648  1
  Cr  Cr4  1  0.16555305  0.49468403  0.16412264  1
  Fe  Fe5  1  -0.00043734  0.32842489  0.33197389  1
  Fe  Fe6  1  -0.00174760  0.66228433  0.99786860  1
  Fe  Fe7  1  0.16695830  0.83088417  0.16390060  1
  Cr  Cr8  1  0.00002295  0.66505213  0.33061513  1
  Fe  Fe9  1  0.33399396  0.99573622  -0.00086383  1
  Fe  Fe10  1  0.49870464  0.16237532  0.16456493  1
  Cr  Cr11  1  0.33128936  0.99677821  0.33038341  1
  Cr  Cr12  1  0.33230318  0.32970670  -0.00116514  1
  Cr  Cr13  1  0.49757337  0.49957416  0.16789737  1
  Fe  Fe14  1  0.32953354  0.33103401  0.33345360  1
  Fe  Fe15  1  0.33081186  0.66778194  0.99737173  1
  Fe  Fe16  1  0.49668789  0.83194982  0.16373191  1
  Fe  Fe17  1  0.33263812  0.66462606  0.33322251  1
  Fe  Fe18  1  0.66197438  0.99759681  0.99765440  1
  Fe  Fe19  1  0.83206709  0.16620513  0.16540004  1
  Fe  Fe20  1  0.66427740  -0.00198012  0.33180168  1
  Cr  Cr21  1  0.66692545  0.33019507  0.99504395  1
  Fe  Fe22  1  0.83161566  0.49710786  0.16426161  1
  Cr  Cr23  1  0.66475036  0.33011437  0.33311930  1
  Fe  Fe24  1  0.66438965  0.66572697  -0.00193280  1
  Cr  Cr25  1  0.82833494  0.83224737  0.16701272  1
  Fe  Fe26  1  0.66167069  0.66668343  0.33201531  1
  Fe  Fe27  1  0.16303885  0.16376913  0.49759218  1
  Fe  Fe28  1  0.00048613  0.99776097  0.66418208  1
  Cr  Cr29  1  0.16627160  0.16377449  0.83181572  1
  Fe  Fe30  1  0.16590965  0.49897487  0.49701917  1
  Cr  Cr31  1  0.99605957  0.33288794  0.66630087  1
  Fe  Fe32  1  0.16306715  0.50133814  0.83223173  1
  Fe  Fe33  1  0.16591225  0.83121563  0.49936624  1
  Fe  Fe34  1  0.00055625  0.66567308  0.66471325  1
  Fe  Fe35  1  0.16712418  0.82898012  0.83066220  1
  Fe  Fe36  1  0.49846053  0.16402886  0.49751597  1
  Fe  Fe37  1  0.33014734  0.99602563  0.66348954  1
  Fe  Fe38  1  0.49880210  0.16179245  0.83121755  1
  Fe  Fe39  1  0.49664330  0.50030519  0.49763384  1
  Cr  Cr40  1  0.33313601  0.33144266  0.66136533  1
  Cr  Cr41  1  0.49766848  0.49868453  0.82886264  1
  Fe  Fe42  1  0.49691381  0.82965148  0.49815546  1
  Fe  Fe43  1  0.33042008  0.66714006  0.66369385  1
  Fe  Fe44  1  0.49543371  0.83253003  0.83198811  1
  Fe  Fe45  1  0.83247273  0.16436594  0.49757380  1
  Cr  Cr46  1  0.66291729  0.00051940  0.66502312  1
  Fe  Fe47  1  0.83050805  0.16517160  0.83125249  1
  Cr  Cr48  1  0.82904409  0.49994357  0.49872924  1
  Fe  Fe49  1  0.66464724  0.33136712  0.66457258  1
  Fe  Fe50  1  0.83299676  0.49843880  0.83103662  1
  Cr  Cr51  1  0.83131150  0.83392219  0.49757268  1
  Fe  Fe52  1  0.66309627  0.66362789  0.66434257  1
  Cr  Cr53  1  0.83137792  0.83040398  0.82953507  1
" 