562,Fe33Cr67_4,-219.978784083563, 147.888718214779,Fe33Cr67,"# generated using pymatgen
 data_Cr17Fe37
_symmetry_space_group_name_H-M   'P 1'
_cell_length_a   7.51484376
_cell_length_b   7.51484376
_cell_length_c   10.62759397
_cell_angle_alpha   90.00000000
_cell_angle_beta   90.00000000
_cell_angle_gamma   90.00000000
_symmetry_Int_Tables_number   1
_chemical_formula_structural   Cr17Fe37
_chemical_formula_sum   'Cr17 Fe37'
_cell_volume   600.17080438
_cell_formula_units_Z   1
loop_
 _symmetry_equiv_pos_site_id
 _symmetry_equiv_pos_as_xyz
  1  'x, y, z'
loop_
 _atom_site_type_symbol
 _atom_site_label
 _atom_site_symmetry_multiplicity
 _atom_site_fract_x
 _atom_site_fract_y
 _atom_site_fract_z
 _atom_site_occupancy
  Fe  Fe0  1  -0.00221160  0.99591989  0.99611135  1
  Cr  Cr1  1  0.16394155  0.16190591  0.16396792  1
  Fe  Fe2  1  -0.00273776  0.99625889  0.33239307  1
  Cr  Cr3  1  -0.00138663  0.33244078  0.99591484  1
  Fe  Fe4  1  0.16499477  0.49949083  0.16405458  1
  Cr  Cr5  1  -0.00313592  0.33293221  0.33132610  1
  Cr  Cr6  1  -0.00177521  0.66170812  -0.00268523  1
  Fe  Fe7  1  0.16506700  0.82863086  0.16464518  1
  Fe  Fe8  1  -0.00183257  0.66490076  0.33099513  1
  Cr  Cr9  1  0.33312449  0.99637120  -0.00316716  1
  Fe  Fe10  1  0.49840628  0.16458473  0.16247782  1
  Cr  Cr11  1  0.33113167  0.99659380  0.33295121  1
  Fe  Fe12  1  0.33251927  0.33318269  0.99676515  1
  Fe  Fe13  1  0.49714981  0.49666127  0.16363275  1
  Cr  Cr14  1  0.32945085  0.32969698  0.32907228  1
  Fe  Fe15  1  0.33003933  0.66172108  -0.00315332  1
  Fe  Fe16  1  0.49518677  0.82898973  0.16412106  1
  Fe  Fe17  1  0.33014354  0.66326896  0.33030735  1
  Fe  Fe18  1  0.66337106  -0.00146191  0.99573196  1
  Cr  Cr19  1  0.82998375  0.16290369  0.16092605  1
  Cr  Cr20  1  0.66176779  0.99508258  0.33065440  1
  Fe  Fe21  1  0.66047475  0.32979411  0.99624834  1
  Fe  Fe22  1  0.82849571  0.49640804  0.16487553  1
  Fe  Fe23  1  0.66295030  0.33100052  0.33074099  1
  Cr  Cr24  1  0.66265402  0.66520009  -0.00269391  1
  Cr  Cr25  1  0.83120099  0.82984721  0.16503634  1
  Fe  Fe26  1  0.66244642  0.66057228  0.33111031  1
  Fe  Fe27  1  0.16199311  0.16224465  0.49829304  1
  Fe  Fe28  1  -0.00244108  0.99659939  0.66158691  1
  Cr  Cr29  1  0.16308630  0.16234787  0.82918655  1
  Fe  Fe30  1  0.16342694  0.49943290  0.49761228  1
  Fe  Fe31  1  0.99463310  0.33000157  0.66148619  1
  Fe  Fe32  1  0.16521328  0.49911635  0.82888544  1
  Fe  Fe33  1  0.16283252  0.82899806  0.49774570  1
  Fe  Fe34  1  -0.00060647  0.66354345  0.66245770  1
  Fe  Fe35  1  0.16518110  0.82839401  0.82877639  1
  Fe  Fe36  1  0.49757142  0.16486655  0.49783846  1
  Fe  Fe37  1  0.32949680  0.99424032  0.66240842  1
  Fe  Fe38  1  0.49888764  0.16505643  0.83078743  1
  Fe  Fe39  1  0.49679292  0.49716544  0.49600492  1
  Cr  Cr40  1  0.32842572  0.32977428  0.66297649  1
  Fe  Fe41  1  0.49446540  0.49639220  0.83031326  1
  Fe  Fe42  1  0.49517285  0.82807435  0.49724976  1
  Fe  Fe43  1  0.32933568  0.66499637  0.66329379  1
  Fe  Fe44  1  0.49405481  0.82935700  0.82984843  1
  Fe  Fe45  1  0.83029802  0.16370319  0.49738289  1
  Cr  Cr46  1  0.66141113  0.99655236  0.66472429  1
  Fe  Fe47  1  0.82891988  0.16399900  0.83059407  1
  Fe  Fe48  1  0.82996944  0.49721719  0.49737744  1
  Fe  Fe49  1  0.66313855  0.32938869  0.66207865  1
  Cr  Cr50  1  0.82800151  0.49596057  0.82777681  1
  Fe  Fe51  1  0.83225750  0.82963414  0.49618514  1
  Cr  Cr52  1  0.66348416  0.66492500  0.66211146  1
  Cr  Cr53  1  0.83185107  0.83168713  0.83093174  1
" 