242,Fe33Cr67_12,-219.75605589024, 154.873484588393,Fe33Cr67,"# generated using pymatgen
 data_Cr17Fe37
_symmetry_space_group_name_H-M   'P 1'
_cell_length_a   7.50835083
_cell_length_b   7.50835083
_cell_length_c   10.61841157
_cell_angle_alpha   90.00000000
_cell_angle_beta   90.00000000
_cell_angle_gamma   90.00000000
_symmetry_Int_Tables_number   1
_chemical_formula_structural   Cr17Fe37
_chemical_formula_sum   'Cr17 Fe37'
_cell_volume   598.61647938
_cell_formula_units_Z   1
loop_
 _symmetry_equiv_pos_site_id
 _symmetry_equiv_pos_as_xyz
  1  'x, y, z'
loop_
 _atom_site_type_symbol
 _atom_site_label
 _atom_site_symmetry_multiplicity
 _atom_site_fract_x
 _atom_site_fract_y
 _atom_site_fract_z
 _atom_site_occupancy
  Fe  Fe0  1  0.99719396  0.99719412  -0.00268908  1
  Cr  Cr1  1  0.16516497  0.16564050  0.16553125  1
  Cr  Cr2  1  0.99627771  0.99679610  0.33048671  1
  Cr  Cr3  1  0.99677338  0.32958068  0.99553594  1
  Fe  Fe4  1  0.16444544  0.49764426  0.16466844  1
  Fe  Fe5  1  -0.00244484  0.33154252  0.32977621  1
  Cr  Cr6  1  -0.00043779  0.66505206  -0.00049333  1
  Fe  Fe7  1  0.16403378  0.82973146  0.16395914  1
  Fe  Fe8  1  0.99694521  0.66375925  0.32910557  1
  Cr  Cr9  1  0.32884686  0.99708920  0.99535568  1
  Fe  Fe10  1  0.49761799  0.16447797  0.16445885  1
  Fe  Fe11  1  0.33275100  -0.00224316  0.33108004  1
  Fe  Fe12  1  0.33249194  0.33255926  0.99646627  1
  Fe  Fe13  1  0.49575870  0.49567677  0.16281501  1
  Fe  Fe14  1  0.33069736  0.32939876  0.33082911  1
  Fe  Fe15  1  0.33002395  0.66209519  -0.00193645  1
  Fe  Fe16  1  0.49630555  0.83153278  0.16427199  1
  Cr  Cr17  1  0.33021588  0.66327710  0.32877160  1
  Cr  Cr18  1  0.66573407  -0.00016171  0.00064320  1
  Fe  Fe19  1  0.82967835  0.16409397  0.16401811  1
  Fe  Fe20  1  0.66251066  0.99704997  0.33060623  1
  Fe  Fe21  1  0.66272225  0.33060997  -0.00255065  1
  Fe  Fe22  1  0.83149035  0.49630670  0.16473098  1
  Cr  Cr23  1  0.66278934  0.32925057  0.32984069  1
  Cr  Cr24  1  0.66237368  0.66136214  -0.00054336  1
  Fe  Fe25  1  0.83139215  0.83135135  0.16440678  1
  Cr  Cr26  1  0.66403055  0.66541540  0.33016080  1
  Fe  Fe27  1  0.16429920  0.16343658  0.49646014  1
  Cr  Cr28  1  -0.00075229  -0.00191597  0.66594512  1
  Fe  Fe29  1  0.16402400  0.16365781  0.83073571  1
  Cr  Cr30  1  0.16209319  0.49584764  0.49479684  1
  Fe  Fe31  1  0.99608214  0.33034613  0.66537840  1
  Fe  Fe32  1  0.16450026  0.49834732  0.82981632  1
  Fe  Fe33  1  0.16431537  0.83089875  0.49780377  1
  Fe  Fe34  1  -0.00191398  0.66333385  0.66469852  1
  Fe  Fe35  1  0.16445167  0.82978895  0.83001121  1
  Fe  Fe36  1  0.49650314  0.16378302  0.49656641  1
  Fe  Fe37  1  0.33001746  0.99680075  0.66343647  1
  Fe  Fe38  1  0.49766356  0.16590829  0.83059579  1
  Fe  Fe39  1  0.49724704  0.49731992  0.49834632  1
  Cr  Cr40  1  0.33129237  0.33060312  0.66415723  1
  Fe  Fe41  1  0.49748550  0.49624727  0.83057269  1
  Fe  Fe42  1  0.49648865  0.83064309  0.49793344  1
  Fe  Fe43  1  0.33035950  0.66527623  0.66351348  1
  Cr  Cr44  1  0.49528666  0.82961675  0.82902632  1
  Fe  Fe45  1  0.83097689  0.16422334  0.49716697  1
  Cr  Cr46  1  0.66374513  -0.00159914  0.66054326  1
  Fe  Fe47  1  0.83012118  0.16593873  0.83052409  1
  Cr  Cr48  1  0.83184225  0.49774411  0.49974352  1
  Fe  Fe49  1  0.66464582  0.33094941  0.66437700  1
  Fe  Fe50  1  0.82980289  0.49582282  0.82869873  1
  Fe  Fe51  1  0.83096545  0.83039389  0.49747203  1
  Fe  Fe52  1  0.66320307  0.66219367  0.66333632  1
  Cr  Cr53  1  0.83134525  0.82978430  0.83051196  1
" 