6448,Fe33Cr67_1,-219.895915200441, 151.12224133983,Fe33Cr67,"# generated using pymatgen
 data_Cr17Fe37
_symmetry_space_group_name_H-M   'P 1'
_cell_length_a   7.50429682
_cell_length_b   7.50429682
_cell_length_c   10.61267834
_cell_angle_alpha   90.00000000
_cell_angle_beta   90.00000000
_cell_angle_gamma   90.00000000
_symmetry_Int_Tables_number   1
_chemical_formula_structural   Cr17Fe37
_chemical_formula_sum   'Cr17 Fe37'
_cell_volume   597.64736352
_cell_formula_units_Z   1
loop_
 _symmetry_equiv_pos_site_id
 _symmetry_equiv_pos_as_xyz
  1  'x, y, z'
loop_
 _atom_site_type_symbol
 _atom_site_label
 _atom_site_symmetry_multiplicity
 _atom_site_fract_x
 _atom_site_fract_y
 _atom_site_fract_z
 _atom_site_occupancy
  Cr  Cr0  1  0.99685494  0.00146168  -0.00226129  1
  Fe  Fe1  1  0.16664454  0.16591542  0.16456871  1
  Cr  Cr2  1  -0.00194208  -0.00104176  0.33078699  1
  Cr  Cr3  1  0.99621011  0.33036906  -0.00246101  1
  Fe  Fe4  1  0.16335625  0.49626527  0.16596149  1
  Fe  Fe5  1  -0.00244808  0.33193092  0.32930808  1
  Cr  Cr6  1  -0.00055605  0.66115733  -0.00038215  1
  Fe  Fe7  1  0.16662709  0.83100102  0.16338758  1
  Fe  Fe8  1  0.99632098  0.66283982  0.32986854  1
  Fe  Fe9  1  0.33129037  -0.00186041  -0.00089286  1
  Fe  Fe10  1  0.49836144  0.16178166  0.16347933  1
  Cr  Cr11  1  0.33236055  0.99729553  0.33308953  1
  Fe  Fe12  1  0.32845815  0.33096016  0.99735668  1
  Cr  Cr13  1  0.49629355  0.49464595  0.16316534  1
  Fe  Fe14  1  0.33099951  0.32883277  0.33070040  1
  Fe  Fe15  1  0.33221957  0.66349344  0.99730624  1
  Fe  Fe16  1  0.49777479  0.83129664  0.16264448  1
  Cr  Cr17  1  0.33197797  0.66448845  0.32959817  1
  Fe  Fe18  1  0.66337422  0.99691779  -0.00236797  1
  Fe  Fe19  1  0.82834277  0.16614491  0.16630755  1
  Fe  Fe20  1  0.66248492  0.99725346  0.33185975  1
  Cr  Cr21  1  0.66696523  0.33016272  0.99547621  1
  Fe  Fe22  1  0.83010122  0.49682874  0.16660450  1
  Fe  Fe23  1  0.66313069  0.33030520  0.33086773  1
  Fe  Fe24  1  0.66412843  0.66446444  0.99718773  1
  Cr  Cr25  1  0.83032043  0.83157738  0.16604687  1
  Fe  Fe26  1  0.66460834  0.66396727  0.33192740  1
  Fe  Fe27  1  0.16442013  0.16563114  0.49920635  1
  Fe  Fe28  1  -0.00170277  -0.00043240  0.66407508  1
  Fe  Fe29  1  0.16400471  0.16533500  0.82915584  1
  Cr  Cr30  1  0.16487899  0.49588581  0.49573706  1
  Fe  Fe31  1  0.99741998  0.33142190  0.66505707  1
  Fe  Fe32  1  0.16533273  0.49535765  0.82968472  1
  Cr  Cr33  1  0.16025340  0.83073552  0.49981202  1
  Fe  Fe34  1  0.99560541  0.66158633  0.66428022  1
  Cr  Cr35  1  0.16419887  0.83112576  0.83049187  1
  Fe  Fe36  1  0.49549544  0.16705138  0.49823139  1
  Fe  Fe37  1  0.33041042  -0.00060915  0.66321512  1
  Cr  Cr38  1  0.49646701  0.16630119  0.83206484  1
  Fe  Fe39  1  0.50032420  0.49566658  0.49664345  1
  Fe  Fe40  1  0.33150883  0.33016768  0.66390125  1
  Fe  Fe41  1  0.49785537  0.49990921  0.83184795  1
  Fe  Fe42  1  0.49944882  0.82993689  0.49766104  1
  Cr  Cr43  1  0.33427624  0.66427118  0.66504277  1
  Fe  Fe44  1  0.49763986  0.83090234  0.83251699  1
  Cr  Cr45  1  0.82931897  0.16468893  0.49754226  1
  Cr  Cr46  1  0.66283056  0.99708132  0.66280663  1
  Fe  Fe47  1  0.83211750  0.16504563  0.82786357  1
  Fe  Fe48  1  0.83046361  0.49824494  0.49711371  1
  Fe  Fe49  1  0.66328510  0.33407658  0.66463833  1
  Fe  Fe50  1  0.83081240  0.49740382  0.82872971  1
  Fe  Fe51  1  0.82920673  0.82806795  0.49721468  1
  Fe  Fe52  1  0.66519889  0.66211851  0.66320016  1
  Cr  Cr53  1  0.83064839  0.83055308  0.82911160  1
" 