5259,Fe33Cr67_0,-219.680706371794, 148.206516116163,Fe33Cr67,"# generated using pymatgen
 data_Cr17Fe37
_symmetry_space_group_name_H-M   'P 1'
_cell_length_a   7.51511304
_cell_length_b   7.51511304
_cell_length_c   10.62797479
_cell_angle_alpha   90.00000000
_cell_angle_beta   90.00000000
_cell_angle_gamma   90.00000000
_symmetry_Int_Tables_number   1
_chemical_formula_structural   Cr17Fe37
_chemical_formula_sum   'Cr17 Fe37'
_cell_volume   600.23532536
_cell_formula_units_Z   1
loop_
 _symmetry_equiv_pos_site_id
 _symmetry_equiv_pos_as_xyz
  1  'x, y, z'
loop_
 _atom_site_type_symbol
 _atom_site_label
 _atom_site_symmetry_multiplicity
 _atom_site_fract_x
 _atom_site_fract_y
 _atom_site_fract_z
 _atom_site_occupancy
  Fe  Fe0  1  -0.00232792  0.99514290  0.99641241  1
  Cr  Cr1  1  0.16157529  0.16359803  0.16265146  1
  Fe  Fe2  1  -0.00248790  -0.00273635  0.32959016  1
  Fe  Fe3  1  -0.00292726  0.32959535  -0.00245234  1
  Fe  Fe4  1  0.16363347  0.49963076  0.16283138  1
  Fe  Fe5  1  -0.00259482  0.33180036  0.33108472  1
  Fe  Fe6  1  -0.00211158  0.66517858  -0.00311582  1
  Fe  Fe7  1  0.16246830  0.82807104  0.16388116  1
  Fe  Fe8  1  -0.00020280  0.66175469  0.33040540  1
  Fe  Fe9  1  0.33055248  0.99536928  0.99521194  1
  Fe  Fe10  1  0.49775251  0.16221699  0.16480947  1
  Fe  Fe11  1  0.32939637  -0.00167458  0.32954571  1
  Cr  Cr12  1  0.33116609  0.32895587  0.99574155  1
  Cr  Cr13  1  0.49574831  0.50025232  0.16282622  1
  Cr  Cr14  1  0.33078997  0.32987679  0.33209259  1
  Fe  Fe15  1  0.32956179  0.66665177  0.99539636  1
  Cr  Cr16  1  0.49399615  0.83099562  0.16577812  1
  Fe  Fe17  1  0.32741960  0.66183934  0.33017213  1
  Fe  Fe18  1  0.66129495  0.99526819  0.99580357  1
  Fe  Fe19  1  0.82853757  0.16182609  0.16470730  1
  Fe  Fe20  1  0.66236543  0.00057110  0.33008578  1
  Cr  Cr21  1  0.66134930  0.32831081  -0.00130275  1
  Cr  Cr22  1  0.83197000  0.49448741  0.16329803  1
  Fe  Fe23  1  0.66340831  0.32891297  0.33001434  1
  Fe  Fe24  1  0.66246828  0.66563754  0.99499254  1
  Cr  Cr25  1  0.82836680  0.83085756  0.16387696  1
  Cr  Cr26  1  0.66620094  0.66196878  0.33312085  1
  Fe  Fe27  1  0.16471185  0.16336071  0.49848474  1
  Fe  Fe28  1  -0.00300181  0.99548452  0.66321390  1
  Cr  Cr29  1  0.16357413  0.16283585  0.82613460  1
  Fe  Fe30  1  0.16233878  0.49667951  0.49855956  1
  Fe  Fe31  1  -0.00273550  0.33148535  0.66136242  1
  Cr  Cr32  1  0.16379913  0.49559646  0.83153494  1
  Cr  Cr33  1  0.16520960  0.83117459  0.49505854  1
  Fe  Fe34  1  -0.00197824  0.66370090  0.66359189  1
  Fe  Fe35  1  0.16274669  0.82976692  0.82938554  1
  Fe  Fe36  1  0.49675156  0.16270423  0.49841608  1
  Fe  Fe37  1  0.33173512  0.99623817  0.66345676  1
  Fe  Fe38  1  0.49731241  0.16265357  0.82799619  1
  Fe  Fe39  1  0.49726394  0.49552625  0.49885834  1
  Fe  Fe40  1  0.33177956  0.33077606  0.66146774  1
  Fe  Fe41  1  0.49695055  0.49759129  0.82871805  1
  Cr  Cr42  1  0.49559228  0.82993842  0.49457825  1
  Fe  Fe43  1  0.33059578  0.66306474  0.66412604  1
  Fe  Fe44  1  0.49656603  0.83004950  0.82965541  1
  Cr  Cr45  1  0.83146577  0.16526851  0.49533911  1
  Fe  Fe46  1  0.66223094  -0.00271934  0.66479884  1
  Cr  Cr47  1  0.83188246  0.16355084  0.83174279  1
  Fe  Fe48  1  0.83149948  0.49693951  0.49876524  1
  Fe  Fe49  1  0.66178541  0.32997324  0.66304318  1
  Cr  Cr50  1  0.82937086  0.49667496  0.82974791  1
  Cr  Cr51  1  0.82972728  0.83122943  0.49846189  1
  Fe  Fe52  1  0.66177336  0.66327272  0.66361395  1
  Fe  Fe53  1  0.83099536  0.83013629  0.82974126  1
" 