1761,Fe33Cr67_8,-219.946343784407, 153.739169713883,Fe33Cr67,"# generated using pymatgen
 data_Cr17Fe37
_symmetry_space_group_name_H-M   'P 1'
_cell_length_a   7.50659331
_cell_length_b   7.50659331
_cell_length_c   10.61592607
_cell_angle_alpha   90.00000000
_cell_angle_beta   90.00000000
_cell_angle_gamma   90.00000000
_symmetry_Int_Tables_number   1
_chemical_formula_structural   Cr17Fe37
_chemical_formula_sum   'Cr17 Fe37'
_cell_volume   598.19621459
_cell_formula_units_Z   1
loop_
 _symmetry_equiv_pos_site_id
 _symmetry_equiv_pos_as_xyz
  1  'x, y, z'
loop_
 _atom_site_type_symbol
 _atom_site_label
 _atom_site_symmetry_multiplicity
 _atom_site_fract_x
 _atom_site_fract_y
 _atom_site_fract_z
 _atom_site_occupancy
  Fe  Fe0  1  0.99559607  0.99600011  -0.00262974  1
  Fe  Fe1  1  0.16378012  0.16306138  0.16414844  1
  Fe  Fe2  1  0.99721110  0.99619124  0.32936590  1
  Cr  Cr3  1  0.99521401  0.32831007  0.99630558  1
  Cr  Cr4  1  0.16769933  0.49817834  0.16344845  1
  Cr  Cr5  1  0.99675201  0.32979839  0.33387886  1
  Fe  Fe6  1  -0.00204933  0.66708656  0.99681912  1
  Fe  Fe7  1  0.16251635  0.83049954  0.16404120  1
  Fe  Fe8  1  -0.00174669  0.66593145  0.33137829  1
  Cr  Cr9  1  0.32811980  0.99575378  0.99671801  1
  Fe  Fe10  1  0.49706475  0.16417334  0.16420680  1
  Cr  Cr11  1  0.32898891  0.99439594  0.33278944  1
  Fe  Fe12  1  0.33213536  0.33059195  -0.00261833  1
  Fe  Fe13  1  0.49578198  0.49808392  0.16474635  1
  Fe  Fe14  1  0.33010973  0.33087706  0.33011360  1
  Fe  Fe15  1  0.33039657  0.66333915  -0.00239778  1
  Fe  Fe16  1  0.49791259  0.82968298  0.16441514  1
  Fe  Fe17  1  0.33059685  0.66372131  0.33087690  1
  Fe  Fe18  1  0.66586784  -0.00196216  -0.00205218  1
  Fe  Fe19  1  0.83100023  0.16058026  0.16422623  1
  Fe  Fe20  1  0.66457619  0.99584407  0.32876791  1
  Cr  Cr21  1  0.66379723  0.33060571  0.99665001  1
  Cr  Cr22  1  0.83214217  0.49989626  0.16580827  1
  Cr  Cr23  1  0.66545752  0.33203465  0.32810608  1
  Cr  Cr24  1  0.66348283  0.66265484  0.99586759  1
  Fe  Fe25  1  0.83144819  0.83239019  0.16476489  1
  Fe  Fe26  1  0.66325743  0.66611878  0.32990251  1
  Fe  Fe27  1  0.16403533  0.16397529  0.49876107  1
  Fe  Fe28  1  -0.00133890  0.99725306  0.66522169  1
  Fe  Fe29  1  0.16422201  0.16257681  0.82942022  1
  Fe  Fe30  1  0.16254116  0.49729736  0.49749132  1
  Fe  Fe31  1  -0.00101730  0.33091513  0.66402166  1
  Cr  Cr32  1  0.16476274  0.49703744  0.83278007  1
  Fe  Fe33  1  0.16387739  0.83091559  0.49742772  1
  Fe  Fe34  1  0.99599809  0.66374062  0.66408949  1
  Fe  Fe35  1  0.16161522  0.83182419  0.83064691  1
  Cr  Cr36  1  0.49588103  0.16182486  0.49919848  1
  Fe  Fe37  1  0.32938967  -0.00104582  0.66408169  1
  Fe  Fe38  1  0.49639773  0.16483014  0.82991355  1
  Cr  Cr39  1  0.49497837  0.49860478  0.49558264  1
  Fe  Fe40  1  0.32897288  0.32927419  0.66468286  1
  Fe  Fe41  1  0.49701257  0.49638755  0.83038428  1
  Fe  Fe42  1  0.49776645  0.83089584  0.49758869  1
  Cr  Cr43  1  0.33051785  0.66853569  0.66275647  1
  Cr  Cr44  1  0.49966687  0.83235126  0.82790112  1
  Cr  Cr45  1  0.83171271  0.16144557  0.49681262  1
  Fe  Fe46  1  0.66405377  0.99617592  0.66515967  1
  Fe  Fe47  1  0.83134848  0.16185897  0.82985219  1
  Fe  Fe48  1  0.83205019  0.49896410  0.49788104  1
  Cr  Cr49  1  0.66719735  0.33318983  0.66732084  1
  Fe  Fe50  1  0.83085877  0.49904976  0.82971388  1
  Cr  Cr51  1  0.82935679  0.83033583  0.49683989  1
  Fe  Fe52  1  0.66589388  0.66457296  0.66470664  1
  Fe  Fe53  1  0.83290024  0.83113451  0.82987626  1
" 