1976,Fe33Cr67_17,-219.793158026181, 147.039500408945,Fe33Cr67,"# generated using pymatgen
 data_Cr17Fe37
_symmetry_space_group_name_H-M   'P 1'
_cell_length_a   7.50727102
_cell_length_b   7.50727102
_cell_length_c   10.61688450
_cell_angle_alpha   90.00000000
_cell_angle_beta   90.00000000
_cell_angle_gamma   90.00000000
_symmetry_Int_Tables_number   1
_chemical_formula_structural   Cr17Fe37
_chemical_formula_sum   'Cr17 Fe37'
_cell_volume   598.35824876
_cell_formula_units_Z   1
loop_
 _symmetry_equiv_pos_site_id
 _symmetry_equiv_pos_as_xyz
  1  'x, y, z'
loop_
 _atom_site_type_symbol
 _atom_site_label
 _atom_site_symmetry_multiplicity
 _atom_site_fract_x
 _atom_site_fract_y
 _atom_site_fract_z
 _atom_site_occupancy
  Fe  Fe0  1  0.99710506  0.99569028  0.99563153  1
  Cr  Cr1  1  0.15970160  0.16455481  0.16326037  1
  Cr  Cr2  1  0.99475073  0.99644502  0.33220534  1
  Fe  Fe3  1  0.99529984  0.33168754  0.99548162  1
  Fe  Fe4  1  0.16258409  0.49785526  0.16367528  1
  Fe  Fe5  1  0.99391660  0.33061926  0.33094937  1
  Fe  Fe6  1  -0.00202500  0.66455085  0.99693122  1
  Fe  Fe7  1  0.16267036  0.83068313  0.16327749  1
  Cr  Cr8  1  0.99571162  0.66482061  0.32918749  1
  Cr  Cr9  1  0.32929706  -0.00151454  0.99363833  1
  Fe  Fe10  1  0.49764817  0.16432953  0.16344368  1
  Fe  Fe11  1  0.33082564  -0.00161579  0.33060537  1
  Cr  Cr12  1  0.33198954  0.33085447  0.99451568  1
  Fe  Fe13  1  0.49789856  0.49604212  0.16386657  1
  Cr  Cr14  1  0.32998339  0.32899519  0.33070772  1
  Cr  Cr15  1  0.32951103  0.66242073  0.99621922  1
  Cr  Cr16  1  0.49659695  0.83091806  0.16793253  1
  Fe  Fe17  1  0.33006206  0.66310222  0.32886250  1
  Cr  Cr18  1  0.66663664  -0.00212496  -0.00220515  1
  Fe  Fe19  1  0.82924413  0.16483857  0.16320305  1
  Fe  Fe20  1  0.66460038  -0.00066378  0.33111361  1
  Fe  Fe21  1  0.66542153  0.33067473  0.99683368  1
  Fe  Fe22  1  0.83279461  0.49446768  0.16188168  1
  Cr  Cr23  1  0.66275666  0.33019386  0.33075885  1
  Cr  Cr24  1  0.66704524  0.66319216  0.99647281  1
  Fe  Fe25  1  0.83336412  0.83229821  0.16246854  1
  Cr  Cr26  1  0.66844193  0.66501070  0.33083281  1
  Fe  Fe27  1  0.16335416  0.16268464  0.49844532  1
  Fe  Fe28  1  0.99722244  -0.00136367  0.66409773  1
  Fe  Fe29  1  0.15971565  0.16367315  0.83000317  1
  Cr  Cr30  1  0.16064913  0.49573619  0.49680478  1
  Fe  Fe31  1  0.99512997  0.32954796  0.66476304  1
  Fe  Fe32  1  0.16061395  0.49771961  0.82931099  1
  Cr  Cr33  1  0.16733793  0.83039536  0.49781266  1
  Fe  Fe34  1  0.99644281  0.66377832  0.66488875  1
  Fe  Fe35  1  0.16158728  0.83026573  0.82831353  1
  Fe  Fe36  1  0.49754992  0.16311150  0.49909735  1
  Fe  Fe37  1  0.33058992  0.99676437  0.66715406  1
  Fe  Fe38  1  0.50103830  0.16367499  0.82915353  1
  Cr  Cr39  1  0.49776207  0.50061510  0.49938295  1
  Cr  Cr40  1  0.33011131  0.32851615  0.66573510  1
  Fe  Fe41  1  0.50005627  0.49750130  0.82841182  1
  Cr  Cr42  1  0.49862445  0.83243073  0.49785393  1
  Fe  Fe43  1  0.32995074  0.66442355  0.66742855  1
  Fe  Fe44  1  0.49852800  0.83056148  0.82830861  1
  Fe  Fe45  1  0.83025575  0.16429289  0.49970729  1
  Fe  Fe46  1  0.66494696  -0.00118440  0.66563288  1
  Fe  Fe47  1  0.83155112  0.16467185  0.83010635  1
  Fe  Fe48  1  0.83062459  0.49695953  0.50036396  1
  Fe  Fe49  1  0.66620806  0.32983029  0.66448731  1
  Fe  Fe50  1  0.83184716  0.49617684  0.82953453  1
  Fe  Fe51  1  0.83123366  0.83061359  0.50146983  1
  Fe  Fe52  1  0.66597984  0.66441287  0.66649391  1
  Fe  Fe53  1  0.83259203  0.83120013  0.82882286  1
" 