7321,Fe33Cr67_13,-219.990788125703, 150.966081777112,Fe33Cr67,"# generated using pymatgen
 data_Cr17Fe37
_symmetry_space_group_name_H-M   'P 1'
_cell_length_a   7.50742094
_cell_length_b   7.50742094
_cell_length_c   10.61709650
_cell_angle_alpha   90.00000000
_cell_angle_beta   90.00000000
_cell_angle_gamma   90.00000000
_symmetry_Int_Tables_number   1
_chemical_formula_structural   Cr17Fe37
_chemical_formula_sum   'Cr17 Fe37'
_cell_volume   598.39409486
_cell_formula_units_Z   1
loop_
 _symmetry_equiv_pos_site_id
 _symmetry_equiv_pos_as_xyz
  1  'x, y, z'
loop_
 _atom_site_type_symbol
 _atom_site_label
 _atom_site_symmetry_multiplicity
 _atom_site_fract_x
 _atom_site_fract_y
 _atom_site_fract_z
 _atom_site_occupancy
  Cr  Cr0  1  0.99698249  -0.00259570  -0.00113480  1
  Fe  Fe1  1  0.16408870  0.16687126  0.16417293  1
  Fe  Fe2  1  0.99653835  0.00078487  0.32988223  1
  Fe  Fe3  1  0.99660350  0.33032245  -0.00226096  1
  Fe  Fe4  1  0.16451262  0.49570855  0.16406219  1
  Fe  Fe5  1  -0.00128445  0.32749118  0.33002737  1
  Cr  Cr6  1  0.99639466  0.66053735  0.99235798  1
  Cr  Cr7  1  0.16315308  0.83008210  0.16716066  1
  Cr  Cr8  1  0.99693212  0.66213649  0.33073748  1
  Cr  Cr9  1  0.33419671  0.99676317  -0.00095518  1
  Fe  Fe10  1  0.49750035  0.16656477  0.16286836  1
  Cr  Cr11  1  0.33020840  -0.00124154  0.33211231  1
  Fe  Fe12  1  0.32965407  0.33267901  -0.00043674  1
  Fe  Fe13  1  0.49699847  0.49776302  0.16306462  1
  Fe  Fe14  1  0.33035554  0.33139921  0.32998020  1
  Fe  Fe15  1  0.33085966  0.66322633  -0.00217864  1
  Fe  Fe16  1  0.49830585  0.82834930  0.16344999  1
  Fe  Fe17  1  0.33418094  0.66272047  0.33064671  1
  Fe  Fe18  1  0.66555606  0.99645558  -0.00105064  1
  Fe  Fe19  1  0.83085141  0.16548021  0.16412478  1
  Cr  Cr20  1  0.66190621  -0.00213391  0.32934173  1
  Fe  Fe21  1  0.66607863  0.33061035  -0.00069941  1
  Fe  Fe22  1  0.82996159  0.49688080  0.16375463  1
  Cr  Cr23  1  0.66330846  0.33215008  0.33411236  1
  Fe  Fe24  1  0.66286596  0.66516490  -0.00267686  1
  Fe  Fe25  1  0.82869525  0.82896470  0.16382380  1
  Fe  Fe26  1  0.66074910  0.66449520  0.32948513  1
  Fe  Fe27  1  0.16234722  0.16343329  0.49863042  1
  Fe  Fe28  1  0.99586105  -0.00208396  0.66365591  1
  Cr  Cr29  1  0.16555931  0.16425615  0.83167798  1
  Cr  Cr30  1  0.16596944  0.49747693  0.49723236  1
  Cr  Cr31  1  0.99594095  0.33173391  0.66665244  1
  Fe  Fe32  1  0.16593479  0.49630546  0.82965537  1
  Fe  Fe33  1  0.16515443  0.83157883  0.49864985  1
  Fe  Fe34  1  0.99725916  0.66476738  0.66436806  1
  Cr  Cr35  1  0.16399284  0.82959485  0.82563521  1
  Fe  Fe36  1  0.49680745  0.16481208  0.49987887  1
  Fe  Fe37  1  0.33229911  -0.00241017  0.66158486  1
  Cr  Cr38  1  0.49985300  0.16432090  0.83102640  1
  Fe  Fe39  1  0.49586102  0.49780366  0.49801851  1
  Fe  Fe40  1  0.33193706  0.33020345  0.66278201  1
  Cr  Cr41  1  0.49713750  0.49581165  0.83106088  1
  Fe  Fe42  1  0.49620905  0.82922389  0.49785646  1
  Fe  Fe43  1  0.33100975  0.66373054  0.66316582  1
  Fe  Fe44  1  0.49825719  0.83075404  0.83024178  1
  Fe  Fe45  1  0.83185158  0.16387862  0.49816636  1
  Fe  Fe46  1  0.66459258  -0.00151371  0.66283041  1
  Fe  Fe47  1  0.82998136  0.16359329  0.83135924  1
  Cr  Cr48  1  0.82865291  0.49698771  0.49624875  1
  Fe  Fe49  1  0.66304320  0.32866779  0.66231038  1
  Fe  Fe50  1  0.82902562  0.49531305  0.83076162  1
  Cr  Cr51  1  0.83219748  0.83267249  0.49483262  1
  Cr  Cr52  1  0.66434366  0.66345466  0.66333549  1
  Fe  Fe53  1  0.82756727  0.83280272  0.82940944  1
" 