7123,Fe33Cr67_3,-219.728524816196, 153.569233995221,Fe33Cr67,"# generated using pymatgen
 data_Cr17Fe37
_symmetry_space_group_name_H-M   'P 1'
_cell_length_a   7.50004299
_cell_length_b   7.50004299
_cell_length_c   10.60666251
_cell_angle_alpha   90.00000000
_cell_angle_beta   90.00000000
_cell_angle_gamma   90.00000000
_symmetry_Int_Tables_number   1
_chemical_formula_structural   Cr17Fe37
_chemical_formula_sum   'Cr17 Fe37'
_cell_volume   596.63160591
_cell_formula_units_Z   1
loop_
 _symmetry_equiv_pos_site_id
 _symmetry_equiv_pos_as_xyz
  1  'x, y, z'
loop_
 _atom_site_type_symbol
 _atom_site_label
 _atom_site_symmetry_multiplicity
 _atom_site_fract_x
 _atom_site_fract_y
 _atom_site_fract_z
 _atom_site_occupancy
  Fe  Fe0  1  0.99381897  -0.00150339  -0.00191322  1
  Cr  Cr1  1  0.16325073  0.16465600  0.16444326  1
  Cr  Cr2  1  0.99584981  0.99631062  0.33321633  1
  Fe  Fe3  1  0.99767530  0.33248294  0.99767914  1
  Fe  Fe4  1  0.16350680  0.49941389  0.16369131  1
  Fe  Fe5  1  0.99520638  0.33150350  0.32981614  1
  Fe  Fe6  1  0.99610174  0.66281770  0.99763765  1
  Cr  Cr7  1  0.16403333  0.83080348  0.16568269  1
  Fe  Fe8  1  0.99647965  0.66317183  0.33091138  1
  Cr  Cr9  1  0.33419534  -0.00060471  -0.00180855  1
  Fe  Fe10  1  0.49877525  0.16490626  0.16476493  1
  Fe  Fe11  1  0.33212933  0.99649870  0.33180699  1
  Fe  Fe12  1  0.33055022  0.33360858  -0.00161617  1
  Fe  Fe13  1  0.49785266  0.49874178  0.16374744  1
  Cr  Cr14  1  0.33363514  0.33324294  0.32846928  1
  Fe  Fe15  1  0.33125554  0.66135318  0.99750385  1
  Cr  Cr16  1  0.49944575  0.82931196  0.16326748  1
  Fe  Fe17  1  0.33221870  0.66604489  0.33246606  1
  Fe  Fe18  1  0.66731571  0.99678482  0.99728623  1
  Fe  Fe19  1  0.83140297  0.16430943  0.16390718  1
  Cr  Cr20  1  0.66562278  -0.00030180  0.32894965  1
  Cr  Cr21  1  0.66374444  0.32885354  0.00043904  1
  Fe  Fe22  1  0.83217916  0.49929657  0.16547685  1
  Fe  Fe23  1  0.66620280  0.33211648  0.32896673  1
  Fe  Fe24  1  0.66608976  0.66511278  0.99734351  1
  Fe  Fe25  1  0.83174385  0.82956814  0.16279920  1
  Fe  Fe26  1  0.66421111  0.66361744  0.33076772  1
  Cr  Cr27  1  0.16368440  0.16269060  0.49951339  1
  Fe  Fe28  1  0.99502349  0.99750620  0.66391249  1
  Cr  Cr29  1  0.16395521  0.16572378  0.82945352  1
  Cr  Cr30  1  0.16251863  0.49601881  0.49702842  1
  Fe  Fe31  1  0.99556382  0.33096775  0.66551412  1
  Fe  Fe32  1  0.16354397  0.49723951  0.83230285  1
  Fe  Fe33  1  0.16537260  0.83090080  0.49717744  1
  Cr  Cr34  1  0.99742169  0.66542832  0.66526659  1
  Cr  Cr35  1  0.16407697  0.83275363  0.83309723  1
  Cr  Cr36  1  0.49797389  0.16453725  0.49894268  1
  Fe  Fe37  1  0.33263147  0.99642800  0.66530505  1
  Fe  Fe38  1  0.49943961  0.16327062  0.82925340  1
  Fe  Fe39  1  0.49840880  0.49844850  0.49784935  1
  Fe  Fe40  1  0.33174540  0.33118695  0.66486644  1
  Cr  Cr41  1  0.50032432  0.49863611  0.82979099  1
  Fe  Fe42  1  0.49850604  0.82977350  0.49692733  1
  Cr  Cr43  1  0.33095477  0.66445720  0.66334844  1
  Fe  Fe44  1  0.50042020  0.83270413  0.83125487  1
  Fe  Fe45  1  0.83055385  0.16496541  0.49958369  1
  Fe  Fe46  1  0.66550288  0.99607226  0.66503369  1
  Fe  Fe47  1  0.82991085  0.16386078  0.83050733  1
  Cr  Cr48  1  0.82740340  0.49733851  0.49739480  1
  Fe  Fe49  1  0.66565427  0.33074325  0.66560218  1
  Fe  Fe50  1  0.83275147  0.49715191  0.83155266  1
  Fe  Fe51  1  0.82981157  0.83188643  0.49873157  1
  Fe  Fe52  1  0.66490954  0.66655574  0.66432244  1
  Fe  Fe53  1  0.82866093  0.83185385  0.83198223  1
" 