5109,Fe33Cr67_10,-219.710985554504, 144.233122314676,Fe33Cr67,"# generated using pymatgen
 data_Cr17Fe37
_symmetry_space_group_name_H-M   'P 1'
_cell_length_a   7.50107980
_cell_length_b   7.50107980
_cell_length_c   10.60812878
_cell_angle_alpha   90.00000000
_cell_angle_beta   90.00000000
_cell_angle_gamma   90.00000000
_symmetry_Int_Tables_number   1
_chemical_formula_structural   Cr17Fe37
_chemical_formula_sum   'Cr17 Fe37'
_cell_volume   596.87907586
_cell_formula_units_Z   1
loop_
 _symmetry_equiv_pos_site_id
 _symmetry_equiv_pos_as_xyz
  1  'x, y, z'
loop_
 _atom_site_type_symbol
 _atom_site_label
 _atom_site_symmetry_multiplicity
 _atom_site_fract_x
 _atom_site_fract_y
 _atom_site_fract_z
 _atom_site_occupancy
  Fe  Fe0  1  0.99755738  0.99626660  0.99592543  1
  Fe  Fe1  1  0.16527223  0.16219561  0.16423317  1
  Fe  Fe2  1  -0.00071565  -0.00212898  0.33270137  1
  Cr  Cr3  1  -0.00122810  0.32738730  0.99553698  1
  Cr  Cr4  1  0.16329968  0.49834237  0.16303164  1
  Cr  Cr5  1  -0.00134122  0.32805943  0.33338228  1
  Fe  Fe6  1  0.99692055  0.66762668  0.99645354  1
  Cr  Cr7  1  0.16605965  0.83505530  0.16451021  1
  Cr  Cr8  1  -0.00103666  0.66707692  0.33080903  1
  Fe  Fe9  1  0.33215530  -0.00099398  0.99616242  1
  Fe  Fe10  1  0.49601655  0.16082375  0.16504371  1
  Fe  Fe11  1  0.33192255  -0.00170262  0.33265922  1
  Cr  Cr12  1  0.33148019  0.32955196  0.99656633  1
  Fe  Fe13  1  0.49772751  0.49783187  0.16419229  1
  Cr  Cr14  1  0.33187159  0.33047716  0.33010299  1
  Cr  Cr15  1  0.33288025  0.66579733  0.99726368  1
  Fe  Fe16  1  0.49991842  0.83438826  0.16322044  1
  Cr  Cr17  1  0.33219533  0.66606417  0.33386028  1
  Fe  Fe18  1  0.66327436  0.99565044  0.99666353  1
  Cr  Cr19  1  0.82958601  0.16304271  0.16694422  1
  Fe  Fe20  1  0.66181720  -0.00091376  0.33195125  1
  Cr  Cr21  1  0.66253028  0.32919167  -0.00174564  1
  Cr  Cr22  1  0.83001028  0.49856158  0.16406272  1
  Fe  Fe23  1  0.66177289  0.32967144  0.33248144  1
  Fe  Fe24  1  0.66436199  0.66751237  0.99753457  1
  Fe  Fe25  1  0.83003045  0.83326283  0.16251695  1
  Cr  Cr26  1  0.66196935  0.66674715  0.32944745  1
  Fe  Fe27  1  0.16471028  0.16220029  0.49990834  1
  Fe  Fe28  1  -0.00182420  -0.00110572  0.66535002  1
  Fe  Fe29  1  0.16486338  0.16224733  0.82861776  1
  Fe  Fe30  1  0.16581204  0.49772854  0.50071063  1
  Fe  Fe31  1  0.00036246  0.32923078  0.66470796  1
  Fe  Fe32  1  0.16591092  0.49882743  0.82869286  1
  Fe  Fe33  1  0.16580555  0.83321364  0.50004861  1
  Fe  Fe34  1  -0.00021939  0.66538180  0.66462115  1
  Fe  Fe35  1  0.16360908  0.83167357  0.83031380  1
  Fe  Fe36  1  0.49786814  0.16206368  0.49774719  1
  Fe  Fe37  1  0.33153415  -0.00196427  0.66458530  1
  Fe  Fe38  1  0.49708525  0.16181673  0.82986142  1
  Fe  Fe39  1  0.49665236  0.49786297  0.49981033  1
  Fe  Fe40  1  0.32963348  0.33055818  0.66451601  1
  Fe  Fe41  1  0.49676772  0.49886912  0.82891412  1
  Fe  Fe42  1  0.49690111  0.83319337  0.50017062  1
  Fe  Fe43  1  0.33142306  0.66469324  0.66446728  1
  Fe  Fe44  1  0.49875122  0.83184417  0.82987716  1
  Fe  Fe45  1  0.83065150  0.16176634  0.49789263  1
  Fe  Fe46  1  0.66346433  0.99634079  0.66543613  1
  Fe  Fe47  1  0.83114598  0.16078330  0.83027777  1
  Cr  Cr48  1  0.83076508  0.49685626  0.49728423  1
  Cr  Cr49  1  0.66451950  0.32801476  0.66370370  1
  Cr  Cr50  1  0.83113972  0.49904600  0.83116467  1
  Cr  Cr51  1  0.83065181  0.83213814  0.49820054  1
  Fe  Fe52  1  0.66227853  0.66622095  0.66479971  1
  Fe  Fe53  1  0.83093030  0.83315482  0.83031032  1
" 