8879,Fe33Cr67_14,-219.84925206158, 148.971823947559,Fe33Cr67,"# generated using pymatgen
 data_Cr17Fe37
_symmetry_space_group_name_H-M   'P 1'
_cell_length_a   7.50686246
_cell_length_b   7.50686246
_cell_length_c   10.61630671
_cell_angle_alpha   90.00000000
_cell_angle_beta   90.00000000
_cell_angle_gamma   90.00000000
_symmetry_Int_Tables_number   1
_chemical_formula_structural   Cr17Fe37
_chemical_formula_sum   'Cr17 Fe37'
_cell_volume   598.26056248
_cell_formula_units_Z   1
loop_
 _symmetry_equiv_pos_site_id
 _symmetry_equiv_pos_as_xyz
  1  'x, y, z'
loop_
 _atom_site_type_symbol
 _atom_site_label
 _atom_site_symmetry_multiplicity
 _atom_site_fract_x
 _atom_site_fract_y
 _atom_site_fract_z
 _atom_site_occupancy
  Cr  Cr0  1  0.99598294  0.99678749  -0.00039372  1
  Cr  Cr1  1  0.16254332  0.16341407  0.16550707  1
  Fe  Fe2  1  0.99485472  0.99567245  0.33142170  1
  Cr  Cr3  1  0.99662378  0.33204700  0.99491277  1
  Cr  Cr4  1  0.16391718  0.49906991  0.16447628  1
  Fe  Fe5  1  0.99620918  0.33116564  0.33221326  1
  Fe  Fe6  1  0.99527587  0.66425773  -0.00256824  1
  Fe  Fe7  1  0.16277406  0.82906872  0.16408346  1
  Fe  Fe8  1  0.99718868  0.66522561  0.33168737  1
  Fe  Fe9  1  0.33122480  0.99667421  -0.00234202  1
  Fe  Fe10  1  0.49942983  0.16610096  0.16493777  1
  Cr  Cr11  1  0.33074094  -0.00228430  0.32986860  1
  Cr  Cr12  1  0.33080658  0.32929595  -0.00222298  1
  Fe  Fe13  1  0.49925128  0.49533276  0.16347703  1
  Fe  Fe14  1  0.33226843  0.33099743  0.33223715  1
  Fe  Fe15  1  0.33029325  0.66512864  -0.00249613  1
  Cr  Cr16  1  0.49677901  0.82896053  0.16187627  1
  Cr  Cr17  1  0.33188886  0.66328745  0.33331068  1
  Cr  Cr18  1  0.66381652  0.99586938  0.99711285  1
  Fe  Fe19  1  0.82843344  0.16516911  0.16585628  1
  Fe  Fe20  1  0.66530478  -0.00139536  0.33081082  1
  Fe  Fe21  1  0.66485837  0.33093491  -0.00113065  1
  Fe  Fe22  1  0.82949878  0.49712081  0.16406504  1
  Fe  Fe23  1  0.66338089  0.32951379  0.33095285  1
  Fe  Fe24  1  0.66679850  0.66206749  -0.00244741  1
  Fe  Fe25  1  0.83287499  0.82952120  0.16520111  1
  Cr  Cr26  1  0.66489118  0.66488876  0.33043796  1
  Fe  Fe27  1  0.16256703  0.16313758  0.49643183  1
  Fe  Fe28  1  0.99666319  0.99507762  0.66213350  1
  Cr  Cr29  1  0.16441737  0.16100581  0.83010309  1
  Fe  Fe30  1  0.16238066  0.49779702  0.49645129  1
  Cr  Cr31  1  -0.00186754  0.33219289  0.66516270  1
  Fe  Fe32  1  0.16381855  0.49968959  0.83073892  1
  Fe  Fe33  1  0.16257283  0.83103347  0.49882142  1
  Fe  Fe34  1  -0.00159521  0.66463872  0.66307892  1
  Cr  Cr35  1  0.16515351  0.82950563  0.83162009  1
  Fe  Fe36  1  0.49910416  0.16375912  0.49712416  1
  Fe  Fe37  1  0.33219629  0.99554283  0.66204959  1
  Fe  Fe38  1  0.49709236  0.16216391  0.82951708  1
  Fe  Fe39  1  0.49846962  0.49596451  0.49787841  1
  Cr  Cr40  1  0.32961825  0.33059659  0.66238618  1
  Cr  Cr41  1  0.49885262  0.49841773  0.83208569  1
  Fe  Fe42  1  0.49753772  0.83258484  0.49817495  1
  Fe  Fe43  1  0.32961597  0.66454656  0.66222229  1
  Fe  Fe44  1  0.49737070  0.83255023  0.83062734  1
  Fe  Fe45  1  0.83022756  0.16353574  0.49720108  1
  Fe  Fe46  1  0.66296184  -0.00128433  0.66300303  1
  Cr  Cr47  1  0.82826875  0.16440263  0.82831006  1
  Fe  Fe48  1  0.83134083  0.49659880  0.49684476  1
  Fe  Fe49  1  0.66328802  0.33074781  0.66218516  1
  Fe  Fe50  1  0.83141049  0.50060886  0.83078576  1
  Fe  Fe51  1  0.83212083  0.83227371  0.49721818  1
  Cr  Cr52  1  0.66462844  0.66655733  0.66350637  1
  Fe  Fe53  1  0.83067255  0.82926003  0.83029055  1
" 