1765,Fe33Cr67_7,-219.905787688623, 147.500882709056,Fe33Cr67,"# generated using pymatgen
 data_Cr17Fe37
_symmetry_space_group_name_H-M   'P 1'
_cell_length_a   7.50804724
_cell_length_b   7.50804724
_cell_length_c   10.61798223
_cell_angle_alpha   90.00000000
_cell_angle_beta   90.00000000
_cell_angle_gamma   90.00000000
_symmetry_Int_Tables_number   1
_chemical_formula_structural   Cr17Fe37
_chemical_formula_sum   'Cr17 Fe37'
_cell_volume   598.54386935
_cell_formula_units_Z   1
loop_
 _symmetry_equiv_pos_site_id
 _symmetry_equiv_pos_as_xyz
  1  'x, y, z'
loop_
 _atom_site_type_symbol
 _atom_site_label
 _atom_site_symmetry_multiplicity
 _atom_site_fract_x
 _atom_site_fract_y
 _atom_site_fract_z
 _atom_site_occupancy
  Fe  Fe0  1  -0.00251640  -0.00199683  0.99546368  1
  Cr  Cr1  1  0.16375339  0.16251186  0.16648157  1
  Fe  Fe2  1  0.99704414  -0.00130653  0.33233775  1
  Cr  Cr3  1  -0.00261712  0.33121828  -0.00254728  1
  Cr  Cr4  1  0.16482773  0.49746594  0.16537451  1
  Fe  Fe5  1  0.99541617  0.32925997  0.33198214  1
  Cr  Cr6  1  0.99641561  0.66428743  0.99588006  1
  Cr  Cr7  1  0.16490234  0.83163551  0.16175476  1
  Cr  Cr8  1  0.99568217  0.66296900  0.33138815  1
  Fe  Fe9  1  0.33183024  0.99651625  0.99566006  1
  Fe  Fe10  1  0.49867687  0.16342586  0.16441817  1
  Fe  Fe11  1  0.33114118  -0.00248257  0.33097233  1
  Cr  Cr12  1  0.33269465  0.33072927  -0.00242199  1
  Fe  Fe13  1  0.50046366  0.49740437  0.16376072  1
  Fe  Fe14  1  0.33185639  0.32964776  0.33162456  1
  Fe  Fe15  1  0.33371674  0.66507156  0.99654621  1
  Fe  Fe16  1  0.49717344  0.83082211  0.16252803  1
  Cr  Cr17  1  0.33303819  0.66217214  0.32984511  1
  Fe  Fe18  1  0.66232257  -0.00243907  0.99721683  1
  Fe  Fe19  1  0.82935050  0.16521437  0.16378903  1
  Cr  Cr20  1  0.66442962  0.99644143  0.33144765  1
  Fe  Fe21  1  0.66350260  0.33185636  -0.00180456  1
  Fe  Fe22  1  0.82790257  0.49562398  0.16440928  1
  Fe  Fe23  1  0.66448387  0.33300141  0.33008826  1
  Fe  Fe24  1  0.66172555  0.66257362  0.99661656  1
  Cr  Cr25  1  0.82979776  0.83132318  0.16312033  1
  Fe  Fe26  1  0.66355822  0.66198337  0.33121906  1
  Fe  Fe27  1  0.16272370  0.16536628  0.49572465  1
  Cr  Cr28  1  0.99597270  0.99704416  0.66412435  1
  Fe  Fe29  1  0.16497299  0.16196437  0.83092189  1
  Fe  Fe30  1  0.16359507  0.49527797  0.49784449  1
  Fe  Fe31  1  0.99535692  0.33135006  0.66297627  1
  Cr  Cr32  1  0.16404278  0.49977785  0.82869374  1
  Cr  Cr33  1  0.16506798  0.83071567  0.49717271  1
  Fe  Fe34  1  0.99548621  0.66299007  0.66345478  1
  Fe  Fe35  1  0.16529937  0.83252616  0.83046833  1
  Cr  Cr36  1  0.49755939  0.16466291  0.49770999  1
  Fe  Fe37  1  0.33057650  0.99616811  0.66532644  1
  Fe  Fe38  1  0.49647254  0.16329082  0.83063611  1
  Fe  Fe39  1  0.49860077  0.49868883  0.49765959  1
  Cr  Cr40  1  0.33017923  0.33077517  0.66418631  1
  Fe  Fe41  1  0.50023576  0.49830442  0.83033313  1
  Fe  Fe42  1  0.49788654  0.82837404  0.49777662  1
  Fe  Fe43  1  0.33249478  0.66604733  0.66356626  1
  Fe  Fe44  1  0.49674290  0.82976011  0.83126757  1
  Fe  Fe45  1  0.83243859  0.16587370  0.49693296  1
  Cr  Cr46  1  0.66323350  0.99537606  0.66343604  1
  Cr  Cr47  1  0.82795778  0.16537090  0.83170691  1
  Fe  Fe48  1  0.82950809  0.49635074  0.49822500  1
  Fe  Fe49  1  0.66522675  0.33258042  0.66383457  1
  Fe  Fe50  1  0.82780175  0.49872353  0.82916179  1
  Fe  Fe51  1  0.82913840  0.82906930  0.49719424  1
  Fe  Fe52  1  0.66388506  0.66236537  0.66389430  1
  Fe  Fe53  1  0.82953089  0.82883515  0.83117957  1
" 