376,Fe33Cr67_2,-219.85866684768, 152.393420970328,Fe33Cr67,"# generated using pymatgen
 data_Cr17Fe37
_symmetry_space_group_name_H-M   'P 1'
_cell_length_a   7.49673415
_cell_length_b   7.49673415
_cell_length_c   10.60198310
_cell_angle_alpha   90.00000000
_cell_angle_beta   90.00000000
_cell_angle_gamma   90.00000000
_symmetry_Int_Tables_number   1
_chemical_formula_structural   Cr17Fe37
_chemical_formula_sum   'Cr17 Fe37'
_cell_volume   595.84229478
_cell_formula_units_Z   1
loop_
 _symmetry_equiv_pos_site_id
 _symmetry_equiv_pos_as_xyz
  1  'x, y, z'
loop_
 _atom_site_type_symbol
 _atom_site_label
 _atom_site_symmetry_multiplicity
 _atom_site_fract_x
 _atom_site_fract_y
 _atom_site_fract_z
 _atom_site_occupancy
  Fe  Fe0  1  0.99560320  0.99774436  0.99800496  1
  Fe  Fe1  1  0.16184707  0.16481121  0.16392135  1
  Fe  Fe2  1  0.99558962  0.99750985  0.32943346  1
  Fe  Fe3  1  0.99631257  0.33058853  0.99779084  1
  Cr  Cr4  1  0.16381178  0.49839998  0.16181327  1
  Fe  Fe5  1  -0.00138747  0.33214637  0.33076281  1
  Fe  Fe6  1  0.99717788  0.66606672  0.99671497  1
  Fe  Fe7  1  0.16086450  0.83218490  0.16399112  1
  Fe  Fe8  1  0.99696902  0.66429835  0.33096440  1
  Cr  Cr9  1  0.32905886  0.99727876  0.99664211  1
  Cr  Cr10  1  0.50042719  0.16657044  0.16459455  1
  Cr  Cr11  1  0.32788538  -0.00022904  0.33092364  1
  Fe  Fe12  1  0.33111831  0.33156761  -0.00196966  1
  Fe  Fe13  1  0.49997202  0.49690257  0.16239190  1
  Fe  Fe14  1  0.33077111  0.33254172  0.33179975  1
  Fe  Fe15  1  0.33021102  0.66434466  0.99736209  1
  Cr  Cr16  1  0.49989632  0.83025990  0.16328479  1
  Cr  Cr17  1  0.33218426  0.66332743  0.32967733  1
  Fe  Fe18  1  0.66748391  -0.00167151  0.99654388  1
  Fe  Fe19  1  0.83352821  0.16489402  0.16494414  1
  Fe  Fe20  1  0.66705627  0.99756583  0.33041821  1
  Fe  Fe21  1  0.66668879  0.33088086  0.99767749  1
  Fe  Fe22  1  0.82999538  0.49712226  0.16360697  1
  Fe  Fe23  1  0.66501310  0.33166762  0.33108480  1
  Fe  Fe24  1  0.66681185  0.66499441  -0.00170775  1
  Fe  Fe25  1  0.83366569  0.83160919  0.16408894  1
  Cr  Cr26  1  0.66642867  0.66096707  0.33365999  1
  Fe  Fe27  1  0.16442628  0.16759887  0.49859418  1
  Cr  Cr28  1  -0.00187544  -0.00163160  0.66534131  1
  Cr  Cr29  1  0.16350744  0.16803625  0.82928482  1
  Fe  Fe30  1  0.16410541  0.49380858  0.49700064  1
  Fe  Fe31  1  -0.00077000  0.33326360  0.66421055  1
  Fe  Fe32  1  0.16280470  0.49868516  0.83353981  1
  Cr  Cr33  1  0.16301098  0.83050637  0.49606892  1
  Cr  Cr34  1  0.99598097  0.66265975  0.66429623  1
  Fe  Fe35  1  0.16419549  0.82935852  0.83239315  1
  Cr  Cr36  1  0.49766993  0.16438598  0.49967909  1
  Fe  Fe37  1  0.33234796  -0.00075748  0.66660431  1
  Fe  Fe38  1  0.49951674  0.16351215  0.83143597  1
  Fe  Fe39  1  0.49766477  0.49631101  0.49869417  1
  Fe  Fe40  1  0.32916517  0.33180580  0.66422369  1
  Cr  Cr41  1  0.49737510  0.49905971  0.83468333  1
  Cr  Cr42  1  0.50104539  0.83223056  0.50149940  1
  Cr  Cr43  1  0.33109615  0.66456300  0.66562478  1
  Fe  Fe44  1  0.49975906  0.83310309  0.83142818  1
  Cr  Cr45  1  0.83245609  0.16434764  0.49654123  1
  Fe  Fe46  1  0.66525453  0.99620546  0.66777400  1
  Fe  Fe47  1  0.82958070  0.16504012  0.83287232  1
  Fe  Fe48  1  0.83240006  0.49816321  0.49751212  1
  Cr  Cr49  1  0.66650739  0.33286950  0.66593789  1
  Fe  Fe50  1  0.83313897  0.49760714  0.83345880  1
  Fe  Fe51  1  0.83120408  0.83139150  0.49753794  1
  Fe  Fe52  1  0.66662266  0.66551606  0.66547789  1
  Fe  Fe53  1  0.82990681  0.83109788  0.83294682  1
" 