3555,Fe33Cr67_5,-219.664124283851, 149.082217232392,Fe33Cr67,"# generated using pymatgen
 data_Cr17Fe37
_symmetry_space_group_name_H-M   'P 1'
_cell_length_a   7.50709948
_cell_length_b   7.50709948
_cell_length_c   10.61664189
_cell_angle_alpha   90.00000000
_cell_angle_beta   90.00000000
_cell_angle_gamma   90.00000000
_symmetry_Int_Tables_number   1
_chemical_formula_structural   Cr17Fe37
_chemical_formula_sum   'Cr17 Fe37'
_cell_volume   598.31723028
_cell_formula_units_Z   1
loop_
 _symmetry_equiv_pos_site_id
 _symmetry_equiv_pos_as_xyz
  1  'x, y, z'
loop_
 _atom_site_type_symbol
 _atom_site_label
 _atom_site_symmetry_multiplicity
 _atom_site_fract_x
 _atom_site_fract_y
 _atom_site_fract_z
 _atom_site_occupancy
  Fe  Fe0  1  -0.00191249  0.00008558  -0.00256530  1
  Cr  Cr1  1  0.16556906  0.16424623  0.16595386  1
  Fe  Fe2  1  0.99670591  0.99710395  0.32996231  1
  Fe  Fe3  1  -0.00251923  0.32732245  0.99698723  1
  Cr  Cr4  1  0.16391385  0.49696273  0.16483127  1
  Fe  Fe5  1  -0.00264585  0.33084057  0.33254159  1
  Cr  Cr6  1  -0.00112275  0.66946443  0.99680919  1
  Fe  Fe7  1  0.16434518  0.83171097  0.16637690  1
  Fe  Fe8  1  0.99651960  0.66346469  0.32999784  1
  Fe  Fe9  1  0.33088080  0.99706848  0.99703320  1
  Fe  Fe10  1  0.49937715  0.16314263  0.16476831  1
  Fe  Fe11  1  0.33143786  0.99685421  0.32976380  1
  Cr  Cr12  1  0.33370585  0.32938964  -0.00266056  1
  Fe  Fe13  1  0.49782649  0.49773754  0.16450539  1
  Fe  Fe14  1  0.33054873  0.33158169  0.33142450  1
  Cr  Cr15  1  0.33289179  0.66715072  0.99701135  1
  Fe  Fe16  1  0.49754172  0.83152211  0.16519496  1
  Fe  Fe17  1  0.33224801  0.66352484  0.32992778  1
  Fe  Fe18  1  0.66235712  0.99697578  -0.00201060  1
  Fe  Fe19  1  0.83118149  0.16309266  0.16393064  1
  Fe  Fe20  1  0.66364188  0.99660194  0.32812792  1
  Fe  Fe21  1  0.66390911  0.32759022  -0.00205217  1
  Cr  Cr22  1  0.83101423  0.49798138  0.16023908  1
  Cr  Cr23  1  0.66364034  0.33154044  0.33141958  1
  Fe  Fe24  1  0.66221620  0.66623510  -0.00248784  1
  Fe  Fe25  1  0.83077218  0.83327027  0.16438745  1
  Fe  Fe26  1  0.66363885  0.66472313  0.32938773  1
  Fe  Fe27  1  0.16354916  0.16232260  0.49535796  1
  Fe  Fe28  1  -0.00153894  0.99646801  0.66466143  1
  Fe  Fe29  1  0.16347410  0.16167218  0.83098964  1
  Fe  Fe30  1  0.16558603  0.49591457  0.49611249  1
  Cr  Cr31  1  -0.00260041  0.32835531  0.66184234  1
  Cr  Cr32  1  0.16400444  0.49668275  0.83158174  1
  Cr  Cr33  1  0.16436728  0.82878543  0.49824924  1
  Fe  Fe34  1  -0.00167232  0.66246856  0.66407822  1
  Fe  Fe35  1  0.16513795  0.83299056  0.82841869  1
  Cr  Cr36  1  0.49417445  0.16423092  0.49825059  1
  Fe  Fe37  1  0.32920750  -0.00099529  0.66607212  1
  Fe  Fe38  1  0.49881280  0.16348491  0.82982052  1
  Fe  Fe39  1  0.49497176  0.49846431  0.49697529  1
  Fe  Fe40  1  0.33155180  0.33113037  0.66500978  1
  Fe  Fe41  1  0.49841587  0.49712490  0.83046190  1
  Cr  Cr42  1  0.49759367  0.83310878  0.49744382  1
  Fe  Fe43  1  0.32955383  0.66282983  0.66519697  1
  Fe  Fe44  1  0.49584977  0.83204233  0.82916088  1
  Cr  Cr45  1  0.82825285  0.16157395  0.49780467  1
  Fe  Fe46  1  0.66294375  -0.00066226  0.66595395  1
  Fe  Fe47  1  0.83031916  0.16353972  0.83108522  1
  Fe  Fe48  1  0.83130922  0.49763865  0.49628580  1
  Fe  Fe49  1  0.66231407  0.33027437  0.66442053  1
  Cr  Cr50  1  0.82988069  0.49568139  0.83347008  1
  Cr  Cr51  1  0.83035157  0.82963372  0.49674527  1
  Cr  Cr52  1  0.66261924  0.66202064  0.66281652  1
  Cr  Cr53  1  0.82983728  0.83198404  0.82887857  1
" 