4625,Fe33Cr67_6,-219.855052778573, 154.273399869667,Fe33Cr67,"# generated using pymatgen
 data_Cr17Fe37
_symmetry_space_group_name_H-M   'P 1'
_cell_length_a   7.50047537
_cell_length_b   7.50047537
_cell_length_c   10.60727399
_cell_angle_alpha   90.00000000
_cell_angle_beta   90.00000000
_cell_angle_gamma   90.00000000
_symmetry_Int_Tables_number   1
_chemical_formula_structural   Cr17Fe37
_chemical_formula_sum   'Cr17 Fe37'
_cell_volume   596.73479985
_cell_formula_units_Z   1
loop_
 _symmetry_equiv_pos_site_id
 _symmetry_equiv_pos_as_xyz
  1  'x, y, z'
loop_
 _atom_site_type_symbol
 _atom_site_label
 _atom_site_symmetry_multiplicity
 _atom_site_fract_x
 _atom_site_fract_y
 _atom_site_fract_z
 _atom_site_occupancy
  Fe  Fe0  1  -0.00124004  0.99652781  -0.00114937  1
  Fe  Fe1  1  0.16794734  0.16287934  0.16333019  1
  Cr  Cr2  1  0.00129955  0.99721662  0.32893684  1
  Cr  Cr3  1  -0.00073909  0.32754705  0.99479224  1
  Cr  Cr4  1  0.16319645  0.49693636  0.16096528  1
  Cr  Cr5  1  0.99577508  0.32984388  0.33225582  1
  Fe  Fe6  1  0.99538054  0.66548183  -0.00220196  1
  Fe  Fe7  1  0.16490592  0.83184723  0.16089272  1
  Fe  Fe8  1  0.99678989  0.66420361  0.33044877  1
  Fe  Fe9  1  0.33066593  0.00114921  0.99709866  1
  Fe  Fe10  1  0.49624777  0.16741053  0.16528451  1
  Fe  Fe11  1  0.33307336  0.00056859  0.33161489  1
  Fe  Fe12  1  0.33283564  0.33017293  0.99653864  1
  Fe  Fe13  1  0.49626612  0.49727029  0.16387896  1
  Fe  Fe14  1  0.33153618  0.33123411  0.33152211  1
  Fe  Fe15  1  0.33360533  0.66347029  0.99757992  1
  Cr  Cr16  1  0.49835825  0.83627337  0.16292432  1
  Cr  Cr17  1  0.32853889  0.66751321  0.33132707  1
  Cr  Cr18  1  0.66593337  0.99704022  0.99474065  1
  Fe  Fe19  1  0.82986155  0.16306312  0.16463792  1
  Fe  Fe20  1  0.66416155  -0.00053729  0.33150451  1
  Cr  Cr21  1  0.66340400  0.33221429  -0.00128533  1
  Fe  Fe22  1  0.82993961  0.49814153  0.16376728  1
  Fe  Fe23  1  0.66167269  0.32919631  0.33080969  1
  Fe  Fe24  1  0.66437618  0.66394594  -0.00167622  1
  Fe  Fe25  1  0.83288056  0.82971561  0.16395944  1
  Cr  Cr26  1  0.66103369  0.66255815  0.33029569  1
  Fe  Fe27  1  0.16780816  0.16282508  0.49784033  1
  Cr  Cr28  1  -0.00135855  0.00049764  0.66678268  1
  Fe  Fe29  1  0.16899834  0.16445166  0.83207350  1
  Cr  Cr30  1  0.16306813  0.49835667  0.50182721  1
  Cr  Cr31  1  -0.00050642  0.32880718  0.66584079  1
  Fe  Fe32  1  0.16838117  0.49797401  0.83090989  1
  Fe  Fe33  1  0.16606172  0.83295439  0.49996797  1
  Fe  Fe34  1  0.99774594  0.66571669  0.66512465  1
  Cr  Cr35  1  0.16528154  0.83055213  0.83254972  1
  Fe  Fe36  1  0.49658882  0.16412529  0.49675515  1
  Fe  Fe37  1  0.33191710  -0.00075433  0.66464892  1
  Fe  Fe38  1  0.49476143  0.16490325  0.83139812  1
  Fe  Fe39  1  0.49690074  0.49711361  0.49844027  1
  Fe  Fe40  1  0.33284068  0.32887774  0.66560414  1
  Fe  Fe41  1  0.49560510  0.49890974  0.83091182  1
  Fe  Fe42  1  0.49522739  0.83255024  0.49840757  1
  Fe  Fe43  1  0.33370544  0.66552497  0.66462592  1
  Fe  Fe44  1  0.49741776  0.82786757  0.83220075  1
  Fe  Fe45  1  0.82967896  0.16392296  0.49681139  1
  Cr  Cr46  1  0.66256375  0.99636261  0.66716848  1
  Fe  Fe47  1  0.83130040  0.16315957  0.83193448  1
  Fe  Fe48  1  0.82891404  0.49727489  0.49847523  1
  Cr  Cr49  1  0.66438995  0.33043744  0.66375152  1
  Cr  Cr50  1  0.83143468  0.50053009  0.82902563  1
  Cr  Cr51  1  0.83071071  0.82962211  0.49875111  1
  Fe  Fe52  1  0.66142841  0.66418880  0.66383700  1
  Fe  Fe53  1  0.83109597  0.83003155  0.83121026  1
" 