8485,Fe33Cr67_9,-219.719685518299, 152.850344094217,Fe33Cr67,"# generated using pymatgen
 data_Cr17Fe37
_symmetry_space_group_name_H-M   'P 1'
_cell_length_a   7.49958005
_cell_length_b   7.49958005
_cell_length_c   10.60600782
_cell_angle_alpha   90.00000000
_cell_angle_beta   90.00000000
_cell_angle_gamma   90.00000000
_symmetry_Int_Tables_number   1
_chemical_formula_structural   Cr17Fe37
_chemical_formula_sum   'Cr17 Fe37'
_cell_volume   596.52113192
_cell_formula_units_Z   1
loop_
 _symmetry_equiv_pos_site_id
 _symmetry_equiv_pos_as_xyz
  1  'x, y, z'
loop_
 _atom_site_type_symbol
 _atom_site_label
 _atom_site_symmetry_multiplicity
 _atom_site_fract_x
 _atom_site_fract_y
 _atom_site_fract_z
 _atom_site_occupancy
  Fe  Fe0  1  0.99737912  -0.00087471  -0.00200045  1
  Fe  Fe1  1  0.16409127  0.16404771  0.16372557  1
  Fe  Fe2  1  -0.00178391  -0.00062050  0.33102939  1
  Fe  Fe3  1  0.99508799  0.32875972  -0.00094897  1
  Cr  Cr4  1  0.16728121  0.49589614  0.16342614  1
  Fe  Fe5  1  0.99745913  0.33027044  0.33029887  1
  Cr  Cr6  1  0.99709560  0.66395538  -0.00199125  1
  Cr  Cr7  1  0.16537552  0.83126949  0.16421298  1
  Fe  Fe8  1  -0.00214584  0.66353417  0.33105167  1
  Fe  Fe9  1  0.33107672  0.99760284  -0.00213473  1
  Fe  Fe10  1  0.49719600  0.16563852  0.16475170  1
  Cr  Cr11  1  0.33162154  -0.00199872  0.33275006  1
  Fe  Fe12  1  0.33425956  0.32988132  -0.00144913  1
  Fe  Fe13  1  0.49971075  0.49842818  0.16455706  1
  Fe  Fe14  1  0.33284811  0.33109236  0.33143650  1
  Fe  Fe15  1  0.33503963  0.66559948  0.99713883  1
  Fe  Fe16  1  0.49709300  0.82968308  0.16465909  1
  Fe  Fe17  1  0.33307966  0.66351393  0.33189835  1
  Cr  Cr18  1  0.66436717  -0.00059110  0.99778829  1
  Fe  Fe19  1  0.83209090  0.16678844  0.16562223  1
  Fe  Fe20  1  0.66341900  -0.00072917  0.33064520  1
  Fe  Fe21  1  0.66449177  0.33281203  -0.00158724  1
  Fe  Fe22  1  0.82966555  0.49650958  0.16501158  1
  Fe  Fe23  1  0.66358116  0.33147328  0.33058826  1
  Fe  Fe24  1  0.66266676  0.66362540  -0.00187799  1
  Cr  Cr25  1  0.82863023  0.83275684  0.16642067  1
  Fe  Fe26  1  0.66251890  0.66291526  0.33116317  1
  Fe  Fe27  1  0.16275108  0.16346546  0.49701042  1
  Fe  Fe28  1  -0.00138603  0.99705560  0.66526253  1
  Cr  Cr29  1  0.16484228  0.16501156  0.83173676  1
  Cr  Cr30  1  0.16465690  0.49688255  0.49777340  1
  Fe  Fe31  1  -0.00180336  0.33004011  0.66388118  1
  Cr  Cr32  1  0.16648577  0.49628125  0.83188221  1
  Fe  Fe33  1  0.16240394  0.83146129  0.49649800  1
  Fe  Fe34  1  0.99678001  0.66603376  0.66471251  1
  Fe  Fe35  1  0.16374348  0.83188020  0.83230084  1
  Fe  Fe36  1  0.49861995  0.16551656  0.49571597  1
  Cr  Cr37  1  0.33134170  0.99745230  0.66302810  1
  Fe  Fe38  1  0.49743202  0.16643689  0.83293028  1
  Fe  Fe39  1  0.50091766  0.49894156  0.49566527  1
  Cr  Cr40  1  0.33357819  0.33010384  0.66203440  1
  Fe  Fe41  1  0.49777480  0.49799384  0.83304682  1
  Fe  Fe42  1  0.49848193  0.82929272  0.49651393  1
  Cr  Cr43  1  0.33034139  0.66572232  0.66441180  1
  Fe  Fe44  1  0.49739329  0.82945435  0.83262429  1
  Cr  Cr45  1  0.83069857  0.16350795  0.49791624  1
  Cr  Cr46  1  0.66269807  -0.00139121  0.66612708  1
  Fe  Fe47  1  0.83221902  0.16448348  0.83170729  1
  Fe  Fe48  1  0.83047490  0.49812974  0.49717706  1
  Cr  Cr49  1  0.66421054  0.33142251  0.66467610  1
  Cr  Cr50  1  0.83053294  0.49820295  0.82928766  1
  Cr  Cr51  1  0.82933128  0.83097516  0.49786605  1
  Fe  Fe52  1  0.66275644  0.66509359  0.66426535  1
  Fe  Fe53  1  0.83240338  0.83218693  0.83063920  1
" 