6297,Fe33Cr67_11,-219.624210751205, 148.162457416722,Fe33Cr67,"# generated using pymatgen
 data_Cr17Fe37
_symmetry_space_group_name_H-M   'P 1'
_cell_length_a   7.49963572
_cell_length_b   7.49963572
_cell_length_c   10.60608654
_cell_angle_alpha   90.00000000
_cell_angle_beta   90.00000000
_cell_angle_gamma   90.00000000
_symmetry_Int_Tables_number   1
_chemical_formula_structural   Cr17Fe37
_chemical_formula_sum   'Cr17 Fe37'
_cell_volume   596.53441491
_cell_formula_units_Z   1
loop_
 _symmetry_equiv_pos_site_id
 _symmetry_equiv_pos_as_xyz
  1  'x, y, z'
loop_
 _atom_site_type_symbol
 _atom_site_label
 _atom_site_symmetry_multiplicity
 _atom_site_fract_x
 _atom_site_fract_y
 _atom_site_fract_z
 _atom_site_occupancy
  Fe  Fe0  1  0.99668272  0.99640498  -0.00097200  1
  Cr  Cr1  1  0.16414931  0.16600124  0.16533152  1
  Fe  Fe2  1  0.99769366  0.99661572  0.33157137  1
  Fe  Fe3  1  -0.00163773  0.33510648  -0.00132878  1
  Fe  Fe4  1  0.16368373  0.49970035  0.16563918  1
  Fe  Fe5  1  0.99600381  0.33247506  0.33171734  1
  Fe  Fe6  1  -0.00040628  0.66401102  -0.00020647  1
  Fe  Fe7  1  0.16421045  0.83112652  0.16437734  1
  Fe  Fe8  1  0.99758425  0.66473705  0.33022973  1
  Fe  Fe9  1  0.33264908  -0.00179085  -0.00013208  1
  Fe  Fe10  1  0.49790631  0.16288474  0.16551729  1
  Fe  Fe11  1  0.33048102  0.99590897  0.33159996  1
  Fe  Fe12  1  0.33068235  0.33359900  -0.00078016  1
  Fe  Fe13  1  0.49748715  0.49756953  0.16586616  1
  Cr  Cr14  1  0.33315639  0.33045819  0.33186255  1
  Fe  Fe15  1  0.33071846  0.66346862  0.00037695  1
  Fe  Fe16  1  0.49727429  0.83250072  0.16607054  1
  Fe  Fe17  1  0.33007423  0.66518861  0.32983979  1
  Fe  Fe18  1  0.66402509  0.99723644  -0.00092993  1
  Cr  Cr19  1  0.83151261  0.16585071  0.16382623  1
  Fe  Fe20  1  0.66503801  -0.00182646  0.33083615  1
  Cr  Cr21  1  0.66305001  0.32988924  -0.00200193  1
  Fe  Fe22  1  0.83324879  0.49883505  0.16627816  1
  Fe  Fe23  1  0.66620521  0.33210821  0.33124852  1
  Cr  Cr24  1  0.66665953  0.66452191  0.00001673  1
  Fe  Fe25  1  0.83273451  0.83181399  0.16606659  1
  Fe  Fe26  1  0.66523083  0.66368597  0.32864831  1
  Fe  Fe27  1  0.16235502  0.16251149  0.49514020  1
  Fe  Fe28  1  -0.00212420  -0.00079008  0.66178465  1
  Cr  Cr29  1  0.16252867  0.16739580  0.83257424  1
  Cr  Cr30  1  0.16233693  0.49573583  0.49842961  1
  Fe  Fe31  1  0.99731215  0.32818639  0.66265196  1
  Fe  Fe32  1  0.16422779  0.49956632  0.83289473  1
  Fe  Fe33  1  0.16210593  0.83036521  0.49534613  1
  Fe  Fe34  1  0.99588889  0.66557368  0.66207159  1
  Cr  Cr35  1  0.16465223  0.83236730  0.83118942  1
  Fe  Fe36  1  0.49993321  0.16440467  0.49541715  1
  Cr  Cr37  1  0.32935462  -0.00101053  0.66010197  1
  Fe  Fe38  1  0.49717327  0.16333658  0.83343821  1
  Fe  Fe39  1  0.49955703  0.49775352  0.49600608  1
  Cr  Cr40  1  0.33241793  0.33080236  0.66571645  1
  Fe  Fe41  1  0.49646977  0.49747613  0.83288726  1
  Cr  Cr42  1  0.49943833  0.82908977  0.49656860  1
  Cr  Cr43  1  0.32925449  0.66280725  0.66489982  1
  Cr  Cr44  1  0.49795270  0.82998806  0.83191277  1
  Fe  Fe45  1  0.83217015  0.16456681  0.49509906  1
  Cr  Cr46  1  0.66734800  -0.00038903  0.66634658  1
  Fe  Fe47  1  0.83209873  0.16339919  0.83359325  1
  Fe  Fe48  1  0.82917076  0.49953689  0.49651697  1
  Cr  Cr49  1  0.66379799  0.33073751  0.66363468  1
  Cr  Cr50  1  0.83318718  0.49667192  0.82826902  1
  Fe  Fe51  1  0.83294410  0.83049439  0.49663259  1
  Fe  Fe52  1  0.66411517  0.66338568  0.66268818  1
  Cr  Cr53  1  0.83091250  0.83063299  0.83029683  1
" 