3023,Fe33Cr67_15,-219.712742207681, 145.253903772009,Fe33Cr67,"# generated using pymatgen
 data_Cr17Fe37
_symmetry_space_group_name_H-M   'P 1'
_cell_length_a   7.50484527
_cell_length_b   7.50484527
_cell_length_c   10.61345397
_cell_angle_alpha   90.00000000
_cell_angle_beta   90.00000000
_cell_angle_gamma   90.00000000
_symmetry_Int_Tables_number   1
_chemical_formula_structural   Cr17Fe37
_chemical_formula_sum   'Cr17 Fe37'
_cell_volume   597.77841152
_cell_formula_units_Z   1
loop_
 _symmetry_equiv_pos_site_id
 _symmetry_equiv_pos_as_xyz
  1  'x, y, z'
loop_
 _atom_site_type_symbol
 _atom_site_label
 _atom_site_symmetry_multiplicity
 _atom_site_fract_x
 _atom_site_fract_y
 _atom_site_fract_z
 _atom_site_occupancy
  Cr  Cr0  1  -0.00114708  -0.00092957  0.99632388  1
  Cr  Cr1  1  0.16600707  0.16488777  0.16416987  1
  Fe  Fe2  1  0.99678493  -0.00135699  0.33199964  1
  Fe  Fe3  1  -0.00034650  0.33184007  0.99460776  1
  Fe  Fe4  1  0.16580224  0.49694187  0.16614648  1
  Fe  Fe5  1  -0.00183842  0.32993974  0.33178522  1
  Cr  Cr6  1  -0.00164009  0.66497300  -0.00239971  1
  Fe  Fe7  1  0.16385910  0.83155489  0.16710939  1
  Fe  Fe8  1  -0.00164046  0.66358515  0.33051603  1
  Fe  Fe9  1  0.33131028  -0.00128217  0.99451059  1
  Cr  Cr10  1  0.49749328  0.16386081  0.16020376  1
  Fe  Fe11  1  0.33322706  -0.00093868  0.33213197  1
  Fe  Fe12  1  0.32947085  0.33039132  0.99482905  1
  Fe  Fe13  1  0.49690670  0.49561079  0.16311737  1
  Fe  Fe14  1  0.33021496  0.33118464  0.33197137  1
  Cr  Cr15  1  0.33122787  0.66251385  -0.00156297  1
  Cr  Cr16  1  0.49591886  0.83275189  0.16162685  1
  Fe  Fe17  1  0.33070200  0.66272033  0.32963223  1
  Fe  Fe18  1  0.66413657  0.99737532  0.99367137  1
  Cr  Cr19  1  0.82901482  0.16566361  0.16345334  1
  Fe  Fe20  1  0.66276866  -0.00249815  0.33356106  1
  Fe  Fe21  1  0.66323983  0.33188457  0.99372386  1
  Cr  Cr22  1  0.83162509  0.49592479  0.16195069  1
  Cr  Cr23  1  0.66068303  0.32867953  0.33388106  1
  Fe  Fe24  1  0.66407722  0.66353521  0.99427265  1
  Cr  Cr25  1  0.82888598  0.83084657  0.16497090  1
  Cr  Cr26  1  0.66205555  0.66290646  0.33227608  1
  Fe  Fe27  1  0.16389761  0.16465742  0.49789252  1
  Fe  Fe28  1  0.99659643  0.00034886  0.66471941  1
  Fe  Fe29  1  0.16549868  0.16616100  0.82908238  1
  Cr  Cr30  1  0.16415088  0.49710560  0.49939442  1
  Fe  Fe31  1  0.99723853  0.32843536  0.66639547  1
  Fe  Fe32  1  0.16526157  0.49499222  0.82926410  1
  Cr  Cr33  1  0.16621270  0.83134833  0.49687207  1
  Cr  Cr34  1  0.99625648  0.66611251  0.66754563  1
  Cr  Cr35  1  0.16783579  0.83240515  0.82856133  1
  Fe  Fe36  1  0.49510839  0.16347201  0.49973512  1
  Fe  Fe37  1  0.33334615  -0.00084740  0.66379034  1
  Fe  Fe38  1  0.49696336  0.16364970  0.83067631  1
  Fe  Fe39  1  0.49469871  0.49699425  0.49968245  1
  Fe  Fe40  1  0.33217645  0.32996994  0.66532585  1
  Fe  Fe41  1  0.49648063  0.49575814  0.83029980  1
  Fe  Fe42  1  0.49772333  0.83180734  0.49807373  1
  Fe  Fe43  1  0.33259175  0.66341762  0.66547302  1
  Fe  Fe44  1  0.49934582  0.83234789  0.83108652  1
  Fe  Fe45  1  0.83225666  0.16160201  0.49863936  1
  Fe  Fe46  1  0.66456366  -0.00124841  0.66419106  1
  Fe  Fe47  1  0.82989563  0.16481520  0.83008320  1
  Cr  Cr48  1  0.83135075  0.49508598  0.49916788  1
  Fe  Fe49  1  0.66316274  0.32805526  0.66465163  1
  Fe  Fe50  1  0.83004203  0.49515479  0.83126530  1
  Fe  Fe51  1  0.83112522  0.83248228  0.49729025  1
  Cr  Cr52  1  0.66244319  0.66425139  0.66520889  1
  Fe  Fe53  1  0.82899372  0.83311518  0.83116839  1
" 