5113,Fe33Cr67_16,-219.572183185206, 148.10597835423,Fe33Cr67,"# generated using pymatgen
 data_Cr17Fe37
_symmetry_space_group_name_H-M   'P 1'
_cell_length_a   7.50888800
_cell_length_b   7.50888800
_cell_length_c   10.61917125
_cell_angle_alpha   90.00000000
_cell_angle_beta   90.00000000
_cell_angle_gamma   90.00000000
_symmetry_Int_Tables_number   1
_chemical_formula_structural   Cr17Fe37
_chemical_formula_sum   'Cr17 Fe37'
_cell_volume   598.74497065
_cell_formula_units_Z   1
loop_
 _symmetry_equiv_pos_site_id
 _symmetry_equiv_pos_as_xyz
  1  'x, y, z'
loop_
 _atom_site_type_symbol
 _atom_site_label
 _atom_site_symmetry_multiplicity
 _atom_site_fract_x
 _atom_site_fract_y
 _atom_site_fract_z
 _atom_site_occupancy
  Cr  Cr0  1  -0.00211642  0.99628630  0.99476629  1
  Cr  Cr1  1  0.16397539  0.16418542  0.16504129  1
  Cr  Cr2  1  -0.00135396  0.99488745  0.33327659  1
  Cr  Cr3  1  0.99540546  0.33112455  0.99504804  1
  Cr  Cr4  1  0.16275192  0.49547970  0.16770123  1
  Fe  Fe5  1  0.99593269  0.33102206  0.33310081  1
  Cr  Cr6  1  0.99679023  0.66486555  -0.00009121  1
  Fe  Fe7  1  0.16522931  0.83173792  0.16665618  1
  Fe  Fe8  1  0.99681027  0.66277882  0.33202046  1
  Fe  Fe9  1  0.33268187  -0.00150836  -0.00230260  1
  Fe  Fe10  1  0.49688467  0.16155153  0.16496083  1
  Fe  Fe11  1  0.33363193  0.99625343  0.33260453  1
  Cr  Cr12  1  0.33172329  0.33054567  0.99350237  1
  Fe  Fe13  1  0.49605631  0.49694917  0.16486968  1
  Fe  Fe14  1  0.33079447  0.33048217  0.33300166  1
  Cr  Cr15  1  0.32980038  0.66490423  0.00000253  1
  Fe  Fe16  1  0.49724353  0.83297545  0.16469743  1
  Fe  Fe17  1  0.32971295  0.66546652  0.33174871  1
  Fe  Fe18  1  0.66425587  0.99693803  -0.00137260  1
  Fe  Fe19  1  0.83033245  0.16171200  0.16508457  1
  Fe  Fe20  1  0.66310895  0.99605880  0.33213226  1
  Cr  Cr21  1  0.66375787  0.33073144  -0.00166048  1
  Fe  Fe22  1  0.83017849  0.49704734  0.16555010  1
  Cr  Cr23  1  0.66314517  0.32951756  0.33059108  1
  Fe  Fe24  1  0.66538723  0.66454026  0.00014272  1
  Fe  Fe25  1  0.82945761  0.83197841  0.16523591  1
  Cr  Cr26  1  0.66293780  0.66240055  0.33113316  1
  Fe  Fe27  1  0.16389567  0.16599447  0.49653737  1
  Fe  Fe28  1  0.99636845  -0.00166373  0.66220273  1
  Fe  Fe29  1  0.16380154  0.16561180  0.82808720  1
  Fe  Fe30  1  0.16350553  0.49721467  0.49663400  1
  Fe  Fe31  1  -0.00167957  0.32953043  0.66375201  1
  Fe  Fe32  1  0.16264419  0.49820089  0.82744859  1
  Fe  Fe33  1  0.16399064  0.82792055  0.49816273  1
  Fe  Fe34  1  0.99633725  0.66382377  0.66264335  1
  Cr  Cr35  1  0.16434444  0.83057485  0.83007101  1
  Fe  Fe36  1  0.49505949  0.16409113  0.49559564  1
  Cr  Cr37  1  0.32899573  0.99717194  0.66296642  1
  Fe  Fe38  1  0.49810604  0.16248326  0.82959532  1
  Fe  Fe39  1  0.49456138  0.49785221  0.49795526  1
  Fe  Fe40  1  0.32839976  0.33104383  0.66275779  1
  Cr  Cr41  1  0.49852391  0.49992438  0.82840644  1
  Fe  Fe42  1  0.49600496  0.82936975  0.49668797  1
  Fe  Fe43  1  0.33025586  0.66283664  0.66147811  1
  Cr  Cr44  1  0.50066174  0.83003176  0.83146495  1
  Fe  Fe45  1  0.83263489  0.16504079  0.49652440  1
  Cr  Cr46  1  0.66451309  -0.00237477  0.65958837  1
  Fe  Fe47  1  0.82943348  0.16252681  0.82872921  1
  Fe  Fe48  1  0.83307399  0.49755126  0.49783311  1
  Cr  Cr49  1  0.66311466  0.33142094  0.66206044  1
  Fe  Fe50  1  0.83148313  0.50040590  0.82845787  1
  Fe  Fe51  1  0.83170537  0.82842448  0.49750109  1
  Fe  Fe52  1  0.66519993  0.66492155  0.66032109  1
  Fe  Fe53  1  0.83010161  0.82871132  0.82864888  1
" 