3072,Fe35Cr65_3,-219.339051027754, 156.740734249006,Fe35Cr65,"# generated using pymatgen
 data_CrFe2
_symmetry_space_group_name_H-M   'P 1'
_cell_length_a   7.50679071
_cell_length_b   7.50679071
_cell_length_c   10.61620523
_cell_angle_alpha   90.00000000
_cell_angle_beta   90.00000000
_cell_angle_gamma   90.00000000
_symmetry_Int_Tables_number   1
_chemical_formula_structural   CrFe2
_chemical_formula_sum   'Cr18 Fe36'
_cell_volume   598.24340738
_cell_formula_units_Z   18
loop_
 _symmetry_equiv_pos_site_id
 _symmetry_equiv_pos_as_xyz
  1  'x, y, z'
loop_
 _atom_site_type_symbol
 _atom_site_label
 _atom_site_symmetry_multiplicity
 _atom_site_fract_x
 _atom_site_fract_y
 _atom_site_fract_z
 _atom_site_occupancy
  Fe  Fe0  1  -0.00169042  -0.00140396  0.99734076  1
  Fe  Fe1  1  0.16384560  0.16389845  0.16308331  1
  Cr  Cr2  1  -0.00098697  0.99673957  0.32978477  1
  Fe  Fe3  1  0.99733839  0.32961992  0.99734327  1
  Cr  Cr4  1  0.16570276  0.49668007  0.16671992  1
  Fe  Fe5  1  0.99662112  0.33223746  0.33012993  1
  Fe  Fe6  1  0.99719658  0.66384355  0.99718413  1
  Fe  Fe7  1  0.16511953  0.83062904  0.16307055  1
  Fe  Fe8  1  -0.00210936  0.66265094  0.33141093  1
  Fe  Fe9  1  0.33029057  -0.00195656  -0.00210047  1
  Fe  Fe10  1  0.49682286  0.16459387  0.16348001  1
  Cr  Cr11  1  0.33139744  -0.00235775  0.32941216  1
  Fe  Fe12  1  0.33015079  0.32904704  -0.00210084  1
  Fe  Fe13  1  0.49749446  0.49752736  0.16401361  1
  Fe  Fe14  1  0.33142056  0.33109375  0.33014544  1
  Fe  Fe15  1  0.33083232  0.66496351  -0.00154409  1
  Fe  Fe16  1  0.49555494  0.82993869  0.16219893  1
  Fe  Fe17  1  0.33013868  0.66378197  0.33014212  1
  Fe  Fe18  1  0.66345752  -0.00208437  -0.00193164  1
  Fe  Fe19  1  0.83139058  0.16584186  0.16363799  1
  Cr  Cr20  1  0.66164241  -0.00109127  0.33230783  1
  Cr  Cr21  1  0.66486135  0.33213984  -0.00103068  1
  Fe  Fe22  1  0.83070894  0.49625846  0.16402472  1
  Fe  Fe23  1  0.66401291  0.33038707  0.32941694  1
  Fe  Fe24  1  0.66403006  0.66399238  -0.00138676  1
  Cr  Cr25  1  0.83061419  0.83200656  0.16260924  1
  Cr  Cr26  1  0.66501961  0.66144902  0.33042691  1
  Cr  Cr27  1  0.16394301  0.16870093  0.49657596  1
  Cr  Cr28  1  -0.00208969  -0.00246123  0.66580579  1
  Fe  Fe29  1  0.16417522  0.16389050  0.83162441  1
  Fe  Fe30  1  0.16333110  0.49663839  0.49679301  1
  Fe  Fe31  1  0.99695249  0.33110864  0.66458574  1
  Cr  Cr32  1  0.16535228  0.49553729  0.82910963  1
  Cr  Cr33  1  0.16389009  0.82712083  0.49572067  1
  Cr  Cr34  1  0.99619951  0.66187197  0.66218852  1
  Fe  Fe35  1  0.16473579  0.83102618  0.83219743  1
  Fe  Fe36  1  0.49775530  0.16442176  0.49792509  1
  Cr  Cr37  1  0.33218614  -0.00162733  0.66455978  1
  Fe  Fe38  1  0.49737814  0.16404468  0.83066133  1
  Cr  Cr39  1  0.49462504  0.49714839  0.49829850  1
  Fe  Fe40  1  0.33038333  0.33070649  0.66401560  1
  Cr  Cr41  1  0.49601722  0.49760504  0.83052484  1
  Fe  Fe42  1  0.49850712  0.83097807  0.49864662  1
  Fe  Fe43  1  0.33109888  0.66362435  0.66346200  1
  Cr  Cr44  1  0.49859233  0.83002015  0.83079831  1
  Cr  Cr45  1  0.82922152  0.16345707  0.49732138  1
  Fe  Fe46  1  0.66360084  -0.00227680  0.66326421  1
  Fe  Fe47  1  0.83050974  0.16529683  0.83051918  1
  Fe  Fe48  1  0.83210580  0.49736952  0.49734271  1
  Fe  Fe49  1  0.66471649  0.32999051  0.66473389  1
  Fe  Fe50  1  0.83051633  0.49642092  0.83068794  1
  Fe  Fe51  1  0.82896963  0.82902047  0.49791279  1
  Fe  Fe52  1  0.66400309  0.66434604  0.66273679  1
  Cr  Cr53  1  0.82950014  0.83264816  0.83125315  1
" 