6583,Fe35Cr65_19,-219.328273824781, 155.565597803189,Fe35Cr65,"# generated using pymatgen
 data_CrFe2
_symmetry_space_group_name_H-M   'P 1'
_cell_length_a   7.50780836
_cell_length_b   7.50780836
_cell_length_c   10.61764441
_cell_angle_alpha   90.00000000
_cell_angle_beta   90.00000000
_cell_angle_gamma   90.00000000
_symmetry_Int_Tables_number   1
_chemical_formula_structural   CrFe2
_chemical_formula_sum   'Cr18 Fe36'
_cell_volume   598.48674113
_cell_formula_units_Z   18
loop_
 _symmetry_equiv_pos_site_id
 _symmetry_equiv_pos_as_xyz
  1  'x, y, z'
loop_
 _atom_site_type_symbol
 _atom_site_label
 _atom_site_symmetry_multiplicity
 _atom_site_fract_x
 _atom_site_fract_y
 _atom_site_fract_z
 _atom_site_occupancy
  Fe  Fe0  1  0.99704765  0.99646744  0.99728199  1
  Fe  Fe1  1  0.16423799  0.16425323  0.16343121  1
  Cr  Cr2  1  -0.00135777  -0.00121028  0.33198142  1
  Cr  Cr3  1  -0.00227934  0.33083559  -0.00153317  1
  Fe  Fe4  1  0.16383251  0.49657103  0.16325223  1
  Fe  Fe5  1  0.99619616  0.33032639  0.33009718  1
  Fe  Fe6  1  -0.00204166  0.66383806  0.99646496  1
  Cr  Cr7  1  0.16500599  0.83022538  0.16325994  1
  Cr  Cr8  1  0.99675628  0.66351152  0.33040070  1
  Fe  Fe9  1  0.33113412  0.99700751  -0.00229584  1
  Fe  Fe10  1  0.49727874  0.16288449  0.16382632  1
  Fe  Fe11  1  0.33129724  -0.00202440  0.33063722  1
  Fe  Fe12  1  0.33073805  0.33155265  -0.00177832  1
  Fe  Fe13  1  0.49728407  0.49753696  0.16395539  1
  Cr  Cr14  1  0.33225360  0.32927126  0.32941234  1
  Fe  Fe15  1  0.33021216  0.66329532  0.99700337  1
  Fe  Fe16  1  0.49730728  0.83143337  0.16407805  1
  Cr  Cr17  1  0.33191140  0.66501138  0.33008339  1
  Fe  Fe18  1  0.66367464  0.99699386  -0.00231239  1
  Fe  Fe19  1  0.83034305  0.16423212  0.16423610  1
  Fe  Fe20  1  0.66261607  -0.00162037  0.33020417  1
  Cr  Cr21  1  0.66257397  0.33055418  -0.00131835  1
  Fe  Fe22  1  0.83074118  0.49660085  0.16477175  1
  Fe  Fe23  1  0.66489416  0.33075772  0.33061886  1
  Cr  Cr24  1  0.66327993  0.66384101  0.99607589  1
  Cr  Cr25  1  0.82888313  0.83087378  0.16309015  1
  Fe  Fe26  1  0.66353986  0.66271925  0.33009521  1
  Fe  Fe27  1  0.16436895  0.16331412  0.49781216  1
  Cr  Cr28  1  -0.00156857  0.99703429  0.66324419  1
  Cr  Cr29  1  0.16496570  0.16557484  0.83053575  1
  Cr  Cr30  1  0.16349957  0.49566022  0.49846036  1
  Fe  Fe31  1  -0.00233491  0.33102329  0.66365311  1
  Fe  Fe32  1  0.16475032  0.49784909  0.83050476  1
  Fe  Fe33  1  0.16518072  0.83183311  0.49757226  1
  Cr  Cr34  1  -0.00250019  0.66460489  0.66563421  1
  Fe  Fe35  1  0.16474752  0.83004938  0.83155403  1
  Fe  Fe36  1  0.49727161  0.16394013  0.49741574  1
  Fe  Fe37  1  0.33101698  0.99687854  0.66351212  1
  Cr  Cr38  1  0.49656569  0.16307745  0.83061215  1
  Fe  Fe39  1  0.49861616  0.49701276  0.49769218  1
  Fe  Fe40  1  0.32998854  0.33101853  0.66343239  1
  Fe  Fe41  1  0.49607403  0.49825145  0.83019883  1
  Cr  Cr42  1  0.49752878  0.83117837  0.49688021  1
  Fe  Fe43  1  0.33143275  0.66395765  0.66463145  1
  Fe  Fe44  1  0.49690983  0.83045525  0.83008543  1
  Fe  Fe45  1  0.83022555  0.16518032  0.49701205  1
  Fe  Fe46  1  0.66326200  0.99636800  0.66396063  1
  Cr  Cr47  1  0.83032309  0.16241491  0.83090398  1
  Fe  Fe48  1  0.82929351  0.49618611  0.49688395  1
  Cr  Cr49  1  0.66322480  0.33179768  0.66313709  1
  Fe  Fe50  1  0.83102813  0.49826510  0.83020617  1
  Cr  Cr51  1  0.82871799  0.83025552  0.49693547  1
  Fe  Fe52  1  0.66326436  0.66405485  0.66488603  1
  Fe  Fe53  1  0.83020050  0.83043876  0.83103741  1
" 