1348,Fe35Cr65_13,-219.870323525954, 149.149311332385,Fe35Cr65,"# generated using pymatgen
 data_CrFe2
_symmetry_space_group_name_H-M   'P 1'
_cell_length_a   7.51630730
_cell_length_b   7.51630730
_cell_length_c   10.62966372
_cell_angle_alpha   90.00000000
_cell_angle_beta   90.00000000
_cell_angle_gamma   90.00000000
_symmetry_Int_Tables_number   1
_chemical_formula_structural   CrFe2
_chemical_formula_sum   'Cr18 Fe36'
_cell_volume   600.52152723
_cell_formula_units_Z   18
loop_
 _symmetry_equiv_pos_site_id
 _symmetry_equiv_pos_as_xyz
  1  'x, y, z'
loop_
 _atom_site_type_symbol
 _atom_site_label
 _atom_site_symmetry_multiplicity
 _atom_site_fract_x
 _atom_site_fract_y
 _atom_site_fract_z
 _atom_site_occupancy
  Cr  Cr0  1  -0.00066162  0.99423087  0.99446486  1
  Cr  Cr1  1  0.16099613  0.16197936  0.16806396  1
  Fe  Fe2  1  -0.00323004  0.99127130  0.33042389  1
  Fe  Fe3  1  0.99488638  0.33125459  0.99498612  1
  Fe  Fe4  1  0.16056857  0.49733434  0.16388423  1
  Fe  Fe5  1  0.99498059  0.33304141  0.33077735  1
  Fe  Fe6  1  0.00046697  0.66098733  0.99622575  1
  Fe  Fe7  1  0.16565981  0.82584485  0.16476503  1
  Fe  Fe8  1  -0.00291581  0.66285578  0.33082077  1
  Cr  Cr9  1  0.33304543  0.99527180  -0.00024656  1
  Fe  Fe10  1  0.49651594  0.16479369  0.16501692  1
  Fe  Fe11  1  0.32899287  0.99343861  0.32987467  1
  Cr  Cr12  1  0.32697611  0.32859880  0.99468685  1
  Cr  Cr13  1  0.49543950  0.49745442  0.16381319  1
  Fe  Fe14  1  0.32888576  0.33310638  0.33004862  1
  Fe  Fe15  1  0.32860567  0.66387184  -0.00312671  1
  Fe  Fe16  1  0.49645630  0.82980803  0.16444957  1
  Fe  Fe17  1  0.32929220  0.66537784  0.33047890  1
  Fe  Fe18  1  0.66371920  -0.00206180  0.99595487  1
  Cr  Cr19  1  0.83024846  0.16374259  0.16202313  1
  Cr  Cr20  1  0.66140337  0.99433085  0.32847098  1
  Fe  Fe21  1  0.66297048  0.32964745  0.99492803  1
  Fe  Fe22  1  0.83228764  0.49563161  0.16395021  1
  Fe  Fe23  1  0.66508136  0.33230600  0.33011259  1
  Cr  Cr24  1  0.66592026  0.66443016  -0.00135819  1
  Cr  Cr25  1  0.83390075  0.82936966  0.16238384  1
  Fe  Fe26  1  0.66508322  0.66212404  0.32970539  1
  Cr  Cr27  1  0.16078880  0.16077537  0.49396115  1
  Fe  Fe28  1  0.99630813  0.99509439  0.66598408  1
  Fe  Fe29  1  0.16266861  0.16176024  0.82983443  1
  Fe  Fe30  1  0.16163472  0.49779421  0.49530511  1
  Cr  Cr31  1  -0.00309722  0.33271029  0.66483722  1
  Fe  Fe32  1  0.16097242  0.49958790  0.83046788  1
  Fe  Fe33  1  0.16234487  0.82733193  0.49657954  1
  Fe  Fe34  1  0.99667132  0.66547422  0.66305839  1
  Fe  Fe35  1  0.16543013  0.82710908  0.82957080  1
  Cr  Cr36  1  0.49627306  0.16726081  0.49427304  1
  Cr  Cr37  1  0.33085608  0.99595556  0.66301907  1
  Fe  Fe38  1  0.49834687  0.16233749  0.82983942  1
  Cr  Cr39  1  0.49590439  0.50241357  0.49823900  1
  Cr  Cr40  1  0.32703917  0.32979726  0.66372942  1
  Cr  Cr41  1  0.49453244  0.50030072  0.82786480  1
  Fe  Fe42  1  0.49702601  0.83190712  0.49690594  1
  Fe  Fe43  1  0.32633415  0.66476470  0.66301089  1
  Fe  Fe44  1  0.49806379  0.83153034  0.83026201  1
  Cr  Cr45  1  0.83243992  0.15884393  0.49627526  1
  Fe  Fe46  1  0.66480338  0.99593684  0.66355286  1
  Fe  Fe47  1  0.82942970  0.16298425  0.83064266  1
  Fe  Fe48  1  0.83112805  0.49764433  0.49588800  1
  Cr  Cr49  1  0.66498550  0.33187396  0.66340323  1
  Fe  Fe50  1  0.83065062  0.49924344  0.83100422  1
  Fe  Fe51  1  0.83030316  0.82644282  0.49685760  1
  Fe  Fe52  1  0.66548837  0.66736577  0.66355862  1
  Fe  Fe53  1  0.83014794  0.82876751  0.82954693  1
" 