4425,Fe35Cr65_4,-219.5002106376, 151.100971630833,Fe35Cr65,"# generated using pymatgen
 data_CrFe2
_symmetry_space_group_name_H-M   'P 1'
_cell_length_a   7.50907395
_cell_length_b   7.50907395
_cell_length_c   10.61943422
_cell_angle_alpha   90.00000000
_cell_angle_beta   90.00000000
_cell_angle_gamma   90.00000000
_symmetry_Int_Tables_number   1
_chemical_formula_structural   CrFe2
_chemical_formula_sum   'Cr18 Fe36'
_cell_volume   598.78945249
_cell_formula_units_Z   18
loop_
 _symmetry_equiv_pos_site_id
 _symmetry_equiv_pos_as_xyz
  1  'x, y, z'
loop_
 _atom_site_type_symbol
 _atom_site_label
 _atom_site_symmetry_multiplicity
 _atom_site_fract_x
 _atom_site_fract_y
 _atom_site_fract_z
 _atom_site_occupancy
  Fe  Fe0  1  -0.00163660  -0.00134574  0.99634895  1
  Fe  Fe1  1  0.16309276  0.16138369  0.16504026  1
  Fe  Fe2  1  -0.00272736  0.99655960  0.33280657  1
  Cr  Cr3  1  -0.00119239  0.32834256  0.99398930  1
  Cr  Cr4  1  0.16432089  0.49942373  0.16449626  1
  Cr  Cr5  1  -0.00042137  0.32875806  0.33182097  1
  Fe  Fe6  1  -0.00059864  0.66314419  0.99511532  1
  Cr  Cr7  1  0.16199269  0.83057684  0.16322387  1
  Fe  Fe8  1  -0.00170371  0.66477462  0.33365550  1
  Fe  Fe9  1  0.33101886  0.99598326  0.99703634  1
  Fe  Fe10  1  0.49715019  0.16184436  0.16583356  1
  Fe  Fe11  1  0.32951353  -0.00234682  0.32995399  1
  Cr  Cr12  1  0.32821351  0.32952946  -0.00015864  1
  Fe  Fe13  1  0.49652175  0.49807997  0.16570378  1
  Fe  Fe14  1  0.33142540  0.32980992  0.32923698  1
  Fe  Fe15  1  0.32969015  0.66544052  0.99580271  1
  Fe  Fe16  1  0.49546467  0.83201800  0.16445130  1
  Fe  Fe17  1  0.32904195  0.66436621  0.33140945  1
  Fe  Fe18  1  0.66293693  -0.00091840  -0.00233403  1
  Fe  Fe19  1  0.83150909  0.16251475  0.16475865  1
  Fe  Fe20  1  0.66479358  -0.00029757  0.33060120  1
  Cr  Cr21  1  0.66487966  0.33033729  -0.00158848  1
  Cr  Cr22  1  0.83246685  0.49834673  0.16300126  1
  Fe  Fe23  1  0.66443497  0.32899772  0.32870630  1
  Cr  Cr24  1  0.66113456  0.66733554  0.99674039  1
  Cr  Cr25  1  0.83343645  0.83310054  0.16406141  1
  Cr  Cr26  1  0.66337735  0.66676941  0.33128712  1
  Fe  Fe27  1  0.16319448  0.16142657  0.49723640  1
  Fe  Fe28  1  -0.00021877  -0.00197496  0.66307668  1
  Fe  Fe29  1  0.16210035  0.16053868  0.82946595  1
  Fe  Fe30  1  0.16303191  0.49916879  0.49695004  1
  Fe  Fe31  1  0.99469220  0.33010732  0.66365560  1
  Fe  Fe32  1  0.16198652  0.50002550  0.82976541  1
  Fe  Fe33  1  0.16259210  0.83072683  0.49688099  1
  Fe  Fe34  1  -0.00183933  0.66344967  0.66300343  1
  Fe  Fe35  1  0.16644604  0.83072731  0.83085183  1
  Cr  Cr36  1  0.49716917  0.16497126  0.49701668  1
  Fe  Fe37  1  0.32636243  0.99535783  0.66442571  1
  Cr  Cr38  1  0.49682888  0.16335299  0.82861269  1
  Cr  Cr39  1  0.49704683  0.49484923  0.49709972  1
  Cr  Cr40  1  0.32439703  0.32968275  0.66314359  1
  Cr  Cr41  1  0.49664991  0.49603582  0.82834966  1
  Cr  Cr42  1  0.49506695  0.83154947  0.49958733  1
  Fe  Fe43  1  0.32793633  0.66595817  0.66435159  1
  Fe  Fe44  1  0.49444416  0.83056750  0.82978280  1
  Fe  Fe45  1  0.83123257  0.16353252  0.49763941  1
  Cr  Cr46  1  0.66504695  0.99394636  0.66417121  1
  Fe  Fe47  1  0.83201051  0.16404339  0.82890896  1
  Fe  Fe48  1  0.83154905  0.49710590  0.49824258  1
  Fe  Fe49  1  0.66776225  0.33085787  0.66369156  1
  Fe  Fe50  1  0.83203891  0.49670286  0.82857688  1
  Fe  Fe51  1  0.83304586  0.83070681  0.49730572  1
  Fe  Fe52  1  0.66601995  0.66217378  0.66376103  1
  Cr  Cr53  1  0.83415907  0.83076931  0.83233424  1
" 