7204,Fe35Cr65_18,-219.290097750636, 152.200164759712,Fe35Cr65,"# generated using pymatgen
 data_CrFe2
_symmetry_space_group_name_H-M   'P 1'
_cell_length_a   7.50445501
_cell_length_b   7.50445501
_cell_length_c   10.61290206
_cell_angle_alpha   90.00000000
_cell_angle_beta   90.00000000
_cell_angle_gamma   90.00000000
_symmetry_Int_Tables_number   1
_chemical_formula_structural   CrFe2
_chemical_formula_sum   'Cr18 Fe36'
_cell_volume   597.68516042
_cell_formula_units_Z   18
loop_
 _symmetry_equiv_pos_site_id
 _symmetry_equiv_pos_as_xyz
  1  'x, y, z'
loop_
 _atom_site_type_symbol
 _atom_site_label
 _atom_site_symmetry_multiplicity
 _atom_site_fract_x
 _atom_site_fract_y
 _atom_site_fract_z
 _atom_site_occupancy
  Cr  Cr0  1  0.99257175  -0.00176068  0.99716985  1
  Cr  Cr1  1  0.16546787  0.16192150  0.16304474  1
  Fe  Fe2  1  0.99669568  -0.00221023  0.33191487  1
  Fe  Fe3  1  0.99731526  0.33060109  0.99602826  1
  Fe  Fe4  1  0.16402939  0.49539735  0.16393669  1
  Cr  Cr5  1  -0.00076416  0.33032055  0.33275455  1
  Cr  Cr6  1  0.99724566  0.66265172  -0.00166937  1
  Cr  Cr7  1  0.16451021  0.83238879  0.16624205  1
  Fe  Fe8  1  0.99524011  0.66534092  0.33140864  1
  Cr  Cr9  1  0.33506826  -0.00207908  0.99709997  1
  Fe  Fe10  1  0.49943571  0.16501166  0.16489721  1
  Fe  Fe11  1  0.33281019  -0.00101874  0.33217680  1
  Fe  Fe12  1  0.33095210  0.33044562  0.99551807  1
  Cr  Cr13  1  0.50156310  0.49412099  0.16391847  1
  Cr  Cr14  1  0.33016506  0.33100854  0.33340007  1
  Cr  Cr15  1  0.33108554  0.66104564  0.99644148  1
  Fe  Fe16  1  0.49794348  0.83068504  0.16560141  1
  Cr  Cr17  1  0.33137243  0.66147423  0.33157373  1
  Cr  Cr18  1  0.66521622  -0.00221444  0.99732748  1
  Fe  Fe19  1  0.82965057  0.16576606  0.16496193  1
  Cr  Cr20  1  0.66591866  0.99682652  0.32940347  1
  Fe  Fe21  1  0.66453945  0.32952965  0.99484484  1
  Cr  Cr22  1  0.82839078  0.49533054  0.16494892  1
  Fe  Fe23  1  0.66320754  0.32879430  0.33259505  1
  Cr  Cr24  1  0.66443036  0.66867415  0.99588941  1
  Fe  Fe25  1  0.83075106  0.83030329  0.16637841  1
  Fe  Fe26  1  0.66460112  0.66464623  0.33175065  1
  Fe  Fe27  1  0.16281219  0.16351477  0.49872777  1
  Fe  Fe28  1  0.99566021  0.00017595  0.66430340  1
  Fe  Fe29  1  0.16340734  0.16657645  0.83052805  1
  Fe  Fe30  1  0.16212984  0.49969324  0.49970126  1
  Fe  Fe31  1  0.99573782  0.33012435  0.66422710  1
  Fe  Fe32  1  0.16284026  0.49547007  0.82954240  1
  Cr  Cr33  1  0.16462576  0.83450114  0.49795477  1
  Fe  Fe34  1  0.99687237  0.66263021  0.66455159  1
  Cr  Cr35  1  0.16516272  0.83391581  0.82925509  1
  Fe  Fe36  1  0.49903662  0.16281441  0.49834394  1
  Fe  Fe37  1  0.33332115  -0.00105771  0.66406972  1
  Fe  Fe38  1  0.49814243  0.16528062  0.82907433  1
  Fe  Fe39  1  0.49788813  0.49887595  0.49863092  1
  Cr  Cr40  1  0.32866641  0.33250254  0.66182749  1
  Fe  Fe41  1  0.49855982  0.49625986  0.82955375  1
  Fe  Fe42  1  0.49986347  0.83059932  0.49901580  1
  Fe  Fe43  1  0.33259615  0.66446273  0.66372259  1
  Fe  Fe44  1  0.49894242  0.83125927  0.82737632  1
  Fe  Fe45  1  0.83086146  0.16166778  0.49917608  1
  Fe  Fe46  1  0.66395080  -0.00193144  0.66417501  1
  Fe  Fe47  1  0.83063067  0.16580717  0.82857226  1
  Cr  Cr48  1  0.82628252  0.49663021  0.49783652  1
  Fe  Fe49  1  0.66406992  0.32968535  0.66515692  1
  Fe  Fe50  1  0.83075210  0.49614890  0.82905091  1
  Fe  Fe51  1  0.83000980  0.83148051  0.49877726  1
  Fe  Fe52  1  0.66296625  0.66448515  0.66543027  1
  Fe  Fe53  1  0.83021128  0.83083946  0.82727409  1
" 