3665,Fe35Cr65_1,-219.768284955266, 150.289403295943,Fe35Cr65,"# generated using pymatgen
 data_CrFe2
_symmetry_space_group_name_H-M   'P 1'
_cell_length_a   7.51710866
_cell_length_b   7.51710866
_cell_length_c   10.63079701
_cell_angle_alpha   90.00000000
_cell_angle_beta   90.00000000
_cell_angle_gamma   90.00000000
_symmetry_Int_Tables_number   1
_chemical_formula_structural   CrFe2
_chemical_formula_sum   'Cr18 Fe36'
_cell_volume   600.71362331
_cell_formula_units_Z   18
loop_
 _symmetry_equiv_pos_site_id
 _symmetry_equiv_pos_as_xyz
  1  'x, y, z'
loop_
 _atom_site_type_symbol
 _atom_site_label
 _atom_site_symmetry_multiplicity
 _atom_site_fract_x
 _atom_site_fract_y
 _atom_site_fract_z
 _atom_site_occupancy
  Fe  Fe0  1  -0.00331271  -0.00140178  -0.00286223  1
  Fe  Fe1  1  0.16127352  0.16247672  0.16445448  1
  Fe  Fe2  1  -0.00227355  -0.00233658  0.33049680  1
  Fe  Fe3  1  0.99588364  0.32743178  0.99509074  1
  Cr  Cr4  1  0.16446409  0.49774574  0.16333725  1
  Fe  Fe5  1  0.99627105  0.32830841  0.33110840  1
  Cr  Cr6  1  -0.00254724  0.66315869  0.99538155  1
  Fe  Fe7  1  0.16377659  0.83211320  0.16371974  1
  Cr  Cr8  1  0.99563242  0.66426792  0.33178969  1
  Cr  Cr9  1  0.33112564  -0.00257147  0.99466226  1
  Cr  Cr10  1  0.49765860  0.16452082  0.16362434  1
  Fe  Fe11  1  0.32834311  0.99525890  0.32981864  1
  Cr  Cr12  1  0.32866733  0.32954438  0.99625188  1
  Fe  Fe13  1  0.49600051  0.49694339  0.16399186  1
  Fe  Fe14  1  0.32981956  0.33080488  0.33071343  1
  Fe  Fe15  1  0.33022414  0.66468603  0.99650538  1
  Fe  Fe16  1  0.49404053  0.82916970  0.16341275  1
  Fe  Fe17  1  0.33052019  0.66435397  0.33070688  1
  Fe  Fe18  1  0.66458539  -0.00159416  -0.00309758  1
  Fe  Fe19  1  0.83260115  0.16276107  0.16265958  1
  Cr  Cr20  1  0.66411351  0.99537886  0.32824875  1
  Fe  Fe21  1  0.66441764  0.32822957  0.99571953  1
  Cr  Cr22  1  0.83026806  0.49438797  0.16213209  1
  Fe  Fe23  1  0.66413108  0.33050335  0.33086516  1
  Cr  Cr24  1  0.66251396  0.66547130  -0.00046877  1
  Fe  Fe25  1  0.83197244  0.83251861  0.16246719  1
  Cr  Cr26  1  0.66276612  0.66375298  0.33018849  1
  Fe  Fe27  1  0.16290806  0.16305987  0.49459508  1
  Cr  Cr28  1  -0.00253620  -0.00271781  0.66151106  1
  Fe  Fe29  1  0.16187281  0.16217884  0.83035810  1
  Fe  Fe30  1  0.16535058  0.49604324  0.49532503  1
  Cr  Cr31  1  -0.00222294  0.33095494  0.66429584  1
  Fe  Fe32  1  0.16306687  0.49780309  0.83072479  1
  Fe  Fe33  1  0.16590804  0.83081674  0.49612647  1
  Cr  Cr34  1  0.99582440  0.66188670  0.66228462  1
  Fe  Fe35  1  0.16551325  0.82944669  0.82917351  1
  Cr  Cr36  1  0.49618476  0.16345155  0.49763335  1
  Fe  Fe37  1  0.32857091  0.99472981  0.66435900  1
  Fe  Fe38  1  0.49848117  0.16239956  0.82988749  1
  Fe  Fe39  1  0.49615591  0.49764229  0.49733290  1
  Cr  Cr40  1  0.32887521  0.32818800  0.66442832  1
  Cr  Cr41  1  0.49723932  0.49680005  0.83016423  1
  Fe  Fe42  1  0.49469571  0.82891071  0.49717965  1
  Fe  Fe43  1  0.33006272  0.66485784  0.66267261  1
  Fe  Fe44  1  0.49548834  0.82946135  0.82950002  1
  Fe  Fe45  1  0.83053767  0.16423197  0.49565373  1
  Cr  Cr46  1  0.66128752  0.99559468  0.66440239  1
  Fe  Fe47  1  0.82924388  0.16482800  0.83123999  1
  Fe  Fe48  1  0.82825335  0.49458591  0.49648697  1
  Fe  Fe49  1  0.66509321  0.33092280  0.66329234  1
  Fe  Fe50  1  0.82918848  0.49502242  0.83093639  1
  Fe  Fe51  1  0.82907225  0.83085507  0.49724219  1
  Fe  Fe52  1  0.66240594  0.66173891  0.66196197  1
  Cr  Cr53  1  0.83073242  0.83061296  0.83050406  1
" 