468,Fe35Cr65_16,-219.417352320345, 150.831364021391,Fe35Cr65,"# generated using pymatgen
 data_CrFe2
_symmetry_space_group_name_H-M   'P 1'
_cell_length_a   7.50485610
_cell_length_b   7.50485610
_cell_length_c   10.61346929
_cell_angle_alpha   90.00000000
_cell_angle_beta   90.00000000
_cell_angle_gamma   90.00000000
_symmetry_Int_Tables_number   1
_chemical_formula_structural   CrFe2
_chemical_formula_sum   'Cr18 Fe36'
_cell_volume   597.78099925
_cell_formula_units_Z   18
loop_
 _symmetry_equiv_pos_site_id
 _symmetry_equiv_pos_as_xyz
  1  'x, y, z'
loop_
 _atom_site_type_symbol
 _atom_site_label
 _atom_site_symmetry_multiplicity
 _atom_site_fract_x
 _atom_site_fract_y
 _atom_site_fract_z
 _atom_site_occupancy
  Fe  Fe0  1  0.99731305  0.99709014  -0.00125080  1
  Fe  Fe1  1  0.16483550  0.16203670  0.16397612  1
  Fe  Fe2  1  -0.00151305  0.99617496  0.33008054  1
  Fe  Fe3  1  0.99535881  0.33252843  -0.00217060  1
  Cr  Cr4  1  0.16412059  0.49882833  0.16435662  1
  Cr  Cr5  1  0.99718366  0.32910250  0.33091842  1
  Fe  Fe6  1  0.99564172  0.66309890  -0.00210380  1
  Fe  Fe7  1  0.16377398  0.83287734  0.16394857  1
  Fe  Fe8  1  -0.00065474  0.66559792  0.32997608  1
  Fe  Fe9  1  0.33214977  0.99734231  -0.00027140  1
  Fe  Fe10  1  0.49612380  0.16364932  0.16474015  1
  Fe  Fe11  1  0.33056707  -0.00187223  0.33060006  1
  Cr  Cr12  1  0.33141223  0.33053189  -0.00146746  1
  Fe  Fe13  1  0.49919606  0.49605814  0.16437616  1
  Fe  Fe14  1  0.33297663  0.33049399  0.33047073  1
  Cr  Cr15  1  0.33406405  0.66538340  0.99597195  1
  Fe  Fe16  1  0.49709590  0.83248925  0.16446929  1
  Fe  Fe17  1  0.33008526  0.66445314  0.33092131  1
  Fe  Fe18  1  0.66221221  0.99617959  -0.00164208  1
  Cr  Cr19  1  0.82872735  0.16407264  0.16216947  1
  Fe  Fe20  1  0.66258747  -0.00100620  0.32933454  1
  Fe  Fe21  1  0.66463524  0.33288393  0.99727581  1
  Fe  Fe22  1  0.83013340  0.49805164  0.16312311  1
  Fe  Fe23  1  0.66124938  0.32936283  0.32980166  1
  Fe  Fe24  1  0.66532404  0.66300932  -0.00099545  1
  Fe  Fe25  1  0.83216915  0.83000097  0.16315551  1
  Cr  Cr26  1  0.66351263  0.66289138  0.32768876  1
  Fe  Fe27  1  0.16617970  0.16485458  0.49645219  1
  Cr  Cr28  1  0.99699990  0.00004096  0.66220488  1
  Cr  Cr29  1  0.16317490  0.16665837  0.83397841  1
  Fe  Fe30  1  0.16677880  0.49686033  0.49576046  1
  Fe  Fe31  1  -0.00085985  0.33192102  0.66440145  1
  Fe  Fe32  1  0.16263559  0.49668517  0.83171591  1
  Fe  Fe33  1  0.16458073  0.83070015  0.49495413  1
  Cr  Cr34  1  -0.00183375  0.66303798  0.66214310  1
  Cr  Cr35  1  0.16467040  0.83020122  0.83382289  1
  Fe  Fe36  1  0.49649532  0.16626731  0.49721651  1
  Cr  Cr37  1  0.33047721  -0.00213436  0.66480154  1
  Cr  Cr38  1  0.49876280  0.16355948  0.83076193  1
  Fe  Fe39  1  0.49714180  0.49500251  0.49695689  1
  Fe  Fe40  1  0.32997507  0.33136788  0.66332383  1
  Fe  Fe41  1  0.50013768  0.49747437  0.83060345  1
  Cr  Cr42  1  0.49773006  0.83143931  0.49986178  1
  Cr  Cr43  1  0.33242500  0.66192338  0.66537755  1
  Fe  Fe44  1  0.49926136  0.83047821  0.83118272  1
  Cr  Cr45  1  0.82779314  0.16387589  0.49998349  1
  Fe  Fe46  1  0.66341857  -0.00237205  0.66507124  1
  Fe  Fe47  1  0.83055807  0.16575194  0.83192695  1
  Cr  Cr48  1  0.83075147  0.49727102  0.49652109  1
  Fe  Fe49  1  0.66312944  0.33239980  0.66515816  1
  Fe  Fe50  1  0.83063448  0.49512400  0.83111951  1
  Cr  Cr51  1  0.83035929  0.83147039  0.49564997  1
  Fe  Fe52  1  0.66386157  0.66238537  0.66504448  1
  Cr  Cr53  1  0.82845760  0.83042274  0.83052974  1
" 