7864,Fe35Cr65_8,-219.601061886871, 152.794498137105,Fe35Cr65,"# generated using pymatgen
 data_CrFe2
_symmetry_space_group_name_H-M   'P 1'
_cell_length_a   7.50287914
_cell_length_b   7.50287914
_cell_length_c   10.61067343
_cell_angle_alpha   90.00000000
_cell_angle_beta   90.00000000
_cell_angle_gamma   90.00000000
_symmetry_Int_Tables_number   1
_chemical_formula_structural   CrFe2
_chemical_formula_sum   'Cr18 Fe36'
_cell_volume   597.30871261
_cell_formula_units_Z   18
loop_
 _symmetry_equiv_pos_site_id
 _symmetry_equiv_pos_as_xyz
  1  'x, y, z'
loop_
 _atom_site_type_symbol
 _atom_site_label
 _atom_site_symmetry_multiplicity
 _atom_site_fract_x
 _atom_site_fract_y
 _atom_site_fract_z
 _atom_site_occupancy
  Fe  Fe0  1  0.99660695  -0.00007260  -0.00151367  1
  Fe  Fe1  1  0.16366427  0.16646081  0.16318204  1
  Cr  Cr2  1  -0.00228972  -0.00052434  0.33061848  1
  Fe  Fe3  1  0.99725551  0.32812942  -0.00129166  1
  Fe  Fe4  1  0.16781044  0.49484507  0.16446780  1
  Fe  Fe5  1  -0.00181496  0.32967349  0.33082976  1
  Cr  Cr6  1  -0.00056424  0.66639555  0.99737660  1
  Cr  Cr7  1  0.16678332  0.83133999  0.16410168  1
  Cr  Cr8  1  0.99735558  0.66632524  0.33197133  1
  Fe  Fe9  1  0.33113531  0.99703284  0.99603639  1
  Cr  Cr10  1  0.49726980  0.16231191  0.16465868  1
  Fe  Fe11  1  0.33068769  -0.00052080  0.33234223  1
  Fe  Fe12  1  0.33104465  0.33111713  -0.00088452  1
  Fe  Fe13  1  0.49395810  0.49671175  0.16361945  1
  Fe  Fe14  1  0.32903027  0.33074202  0.33085886  1
  Fe  Fe15  1  0.33120733  0.66447706  0.99726071  1
  Cr  Cr16  1  0.49842920  0.83238033  0.16531256  1
  Fe  Fe17  1  0.33085219  0.66248682  0.33134360  1
  Fe  Fe18  1  0.66526666  -0.00035715  0.99667397  1
  Fe  Fe19  1  0.83191263  0.16228403  0.16297676  1
  Fe  Fe20  1  0.66606432  -0.00142681  0.33174034  1
  Fe  Fe21  1  0.66478701  0.32815192  0.99761180  1
  Cr  Cr22  1  0.83362981  0.49531209  0.16355641  1
  Cr  Cr23  1  0.66241768  0.33021616  0.33239393  1
  Cr  Cr24  1  0.66244003  0.66362601  -0.00157312  1
  Fe  Fe25  1  0.83027798  0.83444590  0.16339209  1
  Cr  Cr26  1  0.66412145  0.66311766  0.33127098  1
  Fe  Fe27  1  0.16539711  0.16278116  0.49867152  1
  Fe  Fe28  1  -0.00186747  0.99758734  0.66256197  1
  Cr  Cr29  1  0.16454762  0.16388397  0.83092436  1
  Cr  Cr30  1  0.16233287  0.49517533  0.49700016  1
  Fe  Fe31  1  0.99696520  0.32880070  0.66251251  1
  Cr  Cr32  1  0.16241996  0.49614515  0.83259010  1
  Fe  Fe33  1  0.16415248  0.83290858  0.49846155  1
  Fe  Fe34  1  0.99680694  0.66598082  0.66242476  1
  Fe  Fe35  1  0.16525781  0.83245774  0.83129122  1
  Fe  Fe36  1  0.49628445  0.16544701  0.49826533  1
  Fe  Fe37  1  0.33122267  -0.00074812  0.66409002  1
  Fe  Fe38  1  0.49955352  0.16296292  0.83119884  1
  Fe  Fe39  1  0.49729050  0.49628639  0.49937842  1
  Fe  Fe40  1  0.33227509  0.32850438  0.66309812  1
  Cr  Cr41  1  0.49837279  0.49607520  0.83157410  1
  Cr  Cr42  1  0.49833281  0.83403548  0.49540378  1
  Cr  Cr43  1  0.33024679  0.66573820  0.66675045  1
  Fe  Fe44  1  0.49606130  0.83407917  0.83120631  1
  Fe  Fe45  1  0.83101220  0.16417519  0.49919582  1
  Fe  Fe46  1  0.66363547  -0.00078673  0.66406511  1
  Fe  Fe47  1  0.82966248  0.16470772  0.83077444  1
  Fe  Fe48  1  0.82967458  0.49705135  0.50009937  1
  Fe  Fe49  1  0.66346598  0.32911677  0.66212423  1
  Cr  Cr50  1  0.83202673  0.49536769  0.82666990  1
  Fe  Fe51  1  0.83197314  0.83174465  0.50024004  1
  Fe  Fe52  1  0.66479324  0.66462614  0.66226796  1
  Cr  Cr53  1  0.82982046  0.83227029  0.82988210  1
" 