6089,Fe35Cr65_6,-219.484628743402, 156.479641335665,Fe35Cr65,"# generated using pymatgen
 data_CrFe2
_symmetry_space_group_name_H-M   'P 1'
_cell_length_a   7.50301637
_cell_length_b   7.50301637
_cell_length_c   10.61086751
_cell_angle_alpha   90.00000000
_cell_angle_beta   90.00000000
_cell_angle_gamma   90.00000000
_symmetry_Int_Tables_number   1
_chemical_formula_structural   CrFe2
_chemical_formula_sum   'Cr18 Fe36'
_cell_volume   597.34148896
_cell_formula_units_Z   18
loop_
 _symmetry_equiv_pos_site_id
 _symmetry_equiv_pos_as_xyz
  1  'x, y, z'
loop_
 _atom_site_type_symbol
 _atom_site_label
 _atom_site_symmetry_multiplicity
 _atom_site_fract_x
 _atom_site_fract_y
 _atom_site_fract_z
 _atom_site_occupancy
  Cr  Cr0  1  0.99520556  0.99678629  -0.00215796  1
  Cr  Cr1  1  0.16567033  0.16336977  0.16447823  1
  Cr  Cr2  1  0.99502553  0.99660795  0.33176319  1
  Fe  Fe3  1  -0.00205618  0.33266778  0.99732756  1
  Fe  Fe4  1  0.16446226  0.49713467  0.16299986  1
  Fe  Fe5  1  0.99746332  0.33303343  0.33200302  1
  Fe  Fe6  1  -0.00118391  0.66280498  -0.00065047  1
  Fe  Fe7  1  0.16727576  0.82914837  0.16297102  1
  Cr  Cr8  1  -0.00111789  0.66374771  0.32878864  1
  Fe  Fe9  1  0.33223744  0.99676275  0.99692736  1
  Cr  Cr10  1  0.49684464  0.16386049  0.16646283  1
  Fe  Fe11  1  0.33090457  0.99317178  0.33086441  1
  Fe  Fe12  1  0.33114488  0.33146591  0.99545575  1
  Cr  Cr13  1  0.49927550  0.49786573  0.16511397  1
  Fe  Fe14  1  0.32898343  0.33418251  0.33176351  1
  Fe  Fe15  1  0.32979634  0.66439797  -0.00225274  1
  Fe  Fe16  1  0.49589553  0.83124468  0.16591374  1
  Fe  Fe17  1  0.33171300  0.66512487  0.33206482  1
  Cr  Cr18  1  0.66444805  -0.00170929  -0.00208557  1
  Cr  Cr19  1  0.82992498  0.16804141  0.16663564  1
  Fe  Fe20  1  0.66367920  0.99414372  0.33139639  1
  Fe  Fe21  1  0.66389809  0.33058771  0.99647479  1
  Fe  Fe22  1  0.83240931  0.49763011  0.16355012  1
  Fe  Fe23  1  0.66655325  0.33351724  0.33256203  1
  Cr  Cr24  1  0.66368971  0.66582097  -0.00214291  1
  Fe  Fe25  1  0.82932579  0.82938664  0.16504175  1
  Fe  Fe26  1  0.66432797  0.66544966  0.33156570  1
  Cr  Cr27  1  0.16417167  0.16279100  0.49802613  1
  Cr  Cr28  1  0.99518427  -0.00110843  0.66366778  1
  Fe  Fe29  1  0.16408060  0.16666807  0.83191663  1
  Fe  Fe30  1  0.16447217  0.49662089  0.49571302  1
  Fe  Fe31  1  0.99632407  0.33127059  0.66411883  1
  Fe  Fe32  1  0.16418751  0.49680416  0.83324556  1
  Fe  Fe33  1  0.16688137  0.83018896  0.49690794  1
  Cr  Cr34  1  -0.00186626  0.66437856  0.66228595  1
  Cr  Cr35  1  0.16562778  0.83165259  0.83076848  1
  Cr  Cr36  1  0.49748055  0.16365453  0.49429692  1
  Fe  Fe37  1  0.33203653  0.99699485  0.66474407  1
  Fe  Fe38  1  0.49691259  0.16503533  0.83194123  1
  Fe  Fe39  1  0.49941266  0.49819513  0.49516990  1
  Cr  Cr40  1  0.33178057  0.33264066  0.66604852  1
  Fe  Fe41  1  0.49677471  0.49772102  0.83263398  1
  Fe  Fe42  1  0.49792167  0.82993098  0.49626144  1
  Cr  Cr43  1  0.33305878  0.66086398  0.66218652  1
  Fe  Fe44  1  0.49773648  0.83000583  0.83065506  1
  Fe  Fe45  1  0.82940131  0.16699584  0.49654445  1
  Cr  Cr46  1  0.66512459  -0.00220830  0.66618070  1
  Fe  Fe47  1  0.83142714  0.16620150  0.83144859  1
  Fe  Fe48  1  0.82941921  0.49579154  0.49749301  1
  Fe  Fe49  1  0.66520086  0.33219177  0.66365601  1
  Cr  Cr50  1  0.83005199  0.49799606  0.83083513  1
  Fe  Fe51  1  0.82795082  0.83004775  0.49666917  1
  Fe  Fe52  1  0.66363188  0.66322666  0.66355782  1
  Fe  Fe53  1  0.83038249  0.82976718  0.83075701  1
" 