3359,Fe35Cr65_0,-219.629473915914, 149.606321473712,Fe35Cr65,"# generated using pymatgen
 data_CrFe2
_symmetry_space_group_name_H-M   'P 1'
_cell_length_a   7.51128380
_cell_length_b   7.51128380
_cell_length_c   10.62255942
_cell_angle_alpha   90.00000000
_cell_angle_beta   90.00000000
_cell_angle_gamma   90.00000000
_symmetry_Int_Tables_number   1
_chemical_formula_structural   CrFe2
_chemical_formula_sum   'Cr18 Fe36'
_cell_volume   599.31826170
_cell_formula_units_Z   18
loop_
 _symmetry_equiv_pos_site_id
 _symmetry_equiv_pos_as_xyz
  1  'x, y, z'
loop_
 _atom_site_type_symbol
 _atom_site_label
 _atom_site_symmetry_multiplicity
 _atom_site_fract_x
 _atom_site_fract_y
 _atom_site_fract_z
 _atom_site_occupancy
  Fe  Fe0  1  0.99673384  -0.00273472  0.99637097  1
  Cr  Cr1  1  0.16504217  0.16478647  0.16122736  1
  Cr  Cr2  1  0.99651990  0.99640187  0.32961744  1
  Cr  Cr3  1  0.99442552  0.33182703  0.99519361  1
  Fe  Fe4  1  0.16552311  0.49862295  0.16508978  1
  Cr  Cr5  1  0.99496918  0.33055630  0.32895994  1
  Cr  Cr6  1  -0.00046482  0.66364937  -0.00101189  1
  Fe  Fe7  1  0.16690225  0.82959535  0.16352493  1
  Fe  Fe8  1  -0.00152208  0.66551074  0.33114242  1
  Fe  Fe9  1  0.32926329  0.99534595  0.99423915  1
  Cr  Cr10  1  0.49488835  0.16399399  0.16181079  1
  Cr  Cr11  1  0.33385916  0.99540164  0.33325667  1
  Fe  Fe12  1  0.33068092  0.33315169  0.99368196  1
  Cr  Cr13  1  0.49615935  0.49675974  0.16620031  1
  Fe  Fe14  1  0.33133611  0.32907480  0.33220864  1
  Fe  Fe15  1  0.33157535  0.66229404  0.99502845  1
  Cr  Cr16  1  0.49990037  0.82990439  0.16005265  1
  Fe  Fe17  1  0.33020320  0.66420563  0.33120945  1
  Fe  Fe18  1  0.66489850  -0.00080897  0.99481372  1
  Fe  Fe19  1  0.82690070  0.16413719  0.16204557  1
  Fe  Fe20  1  0.66431577  -0.00146077  0.33232893  1
  Fe  Fe21  1  0.66184668  0.33125851  0.99493513  1
  Cr  Cr22  1  0.82726752  0.49999578  0.16561865  1
  Fe  Fe23  1  0.66172399  0.32786087  0.33240233  1
  Fe  Fe24  1  0.66282916  0.66106198  0.99456216  1
  Cr  Cr25  1  0.82947545  0.83093081  0.16432068  1
  Fe  Fe26  1  0.66184004  0.66747621  0.33329737  1
  Cr  Cr27  1  0.16453426  0.16191590  0.50152108  1
  Fe  Fe28  1  0.99448440  0.99605856  0.66356074  1
  Cr  Cr29  1  0.16445029  0.16249770  0.82703783  1
  Cr  Cr30  1  0.16423582  0.49477577  0.49570308  1
  Fe  Fe31  1  0.99523160  0.33016175  0.66531432  1
  Fe  Fe32  1  0.16535388  0.49840143  0.82931810  1
  Fe  Fe33  1  0.16410231  0.82871125  0.49840555  1
  Cr  Cr34  1  -0.00214537  0.66336717  0.66410919  1
  Fe  Fe35  1  0.16485139  0.82986835  0.83005063  1
  Fe  Fe36  1  0.50085905  0.16425637  0.49832527  1
  Fe  Fe37  1  0.33335172  0.99313023  0.66332982  1
  Fe  Fe38  1  0.49935984  0.16210699  0.83102788  1
  Fe  Fe39  1  0.49703711  0.49782442  0.49563680  1
  Cr  Cr40  1  0.33550359  0.33123957  0.66381122  1
  Fe  Fe41  1  0.49852938  0.49832061  0.83058834  1
  Fe  Fe42  1  0.49844345  0.82830064  0.49906814  1
  Fe  Fe43  1  0.33232419  0.66464642  0.66408453  1
  Fe  Fe44  1  0.49477621  0.83113556  0.83106104  1
  Fe  Fe45  1  0.82967519  0.16413072  0.49899084  1
  Fe  Fe46  1  0.66184902  -0.00255543  0.66338073  1
  Fe  Fe47  1  0.82882577  0.16302726  0.82878901  1
  Cr  Cr48  1  0.82763403  0.50008252  0.49828824  1
  Fe  Fe49  1  0.66553971  0.33022826  0.66506085  1
  Fe  Fe50  1  0.82870735  0.49540726  0.82891216  1
  Fe  Fe51  1  0.82938269  0.83318706  0.49849769  1
  Fe  Fe52  1  0.65943909  0.66341910  0.66462840  1
  Cr  Cr53  1  0.82756004  0.82854469  0.83036028  1
" 