459,Fe35Cr65_9,-219.277481930834, 163.991819761829,Fe35Cr65,"# generated using pymatgen
 data_CrFe2
_symmetry_space_group_name_H-M   'P 1'
_cell_length_a   7.49333496
_cell_length_b   7.49333496
_cell_length_c   10.59717593
_cell_angle_alpha   90.00000000
_cell_angle_beta   90.00000000
_cell_angle_gamma   90.00000000
_symmetry_Int_Tables_number   1
_chemical_formula_structural   CrFe2
_chemical_formula_sum   'Cr18 Fe36'
_cell_volume   595.03215776
_cell_formula_units_Z   18
loop_
 _symmetry_equiv_pos_site_id
 _symmetry_equiv_pos_as_xyz
  1  'x, y, z'
loop_
 _atom_site_type_symbol
 _atom_site_label
 _atom_site_symmetry_multiplicity
 _atom_site_fract_x
 _atom_site_fract_y
 _atom_site_fract_z
 _atom_site_occupancy
  Fe  Fe0  1  -0.00174759  -0.00073913  -0.00174312  1
  Fe  Fe1  1  0.16491924  0.16623460  0.16492981  1
  Cr  Cr2  1  -0.00003440  -0.00133418  0.33065776  1
  Fe  Fe3  1  0.99773937  0.32975624  0.99773469  1
  Cr  Cr4  1  0.16481482  0.49797806  0.16501418  1
  Fe  Fe5  1  -0.00138276  0.33092712  0.33107190  1
  Fe  Fe6  1  0.99773595  0.66572229  0.99773442  1
  Cr  Cr7  1  0.16481753  0.83106156  0.16347691  1
  Fe  Fe8  1  0.99757652  0.66557094  0.33209497  1
  Cr  Cr9  1  0.33009009  -0.00155236  -0.00104829  1
  Fe  Fe10  1  0.49759496  0.16555987  0.16558687  1
  Fe  Fe11  1  0.33156342  -0.00175149  0.33157165  1
  Fe  Fe12  1  0.33223134  0.33092926  0.99773502  1
  Cr  Cr13  1  0.49782945  0.49757290  0.16534850  1
  Fe  Fe14  1  0.33156835  0.33026263  0.33158773  1
  Fe  Fe15  1  0.33275300  0.66506817  0.99721058  1
  Fe  Fe16  1  0.49875808  0.83077913  0.16541876  1
  Fe  Fe17  1  0.33260892  0.66622560  0.33260796  1
  Cr  Cr18  1  0.66530051  -0.00155287  -0.00136295  1
  Fe  Fe19  1  0.83222347  0.16556796  0.16455340  1
  Cr  Cr20  1  0.66430211  0.99652250  0.33096741  1
  Fe  Fe21  1  0.66476848  0.33144913  0.99707716  1
  Cr  Cr22  1  0.83209366  0.49833863  0.16477032  1
  Fe  Fe23  1  0.66455124  0.33196925  0.33120300  1
  Fe  Fe24  1  0.66424997  0.66454914  0.99760519  1
  Fe  Fe25  1  0.83107170  0.83076702  0.16425649  1
  Fe  Fe26  1  0.66455453  0.66554882  0.33223597  1
  Fe  Fe27  1  0.16528300  0.16559820  0.49772952  1
  Cr  Cr28  1  -0.00058208  -0.00133520  0.66473645  1
  Fe  Fe29  1  0.16426117  0.16529110  0.83207743  1
  Cr  Cr30  1  0.16543363  0.49883372  0.49791160  1
  Fe  Fe31  1  -0.00071142  0.33158666  0.66593295  1
  Cr  Cr32  1  0.16515621  0.49910227  0.83181252  1
  Fe  Fe33  1  0.16526124  0.83119515  0.49759646  1
  Fe  Fe34  1  -0.00073353  0.66491385  0.66490181  1
  Fe  Fe35  1  0.16542686  0.83104005  0.83224360  1
  Cr  Cr36  1  0.49773135  0.16429166  0.49794687  1
  Cr  Cr37  1  0.33062984  0.99760477  0.66487516  1
  Fe  Fe38  1  0.49825249  0.16590192  0.83141596  1
  Fe  Fe39  1  0.49735721  0.49910815  0.49706095  1
  Fe  Fe40  1  0.33104609  0.33208705  0.66541413  1
  Fe  Fe41  1  0.49836188  0.49839818  0.83275426  1
  Fe  Fe42  1  0.49789261  0.82990965  0.49774250  1
  Fe  Fe43  1  0.33157076  0.66491256  0.66491621  1
  Fe  Fe44  1  0.49707403  0.83043596  0.83157572  1
  Cr  Cr45  1  0.83085878  0.16422735  0.49977571  1
  Fe  Fe46  1  0.66439711  0.99771671  0.66542764  1
  Fe  Fe47  1  0.83222217  0.16657651  0.83192080  1
  Cr  Cr48  1  0.83303958  0.49921755  0.49710945  1
  Cr  Cr49  1  0.66469436  0.33277341  0.66727397  1
  Fe  Fe50  1  0.83161854  0.49723668  0.83260038  1
  Fe  Fe51  1  0.83158428  0.83055576  0.49839847  1
  Cr  Cr52  1  0.66363757  0.66438308  0.66405151  1
  Cr  Cr53  1  0.83196566  0.83228779  0.83178304  1
" 