4905,Fe35Cr65_12,-219.507714931049, 150.987795047278,Fe35Cr65,"# generated using pymatgen
 data_CrFe2
_symmetry_space_group_name_H-M   'P 1'
_cell_length_a   7.50755839
_cell_length_b   7.50755839
_cell_length_c   10.61729089
_cell_angle_alpha   90.00000000
_cell_angle_beta   90.00000000
_cell_angle_gamma   90.00000000
_symmetry_Int_Tables_number   1
_chemical_formula_structural   CrFe2
_chemical_formula_sum   'Cr18 Fe36'
_cell_volume   598.42696284
_cell_formula_units_Z   18
loop_
 _symmetry_equiv_pos_site_id
 _symmetry_equiv_pos_as_xyz
  1  'x, y, z'
loop_
 _atom_site_type_symbol
 _atom_site_label
 _atom_site_symmetry_multiplicity
 _atom_site_fract_x
 _atom_site_fract_y
 _atom_site_fract_z
 _atom_site_occupancy
  Fe  Fe0  1  -0.00210639  0.99694666  -0.00184553  1
  Fe  Fe1  1  0.16248045  0.16530280  0.16338523  1
  Cr  Cr2  1  0.99592190  0.99681371  0.32758847  1
  Fe  Fe3  1  0.99599073  0.33068554  -0.00252987  1
  Cr  Cr4  1  0.16392220  0.49954130  0.16529946  1
  Fe  Fe5  1  0.99699913  0.33146098  0.32957083  1
  Fe  Fe6  1  0.99693245  0.66476193  0.99667623  1
  Fe  Fe7  1  0.16409569  0.82973926  0.16295942  1
  Fe  Fe8  1  0.99663416  0.66391968  0.33002898  1
  Cr  Cr9  1  0.33009951  -0.00268679  0.99673519  1
  Cr  Cr10  1  0.49830237  0.16607216  0.16354920  1
  Cr  Cr11  1  0.33136225  0.99671418  0.32964387  1
  Cr  Cr12  1  0.32855677  0.33199943  0.99509499  1
  Cr  Cr13  1  0.49802767  0.49838023  0.16373454  1
  Fe  Fe14  1  0.32994569  0.33228965  0.33146217  1
  Fe  Fe15  1  0.33070297  0.66507874  0.99594505  1
  Fe  Fe16  1  0.49652191  0.82761315  0.16359212  1
  Fe  Fe17  1  0.33153149  0.66404988  0.33165443  1
  Cr  Cr18  1  0.66525963  0.99486020  -0.00068596  1
  Fe  Fe19  1  0.83234710  0.16734494  0.16277160  1
  Cr  Cr20  1  0.66480394  0.99437742  0.32981728  1
  Fe  Fe21  1  0.66558536  0.33228995  0.99637413  1
  Fe  Fe22  1  0.83053166  0.49719893  0.16399242  1
  Fe  Fe23  1  0.66506581  0.33187181  0.33001746  1
  Fe  Fe24  1  0.66440603  0.66281370  0.99634564  1
  Fe  Fe25  1  0.83126811  0.82671391  0.16300677  1
  Fe  Fe26  1  0.66386083  0.66373979  0.33034098  1
  Cr  Cr27  1  0.16301016  0.16327207  0.49773887  1
  Fe  Fe28  1  -0.00054130  0.99682631  0.66611997  1
  Fe  Fe29  1  0.16290469  0.16299335  0.82946767  1
  Fe  Fe30  1  0.16404601  0.49755022  0.49621946  1
  Fe  Fe31  1  0.99716580  0.33275532  0.66537544  1
  Fe  Fe32  1  0.16174690  0.49906784  0.83086318  1
  Cr  Cr33  1  0.16463550  0.82855280  0.49892478  1
  Fe  Fe34  1  -0.00196356  0.66231151  0.66647081  1
  Fe  Fe35  1  0.16288841  0.82998385  0.82967783  1
  Cr  Cr36  1  0.49785005  0.16557326  0.49769118  1
  Fe  Fe37  1  0.33020132  0.99583674  0.66635810  1
  Fe  Fe38  1  0.49750521  0.16396904  0.82993441  1
  Fe  Fe39  1  0.49637741  0.49974645  0.49636547  1
  Cr  Cr40  1  0.32910268  0.33307603  0.66476686  1
  Fe  Fe41  1  0.49906929  0.49870235  0.83094314  1
  Fe  Fe42  1  0.49697651  0.82731109  0.49776605  1
  Fe  Fe43  1  0.33199336  0.66447508  0.66530963  1
  Fe  Fe44  1  0.49709149  0.82881298  0.83024865  1
  Cr  Cr45  1  0.83091814  0.16525734  0.49812178  1
  Cr  Cr46  1  0.66316872  0.99471214  0.66306163  1
  Cr  Cr47  1  0.83038589  0.16458142  0.82943138  1
  Cr  Cr48  1  0.83034805  0.49745988  0.49732747  1
  Fe  Fe49  1  0.66327800  0.33359131  0.66552728  1
  Fe  Fe50  1  0.83073902  0.49912178  0.83052256  1
  Cr  Cr51  1  0.83240045  0.82897603  0.49952381  1
  Fe  Fe52  1  0.66212909  0.66143363  0.66563638  1
  Fe  Fe53  1  0.83183130  0.82846503  0.83038918  1
" 