7358,Fe35Cr65_17,-219.616185933624, 159.593451875385,Fe35Cr65,"# generated using pymatgen
 data_CrFe2
_symmetry_space_group_name_H-M   'P 1'
_cell_length_a   7.50199467
_cell_length_b   7.50199467
_cell_length_c   10.60942261
_cell_angle_alpha   90.00000000
_cell_angle_beta   90.00000000
_cell_angle_gamma   90.00000000
_symmetry_Int_Tables_number   1
_chemical_formula_structural   CrFe2
_chemical_formula_sum   'Cr18 Fe36'
_cell_volume   597.09749942
_cell_formula_units_Z   18
loop_
 _symmetry_equiv_pos_site_id
 _symmetry_equiv_pos_as_xyz
  1  'x, y, z'
loop_
 _atom_site_type_symbol
 _atom_site_label
 _atom_site_symmetry_multiplicity
 _atom_site_fract_x
 _atom_site_fract_y
 _atom_site_fract_z
 _atom_site_occupancy
  Fe  Fe0  1  0.99606659  0.00026685  0.99721157  1
  Cr  Cr1  1  0.16652267  0.16330092  0.16318866  1
  Fe  Fe2  1  0.99637989  0.00050794  0.33098255  1
  Fe  Fe3  1  -0.00221230  0.32988622  0.99703197  1
  Fe  Fe4  1  0.16289420  0.49575852  0.16406139  1
  Fe  Fe5  1  -0.00128721  0.33072527  0.33085925  1
  Cr  Cr6  1  -0.00028230  0.66892603  0.99739286  1
  Fe  Fe7  1  0.16368710  0.83357060  0.16377060  1
  Cr  Cr8  1  0.00005427  0.66975066  0.33167563  1
  Fe  Fe9  1  0.33194843  0.99636563  -0.00122089  1
  Fe  Fe10  1  0.49972662  0.16215734  0.16265333  1
  Fe  Fe11  1  0.33027158  0.99630437  0.32900330  1
  Cr  Cr12  1  0.33275807  0.33285089  0.99563316  1
  Fe  Fe13  1  0.49954156  0.49738809  0.16373270  1
  Cr  Cr14  1  0.33306807  0.33328325  0.33191902  1
  Cr  Cr15  1  0.33086060  0.66445725  -0.00036357  1
  Fe  Fe16  1  0.49966888  0.83299016  0.16460920  1
  Cr  Cr17  1  0.32951973  0.66467221  0.32896109  1
  Fe  Fe18  1  0.66479796  0.99632783  -0.00204291  1
  Fe  Fe19  1  0.83136987  0.16220213  0.16275209  1
  Fe  Fe20  1  0.66602031  0.99367266  0.32944940  1
  Fe  Fe21  1  0.66503204  0.32893980  0.99745684  1
  Cr  Cr22  1  0.83137105  0.49895037  0.16325166  1
  Cr  Cr23  1  0.66488949  0.32508749  0.33057031  1
  Fe  Fe24  1  0.66317241  0.66680717  -0.00190458  1
  Fe  Fe25  1  0.83046551  0.83428394  0.16408851  1
  Fe  Fe26  1  0.66383335  0.66478698  0.32990178  1
  Cr  Cr27  1  0.16442821  0.16267132  0.49930475  1
  Fe  Fe28  1  0.99493872  -0.00197924  0.66489385  1
  Fe  Fe29  1  0.16035031  0.16662284  0.83038234  1
  Fe  Fe30  1  0.16408749  0.49725389  0.49912006  1
  Fe  Fe31  1  0.99764003  0.33155728  0.66529031  1
  Fe  Fe32  1  0.16356116  0.49697947  0.83023982  1
  Fe  Fe33  1  0.16334234  0.83206351  0.49987871  1
  Fe  Fe34  1  0.99578283  0.66624906  0.66470767  1
  Cr  Cr35  1  0.16618093  0.83587635  0.83077405  1
  Cr  Cr36  1  0.49502046  0.15977951  0.49701488  1
  Fe  Fe37  1  0.33054422  0.99690098  0.66523688  1
  Cr  Cr38  1  0.49391325  0.15944119  0.83113483  1
  Fe  Fe39  1  0.49810285  0.49778207  0.49844285  1
  Fe  Fe40  1  0.32917969  0.33015220  0.66569561  1
  Fe  Fe41  1  0.49866450  0.49848681  0.83045891  1
  Cr  Cr42  1  0.49776444  0.83080551  0.49808331  1
  Cr  Cr43  1  0.32929129  0.66221245  0.66489680  1
  Fe  Fe44  1  0.50059701  0.82830126  0.83085194  1
  Fe  Fe45  1  0.83133858  0.16149358  0.49776523  1
  Fe  Fe46  1  0.66624366  0.99469119  0.66536440  1
  Fe  Fe47  1  0.83151934  0.16260992  0.83182913  1
  Cr  Cr48  1  0.83110151  0.50000200  0.49661633  1
  Cr  Cr49  1  0.66322663  0.32645602  0.66383534  1
  Cr  Cr50  1  0.83071349  0.49955384  0.83311180  1
  Fe  Fe51  1  0.83171027  0.83495394  0.49854635  1
  Fe  Fe52  1  0.66524707  0.66504027  0.66518364  1
  Fe  Fe53  1  0.82959528  0.83404623  0.83093933  1
" 