4384,Fe35Cr65_15,-219.704201406891, 150.079819137496,Fe35Cr65,"# generated using pymatgen
 data_CrFe2
_symmetry_space_group_name_H-M   'P 1'
_cell_length_a   7.51415744
_cell_length_b   7.51415744
_cell_length_c   10.62662336
_cell_angle_alpha   90.00000000
_cell_angle_beta   90.00000000
_cell_angle_gamma   90.00000000
_symmetry_Int_Tables_number   1
_chemical_formula_structural   CrFe2
_chemical_formula_sum   'Cr18 Fe36'
_cell_volume   600.00638031
_cell_formula_units_Z   18
loop_
 _symmetry_equiv_pos_site_id
 _symmetry_equiv_pos_as_xyz
  1  'x, y, z'
loop_
 _atom_site_type_symbol
 _atom_site_label
 _atom_site_symmetry_multiplicity
 _atom_site_fract_x
 _atom_site_fract_y
 _atom_site_fract_z
 _atom_site_occupancy
  Cr  Cr0  1  0.99553824  0.99587931  -0.00052401  1
  Cr  Cr1  1  0.16391887  0.16572810  0.16590986  1
  Fe  Fe2  1  -0.00085689  -0.00311675  0.33127078  1
  Cr  Cr3  1  0.99338488  0.33230426  0.99599858  1
  Fe  Fe4  1  0.15904392  0.49811976  0.16498700  1
  Fe  Fe5  1  0.99548969  0.33105609  0.33111660  1
  Fe  Fe6  1  0.99469006  0.66332350  -0.00212168  1
  Fe  Fe7  1  0.16172781  0.83008464  0.16516891  1
  Fe  Fe8  1  0.99544288  0.66315815  0.33166635  1
  Fe  Fe9  1  0.33040787  -0.00161053  -0.00181285  1
  Fe  Fe10  1  0.49927157  0.16455481  0.16405212  1
  Cr  Cr11  1  0.33256841  0.99366474  0.32992586  1
  Cr  Cr12  1  0.33023751  0.33236067  -0.00194162  1
  Fe  Fe13  1  0.49922790  0.49603911  0.16455878  1
  Fe  Fe14  1  0.33165703  0.32882111  0.33140106  1
  Cr  Cr15  1  0.32808079  0.66711775  0.00042391  1
  Fe  Fe16  1  0.49761007  0.83076378  0.16385982  1
  Cr  Cr17  1  0.32835625  0.65947089  0.32816034  1
  Fe  Fe18  1  0.66008636  0.99626853  -0.00182301  1
  Fe  Fe19  1  0.82879314  0.16655233  0.16431549  1
  Cr  Cr20  1  0.66840700  0.00043447  0.33122226  1
  Fe  Fe21  1  0.66218076  0.33058981  -0.00221778  1
  Fe  Fe22  1  0.82940044  0.49573468  0.16570134  1
  Fe  Fe23  1  0.66343871  0.33254607  0.33133243  1
  Fe  Fe24  1  0.66414380  0.66213684  -0.00174945  1
  Cr  Cr25  1  0.82906294  0.82923356  0.16656325  1
  Fe  Fe26  1  0.66348844  0.66213047  0.33086934  1
  Fe  Fe27  1  0.16312649  0.16279520  0.49456400  1
  Fe  Fe28  1  0.00054013  -0.00287594  0.66225996  1
  Fe  Fe29  1  0.16556047  0.16098376  0.82975884  1
  Fe  Fe30  1  0.16070536  0.49601108  0.49526026  1
  Fe  Fe31  1  -0.00252102  0.32890127  0.66174853  1
  Cr  Cr32  1  0.16092746  0.49605492  0.82924146  1
  Fe  Fe33  1  0.16221066  0.83020066  0.49620332  1
  Fe  Fe34  1  0.99468103  0.66209907  0.66103984  1
  Fe  Fe35  1  0.16268286  0.83149747  0.82995624  1
  Fe  Fe36  1  0.49743223  0.16415993  0.49542272  1
  Fe  Fe37  1  0.33006753  -0.00202482  0.66198673  1
  Fe  Fe38  1  0.49607393  0.16263512  0.83055918  1
  Fe  Fe39  1  0.49792605  0.49508731  0.49526250  1
  Cr  Cr40  1  0.32966544  0.32970033  0.66024665  1
  Cr  Cr41  1  0.49821121  0.49922295  0.82889771  1
  Cr  Cr42  1  0.50031516  0.82737853  0.49755459  1
  Cr  Cr43  1  0.32799028  0.66499386  0.66175103  1
  Fe  Fe44  1  0.49502253  0.83267303  0.82999759  1
  Fe  Fe45  1  0.83445441  0.16512011  0.49599005  1
  Cr  Cr46  1  0.66571410  -0.00283883  0.66156343  1
  Cr  Cr47  1  0.83148338  0.16285171  0.83196740  1
  Fe  Fe48  1  0.83002621  0.49786439  0.49529777  1
  Cr  Cr49  1  0.66628019  0.32939773  0.66254753  1
  Fe  Fe50  1  0.82951653  0.49728821  0.82925980  1
  Fe  Fe51  1  0.83452895  0.82937182  0.49626013  1
  Fe  Fe52  1  0.66501822  0.66174209  0.66150931  1
  Cr  Cr53  1  0.82828588  0.82708705  0.82830390  1
" 