1885,Fe35Cr65_11,-219.583823497757, 156.054878267776,Fe35Cr65,"# generated using pymatgen
 data_CrFe2
_symmetry_space_group_name_H-M   'P 1'
_cell_length_a   7.49936247
_cell_length_b   7.49936247
_cell_length_c   10.60570012
_cell_angle_alpha   90.00000000
_cell_angle_beta   90.00000000
_cell_angle_gamma   90.00000000
_symmetry_Int_Tables_number   1
_chemical_formula_structural   CrFe2
_chemical_formula_sum   'Cr18 Fe36'
_cell_volume   596.46921420
_cell_formula_units_Z   18
loop_
 _symmetry_equiv_pos_site_id
 _symmetry_equiv_pos_as_xyz
  1  'x, y, z'
loop_
 _atom_site_type_symbol
 _atom_site_label
 _atom_site_symmetry_multiplicity
 _atom_site_fract_x
 _atom_site_fract_y
 _atom_site_fract_z
 _atom_site_occupancy
  Fe  Fe0  1  0.99734539  0.99712997  0.99749929  1
  Cr  Cr1  1  0.16542470  0.16620950  0.16569279  1
  Cr  Cr2  1  -0.00165457  0.99687575  0.33096777  1
  Cr  Cr3  1  -0.00138140  0.33083363  0.99676498  1
  Fe  Fe4  1  0.16742622  0.49749008  0.16385888  1
  Fe  Fe5  1  -0.00108694  0.33194660  0.33354102  1
  Cr  Cr6  1  -0.00085233  0.66885961  0.00105086  1
  Fe  Fe7  1  0.16472339  0.83206142  0.16406726  1
  Cr  Cr8  1  -0.00205711  0.66539215  0.32996308  1
  Cr  Cr9  1  0.33102048  -0.00022883  0.99735635  1
  Fe  Fe10  1  0.49832452  0.16669662  0.16655201  1
  Fe  Fe11  1  0.33072517  0.99756222  0.33161146  1
  Fe  Fe12  1  0.33411209  0.33326763  -0.00215146  1
  Fe  Fe13  1  0.49726720  0.49465910  0.16497555  1
  Fe  Fe14  1  0.33075574  0.33138546  0.33177206  1
  Fe  Fe15  1  0.33201183  0.66409788  -0.00107476  1
  Cr  Cr16  1  0.49801361  0.83194517  0.16786975  1
  Cr  Cr17  1  0.33103574  0.66323269  0.32989159  1
  Fe  Fe18  1  0.66400686  0.99709716  0.99735409  1
  Cr  Cr19  1  0.82882529  0.16441657  0.16451885  1
  Fe  Fe20  1  0.66497930  0.99630502  0.33225654  1
  Fe  Fe21  1  0.66036054  0.32929176  0.99700404  1
  Cr  Cr22  1  0.83107516  0.49666823  0.16610724  1
  Fe  Fe23  1  0.66364214  0.33230455  0.33282331  1
  Cr  Cr24  1  0.66367494  0.66220250  0.99696281  1
  Fe  Fe25  1  0.82974792  0.83254440  0.16465350  1
  Fe  Fe26  1  0.66469704  0.66422823  0.33296458  1
  Fe  Fe27  1  0.16437167  0.16531207  0.49744146  1
  Cr  Cr28  1  -0.00030251  -0.00149503  0.66553385  1
  Fe  Fe29  1  0.16693571  0.16504095  0.83055890  1
  Fe  Fe30  1  0.16588966  0.49611280  0.49849146  1
  Fe  Fe31  1  -0.00100154  0.33077042  0.66243093  1
  Cr  Cr32  1  0.16672374  0.49871474  0.83065823  1
  Fe  Fe33  1  0.16783045  0.83265142  0.49831987  1
  Cr  Cr34  1  0.99734995  0.66597303  0.66167748  1
  Fe  Fe35  1  0.16584269  0.83177874  0.83113995  1
  Cr  Cr36  1  0.49651132  0.15986908  0.49517850  1
  Fe  Fe37  1  0.33296498  0.99714094  0.66541419  1
  Fe  Fe38  1  0.49592443  0.16488600  0.83058048  1
  Fe  Fe39  1  0.49747514  0.49801782  0.49791528  1
  Fe  Fe40  1  0.32924820  0.33012781  0.66339548  1
  Fe  Fe41  1  0.49665572  0.49802918  0.83051210  1
  Fe  Fe42  1  0.49802314  0.82900545  0.49774064  1
  Fe  Fe43  1  0.33322026  0.66502477  0.66318049  1
  Fe  Fe44  1  0.49764129  0.83083018  0.82998905  1
  Fe  Fe45  1  0.83138995  0.16500358  0.49757129  1
  Fe  Fe46  1  0.66370975  0.99563483  0.66437105  1
  Cr  Cr47  1  0.83062649  0.16349874  0.83247020  1
  Fe  Fe48  1  0.82985590  0.49702768  0.49720578  1
  Cr  Cr49  1  0.66224457  0.33174445  0.66518780  1
  Cr  Cr50  1  0.83154296  0.49809884  0.82909417  1
  Fe  Fe51  1  0.82823255  0.83235730  0.49779703  1
  Fe  Fe52  1  0.66248892  0.66661979  0.66383933  1
  Fe  Fe53  1  0.83009829  0.83140590  0.83110815  1
" 