8102,Fe35Cr65_2,-219.462667621782, 151.741506027213,Fe35Cr65,"# generated using pymatgen
 data_CrFe2
_symmetry_space_group_name_H-M   'P 1'
_cell_length_a   7.50641840
_cell_length_b   7.50641840
_cell_length_c   10.61567871
_cell_angle_alpha   90.00000000
_cell_angle_beta   90.00000000
_cell_angle_gamma   90.00000000
_symmetry_Int_Tables_number   1
_chemical_formula_structural   CrFe2
_chemical_formula_sum   'Cr18 Fe36'
_cell_volume   598.15440008
_cell_formula_units_Z   18
loop_
 _symmetry_equiv_pos_site_id
 _symmetry_equiv_pos_as_xyz
  1  'x, y, z'
loop_
 _atom_site_type_symbol
 _atom_site_label
 _atom_site_symmetry_multiplicity
 _atom_site_fract_x
 _atom_site_fract_y
 _atom_site_fract_z
 _atom_site_occupancy
  Cr  Cr0  1  0.00064409  -0.00022299  -0.00204565  1
  Fe  Fe1  1  0.16409115  0.16756842  0.16493515  1
  Cr  Cr2  1  0.00108688  0.00059433  0.33096721  1
  Fe  Fe3  1  -0.00117858  0.33462056  -0.00247165  1
  Fe  Fe4  1  0.16331746  0.49658048  0.16474178  1
  Fe  Fe5  1  -0.00247696  0.33358050  0.33174244  1
  Fe  Fe6  1  -0.00069252  0.66113610  0.99713897  1
  Fe  Fe7  1  0.16541007  0.82857165  0.16604558  1
  Fe  Fe8  1  -0.00089112  0.66237766  0.33076477  1
  Cr  Cr9  1  0.32917292  0.99533212  0.00034342  1
  Cr  Cr10  1  0.49515160  0.16662960  0.16321084  1
  Fe  Fe11  1  0.33062471  0.99578527  0.33029473  1
  Fe  Fe12  1  0.32925158  0.33323289  -0.00166299  1
  Fe  Fe13  1  0.49745023  0.49720875  0.16370313  1
  Fe  Fe14  1  0.32924713  0.33216927  0.33076986  1
  Cr  Cr15  1  0.33263566  0.66392810  0.99684685  1
  Fe  Fe16  1  0.49677396  0.82929942  0.16472629  1
  Fe  Fe17  1  0.32834726  0.66457988  0.33030795  1
  Fe  Fe18  1  0.66187097  0.99496370  -0.00233916  1
  Cr  Cr19  1  0.82869908  0.16493270  0.16318006  1
  Cr  Cr20  1  0.66368301  0.99597632  0.33149478  1
  Fe  Fe21  1  0.66352140  0.33448833  0.99700080  1
  Fe  Fe22  1  0.83126739  0.49590749  0.16328292  1
  Fe  Fe23  1  0.66484215  0.33137373  0.33181703  1
  Fe  Fe24  1  0.66372997  0.66227394  0.99702862  1
  Cr  Cr25  1  0.83215768  0.82698686  0.16191087  1
  Cr  Cr26  1  0.66077255  0.66093237  0.33049658  1
  Fe  Fe27  1  0.16466842  0.16411027  0.49799047  1
  Fe  Fe28  1  -0.00077999  0.99644711  0.66334230  1
  Cr  Cr29  1  0.16719238  0.16705565  0.83040437  1
  Fe  Fe30  1  0.16513168  0.49838056  0.49650484  1
  Cr  Cr31  1  -0.00255020  0.32948249  0.66283857  1
  Fe  Fe32  1  0.16362382  0.49919720  0.83041250  1
  Fe  Fe33  1  0.16724818  0.82985830  0.49819570  1
  Fe  Fe34  1  -0.00025350  0.66257343  0.66422844  1
  Fe  Fe35  1  0.16513083  0.82981530  0.82870140  1
  Cr  Cr36  1  0.49532500  0.16576805  0.49788612  1
  Fe  Fe37  1  0.33022834  0.99530027  0.66359231  1
  Cr  Cr38  1  0.49637024  0.16579488  0.83129914  1
  Fe  Fe39  1  0.49400422  0.49861433  0.49641122  1
  Fe  Fe40  1  0.33070310  0.33434765  0.66307492  1
  Fe  Fe41  1  0.49677946  0.49731255  0.83133655  1
  Fe  Fe42  1  0.49386011  0.82981991  0.49803154  1
  Fe  Fe43  1  0.32840605  0.66303515  0.66439266  1
  Fe  Fe44  1  0.49645004  0.83150595  0.83001165  1
  Fe  Fe45  1  0.83190739  0.16473931  0.49665804  1
  Fe  Fe46  1  0.66314529  0.99700578  0.66307280  1
  Cr  Cr47  1  0.82859334  0.16177134  0.83113253  1
  Fe  Fe48  1  0.83219895  0.49672378  0.49542939  1
  Cr  Cr49  1  0.66538340  0.33333902  0.66166614  1
  Fe  Fe50  1  0.83161755  0.49650000  0.83256254  1
  Cr  Cr51  1  0.83311828  0.82874536  0.49906112  1
  Cr  Cr52  1  0.66026267  0.66222690  0.66454927  1
  Cr  Cr53  1  0.83211156  0.82810836  0.83136863  1
" 