351,Fe35Cr65_14,-219.545383559154, 151.70124527022,Fe35Cr65,"# generated using pymatgen
 data_CrFe2
_symmetry_space_group_name_H-M   'P 1'
_cell_length_a   7.51309770
_cell_length_b   7.51309770
_cell_length_c   10.62512466
_cell_angle_alpha   90.00000000
_cell_angle_beta   90.00000000
_cell_angle_gamma   90.00000000
_symmetry_Int_Tables_number   1
_chemical_formula_structural   CrFe2
_chemical_formula_sum   'Cr18 Fe36'
_cell_volume   599.75255505
_cell_formula_units_Z   18
loop_
 _symmetry_equiv_pos_site_id
 _symmetry_equiv_pos_as_xyz
  1  'x, y, z'
loop_
 _atom_site_type_symbol
 _atom_site_label
 _atom_site_symmetry_multiplicity
 _atom_site_fract_x
 _atom_site_fract_y
 _atom_site_fract_z
 _atom_site_occupancy
  Cr  Cr0  1  0.99638142  0.99350375  0.99528351  1
  Cr  Cr1  1  0.16345108  0.16493206  0.16278689  1
  Cr  Cr2  1  0.99487953  0.99436730  0.33183864  1
  Fe  Fe3  1  0.99640113  0.33227860  -0.00246834  1
  Fe  Fe4  1  0.16162479  0.49847248  0.16400691  1
  Fe  Fe5  1  0.99633850  0.33276466  0.33089496  1
  Fe  Fe6  1  -0.00290362  0.66337127  -0.00184720  1
  Fe  Fe7  1  0.16334843  0.82816477  0.16363686  1
  Fe  Fe8  1  0.99691584  0.66233797  0.33026343  1
  Fe  Fe9  1  0.33155401  0.99668261  -0.00287677  1
  Fe  Fe10  1  0.49749500  0.16300765  0.16192415  1
  Cr  Cr11  1  0.33053209  0.99550866  0.32965662  1
  Cr  Cr12  1  0.33294633  0.32988770  0.99546065  1
  Fe  Fe13  1  0.49758522  0.49720329  0.16414692  1
  Cr  Cr14  1  0.33110390  0.33370552  0.33065499  1
  Cr  Cr15  1  0.32902046  0.66245273  -0.00200364  1
  Fe  Fe16  1  0.49696958  0.83058428  0.16337245  1
  Fe  Fe17  1  0.33046715  0.66384814  0.33027003  1
  Fe  Fe18  1  0.66152467  -0.00245490  -0.00229701  1
  Cr  Cr19  1  0.82965304  0.16624688  0.16320138  1
  Cr  Cr20  1  0.66537769  0.99571581  0.32997699  1
  Fe  Fe21  1  0.66306667  0.32972092  -0.00232628  1
  Fe  Fe22  1  0.83167122  0.49798057  0.16347005  1
  Cr  Cr23  1  0.66288880  0.33140193  0.33100591  1
  Cr  Cr24  1  0.66567458  0.66309930  -0.00242401  1
  Fe  Fe25  1  0.83049311  0.82816226  0.16357695  1
  Fe  Fe26  1  0.66342300  0.66378519  0.33007912  1
  Cr  Cr27  1  0.16158960  0.16422789  0.49795052  1
  Fe  Fe28  1  -0.00275162  0.99570307  0.66363963  1
  Fe  Fe29  1  0.16419054  0.16180762  0.82966379  1
  Fe  Fe30  1  0.16182603  0.49866304  0.49655653  1
  Fe  Fe31  1  0.99600577  0.33052292  0.66244386  1
  Cr  Cr32  1  0.16099159  0.49685004  0.83086891  1
  Fe  Fe33  1  0.16307074  0.82851375  0.49753223  1
  Fe  Fe34  1  0.99592763  0.66461385  0.66246055  1
  Fe  Fe35  1  0.16164275  0.83186251  0.82958090  1
  Fe  Fe36  1  0.49857965  0.16292838  0.49860114  1
  Fe  Fe37  1  0.33021116  0.99691375  0.66338892  1
  Fe  Fe38  1  0.49709190  0.16388076  0.83025153  1
  Fe  Fe39  1  0.49799278  0.49803356  0.49698039  1
  Cr  Cr40  1  0.33287301  0.33042826  0.66470359  1
  Fe  Fe41  1  0.49892992  0.49525026  0.82970810  1
  Fe  Fe42  1  0.49736398  0.82988065  0.49768046  1
  Cr  Cr43  1  0.33022810  0.66229640  0.66266831  1
  Cr  Cr44  1  0.49671024  0.83206136  0.82959432  1
  Fe  Fe45  1  0.82957104  0.16422933  0.49873967  1
  Fe  Fe46  1  0.66329185  -0.00302535  0.66222497  1
  Cr  Cr47  1  0.82998468  0.16479167  0.82968062  1
  Fe  Fe48  1  0.83105434  0.49733698  0.49772025  1
  Fe  Fe49  1  0.66352496  0.33050216  0.66221315  1
  Cr  Cr50  1  0.83027726  0.49688211  0.83053538  1
  Fe  Fe51  1  0.83037391  0.82918048  0.49821752  1
  Fe  Fe52  1  0.66458405  0.66339751  0.66263724  1
  Fe  Fe53  1  0.83148919  0.83004432  0.82900204  1
" 