2240,Fe35Cr65_10,-219.458935814301, 157.857137836558,Fe35Cr65,"# generated using pymatgen
 data_CrFe2
_symmetry_space_group_name_H-M   'P 1'
_cell_length_a   7.50201457
_cell_length_b   7.50201457
_cell_length_c   10.60945075
_cell_angle_alpha   90.00000000
_cell_angle_beta   90.00000000
_cell_angle_gamma   90.00000000
_symmetry_Int_Tables_number   1
_chemical_formula_structural   CrFe2
_chemical_formula_sum   'Cr18 Fe36'
_cell_volume   597.10225018
_cell_formula_units_Z   18
loop_
 _symmetry_equiv_pos_site_id
 _symmetry_equiv_pos_as_xyz
  1  'x, y, z'
loop_
 _atom_site_type_symbol
 _atom_site_label
 _atom_site_symmetry_multiplicity
 _atom_site_fract_x
 _atom_site_fract_y
 _atom_site_fract_z
 _atom_site_occupancy
  Cr  Cr0  1  0.00068657  0.00182641  -0.00104824  1
  Fe  Fe1  1  0.16587117  0.16877876  0.16310312  1
  Cr  Cr2  1  0.99736516  0.00168114  0.32954867  1
  Fe  Fe3  1  0.99706094  0.33209924  -0.00208306  1
  Fe  Fe4  1  0.16249781  0.49697272  0.16450291  1
  Fe  Fe5  1  -0.00153938  0.33265397  0.32846082  1
  Cr  Cr6  1  -0.00044951  0.66383143  -0.00202357  1
  Fe  Fe7  1  0.16654784  0.82970219  0.16300696  1
  Fe  Fe8  1  -0.00050745  0.66619151  0.32926922  1
  Fe  Fe9  1  0.33124804  0.99702888  -0.00000223  1
  Fe  Fe10  1  0.49788047  0.16268912  0.16368940  1
  Cr  Cr11  1  0.32833503  0.99584911  0.32799657  1
  Fe  Fe12  1  0.32725119  0.33017177  0.99765820  1
  Cr  Cr13  1  0.49637223  0.49259272  0.16306102  1
  Fe  Fe14  1  0.32970440  0.32875362  0.32920518  1
  Fe  Fe15  1  0.33182901  0.66465141  0.99731877  1
  Fe  Fe16  1  0.49708180  0.82921474  0.16255624  1
  Cr  Cr17  1  0.33156749  0.66285132  0.33064606  1
  Cr  Cr18  1  0.66586083  -0.00129505  -0.00084264  1
  Fe  Fe19  1  0.82985849  0.16840148  0.16485499  1
  Fe  Fe20  1  0.66278185  0.99735015  0.33014856  1
  Fe  Fe21  1  0.66667791  0.33225310  0.99687814  1
  Fe  Fe22  1  0.83141151  0.49520206  0.16501029  1
  Fe  Fe23  1  0.66526722  0.32731239  0.33056353  1
  Fe  Fe24  1  0.66445968  0.66294985  0.99749736  1
  Cr  Cr25  1  0.83113394  0.82923728  0.16692702  1
  Cr  Cr26  1  0.66207808  0.66127488  0.33228334  1
  Fe  Fe27  1  0.16267733  0.16582016  0.49755999  1
  Cr  Cr28  1  -0.00107263  0.00260675  0.66427193  1
  Fe  Fe29  1  0.16369044  0.16643583  0.83167552  1
  Cr  Cr30  1  0.16482620  0.49659644  0.49610160  1
  Fe  Fe31  1  -0.00122210  0.33458059  0.66577100  1
  Fe  Fe32  1  0.16512589  0.49665998  0.83140296  1
  Fe  Fe33  1  0.16266306  0.83174729  0.49823086  1
  Fe  Fe34  1  -0.00122138  0.66442693  0.66537871  1
  Fe  Fe35  1  0.16768074  0.83287283  0.83135079  1
  Cr  Cr36  1  0.49541303  0.16297031  0.49620391  1
  Fe  Fe37  1  0.33176305  0.99677989  0.66408149  1
  Cr  Cr38  1  0.49494418  0.16294336  0.83260886  1
  Fe  Fe39  1  0.49784896  0.49433306  0.49686515  1
  Fe  Fe40  1  0.32900004  0.32920405  0.66529128  1
  Fe  Fe41  1  0.49643570  0.49734957  0.83507944  1
  Fe  Fe42  1  0.49754367  0.83081813  0.49796718  1
  Cr  Cr43  1  0.33259577  0.66243381  0.66438110  1
  Fe  Fe44  1  0.49629803  0.83036596  0.83304719  1
  Fe  Fe45  1  0.83136010  0.16681655  0.49704942  1
  Fe  Fe46  1  0.66284829  0.99705501  0.66398681  1
  Fe  Fe47  1  0.83178524  0.16637922  0.83154729  1
  Cr  Cr48  1  0.83489476  0.50149577  0.49576561  1
  Cr  Cr49  1  0.66453764  0.33165724  0.66572290  1
  Fe  Fe50  1  0.83227379  0.49566929  0.83227336  1
  Fe  Fe51  1  0.83043071  0.83426221  0.49792978  1
  Cr  Cr52  1  0.66130132  0.66158329  0.66533568  1
  Cr  Cr53  1  0.83139853  0.83006303  0.82908629  1
" 