98,Fe35Cr65_7,-219.485950114482, 156.904734264774,Fe35Cr65,"# generated using pymatgen
 data_CrFe2
_symmetry_space_group_name_H-M   'P 1'
_cell_length_a   7.49865596
_cell_length_b   7.49865596
_cell_length_c   10.60470096
_cell_angle_alpha   90.00000000
_cell_angle_beta   90.00000000
_cell_angle_gamma   90.00000000
_symmetry_Int_Tables_number   1
_chemical_formula_structural   CrFe2
_chemical_formula_sum   'Cr18 Fe36'
_cell_volume   596.30065053
_cell_formula_units_Z   18
loop_
 _symmetry_equiv_pos_site_id
 _symmetry_equiv_pos_as_xyz
  1  'x, y, z'
loop_
 _atom_site_type_symbol
 _atom_site_label
 _atom_site_symmetry_multiplicity
 _atom_site_fract_x
 _atom_site_fract_y
 _atom_site_fract_z
 _atom_site_occupancy
  Cr  Cr0  1  -0.00168053  -0.00076064  0.99605279  1
  Cr  Cr1  1  0.16366041  0.16468440  0.16591725  1
  Fe  Fe2  1  0.99488435  -0.00096887  0.33223566  1
  Fe  Fe3  1  -0.00170254  0.33242347  0.99445341  1
  Cr  Cr4  1  0.16409389  0.49829508  0.16331025  1
  Cr  Cr5  1  0.99640724  0.33206600  0.33213058  1
  Fe  Fe6  1  0.99694693  0.66280527  0.99686206  1
  Fe  Fe7  1  0.16441900  0.83011699  0.16287627  1
  Fe  Fe8  1  0.99572514  0.66468508  0.33285443  1
  Fe  Fe9  1  0.33507753  0.99624589  -0.00035725  1
  Fe  Fe10  1  0.50108394  0.16151110  0.16471930  1
  Cr  Cr11  1  0.33164006  -0.00180803  0.32848460  1
  Cr  Cr12  1  0.33365606  0.32803324  0.99725350  1
  Cr  Cr13  1  0.49895198  0.49659404  0.16733489  1
  Fe  Fe14  1  0.33131767  0.33135249  0.33443145  1
  Fe  Fe15  1  0.33160540  0.66419916  -0.00169793  1
  Fe  Fe16  1  0.49802576  0.83188681  0.16367598  1
  Cr  Cr17  1  0.33133211  0.66664084  0.33173005  1
  Fe  Fe18  1  0.66365166  -0.00167729  0.99756015  1
  Fe  Fe19  1  0.83040213  0.16538589  0.16438631  1
  Fe  Fe20  1  0.66427778  0.99739420  0.33362599  1
  Cr  Cr21  1  0.66806144  0.32938076  0.99691023  1
  Fe  Fe22  1  0.83292096  0.49813267  0.16457588  1
  Cr  Cr23  1  0.66539828  0.33036015  0.33202444  1
  Cr  Cr24  1  0.66484700  0.66426017  0.99774702  1
  Cr  Cr25  1  0.83125843  0.83266938  0.16781724  1
  Fe  Fe26  1  0.66533402  0.66580262  0.33431371  1
  Fe  Fe27  1  0.16471765  0.16634076  0.49835088  1
  Fe  Fe28  1  0.99659742  -0.00074864  0.66610354  1
  Fe  Fe29  1  0.16839314  0.16461389  0.83051829  1
  Fe  Fe30  1  0.16469514  0.49793361  0.49867822  1
  Cr  Cr31  1  -0.00137535  0.33081839  0.66823868  1
  Fe  Fe32  1  0.16574564  0.49815291  0.83252672  1
  Cr  Cr33  1  0.15952869  0.83495005  0.49696285  1
  Cr  Cr34  1  0.99666563  0.66583488  0.66607737  1
  Cr  Cr35  1  0.16519503  0.83163110  0.83355414  1
  Fe  Fe36  1  0.49734841  0.16344025  0.49925683  1
  Fe  Fe37  1  0.32978503  -0.00038936  0.66325649  1
  Fe  Fe38  1  0.49840714  0.16239515  0.82809140  1
  Fe  Fe39  1  0.49773708  0.49813276  0.49968451  1
  Fe  Fe40  1  0.33106977  0.33010384  0.66231609  1
  Cr  Cr41  1  0.49787864  0.49616295  0.82568458  1
  Fe  Fe42  1  0.49772343  0.83249687  0.50016593  1
  Fe  Fe43  1  0.33011069  0.66448347  0.66160621  1
  Cr  Cr44  1  0.49829684  0.83097112  0.82948016  1
  Fe  Fe45  1  0.83214279  0.16212904  0.49974096  1
  Fe  Fe46  1  0.66588580  -0.00199770  0.66303562  1
  Fe  Fe47  1  0.82882301  0.16250952  0.82958439  1
  Fe  Fe48  1  0.83071422  0.49901098  0.49940382  1
  Fe  Fe49  1  0.66521011  0.32959294  0.66200249  1
  Fe  Fe50  1  0.83116769  0.49893676  0.83069103  1
  Fe  Fe51  1  0.82775981  0.83209734  0.49759193  1
  Fe  Fe52  1  0.66472285  0.66482020  0.66190904  1
  Fe  Fe53  1  0.82964714  0.83205558  0.83044918  1
" 