339,Fe35Cr65_5,-219.500262093722, 152.126773618944,Fe35Cr65,"# generated using pymatgen
 data_CrFe2
_symmetry_space_group_name_H-M   'P 1'
_cell_length_a   7.50612019
_cell_length_b   7.50612019
_cell_length_c   10.61525698
_cell_angle_alpha   90.00000000
_cell_angle_beta   90.00000000
_cell_angle_gamma   90.00000000
_symmetry_Int_Tables_number   1
_chemical_formula_structural   CrFe2
_chemical_formula_sum   'Cr18 Fe36'
_cell_volume   598.08311411
_cell_formula_units_Z   18
loop_
 _symmetry_equiv_pos_site_id
 _symmetry_equiv_pos_as_xyz
  1  'x, y, z'
loop_
 _atom_site_type_symbol
 _atom_site_label
 _atom_site_symmetry_multiplicity
 _atom_site_fract_x
 _atom_site_fract_y
 _atom_site_fract_z
 _atom_site_occupancy
  Fe  Fe0  1  -0.00048148  0.99499571  -0.00243257  1
  Fe  Fe1  1  0.16573412  0.16359398  0.16510843  1
  Cr  Cr2  1  0.00065856  0.99435951  0.32931038  1
  Cr  Cr3  1  -0.00110343  0.33170357  -0.00083406  1
  Fe  Fe4  1  0.16507013  0.49816092  0.16523630  1
  Fe  Fe5  1  -0.00070750  0.33161703  0.32983423  1
  Fe  Fe6  1  -0.00141226  0.66629600  0.99687667  1
  Fe  Fe7  1  0.16620364  0.83028823  0.16224823  1
  Cr  Cr8  1  0.99687277  0.66542828  0.33077617  1
  Fe  Fe9  1  0.32959131  0.99497751  0.99618469  1
  Cr  Cr10  1  0.49780924  0.16179171  0.16430244  1
  Fe  Fe11  1  0.33236752  0.99525709  0.33129440  1
  Cr  Cr12  1  0.32984561  0.32821799  0.99628683  1
  Cr  Cr13  1  0.49490055  0.50181220  0.16484533  1
  Fe  Fe14  1  0.32862569  0.33067555  0.33022430  1
  Fe  Fe15  1  0.32844739  0.66651279  0.99736988  1
  Fe  Fe16  1  0.49793389  0.83104145  0.16387470  1
  Fe  Fe17  1  0.33132343  0.66662713  0.33138391  1
  Fe  Fe18  1  0.66332401  0.99445812  0.99663362  1
  Cr  Cr19  1  0.83180211  0.16103765  0.16493626  1
  Fe  Fe20  1  0.66293096  0.99345912  0.33169454  1
  Cr  Cr21  1  0.66346247  0.33189978  0.99479371  1
  Cr  Cr22  1  0.83016862  0.49876285  0.16374969  1
  Cr  Cr23  1  0.66305809  0.33274297  0.33277993  1
  Fe  Fe24  1  0.66473081  0.66741479  0.99641022  1
  Fe  Fe25  1  0.82833759  0.83026561  0.16234887  1
  Fe  Fe26  1  0.66307839  0.66775704  0.33277464  1
  Cr  Cr27  1  0.16273308  0.16469229  0.49701100  1
  Fe  Fe28  1  0.99651485  0.99429339  0.66436763  1
  Fe  Fe29  1  0.16426809  0.16353907  0.82972921  1
  Cr  Cr30  1  0.16636848  0.49900832  0.49868425  1
  Fe  Fe31  1  -0.00161784  0.33215862  0.66575805  1
  Fe  Fe32  1  0.16174252  0.49884762  0.82903270  1
  Fe  Fe33  1  0.16466121  0.83062328  0.49839069  1
  Fe  Fe34  1  -0.00129819  0.66530697  0.66459371  1
  Fe  Fe35  1  0.16321513  0.82979088  0.83142537  1
  Fe  Fe36  1  0.49569389  0.16316031  0.49668112  1
  Cr  Cr37  1  0.32993560  0.99709937  0.66456847  1
  Fe  Fe38  1  0.49630415  0.16104676  0.83070044  1
  Fe  Fe39  1  0.49619513  0.49816935  0.49681005  1
  Fe  Fe40  1  0.33017475  0.33130804  0.66530922  1
  Cr  Cr41  1  0.49396210  0.50125104  0.83103954  1
  Fe  Fe42  1  0.49657213  0.83112364  0.49620266  1
  Fe  Fe43  1  0.33043437  0.66475398  0.66429909  1
  Fe  Fe44  1  0.49809875  0.83231129  0.83175494  1
  Cr  Cr45  1  0.83113221  0.16138803  0.49753770  1
  Fe  Fe46  1  0.66336335  0.99548333  0.66392870  1
  Cr  Cr47  1  0.83194390  0.16061254  0.83012570  1
  Fe  Fe48  1  0.83237724  0.49789444  0.49716017  1
  Cr  Cr49  1  0.66230307  0.33115718  0.66476392  1
  Fe  Fe50  1  0.83333266  0.50011281  0.83075238  1
  Fe  Fe51  1  0.83129619  0.83035051  0.49775382  1
  Cr  Cr52  1  0.66598706  0.66390848  0.66169883  1
  Fe  Fe53  1  0.83118727  0.82890725  0.83136231  1
" 