7689,Fe39Cr61_12,-218.58274139411, 163.513693442331,Fe39Cr61,"# generated using pymatgen
 data_Cr7Fe11
_symmetry_space_group_name_H-M   'P 1'
_cell_length_a   7.50919641
_cell_length_b   7.50919641
_cell_length_c   10.61960741
_cell_angle_alpha   90.00000000
_cell_angle_beta   90.00000000
_cell_angle_gamma   90.00000000
_symmetry_Int_Tables_number   1
_chemical_formula_structural   Cr7Fe11
_chemical_formula_sum   'Cr21 Fe33'
_cell_volume   598.81874916
_cell_formula_units_Z   3
loop_
 _symmetry_equiv_pos_site_id
 _symmetry_equiv_pos_as_xyz
  1  'x, y, z'
loop_
 _atom_site_type_symbol
 _atom_site_label
 _atom_site_symmetry_multiplicity
 _atom_site_fract_x
 _atom_site_fract_y
 _atom_site_fract_z
 _atom_site_occupancy
  Cr  Cr0  1  -0.00090556  0.99288855  0.99581809  1
  Cr  Cr1  1  0.16454951  0.16343507  0.16312638  1
  Fe  Fe2  1  0.99624309  0.99512672  0.33105477  1
  Fe  Fe3  1  0.99661571  0.33082316  -0.00191013  1
  Cr  Cr4  1  0.16252844  0.49837645  0.16920807  1
  Fe  Fe5  1  0.99644856  0.33059999  0.33133122  1
  Fe  Fe6  1  -0.00117673  0.66193245  -0.00081554  1
  Fe  Fe7  1  0.16334632  0.82956887  0.16508070  1
  Fe  Fe8  1  0.99696049  0.66695617  0.33181717  1
  Fe  Fe9  1  0.33148505  0.99397636  -0.00050632  1
  Fe  Fe10  1  0.49843767  0.16536302  0.16547016  1
  Cr  Cr11  1  0.33116918  -0.00061381  0.32891868  1
  Cr  Cr12  1  0.33335345  0.33277839  -0.00037396  1
  Fe  Fe13  1  0.49829262  0.49686995  0.16759209  1
  Fe  Fe14  1  0.33256500  0.33243452  0.33130588  1
  Fe  Fe15  1  0.32874802  0.66618697  -0.00104455  1
  Fe  Fe16  1  0.49596729  0.82914040  0.16534691  1
  Fe  Fe17  1  0.33162326  0.66575233  0.33077361  1
  Cr  Cr18  1  0.66474969  0.99598689  0.00129982  1
  Cr  Cr19  1  0.83085518  0.16426519  0.16601022  1
  Fe  Fe20  1  0.66426517  0.99578092  0.33078744  1
  Fe  Fe21  1  0.66503055  0.32950970  -0.00151865  1
  Fe  Fe22  1  0.82993747  0.49746317  0.16674205  1
  Fe  Fe23  1  0.66191545  0.33056493  0.33073114  1
  Cr  Cr24  1  0.66281950  0.66044061  -0.00032267  1
  Fe  Fe25  1  0.83308148  0.82800847  0.16651089  1
  Fe  Fe26  1  0.66333784  0.66586462  0.32866356  1
  Cr  Cr27  1  0.16235759  0.16555112  0.49565502  1
  Cr  Cr28  1  0.99705995  0.99663210  0.66283812  1
  Fe  Fe29  1  0.16369235  0.16302616  0.83088219  1
  Fe  Fe30  1  0.16409262  0.49945269  0.49346471  1
  Fe  Fe31  1  0.99564043  0.32904747  0.66296257  1
  Cr  Cr32  1  0.16312819  0.49679211  0.82870366  1
  Fe  Fe33  1  0.16543386  0.82935429  0.49475672  1
  Cr  Cr34  1  -0.00185936  0.66518568  0.66101717  1
  Fe  Fe35  1  0.16502695  0.83036491  0.83024954  1
  Fe  Fe36  1  0.49872668  0.16552988  0.49465701  1
  Fe  Fe37  1  0.32990849  0.99657634  0.66057060  1
  Cr  Cr38  1  0.49546899  0.15960778  0.83229706  1
  Cr  Cr39  1  0.49746616  0.50164810  0.49806357  1
  Cr  Cr40  1  0.32979986  0.33202211  0.66087669  1
  Fe  Fe41  1  0.49603210  0.49820778  0.83061185  1
  Fe  Fe42  1  0.49668090  0.83204709  0.49576754  1
  Fe  Fe43  1  0.32983727  0.66702183  0.66165056  1
  Cr  Cr44  1  0.49487689  0.82921586  0.82705225  1
  Fe  Fe45  1  0.82931119  0.16476891  0.49331090  1
  Cr  Cr46  1  0.66548269  -0.00229300  0.65815868  1
  Fe  Fe47  1  0.83168009  0.16316036  0.83205139  1
  Cr  Cr48  1  0.83124240  0.49709104  0.49609782  1
  Cr  Cr49  1  0.66265499  0.32991341  0.66746707  1
  Cr  Cr50  1  0.83096208  0.49569116  0.83252160  1
  Fe  Fe51  1  0.83010894  0.83058728  0.49335265  1
  Fe  Fe52  1  0.66342963  0.66418020  0.66253404  1
  Cr  Cr53  1  0.82796454  0.82858745  0.82978214  1
" 