2571,Fe39Cr61_8,-218.329941890079, 158.976410203335,Fe39Cr61,"# generated using pymatgen
 data_Cr7Fe11
_symmetry_space_group_name_H-M   'P 1'
_cell_length_a   7.51433533
_cell_length_b   7.51433533
_cell_length_c   10.62687493
_cell_angle_alpha   90.00000000
_cell_angle_beta   90.00000000
_cell_angle_gamma   90.00000000
_symmetry_Int_Tables_number   1
_chemical_formula_structural   Cr7Fe11
_chemical_formula_sum   'Cr21 Fe33'
_cell_volume   600.04899507
_cell_formula_units_Z   3
loop_
 _symmetry_equiv_pos_site_id
 _symmetry_equiv_pos_as_xyz
  1  'x, y, z'
loop_
 _atom_site_type_symbol
 _atom_site_label
 _atom_site_symmetry_multiplicity
 _atom_site_fract_x
 _atom_site_fract_y
 _atom_site_fract_z
 _atom_site_occupancy
  Cr  Cr0  1  -0.00168282  0.99628538  0.99577997  1
  Cr  Cr1  1  0.16214702  0.16527915  0.16303139  1
  Fe  Fe2  1  0.99450979  -0.00148330  0.33163024  1
  Cr  Cr3  1  0.99613326  0.33240772  -0.00153009  1
  Fe  Fe4  1  0.16530105  0.49633394  0.16475728  1
  Fe  Fe5  1  -0.00277893  0.32963672  0.33095662  1
  Cr  Cr6  1  -0.00223884  0.66187478  -0.00198383  1
  Cr  Cr7  1  0.16425934  0.83028667  0.16470384  1
  Cr  Cr8  1  -0.00101868  0.66228119  0.33060014  1
  Fe  Fe9  1  0.32911650  0.99639535  0.99447560  1
  Cr  Cr10  1  0.49380984  0.16354761  0.16617805  1
  Fe  Fe11  1  0.32933064  -0.00242709  0.33250045  1
  Fe  Fe12  1  0.32831104  0.33154456  0.99520166  1
  Cr  Cr13  1  0.49365904  0.49833029  0.16220275  1
  Fe  Fe14  1  0.32702212  0.33094912  0.33187190  1
  Fe  Fe15  1  0.33060044  0.66288747  0.99360490  1
  Cr  Cr16  1  0.49621025  0.82835482  0.16283727  1
  Fe  Fe17  1  0.32907522  0.66228236  0.33141895  1
  Cr  Cr18  1  0.66159491  -0.00207778  0.00034789  1
  Fe  Fe19  1  0.83138907  0.16185847  0.16567027  1
  Fe  Fe20  1  0.66644806  0.99671363  0.33062359  1
  Cr  Cr21  1  0.66398571  0.33108071  -0.00113916  1
  Fe  Fe22  1  0.83161668  0.49702474  0.16430535  1
  Cr  Cr23  1  0.66441516  0.32690441  0.32915266  1
  Fe  Fe24  1  0.66405377  0.66287756  0.99584118  1
  Fe  Fe25  1  0.83037120  0.83131979  0.16418089  1
  Cr  Cr26  1  0.66657050  0.66301624  0.32881386  1
  Fe  Fe27  1  0.16326979  0.16434210  0.49590858  1
  Fe  Fe28  1  -0.00202351  -0.00238532  0.66149964  1
  Fe  Fe29  1  0.16351399  0.16491142  0.82988922  1
  Fe  Fe30  1  0.16282044  0.49434193  0.49621980  1
  Fe  Fe31  1  -0.00086630  0.32971109  0.66233597  1
  Fe  Fe32  1  0.16444683  0.49465570  0.83004929  1
  Fe  Fe33  1  0.16270903  0.83199764  0.49524177  1
  Cr  Cr34  1  -0.00241974  0.66269752  0.66177049  1
  Fe  Fe35  1  0.16505953  0.83093627  0.83121403  1
  Fe  Fe36  1  0.49670313  0.16327850  0.49711823  1
  Cr  Cr37  1  0.32959887  -0.00221688  0.66504215  1
  Cr  Cr38  1  0.49556037  0.16602803  0.82984753  1
  Cr  Cr39  1  0.49557426  0.49573151  0.49796183  1
  Fe  Fe40  1  0.32767537  0.33077165  0.66339988  1
  Fe  Fe41  1  0.49770554  0.49861466  0.83008120  1
  Cr  Cr42  1  0.49847917  0.82975310  0.49510114  1
  Cr  Cr43  1  0.32812775  0.66467226  0.66408278  1
  Fe  Fe44  1  0.49676662  0.82850166  0.83133803  1
  Fe  Fe45  1  0.83057615  0.16278671  0.49835348  1
  Fe  Fe46  1  0.66427849  0.99656545  0.66186020  1
  Cr  Cr47  1  0.83339322  0.16401893  0.82707952  1
  Fe  Fe48  1  0.83082378  0.49508790  0.49795303  1
  Fe  Fe49  1  0.66388854  0.33122994  0.66257614  1
  Fe  Fe50  1  0.82849700  0.49635461  0.82853421  1
  Fe  Fe51  1  0.83116302  0.83226969  0.49784885  1
  Fe  Fe52  1  0.66319431  0.66273328  0.66355343  1
  Cr  Cr53  1  0.82936195  0.82921512  0.82819494  1
" 