4018,Fe39Cr61_2,-219.050616106715, 155.113062381505,Fe39Cr61,"# generated using pymatgen
 data_Cr7Fe11
_symmetry_space_group_name_H-M   'P 1'
_cell_length_a   7.52216686
_cell_length_b   7.52216686
_cell_length_c   10.63795040
_cell_angle_alpha   90.00000000
_cell_angle_beta   90.00000000
_cell_angle_gamma   90.00000000
_symmetry_Int_Tables_number   1
_chemical_formula_structural   Cr7Fe11
_chemical_formula_sum   'Cr21 Fe33'
_cell_volume   601.92708709
_cell_formula_units_Z   3
loop_
 _symmetry_equiv_pos_site_id
 _symmetry_equiv_pos_as_xyz
  1  'x, y, z'
loop_
 _atom_site_type_symbol
 _atom_site_label
 _atom_site_symmetry_multiplicity
 _atom_site_fract_x
 _atom_site_fract_y
 _atom_site_fract_z
 _atom_site_occupancy
  Fe  Fe0  1  0.99532743  -0.00210027  -0.00351218  1
  Fe  Fe1  1  0.15992331  0.16283403  0.16414426  1
  Fe  Fe2  1  0.99606093  -0.00325472  0.32849416  1
  Fe  Fe3  1  0.99531628  0.32810202  0.99622511  1
  Cr  Cr4  1  0.16057486  0.49853564  0.16207742  1
  Fe  Fe5  1  0.99371929  0.32998806  0.32867640  1
  Fe  Fe6  1  0.99207508  0.66309261  -0.00360407  1
  Cr  Cr7  1  0.16060391  0.82945441  0.16551493  1
  Fe  Fe8  1  0.99292131  0.66251312  0.32973392  1
  Cr  Cr9  1  0.32830416  0.99608705  -0.00204547  1
  Cr  Cr10  1  0.49926486  0.16334572  0.16467913  1
  Fe  Fe11  1  0.32958401  0.99471104  0.32922312  1
  Cr  Cr12  1  0.32689914  0.32886877  0.99505502  1
  Fe  Fe13  1  0.49826802  0.49908029  0.16416810  1
  Cr  Cr14  1  0.32916022  0.33088116  0.32995115  1
  Cr  Cr15  1  0.33152493  0.66406637  -0.00279820  1
  Fe  Fe16  1  0.49780249  0.82724004  0.16437775  1
  Fe  Fe17  1  0.33272863  0.66406658  0.32942728  1
  Cr  Cr18  1  0.66538611  0.99317490  0.99358136  1
  Fe  Fe19  1  0.83345386  0.16297384  0.16404035  1
  Cr  Cr20  1  0.66434324  0.99351312  0.33089136  1
  Cr  Cr21  1  0.66685785  0.33187963  -0.00060330  1
  Fe  Fe22  1  0.82916782  0.49756223  0.16410388  1
  Fe  Fe23  1  0.66515861  0.33304979  0.32905940  1
  Fe  Fe24  1  0.66496144  0.66354643  -0.00295681  1
  Fe  Fe25  1  0.82939644  0.82824503  0.16303380  1
  Fe  Fe26  1  0.66294853  0.66119991  0.32976484  1
  Cr  Cr27  1  0.16176938  0.16241302  0.49580155  1
  Fe  Fe28  1  0.99361050  0.99627347  0.66390572  1
  Fe  Fe29  1  0.16008167  0.16329568  0.82860211  1
  Cr  Cr30  1  0.16209596  0.49934180  0.49904332  1
  Fe  Fe31  1  0.99627978  0.32912743  0.66394044  1
  Cr  Cr32  1  0.16062035  0.49736441  0.82778550  1
  Cr  Cr33  1  0.16095593  0.82724229  0.49367803  1
  Fe  Fe34  1  0.99283911  0.66338149  0.66287290  1
  Cr  Cr35  1  0.15957461  0.82791489  0.83007721  1
  Cr  Cr36  1  0.49884669  0.16353548  0.49691915  1
  Cr  Cr37  1  0.32960215  0.99511621  0.66323194  1
  Cr  Cr38  1  0.49938125  0.16264367  0.82738527  1
  Fe  Fe39  1  0.49734876  0.49904790  0.49640978  1
  Fe  Fe40  1  0.32868361  0.33073891  0.66283324  1
  Cr  Cr41  1  0.49720460  0.49682938  0.82967107  1
  Fe  Fe42  1  0.49717713  0.82720072  0.49647242  1
  Fe  Fe43  1  0.33199981  0.66275012  0.66257766  1
  Fe  Fe44  1  0.49814596  0.82803989  0.82830732  1
  Cr  Cr45  1  0.82840665  0.16233204  0.49568268  1
  Fe  Fe46  1  0.66541983  0.99281781  0.66355504  1
  Fe  Fe47  1  0.83327358  0.16299306  0.82870807  1
  Fe  Fe48  1  0.82945533  0.49832029  0.49544155  1
  Cr  Cr49  1  0.66552458  0.33180763  0.66092805  1
  Fe  Fe50  1  0.83057464  0.49778604  0.82961732  1
  Fe  Fe51  1  0.82925272  0.82764544  0.49710066  1
  Fe  Fe52  1  0.66359909  0.66531998  0.66227223  1
  Fe  Fe53  1  0.82869898  0.82821960  0.82863250  1
" 