4069,Fe39Cr61_19,-218.599412310802, 153.429328206765,Fe39Cr61,"# generated using pymatgen
 data_Cr7Fe11
_symmetry_space_group_name_H-M   'P 1'
_cell_length_a   7.51826868
_cell_length_b   7.51826868
_cell_length_c   10.63243754
_cell_angle_alpha   90.00000000
_cell_angle_beta   90.00000000
_cell_angle_gamma   90.00000000
_symmetry_Int_Tables_number   1
_chemical_formula_structural   Cr7Fe11
_chemical_formula_sum   'Cr21 Fe33'
_cell_volume   600.99176975
_cell_formula_units_Z   3
loop_
 _symmetry_equiv_pos_site_id
 _symmetry_equiv_pos_as_xyz
  1  'x, y, z'
loop_
 _atom_site_type_symbol
 _atom_site_label
 _atom_site_symmetry_multiplicity
 _atom_site_fract_x
 _atom_site_fract_y
 _atom_site_fract_z
 _atom_site_occupancy
  Fe  Fe0  1  0.99566891  -0.00089653  0.99626460  1
  Fe  Fe1  1  0.16486325  0.16228271  0.16158664  1
  Cr  Cr2  1  -0.00301825  -0.00118177  0.33122514  1
  Fe  Fe3  1  0.99593601  0.32956313  0.99612922  1
  Cr  Cr4  1  0.16369286  0.49556723  0.16296729  1
  Cr  Cr5  1  -0.00237726  0.32770020  0.32825640  1
  Fe  Fe6  1  0.99532982  0.66162177  0.99556227  1
  Cr  Cr7  1  0.16426538  0.83076789  0.16247505  1
  Cr  Cr8  1  0.99553885  0.66305179  0.32857806  1
  Fe  Fe9  1  0.33031601  0.00075883  -0.00331832  1
  Fe  Fe10  1  0.49514450  0.16368094  0.16189872  1
  Fe  Fe11  1  0.33213051  -0.00017434  0.33037728  1
  Fe  Fe12  1  0.33033066  0.32755004  0.99635258  1
  Fe  Fe13  1  0.49656470  0.49564743  0.16242374  1
  Fe  Fe14  1  0.33088390  0.32832438  0.32958737  1
  Cr  Cr15  1  0.32983689  0.66152397  -0.00334446  1
  Cr  Cr16  1  0.49598122  0.83240401  0.16369468  1
  Fe  Fe17  1  0.33139231  0.66184707  0.33029726  1
  Fe  Fe18  1  0.66358870  -0.00015329  0.99573190  1
  Fe  Fe19  1  0.82969721  0.16360604  0.16103723  1
  Fe  Fe20  1  0.66189271  -0.00234756  0.33101650  1
  Fe  Fe21  1  0.66346780  0.32802489  -0.00262932  1
  Fe  Fe22  1  0.82900118  0.49582046  0.16151647  1
  Cr  Cr23  1  0.66148889  0.32888055  0.32675454  1
  Cr  Cr24  1  0.66399670  0.66248068  0.99502976  1
  Cr  Cr25  1  0.82938510  0.83256094  0.16287890  1
  Cr  Cr26  1  0.66146850  0.66319571  0.33263148  1
  Fe  Fe27  1  0.16548292  0.16384840  0.49815605  1
  Fe  Fe28  1  -0.00195834  -0.00196581  0.66384732  1
  Fe  Fe29  1  0.16388751  0.16484826  0.83012422  1
  Cr  Cr30  1  0.16406560  0.49462469  0.49651341  1
  Fe  Fe31  1  -0.00244697  0.32773006  0.66531376  1
  Fe  Fe32  1  0.16226076  0.49363156  0.83055104  1
  Cr  Cr33  1  0.16505037  0.83114299  0.49467636  1
  Cr  Cr34  1  0.99574959  0.66414417  0.66568688  1
  Cr  Cr35  1  0.16309497  0.83165437  0.83312410  1
  Fe  Fe36  1  0.49399906  0.16400582  0.49659874  1
  Fe  Fe37  1  0.32883067  -0.00108060  0.66310845  1
  Fe  Fe38  1  0.49592181  0.16343931  0.83040804  1
  Fe  Fe39  1  0.49628296  0.49439609  0.49762178  1
  Fe  Fe40  1  0.32991365  0.32660186  0.66341984  1
  Cr  Cr41  1  0.49754291  0.49360217  0.82824294  1
  Fe  Fe42  1  0.49722304  0.83118459  0.49637503  1
  Cr  Cr43  1  0.33094974  0.66286536  0.66296860  1
  Cr  Cr44  1  0.49616253  0.83222892  0.83056523  1
  Cr  Cr45  1  0.82915187  0.16384918  0.49705721  1
  Cr  Cr46  1  0.66309019  0.99652946  0.66285716  1
  Fe  Fe47  1  0.83002760  0.16374420  0.83018805  1
  Cr  Cr48  1  0.82914590  0.49408536  0.49855629  1
  Fe  Fe49  1  0.66251384  0.32966625  0.66386074  1
  Fe  Fe50  1  0.83110086  0.49452206  0.82976017  1
  Fe  Fe51  1  0.82936401  0.82991690  0.49731185  1
  Fe  Fe52  1  0.66328161  0.66329579  0.66314332  1
  Fe  Fe53  1  0.82989647  0.83143362  0.83103464  1
" 