7378,Fe39Cr61_4,-218.4879657201, 153.878145678334,Fe39Cr61,"# generated using pymatgen
 data_Cr7Fe11
_symmetry_space_group_name_H-M   'P 1'
_cell_length_a   7.51419109
_cell_length_b   7.51419109
_cell_length_c   10.62667095
_cell_angle_alpha   90.00000000
_cell_angle_beta   90.00000000
_cell_angle_gamma   90.00000000
_symmetry_Int_Tables_number   1
_chemical_formula_structural   Cr7Fe11
_chemical_formula_sum   'Cr21 Fe33'
_cell_volume   600.01444143
_cell_formula_units_Z   3
loop_
 _symmetry_equiv_pos_site_id
 _symmetry_equiv_pos_as_xyz
  1  'x, y, z'
loop_
 _atom_site_type_symbol
 _atom_site_label
 _atom_site_symmetry_multiplicity
 _atom_site_fract_x
 _atom_site_fract_y
 _atom_site_fract_z
 _atom_site_occupancy
  Cr  Cr0  1  -0.00251045  0.99430186  -0.00215549  1
  Fe  Fe1  1  0.16429574  0.16279110  0.16098993  1
  Fe  Fe2  1  -0.00260672  0.99501009  0.32905074  1
  Fe  Fe3  1  0.99680041  0.32901766  0.99498095  1
  Cr  Cr4  1  0.16371407  0.49898551  0.15992825  1
  Cr  Cr5  1  -0.00110340  0.32869345  0.33144772  1
  Fe  Fe6  1  0.99529494  0.66237702  0.99430855  1
  Fe  Fe7  1  0.16241195  0.82992660  0.16230916  1
  Fe  Fe8  1  0.00023275  0.66677868  0.32999849  1
  Fe  Fe9  1  0.33180625  -0.00106760  0.99613652  1
  Fe  Fe10  1  0.49498775  0.16274067  0.16140726  1
  Cr  Cr11  1  0.32720834  0.99671754  0.33057493  1
  Fe  Fe12  1  0.32836721  0.32837082  0.99445756  1
  Cr  Cr13  1  0.49400598  0.49789199  0.16316727  1
  Cr  Cr14  1  0.33034462  0.32776670  0.32777805  1
  Fe  Fe15  1  0.33103306  0.66396864  0.99459047  1
  Cr  Cr16  1  0.49637932  0.83251814  0.16082215  1
  Fe  Fe17  1  0.32863027  0.66554464  0.33006541  1
  Fe  Fe18  1  0.66342697  0.99645622  0.99475469  1
  Cr  Cr19  1  0.82855245  0.16011056  0.16565523  1
  Fe  Fe20  1  0.66250290  0.99651237  0.32938879  1
  Cr  Cr21  1  0.66077637  0.33125617  0.99650123  1
  Cr  Cr22  1  0.83303196  0.49716585  0.16382557  1
  Cr  Cr23  1  0.66161050  0.33042782  0.33021350  1
  Fe  Fe24  1  0.66491901  0.66565202  0.99516492  1
  Fe  Fe25  1  0.83142275  0.82869089  0.16328218  1
  Cr  Cr26  1  0.66520606  0.66505970  0.33081082  1
  Fe  Fe27  1  0.16281107  0.16142007  0.49895532  1
  Fe  Fe28  1  -0.00154551  -0.00119770  0.66585467  1
  Fe  Fe29  1  0.16335866  0.16373112  0.83063680  1
  Cr  Cr30  1  0.16460211  0.49975137  0.49665010  1
  Fe  Fe31  1  -0.00285170  0.32944257  0.66626586  1
  Fe  Fe32  1  0.16344964  0.49563876  0.83141430  1
  Fe  Fe33  1  0.16465780  0.83231191  0.49860094  1
  Cr  Cr34  1  0.99506346  0.66510355  0.66477100  1
  Cr  Cr35  1  0.16655570  0.82975481  0.83029446  1
  Cr  Cr36  1  0.49962691  0.16096002  0.49674242  1
  Fe  Fe37  1  0.33051500  0.99489778  0.66346536  1
  Fe  Fe38  1  0.49636981  0.16120750  0.82992951  1
  Cr  Cr39  1  0.49532260  0.49908122  0.49663255  1
  Cr  Cr40  1  0.33023355  0.32799321  0.66463406  1
  Fe  Fe41  1  0.49588105  0.49883535  0.83025319  1
  Fe  Fe42  1  0.49583934  0.83003048  0.49842151  1
  Fe  Fe43  1  0.33160434  0.66493561  0.66495207  1
  Fe  Fe44  1  0.49861302  0.83047074  0.83087828  1
  Cr  Cr45  1  0.83109271  0.16221474  0.49946949  1
  Fe  Fe46  1  0.66290891  0.99542540  0.66644648  1
  Fe  Fe47  1  0.83044583  0.16288114  0.82949671  1
  Cr  Cr48  1  0.83053504  0.49510105  0.49775336  1
  Fe  Fe49  1  0.66422767  0.33078133  0.66715034  1
  Fe  Fe50  1  0.83007980  0.49695011  0.83052110  1
  Cr  Cr51  1  0.83053854  0.83389238  0.49573694  1
  Fe  Fe52  1  0.66146590  0.66448689  0.66511668  1
  Fe  Fe53  1  0.82846167  0.83083750  0.83010563  1
" 