515,Fe39Cr61_10,-218.621951168294, 163.173466929387,Fe39Cr61,"# generated using pymatgen
 data_Cr7Fe11
_symmetry_space_group_name_H-M   'P 1'
_cell_length_a   7.51846567
_cell_length_b   7.51846567
_cell_length_c   10.63271612
_cell_angle_alpha   90.00000000
_cell_angle_beta   90.00000000
_cell_angle_gamma   90.00000000
_symmetry_Int_Tables_number   1
_chemical_formula_structural   Cr7Fe11
_chemical_formula_sum   'Cr21 Fe33'
_cell_volume   601.03901113
_cell_formula_units_Z   3
loop_
 _symmetry_equiv_pos_site_id
 _symmetry_equiv_pos_as_xyz
  1  'x, y, z'
loop_
 _atom_site_type_symbol
 _atom_site_label
 _atom_site_symmetry_multiplicity
 _atom_site_fract_x
 _atom_site_fract_y
 _atom_site_fract_z
 _atom_site_occupancy
  Cr  Cr0  1  0.99544808  -0.00241514  0.00084497  1
  Fe  Fe1  1  0.16524101  0.16408252  0.16372797  1
  Cr  Cr2  1  -0.00140134  0.99600157  0.32769185  1
  Cr  Cr3  1  0.99451117  0.32998426  -0.00152047  1
  Fe  Fe4  1  0.16779382  0.49612066  0.16364100  1
  Cr  Cr5  1  0.99629503  0.33029756  0.32859636  1
  Cr  Cr6  1  -0.00221588  0.66229002  0.00122888  1
  Fe  Fe7  1  0.16543294  0.82946798  0.16387661  1
  Cr  Cr8  1  0.99616693  0.66352441  0.32757389  1
  Cr  Cr9  1  0.33201130  0.99642518  -0.00336170  1
  Cr  Cr10  1  0.49676035  0.16511805  0.16543620  1
  Fe  Fe11  1  0.32968452  -0.00337041  0.33167462  1
  Fe  Fe12  1  0.33104161  0.33280377  0.99657107  1
  Fe  Fe13  1  0.49571631  0.49600625  0.16458762  1
  Fe  Fe14  1  0.32882373  0.32971830  0.32985314  1
  Fe  Fe15  1  0.32997195  0.65982229  -0.00332310  1
  Cr  Cr16  1  0.49534690  0.82875639  0.16436022  1
  Fe  Fe17  1  0.32876431  0.66351199  0.33005579  1
  Fe  Fe18  1  0.66405322  -0.00139167  0.99628445  1
  Fe  Fe19  1  0.82746426  0.16317590  0.16401129  1
  Fe  Fe20  1  0.66353829  0.99594884  0.33090976  1
  Fe  Fe21  1  0.66177749  0.32800107  0.99612181  1
  Fe  Fe22  1  0.82601459  0.49569966  0.16413867  1
  Fe  Fe23  1  0.66317435  0.32972115  0.32911089  1
  Cr  Cr24  1  0.66109403  0.66118229  0.99528679  1
  Fe  Fe25  1  0.82746415  0.83068453  0.16377392  1
  Fe  Fe26  1  0.66329895  0.66419652  0.32864069  1
  Fe  Fe27  1  0.16512443  0.16486064  0.49696117  1
  Fe  Fe28  1  0.99647811  -0.00273397  0.66195708  1
  Cr  Cr29  1  0.16291877  0.16516802  0.82771966  1
  Fe  Fe30  1  0.16448284  0.49491650  0.49630086  1
  Fe  Fe31  1  -0.00018365  0.32878387  0.66261470  1
  Fe  Fe32  1  0.16505511  0.49556371  0.83041397  1
  Fe  Fe33  1  0.16380578  0.83004620  0.49583478  1
  Cr  Cr34  1  -0.00271812  0.66234235  0.66074470  1
  Cr  Cr35  1  0.16356405  0.82959641  0.83308082  1
  Fe  Fe36  1  0.49619439  0.16286198  0.49434758  1
  Cr  Cr37  1  0.33310562  -0.00240763  0.65993718  1
  Fe  Fe38  1  0.49852422  0.16322430  0.83108857  1
  Cr  Cr39  1  0.49614855  0.49706467  0.49268927  1
  Fe  Fe40  1  0.32905889  0.33085835  0.66256153  1
  Fe  Fe41  1  0.49377759  0.49562113  0.83072427  1
  Fe  Fe42  1  0.49873053  0.83090605  0.49448696  1
  Cr  Cr43  1  0.33144586  0.66325269  0.66559192  1
  Fe  Fe44  1  0.49768964  0.83045155  0.83007132  1
  Cr  Cr45  1  0.83083315  0.16218115  0.49922559  1
  Fe  Fe46  1  0.66254151  0.99473174  0.66286002  1
  Fe  Fe47  1  0.82871911  0.16205408  0.82936560  1
  Cr  Cr48  1  0.82888905  0.49803117  0.49689352  1
  Cr  Cr49  1  0.66099579  0.32842645  0.66575807  1
  Cr  Cr50  1  0.83011120  0.49561415  0.82717917  1
  Fe  Fe51  1  0.82753314  0.83059832  0.49702684  1
  Fe  Fe52  1  0.66062398  0.66579877  0.66281928  1
  Cr  Cr53  1  0.82862802  0.83217301  0.82730198  1
" 