984,Fe39Cr61_13,-218.716863493136, 158.596197202003,Fe39Cr61,"# generated using pymatgen
 data_Cr7Fe11
_symmetry_space_group_name_H-M   'P 1'
_cell_length_a   7.53062569
_cell_length_b   7.53062569
_cell_length_c   10.64991298
_cell_angle_alpha   90.00000000
_cell_angle_beta   90.00000000
_cell_angle_gamma   90.00000000
_symmetry_Int_Tables_number   1
_chemical_formula_structural   Cr7Fe11
_chemical_formula_sum   'Cr21 Fe33'
_cell_volume   603.96000839
_cell_formula_units_Z   3
loop_
 _symmetry_equiv_pos_site_id
 _symmetry_equiv_pos_as_xyz
  1  'x, y, z'
loop_
 _atom_site_type_symbol
 _atom_site_label
 _atom_site_symmetry_multiplicity
 _atom_site_fract_x
 _atom_site_fract_y
 _atom_site_fract_z
 _atom_site_occupancy
  Cr  Cr0  1  0.99413289  0.99574667  0.99566158  1
  Fe  Fe1  1  0.16187602  0.16317364  0.16308713  1
  Cr  Cr2  1  -0.00338586  0.99522303  0.32924348  1
  Cr  Cr3  1  -0.00402388  0.32990291  -0.00230201  1
  Fe  Fe4  1  0.16220985  0.49537328  0.16277001  1
  Fe  Fe5  1  -0.00398991  0.32934470  0.32868059  1
  Cr  Cr6  1  0.99495953  0.66168765  0.99560366  1
  Cr  Cr7  1  0.16412024  0.82895041  0.16294935  1
  Cr  Cr8  1  0.99498903  0.66139947  0.33042950  1
  Cr  Cr9  1  0.33080899  -0.00413287  -0.00376170  1
  Cr  Cr10  1  0.49655867  0.16118653  0.16335539  1
  Fe  Fe11  1  0.32878068  0.99545803  0.32943877  1
  Cr  Cr12  1  0.32873673  0.32955871  0.99377969  1
  Cr  Cr13  1  0.49597192  0.49859730  0.16224158  1
  Cr  Cr14  1  0.32819836  0.32792990  0.33005498  1
  Fe  Fe15  1  0.32995884  0.66203752  0.99537202  1
  Fe  Fe16  1  0.49641316  0.82845914  0.16253852  1
  Fe  Fe17  1  0.32918319  0.66316699  0.32919835  1
  Fe  Fe18  1  0.66285872  0.99491035  0.99556073  1
  Fe  Fe19  1  0.82977993  0.16244997  0.16253121  1
  Cr  Cr20  1  0.66125908  0.99510869  0.32791716  1
  Cr  Cr21  1  0.66262523  0.32872837  0.99554559  1
  Fe  Fe22  1  0.82944406  0.49609541  0.16277857  1
  Cr  Cr23  1  0.66312670  0.32956306  0.32899936  1
  Fe  Fe24  1  0.66213328  0.66340616  0.99547043  1
  Fe  Fe25  1  0.82735323  0.82878616  0.16213217  1
  Fe  Fe26  1  0.66278327  0.66276593  0.32879034  1
  Fe  Fe27  1  0.16293741  0.16274720  0.49608369  1
  Fe  Fe28  1  0.99524761  -0.00370235  0.66243787  1
  Fe  Fe29  1  0.16212398  0.16339262  0.82816459  1
  Fe  Fe30  1  0.16180847  0.49516136  0.49576976  1
  Fe  Fe31  1  -0.00370797  0.32881478  0.66285143  1
  Fe  Fe32  1  0.16275216  0.49483774  0.82880218  1
  Fe  Fe33  1  0.16212811  0.82942441  0.49545945  1
  Cr  Cr34  1  0.99433799  0.66261687  0.66130320  1
  Cr  Cr35  1  0.16226373  0.82910810  0.82922646  1
  Fe  Fe36  1  0.49515049  0.16243893  0.49631728  1
  Cr  Cr37  1  0.32957249  -0.00191014  0.66098681  1
  Fe  Fe38  1  0.49631910  0.16234882  0.82855970  1
  Cr  Cr39  1  0.49655934  0.49584422  0.49612326  1
  Fe  Fe40  1  0.32870434  0.32887638  0.66276496  1
  Fe  Fe41  1  0.49599934  0.49619613  0.82880236  1
  Cr  Cr42  1  0.49538020  0.82853866  0.49365197  1
  Cr  Cr43  1  0.32839522  0.66122169  0.66324196  1
  Fe  Fe44  1  0.49735086  0.82879329  0.82934976  1
  Cr  Cr45  1  0.83006976  0.16316832  0.49711889  1
  Fe  Fe46  1  0.66307005  0.99559043  0.66298001  1
  Fe  Fe47  1  0.82889523  0.16203915  0.82808747  1
  Fe  Fe48  1  0.82934414  0.49619469  0.49608190  1
  Fe  Fe49  1  0.66234378  0.32919842  0.66306964  1
  Fe  Fe50  1  0.82857968  0.49587281  0.82848189  1
  Fe  Fe51  1  0.82902966  0.82839079  0.49641103  1
  Fe  Fe52  1  0.66300073  0.66254594  0.66306785  1
  Fe  Fe53  1  0.82753187  0.82942333  0.82878791  1
" 