4802,Fe39Cr61_6,-218.608007299253, 161.868038709661,Fe39Cr61,"# generated using pymatgen
 data_Cr7Fe11
_symmetry_space_group_name_H-M   'P 1'
_cell_length_a   7.51323232
_cell_length_b   7.51323232
_cell_length_c   10.62531505
_cell_angle_alpha   90.00000000
_cell_angle_beta   90.00000000
_cell_angle_gamma   90.00000000
_symmetry_Int_Tables_number   1
_chemical_formula_structural   Cr7Fe11
_chemical_formula_sum   'Cr21 Fe33'
_cell_volume   599.78479547
_cell_formula_units_Z   3
loop_
 _symmetry_equiv_pos_site_id
 _symmetry_equiv_pos_as_xyz
  1  'x, y, z'
loop_
 _atom_site_type_symbol
 _atom_site_label
 _atom_site_symmetry_multiplicity
 _atom_site_fract_x
 _atom_site_fract_y
 _atom_site_fract_z
 _atom_site_occupancy
  Fe  Fe0  1  0.99635403  -0.00219807  0.99646927  1
  Fe  Fe1  1  0.16156892  0.16323780  0.16360867  1
  Fe  Fe2  1  -0.00259521  -0.00184135  0.32942418  1
  Fe  Fe3  1  -0.00195152  0.32866324  -0.00157750  1
  Fe  Fe4  1  0.16416634  0.49545803  0.16152310  1
  Cr  Cr5  1  -0.00274376  0.32832894  0.33110160  1
  Fe  Fe6  1  -0.00129026  0.66344478  -0.00154860  1
  Fe  Fe7  1  0.16339835  0.83127075  0.16301726  1
  Cr  Cr8  1  -0.00052877  0.66271069  0.32973716  1
  Cr  Cr9  1  0.32695465  0.99606436  0.99651674  1
  Cr  Cr10  1  0.49451502  0.16570619  0.16504002  1
  Fe  Fe11  1  0.32837846  -0.00055219  0.32908468  1
  Fe  Fe12  1  0.32942919  0.33216329  -0.00296666  1
  Fe  Fe13  1  0.49607198  0.49647027  0.16274593  1
  Fe  Fe14  1  0.32942331  0.33152447  0.33012557  1
  Fe  Fe15  1  0.32846233  0.66113936  -0.00222988  1
  Cr  Cr16  1  0.49664338  0.83176510  0.16491431  1
  Cr  Cr17  1  0.33117675  0.66314662  0.32848400  1
  Cr  Cr18  1  0.66510551  -0.00248725  0.99149314  1
  Fe  Fe19  1  0.83063746  0.16301195  0.16224213  1
  Fe  Fe20  1  0.66522602  -0.00160365  0.33034841  1
  Fe  Fe21  1  0.66338317  0.32978799  -0.00259738  1
  Fe  Fe22  1  0.83045543  0.49443477  0.16207397  1
  Cr  Cr23  1  0.66314392  0.33081030  0.33002233  1
  Cr  Cr24  1  0.66060949  0.66169115  -0.00288416  1
  Cr  Cr25  1  0.83196480  0.82832892  0.16529707  1
  Fe  Fe26  1  0.66333228  0.66209298  0.32967896  1
  Cr  Cr27  1  0.16774595  0.16565780  0.49775346  1
  Cr  Cr28  1  0.99628690  -0.00101847  0.66531343  1
  Fe  Fe29  1  0.16180945  0.16681015  0.83048131  1
  Fe  Fe30  1  0.16606856  0.49730274  0.49892082  1
  Fe  Fe31  1  -0.00092366  0.33176688  0.66385923  1
  Fe  Fe32  1  0.16566340  0.49469731  0.83073452  1
  Cr  Cr33  1  0.16368084  0.83071325  0.49606039  1
  Fe  Fe34  1  -0.00154886  0.66195679  0.66411966  1
  Cr  Cr35  1  0.16333151  0.82834384  0.83066431  1
  Fe  Fe36  1  0.49799388  0.16431778  0.49668813  1
  Fe  Fe37  1  0.33178481  -0.00292515  0.66478155  1
  Cr  Cr38  1  0.49471243  0.16469105  0.82901996  1
  Fe  Fe39  1  0.49420054  0.49634558  0.49715734  1
  Fe  Fe40  1  0.32942849  0.33233933  0.66389204  1
  Fe  Fe41  1  0.49392788  0.49724726  0.83075558  1
  Cr  Cr42  1  0.49693409  0.83378919  0.49621009  1
  Fe  Fe43  1  0.32902710  0.66186042  0.66355442  1
  Fe  Fe44  1  0.49557814  0.82861669  0.82909454  1
  Fe  Fe45  1  0.82997643  0.16136052  0.49694233  1
  Fe  Fe46  1  0.66328160  -0.00285633  0.66517847  1
  Fe  Fe47  1  0.83259083  0.16474899  0.83077049  1
  Cr  Cr48  1  0.83237665  0.49725678  0.49712867  1
  Cr  Cr49  1  0.66433172  0.32891984  0.66278831  1
  Cr  Cr50  1  0.83316639  0.49696639  0.83266079  1
  Cr  Cr51  1  0.82984721  0.82871616  0.49615267  1
  Cr  Cr52  1  0.66090245  0.66384206  0.66419304  1
  Fe  Fe53  1  0.83056187  0.82999162  0.83000804  1
" 