275,Fe39Cr61_7,-218.622867684077, 158.314750093055,Fe39Cr61,"# generated using pymatgen
 data_Cr7Fe11
_symmetry_space_group_name_H-M   'P 1'
_cell_length_a   7.51491355
_cell_length_b   7.51491355
_cell_length_c   10.62769267
_cell_angle_alpha   90.00000000
_cell_angle_beta   90.00000000
_cell_angle_gamma   90.00000000
_symmetry_Int_Tables_number   1
_chemical_formula_structural   Cr7Fe11
_chemical_formula_sum   'Cr21 Fe33'
_cell_volume   600.18752625
_cell_formula_units_Z   3
loop_
 _symmetry_equiv_pos_site_id
 _symmetry_equiv_pos_as_xyz
  1  'x, y, z'
loop_
 _atom_site_type_symbol
 _atom_site_label
 _atom_site_symmetry_multiplicity
 _atom_site_fract_x
 _atom_site_fract_y
 _atom_site_fract_z
 _atom_site_occupancy
  Fe  Fe0  1  -0.00147151  -0.00208370  -0.00252296  1
  Fe  Fe1  1  0.16322303  0.16244138  0.16073932  1
  Cr  Cr2  1  -0.00187452  -0.00198160  0.33070167  1
  Fe  Fe3  1  -0.00213311  0.32967052  -0.00247607  1
  Cr  Cr4  1  0.16487675  0.49688523  0.16468468  1
  Cr  Cr5  1  0.99563776  0.33047219  0.32844691  1
  Fe  Fe6  1  -0.00287699  0.66245455  0.99632782  1
  Fe  Fe7  1  0.16433487  0.82974391  0.16165436  1
  Fe  Fe8  1  -0.00182301  0.66314024  0.32941986  1
  Fe  Fe9  1  0.33038288  -0.00284945  0.99678886  1
  Fe  Fe10  1  0.49682332  0.16381208  0.16151331  1
  Cr  Cr11  1  0.32994451  -0.00267849  0.32698621  1
  Fe  Fe12  1  0.33006124  0.32897377  -0.00273616  1
  Fe  Fe13  1  0.49703373  0.49780822  0.16252256  1
  Cr  Cr14  1  0.33173378  0.32969457  0.33035278  1
  Fe  Fe15  1  0.33139380  0.66393429  0.99666047  1
  Fe  Fe16  1  0.49491763  0.82890773  0.16129695  1
  Fe  Fe17  1  0.32972898  0.66277143  0.32899984  1
  Fe  Fe18  1  0.66130636  -0.00270420  -0.00282415  1
  Fe  Fe19  1  0.83047021  0.16441148  0.16185507  1
  Cr  Cr20  1  0.66223631  -0.00034361  0.33021271  1
  Cr  Cr21  1  0.66412211  0.33280722  -0.00188481  1
  Fe  Fe22  1  0.83005399  0.49676124  0.16264021  1
  Fe  Fe23  1  0.66269476  0.32894100  0.32865738  1
  Fe  Fe24  1  0.66189617  0.66390744  0.99668142  1
  Cr  Cr25  1  0.82941718  0.83073814  0.16305009  1
  Cr  Cr26  1  0.66314299  0.66080171  0.32814723  1
  Cr  Cr27  1  0.16354498  0.16596717  0.49992792  1
  Fe  Fe28  1  -0.00233513  -0.00259442  0.66397684  1
  Fe  Fe29  1  0.16382098  0.16278098  0.83114587  1
  Fe  Fe30  1  0.16580267  0.49712397  0.49719991  1
  Fe  Fe31  1  0.99631306  0.32921987  0.66370413  1
  Cr  Cr32  1  0.16562133  0.49411903  0.82892602  1
  Cr  Cr33  1  0.16448433  0.82766911  0.49544035  1
  Cr  Cr34  1  -0.00265259  0.66254805  0.66327417  1
  Fe  Fe35  1  0.16387071  0.83085870  0.83180334  1
  Fe  Fe36  1  0.49797617  0.16661909  0.49753673  1
  Cr  Cr37  1  0.32932777  -0.00283803  0.66592642  1
  Fe  Fe38  1  0.49559159  0.16500372  0.83160178  1
  Fe  Fe39  1  0.49505281  0.49539556  0.49791832  1
  Fe  Fe40  1  0.33282538  0.33215276  0.66355751  1
  Fe  Fe41  1  0.49692912  0.49579943  0.83124874  1
  Cr  Cr42  1  0.49609914  0.82846157  0.49596260  1
  Fe  Fe43  1  0.33117169  0.66227957  0.66421181  1
  Fe  Fe44  1  0.49450153  0.82988285  0.83247739  1
  Fe  Fe45  1  0.82926008  0.16529789  0.49822674  1
  Cr  Cr46  1  0.66139871  -0.00248128  0.66209159  1
  Cr  Cr47  1  0.83072145  0.16347204  0.82839859  1
  Cr  Cr48  1  0.82969179  0.49499666  0.49639628  1
  Fe  Fe49  1  0.66162886  0.33024316  0.66391498  1
  Fe  Fe50  1  0.83065904  0.49548997  0.83129691  1
  Cr  Cr51  1  0.82992754  0.83167657  0.49709717  1
  Cr  Cr52  1  0.66246656  0.66118187  0.66774623  1
  Cr  Cr53  1  0.82907178  0.83126144  0.83112065  1
" 