7707,Fe39Cr61_0,-218.535562272487, 162.149303001832,Fe39Cr61,"# generated using pymatgen
 data_Cr7Fe11
_symmetry_space_group_name_H-M   'P 1'
_cell_length_a   7.51253580
_cell_length_b   7.51253580
_cell_length_c   10.62433002
_cell_angle_alpha   90.00000000
_cell_angle_beta   90.00000000
_cell_angle_gamma   90.00000000
_symmetry_Int_Tables_number   1
_chemical_formula_structural   Cr7Fe11
_chemical_formula_sum   'Cr21 Fe33'
_cell_volume   599.61800122
_cell_formula_units_Z   3
loop_
 _symmetry_equiv_pos_site_id
 _symmetry_equiv_pos_as_xyz
  1  'x, y, z'
loop_
 _atom_site_type_symbol
 _atom_site_label
 _atom_site_symmetry_multiplicity
 _atom_site_fract_x
 _atom_site_fract_y
 _atom_site_fract_z
 _atom_site_occupancy
  Cr  Cr0  1  0.99693966  0.99693393  0.00013871  1
  Fe  Fe1  1  0.16260856  0.16620887  0.16313537  1
  Fe  Fe2  1  0.99483931  0.99611844  0.33090943  1
  Fe  Fe3  1  -0.00136677  0.32997646  -0.00167425  1
  Fe  Fe4  1  0.16342887  0.49537973  0.16121140  1
  Cr  Cr5  1  0.99694785  0.32934448  0.33150941  1
  Fe  Fe6  1  -0.00256179  0.66276783  -0.00291813  1
  Cr  Cr7  1  0.16207459  0.82675297  0.16492069  1
  Fe  Fe8  1  0.99554262  0.66480228  0.33277286  1
  Cr  Cr9  1  0.33024760  -0.00131407  0.99497335  1
  Cr  Cr10  1  0.50028867  0.16349536  0.16516949  1
  Cr  Cr11  1  0.32759867  -0.00164876  0.33194110  1
  Fe  Fe12  1  0.32912767  0.33027838  -0.00295397  1
  Cr  Cr13  1  0.49564327  0.49659884  0.16546806  1
  Cr  Cr14  1  0.33062701  0.32950620  0.33118625  1
  Fe  Fe15  1  0.33042505  0.66236103  -0.00301934  1
  Cr  Cr16  1  0.49858017  0.83107526  0.16242365  1
  Cr  Cr17  1  0.32892084  0.66290035  0.33202271  1
  Fe  Fe18  1  0.66393981  -0.00223611  0.99659994  1
  Fe  Fe19  1  0.83058713  0.16161746  0.16454738  1
  Fe  Fe20  1  0.66697061  -0.00240667  0.33172852  1
  Cr  Cr21  1  0.66319696  0.33075536  0.99532872  1
  Cr  Cr22  1  0.83270653  0.49635555  0.16312563  1
  Fe  Fe23  1  0.66474246  0.32982428  0.33314901  1
  Cr  Cr24  1  0.66464980  0.66414400  0.99333203  1
  Fe  Fe25  1  0.82905510  0.83102883  0.16519716  1
  Fe  Fe26  1  0.66636253  0.66350661  0.33170550  1
  Fe  Fe27  1  0.16189779  0.16189846  0.49852134  1
  Fe  Fe28  1  -0.00249276  -0.00026747  0.66161846  1
  Fe  Fe29  1  0.16335953  0.16372540  0.82934172  1
  Fe  Fe30  1  0.16316968  0.49749883  0.49791624  1
  Fe  Fe31  1  -0.00240661  0.32967756  0.66177388  1
  Cr  Cr32  1  0.16243127  0.49552941  0.83411903  1
  Fe  Fe33  1  0.16138268  0.83137182  0.49792088  1
  Cr  Cr34  1  0.99401932  0.66373209  0.66146110  1
  Cr  Cr35  1  0.16568382  0.82935619  0.82681632  1
  Fe  Fe36  1  0.49916183  0.16330756  0.49663977  1
  Fe  Fe37  1  0.33051310  -0.00284320  0.66329614  1
  Fe  Fe38  1  0.49581478  0.16221605  0.82955005  1
  Fe  Fe39  1  0.49858849  0.49710216  0.49643469  1
  Cr  Cr40  1  0.33082104  0.32822238  0.66235753  1
  Fe  Fe41  1  0.49619887  0.49845067  0.82956899  1
  Cr  Cr42  1  0.49690313  0.83041192  0.49891699  1
  Fe  Fe43  1  0.33193257  0.66214785  0.66290388  1
  Fe  Fe44  1  0.49674600  0.83060132  0.82796543  1
  Fe  Fe45  1  0.82988115  0.16159828  0.49745316  1
  Fe  Fe46  1  0.66303129  -0.00281066  0.66300761  1
  Cr  Cr47  1  0.83130113  0.16531892  0.82937986  1
  Fe  Fe48  1  0.82905230  0.49805354  0.49546272  1
  Cr  Cr49  1  0.66430785  0.33340411  0.66240145  1
  Fe  Fe50  1  0.83150439  0.49734330  0.82968252  1
  Fe  Fe51  1  0.83055633  0.83160525  0.49626333  1
  Fe  Fe52  1  0.66169712  0.66350310  0.66412266  1
  Cr  Cr53  1  0.82933688  0.83223400  0.82968933  1
" 