2336,Fe39Cr61_3,-218.445227941273, 165.372717759494,Fe39Cr61,"# generated using pymatgen
 data_Cr7Fe11
_symmetry_space_group_name_H-M   'P 1'
_cell_length_a   7.50946742
_cell_length_b   7.50946742
_cell_length_c   10.61999067
_cell_angle_alpha   90.00000000
_cell_angle_beta   90.00000000
_cell_angle_gamma   90.00000000
_symmetry_Int_Tables_number   1
_chemical_formula_structural   Cr7Fe11
_chemical_formula_sum   'Cr21 Fe33'
_cell_volume   598.88358476
_cell_formula_units_Z   3
loop_
 _symmetry_equiv_pos_site_id
 _symmetry_equiv_pos_as_xyz
  1  'x, y, z'
loop_
 _atom_site_type_symbol
 _atom_site_label
 _atom_site_symmetry_multiplicity
 _atom_site_fract_x
 _atom_site_fract_y
 _atom_site_fract_z
 _atom_site_occupancy
  Fe  Fe0  1  0.99594078  0.99464325  0.99604799  1
  Cr  Cr1  1  0.16018220  0.16223820  0.16250798  1
  Fe  Fe2  1  0.99599303  0.99431919  0.33149715  1
  Cr  Cr3  1  -0.00198563  0.33318278  0.99420176  1
  Fe  Fe4  1  0.16149820  0.49771503  0.16512330  1
  Fe  Fe5  1  -0.00177087  0.33357036  0.33021907  1
  Fe  Fe6  1  0.99667004  0.66428876  -0.00254706  1
  Cr  Cr7  1  0.16370180  0.82703958  0.16357284  1
  Fe  Fe8  1  -0.00158279  0.66321595  0.33196086  1
  Fe  Fe9  1  0.33295541  0.99542938  -0.00249370  1
  Fe  Fe10  1  0.49637426  0.16181375  0.16159453  1
  Cr  Cr11  1  0.33150644  0.00018510  0.33146394  1
  Cr  Cr12  1  0.33049624  0.32783361  -0.00180961  1
  Cr  Cr13  1  0.49527740  0.49947621  0.16293524  1
  Fe  Fe14  1  0.32885950  0.33231361  0.33043034  1
  Fe  Fe15  1  0.33138162  0.66437833  -0.00268339  1
  Fe  Fe16  1  0.49721715  0.83217848  0.16212198  1
  Fe  Fe17  1  0.32895645  0.66258417  0.33108075  1
  Fe  Fe18  1  0.66259591  0.99696771  -0.00200162  1
  Cr  Cr19  1  0.82964353  0.16292447  0.16238919  1
  Cr  Cr20  1  0.66193105  0.99539532  0.33003675  1
  Fe  Fe21  1  0.66366352  0.33123809  -0.00243234  1
  Fe  Fe22  1  0.83444008  0.49892898  0.16340840  1
  Cr  Cr23  1  0.66170186  0.33078228  0.32808025  1
  Cr  Cr24  1  0.66594441  0.66498748  0.99528965  1
  Fe  Fe25  1  0.83182254  0.82970429  0.16258690  1
  Cr  Cr26  1  0.66810696  0.66509298  0.33096365  1
  Cr  Cr27  1  0.16163804  0.16479132  0.49894599  1
  Cr  Cr28  1  -0.00092730  0.99568047  0.66457333  1
  Fe  Fe29  1  0.16546828  0.16330267  0.82953965  1
  Fe  Fe30  1  0.16294268  0.49802704  0.49658134  1
  Fe  Fe31  1  0.99713674  0.33220860  0.66473634  1
  Cr  Cr32  1  0.16646755  0.49961479  0.83043206  1
  Fe  Fe33  1  0.16307546  0.82791548  0.49604871  1
  Cr  Cr34  1  0.99382791  0.66286507  0.66261111  1
  Cr  Cr35  1  0.16617031  0.83081801  0.83297905  1
  Fe  Fe36  1  0.49659796  0.16472300  0.50016081  1
  Fe  Fe37  1  0.33164098  0.99694796  0.66397891  1
  Cr  Cr38  1  0.49984169  0.16423663  0.82883718  1
  Cr  Cr39  1  0.49579726  0.49762492  0.50052505  1
  Fe  Fe40  1  0.32937406  0.33032236  0.66462935  1
  Fe  Fe41  1  0.49880897  0.49864517  0.82883415  1
  Cr  Cr42  1  0.49565957  0.82801252  0.50050687  1
  Fe  Fe43  1  0.32997725  0.66441962  0.66496531  1
  Fe  Fe44  1  0.49823087  0.82982449  0.82905425  1
  Cr  Cr45  1  0.82945923  0.16427330  0.49716206  1
  Fe  Fe46  1  0.66360650  0.99510959  0.66368849  1
  Cr  Cr47  1  0.83125374  0.16418392  0.83094651  1
  Fe  Fe48  1  0.83183593  0.49693571  0.49729094  1
  Fe  Fe49  1  0.66515994  0.33244932  0.66370515  1
  Fe  Fe50  1  0.82823408  0.49790452  0.82923536  1
  Fe  Fe51  1  0.83166028  0.82964741  0.49716200  1
  Fe  Fe52  1  0.66404145  0.66416027  0.66612331  1
  Fe  Fe53  1  0.82898072  0.83040970  0.83068310  1
" 