5822,Fe39Cr61_5,-218.532179245189, 162.740967151052,Fe39Cr61,"# generated using pymatgen
 data_Cr7Fe11
_symmetry_space_group_name_H-M   'P 1'
_cell_length_a   7.51161955
_cell_length_b   7.51161955
_cell_length_c   10.62303425
_cell_angle_alpha   90.00000000
_cell_angle_beta   90.00000000
_cell_angle_gamma   90.00000000
_symmetry_Int_Tables_number   1
_chemical_formula_structural   Cr7Fe11
_chemical_formula_sum   'Cr21 Fe33'
_cell_volume   599.39863478
_cell_formula_units_Z   3
loop_
 _symmetry_equiv_pos_site_id
 _symmetry_equiv_pos_as_xyz
  1  'x, y, z'
loop_
 _atom_site_type_symbol
 _atom_site_label
 _atom_site_symmetry_multiplicity
 _atom_site_fract_x
 _atom_site_fract_y
 _atom_site_fract_z
 _atom_site_occupancy
  Fe  Fe0  1  -0.00279602  0.99499938  0.99540284  1
  Cr  Cr1  1  0.16020384  0.16438260  0.16267433  1
  Fe  Fe2  1  -0.00288476  0.99654196  0.33118316  1
  Fe  Fe3  1  0.99582646  0.33200869  0.99548120  1
  Cr  Cr4  1  0.16204979  0.49720199  0.16350514  1
  Fe  Fe5  1  0.99554223  0.33068945  0.33144147  1
  Fe  Fe6  1  0.99401496  0.66420474  0.99610312  1
  Fe  Fe7  1  0.16130419  0.83021694  0.16344556  1
  Fe  Fe8  1  0.99621123  0.66397582  0.33088184  1
  Fe  Fe9  1  0.33022672  -0.00285108  0.99608246  1
  Fe  Fe10  1  0.49842625  0.16309663  0.16309763  1
  Cr  Cr11  1  0.32823277  -0.00231219  0.32804332  1
  Cr  Cr12  1  0.33219126  0.32868867  -0.00275591  1
  Cr  Cr13  1  0.49815033  0.49986001  0.16604328  1
  Cr  Cr14  1  0.33203785  0.32870833  0.33142438  1
  Cr  Cr15  1  0.32761183  0.66546100  0.99566293  1
  Cr  Cr16  1  0.49774067  0.83004202  0.16241921  1
  Fe  Fe17  1  0.32967496  0.66435021  0.33071703  1
  Fe  Fe18  1  0.66282868  0.99623008  0.99464698  1
  Cr  Cr19  1  0.83048956  0.16421027  0.16194813  1
  Cr  Cr20  1  0.66420831  -0.00224578  0.33220756  1
  Cr  Cr21  1  0.66394820  0.33123786  0.99646347  1
  Fe  Fe22  1  0.83055390  0.49804347  0.16438857  1
  Fe  Fe23  1  0.66578787  0.33133753  0.33156807  1
  Fe  Fe24  1  0.66490865  0.66419867  0.99438549  1
  Cr  Cr25  1  0.82847402  0.83087173  0.16458900  1
  Fe  Fe26  1  0.66544231  0.66200106  0.33247873  1
  Fe  Fe27  1  0.16332318  0.16200326  0.49823305  1
  Fe  Fe28  1  0.99544485  0.99543573  0.66438035  1
  Cr  Cr29  1  0.16078535  0.16474989  0.82855261  1
  Cr  Cr30  1  0.16407420  0.49625998  0.49894350  1
  Fe  Fe31  1  0.99461245  0.33125856  0.66354919  1
  Cr  Cr32  1  0.16305028  0.49706475  0.82879220  1
  Cr  Cr33  1  0.16484281  0.82951694  0.49816274  1
  Fe  Fe34  1  0.99660676  0.66433929  0.66450158  1
  Fe  Fe35  1  0.16252649  0.83165149  0.82866610  1
  Fe  Fe36  1  0.49668555  0.16235988  0.49762594  1
  Fe  Fe37  1  0.33161634  0.99599699  0.66445686  1
  Fe  Fe38  1  0.49753746  0.16091076  0.83001170  1
  Fe  Fe39  1  0.49901772  0.49734516  0.49574994  1
  Cr  Cr40  1  0.33209072  0.32907050  0.66249834  1
  Fe  Fe41  1  0.49756644  0.49827618  0.83048475  1
  Cr  Cr42  1  0.49863753  0.82862646  0.49819239  1
  Fe  Fe43  1  0.33182627  0.66446488  0.66585071  1
  Fe  Fe44  1  0.49684529  0.83184295  0.82999209  1
  Cr  Cr45  1  0.83194755  0.16295510  0.49862391  1
  Fe  Fe46  1  0.66387096  -0.00287605  0.66503870  1
  Fe  Fe47  1  0.82952143  0.16249917  0.83018796  1
  Fe  Fe48  1  0.83065802  0.49872761  0.49587883  1
  Cr  Cr49  1  0.66313031  0.33102059  0.66355442  1
  Fe  Fe50  1  0.83137502  0.49702205  0.83087903  1
  Fe  Fe51  1  0.83265071  0.82861622  0.49706978  1
  Cr  Cr52  1  0.66716838  0.66395153  0.66502038  1
  Fe  Fe53  1  0.83197109  0.83154927  0.83136315  1
" 