2960,Fe39Cr61_16,-218.578207012714, 160.812239300056,Fe39Cr61,"# generated using pymatgen
 data_Cr7Fe11
_symmetry_space_group_name_H-M   'P 1'
_cell_length_a   7.51114959
_cell_length_b   7.51114959
_cell_length_c   10.62236962
_cell_angle_alpha   90.00000000
_cell_angle_beta   90.00000000
_cell_angle_gamma   90.00000000
_symmetry_Int_Tables_number   1
_chemical_formula_structural   Cr7Fe11
_chemical_formula_sum   'Cr21 Fe33'
_cell_volume   599.28613788
_cell_formula_units_Z   3
loop_
 _symmetry_equiv_pos_site_id
 _symmetry_equiv_pos_as_xyz
  1  'x, y, z'
loop_
 _atom_site_type_symbol
 _atom_site_label
 _atom_site_symmetry_multiplicity
 _atom_site_fract_x
 _atom_site_fract_y
 _atom_site_fract_z
 _atom_site_occupancy
  Fe  Fe0  1  -0.00228675  -0.00055933  -0.00261118  1
  Fe  Fe1  1  0.15979549  0.16160345  0.16283173  1
  Fe  Fe2  1  0.99631191  -0.00027181  0.32946906  1
  Fe  Fe3  1  -0.00292936  0.32986578  0.99596463  1
  Cr  Cr4  1  0.16114742  0.49301330  0.16393658  1
  Fe  Fe5  1  0.99574220  0.32893988  0.33035216  1
  Fe  Fe6  1  0.99513489  0.66141103  -0.00290136  1
  Fe  Fe7  1  0.16173749  0.83301625  0.16158719  1
  Cr  Cr8  1  0.99675083  0.66453567  0.33042856  1
  Fe  Fe9  1  0.32962924  -0.00152441  0.99596075  1
  Cr  Cr10  1  0.49621822  0.16374744  0.16376223  1
  Cr  Cr11  1  0.32818010  0.99570361  0.32736494  1
  Cr  Cr12  1  0.33070534  0.33038514  0.99480232  1
  Fe  Fe13  1  0.49990716  0.49814634  0.16321918  1
  Cr  Cr14  1  0.33215411  0.33202116  0.33176371  1
  Cr  Cr15  1  0.32780536  0.66511845  -0.00227729  1
  Cr  Cr16  1  0.49957808  0.82952464  0.16126397  1
  Cr  Cr17  1  0.32860388  0.66327060  0.32926597  1
  Fe  Fe18  1  0.66346253  -0.00260955  0.99512400  1
  Fe  Fe19  1  0.83390684  0.16418576  0.16307195  1
  Cr  Cr20  1  0.66688470  -0.00035355  0.33460736  1
  Cr  Cr21  1  0.66689203  0.33006915  0.99668389  1
  Fe  Fe22  1  0.82917636  0.49644304  0.16307728  1
  Cr  Cr23  1  0.66628267  0.33136066  0.33079640  1
  Fe  Fe24  1  0.66421742  0.66197765  0.99569952  1
  Cr  Cr25  1  0.82954068  0.82959335  0.16326074  1
  Fe  Fe26  1  0.66403432  0.66189935  0.33100385  1
  Cr  Cr27  1  0.16236915  0.16704597  0.49685010  1
  Fe  Fe28  1  0.99578704  -0.00102428  0.66391049  1
  Fe  Fe29  1  0.16135168  0.16513693  0.82998984  1
  Fe  Fe30  1  0.16298286  0.49713390  0.49939920  1
  Fe  Fe31  1  -0.00254900  0.33075853  0.66480545  1
  Fe  Fe32  1  0.16171133  0.49606669  0.82905542  1
  Cr  Cr33  1  0.16172489  0.83093407  0.49771812  1
  Fe  Fe34  1  0.99585322  0.66156217  0.66300650  1
  Cr  Cr35  1  0.16220158  0.83017700  0.83083860  1
  Fe  Fe36  1  0.49625817  0.16511260  0.49777220  1
  Cr  Cr37  1  0.33106058  0.99703311  0.66614359  1
  Fe  Fe38  1  0.49700717  0.16262114  0.83158107  1
  Fe  Fe39  1  0.49667671  0.49677873  0.49885578  1
  Fe  Fe40  1  0.32991391  0.33226633  0.66484748  1
  Fe  Fe41  1  0.49737424  0.49925168  0.82913595  1
  Cr  Cr42  1  0.49985539  0.82795985  0.49778410  1
  Fe  Fe43  1  0.33131648  0.66030238  0.66455902  1
  Fe  Fe44  1  0.49779889  0.82945028  0.83128296  1
  Fe  Fe45  1  0.83276643  0.16409167  0.49767495  1
  Cr  Cr46  1  0.66563936  -0.00062839  0.66347195  1
  Fe  Fe47  1  0.83337640  0.16406154  0.83116932  1
  Fe  Fe48  1  0.83163976  0.49805236  0.49808332  1
  Cr  Cr49  1  0.66435347  0.32929559  0.66389266  1
  Fe  Fe50  1  0.83234382  0.49698742  0.83013219  1
  Fe  Fe51  1  0.83190480  0.82946828  0.49847029  1
  Fe  Fe52  1  0.66378736  0.66211716  0.66391976  1
  Cr  Cr53  1  0.82837972  0.82894277  0.82961008  1
" 