48,Fe39Cr61_11,-218.660307709411, 154.899232188282,Fe39Cr61,"# generated using pymatgen
 data_Cr7Fe11
_symmetry_space_group_name_H-M   'P 1'
_cell_length_a   7.51690484
_cell_length_b   7.51690484
_cell_length_c   10.63050877
_cell_angle_alpha   90.00000000
_cell_angle_beta   90.00000000
_cell_angle_gamma   90.00000000
_symmetry_Int_Tables_number   1
_chemical_formula_structural   Cr7Fe11
_chemical_formula_sum   'Cr21 Fe33'
_cell_volume   600.66476140
_cell_formula_units_Z   3
loop_
 _symmetry_equiv_pos_site_id
 _symmetry_equiv_pos_as_xyz
  1  'x, y, z'
loop_
 _atom_site_type_symbol
 _atom_site_label
 _atom_site_symmetry_multiplicity
 _atom_site_fract_x
 _atom_site_fract_y
 _atom_site_fract_z
 _atom_site_occupancy
  Fe  Fe0  1  0.99652076  -0.00298643  0.99590296  1
  Fe  Fe1  1  0.16214212  0.16410088  0.16257611  1
  Fe  Fe2  1  -0.00303312  0.99611710  0.33036945  1
  Fe  Fe3  1  -0.00259894  0.33036862  0.99613350  1
  Fe  Fe4  1  0.16296630  0.49584461  0.16087929  1
  Cr  Cr5  1  -0.00323232  0.33048367  0.32927795  1
  Fe  Fe6  1  0.99548650  0.66272961  -0.00305935  1
  Cr  Cr7  1  0.16153504  0.83044597  0.16468672  1
  Cr  Cr8  1  0.99530327  0.66339014  0.33084532  1
  Cr  Cr9  1  0.33015431  -0.00274715  -0.00101316  1
  Cr  Cr10  1  0.49748460  0.16452825  0.16537877  1
  Fe  Fe11  1  0.32797420  0.99610138  0.32936632  1
  Fe  Fe12  1  0.32926011  0.33198544  -0.00317986  1
  Fe  Fe13  1  0.49807993  0.49830364  0.16209971  1
  Cr  Cr14  1  0.32804309  0.33054723  0.32887336  1
  Fe  Fe15  1  0.33094261  0.66188683  -0.00299927  1
  Fe  Fe16  1  0.49883164  0.82847412  0.16333088  1
  Cr  Cr17  1  0.32984790  0.66356186  0.33031067  1
  Cr  Cr18  1  0.66373860  0.99408847  0.99216690  1
  Cr  Cr19  1  0.82980188  0.16395542  0.16271630  1
  Cr  Cr20  1  0.66435989  0.99473840  0.33240416  1
  Fe  Fe21  1  0.66362925  0.33205690  0.99581193  1
  Fe  Fe22  1  0.82879803  0.49832652  0.16195364  1
  Fe  Fe23  1  0.66419545  0.33224725  0.32893443  1
  Fe  Fe24  1  0.66323009  0.66171602  0.99613124  1
  Fe  Fe25  1  0.82854382  0.82913454  0.16235317  1
  Fe  Fe26  1  0.66353105  0.66241394  0.32800416  1
  Cr  Cr27  1  0.16249511  0.16145544  0.49602927  1
  Fe  Fe28  1  0.99367361  -0.00323798  0.66359957  1
  Fe  Fe29  1  0.16177399  0.16464595  0.83001135  1
  Cr  Cr30  1  0.16274934  0.49898627  0.50178042  1
  Fe  Fe31  1  -0.00289233  0.32909147  0.66515776  1
  Fe  Fe32  1  0.16335558  0.49501579  0.82989750  1
  Fe  Fe33  1  0.16111041  0.83026563  0.49762001  1
  Fe  Fe34  1  0.99576459  0.66407866  0.66412278  1
  Cr  Cr35  1  0.16196037  0.82813741  0.82893335  1
  Cr  Cr36  1  0.49836264  0.16435268  0.49547702  1
  Cr  Cr37  1  0.33070392  0.99627494  0.66268687  1
  Cr  Cr38  1  0.49761639  0.16488093  0.82866578  1
  Cr  Cr39  1  0.49738616  0.49585434  0.49631529  1
  Fe  Fe40  1  0.32898587  0.33113969  0.66501493  1
  Fe  Fe41  1  0.49550712  0.49813192  0.83084407  1
  Cr  Cr42  1  0.49540906  0.82974634  0.49698788  1
  Fe  Fe43  1  0.33022503  0.66215727  0.66501211  1
  Fe  Fe44  1  0.49606017  0.82790052  0.82988441  1
  Fe  Fe45  1  0.83125233  0.16179115  0.49704912  1
  Fe  Fe46  1  0.66648210  0.99622969  0.66408991  1
  Fe  Fe47  1  0.83337835  0.16351580  0.83021162  1
  Cr  Cr48  1  0.82972699  0.49663270  0.49504330  1
  Cr  Cr49  1  0.66593632  0.32910668  0.66271531  1
  Fe  Fe50  1  0.83142917  0.49670442  0.83108261  1
  Fe  Fe51  1  0.83201830  0.83160861  0.49799855  1
  Cr  Cr52  1  0.66416058  0.66504557  0.66463860  1
  Fe  Fe53  1  0.83075042  0.82959255  0.82979296  1
" 