8392,Fe39Cr61_18,-218.462389019073, 154.14672950411,Fe39Cr61,"# generated using pymatgen
 data_Cr7Fe11
_symmetry_space_group_name_H-M   'P 1'
_cell_length_a   7.52962634
_cell_length_b   7.52962634
_cell_length_c   10.64849968
_cell_angle_alpha   90.00000000
_cell_angle_beta   90.00000000
_cell_angle_gamma   90.00000000
_symmetry_Int_Tables_number   1
_chemical_formula_structural   Cr7Fe11
_chemical_formula_sum   'Cr21 Fe33'
_cell_volume   603.71959416
_cell_formula_units_Z   3
loop_
 _symmetry_equiv_pos_site_id
 _symmetry_equiv_pos_as_xyz
  1  'x, y, z'
loop_
 _atom_site_type_symbol
 _atom_site_label
 _atom_site_symmetry_multiplicity
 _atom_site_fract_x
 _atom_site_fract_y
 _atom_site_fract_z
 _atom_site_occupancy
  Cr  Cr0  1  -0.00379248  0.99524215  0.99537048  1
  Cr  Cr1  1  0.16234880  0.16343489  0.16208340  1
  Cr  Cr2  1  -0.00326999  0.99463014  0.32939153  1
  Cr  Cr3  1  0.99407864  0.32966903  -0.00237383  1
  Cr  Cr4  1  0.16249305  0.49546150  0.16400923  1
  Fe  Fe5  1  0.99533878  0.33017557  0.32943987  1
  Cr  Cr6  1  -0.00404054  0.66262438  0.99512868  1
  Cr  Cr7  1  0.16398883  0.82863378  0.16270198  1
  Fe  Fe8  1  0.99535278  0.66127581  0.33018612  1
  Fe  Fe9  1  0.33012475  0.99549285  0.99546566  1
  Fe  Fe10  1  0.49611568  0.16203726  0.16127712  1
  Fe  Fe11  1  0.32930367  -0.00405544  0.32992385  1
  Fe  Fe12  1  0.33048139  0.32916514  -0.00406506  1
  Cr  Cr13  1  0.49600242  0.49680983  0.16098963  1
  Cr  Cr14  1  0.32929628  0.32815443  0.33051645  1
  Fe  Fe15  1  0.33009403  0.66287747  0.99472032  1
  Cr  Cr16  1  0.49614127  0.82891715  0.16231609  1
  Fe  Fe17  1  0.32857426  0.66335969  0.32992708  1
  Fe  Fe18  1  0.66158233  -0.00376019  -0.00367801  1
  Fe  Fe19  1  0.82803602  0.16363368  0.16214074  1
  Cr  Cr20  1  0.66123394  -0.00377386  0.32864541  1
  Fe  Fe21  1  0.66232039  0.32952669  -0.00366676  1
  Fe  Fe22  1  0.82888570  0.49557072  0.16290442  1
  Cr  Cr23  1  0.66274561  0.32938125  0.32769000  1
  Fe  Fe24  1  0.66197645  0.66176894  0.99510054  1
  Cr  Cr25  1  0.82740837  0.82905762  0.16374316  1
  Fe  Fe26  1  0.66360468  0.66212041  0.32955558  1
  Fe  Fe27  1  0.16345525  0.16251090  0.49658099  1
  Fe  Fe28  1  -0.00342548  0.99510394  0.66178461  1
  Cr  Cr29  1  0.16223080  0.16255522  0.82829214  1
  Fe  Fe30  1  0.16141099  0.49620208  0.49618987  1
  Fe  Fe31  1  0.99583930  0.32991557  0.66188489  1
  Cr  Cr32  1  0.16425512  0.49598107  0.82898684  1
  Fe  Fe33  1  0.16216867  0.82881434  0.49608789  1
  Fe  Fe34  1  0.99583879  0.66251383  0.66189854  1
  Fe  Fe35  1  0.16399605  0.82938050  0.82854815  1
  Fe  Fe36  1  0.49475320  0.16213573  0.49705704  1
  Fe  Fe37  1  0.32882773  0.99548844  0.66213416  1
  Cr  Cr38  1  0.49614537  0.16281039  0.82906079  1
  Cr  Cr39  1  0.49523360  0.49669632  0.49679303  1
  Fe  Fe40  1  0.32919537  0.32916191  0.66166802  1
  Fe  Fe41  1  0.49668307  0.49646278  0.82920163  1
  Cr  Cr42  1  0.49634252  0.82897204  0.49478039  1
  Fe  Fe43  1  0.32881543  0.66288511  0.66288444  1
  Fe  Fe44  1  0.49500406  0.82856271  0.82920743  1
  Cr  Cr45  1  0.83028298  0.16238314  0.49816799  1
  Fe  Fe46  1  0.66213259  0.99549119  0.66202667  1
  Cr  Cr47  1  0.82915661  0.16239490  0.82884186  1
  Fe  Fe48  1  0.83015873  0.49704172  0.49619058  1
  Fe  Fe49  1  0.66250169  0.32989902  0.66240592  1
  Fe  Fe50  1  0.82770210  0.49563684  0.82843723  1
  Fe  Fe51  1  0.82978200  0.82760789  0.49657409  1
  Fe  Fe52  1  0.66287986  0.66214368  0.66287003  1
  Cr  Cr53  1  0.82781149  0.82942086  0.82760402  1
" 