325,Fe39Cr61_15,-218.83357775972, 156.482876401725,Fe39Cr61,"# generated using pymatgen
 data_Cr7Fe11
_symmetry_space_group_name_H-M   'P 1'
_cell_length_a   7.52155081
_cell_length_b   7.52155081
_cell_length_c   10.63707917
_cell_angle_alpha   90.00000000
_cell_angle_beta   90.00000000
_cell_angle_gamma   90.00000000
_symmetry_Int_Tables_number   1
_chemical_formula_structural   Cr7Fe11
_chemical_formula_sum   'Cr21 Fe33'
_cell_volume   601.77920897
_cell_formula_units_Z   3
loop_
 _symmetry_equiv_pos_site_id
 _symmetry_equiv_pos_as_xyz
  1  'x, y, z'
loop_
 _atom_site_type_symbol
 _atom_site_label
 _atom_site_symmetry_multiplicity
 _atom_site_fract_x
 _atom_site_fract_y
 _atom_site_fract_z
 _atom_site_occupancy
  Fe  Fe0  1  -0.00282336  -0.00262265  -0.00354684  1
  Fe  Fe1  1  0.15962633  0.16164421  0.16093817  1
  Fe  Fe2  1  -0.00223984  0.99588421  0.32942902  1
  Fe  Fe3  1  0.99505907  0.32959526  0.99613652  1
  Fe  Fe4  1  0.16235835  0.49766667  0.16142772  1
  Cr  Cr5  1  -0.00152553  0.32906567  0.32785549  1
  Fe  Fe6  1  -0.00072390  0.66208684  0.99583107  1
  Fe  Fe7  1  0.16298888  0.82989961  0.16086913  1
  Cr  Cr8  1  -0.00352352  0.66406463  0.33403226  1
  Fe  Fe9  1  0.32873656  0.99528035  -0.00243630  1
  Cr  Cr10  1  0.49715319  0.16314272  0.16376911  1
  Cr  Cr11  1  0.32793959  -0.00274017  0.32832063  1
  Cr  Cr12  1  0.32937064  0.32986072  -0.00229533  1
  Fe  Fe13  1  0.49651644  0.49682587  0.16209646  1
  Cr  Cr14  1  0.33054544  0.33031747  0.32918659  1
  Fe  Fe15  1  0.32746215  0.66342417  -0.00257859  1
  Fe  Fe16  1  0.49503883  0.82928693  0.16115287  1
  Cr  Cr17  1  0.32984005  0.66154598  0.32718398  1
  Fe  Fe18  1  0.66300345  -0.00061337  -0.00327698  1
  Fe  Fe19  1  0.83084980  0.16267957  0.16157206  1
  Cr  Cr20  1  0.66389136  0.99618763  0.33055089  1
  Fe  Fe21  1  0.66383265  0.32798481  0.99480690  1
  Cr  Cr22  1  0.82990108  0.49477860  0.16311834  1
  Fe  Fe23  1  0.66217087  0.33066034  0.33027141  1
  Cr  Cr24  1  0.66220428  0.66230474  -0.00290630  1
  Cr  Cr25  1  0.83041836  0.82994620  0.16413867  1
  Cr  Cr26  1  0.66266281  0.66173578  0.33150793  1
  Cr  Cr27  1  0.16450988  0.16446909  0.49626152  1
  Cr  Cr28  1  0.99610214  0.99570703  0.66131996  1
  Cr  Cr29  1  0.16307886  0.16444728  0.82876466  1
  Fe  Fe30  1  0.16463536  0.49639363  0.49803714  1
  Fe  Fe31  1  0.99514517  0.33114127  0.66333142  1
  Fe  Fe32  1  0.16332678  0.49838222  0.82990742  1
  Fe  Fe33  1  0.16417598  0.82964448  0.49668315  1
  Cr  Cr34  1  -0.00349005  0.66217035  0.66232058  1
  Fe  Fe35  1  0.16325667  0.82883779  0.83077112  1
  Fe  Fe36  1  0.49692158  0.16480994  0.49825011  1
  Fe  Fe37  1  0.33060763  -0.00357156  0.66317898  1
  Fe  Fe38  1  0.49803409  0.16398817  0.82950196  1
  Fe  Fe39  1  0.49578341  0.49285878  0.49779359  1
  Fe  Fe40  1  0.33093052  0.33155506  0.66328112  1
  Fe  Fe41  1  0.49567340  0.49482670  0.82890888  1
  Cr  Cr42  1  0.49508942  0.82972617  0.49712766  1
  Fe  Fe43  1  0.32876546  0.66187307  0.66329838  1
  Cr  Cr44  1  0.49439276  0.83025679  0.83098850  1
  Cr  Cr45  1  0.82984649  0.16494264  0.49471803  1
  Fe  Fe46  1  0.66207909  -0.00123848  0.66324304  1
  Fe  Fe47  1  0.82804452  0.16436889  0.82982621  1
  Fe  Fe48  1  0.82935208  0.49414198  0.49664118  1
  Fe  Fe49  1  0.66309700  0.32874163  0.66396538  1
  Fe  Fe50  1  0.83046462  0.49345578  0.83064216  1
  Fe  Fe51  1  0.83051751  0.83096363  0.49667159  1
  Cr  Cr52  1  0.66439769  0.66206357  0.66152938  1
  Cr  Cr53  1  0.82887854  0.82950197  0.83023264  1
" 