1642,Fe39Cr61_14,-218.598111147303, 158.854869623888,Fe39Cr61,"# generated using pymatgen
 data_Cr7Fe11
_symmetry_space_group_name_H-M   'P 1'
_cell_length_a   7.51718026
_cell_length_b   7.51718026
_cell_length_c   10.63089828
_cell_angle_alpha   90.00000000
_cell_angle_beta   90.00000000
_cell_angle_gamma   90.00000000
_symmetry_Int_Tables_number   1
_chemical_formula_structural   Cr7Fe11
_chemical_formula_sum   'Cr21 Fe33'
_cell_volume   600.73079019
_cell_formula_units_Z   3
loop_
 _symmetry_equiv_pos_site_id
 _symmetry_equiv_pos_as_xyz
  1  'x, y, z'
loop_
 _atom_site_type_symbol
 _atom_site_label
 _atom_site_symmetry_multiplicity
 _atom_site_fract_x
 _atom_site_fract_y
 _atom_site_fract_z
 _atom_site_occupancy
  Fe  Fe0  1  -0.00320592  0.99362482  0.99576351  1
  Cr  Cr1  1  0.16390412  0.16389824  0.16312109  1
  Cr  Cr2  1  -0.00236305  0.99354397  0.33074318  1
  Cr  Cr3  1  0.99422626  0.33090727  0.99384832  1
  Cr  Cr4  1  0.15945608  0.49834722  0.16571991  1
  Cr  Cr5  1  0.99329850  0.33102365  0.33045769  1
  Fe  Fe6  1  0.99655003  0.66424960  0.99482053  1
  Fe  Fe7  1  0.16367882  0.83005078  0.16230959  1
  Fe  Fe8  1  0.99555628  0.66390633  0.33270005  1
  Fe  Fe9  1  0.32913106  0.99509574  0.99540484  1
  Cr  Cr10  1  0.49414051  0.15987860  0.16468745  1
  Fe  Fe11  1  0.33087950  0.99449604  0.33150342  1
  Cr  Cr12  1  0.33058537  0.33231236  0.99511097  1
  Fe  Fe13  1  0.49392899  0.49656205  0.16333307  1
  Fe  Fe14  1  0.33033751  0.33173756  0.33147166  1
  Fe  Fe15  1  0.32847186  0.66321433  0.99506422  1
  Cr  Cr16  1  0.49806596  0.82762523  0.15997589  1
  Fe  Fe17  1  0.32868437  0.66473432  0.33121049  1
  Fe  Fe18  1  0.66548296  0.99513534  0.99547096  1
  Cr  Cr19  1  0.83137920  0.16296435  0.16069028  1
  Cr  Cr20  1  0.66469593  -0.00328647  0.33042097  1
  Cr  Cr21  1  0.66171478  0.32978519  -0.00257732  1
  Fe  Fe22  1  0.82801138  0.50015428  0.16222644  1
  Cr  Cr23  1  0.66098462  0.33002386  0.32937497  1
  Fe  Fe24  1  0.66587139  0.66153031  0.99617029  1
  Fe  Fe25  1  0.83334884  0.82768331  0.16144060  1
  Cr  Cr26  1  0.66279889  0.66259449  0.32971642  1
  Cr  Cr27  1  0.16404247  0.16619666  0.49653663  1
  Fe  Fe28  1  -0.00320207  0.99648248  0.66267209  1
  Cr  Cr29  1  0.16107227  0.16399058  0.83018786  1
  Fe  Fe30  1  0.16430772  0.49902778  0.49585795  1
  Cr  Cr31  1  0.99431629  0.33109570  0.66599367  1
  Fe  Fe32  1  0.16361666  0.49996750  0.83082335  1
  Fe  Fe33  1  0.16505242  0.83034188  0.49666655  1
  Cr  Cr34  1  -0.00065665  0.66596122  0.66234664  1
  Fe  Fe35  1  0.16379184  0.83147145  0.83141932  1
  Fe  Fe36  1  0.49704119  0.16400982  0.49937291  1
  Fe  Fe37  1  0.32750210  0.99617803  0.66293967  1
  Cr  Cr38  1  0.49582373  0.16048281  0.82619251  1
  Fe  Fe39  1  0.49526872  0.49495949  0.49794059  1
  Fe  Fe40  1  0.32966049  0.33190313  0.66349155  1
  Fe  Fe41  1  0.49860621  0.49544936  0.82900794  1
  Cr  Cr42  1  0.49945815  0.82985654  0.49946855  1
  Cr  Cr43  1  0.33100553  0.66299994  0.66588813  1
  Cr  Cr44  1  0.50126607  0.82777860  0.83064381  1
  Fe  Fe45  1  0.82797314  0.16297259  0.49897122  1
  Fe  Fe46  1  0.66753167  0.99608682  0.66271347  1
  Fe  Fe47  1  0.82735105  0.16046995  0.82942496  1
  Fe  Fe48  1  0.82863689  0.49719390  0.49796727  1
  Fe  Fe49  1  0.66221150  0.33158805  0.66261525  1
  Fe  Fe50  1  0.82692964  0.49951186  0.82946480  1
  Fe  Fe51  1  0.83216643  0.82988613  0.49807958  1
  Fe  Fe52  1  0.66663785  0.66113585  0.66327136  1
  Fe  Fe53  1  0.83290934  0.83114402  0.82979781  1
" 