5891,Fe39Cr61_9,-218.670076650293, 156.156905648667,Fe39Cr61,"# generated using pymatgen
 data_Cr7Fe11
_symmetry_space_group_name_H-M   'P 1'
_cell_length_a   7.52413687
_cell_length_b   7.52413687
_cell_length_c   10.64073641
_cell_angle_alpha   90.00000000
_cell_angle_beta   90.00000000
_cell_angle_gamma   90.00000000
_symmetry_Int_Tables_number   1
_chemical_formula_structural   Cr7Fe11
_chemical_formula_sum   'Cr21 Fe33'
_cell_volume   602.40013287
_cell_formula_units_Z   3
loop_
 _symmetry_equiv_pos_site_id
 _symmetry_equiv_pos_as_xyz
  1  'x, y, z'
loop_
 _atom_site_type_symbol
 _atom_site_label
 _atom_site_symmetry_multiplicity
 _atom_site_fract_x
 _atom_site_fract_y
 _atom_site_fract_z
 _atom_site_occupancy
  Fe  Fe0  1  0.99613416  -0.00353867  0.99601569  1
  Fe  Fe1  1  0.16156873  0.16210760  0.16415524  1
  Fe  Fe2  1  -0.00222751  -0.00373047  0.32786691  1
  Fe  Fe3  1  -0.00356432  0.32868193  -0.00299727  1
  Fe  Fe4  1  0.16149154  0.49647721  0.16383083  1
  Fe  Fe5  1  -0.00164928  0.33016247  0.32814996  1
  Fe  Fe6  1  0.99453627  0.66328303  -0.00321612  1
  Fe  Fe7  1  0.16064028  0.83000664  0.16394161  1
  Fe  Fe8  1  -0.00140708  0.66223200  0.32828277  1
  Cr  Cr9  1  0.32614273  -0.00362229  0.99387431  1
  Fe  Fe10  1  0.49535978  0.16206701  0.16408116  1
  Fe  Fe11  1  0.32735092  -0.00327944  0.32853619  1
  Cr  Cr12  1  0.32917949  0.32836375  -0.00130063  1
  Fe  Fe13  1  0.49497376  0.49607133  0.16324754  1
  Fe  Fe14  1  0.32700892  0.32992042  0.32773255  1
  Cr  Cr15  1  0.32758106  0.66369120  -0.00247184  1
  Cr  Cr16  1  0.49651394  0.83028335  0.16334267  1
  Fe  Fe17  1  0.32661950  0.66205402  0.32839269  1
  Cr  Cr18  1  0.66359580  -0.00305761  0.99427037  1
  Fe  Fe19  1  0.83152622  0.16153606  0.16334536  1
  Fe  Fe20  1  0.66362147  -0.00334075  0.32730709  1
  Cr  Cr21  1  0.66429030  0.33145473  -0.00243667  1
  Fe  Fe22  1  0.83219446  0.49715614  0.16216383  1
  Cr  Cr23  1  0.66327063  0.33012706  0.32773958  1
  Fe  Fe24  1  0.66459415  0.66332836  -0.00354069  1
  Fe  Fe25  1  0.83216279  0.83002136  0.16275514  1
  Cr  Cr26  1  0.66442222  0.66076421  0.32812714  1
  Fe  Fe27  1  0.16314906  0.16404132  0.49499765  1
  Cr  Cr28  1  -0.00177549  0.99550704  0.66364336  1
  Fe  Fe29  1  0.16117872  0.16415189  0.83005696  1
  Fe  Fe30  1  0.16275823  0.49612644  0.49641931  1
  Fe  Fe31  1  -0.00193850  0.32858322  0.66335352  1
  Cr  Cr32  1  0.16124400  0.49503044  0.82836436  1
  Fe  Fe33  1  0.16293790  0.82836236  0.49488209  1
  Fe  Fe34  1  -0.00198642  0.66367856  0.66324275  1
  Fe  Fe35  1  0.16103621  0.82786167  0.83008951  1
  Cr  Cr36  1  0.49511956  0.16206121  0.49481216  1
  Cr  Cr37  1  0.32717771  0.99568119  0.66554006  1
  Fe  Fe38  1  0.49531598  0.16384104  0.82948143  1
  Cr  Cr39  1  0.49237630  0.49660463  0.49680625  1
  Fe  Fe40  1  0.32737411  0.32842271  0.66284473  1
  Cr  Cr41  1  0.49448531  0.49723160  0.82991919  1
  Cr  Cr42  1  0.49518233  0.82978628  0.49567528  1
  Fe  Fe43  1  0.32691501  0.66378940  0.66307097  1
  Fe  Fe44  1  0.49578127  0.82906052  0.82995340  1
  Cr  Cr45  1  0.83179903  0.16222062  0.49461551  1
  Cr  Cr46  1  0.66333064  -0.00345373  0.66404834  1
  Fe  Fe47  1  0.83223961  0.16435673  0.83015623  1
  Cr  Cr48  1  0.83352887  0.49578848  0.49848665  1
  Cr  Cr49  1  0.66398171  0.32950952  0.66389179  1
  Fe  Fe50  1  0.83147898  0.49666013  0.83051999  1
  Cr  Cr51  1  0.83046863  0.83056244  0.49370012  1
  Cr  Cr52  1  0.66441445  0.66271148  0.66467309  1
  Fe  Fe53  1  0.83163379  0.82774015  0.83069785  1
" 