2815,Fe39Cr61_1,-218.554033282894, 160.437564683279,Fe39Cr61,"# generated using pymatgen
 data_Cr7Fe11
_symmetry_space_group_name_H-M   'P 1'
_cell_length_a   7.51568970
_cell_length_b   7.51568970
_cell_length_c   10.62879030
_cell_angle_alpha   90.00000000
_cell_angle_beta   90.00000000
_cell_angle_gamma   90.00000000
_symmetry_Int_Tables_number   1
_chemical_formula_structural   Cr7Fe11
_chemical_formula_sum   'Cr21 Fe33'
_cell_volume   600.37350823
_cell_formula_units_Z   3
loop_
 _symmetry_equiv_pos_site_id
 _symmetry_equiv_pos_as_xyz
  1  'x, y, z'
loop_
 _atom_site_type_symbol
 _atom_site_label
 _atom_site_symmetry_multiplicity
 _atom_site_fract_x
 _atom_site_fract_y
 _atom_site_fract_z
 _atom_site_occupancy
  Fe  Fe0  1  0.99434289  0.99450211  0.99621233  1
  Fe  Fe1  1  0.16468896  0.16101263  0.16118646  1
  Cr  Cr2  1  -0.00264727  -0.00216337  0.32996542  1
  Cr  Cr3  1  0.99316744  0.32900984  -0.00041773  1
  Cr  Cr4  1  0.16180648  0.49628169  0.16596166  1
  Cr  Cr5  1  0.99449508  0.32730937  0.32936872  1
  Fe  Fe6  1  0.99414261  0.66332076  0.99468222  1
  Cr  Cr7  1  0.16222562  0.82883697  0.16086755  1
  Fe  Fe8  1  0.99509480  0.66416686  0.32925211  1
  Fe  Fe9  1  0.33079509  -0.00197851  -0.00234620  1
  Fe  Fe10  1  0.49685201  0.16257354  0.16092669  1
  Cr  Cr11  1  0.33108747  0.99446889  0.33319908  1
  Fe  Fe12  1  0.32876535  0.33069449  -0.00225587  1
  Cr  Cr13  1  0.49638002  0.49759286  0.16128627  1
  Cr  Cr14  1  0.33075022  0.32606334  0.32867721  1
  Cr  Cr15  1  0.33124923  0.66532465  0.99258408  1
  Cr  Cr16  1  0.50059314  0.83269063  0.16560718  1
  Fe  Fe17  1  0.33114334  0.66300138  0.33080965  1
  Fe  Fe18  1  0.66716002  0.99630763  -0.00287402  1
  Fe  Fe19  1  0.82747872  0.15965681  0.16251189  1
  Fe  Fe20  1  0.66346173  -0.00023510  0.33088072  1
  Cr  Cr21  1  0.66375240  0.33303799  0.99535287  1
  Fe  Fe22  1  0.82890604  0.50094278  0.16403041  1
  Cr  Cr23  1  0.66418030  0.32984219  0.32934145  1
  Fe  Fe24  1  0.66707532  0.66566699  0.99504598  1
  Fe  Fe25  1  0.83037555  0.82902764  0.16358587  1
  Fe  Fe26  1  0.66295433  0.66459193  0.33010107  1
  Fe  Fe27  1  0.16266655  0.16290189  0.50018804  1
  Fe  Fe28  1  0.99554308  -0.00284992  0.66400086  1
  Cr  Cr29  1  0.16279542  0.16233451  0.83186979  1
  Cr  Cr30  1  0.16297545  0.49512493  0.49509760  1
  Fe  Fe31  1  0.99540737  0.32857013  0.66359031  1
  Cr  Cr32  1  0.16174138  0.49540985  0.82842935  1
  Cr  Cr33  1  0.16273175  0.82779362  0.49938490  1
  Fe  Fe34  1  0.99496869  0.66398531  0.66455856  1
  Fe  Fe35  1  0.16284548  0.83126162  0.82831392  1
  Fe  Fe36  1  0.49875881  0.16196755  0.49952917  1
  Fe  Fe37  1  0.33078231  -0.00242000  0.66312402  1
  Cr  Cr38  1  0.49728869  0.16481896  0.83288996  1
  Cr  Cr39  1  0.49639923  0.49663619  0.49872709  1
  Fe  Fe40  1  0.33041270  0.32838918  0.66339624  1
  Fe  Fe41  1  0.49749167  0.49746283  0.82726042  1
  Fe  Fe42  1  0.49701396  0.82949255  0.49927990  1
  Fe  Fe43  1  0.33040632  0.66366352  0.66518136  1
  Cr  Cr44  1  0.50068918  0.83285774  0.82879490  1
  Fe  Fe45  1  0.82973898  0.16419253  0.49943720  1
  Fe  Fe46  1  0.66463793  -0.00173434  0.66336727  1
  Fe  Fe47  1  0.83022878  0.16200202  0.82882629  1
  Cr  Cr48  1  0.83115678  0.49703238  0.49628288  1
  Fe  Fe49  1  0.66423309  0.32940991  0.66490684  1
  Fe  Fe50  1  0.82859284  0.49730266  0.82760432  1
  Cr  Cr51  1  0.82737969  0.83251318  0.49455072  1
  Fe  Fe52  1  0.66490950  0.66430253  0.66418850  1
  Fe  Fe53  1  0.83318155  0.83128573  0.82893058  1
" 