4993,Fe39Cr61_17,-218.550038812267, 162.351344370445,Fe39Cr61,"# generated using pymatgen
 data_Cr7Fe11
_symmetry_space_group_name_H-M   'P 1'
_cell_length_a   7.50995308
_cell_length_b   7.50995308
_cell_length_c   10.62067750
_cell_angle_alpha   90.00000000
_cell_angle_beta   90.00000000
_cell_angle_gamma   90.00000000
_symmetry_Int_Tables_number   1
_chemical_formula_structural   Cr7Fe11
_chemical_formula_sum   'Cr21 Fe33'
_cell_volume   598.99978802
_cell_formula_units_Z   3
loop_
 _symmetry_equiv_pos_site_id
 _symmetry_equiv_pos_as_xyz
  1  'x, y, z'
loop_
 _atom_site_type_symbol
 _atom_site_label
 _atom_site_symmetry_multiplicity
 _atom_site_fract_x
 _atom_site_fract_y
 _atom_site_fract_z
 _atom_site_occupancy
  Fe  Fe0  1  0.99646331  -0.00153355  0.99676731  1
  Cr  Cr1  1  0.16596205  0.16580815  0.16328816  1
  Cr  Cr2  1  -0.00205643  -0.00089190  0.32931174  1
  Fe  Fe3  1  -0.00214889  0.32806163  0.99618721  1
  Cr  Cr4  1  0.16590826  0.49400990  0.16431696  1
  Fe  Fe5  1  0.99622816  0.33216121  0.33223206  1
  Cr  Cr6  1  -0.00073914  0.66168587  -0.00214108  1
  Fe  Fe7  1  0.16349917  0.82949167  0.16364127  1
  Fe  Fe8  1  0.99579365  0.66148628  0.32997851  1
  Cr  Cr9  1  0.32973385  0.99464010  -0.00185790  1
  Fe  Fe10  1  0.49797918  0.16691440  0.16401809  1
  Cr  Cr11  1  0.33152421  0.99649676  0.33064020  1
  Fe  Fe12  1  0.33286138  0.33047378  0.99636616  1
  Fe  Fe13  1  0.49915233  0.49665549  0.16397103  1
  Fe  Fe14  1  0.33256925  0.32993670  0.33223654  1
  Fe  Fe15  1  0.33391178  0.66187603  -0.00213230  1
  Fe  Fe16  1  0.49653700  0.82846623  0.16322926  1
  Cr  Cr17  1  0.33051599  0.66348239  0.32955850  1
  Cr  Cr18  1  0.66216058  -0.00057020  0.99644793  1
  Fe  Fe19  1  0.83079981  0.16674157  0.16409513  1
  Cr  Cr20  1  0.66153370  -0.00098603  0.33115711  1
  Cr  Cr21  1  0.66546450  0.33283441  0.99666005  1
  Fe  Fe22  1  0.83026231  0.49537869  0.16509511  1
  Fe  Fe23  1  0.66328107  0.33242173  0.33024315  1
  Fe  Fe24  1  0.66109310  0.66447145  -0.00255358  1
  Cr  Cr25  1  0.82825278  0.82995687  0.16417600  1
  Fe  Fe26  1  0.66337987  0.66151728  0.33092677  1
  Fe  Fe27  1  0.16453416  0.16638426  0.49645059  1
  Cr  Cr28  1  -0.00167222  0.00008436  0.66641829  1
  Fe  Fe29  1  0.16458729  0.16392439  0.83228461  1
  Fe  Fe30  1  0.16428158  0.49587687  0.49665749  1
  Cr  Cr31  1  0.99581881  0.33215857  0.66305062  1
  Cr  Cr32  1  0.16771267  0.49500870  0.82950989  1
  Cr  Cr33  1  0.16131525  0.82913470  0.49749685  1
  Fe  Fe34  1  -0.00151155  0.66349655  0.66406913  1
  Fe  Fe35  1  0.16531161  0.82885856  0.83051798  1
  Fe  Fe36  1  0.49675552  0.16724714  0.49698992  1
  Cr  Cr37  1  0.33099092  0.99628106  0.66266392  1
  Fe  Fe38  1  0.49526442  0.16673339  0.83023255  1
  Fe  Fe39  1  0.49675183  0.49602559  0.49656968  1
  Fe  Fe40  1  0.33285470  0.33020510  0.66244078  1
  Fe  Fe41  1  0.49667870  0.49684320  0.83064942  1
  Fe  Fe42  1  0.49665190  0.82826171  0.49714603  1
  Fe  Fe43  1  0.32997314  0.66193523  0.66286802  1
  Fe  Fe44  1  0.49491416  0.82766096  0.83076684  1
  Fe  Fe45  1  0.82993317  0.16604364  0.49645012  1
  Cr  Cr46  1  0.66196749  -0.00047958  0.66388191  1
  Fe  Fe47  1  0.83095548  0.16603440  0.83112999  1
  Fe  Fe48  1  0.82988967  0.49617235  0.49584960  1
  Fe  Fe49  1  0.66153855  0.32978239  0.66342595  1
  Cr  Cr50  1  0.83003365  0.49876250  0.83050267  1
  Cr  Cr51  1  0.82932588  0.82976202  0.49806636  1
  Cr  Cr52  1  0.66139641  0.66093822  0.66388634  1
  Cr  Cr53  1  0.82956898  0.83162186  0.82991006  1
" 