5508,Fe3Cr97_11,-222.260694259179, 115.853717515874,Fe3Cr97,"# generated using pymatgen
 data_CrFe53
_symmetry_space_group_name_H-M   'P 1'
_cell_length_a   7.42772701
_cell_length_b   7.42772701
_cell_length_c   10.50439227
_cell_angle_alpha   90.00000000
_cell_angle_beta   90.00000000
_cell_angle_gamma   90.00000000
_symmetry_Int_Tables_number   1
_chemical_formula_structural   CrFe53
_chemical_formula_sum   'Cr1 Fe53'
_cell_volume   579.53917529
_cell_formula_units_Z   1
loop_
 _symmetry_equiv_pos_site_id
 _symmetry_equiv_pos_as_xyz
  1  'x, y, z'
loop_
 _atom_site_type_symbol
 _atom_site_label
 _atom_site_symmetry_multiplicity
 _atom_site_fract_x
 _atom_site_fract_y
 _atom_site_fract_z
 _atom_site_occupancy
  Fe  Fe0  1  1.00262016  0.00264688  1.00261802  1
  Fe  Fe1  1  0.16931355  0.16931248  0.16931355  1
  Fe  Fe2  1  1.00262016  0.00264688  0.33600908  1
  Fe  Fe3  1  0.00264990  0.33598323  0.00264916  1
  Fe  Fe4  1  0.16931355  0.50264688  0.16931355  1
  Fe  Fe5  1  0.00264990  0.33598323  0.33597793  1
  Fe  Fe6  1  0.00264990  0.66931053  0.00264916  1
  Fe  Fe7  1  0.16931355  0.83598128  0.16931355  1
  Fe  Fe8  1  0.00264990  0.66931053  0.33597793  1
  Fe  Fe9  1  0.33600693  0.00264688  1.00261802  1
  Fe  Fe10  1  0.50264820  0.16931222  0.16931355  1
  Fe  Fe11  1  0.33600693  0.00264688  0.33600908  1
  Fe  Fe12  1  0.33597719  0.33598323  0.00264916  1
  Fe  Fe13  1  0.50264794  0.50264688  0.16931355  1
  Fe  Fe14  1  0.33597719  0.33598323  0.33597793  1
  Fe  Fe15  1  0.33597719  0.66931053  0.00264916  1
  Fe  Fe16  1  0.50264820  0.83598154  0.16931355  1
  Fe  Fe17  1  0.33597719  0.66931053  0.33597793  1
  Fe  Fe18  1  0.66931355  0.00264688  1.00241006  1
  Fe  Fe19  1  0.83597889  0.16931222  0.16931355  1
  Fe  Fe20  1  0.66931355  0.00264688  0.33621703  1
  Fe  Fe21  1  0.66931355  0.33595349  1.00261802  1
  Fe  Fe22  1  0.83597915  0.50264688  0.16931355  1
  Fe  Fe23  1  0.66931355  0.33595349  0.33600908  1
  Fe  Fe24  1  0.66931355  0.66934027  1.00261802  1
  Fe  Fe25  1  0.83597889  0.83598154  0.16931355  1
  Fe  Fe26  1  0.66931355  0.66934027  0.33600908  1
  Fe  Fe27  1  0.16931355  0.16928477  0.50267467  1
  Fe  Fe28  1  0.00429569  0.00264688  0.66931355  1
  Fe  Fe29  1  0.16931355  0.16928477  0.83595242  1
  Fe  Fe30  1  0.16931355  0.50264688  0.50264953  1
  Fe  Fe31  1  1.00241141  0.33574474  0.66931355  1
  Fe  Fe32  1  0.16931355  0.50264688  0.83597756  1
  Fe  Fe33  1  0.16931355  0.83600899  0.50267467  1
  Fe  Fe34  1  1.00241141  0.66954902  0.66931355  1
  Fe  Fe35  1  0.16931355  0.83600899  0.83595242  1
  Fe  Fe36  1  0.50181862  0.17014180  0.50181934  1
  Fe  Fe37  1  0.33433141  0.00264688  0.66931355  1
  Fe  Fe38  1  0.50181862  0.17014180  0.83680775  1
  Fe  Fe39  1  0.50267566  0.50264688  0.50267467  1
  Fe  Fe40  1  0.33621569  0.33574474  0.66931355  1
  Fe  Fe41  1  0.50267566  0.50264688  0.83595242  1
  Fe  Fe42  1  0.50181862  0.83515196  0.50181934  1
  Fe  Fe43  1  0.33621569  0.66954902  0.66931355  1
  Fe  Fe44  1  0.50181862  0.83515196  0.83680775  1
  Fe  Fe45  1  0.83680847  0.17014180  0.50181934  1
  Cr  Cr46  1  0.66931355  1.00264688  0.66931355  1
  Fe  Fe47  1  0.83680847  0.17014180  0.83680775  1
  Fe  Fe48  1  0.83595144  0.50264688  0.50267467  1
  Fe  Fe49  1  0.66931355  0.33762902  0.66931355  1
  Fe  Fe50  1  0.83595144  0.50264688  0.83595242  1
  Fe  Fe51  1  0.83680847  0.83515196  0.50181934  1
  Fe  Fe52  1  0.66931355  0.66766474  0.66931355  1
  Fe  Fe53  1  0.83680847  0.83515196  0.83680775  1
" 