3611,Fe3Cr97_2,-222.260694259179, 115.85371730958,Fe3Cr97,"# generated using pymatgen
 data_CrFe53
_symmetry_space_group_name_H-M   'P 1'
_cell_length_a   7.42772701
_cell_length_b   7.42772701
_cell_length_c   10.50439227
_cell_angle_alpha   90.00000000
_cell_angle_beta   90.00000000
_cell_angle_gamma   90.00000000
_symmetry_Int_Tables_number   1
_chemical_formula_structural   CrFe53
_chemical_formula_sum   'Cr1 Fe53'
_cell_volume   579.53917529
_cell_formula_units_Z   1
loop_
 _symmetry_equiv_pos_site_id
 _symmetry_equiv_pos_as_xyz
  1  'x, y, z'
loop_
 _atom_site_type_symbol
 _atom_site_label
 _atom_site_symmetry_multiplicity
 _atom_site_fract_x
 _atom_site_fract_y
 _atom_site_fract_z
 _atom_site_occupancy
  Fe  Fe0  1  0.00347514  1.00181862  0.00347442  1
  Fe  Fe1  1  0.16928683  0.16931355  0.16928468  1
  Fe  Fe2  1  1.00264556  0.00264820  0.33598021  1
  Fe  Fe3  1  0.00347514  0.33680847  0.00347442  1
  Fe  Fe4  1  0.16931657  0.50264990  0.16931583  1
  Fe  Fe5  1  1.00264556  0.33597889  0.33598021  1
  Fe  Fe6  1  1.00261810  0.66931355  1.00261909  1
  Fe  Fe7  1  0.16931657  0.83597719  0.16931583  1
  Fe  Fe8  1  1.00264582  0.66931355  0.33598021  1
  Fe  Fe9  1  0.33598021  0.00267566  1.00261909  1
  Fe  Fe10  1  0.50267360  0.16931355  0.16928468  1
  Fe  Fe11  1  0.33598021  0.00264794  0.33598021  1
  Fe  Fe12  1  0.33598021  0.33595144  1.00261909  1
  Fe  Fe13  1  0.50264386  0.50264990  0.16931583  1
  Fe  Fe14  1  0.33598021  0.33597915  0.33598021  1
  Fe  Fe15  1  0.33598021  0.66931355  1.00264423  1
  Fe  Fe16  1  0.50264386  0.83597719  0.16931583  1
  Fe  Fe17  1  0.33598021  0.66931355  0.33598021  1
  Fe  Fe18  1  0.66848529  1.00181862  0.00347442  1
  Fe  Fe19  1  0.83598021  0.16931355  0.16907673  1
  Fe  Fe20  1  0.66931487  0.00264820  0.33598021  1
  Fe  Fe21  1  0.66848529  0.33680847  0.00347442  1
  Fe  Fe22  1  0.83598021  0.50262016  0.16928468  1
  Fe  Fe23  1  0.66931487  0.33597889  0.33598021  1
  Fe  Fe24  1  0.66934232  0.66931355  1.00261909  1
  Fe  Fe25  1  0.83598021  0.83600693  0.16928468  1
  Fe  Fe26  1  0.66931461  0.66931355  0.33598021  1
  Fe  Fe27  1  0.16928683  0.16931355  0.50267574  1
  Fe  Fe28  1  0.00347514  1.00181862  0.66848601  1
  Fe  Fe29  1  0.17096235  0.16931355  0.83598021  1
  Fe  Fe30  1  0.16931657  0.50264990  0.50264460  1
  Fe  Fe31  1  0.00347514  0.33680847  0.66848601  1
  Fe  Fe32  1  0.16907807  0.50241141  0.83598021  1
  Fe  Fe33  1  0.16931657  0.83597719  0.50264460  1
  Fe  Fe34  1  1.00261810  0.66931355  0.66934134  1
  Fe  Fe35  1  0.16907807  0.83621569  0.83598021  1
  Fe  Fe36  1  0.50267360  0.16931355  0.50267574  1
  Fe  Fe37  1  0.33598021  0.00267566  0.66934134  1
  Fe  Fe38  1  0.50099807  0.16931355  0.83598021  1
  Fe  Fe39  1  0.50264386  0.50264990  0.50264460  1
  Fe  Fe40  1  0.33598021  0.33595144  0.66934134  1
  Fe  Fe41  1  0.50288235  0.50241141  0.83598021  1
  Fe  Fe42  1  0.50264386  0.83597719  0.50264460  1
  Fe  Fe43  1  0.33598021  0.66931355  0.66931620  1
  Fe  Fe44  1  0.50288235  0.83621569  0.83598021  1
  Fe  Fe45  1  0.83598021  0.16931355  0.50288370  1
  Fe  Fe46  1  0.66848529  1.00181862  0.66848601  1
  Cr  Cr47  1  0.83598021  0.16931355  0.83598021  1
  Fe  Fe48  1  0.83598021  0.50262016  0.50267574  1
  Fe  Fe49  1  0.66848529  0.33680847  0.66848601  1
  Fe  Fe50  1  0.83598021  0.50429569  0.83598021  1
  Fe  Fe51  1  0.83598021  0.83600693  0.50267574  1
  Fe  Fe52  1  0.66934232  0.66931355  0.66934134  1
  Fe  Fe53  1  0.83598021  0.83433141  0.83598021  1
" 