7156,Fe40Cr60_1,-218.656834269855, 158.622195229729,Fe40Cr60,"# generated using pymatgen
 data_Cr7Fe11
_symmetry_space_group_name_H-M   'P 1'
_cell_length_a   7.52044547
_cell_length_b   7.52044547
_cell_length_c   10.63551597
_cell_angle_alpha   90.00000000
_cell_angle_beta   90.00000000
_cell_angle_gamma   90.00000000
_symmetry_Int_Tables_number   1
_chemical_formula_structural   Cr7Fe11
_chemical_formula_sum   'Cr21 Fe33'
_cell_volume   601.51394070
_cell_formula_units_Z   3
loop_
 _symmetry_equiv_pos_site_id
 _symmetry_equiv_pos_as_xyz
  1  'x, y, z'
loop_
 _atom_site_type_symbol
 _atom_site_label
 _atom_site_symmetry_multiplicity
 _atom_site_fract_x
 _atom_site_fract_y
 _atom_site_fract_z
 _atom_site_occupancy
  Fe  Fe0  1  0.99626446  -0.00188968  0.99493973  1
  Fe  Fe1  1  0.16156532  0.16467783  0.16424165  1
  Fe  Fe2  1  0.99344533  -0.00152443  0.32959332  1
  Fe  Fe3  1  0.99625175  0.32780334  0.99580092  1
  Fe  Fe4  1  0.16238681  0.49629991  0.16321338  1
  Fe  Fe5  1  -0.00302001  0.32855739  0.32973124  1
  Fe  Fe6  1  -0.00116096  0.66322960  0.99548519  1
  Cr  Cr7  1  0.16419795  0.83141706  0.16466937  1
  Cr  Cr8  1  -0.00340035  0.66062662  0.33328907  1
  Cr  Cr9  1  0.33069693  0.99620688  0.99371627  1
  Fe  Fe10  1  0.49713300  0.16101852  0.16287453  1
  Fe  Fe11  1  0.33194405  -0.00162298  0.32762814  1
  Cr  Cr12  1  0.32760082  0.33064238  0.99589775  1
  Cr  Cr13  1  0.49663673  0.49688576  0.15978998  1
  Fe  Fe14  1  0.32902766  0.33077327  0.32859264  1
  Fe  Fe15  1  0.32916559  0.66389290  0.99469081  1
  Fe  Fe16  1  0.49691046  0.83117416  0.16302838  1
  Fe  Fe17  1  0.33020686  0.66083308  0.32940669  1
  Fe  Fe18  1  0.66376115  -0.00254212  0.99554160  1
  Fe  Fe19  1  0.83064021  0.16235886  0.16196222  1
  Fe  Fe20  1  0.66402898  -0.00250958  0.32948405  1
  Fe  Fe21  1  0.66312575  0.32669917  0.99622901  1
  Cr  Cr22  1  0.83031496  0.49445284  0.15962513  1
  Cr  Cr23  1  0.66387901  0.32783570  0.33080289  1
  Fe  Fe24  1  0.66125183  0.66532468  0.99539719  1
  Cr  Cr25  1  0.83055842  0.83078408  0.16112285  1
  Cr  Cr26  1  0.66419657  0.66480351  0.33011252  1
  Cr  Cr27  1  0.16430237  0.16137348  0.49469415  1
  Cr  Cr28  1  0.99468015  0.99522528  0.66666417  1
  Fe  Fe29  1  0.15977903  0.16418642  0.83098859  1
  Fe  Fe30  1  0.16417043  0.49635154  0.49591171  1
  Cr  Cr31  1  0.99628374  0.33073359  0.66201928  1
  Fe  Fe32  1  0.16123693  0.49721943  0.83137694  1
  Cr  Cr33  1  0.16188070  0.83116203  0.49634369  1
  Fe  Fe34  1  0.99477420  0.66335984  0.66318630  1
  Fe  Fe35  1  0.16054751  0.82786210  0.83195362  1
  Fe  Fe36  1  0.49656672  0.16233843  0.49588045  1
  Cr  Cr37  1  0.32971398  0.99628368  0.66702494  1
  Cr  Cr38  1  0.49818890  0.16583724  0.82629012  1
  Cr  Cr39  1  0.49863576  0.49468410  0.50012502  1
  Cr  Cr40  1  0.32894283  0.33028741  0.66444235  1
  Fe  Fe41  1  0.49701912  0.49837691  0.83117798  1
  Cr  Cr42  1  0.49471670  0.83026452  0.49399029  1
  Cr  Cr43  1  0.32853645  0.66270265  0.66716463  1
  Fe  Fe44  1  0.49975272  0.82767834  0.83077579  1
  Fe  Fe45  1  0.82963266  0.16227683  0.49555033  1
  Cr  Cr46  1  0.66438462  0.99538290  0.66116002  1
  Fe  Fe47  1  0.83010152  0.16283207  0.83167888  1
  Fe  Fe48  1  0.83103060  0.49646624  0.49814222  1
  Fe  Fe49  1  0.66500663  0.32942349  0.66219275  1
  Cr  Cr50  1  0.82700456  0.49619365  0.83049805  1
  Fe  Fe51  1  0.82979953  0.83027759  0.49643216  1
  Fe  Fe52  1  0.66516354  0.66354173  0.66339188  1
  Fe  Fe53  1  0.82882912  0.82976008  0.83236747  1
" 