7009,Fe40Cr60_2,-218.501814109897, 161.323884502668,Fe40Cr60,"# generated using pymatgen
 data_Cr7Fe11
_symmetry_space_group_name_H-M   'P 1'
_cell_length_a   7.52811325
_cell_length_b   7.52811325
_cell_length_c   10.64635986
_cell_angle_alpha   90.00000000
_cell_angle_beta   90.00000000
_cell_angle_gamma   90.00000000
_symmetry_Int_Tables_number   1
_chemical_formula_structural   Cr7Fe11
_chemical_formula_sum   'Cr21 Fe33'
_cell_volume   603.35571312
_cell_formula_units_Z   3
loop_
 _symmetry_equiv_pos_site_id
 _symmetry_equiv_pos_as_xyz
  1  'x, y, z'
loop_
 _atom_site_type_symbol
 _atom_site_label
 _atom_site_symmetry_multiplicity
 _atom_site_fract_x
 _atom_site_fract_y
 _atom_site_fract_z
 _atom_site_occupancy
  Cr  Cr0  1  0.99519881  0.99553057  0.99473933  1
  Fe  Fe1  1  0.16234127  0.16359010  0.16359087  1
  Fe  Fe2  1  -0.00260979  -0.00357266  0.32962104  1
  Fe  Fe3  1  -0.00331049  0.32978501  -0.00357312  1
  Fe  Fe4  1  0.16341719  0.49481598  0.16260059  1
  Fe  Fe5  1  -0.00372526  0.32771047  0.32880527  1
  Fe  Fe6  1  -0.00391616  0.66273091  -0.00393898  1
  Fe  Fe7  1  0.16342488  0.82942321  0.16358461  1
  Cr  Cr8  1  -0.00262107  0.66294585  0.32878977  1
  Cr  Cr9  1  0.32938264  0.99555424  -0.00221636  1
  Cr  Cr10  1  0.49323884  0.16250486  0.16114612  1
  Fe  Fe11  1  0.32769624  0.99436317  0.32877869  1
  Fe  Fe12  1  0.32865658  0.32963905  -0.00261392  1
  Fe  Fe13  1  0.49576429  0.49641058  0.16309448  1
  Fe  Fe14  1  0.32880319  0.32975946  0.32783896  1
  Cr  Cr15  1  0.32847726  0.66196514  -0.00231584  1
  Fe  Fe16  1  0.49576115  0.82783822  0.16296696  1
  Fe  Fe17  1  0.33038782  0.66370826  0.32818247  1
  Fe  Fe18  1  0.66296292  0.99534041  0.99559513  1
  Cr  Cr19  1  0.83077849  0.16338772  0.16299515  1
  Cr  Cr20  1  0.66268057  0.99571175  0.33155930  1
  Fe  Fe21  1  0.66248728  0.32914517  0.99594268  1
  Cr  Cr22  1  0.82924784  0.49716488  0.16179194  1
  Fe  Fe23  1  0.66274772  0.33038383  0.32928636  1
  Fe  Fe24  1  0.66309575  0.66335107  -0.00357072  1
  Cr  Cr25  1  0.82836773  0.82728201  0.16043367  1
  Fe  Fe26  1  0.66069008  0.66258942  0.32927085  1
  Cr  Cr27  1  0.16163451  0.16170870  0.49357269  1
  Fe  Fe28  1  0.99402212  0.99499543  0.66274472  1
  Cr  Cr29  1  0.16268348  0.16353174  0.82935259  1
  Cr  Cr30  1  0.16263615  0.49605386  0.49821762  1
  Fe  Fe31  1  0.99510007  0.32818415  0.66259938  1
  Cr  Cr32  1  0.16128598  0.49616872  0.82760533  1
  Fe  Fe33  1  0.16274710  0.82913623  0.49594465  1
  Fe  Fe34  1  -0.00391217  0.66466111  0.66249180  1
  Fe  Fe35  1  0.16081579  0.82815255  0.82830875  1
  Cr  Cr36  1  0.49582041  0.16204510  0.49692974  1
  Cr  Cr37  1  0.32893636  0.99371341  0.66246278  1
  Cr  Cr38  1  0.49678141  0.16268755  0.82976885  1
  Cr  Cr39  1  0.49635577  0.49725827  0.49652782  1
  Fe  Fe40  1  0.32927739  0.33024399  0.66259965  1
  Cr  Cr41  1  0.49609556  0.49493308  0.82798870  1
  Fe  Fe42  1  0.49581099  0.82816269  0.49607782  1
  Fe  Fe43  1  0.32879181  0.66307215  0.66226579  1
  Cr  Cr44  1  0.49848675  0.83020816  0.82944386  1
  Fe  Fe45  1  0.82976451  0.16243975  0.49628695  1
  Fe  Fe46  1  0.66502685  0.99548516  0.66199366  1
  Fe  Fe47  1  0.82864720  0.16229853  0.82893546  1
  Cr  Cr48  1  0.82884143  0.49658855  0.49539163  1
  Fe  Fe49  1  0.66345479  0.32819166  0.66260194  1
  Cr  Cr50  1  0.83044992  0.49787645  0.83064749  1
  Fe  Fe51  1  0.82927832  0.83022397  0.49676947  1
  Fe  Fe52  1  0.66295730  0.66416388  0.66211961  1
  Fe  Fe53  1  0.82976910  0.82974112  0.82895057  1
" 