1298,Fe40Cr60_10,-218.569872564602, 158.761655916498,Fe40Cr60,"# generated using pymatgen
 data_Cr7Fe11
_symmetry_space_group_name_H-M   'P 1'
_cell_length_a   7.52044811
_cell_length_b   7.52044811
_cell_length_c   10.63551971
_cell_angle_alpha   90.00000000
_cell_angle_beta   90.00000000
_cell_angle_gamma   90.00000000
_symmetry_Int_Tables_number   1
_chemical_formula_structural   Cr7Fe11
_chemical_formula_sum   'Cr21 Fe33'
_cell_volume   601.51457449
_cell_formula_units_Z   3
loop_
 _symmetry_equiv_pos_site_id
 _symmetry_equiv_pos_as_xyz
  1  'x, y, z'
loop_
 _atom_site_type_symbol
 _atom_site_label
 _atom_site_symmetry_multiplicity
 _atom_site_fract_x
 _atom_site_fract_y
 _atom_site_fract_z
 _atom_site_occupancy
  Cr  Cr0  1  0.99547318  0.99637424  -0.00267920  1
  Cr  Cr1  1  0.16312469  0.16518410  0.16039041  1
  Cr  Cr2  1  0.99231800  -0.00349587  0.33061080  1
  Fe  Fe3  1  -0.00303677  0.33172776  0.99477838  1
  Cr  Cr4  1  0.16237998  0.49398162  0.16706965  1
  Fe  Fe5  1  0.99537112  0.32836544  0.33059191  1
  Fe  Fe6  1  0.99623096  0.66130296  0.99573929  1
  Cr  Cr7  1  0.16467021  0.83001965  0.16228612  1
  Cr  Cr8  1  -0.00347925  0.66387169  0.33042718  1
  Fe  Fe9  1  0.33099016  -0.00249492  -0.00316486  1
  Fe  Fe10  1  0.49841630  0.16322951  0.16194148  1
  Cr  Cr11  1  0.33149258  -0.00193751  0.32852344  1
  Fe  Fe12  1  0.32963880  0.32921997  0.99515031  1
  Cr  Cr13  1  0.49730568  0.49732227  0.16535322  1
  Fe  Fe14  1  0.32991138  0.32954946  0.33104039  1
  Cr  Cr15  1  0.32972790  0.66061551  0.99548389  1
  Fe  Fe16  1  0.49915703  0.83066971  0.16272699  1
  Fe  Fe17  1  0.33000768  0.66332058  0.33018369  1
  Fe  Fe18  1  0.66195813  -0.00342080  -0.00162679  1
  Fe  Fe19  1  0.82726786  0.16365698  0.16283876  1
  Fe  Fe20  1  0.66364586  -0.00304407  0.32940863  1
  Fe  Fe21  1  0.66272567  0.32968625  0.99623961  1
  Cr  Cr22  1  0.82985793  0.49619430  0.16081011  1
  Fe  Fe23  1  0.66387458  0.32648990  0.32963533  1
  Fe  Fe24  1  0.66422100  0.66316008  0.99622107  1
  Fe  Fe25  1  0.82669294  0.82984325  0.16226960  1
  Fe  Fe26  1  0.66361436  0.66579898  0.32938190  1
  Cr  Cr27  1  0.16143956  0.16301141  0.49778112  1
  Fe  Fe28  1  -0.00165182  0.99538191  0.66273541  1
  Fe  Fe29  1  0.16291727  0.16236574  0.82985602  1
  Fe  Fe30  1  0.16365041  0.49766630  0.49636551  1
  Fe  Fe31  1  0.99601961  0.33093349  0.66371028  1
  Fe  Fe32  1  0.16122768  0.49631346  0.82987184  1
  Fe  Fe33  1  0.16253989  0.82775644  0.49803355  1
  Fe  Fe34  1  -0.00069441  0.66281742  0.66286673  1
  Fe  Fe35  1  0.16270890  0.83058294  0.82878292  1
  Fe  Fe36  1  0.49784704  0.16469894  0.49569722  1
  Fe  Fe37  1  0.32771149  0.99509911  0.66291661  1
  Cr  Cr38  1  0.49521116  0.16228585  0.82999232  1
  Cr  Cr39  1  0.49654262  0.49703193  0.49463066  1
  Cr  Cr40  1  0.33107800  0.33153852  0.66431230  1
  Fe  Fe41  1  0.49794197  0.49541575  0.83080842  1
  Cr  Cr42  1  0.49496650  0.82927714  0.49585825  1
  Fe  Fe43  1  0.32696569  0.66377115  0.66402463  1
  Cr  Cr44  1  0.49462194  0.83029725  0.83059058  1
  Fe  Fe45  1  0.82817572  0.16377986  0.49641150  1
  Cr  Cr46  1  0.66474309  -0.00153935  0.65879882  1
  Cr  Cr47  1  0.83144308  0.16599145  0.82801769  1
  Cr  Cr48  1  0.83038232  0.49434637  0.49741103  1
  Fe  Fe49  1  0.66386092  0.33000320  0.66309375  1
  Fe  Fe50  1  0.83033482  0.49563331  0.83084262  1
  Fe  Fe51  1  0.83072978  0.82980546  0.49713379  1
  Cr  Cr52  1  0.66337153  0.66078372  0.66569253  1
  Cr  Cr53  1  0.83063820  0.82804113  0.83041348  1
" 