1724,Fe40Cr60_19,-218.590373472959, 166.217421841278,Fe40Cr60,"# generated using pymatgen
 data_Cr7Fe11
_symmetry_space_group_name_H-M   'P 1'
_cell_length_a   7.51659574
_cell_length_b   7.51659574
_cell_length_c   10.63007164
_cell_angle_alpha   90.00000000
_cell_angle_beta   90.00000000
_cell_angle_gamma   90.00000000
_symmetry_Int_Tables_number   1
_chemical_formula_structural   Cr7Fe11
_chemical_formula_sum   'Cr21 Fe33'
_cell_volume   600.59066578
_cell_formula_units_Z   3
loop_
 _symmetry_equiv_pos_site_id
 _symmetry_equiv_pos_as_xyz
  1  'x, y, z'
loop_
 _atom_site_type_symbol
 _atom_site_label
 _atom_site_symmetry_multiplicity
 _atom_site_fract_x
 _atom_site_fract_y
 _atom_site_fract_z
 _atom_site_occupancy
  Cr  Cr0  1  0.00015913  0.99642611  0.00045681  1
  Fe  Fe1  1  0.16574267  0.16465934  0.16347284  1
  Fe  Fe2  1  0.99560396  0.99266537  0.32844933  1
  Cr  Cr3  1  -0.00253620  0.33244870  0.99646294  1
  Fe  Fe4  1  0.16347096  0.49842544  0.16306049  1
  Cr  Cr5  1  -0.00099728  0.33148208  0.32900072  1
  Fe  Fe6  1  -0.00275106  0.66399532  -0.00137727  1
  Fe  Fe7  1  0.16424390  0.82757130  0.16393907  1
  Fe  Fe8  1  -0.00204648  0.66452553  0.32875884  1
  Fe  Fe9  1  0.33261220  0.99540255  -0.00270419  1
  Cr  Cr10  1  0.50022407  0.16580904  0.16173303  1
  Cr  Cr11  1  0.32933719  -0.00201321  0.32807890  1
  Fe  Fe12  1  0.32954713  0.32893130  -0.00311632  1
  Cr  Cr13  1  0.49502526  0.49711951  0.16363169  1
  Fe  Fe14  1  0.33110784  0.33224287  0.33160363  1
  Fe  Fe15  1  0.32796422  0.66562872  -0.00104953  1
  Fe  Fe16  1  0.49692801  0.83059675  0.16257999  1
  Fe  Fe17  1  0.32821865  0.66198745  0.33013462  1
  Fe  Fe18  1  0.66259918  0.99584945  0.99581253  1
  Cr  Cr19  1  0.82777188  0.16177218  0.16638698  1
  Fe  Fe20  1  0.66320118  0.99522057  0.33078840  1
  Fe  Fe21  1  0.66428892  0.32935145  0.99570017  1
  Fe  Fe22  1  0.83024746  0.49791413  0.16360898  1
  Fe  Fe23  1  0.66174194  0.33061765  0.33238018  1
  Cr  Cr24  1  0.66630367  0.66456749  0.99574101  1
  Fe  Fe25  1  0.82985582  0.82857902  0.16440277  1
  Cr  Cr26  1  0.66487757  0.66417443  0.33163956  1
  Cr  Cr27  1  0.15894072  0.16124464  0.49705669  1
  Fe  Fe28  1  0.99327044  0.99439906  0.66346669  1
  Cr  Cr29  1  0.16104262  0.16259867  0.82952210  1
  Fe  Fe30  1  0.16269820  0.49755991  0.49669040  1
  Fe  Fe31  1  0.99503166  0.33289450  0.66246415  1
  Cr  Cr32  1  0.16491752  0.50065624  0.82760629  1
  Cr  Cr33  1  0.16188424  0.82600137  0.49839857  1
  Fe  Fe34  1  0.99520248  0.66169831  0.66225234  1
  Cr  Cr35  1  0.16291207  0.82689103  0.82869687  1
  Fe  Fe36  1  0.49707444  0.16269475  0.49468931  1
  Cr  Cr37  1  0.33236593  0.99655637  0.66549926  1
  Fe  Fe38  1  0.49629099  0.16209675  0.83273388  1
  Fe  Fe39  1  0.49491438  0.49698313  0.49508627  1
  Cr  Cr40  1  0.32845519  0.32782127  0.66020406  1
  Cr  Cr41  1  0.49499174  0.49705322  0.83296204  1
  Fe  Fe42  1  0.49741273  0.83134433  0.49647712  1
  Fe  Fe43  1  0.33258193  0.66233665  0.66140505  1
  Fe  Fe44  1  0.49754106  0.83219796  0.83123009  1
  Cr  Cr45  1  0.82730502  0.16015901  0.49584317  1
  Fe  Fe46  1  0.66249441  0.99569199  0.66306822  1
  Cr  Cr47  1  0.82677031  0.16144898  0.82821617  1
  Fe  Fe48  1  0.83313872  0.49792402  0.49637819  1
  Cr  Cr49  1  0.66334605  0.33383103  0.66299460  1
  Fe  Fe50  1  0.83241987  0.49837502  0.82983946  1
  Fe  Fe51  1  0.83063074  0.83014176  0.49665382  1
  Cr  Cr52  1  0.66482087  0.66582031  0.66331431  1
  Fe  Fe53  1  0.83082445  0.82964972  0.82969529  1
" 