2947,Fe40Cr60_6,-218.528278696769, 160.15240288456,Fe40Cr60,"# generated using pymatgen
 data_Cr7Fe11
_symmetry_space_group_name_H-M   'P 1'
_cell_length_a   7.51595015
_cell_length_b   7.51595015
_cell_length_c   10.62915863
_cell_angle_alpha   90.00000000
_cell_angle_beta   90.00000000
_cell_angle_gamma   90.00000000
_symmetry_Int_Tables_number   1
_chemical_formula_structural   Cr7Fe11
_chemical_formula_sum   'Cr21 Fe33'
_cell_volume   600.43592642
_cell_formula_units_Z   3
loop_
 _symmetry_equiv_pos_site_id
 _symmetry_equiv_pos_as_xyz
  1  'x, y, z'
loop_
 _atom_site_type_symbol
 _atom_site_label
 _atom_site_symmetry_multiplicity
 _atom_site_fract_x
 _atom_site_fract_y
 _atom_site_fract_z
 _atom_site_occupancy
  Fe  Fe0  1  0.99627372  -0.00319381  0.99481897  1
  Fe  Fe1  1  0.16232923  0.16425835  0.16303052  1
  Fe  Fe2  1  -0.00157425  0.99557141  0.33050904  1
  Fe  Fe3  1  -0.00265759  0.32721460  0.99544552  1
  Cr  Cr4  1  0.16383571  0.49605509  0.16311181  1
  Fe  Fe5  1  -0.00008662  0.33095146  0.33020861  1
  Fe  Fe6  1  -0.00277259  0.66612432  0.99535964  1
  Fe  Fe7  1  0.16059149  0.82925470  0.16273791  1
  Fe  Fe8  1  0.99539414  0.66241756  0.33206674  1
  Cr  Cr9  1  0.32737167  0.99650478  -0.00145344  1
  Fe  Fe10  1  0.49592088  0.16549840  0.16288551  1
  Cr  Cr11  1  0.33052818  -0.00251591  0.32624926  1
  Fe  Fe12  1  0.33052455  0.32824239  0.99530252  1
  Cr  Cr13  1  0.49582540  0.49823436  0.15773697  1
  Fe  Fe14  1  0.33018623  0.33001603  0.32955959  1
  Fe  Fe15  1  0.32927966  0.66448236  0.99563502  1
  Fe  Fe16  1  0.49687926  0.82904840  0.16248537  1
  Cr  Cr17  1  0.32938091  0.66316321  0.33049228  1
  Cr  Cr18  1  0.66260434  -0.00015185  -0.00193296  1
  Cr  Cr19  1  0.83182629  0.16225256  0.16525440  1
  Fe  Fe20  1  0.66193233  0.99451578  0.33047857  1
  Fe  Fe21  1  0.66352959  0.33038712  0.99478320  1
  Cr  Cr22  1  0.83124089  0.49779502  0.16031186  1
  Cr  Cr23  1  0.66369795  0.33070491  0.32856531  1
  Fe  Fe24  1  0.66392951  0.66475940  0.99433404  1
  Cr  Cr25  1  0.82921023  0.83020297  0.16566404  1
  Fe  Fe26  1  0.66255704  0.66362434  0.33156480  1
  Cr  Cr27  1  0.16380117  0.16583690  0.49918580  1
  Cr  Cr28  1  0.99672020  -0.00250498  0.66978298  1
  Fe  Fe29  1  0.16482233  0.16411426  0.83085536  1
  Fe  Fe30  1  0.16281490  0.49445558  0.49623911  1
  Fe  Fe31  1  0.99449981  0.33091278  0.66520246  1
  Cr  Cr32  1  0.16395088  0.49682482  0.83072195  1
  Cr  Cr33  1  0.16357690  0.83113300  0.49953953  1
  Cr  Cr34  1  0.99534433  0.66169929  0.66252325  1
  Fe  Fe35  1  0.16278865  0.82986917  0.83134141  1
  Cr  Cr36  1  0.49612799  0.16254795  0.49924501  1
  Fe  Fe37  1  0.32979798  -0.00220576  0.66643693  1
  Fe  Fe38  1  0.49576276  0.16619388  0.82951963  1
  Fe  Fe39  1  0.49607687  0.49440140  0.49587373  1
  Fe  Fe40  1  0.33120353  0.33006154  0.66541895  1
  Fe  Fe41  1  0.49845440  0.49503550  0.83163378  1
  Fe  Fe42  1  0.49808253  0.83045876  0.49591857  1
  Cr  Cr43  1  0.33043759  0.66187499  0.66181850  1
  Cr  Cr44  1  0.49626429  0.82932869  0.82869733  1
  Cr  Cr45  1  0.83146788  0.16243806  0.49557879  1
  Cr  Cr46  1  0.66453389  -0.00239024  0.66339531  1
  Fe  Fe47  1  0.82959175  0.16675757  0.83189082  1
  Fe  Fe48  1  0.83178500  0.49541848  0.49467519  1
  Fe  Fe49  1  0.66497586  0.33123965  0.66476304  1
  Fe  Fe50  1  0.82881955  0.49671194  0.83235780  1
  Fe  Fe51  1  0.82993496  0.83021636  0.49419894  1
  Cr  Cr52  1  0.66463557  0.66025625  0.65996784  1
  Fe  Fe53  1  0.83029477  0.82822077  0.83233738  1
" 