3496,Fe40Cr60_11,-218.719477565529, 160.284876514003,Fe40Cr60,"# generated using pymatgen
 data_Cr7Fe11
_symmetry_space_group_name_H-M   'P 1'
_cell_length_a   7.52266828
_cell_length_b   7.52266828
_cell_length_c   10.63865951
_cell_angle_alpha   90.00000000
_cell_angle_beta   90.00000000
_cell_angle_gamma   90.00000000
_symmetry_Int_Tables_number   1
_chemical_formula_structural   Cr7Fe11
_chemical_formula_sum   'Cr21 Fe33'
_cell_volume   602.04746650
_cell_formula_units_Z   3
loop_
 _symmetry_equiv_pos_site_id
 _symmetry_equiv_pos_as_xyz
  1  'x, y, z'
loop_
 _atom_site_type_symbol
 _atom_site_label
 _atom_site_symmetry_multiplicity
 _atom_site_fract_x
 _atom_site_fract_y
 _atom_site_fract_z
 _atom_site_occupancy
  Fe  Fe0  1  0.99623983  -0.00342787  -0.00226835  1
  Fe  Fe1  1  0.16247230  0.16149464  0.16326365  1
  Fe  Fe2  1  -0.00339730  -0.00367726  0.32867814  1
  Cr  Cr3  1  -0.00185731  0.32900082  0.99460460  1
  Fe  Fe4  1  0.16439566  0.49785041  0.16179108  1
  Fe  Fe5  1  -0.00354216  0.32957892  0.32894901  1
  Fe  Fe6  1  -0.00291399  0.66497469  -0.00124521  1
  Fe  Fe7  1  0.16137080  0.83003066  0.16261148  1
  Cr  Cr8  1  0.99382064  0.66521857  0.32875872  1
  Cr  Cr9  1  0.32981296  -0.00111820  0.99604858  1
  Fe  Fe10  1  0.49664977  0.16250689  0.16328759  1
  Fe  Fe11  1  0.32926261  0.99443211  0.32756768  1
  Fe  Fe12  1  0.32929292  0.33007879  -0.00108935  1
  Fe  Fe13  1  0.49589407  0.49711892  0.16214969  1
  Cr  Cr14  1  0.33095683  0.32836172  0.32440835  1
  Fe  Fe15  1  0.32948942  0.66210799  -0.00143633  1
  Cr  Cr16  1  0.49633373  0.82969289  0.16233017  1
  Fe  Fe17  1  0.33124506  0.66303912  0.32890177  1
  Fe  Fe18  1  0.66392360  0.99572468  -0.00254103  1
  Cr  Cr19  1  0.82830234  0.16120404  0.16424779  1
  Fe  Fe20  1  0.66333701  0.99379566  0.32951881  1
  Cr  Cr21  1  0.66061121  0.32845026  -0.00300943  1
  Cr  Cr22  1  0.82907390  0.49646993  0.16281343  1
  Fe  Fe23  1  0.66354262  0.33187759  0.32925991  1
  Fe  Fe24  1  0.66232649  0.66438805  -0.00248408  1
  Fe  Fe25  1  0.82968333  0.83026542  0.16161589  1
  Fe  Fe26  1  0.66070385  0.66291730  0.33104714  1
  Cr  Cr27  1  0.16214192  0.16176367  0.49643038  1
  Fe  Fe28  1  0.99523575  -0.00276858  0.66431879  1
  Fe  Fe29  1  0.16084272  0.16165149  0.82848876  1
  Cr  Cr30  1  0.16320011  0.49634336  0.49633916  1
  Fe  Fe31  1  0.99490799  0.32794688  0.66420680  1
  Cr  Cr32  1  0.16376745  0.49833030  0.83103367  1
  Cr  Cr33  1  0.16642405  0.83044546  0.49557840  1
  Cr  Cr34  1  0.99291293  0.66396467  0.66183211  1
  Cr  Cr35  1  0.16453873  0.82910632  0.82935901  1
  Cr  Cr36  1  0.49742897  0.16110061  0.49319489  1
  Fe  Fe37  1  0.33123868  0.99433950  0.66367997  1
  Cr  Cr38  1  0.49903173  0.16077877  0.83038333  1
  Fe  Fe39  1  0.49761350  0.49727391  0.49624185  1
  Cr  Cr40  1  0.33020493  0.32746457  0.66581039  1
  Cr  Cr41  1  0.49595707  0.49904286  0.83163815  1
  Fe  Fe42  1  0.49809376  0.82836291  0.49581288  1
  Fe  Fe43  1  0.33284041  0.66446641  0.66241140  1
  Fe  Fe44  1  0.49700888  0.82858122  0.82941042  1
  Cr  Cr45  1  0.82932209  0.16474925  0.49643665  1
  Fe  Fe46  1  0.66326334  0.99427011  0.66300552  1
  Fe  Fe47  1  0.83128465  0.16203257  0.82819991  1
  Fe  Fe48  1  0.82673958  0.49621160  0.49570605  1
  Fe  Fe49  1  0.66385809  0.33051188  0.66257057  1
  Cr  Cr50  1  0.82881051  0.49571194  0.82841704  1
  Fe  Fe51  1  0.82740703  0.83092095  0.49608616  1
  Fe  Fe52  1  0.66075646  0.66412869  0.66144604  1
  Cr  Cr53  1  0.82850742  0.83128087  0.83455096  1
" 