246,Fe40Cr60_15,-218.670114859008, 162.049205001221,Fe40Cr60,"# generated using pymatgen
 data_Cr7Fe11
_symmetry_space_group_name_H-M   'P 1'
_cell_length_a   7.51567164
_cell_length_b   7.51567164
_cell_length_c   10.62876476
_cell_angle_alpha   90.00000000
_cell_angle_beta   90.00000000
_cell_angle_gamma   90.00000000
_symmetry_Int_Tables_number   1
_chemical_formula_structural   Cr7Fe11
_chemical_formula_sum   'Cr21 Fe33'
_cell_volume   600.36918036
_cell_formula_units_Z   3
loop_
 _symmetry_equiv_pos_site_id
 _symmetry_equiv_pos_as_xyz
  1  'x, y, z'
loop_
 _atom_site_type_symbol
 _atom_site_label
 _atom_site_symmetry_multiplicity
 _atom_site_fract_x
 _atom_site_fract_y
 _atom_site_fract_z
 _atom_site_occupancy
  Fe  Fe0  1  -0.00295135  0.99470785  -0.00273051  1
  Cr  Cr1  1  0.16668294  0.16152190  0.16176541  1
  Cr  Cr2  1  0.99653229  -0.00300222  0.32772236  1
  Cr  Cr3  1  -0.00169157  0.32801508  -0.00174610  1
  Fe  Fe4  1  0.16316608  0.49898885  0.16297721  1
  Fe  Fe5  1  -0.00240941  0.33122144  0.32895386  1
  Fe  Fe6  1  0.99600556  0.66457863  -0.00140472  1
  Fe  Fe7  1  0.16514138  0.82770656  0.16187408  1
  Fe  Fe8  1  -0.00167098  0.66305675  0.32869857  1
  Fe  Fe9  1  0.33051111  0.99579707  0.99544911  1
  Cr  Cr10  1  0.49545611  0.16152331  0.16373610  1
  Fe  Fe11  1  0.33043738  0.99334826  0.33028768  1
  Fe  Fe12  1  0.33015916  0.33041427  0.99418187  1
  Cr  Cr13  1  0.49660083  0.49630771  0.16096155  1
  Cr  Cr14  1  0.32809843  0.33356504  0.33116871  1
  Fe  Fe15  1  0.32995524  0.66379786  0.99637064  1
  Fe  Fe16  1  0.49361614  0.83020371  0.16235232  1
  Fe  Fe17  1  0.32721217  0.66628567  0.33045562  1
  Cr  Cr18  1  0.66584118  0.99437411  -0.00232442  1
  Fe  Fe19  1  0.83044483  0.16295833  0.16343831  1
  Fe  Fe20  1  0.66360050  0.99528146  0.32937849  1
  Cr  Cr21  1  0.66373131  0.33014502  0.99593097  1
  Fe  Fe22  1  0.83294356  0.49815505  0.16319540  1
  Cr  Cr23  1  0.66586161  0.32967074  0.32919181  1
  Fe  Fe24  1  0.66393275  0.66443608  -0.00314967  1
  Fe  Fe25  1  0.83114888  0.82892516  0.16298410  1
  Cr  Cr26  1  0.66004118  0.66545467  0.32751453  1
  Fe  Fe27  1  0.16264028  0.16173933  0.49570579  1
  Cr  Cr28  1  -0.00318926  -0.00271688  0.66606655  1
  Fe  Fe29  1  0.16465778  0.16345072  0.83251852  1
  Fe  Fe30  1  0.16317747  0.49869983  0.49558734  1
  Cr  Cr31  1  -0.00129646  0.32722277  0.66152177  1
  Fe  Fe32  1  0.16392892  0.49784698  0.83180532  1
  Fe  Fe33  1  0.16408659  0.83120897  0.49594381  1
  Fe  Fe34  1  -0.00098373  0.66217928  0.66398047  1
  Cr  Cr35  1  0.16213210  0.83002706  0.83085207  1
  Cr  Cr36  1  0.49528353  0.16121166  0.49612376  1
  Fe  Fe37  1  0.33094849  -0.00294328  0.66404621  1
  Fe  Fe38  1  0.49541254  0.16097115  0.83108315  1
  Fe  Fe39  1  0.49703919  0.49776454  0.49571686  1
  Cr  Cr40  1  0.32916891  0.33206082  0.66625741  1
  Fe  Fe41  1  0.49426138  0.49883887  0.83300740  1
  Fe  Fe42  1  0.49607791  0.83052563  0.49557664  1
  Cr  Cr43  1  0.33032140  0.66399740  0.66016862  1
  Fe  Fe44  1  0.49566267  0.83064245  0.83150226  1
  Fe  Fe45  1  0.83010285  0.16166386  0.49600390  1
  Fe  Fe46  1  0.66114007  -0.00250245  0.66582210  1
  Fe  Fe47  1  0.83055534  0.16243686  0.83077381  1
  Cr  Cr48  1  0.83177194  0.49811913  0.49625743  1
  Cr  Cr49  1  0.66253763  0.33011742  0.66442189  1
  Cr  Cr50  1  0.83178504  0.50016495  0.82965553  1
  Cr  Cr51  1  0.83094551  0.82851412  0.50075206  1
  Cr  Cr52  1  0.65935473  0.66539460  0.66633177  1
  Fe  Fe53  1  0.82939841  0.83124436  0.83060282  1
" 