7520,Fe40Cr60_8,-218.602943412423, 162.158670868052,Fe40Cr60,"# generated using pymatgen
 data_Cr7Fe11
_symmetry_space_group_name_H-M   'P 1'
_cell_length_a   7.51472084
_cell_length_b   7.51472084
_cell_length_c   10.62742013
_cell_angle_alpha   90.00000000
_cell_angle_beta   90.00000000
_cell_angle_gamma   90.00000000
_symmetry_Int_Tables_number   1
_chemical_formula_structural   Cr7Fe11
_chemical_formula_sum   'Cr21 Fe33'
_cell_volume   600.14135374
_cell_formula_units_Z   3
loop_
 _symmetry_equiv_pos_site_id
 _symmetry_equiv_pos_as_xyz
  1  'x, y, z'
loop_
 _atom_site_type_symbol
 _atom_site_label
 _atom_site_symmetry_multiplicity
 _atom_site_fract_x
 _atom_site_fract_y
 _atom_site_fract_z
 _atom_site_occupancy
  Fe  Fe0  1  0.99656431  -0.00313614  -0.00279687  1
  Cr  Cr1  1  0.16426459  0.16419887  0.16459976  1
  Cr  Cr2  1  -0.00153097  0.99435760  0.33137956  1
  Cr  Cr3  1  0.99555019  0.33415407  0.00016960  1
  Fe  Fe4  1  0.16324909  0.50092599  0.16469039  1
  Cr  Cr5  1  0.99466134  0.33300871  0.33218860  1
  Fe  Fe6  1  -0.00182840  0.66740884  -0.00218510  1
  Fe  Fe7  1  0.16379551  0.82762617  0.16403583  1
  Fe  Fe8  1  -0.00265721  0.66275126  0.33010428  1
  Cr  Cr9  1  0.33068221  0.99209896  0.99672488  1
  Fe  Fe10  1  0.49662821  0.16263071  0.16551957  1
  Fe  Fe11  1  0.32912969  0.99619666  0.32961701  1
  Cr  Cr12  1  0.33099409  0.33255314  0.99630667  1
  Cr  Cr13  1  0.49677416  0.49850144  0.16412763  1
  Fe  Fe14  1  0.32806314  0.33255025  0.32984111  1
  Fe  Fe15  1  0.32973829  0.66301811  0.99658330  1
  Cr  Cr16  1  0.49936855  0.82958102  0.16838191  1
  Fe  Fe17  1  0.32705216  0.66194915  0.33067848  1
  Cr  Cr18  1  0.66382304  -0.00264918  0.99605187  1
  Fe  Fe19  1  0.82976518  0.16146025  0.16421711  1
  Fe  Fe20  1  0.66626613  -0.00258269  0.32926671  1
  Cr  Cr21  1  0.66390554  0.33013677  -0.00193072  1
  Fe  Fe22  1  0.83115134  0.50196014  0.16352834  1
  Cr  Cr23  1  0.66400027  0.33103635  0.32810419  1
  Fe  Fe24  1  0.66327459  0.66478180  -0.00310109  1
  Fe  Fe25  1  0.83262051  0.82932302  0.16348309  1
  Fe  Fe26  1  0.66811668  0.66238440  0.32988047  1
  Fe  Fe27  1  0.16360337  0.16253337  0.49593940  1
  Cr  Cr28  1  -0.00280388  0.99575587  0.66321779  1
  Cr  Cr29  1  0.16256775  0.16473028  0.82918471  1
  Fe  Fe30  1  0.16581069  0.49926282  0.49627802  1
  Cr  Cr31  1  0.99552266  0.33168934  0.65770271  1
  Fe  Fe32  1  0.16366635  0.49885822  0.82919239  1
  Fe  Fe33  1  0.16514283  0.82687036  0.49608705  1
  Fe  Fe34  1  -0.00083494  0.66356779  0.66305545  1
  Fe  Fe35  1  0.16218397  0.82625514  0.83091011  1
  Cr  Cr36  1  0.49229256  0.16323914  0.49324648  1
  Cr  Cr37  1  0.32998112  0.99022188  0.66348109  1
  Fe  Fe38  1  0.49603931  0.16410249  0.82987627  1
  Fe  Fe39  1  0.49609018  0.49761532  0.49537720  1
  Fe  Fe40  1  0.32952324  0.32981583  0.66268150  1
  Fe  Fe41  1  0.49497809  0.49820297  0.82998716  1
  Cr  Cr42  1  0.49888561  0.82787925  0.49296063  1
  Fe  Fe43  1  0.33056423  0.65922047  0.66292320  1
  Fe  Fe44  1  0.49729092  0.82514013  0.83050529  1
  Fe  Fe45  1  0.82747190  0.16178791  0.49584044  1
  Cr  Cr46  1  0.66277870  -0.00280383  0.66611075  1
  Fe  Fe47  1  0.83096107  0.16502460  0.83072049  1
  Fe  Fe48  1  0.82737231  0.49861022  0.49686435  1
  Cr  Cr49  1  0.66202596  0.33177751  0.66350920  1
  Cr  Cr50  1  0.83024372  0.50108007  0.83018469  1
  Cr  Cr51  1  0.83019290  0.82683794  0.49820039  1
  Fe  Fe52  1  0.66172448  0.66411711  0.66431193  1
  Fe  Fe53  1  0.83201525  0.83109470  0.83089729  1
" 