4548,Fe40Cr60_13,-218.319933350524, 161.633209773167,Fe40Cr60,"# generated using pymatgen
 data_Cr7Fe11
_symmetry_space_group_name_H-M   'P 1'
_cell_length_a   7.50856871
_cell_length_b   7.50856871
_cell_length_c   10.61871971
_cell_angle_alpha   90.00000000
_cell_angle_beta   90.00000000
_cell_angle_gamma   90.00000000
_symmetry_Int_Tables_number   1
_chemical_formula_structural   Cr7Fe11
_chemical_formula_sum   'Cr21 Fe33'
_cell_volume   598.66859445
_cell_formula_units_Z   3
loop_
 _symmetry_equiv_pos_site_id
 _symmetry_equiv_pos_as_xyz
  1  'x, y, z'
loop_
 _atom_site_type_symbol
 _atom_site_label
 _atom_site_symmetry_multiplicity
 _atom_site_fract_x
 _atom_site_fract_y
 _atom_site_fract_z
 _atom_site_occupancy
  Cr  Cr0  1  -0.00034090  -0.00130360  -0.00273780  1
  Fe  Fe1  1  0.16416816  0.16417109  0.16613621  1
  Fe  Fe2  1  0.99696502  -0.00050610  0.33033369  1
  Fe  Fe3  1  0.99605315  0.32707754  -0.00156418  1
  Cr  Cr4  1  0.16225271  0.49661452  0.16104566  1
  Fe  Fe5  1  -0.00150361  0.32863402  0.33169607  1
  Cr  Cr6  1  -0.00249085  0.66641209  0.99634345  1
  Fe  Fe7  1  0.16512601  0.83102471  0.16630507  1
  Cr  Cr8  1  0.99639649  0.66397663  0.33307221  1
  Cr  Cr9  1  0.32894489  0.99601493  -0.00216030  1
  Fe  Fe10  1  0.49592867  0.16336964  0.16514103  1
  Fe  Fe11  1  0.32866950  -0.00242709  0.32870898  1
  Fe  Fe12  1  0.32986467  0.32782760  -0.00199159  1
  Cr  Cr13  1  0.49498742  0.49759623  0.16271505  1
  Fe  Fe14  1  0.32798027  0.33035998  0.33110715  1
  Fe  Fe15  1  0.33030490  0.66718659  0.99715305  1
  Fe  Fe16  1  0.49610919  0.83171946  0.16710077  1
  Fe  Fe17  1  0.33095770  0.66368260  0.33119346  1
  Cr  Cr18  1  0.66332806  -0.00219738  0.99649883  1
  Fe  Fe19  1  0.83178259  0.16501684  0.16470491  1
  Fe  Fe20  1  0.66628678  0.99645193  0.32807524  1
  Fe  Fe21  1  0.66581001  0.32796906  -0.00070180  1
  Fe  Fe22  1  0.83161379  0.49576555  0.16381565  1
  Cr  Cr23  1  0.66488805  0.33296936  0.33012336  1
  Cr  Cr24  1  0.66275638  0.66268341  0.00025979  1
  Fe  Fe25  1  0.83029946  0.83118088  0.16592393  1
  Fe  Fe26  1  0.66398732  0.66512001  0.32993708  1
  Fe  Fe27  1  0.16352331  0.16332488  0.49447978  1
  Cr  Cr28  1  -0.00166376  0.99644474  0.66543162  1
  Fe  Fe29  1  0.16306571  0.16685219  0.83157877  1
  Fe  Fe30  1  0.16574495  0.49642906  0.49604949  1
  Cr  Cr31  1  -0.00275592  0.32976121  0.66051736  1
  Cr  Cr32  1  0.16357301  0.49669455  0.83217015  1
  Fe  Fe33  1  0.16363680  0.83190420  0.49589332  1
  Fe  Fe34  1  -0.00259257  0.66473104  0.66199046  1
  Fe  Fe35  1  0.16392072  0.82970664  0.83092712  1
  Cr  Cr36  1  0.49686915  0.16248848  0.49782604  1
  Cr  Cr37  1  0.32783412  -0.00248969  0.66684436  1
  Cr  Cr38  1  0.49840718  0.16325351  0.82894873  1
  Fe  Fe39  1  0.49504862  0.49755434  0.49507488  1
  Fe  Fe40  1  0.32840347  0.33082595  0.66203216  1
  Cr  Cr41  1  0.49466888  0.49533084  0.83244313  1
  Cr  Cr42  1  0.49978195  0.83292973  0.49468803  1
  Cr  Cr43  1  0.32953260  0.66440142  0.66364436  1
  Fe  Fe44  1  0.49788035  0.82894762  0.83058566  1
  Fe  Fe45  1  0.83167493  0.16091413  0.49511831  1
  Fe  Fe46  1  0.66637173  0.99617051  0.66468792  1
  Fe  Fe47  1  0.83200402  0.16450438  0.83089165  1
  Fe  Fe48  1  0.83087480  0.49805269  0.49623766  1
  Cr  Cr49  1  0.66419910  0.33160034  0.66269588  1
  Cr  Cr50  1  0.83313212  0.49694227  0.83371743  1
  Fe  Fe51  1  0.83163894  0.83288561  0.49646116  1
  Cr  Cr52  1  0.66513388  0.66248128  0.66203757  1
  Fe  Fe53  1  0.82966070  0.83166217  0.82948663  1
" 