6407,Fe40Cr60_14,-218.518326736922, 163.645631687715,Fe40Cr60,"# generated using pymatgen
 data_Cr7Fe11
_symmetry_space_group_name_H-M   'P 1'
_cell_length_a   7.51675624
_cell_length_b   7.51675624
_cell_length_c   10.63029862
_cell_angle_alpha   90.00000000
_cell_angle_beta   90.00000000
_cell_angle_gamma   90.00000000
_symmetry_Int_Tables_number   1
_chemical_formula_structural   Cr7Fe11
_chemical_formula_sum   'Cr21 Fe33'
_cell_volume   600.62913925
_cell_formula_units_Z   3
loop_
 _symmetry_equiv_pos_site_id
 _symmetry_equiv_pos_as_xyz
  1  'x, y, z'
loop_
 _atom_site_type_symbol
 _atom_site_label
 _atom_site_symmetry_multiplicity
 _atom_site_fract_x
 _atom_site_fract_y
 _atom_site_fract_z
 _atom_site_occupancy
  Fe  Fe0  1  0.99565722  -0.00182447  0.99597611  1
  Cr  Cr1  1  0.16156162  0.16603893  0.16508956  1
  Fe  Fe2  1  -0.00312984  0.99459052  0.32977986  1
  Fe  Fe3  1  -0.00327901  0.32807399  -0.00317502  1
  Fe  Fe4  1  0.16594630  0.49708190  0.16176653  1
  Cr  Cr5  1  0.99553998  0.33186589  0.32808675  1
  Cr  Cr6  1  -0.00215035  0.66436004  0.00051685  1
  Fe  Fe7  1  0.16293008  0.83189751  0.16321514  1
  Cr  Cr8  1  -0.00297404  0.66439902  0.32952678  1
  Cr  Cr9  1  0.32600286  0.99638389  0.99403248  1
  Cr  Cr10  1  0.49687271  0.16211387  0.16648245  1
  Fe  Fe11  1  0.32720562  0.99613128  0.33124404  1
  Fe  Fe12  1  0.32946917  0.33146271  0.99650195  1
  Fe  Fe13  1  0.49476440  0.49626889  0.16181924  1
  Fe  Fe14  1  0.32911147  0.33222281  0.33035033  1
  Fe  Fe15  1  0.33114320  0.66081386  -0.00213964  1
  Cr  Cr16  1  0.49956292  0.82918409  0.16332662  1
  Cr  Cr17  1  0.32796354  0.66544103  0.32958542  1
  Cr  Cr18  1  0.66469249  -0.00054250  0.99419406  1
  Fe  Fe19  1  0.83043242  0.16112193  0.16329687  1
  Fe  Fe20  1  0.66608457  0.99383750  0.32999800  1
  Cr  Cr21  1  0.66417946  0.33156156  0.99523102  1
  Fe  Fe22  1  0.82944503  0.49644931  0.16169709  1
  Cr  Cr23  1  0.66391951  0.33175013  0.32963790  1
  Fe  Fe24  1  0.66388872  0.66235295  -0.00313412  1
  Fe  Fe25  1  0.83133747  0.83290844  0.16343190  1
  Cr  Cr26  1  0.66522444  0.66117699  0.33136468  1
  Fe  Fe27  1  0.16280642  0.16214175  0.49594766  1
  Fe  Fe28  1  0.99613562  0.99594201  0.66427504  1
  Fe  Fe29  1  0.16118848  0.16353973  0.83000476  1
  Cr  Cr30  1  0.16265190  0.49528959  0.49952897  1
  Fe  Fe31  1  -0.00315764  0.32817126  0.66403111  1
  Cr  Cr32  1  0.16329853  0.49575458  0.82972948  1
  Fe  Fe33  1  0.16196507  0.83263888  0.49737629  1
  Fe  Fe34  1  -0.00309641  0.66557326  0.66354868  1
  Fe  Fe35  1  0.16039626  0.82939224  0.82919823  1
  Cr  Cr36  1  0.49556452  0.16169019  0.49271763  1
  Cr  Cr37  1  0.32613543  -0.00318653  0.66382104  1
  Fe  Fe38  1  0.49402996  0.16671905  0.82982549  1
  Fe  Fe39  1  0.49543583  0.49671015  0.49721020  1
  Fe  Fe40  1  0.33065250  0.32983533  0.66399341  1
  Fe  Fe41  1  0.49559552  0.49640139  0.83075244  1
  Fe  Fe42  1  0.49601429  0.82923009  0.49630727  1
  Fe  Fe43  1  0.33045146  0.66311727  0.66267919  1
  Cr  Cr44  1  0.49839843  0.82674600  0.83126893  1
  Cr  Cr45  1  0.83207329  0.16109628  0.49490134  1
  Cr  Cr46  1  0.66218517  -0.00222905  0.66519152  1
  Fe  Fe47  1  0.83421681  0.16385799  0.82953479  1
  Fe  Fe48  1  0.83111751  0.49680639  0.49786462  1
  Cr  Cr49  1  0.66372946  0.33114171  0.66479320  1
  Fe  Fe50  1  0.83113266  0.49798341  0.83059784  1
  Fe  Fe51  1  0.83178474  0.83005395  0.49711028  1
  Cr  Cr52  1  0.66534165  0.66098149  0.66157886  1
  Fe  Fe53  1  0.83399840  0.82892733  0.82995675  1
" 