36,Fe40Cr60_17,-218.357835145959, 160.885633680051,Fe40Cr60,"# generated using pymatgen
 data_Cr7Fe11
_symmetry_space_group_name_H-M   'P 1'
_cell_length_a   7.52829427
_cell_length_b   7.52829427
_cell_length_c   10.64661585
_cell_angle_alpha   90.00000000
_cell_angle_beta   90.00000000
_cell_angle_gamma   90.00000000
_symmetry_Int_Tables_number   1
_chemical_formula_structural   Cr7Fe11
_chemical_formula_sum   'Cr21 Fe33'
_cell_volume   603.39923801
_cell_formula_units_Z   3
loop_
 _symmetry_equiv_pos_site_id
 _symmetry_equiv_pos_as_xyz
  1  'x, y, z'
loop_
 _atom_site_type_symbol
 _atom_site_label
 _atom_site_symmetry_multiplicity
 _atom_site_fract_x
 _atom_site_fract_y
 _atom_site_fract_z
 _atom_site_occupancy
  Fe  Fe0  1  0.99531425  0.99532522  -0.00251030  1
  Fe  Fe1  1  0.16241284  0.16215237  0.16212602  1
  Cr  Cr2  1  -0.00348616  -0.00336297  0.32716311  1
  Fe  Fe3  1  0.99484007  0.32940394  -0.00312045  1
  Cr  Cr4  1  0.16087515  0.49642034  0.16311377  1
  Fe  Fe5  1  -0.00383989  0.32975667  0.32879607  1
  Fe  Fe6  1  0.99547206  0.66306980  -0.00357839  1
  Fe  Fe7  1  0.16239831  0.82970917  0.16213488  1
  Fe  Fe8  1  -0.00336280  0.66163415  0.32830115  1
  Fe  Fe9  1  0.32938827  0.99579324  0.99591192  1
  Cr  Cr10  1  0.49566253  0.16220680  0.16050471  1
  Fe  Fe11  1  0.32855100  -0.00405443  0.32831450  1
  Fe  Fe12  1  0.32938997  0.32847529  0.99578742  1
  Cr  Cr13  1  0.49566011  0.49522769  0.16361545  1
  Fe  Fe14  1  0.32793737  0.32961850  0.32988505  1
  Fe  Fe15  1  0.32831300  0.66352817  0.99592346  1
  Cr  Cr16  1  0.49447189  0.83036066  0.16340562  1
  Fe  Fe17  1  0.32792843  0.66223217  0.32975538  1
  Fe  Fe18  1  0.66309050  -0.00358462  0.99558073  1
  Fe  Fe19  1  0.83056986  0.16323840  0.16102283  1
  Cr  Cr20  1  0.66444991  0.99579724  0.32866001  1
  Fe  Fe21  1  0.66355840  0.32832134  -0.00395091  1
  Fe  Fe22  1  0.83046334  0.49545460  0.16223643  1
  Cr  Cr23  1  0.66275534  0.33004602  0.32976401  1
  Cr  Cr24  1  0.66469157  0.66280260  0.99542254  1
  Fe  Fe25  1  0.83106163  0.82910328  0.16176268  1
  Cr  Cr26  1  0.66243548  0.66195231  0.32849220  1
  Cr  Cr27  1  0.16109552  0.16363836  0.49552664  1
  Fe  Fe28  1  0.99513368  -0.00390589  0.66247514  1
  Cr  Cr29  1  0.16280373  0.16196894  0.83063335  1
  Fe  Fe30  1  0.16321463  0.49655236  0.49543857  1
  Fe  Fe31  1  0.99449679  0.32971410  0.66212515  1
  Cr  Cr32  1  0.16043287  0.49704443  0.82956403  1
  Cr  Cr33  1  0.16351569  0.82743615  0.49585255  1
  Fe  Fe34  1  0.99561376  0.66198543  0.66308734  1
  Cr  Cr35  1  0.16282121  0.82878283  0.82906296  1
  Cr  Cr36  1  0.49717873  0.16247316  0.49608627  1
  Fe  Fe37  1  0.33018563  0.99497594  0.66356898  1
  Fe  Fe38  1  0.49614618  0.16117739  0.82975009  1
  Fe  Fe39  1  0.49434645  0.49655079  0.49640561  1
  Cr  Cr40  1  0.32920098  0.32997837  0.66170324  1
  Cr  Cr41  1  0.49724001  0.49585036  0.83011369  1
  Cr  Cr42  1  0.49475196  0.82860180  0.49641437  1
  Fe  Fe43  1  0.32973718  0.66306875  0.66213437  1
  Fe  Fe44  1  0.49624394  0.83082445  0.82877761  1
  Fe  Fe45  1  0.82977322  0.16282571  0.49753159  1
  Fe  Fe46  1  0.66247511  -0.00391064  0.66342701  1
  Cr  Cr47  1  0.82774448  0.16317923  0.82741830  1
  Cr  Cr48  1  0.83069246  0.49429441  0.49735637  1
  Fe  Fe49  1  0.66356576  0.32926899  0.66246448  1
  Fe  Fe50  1  0.83000807  0.49637707  0.82864610  1
  Cr  Cr51  1  0.82952875  0.82985245  0.49806785  1
  Fe  Fe52  1  0.66244733  0.66243637  0.66355989  1
  Fe  Fe53  1  0.82894417  0.82867146  0.82862925  1
" 