5923,Fe40Cr60_18,-218.543891109239, 160.437017216435,Fe40Cr60,"# generated using pymatgen
 data_Cr7Fe11
_symmetry_space_group_name_H-M   'P 1'
_cell_length_a   7.51503726
_cell_length_b   7.51503726
_cell_length_c   10.62786761
_cell_angle_alpha   90.00000000
_cell_angle_beta   90.00000000
_cell_angle_gamma   90.00000000
_symmetry_Int_Tables_number   1
_chemical_formula_structural   Cr7Fe11
_chemical_formula_sum   'Cr21 Fe33'
_cell_volume   600.21716579
_cell_formula_units_Z   3
loop_
 _symmetry_equiv_pos_site_id
 _symmetry_equiv_pos_as_xyz
  1  'x, y, z'
loop_
 _atom_site_type_symbol
 _atom_site_label
 _atom_site_symmetry_multiplicity
 _atom_site_fract_x
 _atom_site_fract_y
 _atom_site_fract_z
 _atom_site_occupancy
  Cr  Cr0  1  -0.00261921  -0.00303257  0.99346884  1
  Fe  Fe1  1  0.16371468  0.16248862  0.16151541  1
  Cr  Cr2  1  -0.00170715  0.99675587  0.33356201  1
  Fe  Fe3  1  -0.00140169  0.33160581  -0.00199485  1
  Fe  Fe4  1  0.16215636  0.49711798  0.16088357  1
  Cr  Cr5  1  0.99665053  0.33092538  0.32867115  1
  Fe  Fe6  1  -0.00266005  0.66318321  0.99566336  1
  Fe  Fe7  1  0.16351302  0.83101403  0.16181067  1
  Cr  Cr8  1  0.99649915  0.66194226  0.32848646  1
  Fe  Fe9  1  0.33049335  -0.00272941  -0.00313156  1
  Fe  Fe10  1  0.49782689  0.16291431  0.16083633  1
  Cr  Cr11  1  0.33245379  -0.00211936  0.33008089  1
  Fe  Fe12  1  0.32795332  0.32916080  -0.00302332  1
  Cr  Cr13  1  0.49560544  0.49663203  0.16213293  1
  Cr  Cr14  1  0.32957459  0.32917248  0.33000134  1
  Cr  Cr15  1  0.32845691  0.66415273  0.99384342  1
  Cr  Cr16  1  0.49709305  0.83109071  0.16516790  1
  Cr  Cr17  1  0.32851597  0.66432005  0.33082123  1
  Fe  Fe18  1  0.66183360  -0.00307745  0.99606117  1
  Fe  Fe19  1  0.82958259  0.16348166  0.16162922  1
  Fe  Fe20  1  0.66412107  0.99647799  0.33215447  1
  Fe  Fe21  1  0.66326315  0.32917485  -0.00213247  1
  Fe  Fe22  1  0.82945359  0.49667749  0.16047695  1
  Cr  Cr23  1  0.66380160  0.32861708  0.32975025  1
  Cr  Cr24  1  0.66235249  0.66446140  0.99236696  1
  Cr  Cr25  1  0.83041073  0.83125278  0.16392754  1
  Fe  Fe26  1  0.66379291  0.66308752  0.33160527  1
  Fe  Fe27  1  0.16715805  0.16331095  0.49865671  1
  Fe  Fe28  1  -0.00078596  0.99542077  0.66407078  1
  Fe  Fe29  1  0.16482021  0.16455226  0.82947122  1
  Fe  Fe30  1  0.16300361  0.49733431  0.49797359  1
  Cr  Cr31  1  -0.00155040  0.32922057  0.66170875  1
  Fe  Fe32  1  0.16484237  0.49410725  0.83006375  1
  Fe  Fe33  1  0.16455031  0.82984024  0.49914481  1
  Cr  Cr34  1  0.99663608  0.66404675  0.66528108  1
  Fe  Fe35  1  0.16464446  0.83202160  0.82881348  1
  Fe  Fe36  1  0.49634256  0.16309445  0.49931353  1
  Fe  Fe37  1  0.32825945  0.99668480  0.66340369  1
  Cr  Cr38  1  0.49546020  0.16527524  0.83151952  1
  Cr  Cr39  1  0.49594724  0.49838983  0.50053021  1
  Fe  Fe40  1  0.33020456  0.32978998  0.66376672  1
  Fe  Fe41  1  0.49492780  0.49611605  0.82776250  1
  Fe  Fe42  1  0.49724615  0.83137040  0.49784912  1
  Fe  Fe43  1  0.33019777  0.66520834  0.66558289  1
  Fe  Fe44  1  0.49505786  0.83126076  0.82875443  1
  Cr  Cr45  1  0.83174838  0.16200055  0.49860153  1
  Cr  Cr46  1  0.66342366  0.99536216  0.66471834  1
  Cr  Cr47  1  0.83166919  0.16347839  0.83083443  1
  Fe  Fe48  1  0.82938851  0.49805012  0.49766373  1
  Fe  Fe49  1  0.66277448  0.33100813  0.66359495  1
  Cr  Cr50  1  0.82962820  0.49521556  0.83092657  1
  Fe  Fe51  1  0.82856484  0.82707959  0.49742193  1
  Fe  Fe52  1  0.66245010  0.66338078  0.66566573  1
  Fe  Fe53  1  0.83024261  0.83021485  0.82985382  1
" 