2896,Fe40Cr60_3,-218.641961636804, 157.352352809171,Fe40Cr60,"# generated using pymatgen
 data_Cr7Fe11
_symmetry_space_group_name_H-M   'P 1'
_cell_length_a   7.51677333
_cell_length_b   7.51677333
_cell_length_c   10.63032279
_cell_angle_alpha   90.00000000
_cell_angle_beta   90.00000000
_cell_angle_gamma   90.00000000
_symmetry_Int_Tables_number   1
_chemical_formula_structural   Cr7Fe11
_chemical_formula_sum   'Cr21 Fe33'
_cell_volume   600.63323720
_cell_formula_units_Z   3
loop_
 _symmetry_equiv_pos_site_id
 _symmetry_equiv_pos_as_xyz
  1  'x, y, z'
loop_
 _atom_site_type_symbol
 _atom_site_label
 _atom_site_symmetry_multiplicity
 _atom_site_fract_x
 _atom_site_fract_y
 _atom_site_fract_z
 _atom_site_occupancy
  Fe  Fe0  1  -0.00185434  -0.00282547  0.99566479  1
  Fe  Fe1  1  0.16262262  0.16405768  0.16507876  1
  Fe  Fe2  1  -0.00262782  -0.00217527  0.33220298  1
  Cr  Cr3  1  -0.00151292  0.33084500  0.99637102  1
  Fe  Fe4  1  0.16397506  0.49561525  0.16466517  1
  Fe  Fe5  1  -0.00148036  0.32916798  0.32917914  1
  Fe  Fe6  1  -0.00288703  0.66195212  0.99555240  1
  Cr  Cr7  1  0.16195374  0.82867382  0.16533270  1
  Fe  Fe8  1  -0.00262298  0.66265554  0.33106350  1
  Cr  Cr9  1  0.32624960  -0.00236242  0.99641663  1
  Cr  Cr10  1  0.49371944  0.16500193  0.16422738  1
  Fe  Fe11  1  0.32786287  -0.00197266  0.33163692  1
  Fe  Fe12  1  0.32917487  0.33138053  0.99624961  1
  Fe  Fe13  1  0.49400501  0.49760907  0.16281538  1
  Fe  Fe14  1  0.32898540  0.33023818  0.33047386  1
  Cr  Cr15  1  0.32936163  0.66338070  0.99299131  1
  Cr  Cr16  1  0.49655295  0.83055759  0.16142609  1
  Fe  Fe17  1  0.33013279  0.66211396  0.32984186  1
  Cr  Cr18  1  0.66178701  -0.00271487  0.99553547  1
  Cr  Cr19  1  0.83087508  0.16194378  0.16284208  1
  Cr  Cr20  1  0.66297364  -0.00261905  0.33295662  1
  Cr  Cr21  1  0.66476498  0.33307168  -0.00217901  1
  Fe  Fe22  1  0.83287397  0.49747466  0.16360472  1
  Cr  Cr23  1  0.66407766  0.33082998  0.33048030  1
  Fe  Fe24  1  0.66404125  0.66120192  0.99565445  1
  Cr  Cr25  1  0.83150868  0.82874788  0.16225751  1
  Cr  Cr26  1  0.66362431  0.66208606  0.32838187  1
  Fe  Fe27  1  0.16261411  0.16320116  0.49629890  1
  Fe  Fe28  1  0.99543864  -0.00205639  0.66285387  1
  Fe  Fe29  1  0.16122571  0.16390193  0.82887742  1
  Cr  Cr30  1  0.16501611  0.49643778  0.49668805  1
  Fe  Fe31  1  -0.00259270  0.32755295  0.66467492  1
  Fe  Fe32  1  0.16393938  0.49496228  0.82848768  1
  Fe  Fe33  1  0.16169138  0.83079922  0.49482999  1
  Cr  Cr34  1  -0.00109852  0.66364531  0.66398115  1
  Fe  Fe35  1  0.16274642  0.83058282  0.82971440  1
  Fe  Fe36  1  0.49497491  0.16665111  0.49842875  1
  Cr  Cr37  1  0.32746885  0.99537923  0.66350116  1
  Cr  Cr38  1  0.49660037  0.16497736  0.82943133  1
  Fe  Fe39  1  0.49581791  0.49529291  0.49737584  1
  Fe  Fe40  1  0.32964498  0.33152402  0.66350360  1
  Fe  Fe41  1  0.49645670  0.49649918  0.82903014  1
  Cr  Cr42  1  0.49545796  0.82979611  0.49740643  1
  Fe  Fe43  1  0.32984720  0.66192734  0.66518348  1
  Fe  Fe44  1  0.49629593  0.82939467  0.82873240  1
  Fe  Fe45  1  0.83208656  0.16270720  0.49833585  1
  Fe  Fe46  1  0.66539807  -0.00230596  0.66268703  1
  Fe  Fe47  1  0.83156495  0.16459271  0.82855470  1
  Cr  Cr48  1  0.83254972  0.49532847  0.49713599  1
  Fe  Fe49  1  0.66381350  0.32847914  0.66285252  1
  Fe  Fe50  1  0.83023981  0.49522956  0.82896512  1
  Fe  Fe51  1  0.83253755  0.83052330  0.49722911  1
  Cr  Cr52  1  0.66278002  0.66186760  0.66384666  1
  Cr  Cr53  1  0.83073425  0.83056029  0.83205687  1
" 