4563,Fe40Cr60_9,-218.316031545991, 154.533633145575,Fe40Cr60,"# generated using pymatgen
 data_Cr7Fe11
_symmetry_space_group_name_H-M   'P 1'
_cell_length_a   7.51286310
_cell_length_b   7.51286310
_cell_length_c   10.62479289
_cell_angle_alpha   90.00000000
_cell_angle_beta   90.00000000
_cell_angle_gamma   90.00000000
_symmetry_Int_Tables_number   1
_chemical_formula_structural   Cr7Fe11
_chemical_formula_sum   'Cr21 Fe33'
_cell_volume   599.69637564
_cell_formula_units_Z   3
loop_
 _symmetry_equiv_pos_site_id
 _symmetry_equiv_pos_as_xyz
  1  'x, y, z'
loop_
 _atom_site_type_symbol
 _atom_site_label
 _atom_site_symmetry_multiplicity
 _atom_site_fract_x
 _atom_site_fract_y
 _atom_site_fract_z
 _atom_site_occupancy
  Cr  Cr0  1  0.99304915  -0.00175772  0.99342887  1
  Cr  Cr1  1  0.16360714  0.16282711  0.16546177  1
  Fe  Fe2  1  0.99573705  -0.00176350  0.33372743  1
  Cr  Cr3  1  0.99444065  0.33058394  -0.00040085  1
  Fe  Fe4  1  0.16223720  0.49692406  0.16524438  1
  Fe  Fe5  1  0.99509601  0.33155639  0.33099149  1
  Cr  Cr6  1  -0.00070166  0.66195629  0.99621804  1
  Cr  Cr7  1  0.16152788  0.83242381  0.16717807  1
  Fe  Fe8  1  0.99593266  0.66050394  0.33257168  1
  Cr  Cr9  1  0.33101740  0.99286528  0.99473253  1
  Cr  Cr10  1  0.49619049  0.16533421  0.16314321  1
  Fe  Fe11  1  0.33119436  -0.00216289  0.33430287  1
  Fe  Fe12  1  0.32924705  0.33108059  -0.00162568  1
  Fe  Fe13  1  0.50014519  0.49692637  0.16330627  1
  Cr  Cr14  1  0.33052074  0.33335216  0.33126356  1
  Cr  Cr15  1  0.33105093  0.65979579  -0.00210344  1
  Cr  Cr16  1  0.49922229  0.83032722  0.16509179  1
  Cr  Cr17  1  0.33054170  0.66330565  0.33040694  1
  Cr  Cr18  1  0.66623693  -0.00071407  0.99314105  1
  Fe  Fe19  1  0.82913814  0.16295792  0.16677444  1
  Fe  Fe20  1  0.66372358  -0.00188652  0.33283156  1
  Fe  Fe21  1  0.66422860  0.33288448  -0.00171988  1
  Fe  Fe22  1  0.82847107  0.49525662  0.16582881  1
  Fe  Fe23  1  0.66505452  0.33148512  0.33146162  1
  Fe  Fe24  1  0.66542585  0.66286375  -0.00286375  1
  Cr  Cr25  1  0.83078578  0.82678869  0.16645706  1
  Fe  Fe26  1  0.66445032  0.66068807  0.33272009  1
  Fe  Fe27  1  0.16201509  0.16418475  0.49659814  1
  Cr  Cr28  1  0.99394912  -0.00181268  0.66661704  1
  Cr  Cr29  1  0.16502258  0.16498465  0.82946194  1
  Fe  Fe30  1  0.16083900  0.49642982  0.49765593  1
  Fe  Fe31  1  -0.00268714  0.33164852  0.66138970  1
  Fe  Fe32  1  0.16387035  0.49536229  0.82843411  1
  Fe  Fe33  1  0.16114260  0.83012943  0.49555214  1
  Fe  Fe34  1  0.99645639  0.66459990  0.66177105  1
  Fe  Fe35  1  0.16339864  0.82730186  0.82889891  1
  Fe  Fe36  1  0.49836652  0.16474157  0.49606228  1
  Cr  Cr37  1  0.33170217  0.99416176  0.66070532  1
  Cr  Cr38  1  0.49490892  0.16635127  0.82996695  1
  Fe  Fe39  1  0.49949723  0.49643834  0.49806586  1
  Fe  Fe40  1  0.32994726  0.32959056  0.65980465  1
  Cr  Cr41  1  0.49921670  0.49557563  0.83026802  1
  Fe  Fe42  1  0.49923619  0.82958024  0.49510501  1
  Cr  Cr43  1  0.32985073  0.66082934  0.66268463  1
  Fe  Fe44  1  0.49885275  0.82776261  0.82963008  1
  Fe  Fe45  1  0.83051820  0.16507657  0.49593044  1
  Cr  Cr46  1  0.66492484  -0.00160085  0.66458102  1
  Fe  Fe47  1  0.82891142  0.16901966  0.82887147  1
  Fe  Fe48  1  0.83038809  0.49692613  0.49777517  1
  Fe  Fe49  1  0.66392295  0.33090502  0.66031537  1
  Cr  Cr50  1  0.82999096  0.49987088  0.82619526  1
  Fe  Fe51  1  0.83045950  0.82949045  0.49551025  1
  Fe  Fe52  1  0.66426014  0.66516097  0.66068171  1
  Fe  Fe53  1  0.82881437  0.82823517  0.82924423  1
" 