5427,Fe40Cr60_12,-218.524410870114, 160.661917967059,Fe40Cr60,"# generated using pymatgen
 data_Cr7Fe11
_symmetry_space_group_name_H-M   'P 1'
_cell_length_a   7.51315814
_cell_length_b   7.51315814
_cell_length_c   10.62521013
_cell_angle_alpha   90.00000000
_cell_angle_beta   90.00000000
_cell_angle_gamma   90.00000000
_symmetry_Int_Tables_number   1
_chemical_formula_structural   Cr7Fe11
_chemical_formula_sum   'Cr21 Fe33'
_cell_volume   599.76702922
_cell_formula_units_Z   3
loop_
 _symmetry_equiv_pos_site_id
 _symmetry_equiv_pos_as_xyz
  1  'x, y, z'
loop_
 _atom_site_type_symbol
 _atom_site_label
 _atom_site_symmetry_multiplicity
 _atom_site_fract_x
 _atom_site_fract_y
 _atom_site_fract_z
 _atom_site_occupancy
  Fe  Fe0  1  -0.00110243  0.99410040  -0.00256822  1
  Fe  Fe1  1  0.16290650  0.16250956  0.16200157  1
  Fe  Fe2  1  -0.00301335  0.99471617  0.33011637  1
  Fe  Fe3  1  0.99689130  0.33203828  0.99676977  1
  Fe  Fe4  1  0.16321175  0.49886974  0.16320884  1
  Cr  Cr5  1  -0.00133926  0.33106474  0.32931874  1
  Fe  Fe6  1  -0.00040151  0.66441480  0.99584615  1
  Fe  Fe7  1  0.16268741  0.82928330  0.16290921  1
  Fe  Fe8  1  -0.00286466  0.66627069  0.33044471  1
  Fe  Fe9  1  0.32733602  0.99431589  -0.00254710  1
  Cr  Cr10  1  0.49873629  0.16238544  0.16135497  1
  Cr  Cr11  1  0.32921789  -0.00205895  0.32891102  1
  Cr  Cr12  1  0.32903678  0.32892495  -0.00271957  1
  Cr  Cr13  1  0.49458550  0.50164600  0.16548976  1
  Cr  Cr14  1  0.32987327  0.32825071  0.33272651  1
  Fe  Fe15  1  0.32744598  0.66524878  -0.00260783  1
  Fe  Fe16  1  0.49677206  0.82959137  0.16430953  1
  Fe  Fe17  1  0.32856358  0.66412764  0.32997372  1
  Cr  Cr18  1  0.66280703  0.99598727  -0.00298602  1
  Cr  Cr19  1  0.83363332  0.16183537  0.16215581  1
  Fe  Fe20  1  0.66526937  0.99529573  0.32966933  1
  Fe  Fe21  1  0.66406643  0.33148366  0.99592330  1
  Cr  Cr22  1  0.83166186  0.49623699  0.16264476  1
  Cr  Cr23  1  0.66300537  0.33084352  0.33016551  1
  Cr  Cr24  1  0.66763901  0.66421544  0.99600396  1
  Fe  Fe25  1  0.83133576  0.82976134  0.16510738  1
  Fe  Fe26  1  0.66531517  0.66534640  0.33028953  1
  Fe  Fe27  1  0.16333825  0.16184290  0.49870496  1
  Fe  Fe28  1  0.99635820  0.99551951  0.66305211  1
  Cr  Cr29  1  0.16046223  0.16315815  0.82940631  1
  Cr  Cr30  1  0.16470450  0.49776676  0.49702137  1
  Fe  Fe31  1  -0.00262938  0.33088819  0.66296551  1
  Fe  Fe32  1  0.16139012  0.49706816  0.83116916  1
  Fe  Fe33  1  0.16080773  0.83173252  0.49626376  1
  Cr  Cr34  1  0.99362364  0.66433655  0.66580259  1
  Fe  Fe35  1  0.16136349  0.82994326  0.83234211  1
  Fe  Fe36  1  0.49749719  0.16415508  0.49841706  1
  Cr  Cr37  1  0.33047436  -0.00058343  0.66420805  1
  Fe  Fe38  1  0.49738546  0.16455621  0.83003351  1
  Fe  Fe39  1  0.49941360  0.49622485  0.49826604  1
  Fe  Fe40  1  0.33058142  0.33029465  0.66278196  1
  Cr  Cr41  1  0.49651346  0.49767004  0.82880332  1
  Cr  Cr42  1  0.49745222  0.82736411  0.49492684  1
  Cr  Cr43  1  0.32766623  0.66434496  0.66428401  1
  Cr  Cr44  1  0.49508577  0.82990048  0.83179911  1
  Cr  Cr45  1  0.83272197  0.16172480  0.49705894  1
  Fe  Fe46  1  0.66475770  0.99565745  0.66399091  1
  Cr  Cr47  1  0.83087677  0.16423047  0.83125422  1
  Fe  Fe48  1  0.82864844  0.49904505  0.49726221  1
  Fe  Fe49  1  0.66319556  0.33093515  0.66246129  1
  Fe  Fe50  1  0.83164072  0.49630321  0.83065765  1
  Fe  Fe51  1  0.83148435  0.82892800  0.49617031  1
  Fe  Fe52  1  0.66443038  0.66366091  0.66324253  1
  Fe  Fe53  1  0.83177202  0.83091957  0.83003527  1
" 