2303,Fe40Cr60_7,-218.536893950491, 161.571766926118,Fe40Cr60,"# generated using pymatgen
 data_Cr7Fe11
_symmetry_space_group_name_H-M   'P 1'
_cell_length_a   7.50941973
_cell_length_b   7.50941973
_cell_length_c   10.61992323
_cell_angle_alpha   90.00000000
_cell_angle_beta   90.00000000
_cell_angle_gamma   90.00000000
_symmetry_Int_Tables_number   1
_chemical_formula_structural   Cr7Fe11
_chemical_formula_sum   'Cr21 Fe33'
_cell_volume   598.87217633
_cell_formula_units_Z   3
loop_
 _symmetry_equiv_pos_site_id
 _symmetry_equiv_pos_as_xyz
  1  'x, y, z'
loop_
 _atom_site_type_symbol
 _atom_site_label
 _atom_site_symmetry_multiplicity
 _atom_site_fract_x
 _atom_site_fract_y
 _atom_site_fract_z
 _atom_site_occupancy
  Fe  Fe0  1  0.99613448  0.99573736  -0.00042961  1
  Cr  Cr1  1  0.16034612  0.16529827  0.16540105  1
  Fe  Fe2  1  -0.00272183  0.99519208  0.32939574  1
  Fe  Fe3  1  -0.00105735  0.33322784  -0.00234275  1
  Fe  Fe4  1  0.16519471  0.49825586  0.16371601  1
  Fe  Fe5  1  -0.00229766  0.33267427  0.32937754  1
  Fe  Fe6  1  -0.00069785  0.66248821  0.00009535  1
  Fe  Fe7  1  0.16434359  0.82941342  0.16338965  1
  Cr  Cr8  1  -0.00106522  0.66400863  0.33174265  1
  Cr  Cr9  1  0.32892819  0.99661907  0.99608052  1
  Cr  Cr10  1  0.49541904  0.16608698  0.16470571  1
  Fe  Fe11  1  0.32876474  0.99379927  0.32964203  1
  Fe  Fe12  1  0.32855597  0.33332464  0.99607302  1
  Fe  Fe13  1  0.49418720  0.49851328  0.16569416  1
  Fe  Fe14  1  0.32837304  0.33347684  0.32992345  1
  Fe  Fe15  1  0.32942464  0.66091012  -0.00088292  1
  Fe  Fe16  1  0.49426566  0.82945056  0.16407740  1
  Fe  Fe17  1  0.33159640  0.66554151  0.32868940  1
  Fe  Fe18  1  0.66373057  0.99640608  0.00004102  1
  Fe  Fe19  1  0.83058165  0.16426024  0.16280476  1
  Cr  Cr20  1  0.66230444  0.99560037  0.32875798  1
  Cr  Cr21  1  0.66246135  0.33169338  0.99519503  1
  Fe  Fe22  1  0.83307411  0.49539951  0.16438272  1
  Cr  Cr23  1  0.66414906  0.33237103  0.33113626  1
  Cr  Cr24  1  0.66462022  0.66335640  0.00270087  1
  Fe  Fe25  1  0.83312080  0.83179273  0.16349198  1
  Fe  Fe26  1  0.66407208  0.66503088  0.32830795  1
  Cr  Cr27  1  0.16462901  0.16350928  0.49318109  1
  Cr  Cr28  1  0.00005013  0.99471784  0.66181617  1
  Fe  Fe29  1  0.16354795  0.16365238  0.83251117  1
  Fe  Fe30  1  0.16447470  0.49792538  0.49660300  1
  Cr  Cr31  1  -0.00200727  0.33409328  0.66432193  1
  Fe  Fe32  1  0.16335476  0.49770713  0.83278472  1
  Fe  Fe33  1  0.16694534  0.82825928  0.49682193  1
  Fe  Fe34  1  -0.00045077  0.66258300  0.66132391  1
  Cr  Cr35  1  0.16344504  0.82758549  0.82948217  1
  Fe  Fe36  1  0.49524806  0.16332867  0.49545341  1
  Fe  Fe37  1  0.33083800  0.99611459  0.66321727  1
  Fe  Fe38  1  0.49561303  0.16234709  0.83250895  1
  Cr  Cr39  1  0.49630393  0.49955937  0.49450737  1
  Cr  Cr40  1  0.33047249  0.32821245  0.66787055  1
  Fe  Fe41  1  0.49548676  0.49867555  0.83119988  1
  Fe  Fe42  1  0.49437492  0.83227016  0.49627540  1
  Fe  Fe43  1  0.32903508  0.66293049  0.66237075  1
  Cr  Cr44  1  0.49701137  0.82708562  0.83016466  1
  Cr  Cr45  1  0.83180507  0.16445157  0.49382896  1
  Cr  Cr46  1  0.66101987  -0.00175793  0.66369224  1
  Cr  Cr47  1  0.83226044  0.16335931  0.83463028  1
  Fe  Fe48  1  0.83290339  0.49831039  0.49583600  1
  Cr  Cr49  1  0.66305563  0.33116436  0.66564045  1
  Fe  Fe50  1  0.83307208  0.49968616  0.83195312  1
  Fe  Fe51  1  0.83080998  0.82957480  0.49593281  1
  Cr  Cr52  1  0.66710301  0.66295236  0.66058567  1
  Cr  Cr53  1  0.83144153  0.82942480  0.83197088  1
" 