3963,Fe40Cr60_5,-218.763412105188, 163.556158406441,Fe40Cr60,"# generated using pymatgen
 data_Cr7Fe11
_symmetry_space_group_name_H-M   'P 1'
_cell_length_a   7.51687462
_cell_length_b   7.51687462
_cell_length_c   10.63046603
_cell_angle_alpha   90.00000000
_cell_angle_beta   90.00000000
_cell_angle_gamma   90.00000000
_symmetry_Int_Tables_number   1
_chemical_formula_structural   Cr7Fe11
_chemical_formula_sum   'Cr21 Fe33'
_cell_volume   600.65751740
_cell_formula_units_Z   3
loop_
 _symmetry_equiv_pos_site_id
 _symmetry_equiv_pos_as_xyz
  1  'x, y, z'
loop_
 _atom_site_type_symbol
 _atom_site_label
 _atom_site_symmetry_multiplicity
 _atom_site_fract_x
 _atom_site_fract_y
 _atom_site_fract_z
 _atom_site_occupancy
  Cr  Cr0  1  -0.00282543  0.99631017  0.99233643  1
  Cr  Cr1  1  0.16395396  0.16434023  0.16196064  1
  Cr  Cr2  1  0.99533420  0.99660443  0.33351536  1
  Fe  Fe3  1  0.99653710  0.33083637  0.99660075  1
  Fe  Fe4  1  0.16251190  0.49613694  0.16382658  1
  Fe  Fe5  1  0.99652135  0.33097409  0.33012482  1
  Cr  Cr6  1  0.99490027  0.66309271  0.99642783  1
  Cr  Cr7  1  0.16483523  0.82855986  0.16488340  1
  Fe  Fe8  1  -0.00322757  0.66264457  0.32936430  1
  Fe  Fe9  1  0.32975788  -0.00288651  -0.00318943  1
  Fe  Fe10  1  0.49592239  0.16288917  0.16306003  1
  Fe  Fe11  1  0.33156488  0.99557396  0.33046166  1
  Fe  Fe12  1  0.33004331  0.32935902  -0.00245601  1
  Fe  Fe13  1  0.49671166  0.49632775  0.16247768  1
  Cr  Cr14  1  0.32943928  0.33158589  0.32971119  1
  Cr  Cr15  1  0.33098678  0.66225653  -0.00144718  1
  Fe  Fe16  1  0.49703636  0.83081905  0.16377975  1
  Fe  Fe17  1  0.33028414  0.66433870  0.32984782  1
  Cr  Cr18  1  0.66311260  0.99533817  -0.00016705  1
  Cr  Cr19  1  0.82886761  0.16475407  0.16519010  1
  Fe  Fe20  1  0.66215830  0.99589505  0.33007886  1
  Fe  Fe21  1  0.66348084  0.33205379  -0.00227013  1
  Fe  Fe22  1  0.83071690  0.49715524  0.16319800  1
  Cr  Cr23  1  0.66283433  0.32954169  0.33106690  1
  Fe  Fe24  1  0.66413301  0.66245191  -0.00232850  1
  Fe  Fe25  1  0.82951333  0.82919024  0.16383952  1
  Cr  Cr26  1  0.66208210  0.66502576  0.32870172  1
  Fe  Fe27  1  0.16309993  0.16240604  0.49698088  1
  Fe  Fe28  1  -0.00185339  0.99523431  0.66293109  1
  Fe  Fe29  1  0.16470249  0.16270609  0.82998545  1
  Cr  Cr30  1  0.16352964  0.49893717  0.49420150  1
  Cr  Cr31  1  -0.00239212  0.32807210  0.66293555  1
  Cr  Cr32  1  0.16255777  0.49708133  0.83050709  1
  Fe  Fe33  1  0.16393873  0.83046006  0.49705665  1
  Fe  Fe34  1  0.99620775  0.66553514  0.66388574  1
  Fe  Fe35  1  0.16331060  0.83116200  0.82870764  1
  Cr  Cr36  1  0.49746631  0.16223188  0.49699265  1
  Fe  Fe37  1  0.32785075  0.99647728  0.66296048  1
  Cr  Cr38  1  0.49557088  0.16367159  0.83184290  1
  Fe  Fe39  1  0.49633537  0.49805017  0.49817950  1
  Fe  Fe40  1  0.33037319  0.32948961  0.66258059  1
  Cr  Cr41  1  0.49849257  0.49637939  0.82719693  1
  Fe  Fe42  1  0.49565287  0.82861715  0.49679880  1
  Fe  Fe43  1  0.32980637  0.66423382  0.66248792  1
  Cr  Cr44  1  0.49585380  0.82994215  0.83027049  1
  Fe  Fe45  1  0.83105357  0.16279037  0.49671970  1
  Cr  Cr46  1  0.66535296  0.99562373  0.66093836  1
  Cr  Cr47  1  0.82997131  0.16471062  0.82961286  1
  Cr  Cr48  1  0.83034778  0.49646739  0.49763615  1
  Fe  Fe49  1  0.66297666  0.33093562  0.66267662  1
  Fe  Fe50  1  0.82893321  0.49756969  0.82970047  1
  Fe  Fe51  1  0.83043687  0.82995445  0.49704093  1
  Fe  Fe52  1  0.66400951  0.66296931  0.66267463  1
  Fe  Fe53  1  0.83025334  0.82814817  0.82892886  1
" 