7598,Fe40Cr60_16,-218.665401934234, 161.999956562722,Fe40Cr60,"# generated using pymatgen
 data_Cr7Fe11
_symmetry_space_group_name_H-M   'P 1'
_cell_length_a   7.51916595
_cell_length_b   7.51916595
_cell_length_c   10.63370647
_cell_angle_alpha   90.00000000
_cell_angle_beta   90.00000000
_cell_angle_gamma   90.00000000
_symmetry_Int_Tables_number   1
_chemical_formula_structural   Cr7Fe11
_chemical_formula_sum   'Cr21 Fe33'
_cell_volume   601.20697181
_cell_formula_units_Z   3
loop_
 _symmetry_equiv_pos_site_id
 _symmetry_equiv_pos_as_xyz
  1  'x, y, z'
loop_
 _atom_site_type_symbol
 _atom_site_label
 _atom_site_symmetry_multiplicity
 _atom_site_fract_x
 _atom_site_fract_y
 _atom_site_fract_z
 _atom_site_occupancy
  Cr  Cr0  1  0.99525535  -0.00295852  -0.00131666  1
  Fe  Fe1  1  0.16524330  0.16355332  0.16343036  1
  Cr  Cr2  1  0.99645417  0.99383944  0.32904839  1
  Fe  Fe3  1  0.99354696  0.33025404  -0.00287233  1
  Cr  Cr4  1  0.16310155  0.49632658  0.16165130  1
  Cr  Cr5  1  -0.00333725  0.33005271  0.32741228  1
  Cr  Cr6  1  0.99331156  0.66282829  -0.00180724  1
  Fe  Fe7  1  0.16384004  0.82864932  0.16431427  1
  Fe  Fe8  1  -0.00317171  0.66365670  0.32877831  1
  Cr  Cr9  1  0.33085835  -0.00300126  -0.00069300  1
  Fe  Fe10  1  0.49812890  0.16462623  0.16342464  1
  Fe  Fe11  1  0.33077687  0.99531159  0.32929515  1
  Fe  Fe12  1  0.33076633  0.33176157  0.99629378  1
  Cr  Cr13  1  0.49692483  0.49677016  0.16428559  1
  Cr  Cr14  1  0.33253920  0.32798685  0.33415169  1
  Fe  Fe15  1  0.32959542  0.66211574  0.99509430  1
  Cr  Cr16  1  0.49702707  0.83014650  0.16154554  1
  Fe  Fe17  1  0.32787114  0.66416490  0.33065935  1
  Fe  Fe18  1  0.66510502  -0.00246271  -0.00299536  1
  Fe  Fe19  1  0.82677433  0.16408065  0.16306100  1
  Fe  Fe20  1  0.66281046  -0.00187754  0.32945356  1
  Fe  Fe21  1  0.66532046  0.32875598  -0.00308106  1
  Fe  Fe22  1  0.82761622  0.49636773  0.16429867  1
  Fe  Fe23  1  0.66394404  0.32798749  0.32959739  1
  Cr  Cr24  1  0.66288694  0.66284668  0.99423586  1
  Fe  Fe25  1  0.82855548  0.82866611  0.16469271  1
  Fe  Fe26  1  0.66456348  0.66422613  0.32909702  1
  Cr  Cr27  1  0.16188927  0.16201185  0.49695565  1
  Fe  Fe28  1  0.99633063  0.99501456  0.66272891  1
  Cr  Cr29  1  0.16146201  0.16467062  0.83173476  1
  Fe  Fe30  1  0.16333141  0.50032508  0.49596049  1
  Cr  Cr31  1  -0.00302982  0.33191801  0.66586370  1
  Fe  Fe32  1  0.16423551  0.49725594  0.83148057  1
  Fe  Fe33  1  0.16124505  0.82659216  0.49686990  1
  Fe  Fe34  1  -0.00241197  0.66296947  0.66200272  1
  Cr  Cr35  1  0.16452689  0.82821340  0.82882860  1
  Fe  Fe36  1  0.49969339  0.16301065  0.49636536  1
  Cr  Cr37  1  0.33033499  -0.00338215  0.66096871  1
  Cr  Cr38  1  0.49866395  0.16290626  0.83065265  1
  Fe  Fe39  1  0.49818097  0.49730559  0.49569588  1
  Cr  Cr40  1  0.33166991  0.33190104  0.66044671  1
  Fe  Fe41  1  0.49568035  0.49760950  0.82985417  1
  Cr  Cr42  1  0.49738476  0.82879324  0.49637492  1
  Fe  Fe43  1  0.33015876  0.66164144  0.66269551  1
  Fe  Fe44  1  0.49610628  0.82888217  0.82888053  1
  Cr  Cr45  1  0.82858217  0.16311403  0.50063681  1
  Fe  Fe46  1  0.66272192  -0.00302019  0.66296837  1
  Fe  Fe47  1  0.82873865  0.16431959  0.82969774  1
  Cr  Cr48  1  0.82945780  0.49749705  0.49404419  1
  Fe  Fe49  1  0.66245992  0.33197655  0.66416827  1
  Fe  Fe50  1  0.82900757  0.49506872  0.82937715  1
  Fe  Fe51  1  0.83054540  0.82946791  0.49793602  1
  Fe  Fe52  1  0.66143541  0.66059912  0.66353219  1
  Cr  Cr53  1  0.82814251  0.83151587  0.82507622  1
" 