8327,Fe40Cr60_0,-218.432860131658, 159.771107176604,Fe40Cr60,"# generated using pymatgen
 data_Cr7Fe11
_symmetry_space_group_name_H-M   'P 1'
_cell_length_a   7.51704356
_cell_length_b   7.51704356
_cell_length_c   10.63070495
_cell_angle_alpha   90.00000000
_cell_angle_beta   90.00000000
_cell_angle_gamma   90.00000000
_symmetry_Int_Tables_number   1
_chemical_formula_structural   Cr7Fe11
_chemical_formula_sum   'Cr21 Fe33'
_cell_volume   600.69801721
_cell_formula_units_Z   3
loop_
 _symmetry_equiv_pos_site_id
 _symmetry_equiv_pos_as_xyz
  1  'x, y, z'
loop_
 _atom_site_type_symbol
 _atom_site_label
 _atom_site_symmetry_multiplicity
 _atom_site_fract_x
 _atom_site_fract_y
 _atom_site_fract_z
 _atom_site_occupancy
  Cr  Cr0  1  0.99660551  0.99624071  0.99348142  1
  Cr  Cr1  1  0.16337775  0.16504715  0.16447056  1
  Fe  Fe2  1  0.99644824  0.99598227  0.32926127  1
  Cr  Cr3  1  0.99481980  0.32837917  -0.00264774  1
  Fe  Fe4  1  0.16273375  0.49972165  0.16231344  1
  Fe  Fe5  1  -0.00331929  0.33309321  0.32914634  1
  Fe  Fe6  1  -0.00297073  0.66416363  -0.00295230  1
  Fe  Fe7  1  0.16275925  0.82832877  0.16307071  1
  Fe  Fe8  1  -0.00257471  0.66163794  0.33036278  1
  Cr  Cr9  1  0.32890645  -0.00280306  0.99623933  1
  Fe  Fe10  1  0.49806580  0.16379083  0.16293921  1
  Cr  Cr11  1  0.33120735  0.99586321  0.33044206  1
  Fe  Fe12  1  0.33265514  0.32990086  -0.00263203  1
  Fe  Fe13  1  0.49657418  0.49740081  0.16149184  1
  Cr  Cr14  1  0.33109083  0.33113079  0.32985749  1
  Fe  Fe15  1  0.33001768  0.66282302  -0.00169512  1
  Fe  Fe16  1  0.49531375  0.82861189  0.16272091  1
  Cr  Cr17  1  0.32920282  0.66372668  0.33290302  1
  Cr  Cr18  1  0.66454382  -0.00134381  -0.00194895  1
  Fe  Fe19  1  0.83007334  0.16368041  0.16460366  1
  Fe  Fe20  1  0.66201944  -0.00298292  0.32873334  1
  Fe  Fe21  1  0.66141415  0.33025081  -0.00226963  1
  Fe  Fe22  1  0.83062497  0.49636581  0.16257950  1
  Cr  Cr23  1  0.66453652  0.32962403  0.32908318  1
  Fe  Fe24  1  0.66298733  0.66202620  -0.00240836  1
  Cr  Cr25  1  0.82897105  0.82907693  0.16390691  1
  Cr  Cr26  1  0.66283037  0.66216073  0.33190734  1
  Cr  Cr27  1  0.16304455  0.16467172  0.49759406  1
  Fe  Fe28  1  -0.00279333  -0.00265091  0.66552669  1
  Fe  Fe29  1  0.16370074  0.16252521  0.82816299  1
  Fe  Fe30  1  0.16012160  0.49634638  0.49624914  1
  Fe  Fe31  1  0.99556620  0.33012210  0.66444794  1
  Cr  Cr32  1  0.16519910  0.49551285  0.83216638  1
  Fe  Fe33  1  0.16131661  0.83215882  0.49645745  1
  Cr  Cr34  1  -0.00319175  0.66423777  0.66299846  1
  Fe  Fe35  1  0.16345125  0.82920536  0.82887395  1
  Fe  Fe36  1  0.49841395  0.16158535  0.49763751  1
  Fe  Fe37  1  0.33003569  0.99596456  0.66367848  1
  Fe  Fe38  1  0.49781169  0.16527103  0.82995425  1
  Fe  Fe39  1  0.49803964  0.49420595  0.49663519  1
  Cr  Cr40  1  0.33165272  0.32958096  0.66333078  1
  Fe  Fe41  1  0.49678195  0.49542498  0.83150507  1
  Fe  Fe42  1  0.49658546  0.83373113  0.49770629  1
  Cr  Cr43  1  0.32971893  0.66347702  0.65946632  1
  Cr  Cr44  1  0.49797394  0.82855027  0.83004354  1
  Cr  Cr45  1  0.83081049  0.16298881  0.49577320  1
  Fe  Fe46  1  0.66254502  -0.00164208  0.66432047  1
  Fe  Fe47  1  0.82867563  0.16331213  0.82749308  1
  Fe  Fe48  1  0.83220697  0.49465492  0.49683192  1
  Fe  Fe49  1  0.66381246  0.32881708  0.66293692  1
  Cr  Cr50  1  0.82831897  0.49732030  0.83041098  1
  Cr  Cr51  1  0.82825324  0.83123917  0.49630822  1
  Cr  Cr52  1  0.66316650  0.66153957  0.66161190  1
  Fe  Fe53  1  0.83028992  0.83037449  0.82934132  1
" 