1924,Fe40Cr60_4,-218.786478381464, 165.388150832945,Fe40Cr60,"# generated using pymatgen
 data_Cr7Fe11
_symmetry_space_group_name_H-M   'P 1'
_cell_length_a   7.51055232
_cell_length_b   7.51055232
_cell_length_c   10.62152495
_cell_angle_alpha   90.00000000
_cell_angle_beta   90.00000000
_cell_angle_gamma   90.00000000
_symmetry_Int_Tables_number   1
_chemical_formula_structural   Cr7Fe11
_chemical_formula_sum   'Cr21 Fe33'
_cell_volume   599.14318771
_cell_formula_units_Z   3
loop_
 _symmetry_equiv_pos_site_id
 _symmetry_equiv_pos_as_xyz
  1  'x, y, z'
loop_
 _atom_site_type_symbol
 _atom_site_label
 _atom_site_symmetry_multiplicity
 _atom_site_fract_x
 _atom_site_fract_y
 _atom_site_fract_z
 _atom_site_occupancy
  Fe  Fe0  1  0.99637703  -0.00273988  -0.00179058  1
  Cr  Cr1  1  0.16216892  0.16530755  0.16793258  1
  Cr  Cr2  1  0.99704722  -0.00259106  0.33078469  1
  Cr  Cr3  1  0.99614288  0.33041937  0.00079126  1
  Fe  Fe4  1  0.16400738  0.49717517  0.16480178  1
  Fe  Fe5  1  0.99619577  0.33200628  0.33008139  1
  Cr  Cr6  1  -0.00229760  0.66378702  0.99411946  1
  Cr  Cr7  1  0.16527637  0.83039681  0.16076876  1
  Cr  Cr8  1  0.99539545  0.66540677  0.33153274  1
  Fe  Fe9  1  0.32946320  -0.00277413  0.99701968  1
  Cr  Cr10  1  0.49730902  0.16206917  0.16274220  1
  Fe  Fe11  1  0.33142455  -0.00166095  0.33133378  1
  Cr  Cr12  1  0.33077346  0.33046570  0.99656088  1
  Fe  Fe13  1  0.49621048  0.49692032  0.16350764  1
  Fe  Fe14  1  0.33030368  0.32922897  0.33103807  1
  Fe  Fe15  1  0.33006380  0.66263229  -0.00240088  1
  Fe  Fe16  1  0.49854127  0.83139435  0.16391060  1
  Cr  Cr17  1  0.33203716  0.66299832  0.32739640  1
  Fe  Fe18  1  0.66499405  -0.00189512  -0.00140927  1
  Fe  Fe19  1  0.82904237  0.16224899  0.16385364  1
  Fe  Fe20  1  0.66410537  0.99563371  0.32956389  1
  Fe  Fe21  1  0.66422964  0.33074209  -0.00128654  1
  Fe  Fe22  1  0.83085023  0.49685990  0.16512903  1
  Cr  Cr23  1  0.66238798  0.33103629  0.32968597  1
  Cr  Cr24  1  0.66435988  0.66295555  0.00109218  1
  Fe  Fe25  1  0.82938770  0.83265844  0.16361171  1
  Fe  Fe26  1  0.66513106  0.66444451  0.32902549  1
  Fe  Fe27  1  0.16611919  0.16239536  0.49784683  1
  Fe  Fe28  1  -0.00154253  0.99578963  0.66216952  1
  Cr  Cr29  1  0.16240837  0.16344293  0.82915042  1
  Cr  Cr30  1  0.16393363  0.49488704  0.49624401  1
  Fe  Fe31  1  0.99636520  0.33218194  0.66414242  1
  Fe  Fe32  1  0.16156330  0.49670848  0.82915096  1
  Fe  Fe33  1  0.16379839  0.83167958  0.49791576  1
  Fe  Fe34  1  -0.00224845  0.66343423  0.66309278  1
  Fe  Fe35  1  0.16353641  0.83187374  0.83087231  1
  Fe  Fe36  1  0.49544950  0.16491752  0.49716577  1
  Fe  Fe37  1  0.33137780  -0.00200528  0.66279023  1
  Fe  Fe38  1  0.49752423  0.16282033  0.83000130  1
  Fe  Fe39  1  0.49690902  0.49474153  0.49721464  1
  Fe  Fe40  1  0.33161989  0.32884764  0.66330363  1
  Cr  Cr41  1  0.49822069  0.49636613  0.83043550  1
  Cr  Cr42  1  0.49822073  0.83020373  0.49347195  1
  Cr  Cr43  1  0.32921667  0.66516859  0.66648137  1
  Cr  Cr44  1  0.49702319  0.83109023  0.83468546  1
  Cr  Cr45  1  0.83157381  0.16402704  0.49725748  1
  Fe  Fe46  1  0.66165565  -0.00171356  0.66313414  1
  Cr  Cr47  1  0.82900917  0.16498954  0.83282961  1
  Fe  Fe48  1  0.82997318  0.49658735  0.49690935  1
  Fe  Fe49  1  0.66284306  0.32883895  0.66287240  1
  Fe  Fe50  1  0.83090010  0.49651207  0.82913007  1
  Fe  Fe51  1  0.83202204  0.83069780  0.49812802  1
  Cr  Cr52  1  0.66509667  0.66234181  0.65980921  1
  Cr  Cr53  1  0.83010588  0.83165230  0.82800137  1
" 