3985,Fe41Cr59_1,-218.543675546316, 161.426161436775,Fe41Cr59,"# generated using pymatgen
 data_Cr11Fe16
_symmetry_space_group_name_H-M   'P 1'
_cell_length_a   7.52505365
_cell_length_b   7.52505365
_cell_length_c   10.64203292
_cell_angle_alpha   90.00000000
_cell_angle_beta   90.00000000
_cell_angle_gamma   90.00000000
_symmetry_Int_Tables_number   1
_chemical_formula_structural   Cr11Fe16
_chemical_formula_sum   'Cr22 Fe32'
_cell_volume   602.62035763
_cell_formula_units_Z   2
loop_
 _symmetry_equiv_pos_site_id
 _symmetry_equiv_pos_as_xyz
  1  'x, y, z'
loop_
 _atom_site_type_symbol
 _atom_site_label
 _atom_site_symmetry_multiplicity
 _atom_site_fract_x
 _atom_site_fract_y
 _atom_site_fract_z
 _atom_site_occupancy
  Fe  Fe0  1  0.99345992  0.99583368  -0.00293782  1
  Cr  Cr1  1  0.16201986  0.16401016  0.16395572  1
  Fe  Fe2  1  0.99592623  0.99562169  0.32846242  1
  Cr  Cr3  1  0.99387925  0.32890136  0.99354410  1
  Cr  Cr4  1  0.16149718  0.49705496  0.16219752  1
  Fe  Fe5  1  0.99391125  0.32924518  0.32919930  1
  Fe  Fe6  1  0.99238468  0.66398185  -0.00336683  1
  Fe  Fe7  1  0.16008890  0.82960333  0.16361399  1
  Fe  Fe8  1  0.99313617  0.66336654  0.32865557  1
  Cr  Cr9  1  0.33053177  0.99547375  -0.00039130  1
  Fe  Fe10  1  0.49659824  0.16397560  0.16340079  1
  Fe  Fe11  1  0.32808601  -0.00215427  0.32878858  1
  Fe  Fe12  1  0.32952708  0.32822084  0.99604792  1
  Cr  Cr13  1  0.49588024  0.49430546  0.16082902  1
  Fe  Fe14  1  0.33058019  0.32878104  0.32924926  1
  Cr  Cr15  1  0.33018669  0.66426572  0.99503653  1
  Cr  Cr16  1  0.49962304  0.82924305  0.16324512  1
  Cr  Cr17  1  0.33020820  0.66649112  0.33053049  1
  Fe  Fe18  1  0.66624153  0.99507070  -0.00313197  1
  Fe  Fe19  1  0.82940774  0.16280748  0.16353993  1
  Cr  Cr20  1  0.66112853  -0.00317983  0.32722976  1
  Cr  Cr21  1  0.66484031  0.32822085  -0.00332195  1
  Fe  Fe22  1  0.82951881  0.49725075  0.16378736  1
  Fe  Fe23  1  0.66404883  0.33136008  0.32817297  1
  Fe  Fe24  1  0.66574845  0.66333613  0.99539014  1
  Fe  Fe25  1  0.83244757  0.82862663  0.16252970  1
  Fe  Fe26  1  0.66456281  0.66137032  0.32945559  1
  Fe  Fe27  1  0.16306912  0.16241613  0.49499129  1
  Fe  Fe28  1  0.99612455  -0.00372740  0.66396870  1
  Fe  Fe29  1  0.16329808  0.16093575  0.82947094  1
  Cr  Cr30  1  0.16231370  0.49459091  0.49373463  1
  Cr  Cr31  1  0.99473653  0.32789565  0.66307021  1
  Cr  Cr32  1  0.16498671  0.49476866  0.83157757  1
  Cr  Cr33  1  0.16135054  0.83114241  0.49567260  1
  Cr  Cr34  1  0.99572933  0.66032611  0.66313752  1
  Cr  Cr35  1  0.15959374  0.82984264  0.83113406  1
  Cr  Cr36  1  0.49643172  0.16302857  0.49494119  1
  Fe  Fe37  1  0.32822234  -0.00256780  0.66278688  1
  Cr  Cr38  1  0.49750061  0.16404190  0.83123961  1
  Cr  Cr39  1  0.49748799  0.49591668  0.49843876  1
  Fe  Fe40  1  0.32914018  0.32862178  0.66340145  1
  Fe  Fe41  1  0.49821033  0.49646254  0.82835326  1
  Fe  Fe42  1  0.49661906  0.83031619  0.49808187  1
  Fe  Fe43  1  0.32949221  0.66273279  0.66271878  1
  Cr  Cr44  1  0.49896839  0.82968144  0.82611361  1
  Cr  Cr45  1  0.82965502  0.16255780  0.49599949  1
  Fe  Fe46  1  0.66418035  -0.00281531  0.66287778  1
  Fe  Fe47  1  0.83002624  0.15929810  0.82833147  1
  Fe  Fe48  1  0.82858987  0.49574383  0.49468697  1
  Fe  Fe49  1  0.66318019  0.33034262  0.66447355  1
  Fe  Fe50  1  0.82671053  0.49793563  0.82927288  1
  Cr  Cr51  1  0.82818170  0.82971135  0.49700712  1
  Fe  Fe52  1  0.66375755  0.66126900  0.66307586  1
  Fe  Fe53  1  0.82884748  0.83032137  0.82960355  1
" 