5479,Fe41Cr59_3,-218.160005443194, 163.105416649403,Fe41Cr59,"# generated using pymatgen
 data_Cr11Fe16
_symmetry_space_group_name_H-M   'P 1'
_cell_length_a   7.52026092
_cell_length_b   7.52026092
_cell_length_c   10.63525499
_cell_angle_alpha   90.00000000
_cell_angle_beta   90.00000000
_cell_angle_gamma   90.00000000
_symmetry_Int_Tables_number   1
_chemical_formula_structural   Cr11Fe16
_chemical_formula_sum   'Cr22 Fe32'
_cell_volume   601.46966003
_cell_formula_units_Z   2
loop_
 _symmetry_equiv_pos_site_id
 _symmetry_equiv_pos_as_xyz
  1  'x, y, z'
loop_
 _atom_site_type_symbol
 _atom_site_label
 _atom_site_symmetry_multiplicity
 _atom_site_fract_x
 _atom_site_fract_y
 _atom_site_fract_z
 _atom_site_occupancy
  Cr  Cr0  1  0.99523139  -0.00250124  0.99412451  1
  Cr  Cr1  1  0.16568838  0.16298911  0.16335122  1
  Fe  Fe2  1  -0.00241459  0.99634797  0.32963215  1
  Cr  Cr3  1  0.99574105  0.32926372  0.99482950  1
  Fe  Fe4  1  0.16457799  0.49721013  0.16349416  1
  Cr  Cr5  1  0.99635664  0.32990077  0.33079734  1
  Cr  Cr6  1  -0.00228588  0.66262303  0.99605220  1
  Fe  Fe7  1  0.16298984  0.82967836  0.16427339  1
  Fe  Fe8  1  0.99635710  0.66323750  0.32977309  1
  Fe  Fe9  1  0.32951093  -0.00256209  -0.00353387  1
  Fe  Fe10  1  0.49722320  0.16459579  0.16247090  1
  Fe  Fe11  1  0.32867518  -0.00148060  0.32977466  1
  Fe  Fe12  1  0.33048968  0.32881182  -0.00253311  1
  Fe  Fe13  1  0.49646015  0.49451317  0.16297303  1
  Fe  Fe14  1  0.33137409  0.32918009  0.33027055  1
  Cr  Cr15  1  0.32965035  0.66314072  -0.00242043  1
  Cr  Cr16  1  0.49687077  0.83085881  0.16186045  1
  Cr  Cr17  1  0.32888486  0.66153616  0.32889881  1
  Fe  Fe18  1  0.66326891  -0.00269469  0.99645886  1
  Fe  Fe19  1  0.82773212  0.16299702  0.16312992  1
  Cr  Cr20  1  0.66296134  -0.00085884  0.32939383  1
  Fe  Fe21  1  0.66278786  0.32943379  -0.00304691  1
  Cr  Cr22  1  0.82846037  0.49716877  0.16336501  1
  Fe  Fe23  1  0.66155764  0.33043031  0.33029144  1
  Fe  Fe24  1  0.66390062  0.66264936  0.99581805  1
  Cr  Cr25  1  0.83031006  0.82889199  0.16513816  1
  Fe  Fe26  1  0.66373503  0.66055246  0.33042558  1
  Fe  Fe27  1  0.16408964  0.16285735  0.49633356  1
  Fe  Fe28  1  -0.00270159  -0.00268570  0.66427774  1
  Fe  Fe29  1  0.16390397  0.16163251  0.82942742  1
  Fe  Fe30  1  0.16408969  0.49576442  0.49660231  1
  Cr  Cr31  1  0.99595413  0.32806476  0.66375759  1
  Cr  Cr32  1  0.16304767  0.49473391  0.82955828  1
  Cr  Cr33  1  0.16229320  0.83202466  0.49608223  1
  Cr  Cr34  1  -0.00196839  0.66241009  0.66486744  1
  Fe  Fe35  1  0.16341239  0.83178481  0.82865829  1
  Fe  Fe36  1  0.49547667  0.16481049  0.49660794  1
  Fe  Fe37  1  0.32768460  -0.00270889  0.66315284  1
  Cr  Cr38  1  0.49483171  0.16379987  0.83144965  1
  Fe  Fe39  1  0.49646404  0.49478541  0.49660882  1
  Fe  Fe40  1  0.33041238  0.32944989  0.66165282  1
  Cr  Cr41  1  0.49807248  0.49525871  0.82980351  1
  Cr  Cr42  1  0.49588828  0.82969192  0.49776474  1
  Fe  Fe43  1  0.32928542  0.66264692  0.66264330  1
  Cr  Cr44  1  0.49651832  0.83032817  0.82976017  1
  Fe  Fe45  1  0.82981871  0.16384586  0.49645988  1
  Cr  Cr46  1  0.66358485  -0.00156479  0.66353908  1
  Fe  Fe47  1  0.82964700  0.16327803  0.82978637  1
  Fe  Fe48  1  0.82883022  0.49574549  0.49533747  1
  Fe  Fe49  1  0.66329974  0.32991768  0.66214743  1
  Fe  Fe50  1  0.82803755  0.49597047  0.83042595  1
  Cr  Cr51  1  0.83119935  0.82884879  0.49364788  1
  Cr  Cr52  1  0.66153549  0.66220758  0.66324151  1
  Fe  Fe53  1  0.83014561  0.83013640  0.83029148  1
" 