4664,Fe41Cr59_8,-218.086560843029, 160.875672243503,Fe41Cr59,"# generated using pymatgen
 data_Cr11Fe16
_symmetry_space_group_name_H-M   'P 1'
_cell_length_a   7.51935636
_cell_length_b   7.51935636
_cell_length_c   10.63397574
_cell_angle_alpha   90.00000000
_cell_angle_beta   90.00000000
_cell_angle_gamma   90.00000000
_symmetry_Int_Tables_number   1
_chemical_formula_structural   Cr11Fe16
_chemical_formula_sum   'Cr22 Fe32'
_cell_volume   601.25264549
_cell_formula_units_Z   2
loop_
 _symmetry_equiv_pos_site_id
 _symmetry_equiv_pos_as_xyz
  1  'x, y, z'
loop_
 _atom_site_type_symbol
 _atom_site_label
 _atom_site_symmetry_multiplicity
 _atom_site_fract_x
 _atom_site_fract_y
 _atom_site_fract_z
 _atom_site_occupancy
  Fe  Fe0  1  0.99266795  0.99636762  -0.00180187  1
  Cr  Cr1  1  0.16000476  0.16604096  0.16144306  1
  Cr  Cr2  1  0.99592991  0.99553225  0.33214768  1
  Fe  Fe3  1  0.99641789  0.33233945  -0.00273198  1
  Fe  Fe4  1  0.16298884  0.49567989  0.16525893  1
  Fe  Fe5  1  0.99527277  0.33110385  0.33101829  1
  Cr  Cr6  1  0.99645846  0.66344319  -0.00343971  1
  Cr  Cr7  1  0.16323996  0.82971934  0.16429720  1
  Fe  Fe8  1  0.99530670  0.66106051  0.33077256  1
  Cr  Cr9  1  0.33318116  -0.00171632  -0.00230948  1
  Fe  Fe10  1  0.49575998  0.16563339  0.16462856  1
  Fe  Fe11  1  0.32868600  -0.00213318  0.33011064  1
  Fe  Fe12  1  0.32984653  0.33180229  0.99615100  1
  Fe  Fe13  1  0.49539028  0.49435370  0.16585583  1
  Fe  Fe14  1  0.32898730  0.32966947  0.32933874  1
  Cr  Cr15  1  0.32893688  0.65971618  0.99558552  1
  Cr  Cr16  1  0.49730243  0.82678394  0.16569540  1
  Fe  Fe17  1  0.32761046  0.66195377  0.33003900  1
  Fe  Fe18  1  0.66506976  0.99548269  -0.00191923  1
  Fe  Fe19  1  0.83002339  0.16379591  0.16209327  1
  Cr  Cr20  1  0.66398212  -0.00045150  0.32636503  1
  Cr  Cr21  1  0.66054346  0.32747735  -0.00193568  1
  Fe  Fe22  1  0.83096981  0.49588526  0.16516649  1
  Fe  Fe23  1  0.66529827  0.33089376  0.32819828  1
  Cr  Cr24  1  0.66460761  0.66288306  0.99549187  1
  Fe  Fe25  1  0.83101488  0.82970189  0.16314841  1
  Fe  Fe26  1  0.66699178  0.66219363  0.32864151  1
  Fe  Fe27  1  0.16353109  0.16302169  0.49595302  1
  Fe  Fe28  1  0.99602479  -0.00304642  0.66018872  1
  Cr  Cr29  1  0.16055049  0.16448002  0.83141412  1
  Fe  Fe30  1  0.16380693  0.49653251  0.49383537  1
  Cr  Cr31  1  0.99623008  0.33126163  0.65963572  1
  Fe  Fe32  1  0.16123186  0.49496574  0.83094538  1
  Fe  Fe33  1  0.16345703  0.83002521  0.49594946  1
  Cr  Cr34  1  0.99561455  0.66438194  0.66235008  1
  Cr  Cr35  1  0.16215775  0.83314709  0.83027668  1
  Cr  Cr36  1  0.49567077  0.16256127  0.49664849  1
  Fe  Fe37  1  0.32798899  -0.00240796  0.66268118  1
  Fe  Fe38  1  0.49713290  0.16174706  0.82994584  1
  Cr  Cr39  1  0.49951653  0.49856025  0.49433506  1
  Cr  Cr40  1  0.33048090  0.32971460  0.66676363  1
  Fe  Fe41  1  0.49746639  0.49450121  0.83033273  1
  Cr  Cr42  1  0.49632736  0.82843185  0.49685279  1
  Cr  Cr43  1  0.32733362  0.66161966  0.66496068  1
  Cr  Cr44  1  0.49940614  0.82919350  0.82639399  1
  Fe  Fe45  1  0.82968265  0.16299653  0.49621294  1
  Fe  Fe46  1  0.66589326  0.99551590  0.66248935  1
  Cr  Cr47  1  0.83190903  0.16306582  0.83109332  1
  Fe  Fe48  1  0.83024485  0.49753137  0.49386476  1
  Cr  Cr49  1  0.66335308  0.32918000  0.66303046  1
  Fe  Fe50  1  0.83022890  0.49710640  0.82955824  1
  Fe  Fe51  1  0.82849903  0.82917482  0.49668067  1
  Fe  Fe52  1  0.66572109  0.66223921  0.66371153  1
  Fe  Fe53  1  0.83022390  0.83145994  0.82875969  1
" 