2498,Fe41Cr59_16,-218.214203011757, 164.089646535725,Fe41Cr59,"# generated using pymatgen
 data_Cr11Fe16
_symmetry_space_group_name_H-M   'P 1'
_cell_length_a   7.51674474
_cell_length_b   7.51674474
_cell_length_c   10.63028236
_cell_angle_alpha   90.00000000
_cell_angle_beta   90.00000000
_cell_angle_gamma   90.00000000
_symmetry_Int_Tables_number   1
_chemical_formula_structural   Cr11Fe16
_chemical_formula_sum   'Cr22 Fe32'
_cell_volume   600.62638378
_cell_formula_units_Z   2
loop_
 _symmetry_equiv_pos_site_id
 _symmetry_equiv_pos_as_xyz
  1  'x, y, z'
loop_
 _atom_site_type_symbol
 _atom_site_label
 _atom_site_symmetry_multiplicity
 _atom_site_fract_x
 _atom_site_fract_y
 _atom_site_fract_z
 _atom_site_occupancy
  Cr  Cr0  1  -0.00246767  -0.00217717  0.99663713  1
  Cr  Cr1  1  0.16309298  0.16466076  0.16408255  1
  Fe  Fe2  1  0.99570789  -0.00273555  0.33021792  1
  Fe  Fe3  1  0.99471937  0.33162174  -0.00272885  1
  Fe  Fe4  1  0.16344176  0.49877748  0.16248563  1
  Cr  Cr5  1  0.99494204  0.32930157  0.33065187  1
  Fe  Fe6  1  0.99616059  0.66170915  -0.00152704  1
  Fe  Fe7  1  0.16397313  0.82905699  0.16409883  1
  Fe  Fe8  1  0.99652806  0.66125826  0.32968510  1
  Fe  Fe9  1  0.33133353  -0.00282191  0.99634270  1
  Cr  Cr10  1  0.49771593  0.16421891  0.16250932  1
  Fe  Fe11  1  0.32860927  -0.00318486  0.33019123  1
  Fe  Fe12  1  0.32963354  0.33010479  -0.00283167  1
  Fe  Fe13  1  0.49507273  0.49706785  0.16282775  1
  Cr  Cr14  1  0.32887817  0.33172957  0.33360993  1
  Fe  Fe15  1  0.32863215  0.66293982  -0.00182919  1
  Cr  Cr16  1  0.49670468  0.83082389  0.16547621  1
  Fe  Fe17  1  0.32845721  0.66290101  0.32932925  1
  Fe  Fe18  1  0.66452745  -0.00232169  0.99619225  1
  Fe  Fe19  1  0.82998378  0.16331570  0.16201561  1
  Fe  Fe20  1  0.66592343  -0.00195043  0.33052109  1
  Fe  Fe21  1  0.66550226  0.32829121  0.99649655  1
  Fe  Fe22  1  0.83124851  0.49602363  0.16194207  1
  Cr  Cr23  1  0.66565694  0.33143701  0.32731786  1
  Cr  Cr24  1  0.66282730  0.66146536  0.99630180  1
  Cr  Cr25  1  0.83158106  0.83019874  0.16600072  1
  Fe  Fe26  1  0.66510560  0.66212867  0.32961890  1
  Fe  Fe27  1  0.16213506  0.16231559  0.49658656  1
  Fe  Fe28  1  0.99541073  -0.00263988  0.66262832  1
  Fe  Fe29  1  0.16383580  0.16409063  0.83142777  1
  Fe  Fe30  1  0.16168055  0.49742086  0.49739950  1
  Cr  Cr31  1  0.99642937  0.32819404  0.66157656  1
  Cr  Cr32  1  0.16134198  0.49478878  0.83009474  1
  Cr  Cr33  1  0.15973447  0.83015730  0.49423973  1
  Fe  Fe34  1  0.99541102  0.66249486  0.66158582  1
  Cr  Cr35  1  0.16077381  0.82842141  0.83309789  1
  Cr  Cr36  1  0.49672808  0.16356177  0.49693857  1
  Cr  Cr37  1  0.32792426  -0.00259036  0.66562131  1
  Fe  Fe38  1  0.49684562  0.16333202  0.83183023  1
  Cr  Cr39  1  0.49700773  0.49666592  0.49721563  1
  Fe  Fe40  1  0.32875524  0.32889413  0.66282152  1
  Cr  Cr41  1  0.49574984  0.49383877  0.82947158  1
  Cr  Cr42  1  0.49976160  0.83038433  0.49493802  1
  Cr  Cr43  1  0.33041721  0.66454722  0.66306667  1
  Cr  Cr44  1  0.49904698  0.83136547  0.82976772  1
  Fe  Fe45  1  0.83022875  0.16018737  0.49628278  1
  Fe  Fe46  1  0.66525246  -0.00185521  0.66258863  1
  Fe  Fe47  1  0.82983593  0.16421843  0.83082461  1
  Fe  Fe48  1  0.83073706  0.49983735  0.49634679  1
  Cr  Cr49  1  0.66536925  0.33072899  0.66438468  1
  Fe  Fe50  1  0.83098358  0.49640332  0.83066353  1
  Fe  Fe51  1  0.82966467  0.82998938  0.49638009  1
  Fe  Fe52  1  0.66603200  0.66320164  0.66245859  1
  Cr  Cr53  1  0.83090411  0.82969421  0.82561554  1
" 