6728,Fe41Cr59_11,-218.152215736799, 159.233794238835,Fe41Cr59,"# generated using pymatgen
 data_Cr11Fe16
_symmetry_space_group_name_H-M   'P 1'
_cell_length_a   7.51534636
_cell_length_b   7.51534636
_cell_length_c   10.62830475
_cell_angle_alpha   90.00000000
_cell_angle_beta   90.00000000
_cell_angle_gamma   90.00000000
_symmetry_Int_Tables_number   1
_chemical_formula_structural   Cr11Fe16
_chemical_formula_sum   'Cr22 Fe32'
_cell_volume   600.29123153
_cell_formula_units_Z   2
loop_
 _symmetry_equiv_pos_site_id
 _symmetry_equiv_pos_as_xyz
  1  'x, y, z'
loop_
 _atom_site_type_symbol
 _atom_site_label
 _atom_site_symmetry_multiplicity
 _atom_site_fract_x
 _atom_site_fract_y
 _atom_site_fract_z
 _atom_site_occupancy
  Cr  Cr0  1  -0.00160410  0.99595982  0.99531937  1
  Cr  Cr1  1  0.16366110  0.16645628  0.16332616  1
  Cr  Cr2  1  -0.00100801  0.99479695  0.33219338  1
  Fe  Fe3  1  -0.00083525  0.33191261  0.99632000  1
  Fe  Fe4  1  0.16469544  0.49844454  0.16387361  1
  Fe  Fe5  1  -0.00180444  0.33201589  0.33096049  1
  Fe  Fe6  1  -0.00138495  0.66165021  -0.00272663  1
  Fe  Fe7  1  0.16437980  0.82729477  0.16252251  1
  Fe  Fe8  1  -0.00182970  0.66225411  0.33048787  1
  Fe  Fe9  1  0.33092835  -0.00246481  -0.00214952  1
  Fe  Fe10  1  0.49682761  0.16587068  0.16379936  1
  Cr  Cr11  1  0.33138881  0.99649296  0.32851759  1
  Fe  Fe12  1  0.33090219  0.33016035  0.99665513  1
  Fe  Fe13  1  0.49553016  0.49621888  0.16331767  1
  Fe  Fe14  1  0.33222814  0.33127160  0.32969935  1
  Fe  Fe15  1  0.33015111  0.66274054  -0.00096290  1
  Fe  Fe16  1  0.49491483  0.82823709  0.16356135  1
  Fe  Fe17  1  0.33060054  0.66251523  0.32849660  1
  Cr  Cr18  1  0.65993873  -0.00230015  -0.00176972  1
  Cr  Cr19  1  0.83059613  0.16460049  0.16512734  1
  Fe  Fe20  1  0.66092401  -0.00312287  0.32936428  1
  Fe  Fe21  1  0.66046768  0.33135509  -0.00251388  1
  Cr  Cr22  1  0.83101669  0.49546366  0.16410744  1
  Fe  Fe23  1  0.66013474  0.33118759  0.33055982  1
  Fe  Fe24  1  0.66135666  0.66176281  -0.00211493  1
  Cr  Cr25  1  0.82902433  0.83001783  0.16383893  1
  Fe  Fe26  1  0.66142615  0.66223945  0.33011043  1
  Fe  Fe27  1  0.16607523  0.16448185  0.49581586  1
  Cr  Cr28  1  -0.00090714  -0.00251244  0.66267450  1
  Fe  Fe29  1  0.16700347  0.16666146  0.83183049  1
  Cr  Cr30  1  0.16685927  0.49564966  0.49541743  1
  Cr  Cr31  1  -0.00255395  0.33077362  0.66401245  1
  Fe  Fe32  1  0.16453389  0.49572233  0.83165490  1
  Fe  Fe33  1  0.16499177  0.82866806  0.49651106  1
  Cr  Cr34  1  0.99636709  0.66201656  0.66294560  1
  Cr  Cr35  1  0.16642417  0.82820299  0.83032771  1
  Fe  Fe36  1  0.49620473  0.16590618  0.49636872  1
  Cr  Cr37  1  0.33030611  -0.00032641  0.66361870  1
  Fe  Fe38  1  0.49566091  0.16482775  0.83033435  1
  Fe  Fe39  1  0.49910851  0.49492127  0.49692247  1
  Fe  Fe40  1  0.33065359  0.33028823  0.66288573  1
  Cr  Cr41  1  0.49417619  0.49704015  0.82797869  1
  Cr  Cr42  1  0.49570065  0.82829886  0.49855979  1
  Fe  Fe43  1  0.32923852  0.66137832  0.66230292  1
  Cr  Cr44  1  0.49638682  0.82891916  0.82928966  1
  Cr  Cr45  1  0.82951195  0.16483360  0.49436109  1
  Fe  Fe46  1  0.66281999  -0.00033344  0.66348332  1
  Cr  Cr47  1  0.82971195  0.16417935  0.83138160  1
  Fe  Fe48  1  0.82769940  0.49700690  0.49514297  1
  Fe  Fe49  1  0.66140614  0.32965798  0.66199604  1
  Cr  Cr50  1  0.82886990  0.49642780  0.83169650  1
  Cr  Cr51  1  0.82766252  0.83025217  0.49766548  1
  Fe  Fe52  1  0.66241251  0.66066466  0.66237078  1
  Cr  Cr53  1  0.82752863  0.82984133  0.82900964  1
" 