2122,Fe41Cr59_19,-218.074835691369, 166.34551502478,Fe41Cr59,"# generated using pymatgen
 data_Cr11Fe16
_symmetry_space_group_name_H-M   'P 1'
_cell_length_a   7.51578949
_cell_length_b   7.51578949
_cell_length_c   10.62893143
_cell_angle_alpha   90.00000000
_cell_angle_beta   90.00000000
_cell_angle_gamma   90.00000000
_symmetry_Int_Tables_number   1
_chemical_formula_structural   Cr11Fe16
_chemical_formula_sum   'Cr22 Fe32'
_cell_volume   600.39742364
_cell_formula_units_Z   2
loop_
 _symmetry_equiv_pos_site_id
 _symmetry_equiv_pos_as_xyz
  1  'x, y, z'
loop_
 _atom_site_type_symbol
 _atom_site_label
 _atom_site_symmetry_multiplicity
 _atom_site_fract_x
 _atom_site_fract_y
 _atom_site_fract_z
 _atom_site_occupancy
  Fe  Fe0  1  -0.00178229  -0.00223110  -0.00244266  1
  Fe  Fe1  1  0.16436600  0.16595111  0.16388442  1
  Cr  Cr2  1  0.00118279  -0.00238125  0.33120052  1
  Fe  Fe3  1  -0.00133147  0.32902671  0.99610550  1
  Fe  Fe4  1  0.16245978  0.49539538  0.16177905  1
  Fe  Fe5  1  -0.00166894  0.33201584  0.33031071  1
  Fe  Fe6  1  -0.00066378  0.66352025  -0.00238535  1
  Fe  Fe7  1  0.16400923  0.82924587  0.16217274  1
  Cr  Cr8  1  0.99566043  0.66133745  0.33290755  1
  Cr  Cr9  1  0.33021365  -0.00134339  -0.00166669  1
  Fe  Fe10  1  0.49664591  0.16290403  0.16493866  1
  Fe  Fe11  1  0.33131382  -0.00250481  0.32761562  1
  Fe  Fe12  1  0.32970589  0.32919777  -0.00236449  1
  Cr  Cr13  1  0.49289249  0.49519954  0.16425178  1
  Fe  Fe14  1  0.32822441  0.32973242  0.32927898  1
  Fe  Fe15  1  0.32911784  0.66419947  -0.00127986  1
  Fe  Fe16  1  0.49651729  0.83262743  0.16387034  1
  Cr  Cr17  1  0.32963062  0.66497870  0.32951131  1
  Fe  Fe18  1  0.66127556  -0.00166336  0.99672126  1
  Cr  Cr19  1  0.82917552  0.16295882  0.16475524  1
  Fe  Fe20  1  0.66124786  0.99617341  0.32899330  1
  Fe  Fe21  1  0.66137114  0.32756303  0.99593701  1
  Cr  Cr22  1  0.83159570  0.49419833  0.16058686  1
  Fe  Fe23  1  0.66335173  0.33064554  0.32991187  1
  Cr  Cr24  1  0.66307404  0.66315099  0.99611678  1
  Cr  Cr25  1  0.83092536  0.83301342  0.16261372  1
  Cr  Cr26  1  0.66464376  0.66195114  0.33139815  1
  Cr  Cr27  1  0.16404465  0.16445157  0.49689860  1
  Fe  Fe28  1  0.99555788  0.99517243  0.66181443  1
  Fe  Fe29  1  0.16365365  0.16435948  0.83098964  1
  Fe  Fe30  1  0.16533479  0.49719899  0.49792430  1
  Cr  Cr31  1  0.99650502  0.33062792  0.66378647  1
  Cr  Cr32  1  0.16592719  0.49798795  0.83229748  1
  Fe  Fe33  1  0.16247006  0.82931210  0.49905541  1
  Fe  Fe34  1  -0.00213543  0.66378995  0.66063182  1
  Cr  Cr35  1  0.16254782  0.82784827  0.82851740  1
  Cr  Cr36  1  0.49799954  0.16614944  0.49468440  1
  Cr  Cr37  1  0.32922374  -0.00078604  0.66549560  1
  Fe  Fe38  1  0.49629223  0.16317302  0.83015253  1
  Fe  Fe39  1  0.49539726  0.49428462  0.49738536  1
  Fe  Fe40  1  0.33135127  0.33151296  0.66293973  1
  Cr  Cr41  1  0.49388976  0.49537719  0.82843193  1
  Cr  Cr42  1  0.49579345  0.83013403  0.49669232  1
  Fe  Fe43  1  0.32855887  0.66178548  0.66108269  1
  Fe  Fe44  1  0.49693358  0.83096103  0.82986560  1
  Cr  Cr45  1  0.82829755  0.16142158  0.49483231  1
  Fe  Fe46  1  0.66340995  -0.00235537  0.66361297  1
  Cr  Cr47  1  0.82887178  0.16207786  0.83106916  1
  Fe  Fe48  1  0.82972747  0.49486986  0.49698717  1
  Fe  Fe49  1  0.66222488  0.32917048  0.66352032  1
  Fe  Fe50  1  0.83127066  0.49661816  0.83129030  1
  Fe  Fe51  1  0.83156341  0.83095202  0.49850101  1
  Cr  Cr52  1  0.66524265  0.66118015  0.66200813  1
  Cr  Cr53  1  0.83178985  0.83275999  0.82970846  1
" 