44,Fe41Cr59_9,-218.297098417169, 159.840412588166,Fe41Cr59,"# generated using pymatgen
 data_Cr11Fe16
_symmetry_space_group_name_H-M   'P 1'
_cell_length_a   7.51923443
_cell_length_b   7.51923443
_cell_length_c   10.63380332
_cell_angle_alpha   90.00000000
_cell_angle_beta   90.00000000
_cell_angle_gamma   90.00000000
_symmetry_Int_Tables_number   1
_chemical_formula_structural   Cr11Fe16
_chemical_formula_sum   'Cr22 Fe32'
_cell_volume   601.22339864
_cell_formula_units_Z   2
loop_
 _symmetry_equiv_pos_site_id
 _symmetry_equiv_pos_as_xyz
  1  'x, y, z'
loop_
 _atom_site_type_symbol
 _atom_site_label
 _atom_site_symmetry_multiplicity
 _atom_site_fract_x
 _atom_site_fract_y
 _atom_site_fract_z
 _atom_site_occupancy
  Fe  Fe0  1  -0.00298203  -0.00336762  -0.00079354  1
  Fe  Fe1  1  0.16175209  0.16388447  0.16222606  1
  Fe  Fe2  1  0.99501351  0.99579057  0.32776831  1
  Fe  Fe3  1  0.99592094  0.32924694  -0.00099717  1
  Fe  Fe4  1  0.16406488  0.49571771  0.16367688  1
  Fe  Fe5  1  -0.00282621  0.32948840  0.32724326  1
  Cr  Cr6  1  0.99467934  0.66129873  -0.00314501  1
  Fe  Fe7  1  0.16330451  0.82987339  0.16294724  1
  Fe  Fe8  1  -0.00274032  0.66409606  0.32644980  1
  Fe  Fe9  1  0.32909055  0.99514435  -0.00118401  1
  Cr  Cr10  1  0.49970606  0.16400080  0.16373724  1
  Cr  Cr11  1  0.32826588  -0.00098063  0.33068583  1
  Fe  Fe12  1  0.32989134  0.33163608  -0.00219474  1
  Fe  Fe13  1  0.49562215  0.49738469  0.16319247  1
  Fe  Fe14  1  0.32830639  0.33140649  0.32768417  1
  Fe  Fe15  1  0.33048139  0.66322809  -0.00214086  1
  Fe  Fe16  1  0.49495263  0.82822189  0.16338917  1
  Fe  Fe17  1  0.32825152  0.66240299  0.32662093  1
  Cr  Cr18  1  0.66341135  0.99426709  -0.00194687  1
  Fe  Fe19  1  0.83253453  0.16391459  0.16377373  1
  Fe  Fe20  1  0.66591287  -0.00333076  0.32757446  1
  Fe  Fe21  1  0.66407765  0.33197629  -0.00234129  1
  Fe  Fe22  1  0.82958374  0.49450920  0.16376563  1
  Fe  Fe23  1  0.66456550  0.33010579  0.32740193  1
  Cr  Cr24  1  0.66219717  0.66221138  0.99264350  1
  Fe  Fe25  1  0.83101475  0.83080993  0.16387007  1
  Cr  Cr26  1  0.66449847  0.66445494  0.32915812  1
  Cr  Cr27  1  0.16256237  0.16365772  0.50035776  1
  Fe  Fe28  1  0.99483083  0.99490668  0.66378350  1
  Cr  Cr29  1  0.16299991  0.16189058  0.83065803  1
  Cr  Cr30  1  0.16176832  0.49845131  0.49499952  1
  Fe  Fe31  1  0.99501326  0.33052436  0.66409915  1
  Cr  Cr32  1  0.16184598  0.49725670  0.82923229  1
  Cr  Cr33  1  0.15989540  0.82760859  0.49724504  1
  Fe  Fe34  1  0.99456547  0.66450820  0.66479072  1
  Cr  Cr35  1  0.16320411  0.82998448  0.83057896  1
  Cr  Cr36  1  0.49849982  0.16502141  0.49695672  1
  Fe  Fe37  1  0.32989510  0.99589754  0.66349275  1
  Cr  Cr38  1  0.49726808  0.16354836  0.82894347  1
  Cr  Cr39  1  0.49701140  0.49471897  0.49443098  1
  Fe  Fe40  1  0.33064863  0.33009346  0.66392808  1
  Fe  Fe41  1  0.49591687  0.49454957  0.83068972  1
  Cr  Cr42  1  0.49589018  0.82995864  0.49429566  1
  Cr  Cr43  1  0.33210150  0.66196544  0.66318978  1
  Fe  Fe44  1  0.49460448  0.83083974  0.83052617  1
  Cr  Cr45  1  0.82858969  0.16337136  0.49347018  1
  Cr  Cr46  1  0.66411113  0.99418940  0.66134217  1
  Cr  Cr47  1  0.82927453  0.16489112  0.83230348  1
  Cr  Cr48  1  0.83106947  0.49698684  0.49769848  1
  Fe  Fe49  1  0.66361738  0.33150992  0.66458068  1
  Fe  Fe50  1  0.83021558  0.49464983  0.82929414  1
  Fe  Fe51  1  0.83155931  0.82967178  0.49545100  1
  Cr  Cr52  1  0.66497812  0.66328403  0.66739992  1
  Fe  Fe53  1  0.83212045  0.83128014  0.82980437  1
" 