7500,Fe41Cr59_0,-218.530657528549, 164.640065642792,Fe41Cr59,"# generated using pymatgen
 data_Cr11Fe16
_symmetry_space_group_name_H-M   'P 1'
_cell_length_a   7.51709543
_cell_length_b   7.51709543
_cell_length_c   10.63077831
_cell_angle_alpha   90.00000000
_cell_angle_beta   90.00000000
_cell_angle_gamma   90.00000000
_symmetry_Int_Tables_number   1
_chemical_formula_structural   Cr11Fe16
_chemical_formula_sum   'Cr22 Fe32'
_cell_volume   600.71045326
_cell_formula_units_Z   2
loop_
 _symmetry_equiv_pos_site_id
 _symmetry_equiv_pos_as_xyz
  1  'x, y, z'
loop_
 _atom_site_type_symbol
 _atom_site_label
 _atom_site_symmetry_multiplicity
 _atom_site_fract_x
 _atom_site_fract_y
 _atom_site_fract_z
 _atom_site_occupancy
  Fe  Fe0  1  -0.00281689  0.99634391  -0.00186928  1
  Fe  Fe1  1  0.16146734  0.16200340  0.16232352  1
  Fe  Fe2  1  -0.00210907  0.99491981  0.33092145  1
  Fe  Fe3  1  0.00004500  0.32949448  -0.00112560  1
  Fe  Fe4  1  0.16519955  0.49376214  0.16351385  1
  Cr  Cr5  1  0.99609990  0.32806766  0.32852090  1
  Cr  Cr6  1  0.00038316  0.66202952  0.99516998  1
  Fe  Fe7  1  0.16121303  0.83157536  0.16368746  1
  Fe  Fe8  1  0.99600565  0.66516502  0.33007998  1
  Fe  Fe9  1  0.32673709  0.99665584  -0.00304373  1
  Cr  Cr10  1  0.49242424  0.16378319  0.16338326  1
  Cr  Cr11  1  0.32952380  0.99568140  0.33314179  1
  Fe  Fe12  1  0.32807923  0.33083101  -0.00259404  1
  Fe  Fe13  1  0.49543275  0.49527244  0.16238692  1
  Fe  Fe14  1  0.33046411  0.32928611  0.33107663  1
  Cr  Cr15  1  0.32915735  0.66298527  0.99576903  1
  Cr  Cr16  1  0.49738564  0.83009830  0.15822269  1
  Cr  Cr17  1  0.32688254  0.65988807  0.32824017  1
  Fe  Fe18  1  0.66428934  0.99516504  0.99628301  1
  Fe  Fe19  1  0.83163134  0.16126724  0.16200624  1
  Cr  Cr20  1  0.66719359  0.00111481  0.33028714  1
  Cr  Cr21  1  0.66508250  0.32687308  -0.00133838  1
  Cr  Cr22  1  0.83074553  0.49932971  0.16247531  1
  Fe  Fe23  1  0.66140863  0.33181482  0.32995363  1
  Fe  Fe24  1  0.66439158  0.66246537  0.99657508  1
  Fe  Fe25  1  0.83228393  0.83253591  0.16192817  1
  Cr  Cr26  1  0.66079318  0.66437875  0.32861889  1
  Fe  Fe27  1  0.16412841  0.16536131  0.49686210  1
  Cr  Cr28  1  0.99602317  -0.00252522  0.65926846  1
  Cr  Cr29  1  0.16373893  0.16390541  0.83107365  1
  Fe  Fe30  1  0.16464254  0.49477460  0.49616403  1
  Fe  Fe31  1  -0.00139673  0.32989455  0.66239885  1
  Fe  Fe32  1  0.16313381  0.49294447  0.82994633  1
  Fe  Fe33  1  0.16117542  0.82814914  0.49568671  1
  Cr  Cr34  1  0.00003329  0.66179533  0.66446689  1
  Fe  Fe35  1  0.16424928  0.83332206  0.83038523  1
  Fe  Fe36  1  0.49641701  0.16743718  0.49743185  1
  Fe  Fe37  1  0.32734103  -0.00240752  0.66141027  1
  Cr  Cr38  1  0.49243147  0.16145364  0.82955076  1
  Fe  Fe39  1  0.49538312  0.49477589  0.49796782  1
  Fe  Fe40  1  0.32883189  0.32936096  0.66172286  1
  Cr  Cr41  1  0.49966350  0.49719671  0.82969822  1
  Cr  Cr42  1  0.49645629  0.82996821  0.50079153  1
  Cr  Cr43  1  0.32867950  0.66300132  0.66561873  1
  Fe  Fe44  1  0.49516560  0.83153315  0.83077463  1
  Fe  Fe45  1  0.83005794  0.16575110  0.49645533  1
  Cr  Cr46  1  0.66239590  0.00065727  0.66280034  1
  Cr  Cr47  1  0.83357216  0.16552542  0.83171743  1
  Cr  Cr48  1  0.82980763  0.49872704  0.49969297  1
  Fe  Fe49  1  0.66346115  0.33167404  0.66333451  1
  Fe  Fe50  1  0.83223135  0.49419378  0.82955858  1
  Fe  Fe51  1  0.83094334  0.83042768  0.49593572  1
  Fe  Fe52  1  0.66400916  0.66387187  0.66383373  1
  Cr  Cr53  1  0.82826741  0.82668054  0.83109600  1
" 