8199,Fe41Cr59_17,-218.523880396541, 164.487946853772,Fe41Cr59,"# generated using pymatgen
 data_Cr11Fe16
_symmetry_space_group_name_H-M   'P 1'
_cell_length_a   7.52064415
_cell_length_b   7.52064415
_cell_length_c   10.63579695
_cell_angle_alpha   90.00000000
_cell_angle_beta   90.00000000
_cell_angle_gamma   90.00000000
_symmetry_Int_Tables_number   1
_chemical_formula_structural   Cr11Fe16
_chemical_formula_sum   'Cr22 Fe32'
_cell_volume   601.56161596
_cell_formula_units_Z   2
loop_
 _symmetry_equiv_pos_site_id
 _symmetry_equiv_pos_as_xyz
  1  'x, y, z'
loop_
 _atom_site_type_symbol
 _atom_site_label
 _atom_site_symmetry_multiplicity
 _atom_site_fract_x
 _atom_site_fract_y
 _atom_site_fract_z
 _atom_site_occupancy
  Fe  Fe0  1  0.99560509  0.99615665  -0.00321213  1
  Fe  Fe1  1  0.16059774  0.16386069  0.16358410  1
  Fe  Fe2  1  0.99400103  0.99484407  0.32859364  1
  Fe  Fe3  1  -0.00297194  0.33004010  0.99615013  1
  Fe  Fe4  1  0.16237923  0.49571185  0.16440293  1
  Fe  Fe5  1  -0.00212109  0.32934857  0.32830773  1
  Fe  Fe6  1  -0.00220806  0.66245380  0.99500073  1
  Cr  Cr7  1  0.16300735  0.82757133  0.16194356  1
  Fe  Fe8  1  0.99623187  0.66472384  0.32977566  1
  Fe  Fe9  1  0.32914082  0.99546167  -0.00271339  1
  Cr  Cr10  1  0.49850565  0.16147559  0.16131044  1
  Cr  Cr11  1  0.32831917  0.99607678  0.33059521  1
  Cr  Cr12  1  0.32723319  0.32911794  -0.00305619  1
  Cr  Cr13  1  0.49359313  0.49910893  0.16493220  1
  Fe  Fe14  1  0.32962360  0.32976439  0.32895553  1
  Fe  Fe15  1  0.32770607  0.66295243  0.99592094  1
  Fe  Fe16  1  0.49663091  0.83060551  0.16257863  1
  Fe  Fe17  1  0.32904992  0.66372402  0.33076557  1
  Fe  Fe18  1  0.66452564  0.99620991  -0.00262799  1
  Fe  Fe19  1  0.83242382  0.16083457  0.16311035  1
  Fe  Fe20  1  0.66314467  0.99576972  0.32935883  1
  Cr  Cr21  1  0.66383045  0.33080097  0.99470340  1
  Cr  Cr22  1  0.83252100  0.49616745  0.16281627  1
  Cr  Cr23  1  0.66340345  0.33099686  0.33070029  1
  Cr  Cr24  1  0.66395519  0.66438192  -0.00204849  1
  Fe  Fe25  1  0.82953211  0.83201449  0.16338716  1
  Cr  Cr26  1  0.66225630  0.66521049  0.33132044  1
  Cr  Cr27  1  0.16301289  0.16359998  0.49493783  1
  Cr  Cr28  1  -0.00094527  0.99358211  0.66134903  1
  Cr  Cr29  1  0.16415496  0.16105730  0.82926720  1
  Cr  Cr30  1  0.16268278  0.49828720  0.49369069  1
  Cr  Cr31  1  0.99567147  0.33052600  0.66421384  1
  Fe  Fe32  1  0.16160948  0.49863615  0.83027687  1
  Fe  Fe33  1  0.16209383  0.82947623  0.49493329  1
  Fe  Fe34  1  -0.00328585  0.66316810  0.66343976  1
  Fe  Fe35  1  0.16160943  0.82820314  0.83159186  1
  Cr  Cr36  1  0.49702755  0.16316357  0.50231799  1
  Fe  Fe37  1  0.33069853  0.99551497  0.66340768  1
  Fe  Fe38  1  0.49588378  0.16225608  0.82831632  1
  Fe  Fe39  1  0.49571707  0.49578192  0.49656325  1
  Fe  Fe40  1  0.32937119  0.33056338  0.66374029  1
  Cr  Cr41  1  0.49608775  0.49619791  0.82838199  1
  Fe  Fe42  1  0.49609534  0.83068470  0.49668639  1
  Cr  Cr43  1  0.32901274  0.66564773  0.66199445  1
  Cr  Cr44  1  0.49562988  0.83183162  0.83278044  1
  Cr  Cr45  1  0.82927125  0.16185731  0.49451683  1
  Fe  Fe46  1  0.66351427  0.99450701  0.66406159  1
  Cr  Cr47  1  0.82797842  0.16186477  0.83027046  1
  Fe  Fe48  1  0.83110034  0.49657621  0.49592891  1
  Fe  Fe49  1  0.66340338  0.33000657  0.66361152  1
  Fe  Fe50  1  0.83205967  0.49877275  0.83029238  1
  Fe  Fe51  1  0.83132245  0.82934376  0.49544744  1
  Cr  Cr52  1  0.66544824  0.66205247  0.66090216  1
  Fe  Fe53  1  0.83144019  0.82903866  0.83010606  1
" 