6789,Fe41Cr59_7,-218.228943403574, 167.800579817112,Fe41Cr59,"# generated using pymatgen
 data_Cr11Fe16
_symmetry_space_group_name_H-M   'P 1'
_cell_length_a   7.52381288
_cell_length_b   7.52381288
_cell_length_c   10.64027821
_cell_angle_alpha   90.00000000
_cell_angle_beta   90.00000000
_cell_angle_gamma   90.00000000
_symmetry_Int_Tables_number   1
_chemical_formula_structural   Cr11Fe16
_chemical_formula_sum   'Cr22 Fe32'
_cell_volume   602.32231761
_cell_formula_units_Z   2
loop_
 _symmetry_equiv_pos_site_id
 _symmetry_equiv_pos_as_xyz
  1  'x, y, z'
loop_
 _atom_site_type_symbol
 _atom_site_label
 _atom_site_symmetry_multiplicity
 _atom_site_fract_x
 _atom_site_fract_y
 _atom_site_fract_z
 _atom_site_occupancy
  Cr  Cr0  1  0.99446874  0.99328284  0.99531368  1
  Cr  Cr1  1  0.16147868  0.16196544  0.16439969  1
  Fe  Fe2  1  -0.00286599  0.99610386  0.33030174  1
  Fe  Fe3  1  -0.00287632  0.33055223  -0.00311836  1
  Fe  Fe4  1  0.16250612  0.49573186  0.16299472  1
  Fe  Fe5  1  -0.00287462  0.33107540  0.32939035  1
  Cr  Cr6  1  0.99555807  0.66309336  -0.00142462  1
  Fe  Fe7  1  0.16292396  0.83019505  0.16291964  1
  Cr  Cr8  1  0.99349419  0.66768205  0.32781250  1
  Fe  Fe9  1  0.32745701  -0.00362514  -0.00252412  1
  Fe  Fe10  1  0.49679796  0.16328206  0.16336640  1
  Fe  Fe11  1  0.32909128  0.99506890  0.33048009  1
  Cr  Cr12  1  0.33046473  0.33051966  0.99574403  1
  Fe  Fe13  1  0.49865289  0.49452223  0.16210670  1
  Cr  Cr14  1  0.33388166  0.32786835  0.33250047  1
  Fe  Fe15  1  0.32841027  0.66224220  -0.00175226  1
  Cr  Cr16  1  0.49266779  0.82848819  0.15905172  1
  Cr  Cr17  1  0.32774624  0.65919200  0.32942259  1
  Cr  Cr18  1  0.66449086  -0.00357652  0.99568791  1
  Cr  Cr19  1  0.83031354  0.16775619  0.16409528  1
  Fe  Fe20  1  0.66211156  0.99531659  0.32923015  1
  Fe  Fe21  1  0.66376822  0.33210345  -0.00177365  1
  Fe  Fe22  1  0.82770574  0.49681856  0.16331055  1
  Fe  Fe23  1  0.66246091  0.33114997  0.32894640  1
  Fe  Fe24  1  0.66326597  0.66036903  -0.00199810  1
  Fe  Fe25  1  0.82802822  0.83020132  0.16415724  1
  Fe  Fe26  1  0.66178563  0.66244147  0.32884223  1
  Fe  Fe27  1  0.16306555  0.15971919  0.49569736  1
  Fe  Fe28  1  -0.00163970  -0.00332903  0.66175155  1
  Fe  Fe29  1  0.16289534  0.16380853  0.82894530  1
  Cr  Cr30  1  0.16070242  0.49649940  0.49777564  1
  Fe  Fe31  1  -0.00192026  0.32854200  0.66308121  1
  Fe  Fe32  1  0.16246755  0.49571472  0.82841655  1
  Fe  Fe33  1  0.16053287  0.83222207  0.49770556  1
  Fe  Fe34  1  -0.00283628  0.66355924  0.66235970  1
  Cr  Cr35  1  0.16817045  0.82921521  0.82898503  1
  Fe  Fe36  1  0.49747970  0.16250858  0.49656138  1
  Fe  Fe37  1  0.32798044  -0.00283316  0.66131334  1
  Cr  Cr38  1  0.49706674  0.15982590  0.83093426  1
  Fe  Fe39  1  0.49873720  0.49579286  0.49729426  1
  Cr  Cr40  1  0.33127120  0.32888020  0.66118004  1
  Cr  Cr41  1  0.49728582  0.50093757  0.82864659  1
  Cr  Cr42  1  0.49357820  0.82866934  0.49886280  1
  Fe  Fe43  1  0.32845416  0.66308364  0.66150449  1
  Cr  Cr44  1  0.49311999  0.82805441  0.83056793  1
  Cr  Cr45  1  0.83170230  0.16428393  0.49534238  1
  Fe  Fe46  1  0.66255300  -0.00260290  0.66166921  1
  Cr  Cr47  1  0.83277061  0.16705180  0.82871260  1
  Cr  Cr48  1  0.82879377  0.49424040  0.49640979  1
  Fe  Fe49  1  0.66198481  0.32895342  0.66184065  1
  Cr  Cr50  1  0.83120154  0.49298111  0.82912577  1
  Fe  Fe51  1  0.83007747  0.83001627  0.49753733  1
  Fe  Fe52  1  0.66282847  0.66222905  0.66125375  1
  Cr  Cr53  1  0.82705513  0.82844747  0.82533440  1
" 