5019,Fe41Cr59_2,-218.069679214611, 159.894880299444,Fe41Cr59,"# generated using pymatgen
 data_Cr11Fe16
_symmetry_space_group_name_H-M   'P 1'
_cell_length_a   7.52175368
_cell_length_b   7.52175368
_cell_length_c   10.63736607
_cell_angle_alpha   90.00000000
_cell_angle_beta   90.00000000
_cell_angle_gamma   90.00000000
_symmetry_Int_Tables_number   1
_chemical_formula_structural   Cr11Fe16
_chemical_formula_sum   'Cr22 Fe32'
_cell_volume   601.82790337
_cell_formula_units_Z   2
loop_
 _symmetry_equiv_pos_site_id
 _symmetry_equiv_pos_as_xyz
  1  'x, y, z'
loop_
 _atom_site_type_symbol
 _atom_site_label
 _atom_site_symmetry_multiplicity
 _atom_site_fract_x
 _atom_site_fract_y
 _atom_site_fract_z
 _atom_site_occupancy
  Fe  Fe0  1  -0.00257503  0.99607347  0.99490899  1
  Cr  Cr1  1  0.15981731  0.16182009  0.16440747  1
  Fe  Fe2  1  0.99520425  0.99523133  0.33105155  1
  Fe  Fe3  1  0.99576082  0.33042206  0.99595452  1
  Cr  Cr4  1  0.16270275  0.49749595  0.16301001  1
  Cr  Cr5  1  0.99549536  0.32978449  0.32998874  1
  Fe  Fe6  1  0.99437070  0.66267356  0.99450377  1
  Cr  Cr7  1  0.16180459  0.82994136  0.16189673  1
  Cr  Cr8  1  0.99483325  0.66612704  0.33284138  1
  Fe  Fe9  1  0.32783375  0.99619555  0.99492414  1
  Cr  Cr10  1  0.49636896  0.16062022  0.16597457  1
  Fe  Fe11  1  0.32964430  -0.00271503  0.33236201  1
  Cr  Cr12  1  0.33017574  0.32877392  -0.00274297  1
  Fe  Fe13  1  0.49566792  0.49808105  0.16231077  1
  Fe  Fe14  1  0.32984208  0.32835849  0.33053817  1
  Fe  Fe15  1  0.32907402  0.66362128  0.99556160  1
  Cr  Cr16  1  0.49662533  0.82822107  0.16122897  1
  Cr  Cr17  1  0.32971312  0.66400543  0.32999092  1
  Cr  Cr18  1  0.66463547  0.99623224  -0.00318128  1
  Fe  Fe19  1  0.83194442  0.16034893  0.16311621  1
  Fe  Fe20  1  0.66426064  0.99452135  0.33033818  1
  Cr  Cr21  1  0.66294046  0.33081839  -0.00011454  1
  Fe  Fe22  1  0.83084081  0.49827212  0.16143851  1
  Cr  Cr23  1  0.66132633  0.32971876  0.32586416  1
  Fe  Fe24  1  0.66538245  0.66227365  -0.00293403  1
  Fe  Fe25  1  0.83149023  0.83081403  0.16227119  1
  Cr  Cr26  1  0.66467846  0.66318786  0.32842712  1
  Fe  Fe27  1  0.16589586  0.16176733  0.49620389  1
  Cr  Cr28  1  -0.00120408  0.99459893  0.66370149  1
  Fe  Fe29  1  0.16407442  0.16313950  0.83001746  1
  Cr  Cr30  1  0.16276128  0.49540770  0.49671957  1
  Fe  Fe31  1  -0.00276668  0.32975245  0.66343063  1
  Fe  Fe32  1  0.16153512  0.49621524  0.82959983  1
  Fe  Fe33  1  0.16486738  0.83278492  0.49634230  1
  Cr  Cr34  1  0.99578391  0.66337814  0.66176749  1
  Fe  Fe35  1  0.16298598  0.82946176  0.83151173  1
  Fe  Fe36  1  0.49442020  0.16172811  0.49713425  1
  Fe  Fe37  1  0.32914671  0.99550826  0.66115464  1
  Cr  Cr38  1  0.49770931  0.16164734  0.82556496  1
  Cr  Cr39  1  0.49599289  0.49708294  0.49768921  1
  Fe  Fe40  1  0.32716438  0.32834727  0.66334936  1
  Cr  Cr41  1  0.49618521  0.49885580  0.82908083  1
  Fe  Fe42  1  0.49672949  0.83250131  0.49777265  1
  Fe  Fe43  1  0.32834646  0.66538841  0.66251929  1
  Cr  Cr44  1  0.49590674  0.82865091  0.82911247  1
  Cr  Cr45  1  0.82918481  0.16204531  0.49605372  1
  Fe  Fe46  1  0.66308517  0.99412256  0.66158972  1
  Cr  Cr47  1  0.83189899  0.16419406  0.83002370  1
  Fe  Fe48  1  0.82792564  0.49575659  0.49791952  1
  Fe  Fe49  1  0.66468881  0.33068754  0.66233386  1
  Fe  Fe50  1  0.83017129  0.49781249  0.82977111  1
  Fe  Fe51  1  0.82751130  0.82981267  0.49703186  1
  Fe  Fe52  1  0.66406719  0.66451901  0.66196967  1
  Fe  Fe53  1  0.82970145  0.82754251  0.83032563  1
" 