2961,Fe41Cr59_10,-218.298760788796, 166.553803409778,Fe41Cr59,"# generated using pymatgen
 data_Cr11Fe16
_symmetry_space_group_name_H-M   'P 1'
_cell_length_a   7.51540275
_cell_length_b   7.51540275
_cell_length_c   10.62838449
_cell_angle_alpha   90.00000000
_cell_angle_beta   90.00000000
_cell_angle_gamma   90.00000000
_symmetry_Int_Tables_number   1
_chemical_formula_structural   Cr11Fe16
_chemical_formula_sum   'Cr22 Fe32'
_cell_volume   600.30474404
_cell_formula_units_Z   2
loop_
 _symmetry_equiv_pos_site_id
 _symmetry_equiv_pos_as_xyz
  1  'x, y, z'
loop_
 _atom_site_type_symbol
 _atom_site_label
 _atom_site_symmetry_multiplicity
 _atom_site_fract_x
 _atom_site_fract_y
 _atom_site_fract_z
 _atom_site_occupancy
  Cr  Cr0  1  -0.00223408  0.99673101  0.99480785  1
  Cr  Cr1  1  0.16571610  0.16565609  0.16067560  1
  Cr  Cr2  1  -0.00252355  -0.00077249  0.33084109  1
  Cr  Cr3  1  0.99630571  0.32935823  0.99533850  1
  Fe  Fe4  1  0.16494194  0.49840896  0.16466207  1
  Fe  Fe5  1  0.99579479  0.33053827  0.32999821  1
  Fe  Fe6  1  0.99507155  0.66576149  0.99677863  1
  Fe  Fe7  1  0.16174106  0.82792570  0.16344986  1
  Fe  Fe8  1  -0.00160289  0.66465566  0.32884904  1
  Fe  Fe9  1  0.33056656  0.99671387  -0.00316419  1
  Fe  Fe10  1  0.49840014  0.16492010  0.16431144  1
  Cr  Cr11  1  0.32925284  0.99445070  0.32900325  1
  Fe  Fe12  1  0.33137987  0.32944821  -0.00250904  1
  Fe  Fe13  1  0.49452273  0.49459509  0.16391228  1
  Fe  Fe14  1  0.33031364  0.33073484  0.32842156  1
  Cr  Cr15  1  0.33328158  0.66532901  -0.00141677  1
  Fe  Fe16  1  0.49632200  0.83032418  0.16404220  1
  Fe  Fe17  1  0.32846430  0.66337995  0.32733348  1
  Cr  Cr18  1  0.66368478  0.99409433  0.00017989  1
  Fe  Fe19  1  0.82938319  0.16376563  0.16496727  1
  Fe  Fe20  1  0.66398742  -0.00214446  0.32730556  1
  Cr  Cr21  1  0.66484252  0.33262261  0.99617007  1
  Cr  Cr22  1  0.83379252  0.49945416  0.16270186  1
  Fe  Fe23  1  0.66493121  0.32800597  0.32825480  1
  Fe  Fe24  1  0.66582436  0.66478612  0.99665405  1
  Fe  Fe25  1  0.83200190  0.83142158  0.16414721  1
  Cr  Cr26  1  0.66090093  0.66264473  0.32728406  1
  Fe  Fe27  1  0.16273427  0.16297802  0.49620773  1
  Fe  Fe28  1  0.99545216  0.99561944  0.66454962  1
  Fe  Fe29  1  0.16312076  0.16190282  0.83071115  1
  Cr  Cr30  1  0.16184089  0.49908920  0.49307979  1
  Cr  Cr31  1  0.99439443  0.32821750  0.66289603  1
  Cr  Cr32  1  0.16182103  0.49792498  0.83339627  1
  Fe  Fe33  1  0.16338427  0.82944236  0.49735010  1
  Fe  Fe34  1  -0.00161413  0.66472652  0.66409498  1
  Fe  Fe35  1  0.16301128  0.82994611  0.83021639  1
  Cr  Cr36  1  0.49946436  0.16288019  0.49575629  1
  Cr  Cr37  1  0.32624598  0.99444143  0.66468848  1
  Cr  Cr38  1  0.49639915  0.16138139  0.83169358  1
  Cr  Cr39  1  0.49552886  0.49578660  0.49747213  1
  Cr  Cr40  1  0.32721906  0.32916700  0.66385487  1
  Cr  Cr41  1  0.49594891  0.49562266  0.82988177  1
  Cr  Cr42  1  0.49802398  0.83075753  0.49891994  1
  Fe  Fe43  1  0.32657864  0.66355785  0.66448866  1
  Fe  Fe44  1  0.49650374  0.83010084  0.83058397  1
  Fe  Fe45  1  0.82975307  0.16530374  0.49639502  1
  Fe  Fe46  1  0.66625491  -0.00137923  0.66532792  1
  Fe  Fe47  1  0.82945963  0.16201812  0.82886466  1
  Fe  Fe48  1  0.82872465  0.49599185  0.49540441  1
  Fe  Fe49  1  0.66506129  0.32782212  0.66396257  1
  Fe  Fe50  1  0.83073016  0.49821303  0.83056707  1
  Cr  Cr51  1  0.83130129  0.83089420  0.49648147  1
  Cr  Cr52  1  0.66300573  0.66146924  0.66685243  1
  Fe  Fe53  1  0.83086681  0.82959322  0.82958109  1
" 