2212,Fe41Cr59_6,-218.364493666309, 165.065326550665,Fe41Cr59,"# generated using pymatgen
 data_Cr11Fe16
_symmetry_space_group_name_H-M   'P 1'
_cell_length_a   7.51656065
_cell_length_b   7.51656065
_cell_length_c   10.63002201
_cell_angle_alpha   90.00000000
_cell_angle_beta   90.00000000
_cell_angle_gamma   90.00000000
_symmetry_Int_Tables_number   1
_chemical_formula_structural   Cr11Fe16
_chemical_formula_sum   'Cr22 Fe32'
_cell_volume   600.58225459
_cell_formula_units_Z   2
loop_
 _symmetry_equiv_pos_site_id
 _symmetry_equiv_pos_as_xyz
  1  'x, y, z'
loop_
 _atom_site_type_symbol
 _atom_site_label
 _atom_site_symmetry_multiplicity
 _atom_site_fract_x
 _atom_site_fract_y
 _atom_site_fract_z
 _atom_site_occupancy
  Fe  Fe0  1  0.99614857  -0.00256667  -0.00303884  1
  Cr  Cr1  1  0.16078167  0.16653627  0.16394776  1
  Fe  Fe2  1  -0.00177797  0.99615866  0.33094783  1
  Fe  Fe3  1  -0.00221202  0.33175886  -0.00273932  1
  Fe  Fe4  1  0.16194352  0.49776284  0.16339438  1
  Fe  Fe5  1  -0.00323387  0.33144432  0.33119384  1
  Cr  Cr6  1  -0.00095649  0.66533091  -0.00253209  1
  Fe  Fe7  1  0.16165196  0.83155017  0.16439718  1
  Fe  Fe8  1  0.99423783  0.66161844  0.32962883  1
  Cr  Cr9  1  0.32667815  0.99459285  -0.00301444  1
  Cr  Cr10  1  0.49454399  0.16123149  0.16384486  1
  Fe  Fe11  1  0.32725852  -0.00289605  0.33140609  1
  Cr  Cr12  1  0.33011254  0.33327757  0.99484478  1
  Fe  Fe13  1  0.49719253  0.49742495  0.16361999  1
  Cr  Cr14  1  0.33126375  0.33130895  0.33200189  1
  Fe  Fe15  1  0.33012016  0.66228043  -0.00274520  1
  Cr  Cr16  1  0.49657631  0.82831027  0.16372193  1
  Cr  Cr17  1  0.32450746  0.66393875  0.32782461  1
  Fe  Fe18  1  0.66533063  0.99488469  0.99665016  1
  Fe  Fe19  1  0.83122330  0.16332059  0.16293243  1
  Cr  Cr20  1  0.66553940  -0.00091832  0.33075632  1
  Cr  Cr21  1  0.66365846  0.32974376  -0.00070731  1
  Fe  Fe22  1  0.83166224  0.49560391  0.16411798  1
  Cr  Cr23  1  0.66512149  0.33050453  0.33154566  1
  Fe  Fe24  1  0.66333939  0.66149501  0.99644325  1
  Cr  Cr25  1  0.82870769  0.82858589  0.16298796  1
  Fe  Fe26  1  0.66366442  0.66126677  0.33009295  1
  Fe  Fe27  1  0.16083780  0.16330461  0.49543870  1
  Fe  Fe28  1  -0.00215561  -0.00276168  0.66338628  1
  Fe  Fe29  1  0.16223003  0.16368789  0.82986077  1
  Fe  Fe30  1  0.16099391  0.49842763  0.49741078  1
  Fe  Fe31  1  -0.00181097  0.32894078  0.66163583  1
  Fe  Fe32  1  0.16397117  0.49816077  0.82895705  1
  Fe  Fe33  1  0.16108401  0.82901299  0.49605719  1
  Fe  Fe34  1  -0.00049131  0.66356720  0.66364065  1
  Fe  Fe35  1  0.16158653  0.82986587  0.82859811  1
  Fe  Fe36  1  0.49590499  0.16287755  0.49617061  1
  Cr  Cr37  1  0.32784432  0.99615207  0.66033694  1
  Cr  Cr38  1  0.49577566  0.16185273  0.83099261  1
  Fe  Fe39  1  0.49653753  0.49931381  0.49650186  1
  Cr  Cr40  1  0.33034506  0.33138928  0.66326868  1
  Fe  Fe41  1  0.49771036  0.49734058  0.82943511  1
  Cr  Cr42  1  0.49614200  0.82909714  0.49474523  1
  Fe  Fe43  1  0.32900685  0.66296604  0.66289662  1
  Cr  Cr44  1  0.49736738  0.82698457  0.83100663  1
  Fe  Fe45  1  0.83420924  0.16326792  0.49686988  1
  Cr  Cr46  1  0.66582167  -0.00229574  0.66459690  1
  Cr  Cr47  1  0.83401275  0.16425887  0.83239077  1
  Fe  Fe48  1  0.83246732  0.49682409  0.49721005  1
  Cr  Cr49  1  0.66316331  0.32989401  0.65945632  1
  Cr  Cr50  1  0.83218206  0.49735861  0.82754628  1
  Cr  Cr51  1  0.83002754  0.82691790  0.49897924  1
  Fe  Fe52  1  0.66221824  0.66233022  0.66318286  1
  Fe  Fe53  1  0.83208034  0.82986022  0.83005035  1
" 