8986,Fe41Cr59_13,-218.17360603676, 162.042737951554,Fe41Cr59,"# generated using pymatgen
 data_Cr11Fe16
_symmetry_space_group_name_H-M   'P 1'
_cell_length_a   7.52256864
_cell_length_b   7.52256864
_cell_length_c   10.63851859
_cell_angle_alpha   90.00000000
_cell_angle_beta   90.00000000
_cell_angle_gamma   90.00000000
_symmetry_Int_Tables_number   1
_chemical_formula_structural   Cr11Fe16
_chemical_formula_sum   'Cr22 Fe32'
_cell_volume   602.02354227
_cell_formula_units_Z   2
loop_
 _symmetry_equiv_pos_site_id
 _symmetry_equiv_pos_as_xyz
  1  'x, y, z'
loop_
 _atom_site_type_symbol
 _atom_site_label
 _atom_site_symmetry_multiplicity
 _atom_site_fract_x
 _atom_site_fract_y
 _atom_site_fract_z
 _atom_site_occupancy
  Fe  Fe0  1  -0.00266062  -0.00311215  -0.00262708  1
  Fe  Fe1  1  0.16233485  0.16225718  0.16226215  1
  Fe  Fe2  1  -0.00293699  -0.00290958  0.33025004  1
  Fe  Fe3  1  -0.00298520  0.32903515  -0.00296600  1
  Fe  Fe4  1  0.16435778  0.49604890  0.16256665  1
  Cr  Cr5  1  -0.00298757  0.32780450  0.33050383  1
  Cr  Cr6  1  -0.00145688  0.66160602  0.99471827  1
  Fe  Fe7  1  0.16288994  0.83062977  0.16392739  1
  Cr  Cr8  1  -0.00142006  0.66447633  0.33027196  1
  Cr  Cr9  1  0.33008622  -0.00332461  0.99433655  1
  Fe  Fe10  1  0.49709325  0.16451308  0.16350015  1
  Fe  Fe11  1  0.32763209  0.99599051  0.32904170  1
  Fe  Fe12  1  0.32923232  0.33031578  -0.00207116  1
  Fe  Fe13  1  0.49598742  0.49498397  0.16327243  1
  Cr  Cr14  1  0.33001418  0.33152739  0.32896851  1
  Cr  Cr15  1  0.32747991  0.66159010  -0.00339678  1
  Cr  Cr16  1  0.49497086  0.82903780  0.16539068  1
  Fe  Fe17  1  0.32943266  0.66274669  0.32968244  1
  Cr  Cr18  1  0.66343608  -0.00168228  -0.00352604  1
  Fe  Fe19  1  0.82956948  0.16287683  0.16286554  1
  Fe  Fe20  1  0.66415270  -0.00232029  0.32977145  1
  Fe  Fe21  1  0.66269505  0.32976927  -0.00267763  1
  Cr  Cr22  1  0.82842925  0.49482734  0.16069099  1
  Fe  Fe23  1  0.66276344  0.32931780  0.32921326  1
  Cr  Cr24  1  0.66291017  0.66326839  0.99374556  1
  Cr  Cr25  1  0.83108038  0.83076221  0.16548679  1
  Fe  Fe26  1  0.66165198  0.66188041  0.33008330  1
  Fe  Fe27  1  0.16141744  0.16135487  0.49694614  1
  Fe  Fe28  1  -0.00186071  0.99579569  0.66143291  1
  Cr  Cr29  1  0.16282656  0.16249248  0.82916802  1
  Fe  Fe30  1  0.16369725  0.49689069  0.49674310  1
  Fe  Fe31  1  0.99582352  0.33012537  0.66226733  1
  Fe  Fe32  1  0.16079907  0.49591559  0.82951986  1
  Fe  Fe33  1  0.16198021  0.83074983  0.49634699  1
  Fe  Fe34  1  -0.00362543  0.66296384  0.66296267  1
  Fe  Fe35  1  0.16312583  0.82984568  0.82854857  1
  Cr  Cr36  1  0.49497117  0.16340799  0.49665913  1
  Fe  Fe37  1  0.32761323  0.99521347  0.66306686  1
  Cr  Cr38  1  0.49436142  0.16296294  0.82987495  1
  Fe  Fe39  1  0.49679049  0.49686766  0.49592971  1
  Cr  Cr40  1  0.32786433  0.33002168  0.66104439  1
  Cr  Cr41  1  0.49841068  0.49626698  0.82964716  1
  Cr  Cr42  1  0.49557940  0.82843783  0.49530354  1
  Cr  Cr43  1  0.32790718  0.66328909  0.66368868  1
  Fe  Fe44  1  0.49520774  0.82989530  0.82852250  1
  Fe  Fe45  1  0.83043042  0.16178839  0.49650852  1
  Cr  Cr46  1  0.66343097  0.99604184  0.66391656  1
  Cr  Cr47  1  0.83173955  0.16600428  0.83062303  1
  Cr  Cr48  1  0.82830408  0.49677357  0.49956765  1
  Fe  Fe49  1  0.66420858  0.33114261  0.66254082  1
  Fe  Fe50  1  0.83085711  0.49485430  0.82848407  1
  Fe  Fe51  1  0.83046672  0.83083800  0.49628456  1
  Fe  Fe52  1  0.66366522  0.66189789  0.66314647  1
  Cr  Cr53  1  0.83097922  0.82696957  0.82869477  1
" 