3161,Fe41Cr59_14,-218.222805925487, 162.846188124719,Fe41Cr59,"# generated using pymatgen
 data_Cr11Fe16
_symmetry_space_group_name_H-M   'P 1'
_cell_length_a   7.52457574
_cell_length_b   7.52457574
_cell_length_c   10.64135706
_cell_angle_alpha   90.00000000
_cell_angle_beta   90.00000000
_cell_angle_gamma   90.00000000
_symmetry_Int_Tables_number   1
_chemical_formula_structural   Cr11Fe16
_chemical_formula_sum   'Cr22 Fe32'
_cell_volume   602.50554993
_cell_formula_units_Z   2
loop_
 _symmetry_equiv_pos_site_id
 _symmetry_equiv_pos_as_xyz
  1  'x, y, z'
loop_
 _atom_site_type_symbol
 _atom_site_label
 _atom_site_symmetry_multiplicity
 _atom_site_fract_x
 _atom_site_fract_y
 _atom_site_fract_z
 _atom_site_occupancy
  Fe  Fe0  1  0.99506188  -0.00263743  0.99493205  1
  Cr  Cr1  1  0.16084314  0.16224323  0.16339012  1
  Fe  Fe2  1  0.99530262  -0.00327547  0.33145680  1
  Fe  Fe3  1  -0.00374348  0.32955854  0.99492188  1
  Cr  Cr4  1  0.16311749  0.49862012  0.16323777  1
  Fe  Fe5  1  0.99540884  0.33030242  0.33139342  1
  Cr  Cr6  1  0.99428253  0.66143376  0.99559177  1
  Cr  Cr7  1  0.16242308  0.82761446  0.16485818  1
  Fe  Fe8  1  0.99595788  0.66153807  0.33052485  1
  Cr  Cr9  1  0.32941862  -0.00340885  -0.00362389  1
  Fe  Fe10  1  0.49633344  0.16202362  0.16474828  1
  Fe  Fe11  1  0.33033350  -0.00332722  0.32994729  1
  Cr  Cr12  1  0.32750503  0.32768101  0.99484925  1
  Cr  Cr13  1  0.49512537  0.49455563  0.16424958  1
  Fe  Fe14  1  0.32956215  0.32962313  0.33052961  1
  Fe  Fe15  1  0.32971754  0.66251749  0.99505412  1
  Cr  Cr16  1  0.49439612  0.82998225  0.16198066  1
  Fe  Fe17  1  0.32926606  0.66217148  0.33126196  1
  Fe  Fe18  1  0.66329254  0.99555959  0.99565627  1
  Cr  Cr19  1  0.82755684  0.16323776  0.16291920  1
  Fe  Fe20  1  0.66281307  -0.00291052  0.33061468  1
  Cr  Cr21  1  0.66425729  0.33085484  -0.00004802  1
  Fe  Fe22  1  0.83094582  0.49546415  0.16420390  1
  Fe  Fe23  1  0.66349421  0.32895853  0.33014874  1
  Cr  Cr24  1  0.66391996  0.66352571  0.99462884  1
  Cr  Cr25  1  0.83175645  0.83225368  0.16255079  1
  Cr  Cr26  1  0.66418806  0.66163414  0.33097501  1
  Fe  Fe27  1  0.16298129  0.16385872  0.49480332  1
  Cr  Cr28  1  -0.00262795  -0.00365372  0.66222121  1
  Fe  Fe29  1  0.16302213  0.16388510  0.82957430  1
  Fe  Fe30  1  0.16362650  0.49535078  0.49540629  1
  Cr  Cr31  1  -0.00092852  0.33041113  0.66380522  1
  Fe  Fe32  1  0.16219652  0.49529478  0.82910726  1
  Cr  Cr33  1  0.16224921  0.82736055  0.49274022  1
  Fe  Fe34  1  0.99490598  0.66172223  0.66292742  1
  Cr  Cr35  1  0.16279668  0.82732241  0.83101391  1
  Cr  Cr36  1  0.49772764  0.16388511  0.49543795  1
  Fe  Fe37  1  0.33048458  -0.00362783  0.66284988  1
  Cr  Cr38  1  0.49757776  0.16202061  0.82892235  1
  Fe  Fe39  1  0.49467685  0.49760741  0.49616286  1
  Fe  Fe40  1  0.32777012  0.32973610  0.66233237  1
  Cr  Cr41  1  0.49403837  0.49790939  0.82730684  1
  Fe  Fe42  1  0.49664628  0.82903484  0.49661963  1
  Fe  Fe43  1  0.32964826  0.66229497  0.66207789  1
  Fe  Fe44  1  0.49743632  0.82978342  0.82842931  1
  Fe  Fe45  1  0.83042832  0.16216227  0.49451575  1
  Fe  Fe46  1  0.66258959  0.99368335  0.66221440  1
  Cr  Cr47  1  0.82967250  0.16133780  0.83204047  1
  Fe  Fe48  1  0.83032944  0.49671610  0.49565483  1
  Cr  Cr49  1  0.66315731  0.33250021  0.66051302  1
  Fe  Fe50  1  0.83101449  0.49763264  0.82881249  1
  Fe  Fe51  1  0.82824595  0.82977053  0.49606246  1
  Fe  Fe52  1  0.66385745  0.66476366  0.66217429  1
  Fe  Fe53  1  0.82751603  0.82901844  0.82889605  1
" 