2732,Fe41Cr59_18,-218.196015255895, 158.619392813384,Fe41Cr59,"# generated using pymatgen
 data_Cr11Fe16
_symmetry_space_group_name_H-M   'P 1'
_cell_length_a   7.52706713
_cell_length_b   7.52706713
_cell_length_c   10.64488043
_cell_angle_alpha   90.00000000
_cell_angle_beta   90.00000000
_cell_angle_gamma   90.00000000
_symmetry_Int_Tables_number   1
_chemical_formula_structural   Cr11Fe16
_chemical_formula_sum   'Cr22 Fe32'
_cell_volume   603.10421867
_cell_formula_units_Z   2
loop_
 _symmetry_equiv_pos_site_id
 _symmetry_equiv_pos_as_xyz
  1  'x, y, z'
loop_
 _atom_site_type_symbol
 _atom_site_label
 _atom_site_symmetry_multiplicity
 _atom_site_fract_x
 _atom_site_fract_y
 _atom_site_fract_z
 _atom_site_occupancy
  Fe  Fe0  1  -0.00364045  0.99454112  -0.00389795  1
  Cr  Cr1  1  0.16312377  0.16248927  0.16226623  1
  Cr  Cr2  1  -0.00210659  0.99600244  0.33076994  1
  Cr  Cr3  1  0.99508078  0.32762182  -0.00335273  1
  Cr  Cr4  1  0.16307805  0.49529339  0.16437851  1
  Cr  Cr5  1  0.99191387  0.32614584  0.33076110  1
  Cr  Cr6  1  -0.00286147  0.66531190  0.99526081  1
  Fe  Fe7  1  0.16505665  0.83057956  0.16282520  1
  Cr  Cr8  1  -0.00386772  0.66530940  0.32949082  1
  Fe  Fe9  1  0.32971843  -0.00183730  0.99506270  1
  Fe  Fe10  1  0.49478852  0.16043082  0.16318172  1
  Fe  Fe11  1  0.33105729  -0.00280242  0.32942282  1
  Fe  Fe12  1  0.32915973  0.32899169  0.99416167  1
  Cr  Cr13  1  0.49214860  0.49739672  0.16443097  1
  Fe  Fe14  1  0.32922358  0.32692817  0.33083336  1
  Cr  Cr15  1  0.32933667  0.66406366  0.99494539  1
  Fe  Fe16  1  0.49468129  0.83304996  0.16336673  1
  Fe  Fe17  1  0.32858305  0.66495240  0.33001257  1
  Fe  Fe18  1  0.66291154  0.99520717  -0.00232274  1
  Fe  Fe19  1  0.82760373  0.15846201  0.16242407  1
  Fe  Fe20  1  0.66425380  -0.00357324  0.32862089  1
  Cr  Cr21  1  0.65964886  0.32790229  -0.00174830  1
  Cr  Cr22  1  0.83081942  0.49534108  0.16333790  1
  Cr  Cr23  1  0.66079419  0.32710329  0.32953755  1
  Cr  Cr24  1  0.66254616  0.66177331  -0.00367265  1
  Fe  Fe25  1  0.82907674  0.83211983  0.16239805  1
  Cr  Cr26  1  0.66160766  0.66138827  0.32864988  1
  Fe  Fe27  1  0.16479675  0.16211406  0.49562457  1
  Cr  Cr28  1  -0.00257176  0.99532401  0.66154991  1
  Fe  Fe29  1  0.16396321  0.16323340  0.83034905  1
  Cr  Cr30  1  0.16174055  0.49415484  0.49404869  1
  Fe  Fe31  1  -0.00209462  0.32822183  0.66147269  1
  Fe  Fe32  1  0.16355720  0.49405169  0.82831684  1
  Fe  Fe33  1  0.16400453  0.82905223  0.49599008  1
  Fe  Fe34  1  -0.00322422  0.66304233  0.66140469  1
  Fe  Fe35  1  0.16142042  0.83088121  0.82935388  1
  Fe  Fe36  1  0.49530705  0.16446998  0.49637843  1
  Cr  Cr37  1  0.32837975  -0.00212165  0.66269435  1
  Fe  Fe38  1  0.49553819  0.16477442  0.82909056  1
  Fe  Fe39  1  0.49574296  0.49509049  0.49668009  1
  Fe  Fe40  1  0.32927043  0.32916166  0.66294409  1
  Fe  Fe41  1  0.49651341  0.49385360  0.82822904  1
  Cr  Cr42  1  0.49748314  0.83171261  0.49385554  1
  Cr  Cr43  1  0.33018828  0.66302222  0.66369758  1
  Cr  Cr44  1  0.49921324  0.83235211  0.82956335  1
  Fe  Fe45  1  0.82708128  0.16191209  0.49819163  1
  Fe  Fe46  1  0.66283887  -0.00306694  0.66166144  1
  Cr  Cr47  1  0.82916146  0.16060575  0.83028580  1
  Fe  Fe48  1  0.82725120  0.49623674  0.49868228  1
  Fe  Fe49  1  0.66073954  0.32826686  0.66135781  1
  Cr  Cr50  1  0.83097980  0.49601394  0.82575133  1
  Fe  Fe51  1  0.82954209  0.82881929  0.49709479  1
  Fe  Fe52  1  0.66374933  0.66378018  0.66123784  1
  Fe  Fe53  1  0.83039846  0.82955529  0.82805584  1
" 