5783,Fe41Cr59_15,-218.332603616625, 159.385598597501,Fe41Cr59,"# generated using pymatgen
 data_Cr11Fe16
_symmetry_space_group_name_H-M   'P 1'
_cell_length_a   7.52803185
_cell_length_b   7.52803185
_cell_length_c   10.64624474
_cell_angle_alpha   90.00000000
_cell_angle_beta   90.00000000
_cell_angle_gamma   90.00000000
_symmetry_Int_Tables_number   1
_chemical_formula_structural   Cr11Fe16
_chemical_formula_sum   'Cr22 Fe32'
_cell_volume   603.33614112
_cell_formula_units_Z   2
loop_
 _symmetry_equiv_pos_site_id
 _symmetry_equiv_pos_as_xyz
  1  'x, y, z'
loop_
 _atom_site_type_symbol
 _atom_site_label
 _atom_site_symmetry_multiplicity
 _atom_site_fract_x
 _atom_site_fract_y
 _atom_site_fract_z
 _atom_site_occupancy
  Fe  Fe0  1  -0.00298498  0.99287776  -0.00165063  1
  Fe  Fe1  1  0.16220256  0.16334101  0.15921306  1
  Cr  Cr2  1  -0.00249010  -0.00399063  0.32485516  1
  Fe  Fe3  1  0.99445851  0.33174202  -0.00167496  1
  Fe  Fe4  1  0.16177437  0.49673705  0.16166856  1
  Cr  Cr5  1  0.99400754  0.32961228  0.32840460  1
  Fe  Fe6  1  0.99546376  0.66301578  -0.00301817  1
  Fe  Fe7  1  0.16391963  0.82924685  0.16127258  1
  Fe  Fe8  1  -0.00316004  0.66241207  0.32723792  1
  Fe  Fe9  1  0.32933707  0.99431000  -0.00365412  1
  Cr  Cr10  1  0.49560780  0.16311945  0.16020606  1
  Fe  Fe11  1  0.33008746  0.99591931  0.32743196  1
  Fe  Fe12  1  0.32841230  0.33003801  -0.00200369  1
  Fe  Fe13  1  0.49679704  0.49602118  0.16222719  1
  Cr  Cr14  1  0.32849593  0.33140760  0.32904717  1
  Cr  Cr15  1  0.32885821  0.66250124  0.99538682  1
  Fe  Fe16  1  0.49613598  0.82974652  0.16245672  1
  Cr  Cr17  1  0.33263915  0.66463467  0.32914636  1
  Cr  Cr18  1  0.66377255  0.99346664  0.99166786  1
  Fe  Fe19  1  0.82883686  0.16281324  0.15985928  1
  Cr  Cr20  1  0.66266128  0.99308740  0.32991312  1
  Fe  Fe21  1  0.66335071  0.32985592  -0.00353098  1
  Fe  Fe22  1  0.82902557  0.49528227  0.16252548  1
  Fe  Fe23  1  0.66153073  0.33035907  0.32839518  1
  Cr  Cr24  1  0.66262670  0.66316163  -0.00167498  1
  Fe  Fe25  1  0.83006641  0.82811100  0.16230266  1
  Fe  Fe26  1  0.66528020  0.65956303  0.32724860  1
  Cr  Cr27  1  0.16350979  0.16208672  0.49278691  1
  Cr  Cr28  1  -0.00386252  0.99544226  0.66314748  1
  Cr  Cr29  1  0.16332784  0.16356533  0.83464871  1
  Cr  Cr30  1  0.16272750  0.50105481  0.49932691  1
  Cr  Cr31  1  0.99547602  0.33067670  0.66247981  1
  Fe  Fe32  1  0.15911593  0.49744745  0.83066159  1
  Fe  Fe33  1  0.16342830  0.82980156  0.49484046  1
  Fe  Fe34  1  -0.00330017  0.66307732  0.66541069  1
  Fe  Fe35  1  0.16196276  0.82865101  0.83044936  1
  Fe  Fe36  1  0.49577035  0.16230933  0.49437475  1
  Cr  Cr37  1  0.33034891  0.99508827  0.66116371  1
  Fe  Fe38  1  0.49491885  0.16210315  0.83073741  1
  Fe  Fe39  1  0.49839109  0.49744632  0.49553288  1
  Cr  Cr40  1  0.32873669  0.33029978  0.66303045  1
  Cr  Cr41  1  0.49391825  0.49469687  0.83176700  1
  Fe  Fe42  1  0.49557008  0.82857083  0.49612119  1
  Fe  Fe43  1  0.32789178  0.66424814  0.66486775  1
  Fe  Fe44  1  0.49435861  0.83070433  0.82892908  1
  Cr  Cr45  1  0.82692694  0.16125972  0.49548326  1
  Fe  Fe46  1  0.66119203  0.99543913  0.66386083  1
  Cr  Cr47  1  0.82868083  0.16136865  0.83033761  1
  Fe  Fe48  1  0.82831193  0.49666994  0.49469177  1
  Cr  Cr49  1  0.66226146  0.32887105  0.66136624  1
  Fe  Fe50  1  0.83032683  0.49607345  0.83145900  1
  Cr  Cr51  1  0.83086805  0.82602844  0.49642122  1
  Cr  Cr52  1  0.66171793  0.66357911  0.66454499  1
  Fe  Fe53  1  0.83198498  0.82632222  0.82957437  1
" 