3739,Fe41Cr59_4,-218.465467734552, 160.331108019661,Fe41Cr59,"# generated using pymatgen
 data_Cr11Fe16
_symmetry_space_group_name_H-M   'P 1'
_cell_length_a   7.52176262
_cell_length_b   7.52176262
_cell_length_c   10.63737872
_cell_angle_alpha   90.00000000
_cell_angle_beta   90.00000000
_cell_angle_gamma   90.00000000
_symmetry_Int_Tables_number   1
_chemical_formula_structural   Cr11Fe16
_chemical_formula_sum   'Cr22 Fe32'
_cell_volume   601.83004984
_cell_formula_units_Z   2
loop_
 _symmetry_equiv_pos_site_id
 _symmetry_equiv_pos_as_xyz
  1  'x, y, z'
loop_
 _atom_site_type_symbol
 _atom_site_label
 _atom_site_symmetry_multiplicity
 _atom_site_fract_x
 _atom_site_fract_y
 _atom_site_fract_z
 _atom_site_occupancy
  Fe  Fe0  1  0.99334957  -0.00240264  -0.00348788  1
  Cr  Cr1  1  0.16430909  0.16310697  0.16190201  1
  Cr  Cr2  1  0.99505515  -0.00250078  0.32954023  1
  Fe  Fe3  1  0.99506248  0.32932289  -0.00352045  1
  Fe  Fe4  1  0.16414700  0.49445228  0.16201820  1
  Cr  Cr5  1  -0.00265716  0.32936640  0.33104016  1
  Cr  Cr6  1  -0.00361402  0.66319984  -0.00300710  1
  Cr  Cr7  1  0.16331496  0.83201266  0.16214371  1
  Cr  Cr8  1  -0.00290959  0.66238750  0.32965669  1
  Fe  Fe9  1  0.33161656  -0.00313831  -0.00355328  1
  Fe  Fe10  1  0.49706237  0.16283991  0.16124823  1
  Fe  Fe11  1  0.33085413  -0.00168412  0.33081668  1
  Fe  Fe12  1  0.33062512  0.33016242  -0.00296697  1
  Fe  Fe13  1  0.49475649  0.49421813  0.16206230  1
  Fe  Fe14  1  0.32995380  0.32814461  0.32977573  1
  Cr  Cr15  1  0.33082494  0.66216312  0.99524197  1
  Fe  Fe16  1  0.49782957  0.83168675  0.16125278  1
  Cr  Cr17  1  0.32940299  0.66298622  0.32839841  1
  Fe  Fe18  1  0.66419381  0.99578814  -0.00249503  1
  Fe  Fe19  1  0.82879139  0.16175466  0.16082989  1
  Cr  Cr20  1  0.66165715  -0.00270738  0.33198696  1
  Fe  Fe21  1  0.66315358  0.33042981  -0.00361298  1
  Cr  Cr22  1  0.82744827  0.49564087  0.16364431  1
  Cr  Cr23  1  0.66287141  0.32713698  0.33006543  1
  Fe  Fe24  1  0.66324468  0.66298588  0.99621343  1
  Fe  Fe25  1  0.82785480  0.83230942  0.16154675  1
  Cr  Cr26  1  0.66255314  0.66461473  0.32837563  1
  Fe  Fe27  1  0.16392325  0.16523076  0.49714729  1
  Fe  Fe28  1  0.99242785  -0.00231458  0.66222054  1
  Cr  Cr29  1  0.16181389  0.16256113  0.83044367  1
  Fe  Fe30  1  0.16301737  0.49503747  0.49886645  1
  Fe  Fe31  1  0.99631621  0.32905226  0.66129286  1
  Cr  Cr32  1  0.16244421  0.49534656  0.82703678  1
  Cr  Cr33  1  0.16229324  0.82996034  0.49761015  1
  Fe  Fe34  1  0.99511181  0.66227987  0.66237574  1
  Cr  Cr35  1  0.16154309  0.83118737  0.82859770  1
  Fe  Fe36  1  0.49480115  0.16220269  0.49702431  1
  Cr  Cr37  1  0.33037211  -0.00273111  0.66189441  1
  Cr  Cr38  1  0.49719363  0.16395563  0.83066847  1
  Cr  Cr39  1  0.49743483  0.49539673  0.49686037  1
  Fe  Fe40  1  0.32910007  0.32989613  0.66210483  1
  Fe  Fe41  1  0.49681762  0.49536301  0.82996226  1
  Fe  Fe42  1  0.49696489  0.83010043  0.49720075  1
  Fe  Fe43  1  0.32954689  0.66127994  0.66247531  1
  Cr  Cr44  1  0.49746989  0.82992377  0.82869046  1
  Fe  Fe45  1  0.83061239  0.16238961  0.49840312  1
  Fe  Fe46  1  0.66533560  -0.00332868  0.66168297  1
  Fe  Fe47  1  0.83053027  0.16182343  0.83069033  1
  Fe  Fe48  1  0.83139090  0.49686424  0.49759065  1
  Cr  Cr49  1  0.66464972  0.32782473  0.66408187  1
  Fe  Fe50  1  0.82914664  0.49552051  0.83098175  1
  Fe  Fe51  1  0.82895365  0.82978632  0.49802518  1
  Cr  Cr52  1  0.66360131  0.66297945  0.66460624  1
  Fe  Fe53  1  0.83003169  0.83173091  0.82994558  1
" 