29,Fe41Cr59_5,-218.395172933894, 163.666821421728,Fe41Cr59,"# generated using pymatgen
 data_Cr11Fe16
_symmetry_space_group_name_H-M   'P 1'
_cell_length_a   7.52806473
_cell_length_b   7.52806473
_cell_length_c   10.64629124
_cell_angle_alpha   90.00000000
_cell_angle_beta   90.00000000
_cell_angle_gamma   90.00000000
_symmetry_Int_Tables_number   1
_chemical_formula_structural   Cr11Fe16
_chemical_formula_sum   'Cr22 Fe32'
_cell_volume   603.34404628
_cell_formula_units_Z   2
loop_
 _symmetry_equiv_pos_site_id
 _symmetry_equiv_pos_as_xyz
  1  'x, y, z'
loop_
 _atom_site_type_symbol
 _atom_site_label
 _atom_site_symmetry_multiplicity
 _atom_site_fract_x
 _atom_site_fract_y
 _atom_site_fract_z
 _atom_site_occupancy
  Fe  Fe0  1  0.99489230  -0.00391799  -0.00301196  1
  Fe  Fe1  1  0.16170076  0.16444385  0.16248431  1
  Cr  Cr2  1  0.99434643  -0.00294784  0.32979095  1
  Fe  Fe3  1  -0.00312997  0.32928350  -0.00314694  1
  Fe  Fe4  1  0.16271943  0.49515923  0.16272872  1
  Fe  Fe5  1  -0.00333645  0.32884201  0.32883433  1
  Fe  Fe6  1  -0.00210275  0.66247337  -0.00405260  1
  Cr  Cr7  1  0.16127238  0.82811721  0.16087325  1
  Fe  Fe8  1  0.99512928  0.66183101  0.32837057  1
  Cr  Cr9  1  0.32939218  -0.00398490  0.99405448  1
  Fe  Fe10  1  0.49685691  0.16352387  0.16364234  1
  Cr  Cr11  1  0.32804837  -0.00092385  0.33054163  1
  Cr  Cr12  1  0.32872284  0.33043762  -0.00140389  1
  Fe  Fe13  1  0.49493070  0.49515978  0.16340860  1
  Fe  Fe14  1  0.32915921  0.32915193  0.32836331  1
  Fe  Fe15  1  0.32803747  0.66202093  0.99560784  1
  Cr  Cr16  1  0.49774505  0.83039919  0.16268090  1
  Cr  Cr17  1  0.33080123  0.65910360  0.32897071  1
  Fe  Fe18  1  0.66294696  -0.00346663  -0.00360157  1
  Fe  Fe19  1  0.82927604  0.16144274  0.16246964  1
  Fe  Fe20  1  0.66340678  -0.00328016  0.32836256  1
  Cr  Cr21  1  0.66207630  0.32749335  0.99529152  1
  Cr  Cr22  1  0.83109408  0.49585586  0.16324046  1
  Fe  Fe23  1  0.66201954  0.32872350  0.32870703  1
  Cr  Cr24  1  0.66288371  0.66401071  -0.00327170  1
  Fe  Fe25  1  0.82928369  0.83017520  0.16262854  1
  Fe  Fe26  1  0.66311009  0.66239854  0.32870290  1
  Fe  Fe27  1  0.16111545  0.16296001  0.49654647  1
  Fe  Fe28  1  -0.00348533  -0.00346431  0.66202434  1
  Cr  Cr29  1  0.16233050  0.16203677  0.82850630  1
  Cr  Cr30  1  0.16147824  0.49467048  0.49513405  1
  Fe  Fe31  1  0.99549191  0.32881944  0.66214840  1
  Fe  Fe32  1  0.16144672  0.49776158  0.82916760  1
  Cr  Cr33  1  0.16309674  0.83040047  0.49847044  1
  Fe  Fe34  1  -0.00303360  0.66248396  0.66352060  1
  Fe  Fe35  1  0.16294552  0.82777260  0.82881681  1
  Cr  Cr36  1  0.49611444  0.16278747  0.49596306  1
  Fe  Fe37  1  0.32928802  0.99505605  0.66353525  1
  Fe  Fe38  1  0.49710483  0.16077953  0.82823922  1
  Fe  Fe39  1  0.49688633  0.49619418  0.49608021  1
  Cr  Cr40  1  0.32974247  0.32927195  0.66185940  1
  Cr  Cr41  1  0.49538864  0.49694953  0.82782381  1
  Cr  Cr42  1  0.49614433  0.82922750  0.49733309  1
  Fe  Fe43  1  0.32928227  0.66351468  0.66340700  1
  Fe  Fe44  1  0.49516782  0.83034180  0.82835722  1
  Fe  Fe45  1  0.82985967  0.16295514  0.49655542  1
  Fe  Fe46  1  0.66203751  -0.00346821  0.66308385  1
  Cr  Cr47  1  0.82833628  0.16364347  0.82896009  1
  Cr  Cr48  1  0.82858074  0.49469467  0.49724169  1
  Fe  Fe49  1  0.66306776  0.32882708  0.66227774  1
  Cr  Cr50  1  0.83180520  0.49469948  0.82735502  1
  Cr  Cr51  1  0.82860055  0.82873530  0.49422506  1
  Fe  Fe52  1  0.66159371  0.66248177  0.66272530  1
  Cr  Cr53  1  0.82948798  0.82949929  0.83053395  1
" 