3874,Fe41Cr59_12,-218.088723285385, 162.261797189551,Fe41Cr59,"# generated using pymatgen
 data_Cr11Fe16
_symmetry_space_group_name_H-M   'P 1'
_cell_length_a   7.51278636
_cell_length_b   7.51278636
_cell_length_c   10.62468436
_cell_angle_alpha   90.00000000
_cell_angle_beta   90.00000000
_cell_angle_gamma   90.00000000
_symmetry_Int_Tables_number   1
_chemical_formula_structural   Cr11Fe16
_chemical_formula_sum   'Cr22 Fe32'
_cell_volume   599.67799762
_cell_formula_units_Z   2
loop_
 _symmetry_equiv_pos_site_id
 _symmetry_equiv_pos_as_xyz
  1  'x, y, z'
loop_
 _atom_site_type_symbol
 _atom_site_label
 _atom_site_symmetry_multiplicity
 _atom_site_fract_x
 _atom_site_fract_y
 _atom_site_fract_z
 _atom_site_occupancy
  Fe  Fe0  1  -0.00262861  0.99570920  0.99618168  1
  Fe  Fe1  1  0.16483534  0.16125941  0.16282503  1
  Cr  Cr2  1  -0.00182366  -0.00137325  0.33203454  1
  Cr  Cr3  1  0.99625860  0.32933289  -0.00079160  1
  Cr  Cr4  1  0.16447970  0.49848174  0.16447913  1
  Cr  Cr5  1  -0.00127216  0.32895035  0.32994976  1
  Cr  Cr6  1  0.99592230  0.66388685  0.99410515  1
  Cr  Cr7  1  0.16630712  0.83057504  0.16296525  1
  Fe  Fe8  1  -0.00061188  0.66300786  0.33151489  1
  Fe  Fe9  1  0.33009488  0.99388870  0.99601262  1
  Cr  Cr10  1  0.49502264  0.16251402  0.16296231  1
  Fe  Fe11  1  0.33112395  -0.00294943  0.33092706  1
  Cr  Cr12  1  0.33125613  0.33062785  0.99657471  1
  Fe  Fe13  1  0.49636287  0.49842677  0.16284243  1
  Cr  Cr14  1  0.32959048  0.32926127  0.33428725  1
  Fe  Fe15  1  0.33145581  0.66506241  0.99468966  1
  Fe  Fe16  1  0.49438643  0.82982707  0.16432421  1
  Fe  Fe17  1  0.32895744  0.66387479  0.33155555  1
  Cr  Cr18  1  0.66234614  0.99513992  0.99685314  1
  Cr  Cr19  1  0.82952193  0.16417830  0.16209646  1
  Fe  Fe20  1  0.66177083  -0.00076568  0.33063077  1
  Fe  Fe21  1  0.66334412  0.33178633  0.99530892  1
  Fe  Fe22  1  0.82914092  0.49758896  0.16333531  1
  Cr  Cr23  1  0.66260233  0.33008514  0.32873312  1
  Cr  Cr24  1  0.66110848  0.66399379  0.99619971  1
  Cr  Cr25  1  0.83112757  0.82989597  0.16641090  1
  Cr  Cr26  1  0.66094161  0.66500662  0.32740853  1
  Fe  Fe27  1  0.16529074  0.16101085  0.49928698  1
  Fe  Fe28  1  -0.00221104  -0.00293001  0.66377240  1
  Cr  Cr29  1  0.16476651  0.16201281  0.83290971  1
  Fe  Fe30  1  0.16563275  0.49918698  0.49673070  1
  Cr  Cr31  1  -0.00115631  0.32867533  0.66192005  1
  Fe  Fe32  1  0.16479083  0.49697033  0.83047035  1
  Fe  Fe33  1  0.16471496  0.83036993  0.49642887  1
  Cr  Cr34  1  -0.00211391  0.66509750  0.66442902  1
  Fe  Fe35  1  0.16492983  0.83111684  0.83104278  1
  Fe  Fe36  1  0.49804990  0.16384010  0.49882878  1
  Fe  Fe37  1  0.32973659  -0.00187353  0.66354228  1
  Fe  Fe38  1  0.49854966  0.16367039  0.82889899  1
  Fe  Fe39  1  0.49679702  0.49660590  0.49850963  1
  Fe  Fe40  1  0.33207651  0.32910389  0.66309722  1
  Fe  Fe41  1  0.49752660  0.49536038  0.82940052  1
  Cr  Cr42  1  0.49676390  0.83217635  0.49494178  1
  Cr  Cr43  1  0.33128013  0.66319129  0.66478699  1
  Fe  Fe44  1  0.49571706  0.83180913  0.82899738  1
  Fe  Fe45  1  0.82775171  0.16247385  0.49820884  1
  Fe  Fe46  1  0.66351809  -0.00210622  0.66538128  1
  Fe  Fe47  1  0.82855885  0.16326295  0.82968835  1
  Cr  Cr48  1  0.82991360  0.49756601  0.49536621  1
  Fe  Fe49  1  0.66160261  0.33018226  0.66398622  1
  Fe  Fe50  1  0.82846251  0.49510759  0.82891603  1
  Cr  Cr51  1  0.82991876  0.83078676  0.49743212  1
  Fe  Fe52  1  0.66307745  0.66311545  0.66564000  1
  Fe  Fe53  1  0.83005411  0.83256476  0.82859080  1
" 