4419,Fe42Cr58_1,-218.18679546455, 167.355625367938,Fe42Cr58,"# generated using pymatgen
 data_Cr11Fe16
_symmetry_space_group_name_H-M   'P 1'
_cell_length_a   7.50698619
_cell_length_b   7.50698619
_cell_length_c   10.61648169
_cell_angle_alpha   90.00000000
_cell_angle_beta   90.00000000
_cell_angle_gamma   90.00000000
_symmetry_Int_Tables_number   1
_chemical_formula_structural   Cr11Fe16
_chemical_formula_sum   'Cr22 Fe32'
_cell_volume   598.29014502
_cell_formula_units_Z   2
loop_
 _symmetry_equiv_pos_site_id
 _symmetry_equiv_pos_as_xyz
  1  'x, y, z'
loop_
 _atom_site_type_symbol
 _atom_site_label
 _atom_site_symmetry_multiplicity
 _atom_site_fract_x
 _atom_site_fract_y
 _atom_site_fract_z
 _atom_site_occupancy
  Fe  Fe0  1  0.99569064  0.99642923  -0.00163725  1
  Cr  Cr1  1  0.16663842  0.16486143  0.16241793  1
  Fe  Fe2  1  0.99696933  0.99670760  0.33147780  1
  Cr  Cr3  1  0.99670433  0.33201622  0.99648546  1
  Fe  Fe4  1  0.16288221  0.49662281  0.16571878  1
  Fe  Fe5  1  -0.00237259  0.33263218  0.33107692  1
  Fe  Fe6  1  0.99577793  0.66498404  -0.00120838  1
  Cr  Cr7  1  0.16115171  0.83130113  0.16429224  1
  Fe  Fe8  1  -0.00093995  0.66249708  0.33152385  1
  Fe  Fe9  1  0.33271898  -0.00211895  -0.00206234  1
  Fe  Fe10  1  0.49718277  0.16411819  0.16569528  1
  Cr  Cr11  1  0.33397922  0.99675995  0.33147388  1
  Fe  Fe12  1  0.33521066  0.32838373  0.99670960  1
  Cr  Cr13  1  0.49863900  0.49425533  0.16400857  1
  Fe  Fe14  1  0.33092033  0.33218917  0.33243169  1
  Cr  Cr15  1  0.32891237  0.66469592  -0.00133044  1
  Fe  Fe16  1  0.49707006  0.83167365  0.16537543  1
  Fe  Fe17  1  0.32932502  0.66206880  0.33165489  1
  Cr  Cr18  1  0.66263723  -0.00110789  0.00103205  1
  Cr  Cr19  1  0.83009433  0.16422375  0.16776768  1
  Fe  Fe20  1  0.66448106  -0.00103996  0.33140229  1
  Fe  Fe21  1  0.66243188  0.33006099  0.99664137  1
  Fe  Fe22  1  0.83303855  0.49831570  0.16493119  1
  Fe  Fe23  1  0.66315739  0.32988548  0.33305086  1
  Cr  Cr24  1  0.66365570  0.66600888  0.99612287  1
  Fe  Fe25  1  0.83044679  0.82933756  0.16569148  1
  Cr  Cr26  1  0.66422007  0.66584989  0.33103365  1
  Cr  Cr27  1  0.16321224  0.16336787  0.49866136  1
  Fe  Fe28  1  0.99638710  -0.00083328  0.66255215  1
  Cr  Cr29  1  0.16550371  0.16124196  0.83076063  1
  Fe  Fe30  1  0.16311436  0.49724045  0.49430876  1
  Fe  Fe31  1  0.99632132  0.32862671  0.66374901  1
  Cr  Cr32  1  0.16510467  0.49664600  0.83287039  1
  Fe  Fe33  1  0.16397583  0.83015073  0.49541689  1
  Cr  Cr34  1  -0.00103919  0.66070878  0.66251809  1
  Cr  Cr35  1  0.16366371  0.83436852  0.82929265  1
  Fe  Fe36  1  0.49923697  0.16507264  0.49590653  1
  Fe  Fe37  1  0.33235039  -0.00229106  0.66162983  1
  Fe  Fe38  1  0.49812831  0.16359982  0.83204143  1
  Fe  Fe39  1  0.49828474  0.49615463  0.49523455  1
  Cr  Cr40  1  0.33034242  0.33185460  0.66395961  1
  Fe  Fe41  1  0.49602225  0.49739619  0.83111082  1
  Fe  Fe42  1  0.49651936  0.83133255  0.49645028  1
  Cr  Cr43  1  0.33170690  0.66545303  0.65991716  1
  Fe  Fe44  1  0.49599643  0.83197180  0.82965719  1
  Fe  Fe45  1  0.83042533  0.16551588  0.49424440  1
  Cr  Cr46  1  0.66294182  -0.00182824  0.66262803  1
  Fe  Fe47  1  0.83137617  0.16274797  0.83162485  1
  Fe  Fe48  1  0.83153238  0.49442827  0.49624707  1
  Cr  Cr49  1  0.66581953  0.32871301  0.66457588  1
  Cr  Cr50  1  0.82558307  0.49824599  0.82965798  1
  Cr  Cr51  1  0.83092487  0.83056990  0.49706882  1
  Fe  Fe52  1  0.66186602  0.66311163  0.66189288  1
  Cr  Cr53  1  0.83043073  0.83117666  0.83060035  1
" 