8380,Fe42Cr58_18,-218.40446271864, 161.906020772281,Fe42Cr58,"# generated using pymatgen
 data_Cr11Fe16
_symmetry_space_group_name_H-M   'P 1'
_cell_length_a   7.52593500
_cell_length_b   7.52593500
_cell_length_c   10.64327935
_cell_angle_alpha   90.00000000
_cell_angle_beta   90.00000000
_cell_angle_gamma   90.00000000
_symmetry_Int_Tables_number   1
_chemical_formula_structural   Cr11Fe16
_chemical_formula_sum   'Cr22 Fe32'
_cell_volume   602.83212395
_cell_formula_units_Z   2
loop_
 _symmetry_equiv_pos_site_id
 _symmetry_equiv_pos_as_xyz
  1  'x, y, z'
loop_
 _atom_site_type_symbol
 _atom_site_label
 _atom_site_symmetry_multiplicity
 _atom_site_fract_x
 _atom_site_fract_y
 _atom_site_fract_z
 _atom_site_occupancy
  Fe  Fe0  1  0.99437972  -0.00216076  -0.00337557  1
  Cr  Cr1  1  0.16289997  0.16258060  0.16370366  1
  Fe  Fe2  1  0.99420211  0.99434575  0.33095723  1
  Fe  Fe3  1  0.99560743  0.33033717  0.99547693  1
  Fe  Fe4  1  0.16098559  0.49649208  0.16383121  1
  Cr  Cr5  1  0.99598912  0.32834620  0.32907892  1
  Fe  Fe6  1  -0.00372679  0.65990915  -0.00342423  1
  Cr  Cr7  1  0.15878124  0.82692006  0.16401459  1
  Fe  Fe8  1  0.99538117  0.66381727  0.33022047  1
  Cr  Cr9  1  0.33002496  -0.00329226  0.99382957  1
  Cr  Cr10  1  0.49915482  0.16333950  0.16548352  1
  Fe  Fe11  1  0.32806961  0.99467359  0.33068750  1
  Cr  Cr12  1  0.32600563  0.32892610  0.99534719  1
  Cr  Cr13  1  0.49528006  0.49368513  0.16725748  1
  Fe  Fe14  1  0.32897249  0.33013397  0.33050035  1
  Cr  Cr15  1  0.32924068  0.66236666  0.99539508  1
  Cr  Cr16  1  0.49715452  0.83166871  0.16219713  1
  Fe  Fe17  1  0.32828997  0.66368583  0.33028451  1
  Fe  Fe18  1  0.66425407  -0.00221099  0.99535906  1
  Fe  Fe19  1  0.82972210  0.16076101  0.16283144  1
  Fe  Fe20  1  0.66615884  -0.00358377  0.33044956  1
  Cr  Cr21  1  0.66476698  0.32900876  0.99503834  1
  Fe  Fe22  1  0.83163342  0.49657574  0.16275432  1
  Fe  Fe23  1  0.66534560  0.32935704  0.33055674  1
  Cr  Cr24  1  0.66381885  0.66451092  0.99531318  1
  Fe  Fe25  1  0.82984583  0.83122750  0.16262271  1
  Cr  Cr26  1  0.66418675  0.66442354  0.33168970  1
  Fe  Fe27  1  0.16237071  0.16021356  0.49528837  1
  Fe  Fe28  1  -0.00327832  -0.00294629  0.66116009  1
  Fe  Fe29  1  0.16008895  0.16137824  0.82996923  1
  Cr  Cr30  1  0.16404670  0.49811281  0.49478175  1
  Cr  Cr31  1  -0.00372663  0.32643469  0.66423079  1
  Fe  Fe32  1  0.16065498  0.49639651  0.82952136  1
  Fe  Fe33  1  0.16379299  0.83225873  0.49531687  1
  Cr  Cr34  1  0.99411889  0.66239518  0.65968479  1
  Cr  Cr35  1  0.16133896  0.82876323  0.82650400  1
  Cr  Cr36  1  0.49698934  0.16462476  0.49217200  1
  Fe  Fe37  1  0.32859228  0.99523178  0.66215389  1
  Fe  Fe38  1  0.49694236  0.16133434  0.82906028  1
  Fe  Fe39  1  0.49538440  0.49684750  0.49472525  1
  Cr  Cr40  1  0.32781131  0.32749216  0.66543962  1
  Fe  Fe41  1  0.49565537  0.49697737  0.82909465  1
  Fe  Fe42  1  0.49326322  0.82925050  0.49520279  1
  Fe  Fe43  1  0.33057834  0.66345978  0.66267843  1
  Fe  Fe44  1  0.49549100  0.82990571  0.82865953  1
  Fe  Fe45  1  0.83089019  0.16129274  0.49514084  1
  Cr  Cr46  1  0.66229848  0.99456534  0.66362074  1
  Fe  Fe47  1  0.83112971  0.16205912  0.83054817  1
  Fe  Fe48  1  0.82878075  0.49508210  0.49476134  1
  Cr  Cr49  1  0.66449936  0.33098849  0.66178872  1
  Fe  Fe50  1  0.83166996  0.49588295  0.83014124  1
  Fe  Fe51  1  0.83079705  0.83143345  0.49515603  1
  Cr  Cr52  1  0.66096006  0.66310980  0.66201460  1
  Cr  Cr53  1  0.83117081  0.83034691  0.83183999  1
" 