1781,Fe42Cr58_4,-218.445484166079, 162.968160357721,Fe42Cr58,"# generated using pymatgen
 data_Cr11Fe16
_symmetry_space_group_name_H-M   'P 1'
_cell_length_a   7.52204848
_cell_length_b   7.52204848
_cell_length_c   10.63778298
_cell_angle_alpha   90.00000000
_cell_angle_beta   90.00000000
_cell_angle_gamma   90.00000000
_symmetry_Int_Tables_number   1
_chemical_formula_structural   Cr11Fe16
_chemical_formula_sum   'Cr22 Fe32'
_cell_volume   601.89866833
_cell_formula_units_Z   2
loop_
 _symmetry_equiv_pos_site_id
 _symmetry_equiv_pos_as_xyz
  1  'x, y, z'
loop_
 _atom_site_type_symbol
 _atom_site_label
 _atom_site_symmetry_multiplicity
 _atom_site_fract_x
 _atom_site_fract_y
 _atom_site_fract_z
 _atom_site_occupancy
  Cr  Cr0  1  -0.00319653  -0.00141353  0.00052537  1
  Fe  Fe1  1  0.16344897  0.16488887  0.16396652  1
  Cr  Cr2  1  -0.00318265  -0.00208079  0.32731219  1
  Fe  Fe3  1  0.99494098  0.33177573  -0.00320259  1
  Cr  Cr4  1  0.16510347  0.49746021  0.16367435  1
  Fe  Fe5  1  -0.00336049  0.32981980  0.32972751  1
  Fe  Fe6  1  0.99553536  0.66048935  -0.00282955  1
  Cr  Cr7  1  0.16255208  0.82704284  0.16305264  1
  Cr  Cr8  1  0.99225377  0.66134816  0.33253865  1
  Cr  Cr9  1  0.33069697  -0.00283202  0.99410398  1
  Cr  Cr10  1  0.49974798  0.16546477  0.16511098  1
  Cr  Cr11  1  0.33018102  -0.00221011  0.33184721  1
  Cr  Cr12  1  0.32774720  0.32956725  -0.00272705  1
  Fe  Fe13  1  0.49816619  0.49906548  0.16384194  1
  Fe  Fe14  1  0.32776137  0.33025665  0.32972920  1
  Fe  Fe15  1  0.33095340  0.66374050  -0.00331026  1
  Fe  Fe16  1  0.49694178  0.82850476  0.16312959  1
  Fe  Fe17  1  0.33035915  0.66361723  0.33022892  1
  Fe  Fe18  1  0.66239153  0.99556338  -0.00212038  1
  Fe  Fe19  1  0.83038423  0.16575125  0.16345597  1
  Fe  Fe20  1  0.66296771  0.99450103  0.32908403  1
  Fe  Fe21  1  0.66470667  0.33079152  -0.00184214  1
  Fe  Fe22  1  0.82852398  0.49591423  0.16277089  1
  Fe  Fe23  1  0.66506424  0.33123580  0.32845936  1
  Fe  Fe24  1  0.66288779  0.66335191  -0.00218890  1
  Fe  Fe25  1  0.82626656  0.82834040  0.16277709  1
  Fe  Fe26  1  0.66101538  0.66394981  0.32868772  1
  Fe  Fe27  1  0.16316797  0.16482243  0.49529397  1
  Cr  Cr28  1  -0.00064789  -0.00242776  0.66133139  1
  Fe  Fe29  1  0.16222440  0.16314260  0.82973866  1
  Fe  Fe30  1  0.16190188  0.49657496  0.49532423  1
  Cr  Cr31  1  0.99610122  0.33289430  0.66421320  1
  Fe  Fe32  1  0.16091828  0.49605281  0.83106316  1
  Fe  Fe33  1  0.16621766  0.82776612  0.49685503  1
  Fe  Fe34  1  -0.00188719  0.66157075  0.66128676  1
  Cr  Cr35  1  0.16361626  0.82553257  0.82743357  1
  Fe  Fe36  1  0.49559785  0.16207109  0.49551334  1
  Fe  Fe37  1  0.32966670  0.99429027  0.66108446  1
  Cr  Cr38  1  0.49881213  0.16385482  0.82608180  1
  Cr  Cr39  1  0.49474930  0.49350511  0.49221206  1
  Cr  Cr40  1  0.32816400  0.32812964  0.66259722  1
  Cr  Cr41  1  0.49521318  0.49547962  0.83215446  1
  Fe  Fe42  1  0.49593098  0.82851813  0.49541219  1
  Fe  Fe43  1  0.32955466  0.66264679  0.66150479  1
  Fe  Fe44  1  0.49705440  0.82827494  0.83014312  1
  Cr  Cr45  1  0.82610084  0.16441539  0.49473531  1
  Cr  Cr46  1  0.65995007  0.99326625  0.66238718  1
  Cr  Cr47  1  0.82728312  0.16441078  0.83106799  1
  Fe  Fe48  1  0.82895197  0.49544432  0.49574137  1
  Fe  Fe49  1  0.66335647  0.33053705  0.66181294  1
  Fe  Fe50  1  0.83019987  0.49720431  0.83170199  1
  Cr  Cr51  1  0.83249145  0.83038598  0.49576333  1
  Cr  Cr52  1  0.66447135  0.66041295  0.66301716  1
  Cr  Cr53  1  0.83255820  0.82989653  0.83130333  1
" 