6769,Fe42Cr58_14,-218.413043726352, 159.901089586955,Fe42Cr58,"# generated using pymatgen
 data_Cr11Fe16
_symmetry_space_group_name_H-M   'P 1'
_cell_length_a   7.52503235
_cell_length_b   7.52503235
_cell_length_c   10.64200281
_cell_angle_alpha   90.00000000
_cell_angle_beta   90.00000000
_cell_angle_gamma   90.00000000
_symmetry_Int_Tables_number   1
_chemical_formula_structural   Cr11Fe16
_chemical_formula_sum   'Cr22 Fe32'
_cell_volume   602.61524239
_cell_formula_units_Z   2
loop_
 _symmetry_equiv_pos_site_id
 _symmetry_equiv_pos_as_xyz
  1  'x, y, z'
loop_
 _atom_site_type_symbol
 _atom_site_label
 _atom_site_symmetry_multiplicity
 _atom_site_fract_x
 _atom_site_fract_y
 _atom_site_fract_z
 _atom_site_occupancy
  Cr  Cr0  1  0.99609723  -0.00207009  0.99505865  1
  Fe  Fe1  1  0.16232785  0.16427587  0.16381917  1
  Fe  Fe2  1  0.99533399  -0.00252717  0.32733738  1
  Fe  Fe3  1  0.99517332  0.33179070  -0.00259189  1
  Fe  Fe4  1  0.16097239  0.49329449  0.16250823  1
  Fe  Fe5  1  0.99576351  0.32800282  0.32743160  1
  Fe  Fe6  1  -0.00382585  0.65991598  -0.00331297  1
  Cr  Cr7  1  0.16321477  0.82962824  0.16307599  1
  Cr  Cr8  1  0.99301245  0.66091063  0.32766030  1
  Fe  Fe9  1  0.32971462  -0.00306724  -0.00246470  1
  Fe  Fe10  1  0.49508120  0.16189721  0.16162953  1
  Fe  Fe11  1  0.32876260  -0.00171755  0.32878136  1
  Cr  Cr12  1  0.32680262  0.32851983  0.99481797  1
  Cr  Cr13  1  0.49721443  0.49502892  0.16427934  1
  Fe  Fe14  1  0.33003466  0.32540588  0.32793831  1
  Fe  Fe15  1  0.32795932  0.66089125  -0.00190069  1
  Fe  Fe16  1  0.49690396  0.82980028  0.16068874  1
  Cr  Cr17  1  0.32917307  0.66086184  0.32770868  1
  Fe  Fe18  1  0.66221320  -0.00261777  -0.00052924  1
  Fe  Fe19  1  0.82958775  0.16467063  0.16247150  1
  Cr  Cr20  1  0.66117372  -0.00367708  0.32740678  1
  Fe  Fe21  1  0.66456224  0.33064018  -0.00195680  1
  Fe  Fe22  1  0.83045224  0.49463281  0.16147955  1
  Fe  Fe23  1  0.66442496  0.32943536  0.32873245  1
  Fe  Fe24  1  0.66493220  0.66151989  -0.00222377  1
  Fe  Fe25  1  0.82810159  0.82912588  0.16043657  1
  Cr  Cr26  1  0.66642589  0.66353479  0.33183357  1
  Fe  Fe27  1  0.16444637  0.16457386  0.49457001  1
  Fe  Fe28  1  -0.00289974  -0.00151371  0.66294605  1
  Fe  Fe29  1  0.16308675  0.16472124  0.82922477  1
  Cr  Cr30  1  0.16509616  0.49539327  0.49363017  1
  Fe  Fe31  1  -0.00158435  0.32814233  0.66296444  1
  Fe  Fe32  1  0.16051292  0.49461711  0.82915401  1
  Cr  Cr33  1  0.15960763  0.83324999  0.49519840  1
  Cr  Cr34  1  0.99335129  0.66025718  0.66222161  1
  Cr  Cr35  1  0.16340904  0.82814919  0.82981124  1
  Fe  Fe36  1  0.49475528  0.16318948  0.49518635  1
  Cr  Cr37  1  0.32982631  0.00150372  0.66408741  1
  Cr  Cr38  1  0.50061779  0.16509854  0.83127868  1
  Cr  Cr39  1  0.49766916  0.49218650  0.49853712  1
  Fe  Fe40  1  0.32719973  0.33045175  0.66361858  1
  Cr  Cr41  1  0.49627766  0.49709429  0.82628333  1
  Cr  Cr42  1  0.49259155  0.82663760  0.49731718  1
  Fe  Fe43  1  0.32810580  0.66281476  0.66298983  1
  Cr  Cr44  1  0.49437743  0.82669358  0.83465870  1
  Cr  Cr45  1  0.83180655  0.16306328  0.49587466  1
  Cr  Cr46  1  0.66233494  0.99525873  0.66239642  1
  Cr  Cr47  1  0.83180735  0.16689749  0.83078378  1
  Fe  Fe48  1  0.83048088  0.49432786  0.49679465  1
  Fe  Fe49  1  0.66581334  0.33019812  0.66223762  1
  Fe  Fe50  1  0.82941613  0.49716575  0.83100822  1
  Fe  Fe51  1  0.82924470  0.82996314  0.49698790  1
  Fe  Fe52  1  0.66316361  0.66187521  0.66244716  1
  Cr  Cr53  1  0.82984511  0.83183251  0.82962543  1
" 