6403,Fe42Cr58_7,-218.311306057075, 163.121190032055,Fe42Cr58,"# generated using pymatgen
 data_Cr11Fe16
_symmetry_space_group_name_H-M   'P 1'
_cell_length_a   7.51954525
_cell_length_b   7.51954525
_cell_length_c   10.63424288
_cell_angle_alpha   90.00000000
_cell_angle_beta   90.00000000
_cell_angle_gamma   90.00000000
_symmetry_Int_Tables_number   1
_chemical_formula_structural   Cr11Fe16
_chemical_formula_sum   'Cr22 Fe32'
_cell_volume   601.29795837
_cell_formula_units_Z   2
loop_
 _symmetry_equiv_pos_site_id
 _symmetry_equiv_pos_as_xyz
  1  'x, y, z'
loop_
 _atom_site_type_symbol
 _atom_site_label
 _atom_site_symmetry_multiplicity
 _atom_site_fract_x
 _atom_site_fract_y
 _atom_site_fract_z
 _atom_site_occupancy
  Fe  Fe0  1  -0.00348078  0.99526921  0.99543452  1
  Fe  Fe1  1  0.16385978  0.16377904  0.16125355  1
  Cr  Cr2  1  -0.00083162  0.00001129  0.33094961  1
  Fe  Fe3  1  -0.00203392  0.32993009  0.99507620  1
  Cr  Cr4  1  0.16444550  0.49817621  0.16198293  1
  Cr  Cr5  1  -0.00063276  0.32786010  0.32943847  1
  Fe  Fe6  1  -0.00241728  0.66371632  0.99323372  1
  Cr  Cr7  1  0.16335744  0.82714457  0.16339558  1
  Cr  Cr8  1  0.99524960  0.66139958  0.33404878  1
  Cr  Cr9  1  0.32959526  0.99553158  0.99627725  1
  Cr  Cr10  1  0.49697151  0.16283644  0.16367596  1
  Fe  Fe11  1  0.33125082  0.99599458  0.33047385  1
  Fe  Fe12  1  0.32973332  0.33123600  0.99518699  1
  Cr  Cr13  1  0.49331568  0.49595439  0.16451690  1
  Fe  Fe14  1  0.32921405  0.32930580  0.33168450  1
  Fe  Fe15  1  0.32888272  0.66249819  0.99339533  1
  Fe  Fe16  1  0.49583170  0.82980536  0.16380939  1
  Fe  Fe17  1  0.32870457  0.66369573  0.33274592  1
  Fe  Fe18  1  0.66229625  0.99548158  0.99465430  1
  Cr  Cr19  1  0.82784197  0.16174588  0.15984268  1
  Fe  Fe20  1  0.66311486  -0.00335686  0.33199895  1
  Fe  Fe21  1  0.66180997  0.33053986  0.99520648  1
  Cr  Cr22  1  0.83137972  0.49747241  0.16085794  1
  Cr  Cr23  1  0.66590308  0.33151964  0.33261672  1
  Cr  Cr24  1  0.66067830  0.66412379  0.99477827  1
  Cr  Cr25  1  0.83034561  0.83096841  0.16254785  1
  Cr  Cr26  1  0.65955154  0.66553119  0.33191339  1
  Fe  Fe27  1  0.16505512  0.16207609  0.49802975  1
  Fe  Fe28  1  -0.00250645  0.99320396  0.66174581  1
  Cr  Cr29  1  0.16430524  0.16189513  0.82781108  1
  Fe  Fe30  1  0.16595890  0.49643743  0.49711434  1
  Cr  Cr31  1  -0.00297022  0.32892783  0.66002921  1
  Fe  Fe32  1  0.16246567  0.49630649  0.83052522  1
  Fe  Fe33  1  0.16473294  0.83071147  0.49754452  1
  Fe  Fe34  1  -0.00331599  0.66416306  0.66267131  1
  Fe  Fe35  1  0.16123130  0.82897562  0.82993949  1
  Cr  Cr36  1  0.49639832  0.16443648  0.49940356  1
  Fe  Fe37  1  0.32774518  0.99559171  0.66289221  1
  Cr  Cr38  1  0.49698252  0.16603831  0.82672826  1
  Fe  Fe39  1  0.49420256  0.49725167  0.49694967  1
  Fe  Fe40  1  0.33023963  0.33222834  0.66266401  1
  Fe  Fe41  1  0.49576574  0.49554342  0.83048924  1
  Fe  Fe42  1  0.49416882  0.83038194  0.49635118  1
  Cr  Cr43  1  0.33073722  0.66467935  0.66623044  1
  Fe  Fe44  1  0.49567502  0.83098256  0.83014519  1
  Fe  Fe45  1  0.83028618  0.16172813  0.49779130  1
  Cr  Cr46  1  0.66287973  0.99363127  0.66370684  1
  Cr  Cr47  1  0.82798063  0.16204100  0.83023722  1
  Fe  Fe48  1  0.82965214  0.49647683  0.49800946  1
  Fe  Fe49  1  0.66336472  0.33187433  0.66216717  1
  Fe  Fe50  1  0.83112839  0.49588791  0.83017082  1
  Fe  Fe51  1  0.83028225  0.83108517  0.49728124  1
  Cr  Cr52  1  0.66291531  0.66178899  0.66357580  1
  Fe  Fe53  1  0.83220197  0.82898486  0.83029935  1
" 