2427,Fe42Cr58_9,-218.406528372833, 160.002138109897,Fe42Cr58,"# generated using pymatgen
 data_Cr11Fe16
_symmetry_space_group_name_H-M   'P 1'
_cell_length_a   7.52639765
_cell_length_b   7.52639765
_cell_length_c   10.64393363
_cell_angle_alpha   90.00000000
_cell_angle_beta   90.00000000
_cell_angle_gamma   90.00000000
_symmetry_Int_Tables_number   1
_chemical_formula_structural   Cr11Fe16
_chemical_formula_sum   'Cr22 Fe32'
_cell_volume   602.94330592
_cell_formula_units_Z   2
loop_
 _symmetry_equiv_pos_site_id
 _symmetry_equiv_pos_as_xyz
  1  'x, y, z'
loop_
 _atom_site_type_symbol
 _atom_site_label
 _atom_site_symmetry_multiplicity
 _atom_site_fract_x
 _atom_site_fract_y
 _atom_site_fract_z
 _atom_site_occupancy
  Cr  Cr0  1  -0.00258017  -0.00380709  -0.00168210  1
  Fe  Fe1  1  0.16375719  0.16082334  0.16277024  1
  Fe  Fe2  1  -0.00374240  0.99343579  0.32825811  1
  Cr  Cr3  1  0.99417024  0.32706338  -0.00350957  1
  Cr  Cr4  1  0.16201897  0.49686573  0.16288833  1
  Cr  Cr5  1  0.99603731  0.32422560  0.32794302  1
  Cr  Cr6  1  0.99432408  0.66562347  0.99558699  1
  Fe  Fe7  1  0.16427694  0.83022627  0.16422822  1
  Fe  Fe8  1  -0.00335556  0.66640140  0.32828788  1
  Fe  Fe9  1  0.32871205  0.99354553  -0.00193531  1
  Cr  Cr10  1  0.49591402  0.15884719  0.16091831  1
  Fe  Fe11  1  0.32731157  0.99470459  0.32870170  1
  Fe  Fe12  1  0.33042077  0.33094012  -0.00286513  1
  Fe  Fe13  1  0.49643086  0.49627003  0.16259074  1
  Cr  Cr14  1  0.33072486  0.32913690  0.33153255  1
  Fe  Fe15  1  0.32971961  0.66372556  -0.00283320  1
  Fe  Fe16  1  0.49639498  0.82629472  0.16294067  1
  Fe  Fe17  1  0.32983357  0.66450500  0.32874975  1
  Fe  Fe18  1  0.66535995  0.99459042  -0.00200400  1
  Fe  Fe19  1  0.82811461  0.16128611  0.16339328  1
  Fe  Fe20  1  0.66514330  0.99590434  0.32797884  1
  Fe  Fe21  1  0.66228459  0.33029571  -0.00377812  1
  Cr  Cr22  1  0.82994553  0.49826374  0.16343449  1
  Fe  Fe23  1  0.66285384  0.32897064  0.32898461  1
  Fe  Fe24  1  0.66126387  0.66270467  -0.00325624  1
  Fe  Fe25  1  0.82759995  0.83091723  0.16433006  1
  Fe  Fe26  1  0.66192319  0.66363421  0.32871344  1
  Fe  Fe27  1  0.16082400  0.15959100  0.49549232  1
  Fe  Fe28  1  0.99449267  0.99479741  0.66166563  1
  Cr  Cr29  1  0.16543446  0.16364235  0.83109773  1
  Cr  Cr30  1  0.16135410  0.49842782  0.49626925  1
  Cr  Cr31  1  0.99434905  0.32600351  0.66406381  1
  Cr  Cr32  1  0.16030832  0.49873749  0.82877219  1
  Fe  Fe33  1  0.16077333  0.83012569  0.49449902  1
  Fe  Fe34  1  -0.00328551  0.66499320  0.66253885  1
  Fe  Fe35  1  0.16309669  0.83018629  0.82929589  1
  Cr  Cr36  1  0.49811603  0.16036301  0.49583172  1
  Cr  Cr37  1  0.32621861  0.99387076  0.66198610  1
  Cr  Cr38  1  0.49855982  0.16096206  0.83137801  1
  Fe  Fe39  1  0.49703633  0.49819648  0.49392321  1
  Cr  Cr40  1  0.33109776  0.33087673  0.66016809  1
  Fe  Fe41  1  0.49507897  0.49667805  0.83173493  1
  Cr  Cr42  1  0.49729178  0.83210047  0.49472078  1
  Fe  Fe43  1  0.32886565  0.66321854  0.66265280  1
  Cr  Cr44  1  0.49623943  0.83228088  0.83163762  1
  Fe  Fe45  1  0.83014115  0.15983299  0.49496212  1
  Fe  Fe46  1  0.66518066  -0.00245242  0.66209029  1
  Fe  Fe47  1  0.82877052  0.16126274  0.83013282  1
  Cr  Cr48  1  0.83225505  0.49809820  0.49362690  1
  Cr  Cr49  1  0.66319438  0.33129478  0.66250824  1
  Fe  Fe50  1  0.82616630  0.49539940  0.83056686  1
  Fe  Fe51  1  0.83116673  0.83136196  0.49551275  1
  Cr  Cr52  1  0.66085640  0.66272334  0.66279032  1
  Cr  Cr53  1  0.82864881  0.82912192  0.82680343  1
" 