4592,Fe42Cr58_13,-218.474608409017, 163.871267943223,Fe42Cr58,"# generated using pymatgen
 data_Cr11Fe16
_symmetry_space_group_name_H-M   'P 1'
_cell_length_a   7.51782671
_cell_length_b   7.51782671
_cell_length_c   10.63181249
_cell_angle_alpha   90.00000000
_cell_angle_beta   90.00000000
_cell_angle_gamma   90.00000000
_symmetry_Int_Tables_number   1
_chemical_formula_structural   Cr11Fe16
_chemical_formula_sum   'Cr22 Fe32'
_cell_volume   600.88578488
_cell_formula_units_Z   2
loop_
 _symmetry_equiv_pos_site_id
 _symmetry_equiv_pos_as_xyz
  1  'x, y, z'
loop_
 _atom_site_type_symbol
 _atom_site_label
 _atom_site_symmetry_multiplicity
 _atom_site_fract_x
 _atom_site_fract_y
 _atom_site_fract_z
 _atom_site_occupancy
  Fe  Fe0  1  0.99382085  -0.00214514  -0.00329727  1
  Fe  Fe1  1  0.16312832  0.16289915  0.16262096  1
  Fe  Fe2  1  -0.00299825  -0.00101190  0.33103607  1
  Fe  Fe3  1  0.99521631  0.33090535  0.99629381  1
  Cr  Cr4  1  0.15938380  0.49626624  0.16306577  1
  Fe  Fe5  1  0.99582619  0.33043170  0.33166696  1
  Cr  Cr6  1  0.99436096  0.66662401  0.99554829  1
  Cr  Cr7  1  0.16323251  0.83431616  0.16395617  1
  Fe  Fe8  1  0.99236233  0.66349772  0.33047750  1
  Fe  Fe9  1  0.33114245  0.99643560  0.99605175  1
  Cr  Cr10  1  0.49673427  0.15964661  0.16264218  1
  Fe  Fe11  1  0.33033139  -0.00286517  0.33244492  1
  Cr  Cr12  1  0.33006517  0.32915810  -0.00279339  1
  Fe  Fe13  1  0.49718235  0.49721276  0.16333063  1
  Cr  Cr14  1  0.32918312  0.32661101  0.32931790  1
  Fe  Fe15  1  0.33039949  0.66287700  -0.00246679  1
  Cr  Cr16  1  0.49618422  0.82694573  0.16381464  1
  Cr  Cr17  1  0.32811702  0.66164504  0.33178092  1
  Fe  Fe18  1  0.66550184  0.99334524  0.99587598  1
  Cr  Cr19  1  0.83432439  0.16599367  0.16200999  1
  Cr  Cr20  1  0.66531995  0.99503618  0.33287012  1
  Cr  Cr21  1  0.66133852  0.32754807  -0.00224165  1
  Fe  Fe22  1  0.82783859  0.50004962  0.16355035  1
  Cr  Cr23  1  0.66336120  0.33049620  0.32903122  1
  Fe  Fe24  1  0.66358449  0.66360303  -0.00273268  1
  Fe  Fe25  1  0.82981461  0.83050831  0.16421510  1
  Fe  Fe26  1  0.66564596  0.66300449  0.33030654  1
  Fe  Fe27  1  0.16054836  0.16516376  0.49627856  1
  Fe  Fe28  1  0.99508618  -0.00139753  0.66251067  1
  Cr  Cr29  1  0.15731593  0.16277717  0.83264951  1
  Fe  Fe30  1  0.16119881  0.49519418  0.49654853  1
  Fe  Fe31  1  0.99601617  0.32778040  0.66176109  1
  Fe  Fe32  1  0.16308794  0.49694086  0.83042009  1
  Cr  Cr33  1  0.16360575  0.83216928  0.49511006  1
  Cr  Cr34  1  -0.00254259  0.66390703  0.66405489  1
  Cr  Cr35  1  0.16542130  0.83084998  0.83075828  1
  Fe  Fe36  1  0.49827283  0.16306504  0.49670358  1
  Cr  Cr37  1  0.33277640  -0.00037818  0.65982717  1
  Fe  Fe38  1  0.49792899  0.16209179  0.82971177  1
  Cr  Cr39  1  0.50058355  0.49814878  0.49787608  1
  Cr  Cr40  1  0.32986002  0.33105379  0.66383953  1
  Cr  Cr41  1  0.49745810  0.49907804  0.82949178  1
  Fe  Fe42  1  0.49939475  0.83019861  0.49734588  1
  Fe  Fe43  1  0.33005625  0.66369406  0.66127336  1
  Cr  Cr44  1  0.49675293  0.82923936  0.82891476  1
  Fe  Fe45  1  0.83145683  0.16369937  0.49740973  1
  Fe  Fe46  1  0.66666777  -0.00306587  0.66154272  1
  Fe  Fe47  1  0.82646370  0.15899826  0.82947267  1
  Fe  Fe48  1  0.83251448  0.49633127  0.49727123  1
  Fe  Fe49  1  0.66483784  0.32638962  0.66192137  1
  Cr  Cr50  1  0.82930777  0.49102639  0.82783848  1
  Fe  Fe51  1  0.82945761  0.82894082  0.49721310  1
  Fe  Fe52  1  0.66460864  0.66538393  0.66243280  1
  Fe  Fe53  1  0.82909038  0.83131370  0.82907505  1
" 