4157,Fe42Cr58_19,-218.080542223891, 160.514270667103,Fe42Cr58,"# generated using pymatgen
 data_Cr11Fe16
_symmetry_space_group_name_H-M   'P 1'
_cell_length_a   7.51545955
_cell_length_b   7.51545955
_cell_length_c   10.62846483
_cell_angle_alpha   90.00000000
_cell_angle_beta   90.00000000
_cell_angle_gamma   90.00000000
_symmetry_Int_Tables_number   1
_chemical_formula_structural   Cr11Fe16
_chemical_formula_sum   'Cr22 Fe32'
_cell_volume   600.31835661
_cell_formula_units_Z   2
loop_
 _symmetry_equiv_pos_site_id
 _symmetry_equiv_pos_as_xyz
  1  'x, y, z'
loop_
 _atom_site_type_symbol
 _atom_site_label
 _atom_site_symmetry_multiplicity
 _atom_site_fract_x
 _atom_site_fract_y
 _atom_site_fract_z
 _atom_site_occupancy
  Fe  Fe0  1  0.99457563  -0.00217409  -0.00297606  1
  Fe  Fe1  1  0.16208587  0.16473330  0.16505498  1
  Fe  Fe2  1  0.99449367  -0.00197130  0.32891150  1
  Fe  Fe3  1  -0.00320774  0.32762954  -0.00048322  1
  Fe  Fe4  1  0.16217856  0.49509536  0.16375363  1
  Cr  Cr5  1  0.99590502  0.33066228  0.33456048  1
  Fe  Fe6  1  0.99625010  0.66377648  -0.00076055  1
  Cr  Cr7  1  0.16218283  0.83127834  0.16400575  1
  Cr  Cr8  1  0.99670489  0.66257235  0.33138280  1
  Cr  Cr9  1  0.33023619  -0.00165714  0.99631252  1
  Fe  Fe10  1  0.49739085  0.16199183  0.16439639  1
  Fe  Fe11  1  0.33124642  -0.00174696  0.32682394  1
  Cr  Cr12  1  0.33188270  0.32898052  -0.00240747  1
  Fe  Fe13  1  0.49706038  0.49642424  0.16478045  1
  Fe  Fe14  1  0.33007945  0.33177969  0.32726239  1
  Cr  Cr15  1  0.33114992  0.66361772  -0.00139836  1
  Fe  Fe16  1  0.49804446  0.83167319  0.16577799  1
  Fe  Fe17  1  0.33173317  0.66132940  0.32769068  1
  Fe  Fe18  1  0.66356020  -0.00172187  -0.00257456  1
  Fe  Fe19  1  0.83143806  0.16230787  0.16264696  1
  Fe  Fe20  1  0.66470732  0.99632655  0.32726031  1
  Fe  Fe21  1  0.66334532  0.32755699  -0.00088244  1
  Fe  Fe22  1  0.83191040  0.49589056  0.16232506  1
  Cr  Cr23  1  0.66413653  0.32959736  0.32862862  1
  Cr  Cr24  1  0.66326357  0.66414192  -0.00116587  1
  Fe  Fe25  1  0.82908933  0.83159604  0.16406625  1
  Fe  Fe26  1  0.66300905  0.66301558  0.32687945  1
  Cr  Cr27  1  0.16537255  0.16342851  0.49425346  1
  Cr  Cr28  1  0.99632528  -0.00234449  0.66321954  1
  Fe  Fe29  1  0.16179596  0.16449170  0.82996562  1
  Fe  Fe30  1  0.16769988  0.49792729  0.49662939  1
  Cr  Cr31  1  0.99561360  0.32985999  0.65761639  1
  Cr  Cr32  1  0.16179390  0.49553481  0.83106644  1
  Cr  Cr33  1  0.16606860  0.83154689  0.49558781  1
  Cr  Cr34  1  0.99621840  0.66313579  0.66165496  1
  Cr  Cr35  1  0.16205303  0.83058083  0.83039638  1
  Cr  Cr36  1  0.49664677  0.16270913  0.49588849  1
  Fe  Fe37  1  0.33076360  -0.00020401  0.66428261  1
  Fe  Fe38  1  0.49765174  0.16486067  0.82978107  1
  Cr  Cr39  1  0.49732090  0.49705314  0.49826747  1
  Fe  Fe40  1  0.32914571  0.32924780  0.66505299  1
  Fe  Fe41  1  0.49624510  0.49658091  0.82952977  1
  Cr  Cr42  1  0.49717624  0.83017346  0.49526908  1
  Fe  Fe43  1  0.33040257  0.66201373  0.66367699  1
  Cr  Cr44  1  0.49796056  0.83133031  0.82611265  1
  Fe  Fe45  1  0.82767237  0.16077596  0.49554342  1
  Fe  Fe46  1  0.66463134  -0.00274959  0.66390182  1
  Fe  Fe47  1  0.83061665  0.16160421  0.83227680  1
  Fe  Fe48  1  0.82731093  0.49786632  0.49652219  1
  Cr  Cr49  1  0.66341142  0.32878183  0.66463016  1
  Cr  Cr50  1  0.82962714  0.49467061  0.83352685  1
  Cr  Cr51  1  0.82764275  0.83043710  0.49572376  1
  Fe  Fe52  1  0.66451040  0.66334347  0.66446769  1
  Fe  Fe53  1  0.82994598  0.83071340  0.83136005  1
" 