4232,Fe42Cr58_11,-218.157564781676, 160.692211858883,Fe42Cr58,"# generated using pymatgen
 data_Cr11Fe16
_symmetry_space_group_name_H-M   'P 1'
_cell_length_a   7.52421584
_cell_length_b   7.52421584
_cell_length_c   10.64084809
_cell_angle_alpha   90.00000000
_cell_angle_beta   90.00000000
_cell_angle_gamma   90.00000000
_symmetry_Int_Tables_number   1
_chemical_formula_structural   Cr11Fe16
_chemical_formula_sum   'Cr22 Fe32'
_cell_volume   602.41910200
_cell_formula_units_Z   2
loop_
 _symmetry_equiv_pos_site_id
 _symmetry_equiv_pos_as_xyz
  1  'x, y, z'
loop_
 _atom_site_type_symbol
 _atom_site_label
 _atom_site_symmetry_multiplicity
 _atom_site_fract_x
 _atom_site_fract_y
 _atom_site_fract_z
 _atom_site_occupancy
  Cr  Cr0  1  -0.00243003  0.99599529  -0.00356470  1
  Fe  Fe1  1  0.16326379  0.16264041  0.16417129  1
  Fe  Fe2  1  -0.00157596  -0.00280681  0.32743692  1
  Cr  Cr3  1  0.99369043  0.32839384  0.99477625  1
  Cr  Cr4  1  0.16433472  0.49654466  0.16087177  1
  Fe  Fe5  1  -0.00193187  0.33051362  0.32871602  1
  Fe  Fe6  1  0.99547853  0.66426273  0.99610547  1
  Fe  Fe7  1  0.16355580  0.83016790  0.16397613  1
  Fe  Fe8  1  0.99506562  0.66064148  0.32871234  1
  Cr  Cr9  1  0.32896404  0.99383634  0.99516246  1
  Fe  Fe10  1  0.49475519  0.16393008  0.16173917  1
  Fe  Fe11  1  0.32924870  -0.00179844  0.32743265  1
  Fe  Fe12  1  0.32981919  0.32670742  -0.00259570  1
  Fe  Fe13  1  0.49733626  0.49599262  0.15975006  1
  Fe  Fe14  1  0.32974234  0.32894493  0.32951432  1
  Fe  Fe15  1  0.32991066  0.66429993  -0.00265267  1
  Fe  Fe16  1  0.49531438  0.82874393  0.16116115  1
  Cr  Cr17  1  0.33164540  0.66367256  0.32809039  1
  Fe  Fe18  1  0.66176896  0.99585564  -0.00244506  1
  Fe  Fe19  1  0.83034833  0.16493649  0.16248641  1
  Cr  Cr20  1  0.66196020  0.99600834  0.32632027  1
  Fe  Fe21  1  0.66109629  0.32847585  -0.00160854  1
  Fe  Fe22  1  0.82972089  0.49678739  0.16148941  1
  Cr  Cr23  1  0.66380126  0.33173395  0.32806846  1
  Fe  Fe24  1  0.66342605  0.66380925  -0.00294112  1
  Cr  Cr25  1  0.83044804  0.83028370  0.16358380  1
  Cr  Cr26  1  0.66125193  0.66142526  0.33093184  1
  Fe  Fe27  1  0.16270958  0.16170162  0.49384433  1
  Cr  Cr28  1  -0.00129868  -0.00356570  0.66582486  1
  Fe  Fe29  1  0.16483459  0.16353541  0.83007938  1
  Fe  Fe30  1  0.16200371  0.49520367  0.49408645  1
  Cr  Cr31  1  0.99560777  0.32901895  0.66220677  1
  Cr  Cr32  1  0.16260091  0.49748964  0.83176698  1
  Cr  Cr33  1  0.16180126  0.82853016  0.49362349  1
  Fe  Fe34  1  0.99564897  0.66157647  0.66384892  1
  Fe  Fe35  1  0.16324562  0.82845825  0.82966529  1
  Cr  Cr36  1  0.49555865  0.16260062  0.49775183  1
  Fe  Fe37  1  0.32943844  -0.00342407  0.66548047  1
  Fe  Fe38  1  0.49480656  0.16183892  0.82952165  1
  Fe  Fe39  1  0.49560513  0.49658412  0.49634595  1
  Cr  Cr40  1  0.32791504  0.32956662  0.66204506  1
  Cr  Cr41  1  0.49454244  0.49482603  0.83305732  1
  Cr  Cr42  1  0.49726809  0.83222466  0.49811998  1
  Cr  Cr43  1  0.33086727  0.66431245  0.66240730  1
  Fe  Fe44  1  0.49839147  0.83003025  0.82945869  1
  Cr  Cr45  1  0.82941076  0.16073562  0.49356115  1
  Fe  Fe46  1  0.66185243  0.99564131  0.66534543  1
  Cr  Cr47  1  0.82505745  0.16064052  0.83070304  1
  Fe  Fe48  1  0.83170341  0.49749101  0.49584074  1
  Cr  Cr49  1  0.66392193  0.33270211  0.66207055  1
  Fe  Fe50  1  0.82824473  0.49837629  0.83051415  1
  Cr  Cr51  1  0.82999008  0.82986671  0.49810455  1
  Fe  Fe52  1  0.66475195  0.66286532  0.66463545  1
  Fe  Fe53  1  0.82836799  0.82603143  0.83025820  1
" 