2720,Fe42Cr58_15,-218.336930536638, 160.852021577946,Fe42Cr58,"# generated using pymatgen
 data_Cr11Fe16
_symmetry_space_group_name_H-M   'P 1'
_cell_length_a   7.52438635
_cell_length_b   7.52438635
_cell_length_c   10.64108922
_cell_angle_alpha   90.00000000
_cell_angle_beta   90.00000000
_cell_angle_gamma   90.00000000
_symmetry_Int_Tables_number   1
_chemical_formula_structural   Cr11Fe16
_chemical_formula_sum   'Cr22 Fe32'
_cell_volume   602.46005682
_cell_formula_units_Z   2
loop_
 _symmetry_equiv_pos_site_id
 _symmetry_equiv_pos_as_xyz
  1  'x, y, z'
loop_
 _atom_site_type_symbol
 _atom_site_label
 _atom_site_symmetry_multiplicity
 _atom_site_fract_x
 _atom_site_fract_y
 _atom_site_fract_z
 _atom_site_occupancy
  Fe  Fe0  1  -0.00257022  0.99314327  -0.00350425  1
  Cr  Cr1  1  0.16522320  0.16015749  0.16059439  1
  Fe  Fe2  1  0.99504874  -0.00367160  0.32870349  1
  Fe  Fe3  1  0.99571737  0.32817196  -0.00265540  1
  Cr  Cr4  1  0.16135469  0.49523995  0.16460685  1
  Cr  Cr5  1  0.99466165  0.32916374  0.33306748  1
  Fe  Fe6  1  -0.00318332  0.66547338  0.99590288  1
  Fe  Fe7  1  0.16276327  0.82883687  0.16491210  1
  Fe  Fe8  1  0.99507297  0.66249234  0.32987506  1
  Fe  Fe9  1  0.33145344  0.99394638  0.99550137  1
  Fe  Fe10  1  0.49883545  0.16364374  0.16419136  1
  Fe  Fe11  1  0.33252671  -0.00298328  0.32740507  1
  Cr  Cr12  1  0.33213349  0.32925314  -0.00346793  1
  Fe  Fe13  1  0.49543095  0.49494463  0.16323225  1
  Fe  Fe14  1  0.33276274  0.32952299  0.32961339  1
  Cr  Cr15  1  0.32992682  0.66330295  -0.00339129  1
  Fe  Fe16  1  0.49243204  0.83138685  0.16372276  1
  Fe  Fe17  1  0.32949408  0.66206840  0.32787637  1
  Cr  Cr18  1  0.66261307  0.99589707  -0.00274433  1
  Fe  Fe19  1  0.83034478  0.16324322  0.16262983  1
  Fe  Fe20  1  0.66266850  -0.00053151  0.32796240  1
  Fe  Fe21  1  0.66089779  0.32882108  -0.00297279  1
  Cr  Cr22  1  0.82751668  0.49541192  0.15742289  1
  Fe  Fe23  1  0.66165770  0.32899491  0.32888946  1
  Fe  Fe24  1  0.65938252  0.66322882  -0.00322100  1
  Cr  Cr25  1  0.82874702  0.82905920  0.16266632  1
  Cr  Cr26  1  0.66062548  0.66348249  0.32588558  1
  Cr  Cr27  1  0.16621254  0.16256705  0.49570588  1
  Cr  Cr28  1  0.99446282  0.99573229  0.66378304  1
  Cr  Cr29  1  0.16433230  0.16209322  0.83312388  1
  Fe  Fe30  1  0.16599166  0.49843761  0.49360727  1
  Cr  Cr31  1  0.99561538  0.33048262  0.65856216  1
  Cr  Cr32  1  0.16160330  0.49469772  0.82888373  1
  Cr  Cr33  1  0.16450374  0.83005468  0.49238723  1
  Cr  Cr34  1  0.99518522  0.66243069  0.66021974  1
  Fe  Fe35  1  0.16133098  0.82789150  0.83100976  1
  Fe  Fe36  1  0.49910512  0.16248229  0.49567286  1
  Cr  Cr37  1  0.33198214  0.99576144  0.66932573  1
  Fe  Fe38  1  0.49926289  0.16513646  0.83046832  1
  Fe  Fe39  1  0.49661665  0.49651949  0.49488902  1
  Cr  Cr40  1  0.33225600  0.33133769  0.66141712  1
  Fe  Fe41  1  0.49687910  0.49618861  0.82892930  1
  Cr  Cr42  1  0.49649392  0.83051433  0.49692284  1
  Fe  Fe43  1  0.32995009  0.66331665  0.66367049  1
  Fe  Fe44  1  0.49926770  0.82707763  0.82978819  1
  Fe  Fe45  1  0.82599298  0.16195374  0.49585170  1
  Fe  Fe46  1  0.66254025  -0.00235737  0.66510532  1
  Cr  Cr47  1  0.83078890  0.16449991  0.83096873  1
  Fe  Fe48  1  0.82469137  0.49666096  0.49511990  1
  Fe  Fe49  1  0.66329155  0.32996852  0.66187238  1
  Cr  Cr50  1  0.82688194  0.49813104  0.83376100  1
  Cr  Cr51  1  0.82603804  0.83033280  0.49625457  1
  Fe  Fe52  1  0.66051032  0.66142994  0.66386280  1
  Fe  Fe53  1  0.82892500  0.82920759  0.83038225  1
" 