1464,Fe42Cr58_3,-218.196104226187, 167.201525340445,Fe42Cr58,"# generated using pymatgen
 data_Cr11Fe16
_symmetry_space_group_name_H-M   'P 1'
_cell_length_a   7.52431246
_cell_length_b   7.52431246
_cell_length_c   10.64098473
_cell_angle_alpha   90.00000000
_cell_angle_beta   90.00000000
_cell_angle_gamma   90.00000000
_symmetry_Int_Tables_number   1
_chemical_formula_structural   Cr11Fe16
_chemical_formula_sum   'Cr22 Fe32'
_cell_volume   602.44230822
_cell_formula_units_Z   2
loop_
 _symmetry_equiv_pos_site_id
 _symmetry_equiv_pos_as_xyz
  1  'x, y, z'
loop_
 _atom_site_type_symbol
 _atom_site_label
 _atom_site_symmetry_multiplicity
 _atom_site_fract_x
 _atom_site_fract_y
 _atom_site_fract_z
 _atom_site_occupancy
  Cr  Cr0  1  -0.00233774  0.99436898  0.99610580  1
  Fe  Fe1  1  0.16306970  0.16250958  0.16174000  1
  Fe  Fe2  1  0.99593875  -0.00287350  0.32932713  1
  Fe  Fe3  1  -0.00200897  0.32993378  -0.00259063  1
  Fe  Fe4  1  0.16457028  0.49542644  0.16135342  1
  Cr  Cr5  1  -0.00245740  0.33033551  0.32575696  1
  Cr  Cr6  1  0.99433068  0.66247332  0.99574857  1
  Cr  Cr7  1  0.16613220  0.82713538  0.16543468  1
  Cr  Cr8  1  0.99293602  0.66489915  0.33002549  1
  Cr  Cr9  1  0.32863687  0.00212799  0.99315027  1
  Fe  Fe10  1  0.49631723  0.16171946  0.16241922  1
  Fe  Fe11  1  0.32823867  -0.00298245  0.33012276  1
  Fe  Fe12  1  0.32706982  0.33213781  0.99617135  1
  Fe  Fe13  1  0.49349520  0.49606773  0.16249656  1
  Cr  Cr14  1  0.32995424  0.32426515  0.32749622  1
  Fe  Fe15  1  0.32845955  0.65965794  0.99587058  1
  Cr  Cr16  1  0.49610376  0.82889133  0.16329823  1
  Fe  Fe17  1  0.32868590  0.66074780  0.32892169  1
  Fe  Fe18  1  0.66389578  -0.00313323  -0.00326973  1
  Fe  Fe19  1  0.82887282  0.16102913  0.16259375  1
  Fe  Fe20  1  0.66431135  -0.00227387  0.32905796  1
  Cr  Cr21  1  0.65941549  0.33099635  -0.00325151  1
  Fe  Fe22  1  0.83027591  0.49515989  0.16202749  1
  Cr  Cr23  1  0.66105151  0.33123898  0.33148569  1
  Cr  Cr24  1  0.66634253  0.66266879  -0.00293044  1
  Fe  Fe25  1  0.82967006  0.83270078  0.16328129  1
  Cr  Cr26  1  0.66723355  0.66214073  0.32836779  1
  Fe  Fe27  1  0.16254842  0.16119199  0.49529999  1
  Fe  Fe28  1  -0.00322445  0.99460757  0.66332413  1
  Fe  Fe29  1  0.16193446  0.16488786  0.82954638  1
  Cr  Cr30  1  0.16242824  0.49792159  0.49646044  1
  Fe  Fe31  1  0.99600135  0.33036932  0.66345281  1
  Fe  Fe32  1  0.16273752  0.49595022  0.82910748  1
  Fe  Fe33  1  0.16056947  0.83135355  0.49568956  1
  Fe  Fe34  1  -0.00167994  0.66425048  0.66388858  1
  Fe  Fe35  1  0.16093320  0.82819073  0.82810576  1
  Fe  Fe36  1  0.49581692  0.16211657  0.49562747  1
  Cr  Cr37  1  0.32578564  -0.00132420  0.66204252  1
  Fe  Fe38  1  0.49640054  0.16480052  0.83025490  1
  Cr  Cr39  1  0.49461561  0.49825093  0.49752281  1
  Cr  Cr40  1  0.33106542  0.32549205  0.66431724  1
  Fe  Fe41  1  0.49518581  0.49467886  0.82922362  1
  Cr  Cr42  1  0.49288033  0.82903463  0.49203378  1
  Fe  Fe43  1  0.32801174  0.66369461  0.66460463  1
  Cr  Cr44  1  0.49415213  0.82697168  0.83273694  1
  Cr  Cr45  1  0.83129216  0.16416082  0.49730650  1
  Cr  Cr46  1  0.66049329  0.99512480  0.66478281  1
  Cr  Cr47  1  0.83108929  0.16459933  0.83015786  1
  Fe  Fe48  1  0.83101038  0.49612740  0.49794644  1
  Fe  Fe49  1  0.66339570  0.32939970  0.66367114  1
  Fe  Fe50  1  0.83121094  0.49553740  0.82845127  1
  Fe  Fe51  1  0.83162700  0.83010666  0.49695034  1
  Cr  Cr52  1  0.66857225  0.66037544  0.66320745  1
  Fe  Fe53  1  0.83145550  0.82927319  0.82858924  1
" 