4414,Fe42Cr58_16,-218.530534257147, 158.787029980792,Fe42Cr58,"# generated using pymatgen
 data_Cr11Fe16
_symmetry_space_group_name_H-M   'P 1'
_cell_length_a   7.52832064
_cell_length_b   7.52832064
_cell_length_c   10.64665315
_cell_angle_alpha   90.00000000
_cell_angle_beta   90.00000000
_cell_angle_gamma   90.00000000
_symmetry_Int_Tables_number   1
_chemical_formula_structural   Cr11Fe16
_chemical_formula_sum   'Cr22 Fe32'
_cell_volume   603.40557893
_cell_formula_units_Z   2
loop_
 _symmetry_equiv_pos_site_id
 _symmetry_equiv_pos_as_xyz
  1  'x, y, z'
loop_
 _atom_site_type_symbol
 _atom_site_label
 _atom_site_symmetry_multiplicity
 _atom_site_fract_x
 _atom_site_fract_y
 _atom_site_fract_z
 _atom_site_occupancy
  Fe  Fe0  1  -0.00315620  0.99570228  0.99545250  1
  Cr  Cr1  1  0.16267159  0.16076743  0.16389812  1
  Fe  Fe2  1  0.99513834  0.99562469  0.33215301  1
  Cr  Cr3  1  -0.00348475  0.33035522  -0.00145993  1
  Cr  Cr4  1  0.16449557  0.49696518  0.16345341  1
  Cr  Cr5  1  -0.00372161  0.32975801  0.33234523  1
  Fe  Fe6  1  -0.00220061  0.66290525  0.99522403  1
  Cr  Cr7  1  0.16267837  0.83028209  0.16298398  1
  Fe  Fe8  1  -0.00378290  0.66377030  0.33146336  1
  Cr  Cr9  1  0.33063121  0.99401114  0.99447549  1
  Fe  Fe10  1  0.49660588  0.16236366  0.16255406  1
  Fe  Fe11  1  0.32950379  -0.00369447  0.33174817  1
  Fe  Fe12  1  0.33231191  0.32989493  -0.00391870  1
  Fe  Fe13  1  0.49559049  0.49637235  0.16171009  1
  Cr  Cr14  1  0.32864602  0.32987656  0.32660067  1
  Fe  Fe15  1  0.33029385  0.66040830  0.99511421  1
  Cr  Cr16  1  0.49610685  0.82645313  0.16892396  1
  Fe  Fe17  1  0.32816740  0.66315346  0.33149988  1
  Cr  Cr18  1  0.66184842  0.99590386  -0.00328856  1
  Fe  Fe19  1  0.82891907  0.16118299  0.16305427  1
  Fe  Fe20  1  0.66315652  -0.00357795  0.33151378  1
  Fe  Fe21  1  0.65948367  0.33006065  -0.00299729  1
  Cr  Cr22  1  0.82670459  0.49773306  0.16336988  1
  Cr  Cr23  1  0.66324841  0.32817027  0.32752877  1
  Fe  Fe24  1  0.65917857  0.66044753  0.99577837  1
  Cr  Cr25  1  0.82936650  0.82943211  0.16243987  1
  Fe  Fe26  1  0.66349731  0.66286198  0.33217784  1
  Fe  Fe27  1  0.16531827  0.16085383  0.49587793  1
  Cr  Cr28  1  -0.00388991  0.99453226  0.66374649  1
  Cr  Cr29  1  0.16535053  0.16319651  0.82872365  1
  Fe  Fe30  1  0.16392243  0.49897461  0.49536100  1
  Cr  Cr31  1  -0.00226405  0.33219726  0.65679481  1
  Fe  Fe32  1  0.16372056  0.49768646  0.82905927  1
  Fe  Fe33  1  0.16346626  0.82876583  0.49506403  1
  Fe  Fe34  1  -0.00223984  0.66369024  0.66092304  1
  Fe  Fe35  1  0.16260731  0.82621093  0.82948985  1
  Fe  Fe36  1  0.49451670  0.16189281  0.49545413  1
  Fe  Fe37  1  0.32850237  0.99555671  0.66071015  1
  Fe  Fe38  1  0.49651396  0.16528428  0.82816761  1
  Cr  Cr39  1  0.49622172  0.49619305  0.49634062  1
  Fe  Fe40  1  0.33114488  0.32919781  0.66180002  1
  Fe  Fe41  1  0.49369756  0.49339411  0.82839467  1
  Fe  Fe42  1  0.49396583  0.83042175  0.49403773  1
  Fe  Fe43  1  0.32578146  0.66238010  0.66162613  1
  Cr  Cr44  1  0.49378889  0.82733214  0.82620209  1
  Fe  Fe45  1  0.82787787  0.16149318  0.49585268  1
  Cr  Cr46  1  0.66019630  -0.00362489  0.66086483  1
  Cr  Cr47  1  0.82894370  0.16435066  0.83074581  1
  Fe  Fe48  1  0.82941546  0.49825696  0.49527909  1
  Fe  Fe49  1  0.66143737  0.32850815  0.66092438  1
  Cr  Cr50  1  0.82760480  0.49617367  0.82747679  1
  Fe  Fe51  1  0.82992540  0.82893817  0.49399493  1
  Cr  Cr52  1  0.66225254  0.66354480  0.66071373  1
  Cr  Cr53  1  0.83057030  0.82766150  0.83282297  1
" 