2418,Fe42Cr58_5,-218.325946609925, 160.321612527157,Fe42Cr58,"# generated using pymatgen
 data_Cr11Fe16
_symmetry_space_group_name_H-M   'P 1'
_cell_length_a   7.51676943
_cell_length_b   7.51676943
_cell_length_c   10.63031727
_cell_angle_alpha   90.00000000
_cell_angle_beta   90.00000000
_cell_angle_gamma   90.00000000
_symmetry_Int_Tables_number   1
_chemical_formula_structural   Cr11Fe16
_chemical_formula_sum   'Cr22 Fe32'
_cell_volume   600.63230100
_cell_formula_units_Z   2
loop_
 _symmetry_equiv_pos_site_id
 _symmetry_equiv_pos_as_xyz
  1  'x, y, z'
loop_
 _atom_site_type_symbol
 _atom_site_label
 _atom_site_symmetry_multiplicity
 _atom_site_fract_x
 _atom_site_fract_y
 _atom_site_fract_z
 _atom_site_occupancy
  Cr  Cr0  1  0.99539274  -0.00250023  0.99239375  1
  Cr  Cr1  1  0.16580897  0.16389658  0.16628440  1
  Fe  Fe2  1  -0.00211148  -0.00246417  0.33159242  1
  Cr  Cr3  1  -0.00186934  0.33128894  -0.00193615  1
  Fe  Fe4  1  0.16140539  0.49822890  0.16441583  1
  Fe  Fe5  1  0.99591319  0.33118742  0.33080647  1
  Fe  Fe6  1  -0.00089747  0.66049366  -0.00285142  1
  Cr  Cr7  1  0.16336292  0.82942398  0.16461043  1
  Fe  Fe8  1  0.99587231  0.65935354  0.33119032  1
  Fe  Fe9  1  0.33035007  -0.00287247  -0.00219389  1
  Fe  Fe10  1  0.49718124  0.16304904  0.16204042  1
  Fe  Fe11  1  0.32957166  -0.00274787  0.33108513  1
  Cr  Cr12  1  0.32892870  0.33394506  0.99540106  1
  Fe  Fe13  1  0.49597801  0.49747172  0.16301180  1
  Cr  Cr14  1  0.32817547  0.33267950  0.33156394  1
  Fe  Fe15  1  0.32819716  0.66258095  -0.00160800  1
  Fe  Fe16  1  0.49538591  0.83116971  0.16291130  1
  Cr  Cr17  1  0.33026854  0.66296487  0.33022112  1
  Fe  Fe18  1  0.66198129  -0.00107735  -0.00111962  1
  Fe  Fe19  1  0.83123245  0.16305336  0.16261088  1
  Cr  Cr20  1  0.66562332  0.99559934  0.32692524  1
  Fe  Fe21  1  0.66346047  0.33068444  0.00010780  1
  Fe  Fe22  1  0.83218134  0.49574691  0.16387055  1
  Cr  Cr23  1  0.66511692  0.33075994  0.32750970  1
  Cr  Cr24  1  0.66175369  0.66350085  -0.00170737  1
  Cr  Cr25  1  0.83211605  0.82668183  0.16248874  1
  Fe  Fe26  1  0.66431079  0.66082197  0.32862158  1
  Fe  Fe27  1  0.15963986  0.16358405  0.49585397  1
  Fe  Fe28  1  -0.00205996  -0.00209943  0.66286526  1
  Fe  Fe29  1  0.16256751  0.16509567  0.82822887  1
  Fe  Fe30  1  0.16173607  0.49732814  0.49839480  1
  Fe  Fe31  1  -0.00156043  0.32935079  0.66175170  1
  Fe  Fe32  1  0.16432347  0.49600277  0.82766639  1
  Fe  Fe33  1  0.16266400  0.82958291  0.49584330  1
  Fe  Fe34  1  -0.00043062  0.66143858  0.66188205  1
  Cr  Cr35  1  0.16346928  0.82713981  0.83105062  1
  Cr  Cr36  1  0.49494468  0.16604421  0.49623735  1
  Cr  Cr37  1  0.32761329  -0.00316864  0.66183950  1
  Cr  Cr38  1  0.49523128  0.16729752  0.83244728  1
  Fe  Fe39  1  0.49818664  0.49766297  0.49838428  1
  Fe  Fe40  1  0.32837016  0.33256863  0.66303216  1
  Fe  Fe41  1  0.49620574  0.49828829  0.82835487  1
  Cr  Cr42  1  0.49696924  0.82871902  0.49489161  1
  Fe  Fe43  1  0.32973065  0.66099440  0.66197491  1
  Cr  Cr44  1  0.49522654  0.83017578  0.83235265  1
  Fe  Fe45  1  0.83150660  0.16413983  0.49717723  1
  Cr  Cr46  1  0.66570215  0.99569313  0.66469760  1
  Cr  Cr47  1  0.82797729  0.16628793  0.82957599  1
  Fe  Fe48  1  0.83008139  0.49435435  0.49806272  1
  Fe  Fe49  1  0.66262327  0.33194884  0.66157588  1
  Cr  Cr50  1  0.83085998  0.49641194  0.82917333  1
  Cr  Cr51  1  0.83220695  0.82615403  0.49801678  1
  Fe  Fe52  1  0.66153631  0.66023996  0.66285265  1
  Cr  Cr53  1  0.83138913  0.82724490  0.82897064  1
" 