8386,Fe42Cr58_12,-218.308485176901, 157.667524014554,Fe42Cr58,"# generated using pymatgen
 data_Cr11Fe16
_symmetry_space_group_name_H-M   'P 1'
_cell_length_a   7.52493787
_cell_length_b   7.52493787
_cell_length_c   10.64186919
_cell_angle_alpha   90.00000000
_cell_angle_beta   90.00000000
_cell_angle_gamma   90.00000000
_symmetry_Int_Tables_number   1
_chemical_formula_structural   Cr11Fe16
_chemical_formula_sum   'Cr22 Fe32'
_cell_volume   602.59254289
_cell_formula_units_Z   2
loop_
 _symmetry_equiv_pos_site_id
 _symmetry_equiv_pos_as_xyz
  1  'x, y, z'
loop_
 _atom_site_type_symbol
 _atom_site_label
 _atom_site_symmetry_multiplicity
 _atom_site_fract_x
 _atom_site_fract_y
 _atom_site_fract_z
 _atom_site_occupancy
  Fe  Fe0  1  -0.00324813  -0.00240707  0.99601279  1
  Fe  Fe1  1  0.16099486  0.16336623  0.16186693  1
  Fe  Fe2  1  0.99535401  0.00004454  0.32896737  1
  Fe  Fe3  1  -0.00327471  0.32801370  -0.00365993  1
  Cr  Cr4  1  0.16266608  0.49307908  0.16288994  1
  Fe  Fe5  1  0.99535525  0.32598989  0.32892031  1
  Fe  Fe6  1  0.99550091  0.66272911  -0.00325108  1
  Cr  Cr7  1  0.16124077  0.83172784  0.16425457  1
  Cr  Cr8  1  0.99584773  0.66300479  0.32718322  1
  Fe  Fe9  1  0.32831148  -0.00203453  0.99435404  1
  Cr  Cr10  1  0.49592544  0.16508250  0.16014058  1
  Cr  Cr11  1  0.32713587  -0.00051349  0.32961845  1
  Fe  Fe12  1  0.32830174  0.32758800  0.99523053  1
  Fe  Fe13  1  0.49682972  0.49482572  0.16198806  1
  Fe  Fe14  1  0.33067697  0.33053694  0.32995510  1
  Cr  Cr15  1  0.32854106  0.66219849  0.99584232  1
  Cr  Cr16  1  0.49703716  0.83064368  0.16091854  1
  Fe  Fe17  1  0.33083558  0.66057328  0.32909268  1
  Fe  Fe18  1  0.66328562  -0.00286206  0.99541831  1
  Fe  Fe19  1  0.83172781  0.16330215  0.16189126  1
  Cr  Cr20  1  0.66492044  -0.00120676  0.33113737  1
  Fe  Fe21  1  0.66351387  0.32923065  -0.00359105  1
  Fe  Fe22  1  0.82795044  0.49439663  0.16092183  1
  Fe  Fe23  1  0.66265264  0.32912491  0.32948107  1
  Fe  Fe24  1  0.66399720  0.66205965  -0.00261959  1
  Fe  Fe25  1  0.82960572  0.83068224  0.16050534  1
  Cr  Cr26  1  0.66136706  0.65965693  0.32761020  1
  Fe  Fe27  1  0.16267375  0.16435530  0.49600908  1
  Cr  Cr28  1  -0.00238140  -0.00093314  0.66089399  1
  Fe  Fe29  1  0.16319197  0.16388784  0.83023819  1
  Cr  Cr30  1  0.16435582  0.49385125  0.49823328  1
  Fe  Fe31  1  -0.00214312  0.32705901  0.66399584  1
  Fe  Fe32  1  0.16328925  0.49424761  0.82995548  1
  Cr  Cr33  1  0.16424123  0.82977114  0.49520827  1
  Cr  Cr34  1  -0.00073666  0.66185435  0.66627247  1
  Fe  Fe35  1  0.16463456  0.83044771  0.83023307  1
  Fe  Fe36  1  0.49398183  0.16573480  0.49559253  1
  Fe  Fe37  1  0.32939370  -0.00211848  0.66440576  1
  Fe  Fe38  1  0.49530779  0.16162672  0.83133711  1
  Fe  Fe39  1  0.49406410  0.49450115  0.49550838  1
  Fe  Fe40  1  0.32820584  0.32742502  0.66329941  1
  Cr  Cr41  1  0.49551031  0.49398641  0.82958156  1
  Cr  Cr42  1  0.49396491  0.83009800  0.49830607  1
  Fe  Fe43  1  0.32956782  0.66298962  0.66494629  1
  Fe  Fe44  1  0.49436958  0.83125134  0.83029339  1
  Fe  Fe45  1  0.83168958  0.16415382  0.49472339  1
  Cr  Cr46  1  0.66137336  -0.00078103  0.66315039  1
  Fe  Fe47  1  0.82990858  0.16346958  0.83137858  1
  Cr  Cr48  1  0.83049502  0.49273798  0.49751861  1
  Cr  Cr49  1  0.66211497  0.32678954  0.66045931  1
  Cr  Cr50  1  0.83207983  0.49364400  0.83055230  1
  Cr  Cr51  1  0.83023988  0.83080174  0.49490618  1
  Cr  Cr52  1  0.66118565  0.66238431  0.66237864  1
  Cr  Cr53  1  0.82865499  0.83021710  0.83182900  1
" 