1284,Fe42Cr58_8,-218.187079038088, 159.047032119994,Fe42Cr58,"# generated using pymatgen
 data_Cr11Fe16
_symmetry_space_group_name_H-M   'P 1'
_cell_length_a   7.51833816
_cell_length_b   7.51833816
_cell_length_c   10.63253579
_cell_angle_alpha   90.00000000
_cell_angle_beta   90.00000000
_cell_angle_gamma   90.00000000
_symmetry_Int_Tables_number   1
_chemical_formula_structural   Cr11Fe16
_chemical_formula_sum   'Cr22 Fe32'
_cell_volume   601.00843132
_cell_formula_units_Z   2
loop_
 _symmetry_equiv_pos_site_id
 _symmetry_equiv_pos_as_xyz
  1  'x, y, z'
loop_
 _atom_site_type_symbol
 _atom_site_label
 _atom_site_symmetry_multiplicity
 _atom_site_fract_x
 _atom_site_fract_y
 _atom_site_fract_z
 _atom_site_occupancy
  Cr  Cr0  1  0.99643823  -0.00222707  -0.00248321  1
  Fe  Fe1  1  0.16450504  0.16155976  0.16504778  1
  Fe  Fe2  1  0.99633189  -0.00294677  0.32923387  1
  Cr  Cr3  1  0.99645597  0.32856806  0.99593160  1
  Cr  Cr4  1  0.16125027  0.49512895  0.16359641  1
  Fe  Fe5  1  0.99494763  0.32933460  0.32950015  1
  Cr  Cr6  1  -0.00335507  0.66305910  0.99628535  1
  Fe  Fe7  1  0.16405442  0.83092796  0.16496827  1
  Fe  Fe8  1  0.99516881  0.66274182  0.33039990  1
  Fe  Fe9  1  0.32882587  -0.00176601  -0.00158782  1
  Fe  Fe10  1  0.49588503  0.16516711  0.16454382  1
  Fe  Fe11  1  0.32959395  -0.00239424  0.32915465  1
  Fe  Fe12  1  0.33003601  0.32906339  -0.00239366  1
  Fe  Fe13  1  0.49740476  0.49531756  0.16486169  1
  Fe  Fe14  1  0.33054028  0.32907654  0.32949697  1
  Cr  Cr15  1  0.32994717  0.66094392  0.99555740  1
  Cr  Cr16  1  0.49761399  0.83195534  0.16293169  1
  Cr  Cr17  1  0.33081676  0.66228976  0.33230053  1
  Cr  Cr18  1  0.66609813  -0.00197478  0.99579738  1
  Fe  Fe19  1  0.82949577  0.16429942  0.16583925  1
  Fe  Fe20  1  0.66413301  -0.00311128  0.33063736  1
  Cr  Cr21  1  0.66349599  0.33017327  0.99602412  1
  Fe  Fe22  1  0.82807949  0.49483525  0.16531888  1
  Fe  Fe23  1  0.66357788  0.33076468  0.32934332  1
  Cr  Cr24  1  0.66311964  0.66169046  0.99584368  1
  Cr  Cr25  1  0.82984156  0.82741951  0.16404013  1
  Fe  Fe26  1  0.66432554  0.66204363  0.33157583  1
  Cr  Cr27  1  0.16279355  0.16387193  0.49674000  1
  Fe  Fe28  1  0.99588733  -0.00322766  0.66314995  1
  Cr  Cr29  1  0.16415131  0.16389146  0.82843239  1
  Cr  Cr30  1  0.15945260  0.49620188  0.49860433  1
  Fe  Fe31  1  0.99236187  0.33013212  0.66405010  1
  Fe  Fe32  1  0.16292354  0.49654942  0.82835144  1
  Cr  Cr33  1  0.16210530  0.83002032  0.49754299  1
  Fe  Fe34  1  0.99456603  0.66261256  0.66418333  1
  Cr  Cr35  1  0.16281065  0.82956058  0.82896007  1
  Cr  Cr36  1  0.49799517  0.16310357  0.49613752  1
  Fe  Fe37  1  0.33091654  0.99596740  0.66249262  1
  Cr  Cr38  1  0.49677662  0.16372896  0.83094873  1
  Fe  Fe39  1  0.49780205  0.49605071  0.49590563  1
  Cr  Cr40  1  0.33020458  0.33283924  0.66312063  1
  Fe  Fe41  1  0.49583100  0.49622312  0.82888561  1
  Fe  Fe42  1  0.49728793  0.83004801  0.49601882  1
  Fe  Fe43  1  0.33011748  0.66408608  0.66293645  1
  Cr  Cr44  1  0.49678112  0.83140094  0.82974549  1
  Fe  Fe45  1  0.83142860  0.16440653  0.49539738  1
  Cr  Cr46  1  0.66639720  -0.00264112  0.66240958  1
  Fe  Fe47  1  0.83113707  0.16389035  0.82784392  1
  Fe  Fe48  1  0.82880018  0.49540492  0.49569635  1
  Fe  Fe49  1  0.66509868  0.33069091  0.66330239  1
  Fe  Fe50  1  0.83060772  0.49604343  0.82800892  1
  Fe  Fe51  1  0.83024093  0.82993804  0.49463890  1
  Cr  Cr52  1  0.66165629  0.66321837  0.66186843  1
  Fe  Fe53  1  0.83104502  0.82985239  0.82866709  1
" 