8344,Fe42Cr58_17,-218.15823576967, 164.342658920721,Fe42Cr58,"# generated using pymatgen
 data_Cr11Fe16
_symmetry_space_group_name_H-M   'P 1'
_cell_length_a   7.51511096
_cell_length_b   7.51511096
_cell_length_c   10.62797184
_cell_angle_alpha   90.00000000
_cell_angle_beta   90.00000000
_cell_angle_gamma   90.00000000
_symmetry_Int_Tables_number   1
_chemical_formula_structural   Cr11Fe16
_chemical_formula_sum   'Cr22 Fe32'
_cell_volume   600.23482494
_cell_formula_units_Z   2
loop_
 _symmetry_equiv_pos_site_id
 _symmetry_equiv_pos_as_xyz
  1  'x, y, z'
loop_
 _atom_site_type_symbol
 _atom_site_label
 _atom_site_symmetry_multiplicity
 _atom_site_fract_x
 _atom_site_fract_y
 _atom_site_fract_z
 _atom_site_occupancy
  Cr  Cr0  1  0.00071952  -0.00053843  0.00002543  1
  Fe  Fe1  1  0.16378501  0.16424124  0.16570638  1
  Fe  Fe2  1  0.99661055  -0.00010869  0.32904561  1
  Fe  Fe3  1  0.00015435  0.33070587  0.99418713  1
  Cr  Cr4  1  0.16274210  0.49671645  0.16195210  1
  Fe  Fe5  1  0.99629219  0.32868862  0.33104018  1
  Fe  Fe6  1  -0.00207178  0.66524310  0.99519880  1
  Fe  Fe7  1  0.16338975  0.83322145  0.16447275  1
  Cr  Cr8  1  0.99559728  0.66829706  0.32912815  1
  Fe  Fe9  1  0.32962871  -0.00183976  0.99581511  1
  Cr  Cr10  1  0.49763152  0.16319882  0.16236414  1
  Fe  Fe11  1  0.32769751  -0.00164408  0.33010009  1
  Fe  Fe12  1  0.32675888  0.32781977  0.99642564  1
  Fe  Fe13  1  0.49648273  0.49474105  0.16345882  1
  Fe  Fe14  1  0.32971993  0.32922503  0.33005689  1
  Cr  Cr15  1  0.32980817  0.66610811  -0.00256889  1
  Cr  Cr16  1  0.49774363  0.83537065  0.16254154  1
  Cr  Cr17  1  0.33268274  0.66414296  0.32891436  1
  Fe  Fe18  1  0.66473003  0.99552210  -0.00280522  1
  Fe  Fe19  1  0.83159649  0.16314632  0.16496753  1
  Fe  Fe20  1  0.66675394  0.99665916  0.33063836  1
  Cr  Cr21  1  0.66490348  0.33047987  -0.00313141  1
  Cr  Cr22  1  0.83450524  0.49644578  0.16047955  1
  Fe  Fe23  1  0.66512084  0.32902684  0.33030248  1
  Cr  Cr24  1  0.66190675  0.66300252  -0.00237392  1
  Fe  Fe25  1  0.83075477  0.83293941  0.16313972  1
  Cr  Cr26  1  0.66175891  0.66127630  0.33054445  1
  Fe  Fe27  1  0.16348012  0.16171038  0.49594838  1
  Fe  Fe28  1  0.99664075  0.99541147  0.66365913  1
  Fe  Fe29  1  0.16423497  0.16271186  0.83050516  1
  Cr  Cr30  1  0.16188968  0.49594500  0.49771940  1
  Cr  Cr31  1  -0.00319200  0.32482979  0.66510709  1
  Fe  Fe32  1  0.16060663  0.49725418  0.83047958  1
  Cr  Cr33  1  0.16141704  0.82918601  0.49779715  1
  Fe  Fe34  1  0.99590326  0.66187135  0.66431876  1
  Fe  Fe35  1  0.16482271  0.83147354  0.82836891  1
  Cr  Cr36  1  0.49777796  0.16352916  0.49699794  1
  Fe  Fe37  1  0.32684084  -0.00185319  0.66502667  1
  Cr  Cr38  1  0.49631061  0.15909492  0.83028153  1
  Fe  Fe39  1  0.49411223  0.49615148  0.49670570  1
  Fe  Fe40  1  0.32894165  0.32884965  0.66351173  1
  Cr  Cr41  1  0.49291562  0.49360607  0.83008711  1
  Cr  Cr42  1  0.49609817  0.83370919  0.50014013  1
  Fe  Fe43  1  0.32728465  0.66283129  0.66554223  1
  Fe  Fe44  1  0.49569669  0.83001358  0.82847372  1
  Fe  Fe45  1  0.83301227  0.16082999  0.49515110  1
  Fe  Fe46  1  0.66624954  -0.00244751  0.66329250  1
  Cr  Cr47  1  0.82814867  0.16225598  0.83218207  1
  Fe  Fe48  1  0.83095003  0.49596984  0.49517714  1
  Cr  Cr49  1  0.66535003  0.33117284  0.66098872  1
  Fe  Fe50  1  0.83190701  0.49717114  0.83076755  1
  Fe  Fe51  1  0.83002830  0.83268705  0.49786791  1
  Cr  Cr52  1  0.66172037  0.66198549  0.66169461  1
  Cr  Cr53  1  0.83076882  0.82928179  0.82990216  1
" 