8619,Fe42Cr58_6,-218.596392820849, 157.11530216577,Fe42Cr58,"# generated using pymatgen
 data_Cr11Fe16
_symmetry_space_group_name_H-M   'P 1'
_cell_length_a   7.52787676
_cell_length_b   7.52787676
_cell_length_c   10.64602540
_cell_angle_alpha   90.00000000
_cell_angle_beta   90.00000000
_cell_angle_gamma   90.00000000
_symmetry_Int_Tables_number   1
_chemical_formula_structural   Cr11Fe16
_chemical_formula_sum   'Cr22 Fe32'
_cell_volume   603.29885171
_cell_formula_units_Z   2
loop_
 _symmetry_equiv_pos_site_id
 _symmetry_equiv_pos_as_xyz
  1  'x, y, z'
loop_
 _atom_site_type_symbol
 _atom_site_label
 _atom_site_symmetry_multiplicity
 _atom_site_fract_x
 _atom_site_fract_y
 _atom_site_fract_z
 _atom_site_occupancy
  Cr  Cr0  1  -0.00387979  -0.00374091  -0.00229746  1
  Fe  Fe1  1  0.15962054  0.15999194  0.16315585  1
  Fe  Fe2  1  0.99333344  0.99192013  0.33025326  1
  Cr  Cr3  1  0.99442436  0.32893536  0.99462731  1
  Fe  Fe4  1  0.15963891  0.49826780  0.16338272  1
  Cr  Cr5  1  0.99501601  0.32356734  0.32988776  1
  Fe  Fe6  1  -0.00213539  0.66123579  -0.00260296  1
  Fe  Fe7  1  0.16090060  0.82827602  0.16393424  1
  Fe  Fe8  1  -0.00152904  0.66262735  0.33004430  1
  Cr  Cr9  1  0.32717660  0.99570174  0.99393473  1
  Cr  Cr10  1  0.49586092  0.16354607  0.16075124  1
  Cr  Cr11  1  0.32453583  -0.00403185  0.33177665  1
  Cr  Cr12  1  0.32701206  0.32995651  -0.00156633  1
  Fe  Fe13  1  0.49757161  0.49688149  0.16384951  1
  Cr  Cr14  1  0.32566135  0.32925838  0.32614719  1
  Cr  Cr15  1  0.32935617  0.66365782  -0.00358390  1
  Cr  Cr16  1  0.49775852  0.83236424  0.16237853  1
  Cr  Cr17  1  0.33133286  0.66386822  0.33152862  1
  Fe  Fe18  1  0.66406192  -0.00175649  0.99511923  1
  Fe  Fe19  1  0.82810612  0.16062799  0.16371329  1
  Fe  Fe20  1  0.66393726  -0.00170953  0.33075174  1
  Cr  Cr21  1  0.66537680  0.33052535  0.99386848  1
  Fe  Fe22  1  0.83045355  0.49572217  0.16456092  1
  Fe  Fe23  1  0.66290991  0.32804564  0.32806358  1
  Cr  Cr24  1  0.66547712  0.66217625  -0.00288795  1
  Fe  Fe25  1  0.83143818  0.82981397  0.16355583  1
  Cr  Cr26  1  0.66462214  0.66531724  0.33053798  1
  Fe  Fe27  1  0.15995898  0.16274010  0.49934178  1
  Fe  Fe28  1  0.99502018  0.99494670  0.66189183  1
  Cr  Cr29  1  0.16351706  0.16336840  0.82655040  1
  Fe  Fe30  1  0.16275140  0.49513959  0.49738331  1
  Fe  Fe31  1  0.99546607  0.32930249  0.66247813  1
  Fe  Fe32  1  0.16046001  0.49854975  0.82733435  1
  Fe  Fe33  1  0.15986865  0.82842625  0.49816261  1
  Fe  Fe34  1  -0.00251515  0.66355056  0.66223019  1
  Fe  Fe35  1  0.16283970  0.82773112  0.82682098  1
  Cr  Cr36  1  0.49577887  0.16246655  0.49738872  1
  Fe  Fe37  1  0.32842678  0.99436505  0.66109404  1
  Fe  Fe38  1  0.49711894  0.16294411  0.82667932  1
  Cr  Cr39  1  0.49579097  0.49350497  0.49379513  1
  Fe  Fe40  1  0.32789147  0.33022567  0.66171676  1
  Cr  Cr41  1  0.49424869  0.49431224  0.82799331  1
  Fe  Fe42  1  0.49614809  0.83079587  0.49791649  1
  Fe  Fe43  1  0.32737998  0.66289940  0.66085254  1
  Cr  Cr44  1  0.49672575  0.83247150  0.82827177  1
  Fe  Fe45  1  0.82945064  0.16115154  0.49750031  1
  Fe  Fe46  1  0.66499060  -0.00285633  0.66232127  1
  Fe  Fe47  1  0.82857338  0.16169563  0.82641090  1
  Cr  Cr48  1  0.83214437  0.49617930  0.49648379  1
  Fe  Fe49  1  0.66428516  0.32786969  0.66316083  1
  Fe  Fe50  1  0.83178392  0.49533688  0.82595260  1
  Fe  Fe51  1  0.83071943  0.83224732  0.49659867  1
  Cr  Cr52  1  0.66221159  0.66344229  0.66085151  1
  Cr  Cr53  1  0.83275193  0.82797335  0.83176009  1
" 