8267,Fe42Cr58_2,-218.230693881521, 164.626664522557,Fe42Cr58,"# generated using pymatgen
 data_Cr11Fe16
_symmetry_space_group_name_H-M   'P 1'
_cell_length_a   7.51112367
_cell_length_b   7.51112367
_cell_length_c   10.62233296
_cell_angle_alpha   90.00000000
_cell_angle_beta   90.00000000
_cell_angle_gamma   90.00000000
_symmetry_Int_Tables_number   1
_chemical_formula_structural   Cr11Fe16
_chemical_formula_sum   'Cr22 Fe32'
_cell_volume   599.27993355
_cell_formula_units_Z   2
loop_
 _symmetry_equiv_pos_site_id
 _symmetry_equiv_pos_as_xyz
  1  'x, y, z'
loop_
 _atom_site_type_symbol
 _atom_site_label
 _atom_site_symmetry_multiplicity
 _atom_site_fract_x
 _atom_site_fract_y
 _atom_site_fract_z
 _atom_site_occupancy
  Fe  Fe0  1  -0.00165052  0.99652432  0.99691220  1
  Cr  Cr1  1  0.16365106  0.16144505  0.16243482  1
  Cr  Cr2  1  0.99430976  0.99411275  0.33228324  1
  Cr  Cr3  1  -0.00263430  0.33312466  0.99607707  1
  Fe  Fe4  1  0.16348730  0.49799715  0.16567747  1
  Fe  Fe5  1  0.99692229  0.33233751  0.33051176  1
  Cr  Cr6  1  0.99644294  0.66308156  -0.00126823  1
  Fe  Fe7  1  0.16285721  0.82889046  0.16505552  1
  Fe  Fe8  1  -0.00185568  0.66238073  0.32995312  1
  Fe  Fe9  1  0.32606526  0.99535152  0.99545222  1
  Cr  Cr10  1  0.49467047  0.16429719  0.16083379  1
  Fe  Fe11  1  0.32867575  0.99496631  0.33183607  1
  Fe  Fe12  1  0.32863540  0.33204729  0.99685427  1
  Cr  Cr13  1  0.49963876  0.49844614  0.16348909  1
  Cr  Cr14  1  0.33028753  0.33321769  0.33026055  1
  Cr  Cr15  1  0.32719491  0.66237550  0.99501709  1
  Cr  Cr16  1  0.49491190  0.82937188  0.16339534  1
  Fe  Fe17  1  0.32912639  0.66605274  0.33198437  1
  Cr  Cr18  1  0.66463135  -0.00237647  -0.00196789  1
  Cr  Cr19  1  0.83159529  0.16619973  0.16610038  1
  Cr  Cr20  1  0.66190186  -0.00257626  0.33426135  1
  Fe  Fe21  1  0.66648360  0.33371675  0.99668528  1
  Fe  Fe22  1  0.83128067  0.49905714  0.16676475  1
  Fe  Fe23  1  0.66479342  0.33224159  0.33127911  1
  Fe  Fe24  1  0.66543236  0.66161340  -0.00245241  1
  Fe  Fe25  1  0.82979336  0.82891181  0.16469087  1
  Fe  Fe26  1  0.66448112  0.66412569  0.33189638  1
  Cr  Cr27  1  0.16045806  0.16425793  0.49715808  1
  Fe  Fe28  1  -0.00200257  0.99546554  0.66169590  1
  Fe  Fe29  1  0.16419522  0.16344731  0.82959867  1
  Fe  Fe30  1  0.16521201  0.49856748  0.49692556  1
  Fe  Fe31  1  -0.00091959  0.33071861  0.66389396  1
  Fe  Fe32  1  0.16412773  0.49499410  0.82851080  1
  Fe  Fe33  1  0.16427093  0.82763856  0.49693617  1
  Cr  Cr34  1  -0.00023242  0.66224123  0.66580343  1
  Fe  Fe35  1  0.16363885  0.83252068  0.82982380  1
  Cr  Cr36  1  0.49617020  0.16515363  0.49630815  1
  Cr  Cr37  1  0.33275902  0.99644908  0.66359424  1
  Cr  Cr38  1  0.49567566  0.16585677  0.83414473  1
  Fe  Fe39  1  0.49618608  0.49921354  0.49778349  1
  Fe  Fe40  1  0.32874777  0.33258768  0.66316011  1
  Cr  Cr41  1  0.49846018  0.49781298  0.82833250  1
  Fe  Fe42  1  0.49676230  0.82676189  0.49746487  1
  Fe  Fe43  1  0.33066375  0.66235160  0.66221864  1
  Cr  Cr44  1  0.49819361  0.82793175  0.82964450  1
  Fe  Fe45  1  0.82987625  0.16445052  0.49964916  1
  Fe  Fe46  1  0.66501625  0.99620149  0.66170708  1
  Cr  Cr47  1  0.83370670  0.16328789  0.82538004  1
  Cr  Cr48  1  0.83137360  0.49673319  0.49610444  1
  Fe  Fe49  1  0.66326982  0.33084276  0.66254235  1
  Fe  Fe50  1  0.82925637  0.49640320  0.82851439  1
  Fe  Fe51  1  0.83067849  0.83016190  0.49947129  1
  Fe  Fe52  1  0.66337441  0.66416867  0.66124966  1
  Cr  Cr53  1  0.83151304  0.82840739  0.82992753  1
" 