8961,Fe42Cr58_0,-218.521432477178, 158.109303797783,Fe42Cr58,"# generated using pymatgen
 data_Cr11Fe16
_symmetry_space_group_name_H-M   'P 1'
_cell_length_a   7.52589871
_cell_length_b   7.52589871
_cell_length_c   10.64322802
_cell_angle_alpha   90.00000000
_cell_angle_beta   90.00000000
_cell_angle_gamma   90.00000000
_symmetry_Int_Tables_number   1
_chemical_formula_structural   Cr11Fe16
_chemical_formula_sum   'Cr22 Fe32'
_cell_volume   602.82340325
_cell_formula_units_Z   2
loop_
 _symmetry_equiv_pos_site_id
 _symmetry_equiv_pos_as_xyz
  1  'x, y, z'
loop_
 _atom_site_type_symbol
 _atom_site_label
 _atom_site_symmetry_multiplicity
 _atom_site_fract_x
 _atom_site_fract_y
 _atom_site_fract_z
 _atom_site_occupancy
  Fe  Fe0  1  0.99388262  -0.00335672  -0.00381555  1
  Fe  Fe1  1  0.16466287  0.16385846  0.16200025  1
  Cr  Cr2  1  -0.00294480  -0.00302993  0.32690871  1
  Fe  Fe3  1  -0.00378095  0.32851637  -0.00335572  1
  Cr  Cr4  1  0.16442859  0.49410714  0.16105856  1
  Cr  Cr5  1  -0.00340273  0.32863261  0.33157044  1
  Cr  Cr6  1  0.99259596  0.66380775  -0.00265085  1
  Cr  Cr7  1  0.16349181  0.83216979  0.16408640  1
  Cr  Cr8  1  0.99361755  0.66266765  0.32726953  1
  Cr  Cr9  1  0.33067834  -0.00077644  -0.00324033  1
  Fe  Fe10  1  0.49516101  0.16468843  0.16355258  1
  Fe  Fe11  1  0.33124164  -0.00142389  0.33027437  1
  Fe  Fe12  1  0.33031607  0.32907462  -0.00324785  1
  Fe  Fe13  1  0.49809311  0.49410852  0.16303123  1
  Fe  Fe14  1  0.33090000  0.32877803  0.33027429  1
  Cr  Cr15  1  0.33085609  0.66175963  0.99341552  1
  Cr  Cr16  1  0.49697601  0.82872908  0.16528565  1
  Fe  Fe17  1  0.33113163  0.66089657  0.33024772  1
  Fe  Fe18  1  0.66380079  0.99534532  0.99505807  1
  Cr  Cr19  1  0.82852329  0.16397423  0.16110356  1
  Fe  Fe20  1  0.66161150  -0.00272277  0.32987814  1
  Fe  Fe21  1  0.66169003  0.32893948  -0.00336436  1
  Fe  Fe22  1  0.82613894  0.49653625  0.16232838  1
  Fe  Fe23  1  0.66067774  0.32923519  0.32947358  1
  Fe  Fe24  1  0.66296203  0.66376969  -0.00333667  1
  Fe  Fe25  1  0.82717956  0.82922929  0.16230237  1
  Fe  Fe26  1  0.66125960  0.66166414  0.32925624  1
  Fe  Fe27  1  0.16313205  0.16395521  0.49587377  1
  Cr  Cr28  1  0.99363362  -0.00248197  0.66270281  1
  Cr  Cr29  1  0.16102028  0.16460952  0.83303213  1
  Fe  Fe30  1  0.16426409  0.49599681  0.49626540  1
  Fe  Fe31  1  -0.00314302  0.32973394  0.66199030  1
  Fe  Fe32  1  0.16174494  0.49541545  0.82911236  1
  Cr  Cr33  1  0.16607319  0.82822790  0.49533551  1
  Fe  Fe34  1  -0.00233832  0.66066481  0.66291173  1
  Cr  Cr35  1  0.16344826  0.82802269  0.82794345  1
  Fe  Fe36  1  0.49690568  0.16188886  0.49397025  1
  Cr  Cr37  1  0.33309723  -0.00378474  0.66229831  1
  Fe  Fe38  1  0.49854069  0.16197070  0.83047834  1
  Fe  Fe39  1  0.49441574  0.49732962  0.49450032  1
  Cr  Cr40  1  0.32882317  0.33041092  0.66256939  1
  Cr  Cr41  1  0.49565793  0.49562292  0.83175306  1
  Fe  Fe42  1  0.49665381  0.82911726  0.49430077  1
  Fe  Fe43  1  0.32934048  0.66183291  0.66247319  1
  Fe  Fe44  1  0.49869140  0.83113293  0.82984127  1
  Fe  Fe45  1  0.82830789  0.16189772  0.49548653  1
  Fe  Fe46  1  0.66193899  -0.00309119  0.66340850  1
  Fe  Fe47  1  0.82781245  0.16146720  0.83107575  1
  Cr  Cr48  1  0.82888476  0.49349693  0.49588028  1
  Cr  Cr49  1  0.66278831  0.32620946  0.66101087  1
  Cr  Cr50  1  0.83052890  0.49334872  0.83000852  1
  Cr  Cr51  1  0.82767747  0.83082857  0.49538193  1
  Cr  Cr52  1  0.66154043  0.66472609  0.66394778  1
  Fe  Fe53  1  0.82767640  0.83113741  0.82994835  1
" 