4370,Fe42Cr58_10,-218.391344145305, 155.288970630331,Fe42Cr58,"# generated using pymatgen
 data_Cr11Fe16
_symmetry_space_group_name_H-M   'P 1'
_cell_length_a   7.52238899
_cell_length_b   7.52238899
_cell_length_c   10.63826453
_cell_angle_alpha   90.00000000
_cell_angle_beta   90.00000000
_cell_angle_gamma   90.00000000
_symmetry_Int_Tables_number   1
_chemical_formula_structural   Cr11Fe16
_chemical_formula_sum   'Cr22 Fe32'
_cell_volume   601.98041171
_cell_formula_units_Z   2
loop_
 _symmetry_equiv_pos_site_id
 _symmetry_equiv_pos_as_xyz
  1  'x, y, z'
loop_
 _atom_site_type_symbol
 _atom_site_label
 _atom_site_symmetry_multiplicity
 _atom_site_fract_x
 _atom_site_fract_y
 _atom_site_fract_z
 _atom_site_occupancy
  Cr  Cr0  1  -0.00269226  0.99360083  0.99591631  1
  Cr  Cr1  1  0.16271247  0.16496397  0.16279593  1
  Cr  Cr2  1  0.99438744  -0.00341414  0.33122263  1
  Cr  Cr3  1  0.99432017  0.33305120  -0.00147868  1
  Fe  Fe4  1  0.16425161  0.49742174  0.16429886  1
  Fe  Fe5  1  0.99597495  0.33128616  0.33104013  1
  Fe  Fe6  1  -0.00362465  0.66412599  0.99541254  1
  Fe  Fe7  1  0.16284423  0.82719052  0.16370185  1
  Cr  Cr8  1  -0.00348972  0.65993069  0.33038378  1
  Cr  Cr9  1  0.33099531  0.99374382  0.99596814  1
  Cr  Cr10  1  0.49765827  0.16416017  0.16335266  1
  Cr  Cr11  1  0.33183445  0.99467158  0.32552854  1
  Cr  Cr12  1  0.33233170  0.33084607  0.99497285  1
  Fe  Fe13  1  0.49683443  0.49731275  0.16470007  1
  Fe  Fe14  1  0.32998151  0.33302994  0.33018977  1
  Cr  Cr15  1  0.33094540  0.66426358  -0.00064199  1
  Fe  Fe16  1  0.49738595  0.82661087  0.16467507  1
  Fe  Fe17  1  0.33062226  0.66036409  0.32826819  1
  Cr  Cr18  1  0.66056661  0.99511768  0.99587261  1
  Cr  Cr19  1  0.82865140  0.16433135  0.16466035  1
  Fe  Fe20  1  0.66341652  0.99625813  0.33085260  1
  Fe  Fe21  1  0.66084864  0.33204360  0.99479418  1
  Cr  Cr22  1  0.82735805  0.49700881  0.15936969  1
  Fe  Fe23  1  0.66280928  0.33077043  0.33177372  1
  Fe  Fe24  1  0.66247036  0.66171055  0.99427687  1
  Cr  Cr25  1  0.82671998  0.82779359  0.16308962  1
  Fe  Fe26  1  0.66166220  0.66179171  0.32994056  1
  Cr  Cr27  1  0.16363700  0.16513387  0.49679437  1
  Fe  Fe28  1  0.99355562  0.99463230  0.66317244  1
  Cr  Cr29  1  0.16361014  0.16292052  0.82924348  1
  Fe  Fe30  1  0.16525362  0.49699037  0.49664203  1
  Cr  Cr31  1  0.99376775  0.33224028  0.65941920  1
  Cr  Cr32  1  0.16317222  0.49826743  0.82764482  1
  Cr  Cr33  1  0.16359051  0.82780358  0.49971709  1
  Fe  Fe34  1  0.99435058  0.66439747  0.66278728  1
  Fe  Fe35  1  0.16150018  0.82779661  0.82808093  1
  Fe  Fe36  1  0.49799598  0.16439328  0.49607915  1
  Cr  Cr37  1  0.33236399  0.99629860  0.66730292  1
  Fe  Fe38  1  0.49790710  0.16496923  0.82858696  1
  Fe  Fe39  1  0.49577536  0.49487113  0.49639565  1
  Fe  Fe40  1  0.33291306  0.33168828  0.66250959  1
  Fe  Fe41  1  0.49896604  0.49643100  0.82831373  1
  Cr  Cr42  1  0.49891208  0.82740484  0.49418849  1
  Fe  Fe43  1  0.33118087  0.66095698  0.66350342  1
  Fe  Fe44  1  0.49784185  0.82741950  0.82827722  1
  Fe  Fe45  1  0.82631843  0.16250006  0.49635342  1
  Fe  Fe46  1  0.66461592  -0.00365142  0.66302413  1
  Cr  Cr47  1  0.82808911  0.16365884  0.83107127  1
  Fe  Fe48  1  0.82771737  0.49712035  0.49594143  1
  Fe  Fe49  1  0.66069626  0.33012669  0.66227659  1
  Fe  Fe50  1  0.82745179  0.49862753  0.82966446  1
  Fe  Fe51  1  0.82881644  0.82943619  0.49753972  1
  Fe  Fe52  1  0.66369288  0.66213079  0.66345957  1
  Fe  Fe53  1  0.82989530  0.82681402  0.82843780  1
" 