5914,Fe46Cr54_15,-217.797946255077, 162.845210492326,Fe46Cr54,"# generated using pymatgen
 data_Cr4Fe5
_symmetry_space_group_name_H-M   'P 1'
_cell_length_a   7.52621252
_cell_length_b   7.52621252
_cell_length_c   10.64367181
_cell_angle_alpha   90.00000000
_cell_angle_beta   90.00000000
_cell_angle_gamma   90.00000000
_symmetry_Int_Tables_number   1
_chemical_formula_structural   Cr4Fe5
_chemical_formula_sum   'Cr24 Fe30'
_cell_volume   602.89881404
_cell_formula_units_Z   6
loop_
 _symmetry_equiv_pos_site_id
 _symmetry_equiv_pos_as_xyz
  1  'x, y, z'
loop_
 _atom_site_type_symbol
 _atom_site_label
 _atom_site_symmetry_multiplicity
 _atom_site_fract_x
 _atom_site_fract_y
 _atom_site_fract_z
 _atom_site_occupancy
  Fe  Fe0  1  0.99544699  0.99604765  0.99571795  1
  Cr  Cr1  1  0.16311978  0.15836276  0.16339111  1
  Fe  Fe2  1  0.99574994  -0.00271195  0.33068500  1
  Cr  Cr3  1  0.99416469  0.33028823  -0.00240620  1
  Cr  Cr4  1  0.16185594  0.49732454  0.16395222  1
  Fe  Fe5  1  -0.00373525  0.32765703  0.33033006  1
  Fe  Fe6  1  0.99359574  0.66323879  0.99598348  1
  Fe  Fe7  1  0.16341890  0.83117531  0.16200603  1
  Cr  Cr8  1  0.99467508  0.66232623  0.32709999  1
  Fe  Fe9  1  0.33116551  -0.00352082  0.99594869  1
  Fe  Fe10  1  0.49669154  0.15880893  0.16225591  1
  Fe  Fe11  1  0.33034986  0.99515108  0.32900408  1
  Cr  Cr12  1  0.33061494  0.32671968  0.99573289  1
  Cr  Cr13  1  0.49934132  0.49603988  0.16209270  1
  Cr  Cr14  1  0.32750337  0.32817301  0.32916445  1
  Cr  Cr15  1  0.32915595  0.66432427  -0.00359934  1
  Fe  Fe16  1  0.49608040  0.83238146  0.16271565  1
  Cr  Cr17  1  0.32988475  0.66454702  0.33143662  1
  Fe  Fe18  1  0.66140650  -0.00343841  0.99466744  1
  Cr  Cr19  1  0.82815277  0.16154811  0.16404947  1
  Fe  Fe20  1  0.66218965  0.99280611  0.33000306  1
  Fe  Fe21  1  0.66295872  0.32905225  0.99487799  1
  Fe  Fe22  1  0.82875566  0.49664775  0.16189063  1
  Cr  Cr23  1  0.66452427  0.32696241  0.32657401  1
  Fe  Fe24  1  0.66421872  0.66239790  0.99434392  1
  Cr  Cr25  1  0.82958510  0.82944723  0.16155321  1
  Fe  Fe26  1  0.66237072  0.66477843  0.32966689  1
  Fe  Fe27  1  0.15959783  0.16374230  0.49559044  1
  Fe  Fe28  1  0.99559818  -0.00170102  0.66304834  1
  Fe  Fe29  1  0.16073170  0.16225517  0.83010026  1
  Fe  Fe30  1  0.16076520  0.49388989  0.49599663  1
  Fe  Fe31  1  0.99386169  0.32630583  0.66288870  1
  Cr  Cr32  1  0.16276849  0.49681221  0.82720088  1
  Cr  Cr33  1  0.16136244  0.83195758  0.49608428  1
  Cr  Cr34  1  0.99428647  0.66350766  0.66347186  1
  Cr  Cr35  1  0.16065970  0.83216029  0.83268165  1
  Cr  Cr36  1  0.49750309  0.16249133  0.49399592  1
  Cr  Cr37  1  0.33071261  -0.00317045  0.66426288  1
  Fe  Fe38  1  0.49775224  0.16231236  0.83008290  1
  Cr  Cr39  1  0.49708711  0.49607467  0.49807213  1
  Cr  Cr40  1  0.32774055  0.32819929  0.66343567  1
  Fe  Fe41  1  0.49908388  0.49578207  0.83000306  1
  Fe  Fe42  1  0.49826840  0.83079029  0.49438835  1
  Cr  Cr43  1  0.33011319  0.66345410  0.66129470  1
  Fe  Fe44  1  0.49765803  0.83009112  0.83098603  1
  Fe  Fe45  1  0.83225466  0.16128452  0.49549683  1
  Cr  Cr46  1  0.66586442  -0.00378027  0.66185399  1
  Fe  Fe47  1  0.82994878  0.16255504  0.82979506  1
  Cr  Cr48  1  0.82870404  0.49434396  0.49459374  1
  Fe  Fe49  1  0.66427943  0.32883241  0.66464124  1
  Fe  Fe50  1  0.82751662  0.49559346  0.82986496  1
  Fe  Fe51  1  0.82829312  0.83135518  0.49395840  1
  Cr  Cr52  1  0.66353558  0.66597790  0.66295986  1
  Fe  Fe53  1  0.82855917  0.83009639  0.83186147  1
" 