451,Fe46Cr54_11,-217.862120737821, 165.558817533175,Fe46Cr54,"# generated using pymatgen
 data_Cr4Fe5
_symmetry_space_group_name_H-M   'P 1'
_cell_length_a   7.53431536
_cell_length_b   7.53431536
_cell_length_c   10.65513097
_cell_angle_alpha   90.00000000
_cell_angle_beta   90.00000000
_cell_angle_gamma   90.00000000
_symmetry_Int_Tables_number   1
_chemical_formula_structural   Cr4Fe5
_chemical_formula_sum   'Cr24 Fe30'
_cell_volume   604.84818444
_cell_formula_units_Z   6
loop_
 _symmetry_equiv_pos_site_id
 _symmetry_equiv_pos_as_xyz
  1  'x, y, z'
loop_
 _atom_site_type_symbol
 _atom_site_label
 _atom_site_symmetry_multiplicity
 _atom_site_fract_x
 _atom_site_fract_y
 _atom_site_fract_z
 _atom_site_occupancy
  Cr  Cr0  1  -0.00376368  -0.00426800  0.99425208  1
  Cr  Cr1  1  0.16506738  0.16085797  0.16066690  1
  Cr  Cr2  1  0.99510815  -0.00376811  0.33035545  1
  Cr  Cr3  1  0.99501194  0.33044907  -0.00372178  1
  Fe  Fe4  1  0.16118422  0.49766012  0.16332456  1
  Cr  Cr5  1  0.99402911  0.32996061  0.32713262  1
  Fe  Fe6  1  0.99541355  0.66097090  0.99552401  1
  Fe  Fe7  1  0.16377311  0.82729426  0.16277294  1
  Fe  Fe8  1  -0.00389532  0.66183168  0.32740094  1
  Fe  Fe9  1  0.32954901  -0.00383686  -0.00413959  1
  Fe  Fe10  1  0.49624646  0.16058536  0.16365233  1
  Fe  Fe11  1  0.33117366  0.99520940  0.32858903  1
  Cr  Cr12  1  0.32817540  0.32856967  0.99281317  1
  Cr  Cr13  1  0.49696985  0.49408866  0.16394726  1
  Fe  Fe14  1  0.33006638  0.32810966  0.32829653  1
  Cr  Cr15  1  0.32738905  0.66309829  -0.00362875  1
  Fe  Fe16  1  0.49396282  0.83046803  0.16352465  1
  Fe  Fe17  1  0.32855015  0.66320171  0.32774301  1
  Cr  Cr18  1  0.66097271  -0.00362753  0.99493116  1
  Fe  Fe19  1  0.82676102  0.16316070  0.16318030  1
  Fe  Fe20  1  0.66041804  -0.00340141  0.32887983  1
  Cr  Cr21  1  0.66348440  0.32845069  0.99505871  1
  Fe  Fe22  1  0.82989230  0.49546766  0.16331896  1
  Fe  Fe23  1  0.66177224  0.32707220  0.32837636  1
  Cr  Cr24  1  0.66285169  0.66170181  0.99308201  1
  Cr  Cr25  1  0.82952172  0.82675428  0.16095672  1
  Fe  Fe26  1  0.66198027  0.66284943  0.32838405  1
  Cr  Cr27  1  0.16285437  0.16267517  0.49870451  1
  Fe  Fe28  1  0.99424995  -0.00337673  0.66330984  1
  Fe  Fe29  1  0.16228549  0.16312971  0.82776003  1
  Cr  Cr30  1  0.16376593  0.49508914  0.49682721  1
  Fe  Fe31  1  -0.00420476  0.32828827  0.66377002  1
  Fe  Fe32  1  0.16179245  0.49525856  0.82713102  1
  Cr  Cr33  1  0.16187340  0.82884881  0.49564877  1
  Fe  Fe34  1  -0.00417638  0.66173925  0.66369176  1
  Cr  Cr35  1  0.15933695  0.82994453  0.82938118  1
  Fe  Fe36  1  0.49608381  0.16174778  0.49397433  1
  Cr  Cr37  1  0.32867312  0.99551493  0.66145076  1
  Fe  Fe38  1  0.49438849  0.16296396  0.82875447  1
  Cr  Cr39  1  0.49479702  0.49472247  0.49584364  1
  Fe  Fe40  1  0.32877418  0.32939047  0.66404124  1
  Fe  Fe41  1  0.49426864  0.49458970  0.82785227  1
  Fe  Fe42  1  0.49485696  0.82911393  0.49408043  1
  Fe  Fe43  1  0.32856741  0.66077658  0.66296906  1
  Cr  Cr44  1  0.49640461  0.82849582  0.83019707  1
  Fe  Fe45  1  0.82804127  0.16254327  0.49550242  1
  Cr  Cr46  1  0.66379969  -0.00424251  0.66052819  1
  Fe  Fe47  1  0.82997273  0.16187440  0.82786688  1
  Cr  Cr48  1  0.82800105  0.49579850  0.49330088  1
  Cr  Cr49  1  0.66268073  0.32811812  0.66351490  1
  Fe  Fe50  1  0.83054240  0.49631957  0.82819783  1
  Cr  Cr51  1  0.82861265  0.82953761  0.49758910  1
  Cr  Cr52  1  0.66065340  0.66273192  0.66407327  1
  Fe  Fe53  1  0.83037785  0.82843551  0.82830447  1
" 