3179,Fe46Cr54_12,-217.674324354602, 168.374632465168,Fe46Cr54,"# generated using pymatgen
 data_Cr4Fe5
_symmetry_space_group_name_H-M   'P 1'
_cell_length_a   7.52432614
_cell_length_b   7.52432614
_cell_length_c   10.64100408
_cell_angle_alpha   90.00000000
_cell_angle_beta   90.00000000
_cell_angle_gamma   90.00000000
_symmetry_Int_Tables_number   1
_chemical_formula_structural   Cr4Fe5
_chemical_formula_sum   'Cr24 Fe30'
_cell_volume   602.44559559
_cell_formula_units_Z   6
loop_
 _symmetry_equiv_pos_site_id
 _symmetry_equiv_pos_as_xyz
  1  'x, y, z'
loop_
 _atom_site_type_symbol
 _atom_site_label
 _atom_site_symmetry_multiplicity
 _atom_site_fract_x
 _atom_site_fract_y
 _atom_site_fract_z
 _atom_site_occupancy
  Fe  Fe0  1  0.99209867  -0.00015207  0.99530866  1
  Cr  Cr1  1  0.16273074  0.16170134  0.16330111  1
  Fe  Fe2  1  0.99495515  -0.00133403  0.33102948  1
  Fe  Fe3  1  -0.00251149  0.32657757  0.99501081  1
  Cr  Cr4  1  0.16572049  0.49485176  0.16000901  1
  Cr  Cr5  1  0.99506164  0.32954571  0.33191516  1
  Cr  Cr6  1  -0.00365141  0.66086789  0.99462840  1
  Cr  Cr7  1  0.16025283  0.83156510  0.16019663  1
  Cr  Cr8  1  -0.00315533  0.66296079  0.33183015  1
  Cr  Cr9  1  0.33141478  0.99447482  0.99441483  1
  Fe  Fe10  1  0.49525091  0.16059766  0.16195448  1
  Fe  Fe11  1  0.32840460  -0.00241067  0.32921814  1
  Fe  Fe12  1  0.33204540  0.32695022  0.99578892  1
  Fe  Fe13  1  0.49725459  0.49639507  0.16178158  1
  Cr  Cr14  1  0.32892871  0.33011309  0.33116269  1
  Fe  Fe15  1  0.33264201  0.66126313  0.99593381  1
  Fe  Fe16  1  0.49576978  0.83056024  0.16183139  1
  Cr  Cr17  1  0.32964193  0.66658376  0.32659232  1
  Fe  Fe18  1  0.66402373  0.99552560  0.99589086  1
  Fe  Fe19  1  0.83245601  0.16159927  0.16191978  1
  Cr  Cr20  1  0.66104720  -0.00306681  0.32944304  1
  Cr  Cr21  1  0.66689307  0.32559457  -0.00102775  1
  Fe  Fe22  1  0.83232999  0.49628044  0.16264319  1
  Cr  Cr23  1  0.66459033  0.32830699  0.32448296  1
  Cr  Cr24  1  0.66324475  0.66223778  -0.00376778  1
  Cr  Cr25  1  0.82993993  0.83112084  0.16473180  1
  Fe  Fe26  1  0.66233634  0.66267960  0.32822511  1
  Fe  Fe27  1  0.16134307  0.16487574  0.49847089  1
  Fe  Fe28  1  0.99592392  -0.00087850  0.66286614  1
  Fe  Fe29  1  0.16266602  0.16313644  0.82927251  1
  Fe  Fe30  1  0.16284954  0.49700439  0.49930028  1
  Fe  Fe31  1  -0.00150324  0.32872896  0.66233921  1
  Cr  Cr32  1  0.16443726  0.49337050  0.82968030  1
  Cr  Cr33  1  0.15982591  0.83482775  0.49483733  1
  Fe  Fe34  1  0.99482924  0.66367571  0.66280698  1
  Cr  Cr35  1  0.15970008  0.83107606  0.83361060  1
  Cr  Cr36  1  0.49430874  0.16282354  0.49722514  1
  Fe  Fe37  1  0.32799356  -0.00126947  0.66499523  1
  Fe  Fe38  1  0.49732528  0.15909950  0.82875983  1
  Cr  Cr39  1  0.49661395  0.49592609  0.49557570  1
  Fe  Fe40  1  0.32853037  0.32829858  0.66278373  1
  Cr  Cr41  1  0.49737462  0.49204326  0.82951037  1
  Fe  Fe42  1  0.49616332  0.82963738  0.49677884  1
  Cr  Cr43  1  0.32713441  0.66695978  0.66437028  1
  Fe  Fe44  1  0.49626836  0.82943226  0.82871823  1
  Fe  Fe45  1  0.83021771  0.16092434  0.49745318  1
  Fe  Fe46  1  0.66084429  0.99410655  0.66213918  1
  Fe  Fe47  1  0.83237259  0.16333716  0.82952064  1
  Cr  Cr48  1  0.82678475  0.49855741  0.49831244  1
  Cr  Cr49  1  0.66599080  0.32557725  0.66441208  1
  Fe  Fe50  1  0.83146556  0.49512232  0.82798987  1
  Fe  Fe51  1  0.82588362  0.83160722  0.49820293  1
  Fe  Fe52  1  0.66142797  0.66340311  0.66372771  1
  Cr  Cr53  1  0.82797687  0.83167097  0.82635552  1
" 