8662,Fe46Cr54_9,-217.5826566968, 165.790195523396,Fe46Cr54,"# generated using pymatgen
 data_Cr4Fe5
_symmetry_space_group_name_H-M   'P 1'
_cell_length_a   7.52587819
_cell_length_b   7.52587819
_cell_length_c   10.64319901
_cell_angle_alpha   90.00000000
_cell_angle_beta   90.00000000
_cell_angle_gamma   90.00000000
_symmetry_Int_Tables_number   1
_chemical_formula_structural   Cr4Fe5
_chemical_formula_sum   'Cr24 Fe30'
_cell_volume   602.81847316
_cell_formula_units_Z   6
loop_
 _symmetry_equiv_pos_site_id
 _symmetry_equiv_pos_as_xyz
  1  'x, y, z'
loop_
 _atom_site_type_symbol
 _atom_site_label
 _atom_site_symmetry_multiplicity
 _atom_site_fract_x
 _atom_site_fract_y
 _atom_site_fract_z
 _atom_site_occupancy
  Fe  Fe0  1  -0.00214788  -0.00173439  -0.00326555  1
  Fe  Fe1  1  0.16092297  0.16375265  0.16072963  1
  Cr  Cr2  1  -0.00164712  -0.00309652  0.32600604  1
  Fe  Fe3  1  0.99520265  0.32783263  -0.00351179  1
  Fe  Fe4  1  0.16116882  0.49482682  0.16291739  1
  Fe  Fe5  1  -0.00350734  0.33011509  0.32866460  1
  Cr  Cr6  1  -0.00177233  0.66435941  -0.00274820  1
  Fe  Fe7  1  0.16431738  0.82925248  0.16101782  1
  Fe  Fe8  1  -0.00271738  0.65885431  0.32886580  1
  Fe  Fe9  1  0.32672961  0.99414663  0.99477433  1
  Cr  Cr10  1  0.49548299  0.16301521  0.16152865  1
  Cr  Cr11  1  0.32866658  -0.00228853  0.32820936  1
  Cr  Cr12  1  0.32798422  0.32793937  0.99561410  1
  Cr  Cr13  1  0.49576819  0.49666687  0.15932198  1
  Cr  Cr14  1  0.32867853  0.32688020  0.33208881  1
  Fe  Fe15  1  0.32813032  0.66503380  0.99562578  1
  Cr  Cr16  1  0.49702668  0.82913396  0.16160321  1
  Cr  Cr17  1  0.32869547  0.66254111  0.32899919  1
  Cr  Cr18  1  0.66346443  -0.00084726  0.99382379  1
  Fe  Fe19  1  0.83007861  0.16511076  0.16179910  1
  Fe  Fe20  1  0.66103568  -0.00272558  0.32993309  1
  Fe  Fe21  1  0.66522568  0.32974889  0.99586307  1
  Fe  Fe22  1  0.83002193  0.49493950  0.16154280  1
  Cr  Cr23  1  0.66278195  0.32920173  0.32945957  1
  Fe  Fe24  1  0.66375688  0.66475574  0.99557012  1
  Cr  Cr25  1  0.83004214  0.83013296  0.16622203  1
  Cr  Cr26  1  0.66435052  0.66016430  0.33286018  1
  Fe  Fe27  1  0.16285227  0.16109233  0.49944324  1
  Fe  Fe28  1  0.99582485  -0.00276102  0.66258750  1
  Cr  Cr29  1  0.16099625  0.16232724  0.82577271  1
  Cr  Cr30  1  0.16409460  0.49235950  0.49880086  1
  Fe  Fe31  1  0.99516133  0.32919682  0.66332182  1
  Fe  Fe32  1  0.16237310  0.49668462  0.82866904  1
  Cr  Cr33  1  0.16219984  0.82928956  0.49656426  1
  Cr  Cr34  1  -0.00285478  0.66333083  0.66246592  1
  Fe  Fe35  1  0.16535358  0.82911998  0.82833458  1
  Fe  Fe36  1  0.49498144  0.16063982  0.49802104  1
  Fe  Fe37  1  0.33149211  0.99519184  0.66265633  1
  Fe  Fe38  1  0.49540069  0.16132605  0.82936263  1
  Fe  Fe39  1  0.49601223  0.49531796  0.49805029  1
  Fe  Fe40  1  0.32988097  0.32930188  0.66341880  1
  Cr  Cr41  1  0.49392178  0.49764249  0.83302177  1
  Fe  Fe42  1  0.49497048  0.83122936  0.49673141  1
  Fe  Fe43  1  0.33100307  0.66321574  0.66369252  1
  Fe  Fe44  1  0.49411183  0.83082967  0.82953671  1
  Cr  Cr45  1  0.83032084  0.16132071  0.49719195  1
  Fe  Fe46  1  0.66040046  -0.00389942  0.66358585  1
  Fe  Fe47  1  0.82961552  0.16374748  0.82862227  1
  Fe  Fe48  1  0.83143630  0.49418653  0.49689209  1
  Cr  Cr49  1  0.66087451  0.32801231  0.66457248  1
  Cr  Cr50  1  0.82960125  0.49557273  0.83126528  1
  Cr  Cr51  1  0.82823521  0.83075641  0.49412297  1
  Cr  Cr52  1  0.66252005  0.66297800  0.66126719  1
  Cr  Cr53  1  0.83041822  0.83321659  0.82745173  1
" 