7039,Fe46Cr54_10,-217.720013238563, 167.540630883395,Fe46Cr54,"# generated using pymatgen
 data_Cr4Fe5
_symmetry_space_group_name_H-M   'P 1'
_cell_length_a   7.52413913
_cell_length_b   7.52413913
_cell_length_c   10.64073960
_cell_angle_alpha   90.00000000
_cell_angle_beta   90.00000000
_cell_angle_gamma   90.00000000
_symmetry_Int_Tables_number   1
_chemical_formula_structural   Cr4Fe5
_chemical_formula_sum   'Cr24 Fe30'
_cell_volume   602.40067631
_cell_formula_units_Z   6
loop_
 _symmetry_equiv_pos_site_id
 _symmetry_equiv_pos_as_xyz
  1  'x, y, z'
loop_
 _atom_site_type_symbol
 _atom_site_label
 _atom_site_symmetry_multiplicity
 _atom_site_fract_x
 _atom_site_fract_y
 _atom_site_fract_z
 _atom_site_occupancy
  Cr  Cr0  1  0.99549728  0.99464819  -0.00153203  1
  Fe  Fe1  1  0.16679804  0.16264310  0.16249084  1
  Cr  Cr2  1  -0.00083514  -0.00333387  0.32421767  1
  Cr  Cr3  1  -0.00204893  0.32877164  -0.00100251  1
  Fe  Fe4  1  0.16481568  0.49723655  0.16260787  1
  Fe  Fe5  1  -0.00169784  0.33036357  0.32814269  1
  Cr  Cr6  1  -0.00335806  0.66455023  0.99381622  1
  Fe  Fe7  1  0.16456010  0.82891585  0.16132234  1
  Cr  Cr8  1  -0.00244115  0.66595101  0.32996103  1
  Fe  Fe9  1  0.33074694  -0.00354170  -0.00334493  1
  Fe  Fe10  1  0.49703176  0.16295813  0.16151688  1
  Fe  Fe11  1  0.33172243  -0.00375281  0.32886865  1
  Fe  Fe12  1  0.33051117  0.32869653  -0.00108725  1
  Fe  Fe13  1  0.49497066  0.49490046  0.16091640  1
  Cr  Cr14  1  0.33174980  0.32871996  0.32878179  1
  Fe  Fe15  1  0.32770357  0.66305756  -0.00198815  1
  Cr  Cr16  1  0.49559836  0.82963648  0.16341604  1
  Cr  Cr17  1  0.33133132  0.66312931  0.32944631  1
  Fe  Fe18  1  0.66121931  -0.00288338  -0.00297214  1
  Fe  Fe19  1  0.82611072  0.16176545  0.16357293  1
  Fe  Fe20  1  0.66045731  -0.00374937  0.32851383  1
  Fe  Fe21  1  0.66225374  0.32796951  -0.00166292  1
  Cr  Cr22  1  0.82906652  0.49588180  0.16708292  1
  Cr  Cr23  1  0.66004677  0.33094690  0.33125390  1
  Cr  Cr24  1  0.66205149  0.66365604  -0.00270609  1
  Fe  Fe25  1  0.82784972  0.83015667  0.16373061  1
  Fe  Fe26  1  0.66148209  0.66388043  0.33058578  1
  Cr  Cr27  1  0.16545269  0.16099979  0.49545506  1
  Cr  Cr28  1  -0.00330662  0.99356610  0.66441504  1
  Cr  Cr29  1  0.16576382  0.16402968  0.82870632  1
  Cr  Cr30  1  0.16222938  0.49593923  0.49969693  1
  Cr  Cr31  1  0.99548429  0.32858461  0.66145582  1
  Fe  Fe32  1  0.16395053  0.49573512  0.82826914  1
  Fe  Fe33  1  0.16447807  0.83018838  0.49752438  1
  Fe  Fe34  1  0.99590858  0.66305469  0.66247477  1
  Cr  Cr35  1  0.16730581  0.82787323  0.82746727  1
  Fe  Fe36  1  0.49608701  0.15952859  0.49631250  1
  Fe  Fe37  1  0.33445708  0.99603687  0.66209738  1
  Fe  Fe38  1  0.49534793  0.16134180  0.83116830  1
  Fe  Fe39  1  0.49534816  0.49721912  0.49657181  1
  Fe  Fe40  1  0.33098968  0.32958206  0.66294075  1
  Cr  Cr41  1  0.49316671  0.49690673  0.83414622  1
  Fe  Fe42  1  0.49316419  0.83220653  0.49531479  1
  Fe  Fe43  1  0.33028226  0.66308557  0.66217852  1
  Fe  Fe44  1  0.49794562  0.83253127  0.83024097  1
  Cr  Cr45  1  0.82997446  0.16335959  0.49321240  1
  Fe  Fe46  1  0.66066534  -0.00369838  0.66287260  1
  Cr  Cr47  1  0.82664771  0.16169543  0.83138490  1
  Fe  Fe48  1  0.82887879  0.49690798  0.49498788  1
  Cr  Cr49  1  0.65822061  0.32830867  0.66144481  1
  Cr  Cr50  1  0.82969786  0.49582413  0.82698925  1
  Cr  Cr51  1  0.82643645  0.82990292  0.49490612  1
  Cr  Cr52  1  0.66028822  0.66352744  0.66032252  1
  Fe  Fe53  1  0.82707163  0.82971850  0.82862477  1
" 