7043,Fe46Cr54_4,-217.428518910714, 163.137232897671,Fe46Cr54,"# generated using pymatgen
 data_Cr4Fe5
_symmetry_space_group_name_H-M   'P 1'
_cell_length_a   7.52583509
_cell_length_b   7.52583509
_cell_length_c   10.64313805
_cell_angle_alpha   90.00000000
_cell_angle_beta   90.00000000
_cell_angle_gamma   90.00000000
_symmetry_Int_Tables_number   1
_chemical_formula_structural   Cr4Fe5
_chemical_formula_sum   'Cr24 Fe30'
_cell_volume   602.80811557
_cell_formula_units_Z   6
loop_
 _symmetry_equiv_pos_site_id
 _symmetry_equiv_pos_as_xyz
  1  'x, y, z'
loop_
 _atom_site_type_symbol
 _atom_site_label
 _atom_site_symmetry_multiplicity
 _atom_site_fract_x
 _atom_site_fract_y
 _atom_site_fract_z
 _atom_site_occupancy
  Fe  Fe0  1  -0.00327114  0.99491083  0.99522562  1
  Fe  Fe1  1  0.16391267  0.15988807  0.16171477  1
  Cr  Cr2  1  -0.00389244  0.99528862  0.32991429  1
  Cr  Cr3  1  -0.00108077  0.32758684  -0.00242112  1
  Fe  Fe4  1  0.16521144  0.49848660  0.16100972  1
  Cr  Cr5  1  -0.00090726  0.32927160  0.32760458  1
  Fe  Fe6  1  -0.00310362  0.66311420  -0.00355339  1
  Fe  Fe7  1  0.16496684  0.82981095  0.16122697  1
  Cr  Cr8  1  -0.00228454  0.66379848  0.33071027  1
  Fe  Fe9  1  0.32953606  -0.00371964  -0.00334526  1
  Cr  Cr10  1  0.49612925  0.16043853  0.16555925  1
  Fe  Fe11  1  0.32883801  0.99449585  0.32791564  1
  Fe  Fe12  1  0.33011173  0.32977985  -0.00292589  1
  Fe  Fe13  1  0.49580589  0.49867472  0.16234855  1
  Cr  Cr14  1  0.32956387  0.33172211  0.32825120  1
  Fe  Fe15  1  0.33086115  0.66223032  -0.00289742  1
  Fe  Fe16  1  0.49544339  0.82788813  0.16272190  1
  Fe  Fe17  1  0.33040123  0.66363400  0.32713217  1
  Fe  Fe18  1  0.66158895  0.99464713  0.99422089  1
  Cr  Cr19  1  0.82698350  0.16211588  0.16211040  1
  Fe  Fe20  1  0.66115262  0.99431640  0.32960360  1
  Cr  Cr21  1  0.66053334  0.33085135  0.99464594  1
  Cr  Cr22  1  0.82870833  0.49677495  0.16433471  1
  Fe  Fe23  1  0.66122123  0.33057402  0.32884653  1
  Fe  Fe24  1  0.66056985  0.66426869  0.99540469  1
  Cr  Cr25  1  0.82890251  0.82922198  0.16132163  1
  Fe  Fe26  1  0.66029482  0.66359116  0.32884874  1
  Cr  Cr27  1  0.16673596  0.16079501  0.49769529  1
  Cr  Cr28  1  0.99392819  0.99535339  0.66360503  1
  Fe  Fe29  1  0.16365416  0.16244479  0.83007017  1
  Cr  Cr30  1  0.16323187  0.49853527  0.49940700  1
  Cr  Cr31  1  -0.00313334  0.32760532  0.66271802  1
  Cr  Cr32  1  0.16360278  0.49752157  0.82762407  1
  Cr  Cr33  1  0.16454278  0.82885010  0.49780545  1
  Fe  Fe34  1  0.99335370  0.66493025  0.66293395  1
  Cr  Cr35  1  0.16383095  0.82986426  0.82911837  1
  Fe  Fe36  1  0.49563635  0.16311735  0.49598830  1
  Fe  Fe37  1  0.33019533  0.99600979  0.66389911  1
  Cr  Cr38  1  0.49486344  0.16195152  0.82745670  1
  Cr  Cr39  1  0.49730367  0.49526510  0.49811090  1
  Fe  Fe40  1  0.33183232  0.32861147  0.66345393  1
  Fe  Fe41  1  0.49479204  0.49847808  0.82829492  1
  Cr  Cr42  1  0.49382874  0.83154536  0.49416633  1
  Fe  Fe43  1  0.33251221  0.66418890  0.66403182  1
  Fe  Fe44  1  0.49647435  0.82662976  0.83031027  1
  Cr  Cr45  1  0.82521721  0.16447082  0.49300527  1
  Cr  Cr46  1  0.66263316  0.99327763  0.66304722  1
  Fe  Fe47  1  0.83020579  0.16135313  0.83089992  1
  Cr  Cr48  1  0.82835941  0.49686272  0.49578955  1
  Fe  Fe49  1  0.66211393  0.32886523  0.66400533  1
  Cr  Cr50  1  0.82889677  0.49748100  0.82847084  1
  Fe  Fe51  1  0.82773047  0.82842325  0.49609610  1
  Fe  Fe52  1  0.66232079  0.66364204  0.66363499  1
  Fe  Fe53  1  0.82823162  0.82935690  0.83192375  1
" 