650,Fe46Cr54_3,-217.313310894459, 164.756595990837,Fe46Cr54,"# generated using pymatgen
 data_Cr4Fe5
_symmetry_space_group_name_H-M   'P 1'
_cell_length_a   7.52267993
_cell_length_b   7.52267993
_cell_length_c   10.63867599
_cell_angle_alpha   90.00000000
_cell_angle_beta   90.00000000
_cell_angle_gamma   90.00000000
_symmetry_Int_Tables_number   1
_chemical_formula_structural   Cr4Fe5
_chemical_formula_sum   'Cr24 Fe30'
_cell_volume   602.05026335
_cell_formula_units_Z   6
loop_
 _symmetry_equiv_pos_site_id
 _symmetry_equiv_pos_as_xyz
  1  'x, y, z'
loop_
 _atom_site_type_symbol
 _atom_site_label
 _atom_site_symmetry_multiplicity
 _atom_site_fract_x
 _atom_site_fract_y
 _atom_site_fract_z
 _atom_site_occupancy
  Fe  Fe0  1  -0.00297688  -0.00276106  0.99561291  1
  Fe  Fe1  1  0.16202707  0.16286707  0.16225381  1
  Cr  Cr2  1  0.99597871  0.99587692  0.33027328  1
  Fe  Fe3  1  0.99608004  0.32881147  0.99562101  1
  Cr  Cr4  1  0.16339407  0.49494050  0.16281460  1
  Cr  Cr5  1  0.99534127  0.32957369  0.32811174  1
  Fe  Fe6  1  -0.00296359  0.66285499  0.99454049  1
  Cr  Cr7  1  0.16306081  0.82929467  0.16249558  1
  Fe  Fe8  1  -0.00367735  0.66296700  0.33058898  1
  Fe  Fe9  1  0.32821508  0.99630136  0.99547995  1
  Cr  Cr10  1  0.49570480  0.16255308  0.16334915  1
  Cr  Cr11  1  0.32929130  0.99591524  0.33030973  1
  Cr  Cr12  1  0.32872096  0.32936800  -0.00275826  1
  Fe  Fe13  1  0.49546023  0.49735365  0.16369588  1
  Fe  Fe14  1  0.33035403  0.33036106  0.32951328  1
  Fe  Fe15  1  0.32861957  0.66336954  0.99578887  1
  Cr  Cr16  1  0.49712565  0.82895529  0.16294351  1
  Fe  Fe17  1  0.32992041  0.66159883  0.33015891  1
  Cr  Cr18  1  0.66368527  -0.00242427  -0.00311872  1
  Fe  Fe19  1  0.83098668  0.16244350  0.16257097  1
  Fe  Fe20  1  0.66349998  -0.00314720  0.33004640  1
  Cr  Cr21  1  0.66441348  0.32935312  -0.00340971  1
  Cr  Cr22  1  0.83082376  0.49637029  0.16266764  1
  Cr  Cr23  1  0.66231265  0.32981050  0.32971512  1
  Cr  Cr24  1  0.66339909  0.66197940  0.99548261  1
  Cr  Cr25  1  0.82871905  0.83031915  0.16382526  1
  Fe  Fe26  1  0.66267053  0.66265459  0.32992917  1
  Cr  Cr27  1  0.16306760  0.16440483  0.49740185  1
  Fe  Fe28  1  -0.00358924  -0.00303306  0.66365026  1
  Fe  Fe29  1  0.16240068  0.16297200  0.82953072  1
  Cr  Cr30  1  0.16332949  0.49516931  0.49536858  1
  Fe  Fe31  1  0.99558944  0.32871992  0.66366574  1
  Fe  Fe32  1  0.16185467  0.49601743  0.83006046  1
  Fe  Fe33  1  0.16255024  0.82919939  0.49578069  1
  Cr  Cr34  1  0.99605769  0.66320887  0.66341419  1
  Fe  Fe35  1  0.16185113  0.82991851  0.83098790  1
  Fe  Fe36  1  0.49712183  0.16460335  0.49618767  1
  Cr  Cr37  1  0.32812225  -0.00294273  0.66379307  1
  Fe  Fe38  1  0.49588025  0.16337369  0.82933750  1
  Fe  Fe39  1  0.49711186  0.49548488  0.49640162  1
  Fe  Fe40  1  0.33006604  0.32922137  0.66348009  1
  Cr  Cr41  1  0.49628407  0.49591300  0.82845304  1
  Cr  Cr42  1  0.49783079  0.82908439  0.49454403  1
  Cr  Cr43  1  0.32843239  0.66289545  0.66286437  1
  Cr  Cr44  1  0.49674090  0.83024480  0.83142487  1
  Fe  Fe45  1  0.82880092  0.16377613  0.49710993  1
  Cr  Cr46  1  0.66370449  -0.00126876  0.66290295  1
  Fe  Fe47  1  0.83062648  0.16336609  0.82922409  1
  Fe  Fe48  1  0.82841454  0.49591950  0.49659585  1
  Fe  Fe49  1  0.66325258  0.33016308  0.66254677  1
  Fe  Fe50  1  0.83076458  0.49602942  0.82932707  1
  Cr  Cr51  1  0.82902426  0.82934735  0.49507462  1
  Fe  Fe52  1  0.66368936  0.66146297  0.66307965  1
  Fe  Fe53  1  0.83116150  0.82951588  0.82961772  1
" 