5007,Fe46Cr54_7,-217.639826811772, 169.126953496384,Fe46Cr54,"# generated using pymatgen
 data_Cr4Fe5
_symmetry_space_group_name_H-M   'P 1'
_cell_length_a   7.52880520
_cell_length_b   7.52880520
_cell_length_c   10.64733842
_cell_angle_alpha   90.00000000
_cell_angle_beta   90.00000000
_cell_angle_gamma   90.00000000
_symmetry_Int_Tables_number   1
_chemical_formula_structural   Cr4Fe5
_chemical_formula_sum   'Cr24 Fe30'
_cell_volume   603.52210028
_cell_formula_units_Z   6
loop_
 _symmetry_equiv_pos_site_id
 _symmetry_equiv_pos_as_xyz
  1  'x, y, z'
loop_
 _atom_site_type_symbol
 _atom_site_label
 _atom_site_symmetry_multiplicity
 _atom_site_fract_x
 _atom_site_fract_y
 _atom_site_fract_z
 _atom_site_occupancy
  Cr  Cr0  1  0.99486743  0.99545099  -0.00268867  1
  Fe  Fe1  1  0.16221904  0.16314553  0.16196147  1
  Cr  Cr2  1  0.99556151  -0.00322960  0.32835613  1
  Fe  Fe3  1  0.99389038  0.33028864  -0.00300904  1
  Fe  Fe4  1  0.16128298  0.49530277  0.16209769  1
  Cr  Cr5  1  -0.00229383  0.32877615  0.32810594  1
  Fe  Fe6  1  0.99494175  0.66163875  -0.00396529  1
  Cr  Cr7  1  0.16395188  0.82962041  0.16094438  1
  Cr  Cr8  1  0.99286637  0.66215327  0.32805904  1
  Fe  Fe9  1  0.32935265  0.99579082  -0.00409943  1
  Cr  Cr10  1  0.49732008  0.16181020  0.16124636  1
  Fe  Fe11  1  0.32944540  0.99542768  0.32969994  1
  Cr  Cr12  1  0.32822312  0.32813204  0.99585665  1
  Cr  Cr13  1  0.49796069  0.49710439  0.16408131  1
  Cr  Cr14  1  0.32757111  0.32812006  0.33044716  1
  Cr  Cr15  1  0.32787623  0.66239928  0.99587272  1
  Fe  Fe16  1  0.49589539  0.82924643  0.16339215  1
  Fe  Fe17  1  0.33050706  0.66412276  0.32862423  1
  Cr  Cr18  1  0.66342684  0.99580568  0.99438834  1
  Fe  Fe19  1  0.82970045  0.16397052  0.16221685  1
  Cr  Cr20  1  0.66225946  0.99241417  0.32989628  1
  Fe  Fe21  1  0.66492755  0.32874414  0.99529144  1
  Fe  Fe22  1  0.82970766  0.49540944  0.16209271  1
  Fe  Fe23  1  0.66377336  0.33015211  0.32937155  1
  Cr  Cr24  1  0.66533211  0.66337558  -0.00288496  1
  Fe  Fe25  1  0.82802506  0.82831185  0.16256555  1
  Fe  Fe26  1  0.66269445  0.66245130  0.32923019  1
  Fe  Fe27  1  0.16362459  0.16173044  0.49695884  1
  Fe  Fe28  1  0.99529789  0.99555649  0.66302244  1
  Cr  Cr29  1  0.16101295  0.15998389  0.82855193  1
  Cr  Cr30  1  0.16193326  0.49696164  0.49747695  1
  Fe  Fe31  1  0.99483016  0.32936783  0.66242242  1
  Cr  Cr32  1  0.15997712  0.49911455  0.82881126  1
  Cr  Cr33  1  0.16380003  0.83025878  0.49890139  1
  Fe  Fe34  1  0.99542170  0.66277502  0.66291069  1
  Fe  Fe35  1  0.16174884  0.82911782  0.82829393  1
  Fe  Fe36  1  0.49471076  0.16067601  0.49575633  1
  Fe  Fe37  1  0.32996707  0.99543509  0.66209332  1
  Fe  Fe38  1  0.49670515  0.16173487  0.82938107  1
  Cr  Cr39  1  0.49731110  0.49729911  0.49354739  1
  Cr  Cr40  1  0.32849331  0.32757784  0.66138927  1
  Cr  Cr41  1  0.49723609  0.49469538  0.83006845  1
  Fe  Fe42  1  0.49587598  0.83017342  0.49601013  1
  Fe  Fe43  1  0.32843023  0.66431787  0.66269439  1
  Cr  Cr44  1  0.49366073  0.83130102  0.82905324  1
  Cr  Cr45  1  0.82930044  0.16286439  0.49690735  1
  Fe  Fe46  1  0.66242606  -0.00397328  0.66256617  1
  Fe  Fe47  1  0.82862359  0.16317364  0.82865075  1
  Fe  Fe48  1  0.82935150  0.49694723  0.49589575  1
  Cr  Cr49  1  0.66222813  0.32789113  0.66419730  1
  Fe  Fe50  1  0.83064887  0.49542078  0.82970453  1
  Fe  Fe51  1  0.82830533  0.82803346  0.49682912  1
  Cr  Cr52  1  0.66505464  0.66505263  0.66098226  1
  Fe  Fe53  1  0.83126164  0.82910092  0.82829593  1
" 