5207,Fe46Cr54_1,-217.609143953172, 166.340818984496,Fe46Cr54,"# generated using pymatgen
 data_Cr4Fe5
_symmetry_space_group_name_H-M   'P 1'
_cell_length_a   7.53411547
_cell_length_b   7.53411547
_cell_length_c   10.65484828
_cell_angle_alpha   90.00000000
_cell_angle_beta   90.00000000
_cell_angle_gamma   90.00000000
_symmetry_Int_Tables_number   1
_chemical_formula_structural   Cr4Fe5
_chemical_formula_sum   'Cr24 Fe30'
_cell_volume   604.80004333
_cell_formula_units_Z   6
loop_
 _symmetry_equiv_pos_site_id
 _symmetry_equiv_pos_as_xyz
  1  'x, y, z'
loop_
 _atom_site_type_symbol
 _atom_site_label
 _atom_site_symmetry_multiplicity
 _atom_site_fract_x
 _atom_site_fract_y
 _atom_site_fract_z
 _atom_site_occupancy
  Cr  Cr0  1  -0.00263545  0.99422572  -0.00401858  1
  Fe  Fe1  1  0.16322301  0.16237866  0.16229003  1
  Fe  Fe2  1  -0.00416382  0.99509299  0.32933047  1
  Fe  Fe3  1  -0.00230446  0.32965449  0.99550740  1
  Cr  Cr4  1  0.16337727  0.49503474  0.16053978  1
  Cr  Cr5  1  -0.00445035  0.32770287  0.33027775  1
  Fe  Fe6  1  0.99554266  0.66246288  -0.00439212  1
  Fe  Fe7  1  0.16143816  0.82937601  0.16276040  1
  Cr  Cr8  1  0.99481451  0.66244958  0.32940962  1
  Cr  Cr9  1  0.32889535  -0.00251247  -0.00404478  1
  Fe  Fe10  1  0.49322556  0.16379408  0.16252017  1
  Cr  Cr11  1  0.32734250  0.99444410  0.32752415  1
  Fe  Fe12  1  0.32851184  0.32817456  0.99492985  1
  Fe  Fe13  1  0.49563156  0.49545261  0.16348882  1
  Fe  Fe14  1  0.32903981  0.32859331  0.32781562  1
  Cr  Cr15  1  0.32708068  0.66193755  0.99472779  1
  Fe  Fe16  1  0.49522967  0.82748002  0.16300979  1
  Fe  Fe17  1  0.33056951  0.66262541  0.32811882  1
  Cr  Cr18  1  0.66036071  0.99551522  -0.00318247  1
  Cr  Cr19  1  0.83013621  0.16096373  0.16208211  1
  Cr  Cr20  1  0.66140049  0.99390436  0.32689818  1
  Cr  Cr21  1  0.66068034  0.32895652  0.99546849  1
  Fe  Fe22  1  0.82871631  0.49689188  0.16166177  1
  Cr  Cr23  1  0.66334484  0.33078039  0.32953663  1
  Cr  Cr24  1  0.66371724  0.66213328  -0.00245467  1
  Fe  Fe25  1  0.82983099  0.82701974  0.16277439  1
  Fe  Fe26  1  0.66168844  0.66283634  0.32826827  1
  Fe  Fe27  1  0.16208464  0.16053663  0.49599269  1
  Fe  Fe28  1  -0.00276782  0.99464770  0.66173829  1
  Fe  Fe29  1  0.16369776  0.16281979  0.82825004  1
  Cr  Cr30  1  0.16413156  0.49572772  0.49468208  1
  Cr  Cr31  1  -0.00437662  0.32810828  0.65969101  1
  Fe  Fe32  1  0.16331310  0.49416990  0.82991675  1
  Fe  Fe33  1  0.16249048  0.83104051  0.49555182  1
  Cr  Cr34  1  -0.00368672  0.66302485  0.66417784  1
  Fe  Fe35  1  0.16032510  0.82966675  0.82851299  1
  Cr  Cr36  1  0.49539289  0.16231603  0.49861433  1
  Fe  Fe37  1  0.32617867  -0.00344136  0.66226128  1
  Fe  Fe38  1  0.49344241  0.16460593  0.82760710  1
  Cr  Cr39  1  0.49490523  0.49686763  0.49471890  1
  Fe  Fe40  1  0.32944003  0.32767462  0.66389902  1
  Fe  Fe41  1  0.49423003  0.49296736  0.82816865  1
  Fe  Fe42  1  0.49476690  0.82851026  0.49508326  1
  Cr  Cr43  1  0.32763366  0.66353440  0.66267396  1
  Cr  Cr44  1  0.49512157  0.83004031  0.82717800  1
  Fe  Fe45  1  0.83020779  0.16155618  0.49599728  1
  Cr  Cr46  1  0.66174542  -0.00337375  0.66294985  1
  Cr  Cr47  1  0.82863273  0.16076103  0.82769763  1
  Fe  Fe48  1  0.82790585  0.49556678  0.49575924  1
  Fe  Fe49  1  0.66130110  0.32949366  0.66235714  1
  Cr  Cr50  1  0.83052818  0.49588855  0.83069190  1
  Fe  Fe51  1  0.82923864  0.82944692  0.49506237  1
  Cr  Cr52  1  0.66276719  0.66120160  0.66052798  1
  Fe  Fe53  1  0.83075567  0.82892216  0.82903994  1
" 