7060,Fe46Cr54_8,-217.547723563961, 163.221947825669,Fe46Cr54,"# generated using pymatgen
 data_Cr4Fe5
_symmetry_space_group_name_H-M   'P 1'
_cell_length_a   7.52687208
_cell_length_b   7.52687208
_cell_length_c   10.64460458
_cell_angle_alpha   90.00000000
_cell_angle_beta   90.00000000
_cell_angle_gamma   90.00000000
_symmetry_Int_Tables_number   1
_chemical_formula_structural   Cr4Fe5
_chemical_formula_sum   'Cr24 Fe30'
_cell_volume   603.05733518
_cell_formula_units_Z   6
loop_
 _symmetry_equiv_pos_site_id
 _symmetry_equiv_pos_as_xyz
  1  'x, y, z'
loop_
 _atom_site_type_symbol
 _atom_site_label
 _atom_site_symmetry_multiplicity
 _atom_site_fract_x
 _atom_site_fract_y
 _atom_site_fract_z
 _atom_site_occupancy
  Cr  Cr0  1  0.99568584  -0.00312791  0.99401352  1
  Fe  Fe1  1  0.16134343  0.16437418  0.16268766  1
  Fe  Fe2  1  0.99485482  0.99563726  0.32913491  1
  Fe  Fe3  1  -0.00137234  0.33047530  -0.00281314  1
  Fe  Fe4  1  0.15998996  0.49532513  0.16149859  1
  Fe  Fe5  1  0.99568361  0.33069606  0.32735673  1
  Fe  Fe6  1  -0.00298887  0.66131091  0.99594957  1
  Cr  Cr7  1  0.16244157  0.82756519  0.16464811  1
  Fe  Fe8  1  -0.00335536  0.66157363  0.33017742  1
  Cr  Cr9  1  0.32872956  0.99520055  0.99520329  1
  Fe  Fe10  1  0.49686390  0.16020679  0.16297207  1
  Cr  Cr11  1  0.32869887  0.99480073  0.32990185  1
  Fe  Fe12  1  0.32598717  0.32968329  -0.00339473  1
  Cr  Cr13  1  0.49493841  0.49676202  0.16130271  1
  Cr  Cr14  1  0.32903897  0.33086779  0.32864676  1
  Fe  Fe15  1  0.32805669  0.66227155  0.99555865  1
  Fe  Fe16  1  0.49702733  0.82985520  0.16187443  1
  Cr  Cr17  1  0.32878667  0.66212299  0.33200227  1
  Fe  Fe18  1  0.66254982  0.99463570  -0.00379344  1
  Fe  Fe19  1  0.83008492  0.16329158  0.16446179  1
  Fe  Fe20  1  0.66271129  -0.00392086  0.32836030  1
  Cr  Cr21  1  0.66520784  0.32981087  -0.00070352  1
  Fe  Fe22  1  0.83256736  0.49596803  0.16329219  1
  Fe  Fe23  1  0.66370238  0.32873019  0.32731583  1
  Fe  Fe24  1  0.66283895  0.66573297  -0.00381354  1
  Cr  Cr25  1  0.83004907  0.82912040  0.16276125  1
  Cr  Cr26  1  0.66308283  0.66146562  0.33096416  1
  Cr  Cr27  1  0.16147827  0.16147233  0.49694164  1
  Cr  Cr28  1  -0.00361002  0.99358664  0.66433182  1
  Fe  Fe29  1  0.16206238  0.16577446  0.82983643  1
  Fe  Fe30  1  0.16042307  0.49612818  0.49577775  1
  Fe  Fe31  1  -0.00207870  0.33116661  0.66307350  1
  Fe  Fe32  1  0.16185941  0.49615718  0.83071114  1
  Fe  Fe33  1  0.15906345  0.82768297  0.49510450  1
  Fe  Fe34  1  -0.00351122  0.66301236  0.66264786  1
  Fe  Fe35  1  0.16224026  0.82584017  0.83021641  1
  Cr  Cr36  1  0.49646563  0.16289839  0.49546141  1
  Cr  Cr37  1  0.32739289  0.99373088  0.66373621  1
  Cr  Cr38  1  0.49487676  0.16290126  0.82969393  1
  Fe  Fe39  1  0.49600583  0.49667815  0.49569261  1
  Cr  Cr40  1  0.32753042  0.33123377  0.66296377  1
  Cr  Cr41  1  0.49574493  0.49788995  0.82907924  1
  Fe  Fe42  1  0.49813296  0.82924743  0.49626225  1
  Cr  Cr43  1  0.32901250  0.66291877  0.65897312  1
  Fe  Fe44  1  0.49751424  0.82734956  0.83059643  1
  Cr  Cr45  1  0.83010864  0.16220219  0.49365196  1
  Cr  Cr46  1  0.66420953  0.99291569  0.66409612  1
  Cr  Cr47  1  0.83007720  0.16381674  0.82778407  1
  Cr  Cr48  1  0.83073073  0.49758270  0.49660942  1
  Cr  Cr49  1  0.66347587  0.33215132  0.65968376  1
  Cr  Cr50  1  0.83075402  0.49877509  0.82931119  1
  Fe  Fe51  1  0.83071609  0.82972408  0.49511337  1
  Fe  Fe52  1  0.66323616  0.66511187  0.66166838  1
  Fe  Fe53  1  0.82828478  0.82701690  0.83081684  1
" 