7584,Fe46Cr54_13,-217.587783761289, 168.193532373553,Fe46Cr54,"# generated using pymatgen
 data_Cr4Fe5
_symmetry_space_group_name_H-M   'P 1'
_cell_length_a   7.52304698
_cell_length_b   7.52304698
_cell_length_c   10.63919508
_cell_angle_alpha   90.00000000
_cell_angle_beta   90.00000000
_cell_angle_gamma   90.00000000
_symmetry_Int_Tables_number   1
_chemical_formula_structural   Cr4Fe5
_chemical_formula_sum   'Cr24 Fe30'
_cell_volume   602.13839470
_cell_formula_units_Z   6
loop_
 _symmetry_equiv_pos_site_id
 _symmetry_equiv_pos_as_xyz
  1  'x, y, z'
loop_
 _atom_site_type_symbol
 _atom_site_label
 _atom_site_symmetry_multiplicity
 _atom_site_fract_x
 _atom_site_fract_y
 _atom_site_fract_z
 _atom_site_occupancy
  Cr  Cr0  1  0.99558552  0.99532967  -0.00240458  1
  Fe  Fe1  1  0.16258096  0.16187572  0.16329524  1
  Fe  Fe2  1  -0.00248668  -0.00337265  0.32925670  1
  Cr  Cr3  1  -0.00233357  0.32943277  -0.00301342  1
  Fe  Fe4  1  0.16268197  0.49673982  0.16267532  1
  Cr  Cr5  1  0.99548421  0.32746597  0.32924643  1
  Fe  Fe6  1  -0.00336432  0.66310418  0.99602967  1
  Fe  Fe7  1  0.16303653  0.83021747  0.16294093  1
  Cr  Cr8  1  -0.00367188  0.66444082  0.32920095  1
  Fe  Fe9  1  0.32959556  -0.00352702  0.99558022  1
  Cr  Cr10  1  0.49610248  0.16215416  0.16263956  1
  Fe  Fe11  1  0.32835632  0.99593398  0.32996896  1
  Cr  Cr12  1  0.32881575  0.32952811  -0.00355034  1
  Cr  Cr13  1  0.49630761  0.49618378  0.16386952  1
  Cr  Cr14  1  0.32964821  0.32928292  0.32775105  1
  Cr  Cr15  1  0.32883343  0.66310906  -0.00340427  1
  Cr  Cr16  1  0.49608222  0.83049769  0.16328364  1
  Cr  Cr17  1  0.33049751  0.66431228  0.33001817  1
  Fe  Fe18  1  0.66216458  0.99565920  0.99557528  1
  Fe  Fe19  1  0.82941845  0.16222257  0.16365939  1
  Fe  Fe20  1  0.66296579  0.99627757  0.32961141  1
  Cr  Cr21  1  0.66235273  0.32833103  -0.00298224  1
  Cr  Cr22  1  0.82977803  0.49675147  0.16323715  1
  Fe  Fe23  1  0.66365123  0.32979224  0.32952880  1
  Fe  Fe24  1  0.66374380  0.66425947  0.99557661  1
  Cr  Cr25  1  0.83036742  0.83029544  0.16151084  1
  Fe  Fe26  1  0.66296233  0.66276538  0.33032244  1
  Fe  Fe27  1  0.16294222  0.16154472  0.49628372  1
  Cr  Cr28  1  -0.00324244  0.99599789  0.66227047  1
  Fe  Fe29  1  0.16397435  0.16278653  0.82925805  1
  Cr  Cr30  1  0.16183150  0.49697569  0.49867635  1
  Fe  Fe31  1  0.99627107  0.33028117  0.66294026  1
  Fe  Fe32  1  0.16214826  0.49687354  0.82882067  1
  Fe  Fe33  1  0.16407425  0.83078059  0.49662118  1
  Fe  Fe34  1  -0.00328490  0.66250889  0.66319096  1
  Fe  Fe35  1  0.16317325  0.82916968  0.82927438  1
  Cr  Cr36  1  0.49601976  0.16155525  0.49641351  1
  Fe  Fe37  1  0.32994635  0.99525242  0.66328445  1
  Fe  Fe38  1  0.49602224  0.16130223  0.82926236  1
  Cr  Cr39  1  0.49800923  0.49723002  0.49541915  1
  Cr  Cr40  1  0.32901581  0.32915396  0.66463542  1
  Cr  Cr41  1  0.49580539  0.49654088  0.82955311  1
  Fe  Fe42  1  0.49594858  0.82996714  0.49651704  1
  Fe  Fe43  1  0.32917008  0.66476719  0.66328521  1
  Fe  Fe44  1  0.49683338  0.83066159  0.82937728  1
  Cr  Cr45  1  0.82987208  0.16374317  0.49531647  1
  Fe  Fe46  1  0.66148110  0.99569182  0.66363650  1
  Cr  Cr47  1  0.82868477  0.16205870  0.82914561  1
  Fe  Fe48  1  0.82880550  0.49617726  0.49697828  1
  Fe  Fe49  1  0.66373900  0.32951088  0.66302589  1
  Cr  Cr50  1  0.83122719  0.49801882  0.82778212  1
  Cr  Cr51  1  0.82961850  0.82894586  0.49607010  1
  Fe  Fe52  1  0.66295145  0.66363372  0.66292535  1
  Fe  Fe53  1  0.82882567  0.82882716  0.82963252  1
" 