6072,Fe46Cr54_17,-217.805844250744, 166.752395361947,Fe46Cr54,"# generated using pymatgen
 data_Cr4Fe5
_symmetry_space_group_name_H-M   'P 1'
_cell_length_a   7.53135096
_cell_length_b   7.53135096
_cell_length_c   10.65093868
_cell_angle_alpha   90.00000000
_cell_angle_beta   90.00000000
_cell_angle_gamma   90.00000000
_symmetry_Int_Tables_number   1
_chemical_formula_structural   Cr4Fe5
_chemical_formula_sum   'Cr24 Fe30'
_cell_volume   604.13452688
_cell_formula_units_Z   6
loop_
 _symmetry_equiv_pos_site_id
 _symmetry_equiv_pos_as_xyz
  1  'x, y, z'
loop_
 _atom_site_type_symbol
 _atom_site_label
 _atom_site_symmetry_multiplicity
 _atom_site_fract_x
 _atom_site_fract_y
 _atom_site_fract_z
 _atom_site_occupancy
  Fe  Fe0  1  -0.00413450  0.99530216  -0.00412540  1
  Fe  Fe1  1  0.16338176  0.16237878  0.16121133  1
  Cr  Cr2  1  0.99548605  -0.00209523  0.32599147  1
  Cr  Cr3  1  -0.00297939  0.32751834  -0.00410350  1
  Cr  Cr4  1  0.16100694  0.49726881  0.16204556  1
  Fe  Fe5  1  0.99354104  0.32969388  0.32793291  1
  Fe  Fe6  1  0.99252925  0.66266775  -0.00355947  1
  Cr  Cr7  1  0.16192993  0.82691521  0.16247722  1
  Cr  Cr8  1  0.99277153  0.66184029  0.32847167  1
  Fe  Fe9  1  0.32753399  -0.00330918  0.99525183  1
  Cr  Cr10  1  0.49846036  0.16333630  0.16240745  1
  Cr  Cr11  1  0.32855764  0.99441186  0.33009794  1
  Fe  Fe12  1  0.32874726  0.33007971  -0.00421861  1
  Fe  Fe13  1  0.49473250  0.49748650  0.16174218  1
  Cr  Cr14  1  0.33065846  0.33051031  0.32800149  1
  Fe  Fe15  1  0.33149846  0.66035205  0.99482384  1
  Cr  Cr16  1  0.49491295  0.83006690  0.16313536  1
  Fe  Fe17  1  0.32997590  0.66087639  0.32946618  1
  Cr  Cr18  1  0.66422912  0.99310617  0.99366826  1
  Fe  Fe19  1  0.83027104  0.16237477  0.16220721  1
  Fe  Fe20  1  0.66455335  0.99489355  0.32872692  1
  Cr  Cr21  1  0.66072467  0.33406366  -0.00133868  1
  Fe  Fe22  1  0.82796817  0.49615129  0.16194907  1
  Fe  Fe23  1  0.66614578  0.32849992  0.32865867  1
  Fe  Fe24  1  0.66241682  0.66274753  -0.00388227  1
  Fe  Fe25  1  0.82820310  0.82843928  0.16103003  1
  Cr  Cr26  1  0.66061919  0.65920738  0.32831229  1
  Cr  Cr27  1  0.16253264  0.16537855  0.49634571  1
  Cr  Cr28  1  -0.00356249  -0.00381913  0.66422512  1
  Fe  Fe29  1  0.16247169  0.16330794  0.82939744  1
  Cr  Cr30  1  0.16045703  0.49740635  0.49810673  1
  Fe  Fe31  1  -0.00315590  0.33024749  0.66341441  1
  Fe  Fe32  1  0.16470025  0.49367256  0.82872198  1
  Cr  Cr33  1  0.16365253  0.82474544  0.49309831  1
  Fe  Fe34  1  0.99548449  0.66156085  0.66309911  1
  Cr  Cr35  1  0.16130574  0.82471858  0.83204933  1
  Cr  Cr36  1  0.50106251  0.16082812  0.49498698  1
  Cr  Cr37  1  0.32923424  0.99392184  0.66240301  1
  Cr  Cr38  1  0.49424572  0.16333797  0.82984015  1
  Fe  Fe39  1  0.49476401  0.49757181  0.49618685  1
  Fe  Fe40  1  0.32883357  0.33035136  0.66332515  1
  Fe  Fe41  1  0.49452428  0.49799037  0.82928713  1
  Fe  Fe42  1  0.49609631  0.82625939  0.49597264  1
  Fe  Fe43  1  0.33107522  0.66071941  0.66368994  1
  Fe  Fe44  1  0.49655616  0.82644881  0.82938685  1
  Fe  Fe45  1  0.83096958  0.16403782  0.49589839  1
  Fe  Fe46  1  0.66146263  0.99408464  0.66336903  1
  Cr  Cr47  1  0.82688947  0.16264452  0.82608261  1
  Fe  Fe48  1  0.82845908  0.49438589  0.49646778  1
  Cr  Cr49  1  0.66161088  0.33326434  0.66012004  1
  Cr  Cr50  1  0.83067440  0.49918431  0.82807311  1
  Cr  Cr51  1  0.82744496  0.82968450  0.49883637  1
  Fe  Fe52  1  0.66024864  0.66455198  0.66267555  1
  Fe  Fe53  1  0.82769256  0.82820146  0.82803088  1
" 