8778,Fe46Cr54_6,-217.367109274425, 164.879656759941,Fe46Cr54,"# generated using pymatgen
 data_Cr4Fe5
_symmetry_space_group_name_H-M   'P 1'
_cell_length_a   7.53195449
_cell_length_b   7.53195449
_cell_length_c   10.65179219
_cell_angle_alpha   90.00000000
_cell_angle_beta   90.00000000
_cell_angle_gamma   90.00000000
_symmetry_Int_Tables_number   1
_chemical_formula_structural   Cr4Fe5
_chemical_formula_sum   'Cr24 Fe30'
_cell_volume   604.27977660
_cell_formula_units_Z   6
loop_
 _symmetry_equiv_pos_site_id
 _symmetry_equiv_pos_as_xyz
  1  'x, y, z'
loop_
 _atom_site_type_symbol
 _atom_site_label
 _atom_site_symmetry_multiplicity
 _atom_site_fract_x
 _atom_site_fract_y
 _atom_site_fract_z
 _atom_site_occupancy
  Cr  Cr0  1  0.99493875  0.99374864  0.99366045  1
  Cr  Cr1  1  0.16143713  0.16298060  0.16020424  1
  Fe  Fe2  1  0.99432764  -0.00395673  0.33100329  1
  Fe  Fe3  1  0.99372703  0.33055565  0.99528828  1
  Fe  Fe4  1  0.16209904  0.49655404  0.16180224  1
  Cr  Cr5  1  0.99435728  0.33160368  0.32631314  1
  Cr  Cr6  1  0.99386337  0.66002831  0.99426688  1
  Cr  Cr7  1  0.16279961  0.83031693  0.16297154  1
  Cr  Cr8  1  -0.00313504  0.66214484  0.32978265  1
  Cr  Cr9  1  0.33243024  0.99479523  0.99380774  1
  Fe  Fe10  1  0.49840588  0.16041489  0.16172234  1
  Cr  Cr11  1  0.33203085  0.99442775  0.32814247  1
  Cr  Cr12  1  0.33213282  0.32880064  -0.00218939  1
  Fe  Fe13  1  0.49810912  0.49770730  0.16285079  1
  Cr  Cr14  1  0.32984991  0.32957423  0.32858399  1
  Cr  Cr15  1  0.32878465  0.66358173  -0.00295259  1
  Fe  Fe16  1  0.49792970  0.82867754  0.16298078  1
  Fe  Fe17  1  0.33055380  0.66167723  0.32886770  1
  Fe  Fe18  1  0.66150138  0.99541874  0.99390207  1
  Cr  Cr19  1  0.82906661  0.16101974  0.16136951  1
  Fe  Fe20  1  0.66296041  0.99465997  0.33123284  1
  Fe  Fe21  1  0.66376034  0.32986456  0.99493436  1
  Fe  Fe22  1  0.82715166  0.49622173  0.16088562  1
  Cr  Cr23  1  0.66256142  0.32694561  0.32920802  1
  Fe  Fe24  1  0.66121230  0.66189500  0.99447079  1
  Cr  Cr25  1  0.82439359  0.82868220  0.16434163  1
  Fe  Fe26  1  0.65966898  0.66322796  0.32916481  1
  Cr  Cr27  1  0.16070382  0.16258382  0.49780740  1
  Fe  Fe28  1  0.99374620  0.99342921  0.66286359  1
  Cr  Cr29  1  0.16112913  0.16262497  0.82874382  1
  Fe  Fe30  1  0.16148056  0.49630371  0.49718203  1
  Fe  Fe31  1  0.99452822  0.32889291  0.66192119  1
  Cr  Cr32  1  0.16303924  0.49344813  0.82512079  1
  Fe  Fe33  1  0.16125192  0.82800811  0.49544704  1
  Fe  Fe34  1  0.99487754  0.66482824  0.66232860  1
  Fe  Fe35  1  0.16063925  0.82817666  0.82810273  1
  Fe  Fe36  1  0.49630257  0.16142393  0.49558700  1
  Cr  Cr37  1  0.33013493  0.99515313  0.66512756  1
  Fe  Fe38  1  0.49766059  0.16361676  0.82995099  1
  Cr  Cr39  1  0.49418858  0.49793950  0.49722493  1
  Fe  Fe40  1  0.33035881  0.32846004  0.66209617  1
  Fe  Fe41  1  0.49688182  0.49507358  0.82968846  1
  Fe  Fe42  1  0.49681964  0.82946406  0.49454048  1
  Cr  Cr43  1  0.32637292  0.66437302  0.66178692  1
  Fe  Fe44  1  0.49742133  0.82839933  0.82981717  1
  Fe  Fe45  1  0.82923002  0.16062031  0.49497279  1
  Cr  Cr46  1  0.66286890  -0.00274664  0.66119429  1
  Fe  Fe47  1  0.82834812  0.16343203  0.83007297  1
  Cr  Cr48  1  0.82786476  0.49752378  0.49722551  1
  Cr  Cr49  1  0.66269825  0.32685088  0.66338509  1
  Fe  Fe50  1  0.82865693  0.49399871  0.82945956  1
  Fe  Fe51  1  0.82953032  0.83124325  0.49477146  1
  Cr  Cr52  1  0.66456191  0.66319391  0.66531418  1
  Fe  Fe53  1  0.82911180  0.82944321  0.82897763  1
" 