1819,Fe46Cr54_19,-217.373889740002, 168.497033932945,Fe46Cr54,"# generated using pymatgen
 data_Cr4Fe5
_symmetry_space_group_name_H-M   'P 1'
_cell_length_a   7.52023879
_cell_length_b   7.52023879
_cell_length_c   10.63522369
_cell_angle_alpha   90.00000000
_cell_angle_beta   90.00000000
_cell_angle_gamma   90.00000000
_symmetry_Int_Tables_number   1
_chemical_formula_structural   Cr4Fe5
_chemical_formula_sum   'Cr24 Fe30'
_cell_volume   601.46434947
_cell_formula_units_Z   6
loop_
 _symmetry_equiv_pos_site_id
 _symmetry_equiv_pos_as_xyz
  1  'x, y, z'
loop_
 _atom_site_type_symbol
 _atom_site_label
 _atom_site_symmetry_multiplicity
 _atom_site_fract_x
 _atom_site_fract_y
 _atom_site_fract_z
 _atom_site_occupancy
  Fe  Fe0  1  0.99576641  0.99548566  -0.00352504  1
  Cr  Cr1  1  0.16422031  0.16186204  0.16567882  1
  Fe  Fe2  1  -0.00265801  0.99632545  0.32980164  1
  Cr  Cr3  1  0.99480762  0.33209505  0.99565469  1
  Fe  Fe4  1  0.16248565  0.49710896  0.16376615  1
  Cr  Cr5  1  -0.00353253  0.32974428  0.33034327  1
  Fe  Fe6  1  0.99514082  0.66247766  0.99597864  1
  Cr  Cr7  1  0.16189527  0.82979506  0.16457296  1
  Fe  Fe8  1  0.99568267  0.66261340  0.32928184  1
  Fe  Fe9  1  0.33164590  -0.00340802  0.99632241  1
  Fe  Fe10  1  0.49694508  0.16235855  0.16276580  1
  Fe  Fe11  1  0.32940538  -0.00188693  0.32943393  1
  Cr  Cr12  1  0.32992361  0.32937614  -0.00329014  1
  Fe  Fe13  1  0.49679983  0.49609756  0.16249959  1
  Fe  Fe14  1  0.33055746  0.32930622  0.32930158  1
  Cr  Cr15  1  0.32954552  0.66460823  0.99612355  1
  Fe  Fe16  1  0.49629656  0.83093823  0.16226570  1
  Cr  Cr17  1  0.33023134  0.66321634  0.32913831  1
  Fe  Fe18  1  0.66197499  -0.00337839  -0.00339363  1
  Fe  Fe19  1  0.82896960  0.16298514  0.16212115  1
  Cr  Cr20  1  0.66270879  0.99641665  0.32887081  1
  Fe  Fe21  1  0.66299281  0.32992686  -0.00252476  1
  Fe  Fe22  1  0.83010183  0.49646991  0.16213326  1
  Cr  Cr23  1  0.66351157  0.33095001  0.32807780  1
  Fe  Fe24  1  0.66411645  0.66283736  -0.00337954  1
  Cr  Cr25  1  0.83124288  0.82950329  0.16239053  1
  Cr  Cr26  1  0.66309368  0.66202260  0.33051674  1
  Fe  Fe27  1  0.16260944  0.16233693  0.49593904  1
  Fe  Fe28  1  0.99546152  -0.00323412  0.66312263  1
  Cr  Cr29  1  0.16290967  0.16320289  0.82845222  1
  Cr  Cr30  1  0.16412483  0.49602393  0.49764029  1
  Fe  Fe31  1  -0.00340634  0.33065352  0.66313101  1
  Fe  Fe32  1  0.16100443  0.49734499  0.82865672  1
  Cr  Cr33  1  0.16121221  0.83084629  0.49426126  1
  Fe  Fe34  1  0.99562538  0.66196498  0.66413543  1
  Cr  Cr35  1  0.16171831  0.82836464  0.83055395  1
  Cr  Cr36  1  0.49525280  0.16548992  0.49564008  1
  Cr  Cr37  1  0.33067053  0.99543412  0.66412104  1
  Fe  Fe38  1  0.49733978  0.16100742  0.83066610  1
  Fe  Fe39  1  0.49710698  0.49710252  0.49710352  1
  Cr  Cr40  1  0.32741617  0.33049575  0.66263534  1
  Cr  Cr41  1  0.49718806  0.49693624  0.82835572  1
  Cr  Cr42  1  0.49682232  0.82750349  0.49800341  1
  Fe  Fe43  1  0.33042711  0.66248258  0.66364557  1
  Fe  Fe44  1  0.49843723  0.83107386  0.82964503  1
  Cr  Cr45  1  0.83174237  0.16257279  0.49722490  1
  Fe  Fe46  1  0.66350875  0.99511217  0.66451479  1
  Cr  Cr47  1  0.82838275  0.16199216  0.83034832  1
  Fe  Fe48  1  0.82966082  0.49760965  0.49746521  1
  Cr  Cr49  1  0.66533879  0.33075965  0.66200067  1
  Fe  Fe50  1  0.83109340  0.49844070  0.82978452  1
  Cr  Cr51  1  0.83135421  0.82922126  0.49780812  1
  Fe  Fe52  1  0.66333699  0.66362306  0.66346979  1
  Fe  Fe53  1  0.82881711  0.82881838  0.82977632  1
" 