2963,Fe46Cr54_0,-217.397872191828, 167.632820704169,Fe46Cr54,"# generated using pymatgen
 data_Cr4Fe5
_symmetry_space_group_name_H-M   'P 1'
_cell_length_a   7.53053646
_cell_length_b   7.53053646
_cell_length_c   10.64978679
_cell_angle_alpha   90.00000000
_cell_angle_beta   90.00000000
_cell_angle_gamma   90.00000000
_symmetry_Int_Tables_number   1
_chemical_formula_structural   Cr4Fe5
_chemical_formula_sum   'Cr24 Fe30'
_cell_volume   603.93853845
_cell_formula_units_Z   6
loop_
 _symmetry_equiv_pos_site_id
 _symmetry_equiv_pos_as_xyz
  1  'x, y, z'
loop_
 _atom_site_type_symbol
 _atom_site_label
 _atom_site_symmetry_multiplicity
 _atom_site_fract_x
 _atom_site_fract_y
 _atom_site_fract_z
 _atom_site_occupancy
  Cr  Cr0  1  0.99519530  -0.00280357  0.99282515  1
  Fe  Fe1  1  0.16161624  0.16703812  0.16131182  1
  Cr  Cr2  1  0.99517321  -0.00308022  0.32392729  1
  Fe  Fe3  1  -0.00388654  0.32833952  0.99428064  1
  Fe  Fe4  1  0.16159146  0.49454267  0.16088562  1
  Fe  Fe5  1  0.99564621  0.33140988  0.32625630  1
  Cr  Cr6  1  0.99535207  0.65963129  0.99367142  1
  Cr  Cr7  1  0.16272641  0.82949027  0.16199547  1
  Fe  Fe8  1  -0.00293759  0.66088965  0.32733793  1
  Cr  Cr9  1  0.32935327  -0.00161027  -0.00143049  1
  Fe  Fe10  1  0.49645114  0.16463776  0.16167337  1
  Cr  Cr11  1  0.33122071  -0.00328766  0.32731471  1
  Fe  Fe12  1  0.32592310  0.32920302  -0.00404354  1
  Cr  Cr13  1  0.49725102  0.49551263  0.15637474  1
  Cr  Cr14  1  0.32705721  0.33067394  0.33038473  1
  Fe  Fe15  1  0.32744989  0.66240407  -0.00353640  1
  Fe  Fe16  1  0.49675771  0.82798090  0.16048401  1
  Cr  Cr17  1  0.32891763  0.66062427  0.32925832  1
  Cr  Cr18  1  0.66284660  0.99529175  -0.00317581  1
  Fe  Fe19  1  0.82843746  0.16597711  0.16138826  1
  Cr  Cr20  1  0.66173585  0.99519438  0.32787125  1
  Fe  Fe21  1  0.66604307  0.32764085  0.99528229  1
  Fe  Fe22  1  0.83115894  0.49459815  0.16204614  1
  Fe  Fe23  1  0.66034833  0.32889027  0.32697008  1
  Fe  Fe24  1  0.66482370  0.66227937  -0.00384943  1
  Fe  Fe25  1  0.82859305  0.82689870  0.16102006  1
  Cr  Cr26  1  0.66213276  0.66247490  0.32777444  1
  Cr  Cr27  1  0.16149427  0.16112280  0.49604720  1
  Cr  Cr28  1  0.99540422  -0.00391084  0.67040680  1
  Fe  Fe29  1  0.16660973  0.16503896  0.83016542  1
  Fe  Fe30  1  0.16093935  0.49611203  0.49722022  1
  Cr  Cr31  1  -0.00239067  0.33129709  0.66581250  1
  Fe  Fe32  1  0.16474943  0.49606786  0.83000346  1
  Cr  Cr33  1  0.16349862  0.82892428  0.49888740  1
  Fe  Fe34  1  -0.00367591  0.66170649  0.66562626  1
  Fe  Fe35  1  0.16383964  0.82706632  0.82942238  1
  Fe  Fe36  1  0.49485319  0.16280316  0.49589651  1
  Fe  Fe37  1  0.32966407  -0.00290707  0.66463435  1
  Fe  Fe38  1  0.49484942  0.16260104  0.83011200  1
  Fe  Fe39  1  0.49347329  0.49558698  0.49663540  1
  Fe  Fe40  1  0.32973062  0.32912781  0.66271873  1
  Cr  Cr41  1  0.49675397  0.49360946  0.83347570  1
  Fe  Fe42  1  0.49544571  0.82900599  0.49705999  1
  Fe  Fe43  1  0.32831442  0.65964450  0.66332616  1
  Cr  Cr44  1  0.49329058  0.82706364  0.83167094  1
  Cr  Cr45  1  0.82925915  0.16393942  0.49298598  1
  Cr  Cr46  1  0.66153231  -0.00401719  0.66256493  1
  Fe  Fe47  1  0.82645858  0.16551554  0.83074604  1
  Cr  Cr48  1  0.82838338  0.49485770  0.49252397  1
  Cr  Cr49  1  0.66074796  0.32876799  0.66147508  1
  Fe  Fe50  1  0.82908757  0.49514144  0.83032202  1
  Cr  Cr51  1  0.83307573  0.82892936  0.49592757  1
  Cr  Cr52  1  0.66251809  0.66184894  0.66256230  1
  Fe  Fe53  1  0.82748209  0.82658151  0.82983928  1
" 