8912,Fe46Cr54_14,-217.66709610338, 171.88323801361,Fe46Cr54,"# generated using pymatgen
 data_Cr4Fe5
_symmetry_space_group_name_H-M   'P 1'
_cell_length_a   7.52608344
_cell_length_b   7.52608344
_cell_length_c   10.64348927
_cell_angle_alpha   90.00000000
_cell_angle_beta   90.00000000
_cell_angle_gamma   90.00000000
_symmetry_Int_Tables_number   1
_chemical_formula_structural   Cr4Fe5
_chemical_formula_sum   'Cr24 Fe30'
_cell_volume   602.86779399
_cell_formula_units_Z   6
loop_
 _symmetry_equiv_pos_site_id
 _symmetry_equiv_pos_as_xyz
  1  'x, y, z'
loop_
 _atom_site_type_symbol
 _atom_site_label
 _atom_site_symmetry_multiplicity
 _atom_site_fract_x
 _atom_site_fract_y
 _atom_site_fract_z
 _atom_site_occupancy
  Cr  Cr0  1  0.99511671  0.99164590  0.99220679  1
  Cr  Cr1  1  0.15824471  0.16172469  0.16203718  1
  Fe  Fe2  1  -0.00232508  -0.00369683  0.33304468  1
  Fe  Fe3  1  0.99431674  0.32800982  0.99463452  1
  Fe  Fe4  1  0.16162178  0.49609868  0.16184825  1
  Fe  Fe5  1  -0.00341046  0.32889677  0.33184032  1
  Cr  Cr6  1  0.99501408  0.66022403  0.99424288  1
  Fe  Fe7  1  0.16257105  0.82775986  0.16228245  1
  Cr  Cr8  1  -0.00070654  0.66124025  0.32936376  1
  Fe  Fe9  1  0.32730101  0.99336333  -0.00337446  1
  Fe  Fe10  1  0.49699841  0.16269195  0.16268227  1
  Cr  Cr11  1  0.33208168  -0.00147400  0.32700208  1
  Cr  Cr12  1  0.33235815  0.32490158  -0.00274912  1
  Cr  Cr13  1  0.49643746  0.49985617  0.16140105  1
  Cr  Cr14  1  0.32699826  0.33040304  0.33084197  1
  Fe  Fe15  1  0.32773393  0.66281195  0.99577059  1
  Cr  Cr16  1  0.49492565  0.82750727  0.16297107  1
  Fe  Fe17  1  0.32918161  0.66346069  0.33100472  1
  Cr  Cr18  1  0.65896321  -0.00008809  -0.00305145  1
  Cr  Cr19  1  0.83263939  0.16365515  0.16634212  1
  Fe  Fe20  1  0.66317010  -0.00320947  0.33306018  1
  Fe  Fe21  1  0.66609125  0.33133572  0.99603797  1
  Fe  Fe22  1  0.83087625  0.49543699  0.16274680  1
  Cr  Cr23  1  0.65908341  0.32733794  0.32966452  1
  Fe  Fe24  1  0.66442954  0.66278686  0.99514605  1
  Cr  Cr25  1  0.82854072  0.83203831  0.16575951  1
  Cr  Cr26  1  0.66472262  0.66478213  0.33135187  1
  Fe  Fe27  1  0.16249602  0.16167552  0.49708443  1
  Fe  Fe28  1  0.99461750  0.99568474  0.66160796  1
  Cr  Cr29  1  0.15997905  0.15833984  0.82750905  1
  Fe  Fe30  1  0.16312375  0.49709575  0.49761085  1
  Cr  Cr31  1  -0.00297611  0.33026123  0.66195705  1
  Cr  Cr32  1  0.16682375  0.49320128  0.82758308  1
  Fe  Fe33  1  0.16454229  0.83014827  0.49613812  1
  Cr  Cr34  1  -0.00281283  0.66544118  0.66454191  1
  Fe  Fe35  1  0.16417636  0.82790735  0.82787041  1
  Fe  Fe36  1  0.49502034  0.16366816  0.49719132  1
  Fe  Fe37  1  0.32726946  0.99494511  0.66090382  1
  Fe  Fe38  1  0.49462103  0.16324442  0.82778122  1
  Cr  Cr39  1  0.49353322  0.50016961  0.50098924  1
  Fe  Fe40  1  0.33087458  0.32570592  0.66134620  1
  Cr  Cr41  1  0.49931986  0.49694003  0.82631170  1
  Fe  Fe42  1  0.49469421  0.83194084  0.49587643  1
  Fe  Fe43  1  0.32886421  0.66613237  0.66193832  1
  Cr  Cr44  1  0.49400861  0.82821347  0.83074040  1
  Fe  Fe45  1  0.83059506  0.16109622  0.49492537  1
  Cr  Cr46  1  0.66093430  -0.00191796  0.65996232  1
  Fe  Fe47  1  0.82591937  0.16440517  0.82840615  1
  Cr  Cr48  1  0.82839399  0.49396167  0.49564208  1
  Fe  Fe49  1  0.66339978  0.32800822  0.66256901  1
  Fe  Fe50  1  0.82996400  0.49388893  0.82970975  1
  Fe  Fe51  1  0.83192205  0.83172579  0.49536052  1
  Cr  Cr52  1  0.66739155  0.66566144  0.66350574  1
  Fe  Fe53  1  0.82853656  0.83116233  0.82903658  1
" 