2686,Fe46Cr54_16,-217.334237751928, 169.56988646232,Fe46Cr54,"# generated using pymatgen
 data_Cr4Fe5
_symmetry_space_group_name_H-M   'P 1'
_cell_length_a   7.51764157
_cell_length_b   7.51764157
_cell_length_c   10.63155066
_cell_angle_alpha   90.00000000
_cell_angle_beta   90.00000000
_cell_angle_gamma   90.00000000
_symmetry_Int_Tables_number   1
_chemical_formula_structural   Cr4Fe5
_chemical_formula_sum   'Cr24 Fe30'
_cell_volume   600.84139126
_cell_formula_units_Z   6
loop_
 _symmetry_equiv_pos_site_id
 _symmetry_equiv_pos_as_xyz
  1  'x, y, z'
loop_
 _atom_site_type_symbol
 _atom_site_label
 _atom_site_symmetry_multiplicity
 _atom_site_fract_x
 _atom_site_fract_y
 _atom_site_fract_z
 _atom_site_occupancy
  Cr  Cr0  1  0.99531590  0.99562722  -0.00041827  1
  Fe  Fe1  1  0.16234478  0.16402473  0.16450952  1
  Fe  Fe2  1  0.99596162  -0.00215281  0.32830802  1
  Fe  Fe3  1  0.99592527  0.32929005  -0.00239577  1
  Fe  Fe4  1  0.16503817  0.49685238  0.16303062  1
  Cr  Cr5  1  -0.00138778  0.32900704  0.32948897  1
  Fe  Fe6  1  0.99517451  0.66184226  0.99651332  1
  Cr  Cr7  1  0.16361349  0.83093367  0.16222884  1
  Cr  Cr8  1  -0.00063948  0.66383471  0.33011600  1
  Fe  Fe9  1  0.33046896  -0.00241313  -0.00305268  1
  Cr  Cr10  1  0.49660837  0.16350520  0.16452504  1
  Fe  Fe11  1  0.32907113  -0.00322929  0.33006478  1
  Cr  Cr12  1  0.32905952  0.33105722  0.00067394  1
  Fe  Fe13  1  0.49548645  0.49846564  0.16490842  1
  Fe  Fe14  1  0.33055910  0.33281679  0.32913846  1
  Fe  Fe15  1  0.33017415  0.66337248  -0.00218875  1
  Cr  Cr16  1  0.49771415  0.82874030  0.16455316  1
  Fe  Fe17  1  0.33159690  0.66063397  0.33070954  1
  Cr  Cr18  1  0.66425502  0.99646201  0.99290516  1
  Fe  Fe19  1  0.83016541  0.16162458  0.16481320  1
  Fe  Fe20  1  0.66478400  -0.00258511  0.32955238  1
  Cr  Cr21  1  0.66177312  0.32849336  0.99491839  1
  Cr  Cr22  1  0.82813728  0.49690852  0.16017130  1
  Fe  Fe23  1  0.66310592  0.33151666  0.33053471  1
  Fe  Fe24  1  0.66461278  0.66423923  0.99627584  1
  Fe  Fe25  1  0.82824878  0.83059854  0.16497208  1
  Fe  Fe26  1  0.66132196  0.66103032  0.33057798  1
  Cr  Cr27  1  0.16340753  0.16380485  0.49758658  1
  Cr  Cr28  1  0.99416774  0.99646367  0.66220748  1
  Cr  Cr29  1  0.16443697  0.16359195  0.82868190  1
  Fe  Fe30  1  0.16594717  0.49558776  0.49750627  1
  Fe  Fe31  1  0.99462166  0.33044979  0.66184846  1
  Cr  Cr32  1  0.16016215  0.49573543  0.82986210  1
  Cr  Cr33  1  0.16645324  0.83070063  0.49830885  1
  Cr  Cr34  1  -0.00257356  0.66167032  0.66244422  1
  Cr  Cr35  1  0.16483207  0.83023231  0.82991884  1
  Cr  Cr36  1  0.49671818  0.16342148  0.49703750  1
  Fe  Fe37  1  0.33188366  0.99662324  0.66305808  1
  Fe  Fe38  1  0.49387677  0.16377648  0.82957441  1
  Fe  Fe39  1  0.49484321  0.49808318  0.49525967  1
  Fe  Fe40  1  0.32959607  0.33180585  0.66292419  1
  Cr  Cr41  1  0.49821094  0.49712770  0.83199390  1
  Fe  Fe42  1  0.49562639  0.82930590  0.49486620  1
  Fe  Fe43  1  0.33186907  0.66178581  0.66162345  1
  Cr  Cr44  1  0.49488728  0.83082096  0.82983522  1
  Fe  Fe45  1  0.82945615  0.16421828  0.49514750  1
  Cr  Cr46  1  0.66318142  -0.00266984  0.66618901  1
  Fe  Fe47  1  0.83168649  0.16548032  0.83020312  1
  Fe  Fe48  1  0.82936859  0.49360804  0.49550521  1
  Cr  Cr49  1  0.66308990  0.32927207  0.66433152  1
  Fe  Fe50  1  0.83140543  0.49701503  0.83173835  1
  Cr  Cr51  1  0.82817031  0.82955201  0.49217808  1
  Cr  Cr52  1  0.66320744  0.66334503  0.66200530  1
  Fe  Fe53  1  0.83126740  0.82698440  0.83101958  1
" 