1003,Fe46Cr54_2,-217.59288378244, 167.236137076553,Fe46Cr54,"# generated using pymatgen
 data_Cr4Fe5
_symmetry_space_group_name_H-M   'P 1'
_cell_length_a   7.52775198
_cell_length_b   7.52775198
_cell_length_c   10.64584895
_cell_angle_alpha   90.00000000
_cell_angle_beta   90.00000000
_cell_angle_gamma   90.00000000
_symmetry_Int_Tables_number   1
_chemical_formula_structural   Cr4Fe5
_chemical_formula_sum   'Cr24 Fe30'
_cell_volume   603.26885326
_cell_formula_units_Z   6
loop_
 _symmetry_equiv_pos_site_id
 _symmetry_equiv_pos_as_xyz
  1  'x, y, z'
loop_
 _atom_site_type_symbol
 _atom_site_label
 _atom_site_symmetry_multiplicity
 _atom_site_fract_x
 _atom_site_fract_y
 _atom_site_fract_z
 _atom_site_occupancy
  Cr  Cr0  1  -0.00364053  -0.00321549  -0.00322899  1
  Fe  Fe1  1  0.16239742  0.16273583  0.16361514  1
  Fe  Fe2  1  0.99384463  -0.00338641  0.32670923  1
  Cr  Cr3  1  0.99544891  0.33006025  0.99556579  1
  Fe  Fe4  1  0.16287058  0.49668491  0.16220597  1
  Cr  Cr5  1  0.99429130  0.32957562  0.32802394  1
  Fe  Fe6  1  -0.00324807  0.66370871  -0.00237282  1
  Fe  Fe7  1  0.16307068  0.82750222  0.16239304  1
  Cr  Cr8  1  -0.00293615  0.66233381  0.32877603  1
  Cr  Cr9  1  0.33132356  0.99245470  0.99496116  1
  Cr  Cr10  1  0.49681160  0.16293130  0.16451347  1
  Cr  Cr11  1  0.32997382  0.99329597  0.32687913  1
  Cr  Cr12  1  0.32666212  0.32771123  0.99431839  1
  Cr  Cr13  1  0.49528479  0.49619942  0.16190886  1
  Fe  Fe14  1  0.32843796  0.33089587  0.32998563  1
  Fe  Fe15  1  0.32766713  0.66271010  0.99583199  1
  Fe  Fe16  1  0.49744228  0.82819485  0.16238371  1
  Fe  Fe17  1  0.32906904  0.66014063  0.32918756  1
  Fe  Fe18  1  0.66370593  0.99440792  -0.00394374  1
  Fe  Fe19  1  0.82960740  0.16075883  0.16348851  1
  Fe  Fe20  1  0.66527449  0.99566875  0.32903307  1
  Cr  Cr21  1  0.66557775  0.32796830  -0.00251158  1
  Fe  Fe22  1  0.82945912  0.49779737  0.16173513  1
  Cr  Cr23  1  0.66390897  0.32834474  0.33263242  1
  Fe  Fe24  1  0.66289359  0.66657591  -0.00264843  1
  Fe  Fe25  1  0.82790954  0.82952933  0.16264846  1
  Cr  Cr26  1  0.66207476  0.66205705  0.33176558  1
  Cr  Cr27  1  0.16279014  0.16238118  0.49686067  1
  Fe  Fe28  1  0.99431648  -0.00252910  0.66411982  1
  Fe  Fe29  1  0.16202770  0.16288533  0.82742277  1
  Fe  Fe30  1  0.16404667  0.49535924  0.49544425  1
  Cr  Cr31  1  0.99516804  0.32929384  0.66472042  1
  Fe  Fe32  1  0.16339542  0.49655114  0.82948867  1
  Cr  Cr33  1  0.16023269  0.83097264  0.49421073  1
  Cr  Cr34  1  0.99544147  0.66169459  0.66192819  1
  Cr  Cr35  1  0.15992055  0.83026696  0.82722386  1
  Fe  Fe36  1  0.49567417  0.16134202  0.49605058  1
  Fe  Fe37  1  0.32956922  -0.00210664  0.66292374  1
  Cr  Cr38  1  0.49583895  0.16255063  0.82743410  1
  Fe  Fe39  1  0.49333601  0.49478665  0.49596164  1
  Fe  Fe40  1  0.32873395  0.33017569  0.66232835  1
  Cr  Cr41  1  0.49648286  0.49650512  0.83054393  1
  Cr  Cr42  1  0.49702470  0.82964429  0.49670287  1
  Cr  Cr43  1  0.33022999  0.66466303  0.66135815  1
  Fe  Fe44  1  0.49839984  0.82872320  0.82863434  1
  Fe  Fe45  1  0.82974704  0.16017916  0.49610668  1
  Fe  Fe46  1  0.66338884  0.99519642  0.66346428  1
  Fe  Fe47  1  0.82900771  0.16033126  0.82873406  1
  Fe  Fe48  1  0.83034449  0.49618240  0.49661920  1
  Cr  Cr49  1  0.66353698  0.32913590  0.65838319  1
  Cr  Cr50  1  0.82849127  0.49954199  0.83204024  1
  Cr  Cr51  1  0.83084774  0.83080886  0.49804800  1
  Fe  Fe52  1  0.66286171  0.66296788  0.66251156  1
  Fe  Fe53  1  0.82623267  0.83112445  0.82914898  1
" 