8398,Fe46Cr54_18,-217.590424549539, 165.898745000278,Fe46Cr54,"# generated using pymatgen
 data_Cr4Fe5
_symmetry_space_group_name_H-M   'P 1'
_cell_length_a   7.53198900
_cell_length_b   7.53198900
_cell_length_c   10.65184100
_cell_angle_alpha   90.00000000
_cell_angle_beta   90.00000000
_cell_angle_gamma   90.00000000
_symmetry_Int_Tables_number   1
_chemical_formula_structural   Cr4Fe5
_chemical_formula_sum   'Cr24 Fe30'
_cell_volume   604.28808295
_cell_formula_units_Z   6
loop_
 _symmetry_equiv_pos_site_id
 _symmetry_equiv_pos_as_xyz
  1  'x, y, z'
loop_
 _atom_site_type_symbol
 _atom_site_label
 _atom_site_symmetry_multiplicity
 _atom_site_fract_x
 _atom_site_fract_y
 _atom_site_fract_z
 _atom_site_occupancy
  Fe  Fe0  1  -0.00338299  0.99430740  0.99372591  1
  Cr  Cr1  1  0.16276395  0.16114932  0.16155832  1
  Fe  Fe2  1  -0.00375220  -0.00337160  0.32872700  1
  Fe  Fe3  1  -0.00266743  0.32919315  0.99318706  1
  Fe  Fe4  1  0.16318847  0.49623852  0.16225480  1
  Cr  Cr5  1  0.99563358  0.33130691  0.32955412  1
  Cr  Cr6  1  -0.00093492  0.66239498  -0.00315171  1
  Fe  Fe7  1  0.16538434  0.82768612  0.16359583  1
  Fe  Fe8  1  -0.00338015  0.66221888  0.32981368  1
  Fe  Fe9  1  0.32792088  0.99267649  0.99459867  1
  Cr  Cr10  1  0.49384306  0.16309309  0.16026052  1
  Fe  Fe11  1  0.32803647  0.99356558  0.32814406  1
  Fe  Fe12  1  0.32647990  0.33122414  0.99410183  1
  Cr  Cr13  1  0.49441271  0.49696236  0.16100403  1
  Cr  Cr14  1  0.32859503  0.32973839  0.33253115  1
  Fe  Fe15  1  0.32929961  0.66325502  0.99358940  1
  Fe  Fe16  1  0.49426268  0.82925271  0.16168710  1
  Fe  Fe17  1  0.32894879  0.66275673  0.32841011  1
  Fe  Fe18  1  0.66262300  0.99464007  0.99462288  1
  Cr  Cr19  1  0.82975904  0.16236250  0.15620141  1
  Cr  Cr20  1  0.66173626  0.99460309  0.32749966  1
  Fe  Fe21  1  0.66251851  0.33015445  0.99295288  1
  Cr  Cr22  1  0.82943191  0.49599696  0.16100586  1
  Cr  Cr23  1  0.66280254  0.32825797  0.32846606  1
  Cr  Cr24  1  0.66273869  0.66443822  0.99392044  1
  Cr  Cr25  1  0.83151925  0.82829867  0.16609840  1
  Fe  Fe26  1  0.66182880  0.66085977  0.32994523  1
  Cr  Cr27  1  0.16117558  0.16220958  0.49771648  1
  Fe  Fe28  1  -0.00384252  -0.00326905  0.66438414  1
  Fe  Fe29  1  0.16031374  0.16245244  0.83015084  1
  Fe  Fe30  1  0.16180069  0.49768620  0.49606292  1
  Fe  Fe31  1  -0.00396366  0.32980182  0.66464696  1
  Fe  Fe32  1  0.16181785  0.49379302  0.83051926  1
  Cr  Cr33  1  0.16043317  0.82954688  0.49423692  1
  Cr  Cr34  1  0.99504714  0.66151165  0.66203109  1
  Fe  Fe35  1  0.16260217  0.83045085  0.83066119  1
  Cr  Cr36  1  0.49471165  0.16142367  0.49446349  1
  Cr  Cr37  1  0.32872340  0.99559195  0.66430087  1
  Cr  Cr38  1  0.49480139  0.16312130  0.83076366  1
  Fe  Fe39  1  0.49601819  0.49768658  0.49567636  1
  Cr  Cr40  1  0.32811515  0.33030464  0.66034552  1
  Fe  Fe41  1  0.49609430  0.49598257  0.83055414  1
  Cr  Cr42  1  0.49642899  0.82602261  0.49734756  1
  Cr  Cr43  1  0.32809794  0.66205965  0.66748090  1
  Fe  Fe44  1  0.49579923  0.82955165  0.82981407  1
  Cr  Cr45  1  0.83101403  0.16103228  0.49860309  1
  Fe  Fe46  1  0.66252538  0.99467368  0.66295224  1
  Fe  Fe47  1  0.82988945  0.16277420  0.82976869  1
  Fe  Fe48  1  0.82859061  0.49835101  0.49550922  1
  Cr  Cr49  1  0.66304672  0.32953645  0.66136954  1
  Fe  Fe50  1  0.82954650  0.49352938  0.82962902  1
  Fe  Fe51  1  0.82858441  0.82834805  0.49576347  1
  Fe  Fe52  1  0.66107815  0.66082195  0.66347858  1
  Cr  Cr53  1  0.82914449  0.82894901  0.82466901  1
" 