5665,Fe46Cr54_5,-217.492640035483, 166.059623013335,Fe46Cr54,"# generated using pymatgen
 data_Cr4Fe5
_symmetry_space_group_name_H-M   'P 1'
_cell_length_a   7.52235725
_cell_length_b   7.52235725
_cell_length_c   10.63821964
_cell_angle_alpha   90.00000000
_cell_angle_beta   90.00000000
_cell_angle_gamma   90.00000000
_symmetry_Int_Tables_number   1
_chemical_formula_structural   Cr4Fe5
_chemical_formula_sum   'Cr24 Fe30'
_cell_volume   601.97279229
_cell_formula_units_Z   6
loop_
 _symmetry_equiv_pos_site_id
 _symmetry_equiv_pos_as_xyz
  1  'x, y, z'
loop_
 _atom_site_type_symbol
 _atom_site_label
 _atom_site_symmetry_multiplicity
 _atom_site_fract_x
 _atom_site_fract_y
 _atom_site_fract_z
 _atom_site_occupancy
  Fe  Fe0  1  -0.00250928  0.99558910  0.99584278  1
  Fe  Fe1  1  0.16280452  0.16436647  0.16448166  1
  Cr  Cr2  1  0.99589779  0.00231124  0.33112558  1
  Cr  Cr3  1  0.99369786  0.33077633  -0.00101402  1
  Fe  Fe4  1  0.16089787  0.49593902  0.16578149  1
  Fe  Fe5  1  0.99593024  0.33330543  0.33039569  1
  Fe  Fe6  1  -0.00257350  0.66150385  0.99612562  1
  Cr  Cr7  1  0.16088315  0.82926208  0.16398925  1
  Fe  Fe8  1  -0.00297888  0.65945695  0.33031001  1
  Cr  Cr9  1  0.33097432  0.99379042  -0.00339839  1
  Cr  Cr10  1  0.49481147  0.16624861  0.16466656  1
  Fe  Fe11  1  0.32960318  -0.00288969  0.33003587  1
  Cr  Cr12  1  0.32457209  0.33200504  -0.00337890  1
  Cr  Cr13  1  0.49639833  0.49385670  0.16303184  1
  Fe  Fe14  1  0.32755567  0.33047363  0.33142284  1
  Cr  Cr15  1  0.33230489  0.66377455  -0.00310511  1
  Fe  Fe16  1  0.49612827  0.83023167  0.16568000  1
  Fe  Fe17  1  0.32713821  0.66083815  0.32946961  1
  Cr  Cr18  1  0.66283680  0.99338293  -0.00295555  1
  Cr  Cr19  1  0.82830765  0.16361669  0.16149464  1
  Fe  Fe20  1  0.66200653  -0.00146214  0.33027241  1
  Fe  Fe21  1  0.66281599  0.33136254  0.99599722  1
  Fe  Fe22  1  0.83053280  0.49611762  0.16395169  1
  Fe  Fe23  1  0.66463762  0.32930185  0.33180501  1
  Fe  Fe24  1  0.66569524  0.66020716  -0.00330338  1
  Cr  Cr25  1  0.83194866  0.82779345  0.16394270  1
  Cr  Cr26  1  0.66116120  0.66254838  0.32833573  1
  Fe  Fe27  1  0.16516214  0.16465391  0.49575278  1
  Cr  Cr28  1  0.99552024  0.00065398  0.66476614  1
  Cr  Cr29  1  0.16325127  0.16273403  0.83108018  1
  Fe  Fe30  1  0.16337558  0.49592105  0.49489884  1
  Cr  Cr31  1  0.99515274  0.33131793  0.66079568  1
  Fe  Fe32  1  0.16026563  0.49777685  0.82898191  1
  Cr  Cr33  1  0.15990811  0.82857538  0.49742270  1
  Fe  Fe34  1  -0.00358575  0.66133630  0.66343639  1
  Fe  Fe35  1  0.16387261  0.82683465  0.83024433  1
  Fe  Fe36  1  0.49542996  0.16523997  0.49446475  1
  Cr  Cr37  1  0.33088097  0.99476255  0.66441672  1
  Cr  Cr38  1  0.49704921  0.16759934  0.82824817  1
  Fe  Fe39  1  0.49618450  0.49436409  0.49588538  1
  Fe  Fe40  1  0.32883800  0.32882281  0.66019152  1
  Cr  Cr41  1  0.49787871  0.49398792  0.82738172  1
  Cr  Cr42  1  0.49626666  0.82886016  0.49342663  1
  Cr  Cr43  1  0.33132256  0.66058874  0.66412442  1
  Fe  Fe44  1  0.49938632  0.82854909  0.82890041  1
  Fe  Fe45  1  0.82798035  0.16559563  0.49464228  1
  Cr  Cr46  1  0.66341482  -0.00317358  0.66013728  1
  Fe  Fe47  1  0.82800245  0.16557601  0.83092084  1
  Fe  Fe48  1  0.82915391  0.49611724  0.49524266  1
  Fe  Fe49  1  0.66328585  0.33073665  0.65955265  1
  Fe  Fe50  1  0.83001278  0.49449803  0.82933820  1
  Cr  Cr51  1  0.83242871  0.82808479  0.49550876  1
  Fe  Fe52  1  0.66569424  0.66038411  0.66163536  1
  Cr  Cr53  1  0.83386583  0.82737145  0.82907756  1
" 