4856,Fe47Cr53_8,-217.212510037221, 166.234312277501,Fe47Cr53,"# generated using pymatgen
 data_Cr25Fe29
_symmetry_space_group_name_H-M   'P 1'
_cell_length_a   7.53623118
_cell_length_b   7.53623118
_cell_length_c   10.65784035
_cell_angle_alpha   90.00000000
_cell_angle_beta   90.00000000
_cell_angle_gamma   90.00000000
_symmetry_Int_Tables_number   1
_chemical_formula_structural   Cr25Fe29
_chemical_formula_sum   'Cr25 Fe29'
_cell_volume   605.30970215
_cell_formula_units_Z   1
loop_
 _symmetry_equiv_pos_site_id
 _symmetry_equiv_pos_as_xyz
  1  'x, y, z'
loop_
 _atom_site_type_symbol
 _atom_site_label
 _atom_site_symmetry_multiplicity
 _atom_site_fract_x
 _atom_site_fract_y
 _atom_site_fract_z
 _atom_site_occupancy
  Cr  Cr0  1  0.99531467  0.99157440  -0.00430223  1
  Cr  Cr1  1  0.16102984  0.16219585  0.16137007  1
  Cr  Cr2  1  0.99397890  0.99235584  0.33140260  1
  Fe  Fe3  1  0.99462941  0.33013232  -0.00368533  1
  Fe  Fe4  1  0.16315728  0.49715311  0.16310555  1
  Cr  Cr5  1  0.99382559  0.33097606  0.32701722  1
  Cr  Cr6  1  0.99406705  0.66063337  -0.00374970  1
  Fe  Fe7  1  0.16241030  0.82727726  0.16367712  1
  Fe  Fe8  1  0.99359110  0.66244927  0.32709488  1
  Fe  Fe9  1  0.33146114  0.99447308  -0.00428469  1
  Fe  Fe10  1  0.49533391  0.16208542  0.16189127  1
  Cr  Cr11  1  0.33031304  -0.00371554  0.32837185  1
  Cr  Cr12  1  0.33051915  0.32728104  -0.00373609  1
  Fe  Fe13  1  0.49578165  0.49577936  0.16379553  1
  Fe  Fe14  1  0.33195715  0.32961473  0.32772650  1
  Cr  Cr15  1  0.32898045  0.66490038  0.99525737  1
  Fe  Fe16  1  0.49584117  0.82856119  0.16178994  1
  Fe  Fe17  1  0.33115389  0.66220035  0.32652099  1
  Fe  Fe18  1  0.65884372  0.99371268  -0.00394397  1
  Cr  Cr19  1  0.82710785  0.16076702  0.15989519  1
  Cr  Cr20  1  0.66114125  0.99451559  0.32741201  1
  Cr  Cr21  1  0.66210573  0.32905310  -0.00391726  1
  Fe  Fe22  1  0.82747392  0.49665736  0.16332048  1
  Fe  Fe23  1  0.65998300  0.32983079  0.32830009  1
  Cr  Cr24  1  0.66337016  0.66322464  0.99522773  1
  Fe  Fe25  1  0.82802792  0.82674576  0.16307438  1
  Fe  Fe26  1  0.66243260  0.66102712  0.32816872  1
  Cr  Cr27  1  0.16000516  0.16214713  0.49608513  1
  Fe  Fe28  1  0.99400682  0.99359483  0.66280647  1
  Cr  Cr29  1  0.16031842  0.16102691  0.82935699  1
  Cr  Cr30  1  0.16559578  0.49689529  0.49227554  1
  Cr  Cr31  1  0.99357616  0.33113070  0.66422792  1
  Cr  Cr32  1  0.16341465  0.49573313  0.83079059  1
  Cr  Cr33  1  0.16239858  0.82759418  0.49498646  1
  Cr  Cr34  1  0.99237235  0.66288001  0.66369216  1
  Fe  Fe35  1  0.16167065  0.82960857  0.82879047  1
  Fe  Fe36  1  0.49631947  0.16266120  0.49458244  1
  Cr  Cr37  1  0.33109619  -0.00417693  0.66305927  1
  Fe  Fe38  1  0.49626269  0.16113859  0.82893658  1
  Fe  Fe39  1  0.49920039  0.49634242  0.49405339  1
  Cr  Cr40  1  0.33172043  0.32760020  0.65967060  1
  Cr  Cr41  1  0.49741296  0.49891041  0.82594700  1
  Fe  Fe42  1  0.49779604  0.82739232  0.49505952  1
  Cr  Cr43  1  0.33006262  0.66375991  0.66332336  1
  Fe  Fe44  1  0.49785190  0.83266048  0.82913596  1
  Cr  Cr45  1  0.82668167  0.16076069  0.49733173  1
  Fe  Fe46  1  0.66209456  0.99322514  0.66194638  1
  Cr  Cr47  1  0.82686352  0.16022851  0.82970771  1
  Fe  Fe48  1  0.82724032  0.49693731  0.49456543  1
  Fe  Fe49  1  0.66177152  0.32952336  0.66154055  1
  Fe  Fe50  1  0.82780883  0.49560715  0.82875864  1
  Fe  Fe51  1  0.82602375  0.82583180  0.49592615  1
  Fe  Fe52  1  0.66213923  0.66320268  0.66094215  1
  Fe  Fe53  1  0.82659999  0.82845899  0.82783773  1
" 