2375,Fe47Cr53_10,-217.156718334081, 173.077272657991,Fe47Cr53,"# generated using pymatgen
 data_Cr25Fe29
_symmetry_space_group_name_H-M   'P 1'
_cell_length_a   7.52293885
_cell_length_b   7.52293885
_cell_length_c   10.63904215
_cell_angle_alpha   90.00000000
_cell_angle_beta   90.00000000
_cell_angle_gamma   90.00000000
_symmetry_Int_Tables_number   1
_chemical_formula_structural   Cr25Fe29
_chemical_formula_sum   'Cr25 Fe29'
_cell_volume   602.11243074
_cell_formula_units_Z   1
loop_
 _symmetry_equiv_pos_site_id
 _symmetry_equiv_pos_as_xyz
  1  'x, y, z'
loop_
 _atom_site_type_symbol
 _atom_site_label
 _atom_site_symmetry_multiplicity
 _atom_site_fract_x
 _atom_site_fract_y
 _atom_site_fract_z
 _atom_site_occupancy
  Fe  Fe0  1  0.99361173  0.99515109  0.99596621  1
  Cr  Cr1  1  0.16227442  0.16238251  0.15895060  1
  Cr  Cr2  1  0.99383649  0.99597315  0.32509640  1
  Cr  Cr3  1  0.99470948  0.33009370  0.99592454  1
  Fe  Fe4  1  0.16268869  0.49707708  0.16188893  1
  Fe  Fe5  1  -0.00242737  0.32932196  0.32897588  1
  Cr  Cr6  1  -0.00358216  0.66528482  0.99269500  1
  Fe  Fe7  1  0.16197588  0.82699653  0.16188782  1
  Fe  Fe8  1  0.99621790  0.66371035  0.32945798  1
  Cr  Cr9  1  0.32887307  0.99270099  0.99497567  1
  Cr  Cr10  1  0.49525424  0.16107958  0.16132165  1
  Cr  Cr11  1  0.32792656  0.99536725  0.33277565  1
  Fe  Fe12  1  0.33065216  0.33013554  0.99506586  1
  Fe  Fe13  1  0.49721121  0.49507314  0.16154031  1
  Cr  Cr14  1  0.33085072  0.33196255  0.32805640  1
  Cr  Cr15  1  0.33175239  0.65797150  0.99418691  1
  Cr  Cr16  1  0.49840259  0.82682466  0.16225096  1
  Cr  Cr17  1  0.32856162  0.66080666  0.32913700  1
  Fe  Fe18  1  0.66517134  0.99484167  0.99582498  1
  Fe  Fe19  1  0.82714745  0.16346361  0.16047208  1
  Cr  Cr20  1  0.66630721  -0.00231475  0.33200635  1
  Fe  Fe21  1  0.66070940  0.33235835  -0.00348528  1
  Cr  Cr22  1  0.82880516  0.49931280  0.16467648  1
  Cr  Cr23  1  0.66321172  0.32880209  0.33166578  1
  Fe  Fe24  1  0.66422269  0.66240265  0.99365663  1
  Fe  Fe25  1  0.82952970  0.83038198  0.16091143  1
  Fe  Fe26  1  0.66340934  0.66417344  0.33108524  1
  Cr  Cr27  1  0.16290248  0.16331650  0.49871986  1
  Cr  Cr28  1  0.99224769  0.99609990  0.66431778  1
  Cr  Cr29  1  0.16337999  0.16322626  0.83073402  1
  Fe  Fe30  1  0.16297178  0.49735749  0.49660891  1
  Fe  Fe31  1  0.99622615  0.33272477  0.66422284  1
  Fe  Fe32  1  0.16164388  0.49485852  0.82901081  1
  Fe  Fe33  1  0.15884063  0.82713809  0.49778042  1
  Fe  Fe34  1  0.99588830  0.66132759  0.66482020  1
  Cr  Cr35  1  0.16428055  0.83055945  0.82711169  1
  Fe  Fe36  1  0.49768104  0.16476895  0.49902237  1
  Fe  Fe37  1  0.33002799  0.99616414  0.66227274  1
  Cr  Cr38  1  0.49595241  0.15987333  0.82880894  1
  Fe  Fe39  1  0.49709172  0.49668012  0.49715071  1
  Cr  Cr40  1  0.33145844  0.33193484  0.66407165  1
  Fe  Fe41  1  0.49913174  0.49344700  0.83088245  1
  Cr  Cr42  1  0.49524310  0.83048527  0.49851346  1
  Cr  Cr43  1  0.32929515  0.66157920  0.66498039  1
  Fe  Fe44  1  0.49906443  0.82931877  0.83005372  1
  Fe  Fe45  1  0.83043660  0.16326172  0.49833247  1
  Fe  Fe46  1  0.66164005  -0.00258755  0.66238562  1
  Cr  Cr47  1  0.82797488  0.16711579  0.83044949  1
  Cr  Cr48  1  0.83247799  0.49739457  0.49717694  1
  Fe  Fe49  1  0.66449106  0.32956588  0.66212772  1
  Fe  Fe50  1  0.82939005  0.49726490  0.82897186  1
  Fe  Fe51  1  0.83097105  0.82952141  0.49709572  1
  Cr  Cr52  1  0.66383409  0.66334557  0.66644512  1
  Fe  Fe53  1  0.82755822  0.83232768  0.83036969  1
" 