7102,Fe47Cr53_9,-217.022612447399, 163.263998312113,Fe47Cr53,"# generated using pymatgen
 data_Cr25Fe29
_symmetry_space_group_name_H-M   'P 1'
_cell_length_a   7.53442485
_cell_length_b   7.53442485
_cell_length_c   10.65528580
_cell_angle_alpha   90.00000000
_cell_angle_beta   90.00000000
_cell_angle_gamma   90.00000000
_symmetry_Int_Tables_number   1
_chemical_formula_structural   Cr25Fe29
_chemical_formula_sum   'Cr25 Fe29'
_cell_volume   604.87455210
_cell_formula_units_Z   1
loop_
 _symmetry_equiv_pos_site_id
 _symmetry_equiv_pos_as_xyz
  1  'x, y, z'
loop_
 _atom_site_type_symbol
 _atom_site_label
 _atom_site_symmetry_multiplicity
 _atom_site_fract_x
 _atom_site_fract_y
 _atom_site_fract_z
 _atom_site_occupancy
  Fe  Fe0  1  0.99422092  0.99420098  0.99503734  1
  Cr  Cr1  1  0.16130026  0.16163792  0.16400979  1
  Fe  Fe2  1  0.99504890  -0.00424828  0.32936208  1
  Cr  Cr3  1  0.99257116  0.32863246  0.99427597  1
  Cr  Cr4  1  0.16292494  0.49620003  0.16225568  1
  Fe  Fe5  1  0.99452304  0.32789273  0.32971609  1
  Fe  Fe6  1  0.99468703  0.66400751  0.99441769  1
  Cr  Cr7  1  0.15947570  0.82874859  0.16079853  1
  Fe  Fe8  1  0.99504353  0.66294036  0.32948901  1
  Fe  Fe9  1  0.32969922  0.99368637  0.99454349  1
  Cr  Cr10  1  0.49717788  0.16327554  0.16125084  1
  Cr  Cr11  1  0.32706256  0.99531643  0.32999683  1
  Cr  Cr12  1  0.32984737  0.32895771  -0.00355500  1
  Fe  Fe13  1  0.49577044  0.49599136  0.16171603  1
  Fe  Fe14  1  0.32912329  0.32885161  0.32870121  1
  Fe  Fe15  1  0.32970583  0.66405155  -0.00445988  1
  Fe  Fe16  1  0.49635669  0.82774977  0.16035026  1
  Cr  Cr17  1  0.32864241  0.66230873  0.32786635  1
  Fe  Fe18  1  0.66266616  0.99532729  0.99503930  1
  Fe  Fe19  1  0.82913089  0.16124822  0.16220886  1
  Cr  Cr20  1  0.66422246  -0.00340661  0.32751985  1
  Fe  Fe21  1  0.66269984  0.32838335  0.99491615  1
  Cr  Cr22  1  0.82774367  0.49675173  0.16283160  1
  Fe  Fe23  1  0.66293742  0.32885916  0.32896254  1
  Fe  Fe24  1  0.66218957  0.66287905  -0.00445880  1
  Fe  Fe25  1  0.82901831  0.82996172  0.16136198  1
  Cr  Cr26  1  0.66264946  0.66102605  0.32893919  1
  Fe  Fe27  1  0.16033650  0.16206763  0.49553829  1
  Fe  Fe28  1  0.99541369  -0.00361445  0.66217700  1
  Cr  Cr29  1  0.16216676  0.16094763  0.82704171  1
  Cr  Cr30  1  0.16100636  0.49334331  0.49517579  1
  Fe  Fe31  1  0.99505187  0.32738232  0.66183189  1
  Cr  Cr32  1  0.16120255  0.49620106  0.82915340  1
  Fe  Fe33  1  0.16091712  0.83033374  0.49490502  1
  Cr  Cr34  1  0.99521715  0.66118161  0.66281872  1
  Fe  Fe35  1  0.16182940  0.82923547  0.83048508  1
  Cr  Cr36  1  0.49455231  0.16420085  0.49642294  1
  Cr  Cr37  1  0.32755976  0.99533238  0.66226960  1
  Fe  Fe38  1  0.49634946  0.16135911  0.82983160  1
  Cr  Cr39  1  0.49584308  0.49327832  0.49433982  1
  Fe  Fe40  1  0.32799213  0.32799365  0.66234669  1
  Cr  Cr41  1  0.49642659  0.49489984  0.82925486  1
  Cr  Cr42  1  0.49635176  0.82910667  0.49644211  1
  Cr  Cr43  1  0.32792038  0.66424432  0.66226374  1
  Fe  Fe44  1  0.49523934  0.82986293  0.83070315  1
  Fe  Fe45  1  0.83121298  0.16382280  0.49502896  1
  Cr  Cr46  1  0.66252833  -0.00344078  0.66388183  1
  Fe  Fe47  1  0.82838273  0.16198449  0.82934847  1
  Fe  Fe48  1  0.82962469  0.49354380  0.49440190  1
  Cr  Cr49  1  0.66559331  0.32829195  0.66325504  1
  Fe  Fe50  1  0.82900536  0.49538819  0.82997452  1
  Cr  Cr51  1  0.83141882  0.82942417  0.49426040  1
  Cr  Cr52  1  0.66345188  0.66173435  0.66210468  1
  Fe  Fe53  1  0.82951691  0.82921349  0.83020003  1
" 