4482,Fe47Cr53_7,-217.329046569309, 163.306945955283,Fe47Cr53,"# generated using pymatgen
 data_Cr25Fe29
_symmetry_space_group_name_H-M   'P 1'
_cell_length_a   7.53436330
_cell_length_b   7.53436330
_cell_length_c   10.65519876
_cell_angle_alpha   90.00000000
_cell_angle_beta   90.00000000
_cell_angle_gamma   90.00000000
_symmetry_Int_Tables_number   1
_chemical_formula_structural   Cr25Fe29
_chemical_formula_sum   'Cr25 Fe29'
_cell_volume   604.85972942
_cell_formula_units_Z   1
loop_
 _symmetry_equiv_pos_site_id
 _symmetry_equiv_pos_as_xyz
  1  'x, y, z'
loop_
 _atom_site_type_symbol
 _atom_site_label
 _atom_site_symmetry_multiplicity
 _atom_site_fract_x
 _atom_site_fract_y
 _atom_site_fract_z
 _atom_site_occupancy
  Fe  Fe0  1  0.99414564  0.99540137  0.99501626  1
  Fe  Fe1  1  0.16185505  0.16634015  0.16068737  1
  Cr  Cr2  1  -0.00291325  -0.00421180  0.32698339  1
  Fe  Fe3  1  -0.00151398  0.32530491  -0.00442430  1
  Fe  Fe4  1  0.16412344  0.49404487  0.16004287  1
  Cr  Cr5  1  -0.00318756  0.33080590  0.33145140  1
  Fe  Fe6  1  -0.00326934  0.66340619  0.99537441  1
  Cr  Cr7  1  0.16232469  0.82663284  0.16169610  1
  Cr  Cr8  1  0.99453413  0.66012260  0.32940130  1
  Cr  Cr9  1  0.32789799  -0.00058776  -0.00371961  1
  Fe  Fe10  1  0.49570243  0.16653635  0.16085240  1
  Cr  Cr11  1  0.32867430  -0.00087566  0.32474530  1
  Fe  Fe12  1  0.32962903  0.33103658  -0.00410154  1
  Fe  Fe13  1  0.49456813  0.49407935  0.15989628  1
  Fe  Fe14  1  0.33117407  0.33259089  0.32668647  1
  Fe  Fe15  1  0.33022984  0.66189211  0.99506513  1
  Cr  Cr16  1  0.49567456  0.82837750  0.16350454  1
  Fe  Fe17  1  0.32801415  0.65916152  0.32824555  1
  Fe  Fe18  1  0.66229214  0.99545807  0.99543680  1
  Cr  Cr19  1  0.82811343  0.16311144  0.16230477  1
  Cr  Cr20  1  0.66132562  0.99513254  0.32776402  1
  Fe  Fe21  1  0.65905570  0.32655432  0.99498141  1
  Cr  Cr22  1  0.82996154  0.49363083  0.15803964  1
  Fe  Fe23  1  0.66124846  0.32875616  0.32852747  1
  Fe  Fe24  1  0.66056326  0.66310459  0.99518328  1
  Fe  Fe25  1  0.82882820  0.82797680  0.15949120  1
  Cr  Cr26  1  0.66127823  0.65772169  0.32770216  1
  Cr  Cr27  1  0.16385973  0.16415064  0.49500367  1
  Cr  Cr28  1  -0.00317244  -0.00415420  0.66524111  1
  Fe  Fe29  1  0.16113174  0.16402992  0.83101211  1
  Fe  Fe30  1  0.16638163  0.49596530  0.49620859  1
  Cr  Cr31  1  0.99456213  0.32837391  0.66007915  1
  Cr  Cr32  1  0.16265830  0.49518220  0.82937293  1
  Cr  Cr33  1  0.16518615  0.82747464  0.49628290  1
  Cr  Cr34  1  0.99431379  0.66111110  0.66108376  1
  Fe  Fe35  1  0.16091102  0.82802517  0.83159347  1
  Cr  Cr36  1  0.49730624  0.16226825  0.49507222  1
  Cr  Cr37  1  0.32872751  -0.00196889  0.66610247  1
  Fe  Fe38  1  0.49615873  0.16578737  0.83029983  1
  Fe  Fe39  1  0.49218816  0.49471805  0.49487041  1
  Fe  Fe40  1  0.32939825  0.33097028  0.66337611  1
  Fe  Fe41  1  0.49511445  0.49488982  0.83107456  1
  Cr  Cr42  1  0.49359022  0.82821431  0.49647660  1
  Fe  Fe43  1  0.32843165  0.65967703  0.66339215  1
  Cr  Cr44  1  0.49565643  0.82997239  0.82658729  1
  Fe  Fe45  1  0.82863502  0.16205234  0.49503844  1
  Fe  Fe46  1  0.66447435  -0.00319336  0.66369460  1
  Fe  Fe47  1  0.82760532  0.16028447  0.83135357  1
  Fe  Fe48  1  0.82625877  0.49380674  0.49476997  1
  Cr  Cr49  1  0.66115917  0.32946021  0.66178060  1
  Cr  Cr50  1  0.82964261  0.49234011  0.83333310  1
  Cr  Cr51  1  0.82750158  0.83042030  0.49511600  1
  Cr  Cr52  1  0.66145983  0.65936909  0.66259115  1
  Fe  Fe53  1  0.82929851  0.82803723  0.83112794  1
" 