8128,Fe47Cr53_5,-217.07556157283, 168.132602562895,Fe47Cr53,"# generated using pymatgen
 data_Cr25Fe29
_symmetry_space_group_name_H-M   'P 1'
_cell_length_a   7.52323884
_cell_length_b   7.52323884
_cell_length_c   10.63946640
_cell_angle_alpha   90.00000000
_cell_angle_beta   90.00000000
_cell_angle_gamma   90.00000000
_symmetry_Int_Tables_number   1
_chemical_formula_structural   Cr25Fe29
_chemical_formula_sum   'Cr25 Fe29'
_cell_volume   602.18446311
_cell_formula_units_Z   1
loop_
 _symmetry_equiv_pos_site_id
 _symmetry_equiv_pos_as_xyz
  1  'x, y, z'
loop_
 _atom_site_type_symbol
 _atom_site_label
 _atom_site_symmetry_multiplicity
 _atom_site_fract_x
 _atom_site_fract_y
 _atom_site_fract_z
 _atom_site_occupancy
  Fe  Fe0  1  0.99559851  0.99448170  -0.00365342  1
  Fe  Fe1  1  0.16121332  0.16261991  0.16300913  1
  Fe  Fe2  1  -0.00345163  -0.00144375  0.33275384  1
  Fe  Fe3  1  -0.00255746  0.33102214  0.99603161  1
  Cr  Cr4  1  0.16223303  0.49547617  0.16507558  1
  Fe  Fe5  1  0.99593194  0.32623256  0.33114324  1
  Cr  Cr6  1  0.99458478  0.66171263  0.99378318  1
  Fe  Fe7  1  0.16089259  0.83117910  0.16359415  1
  Cr  Cr8  1  0.99372062  0.66215155  0.33064533  1
  Cr  Cr9  1  0.32817749  0.99491822  -0.00169189  1
  Cr  Cr10  1  0.49783895  0.16307902  0.16209070  1
  Cr  Cr11  1  0.32870168  -0.00250590  0.32955390  1
  Cr  Cr12  1  0.33129385  0.33020854  0.99549782  1
  Cr  Cr13  1  0.49694043  0.49697073  0.16649166  1
  Cr  Cr14  1  0.32974348  0.32755255  0.33380300  1
  Cr  Cr15  1  0.32973795  0.66557998  0.99551747  1
  Fe  Fe16  1  0.49731597  0.83009589  0.16411175  1
  Cr  Cr17  1  0.32976530  0.66424194  0.32964632  1
  Fe  Fe18  1  0.66263033  0.99313906  0.99598042  1
  Cr  Cr19  1  0.83078679  0.16173901  0.16187382  1
  Cr  Cr20  1  0.66240885  -0.00303155  0.33535005  1
  Cr  Cr21  1  0.66710313  0.33222647  0.99510022  1
  Fe  Fe22  1  0.82972462  0.49457985  0.16569670  1
  Fe  Fe23  1  0.66423430  0.32997882  0.33137067  1
  Cr  Cr24  1  0.66448412  0.66091500  -0.00277772  1
  Cr  Cr25  1  0.82908900  0.83013544  0.16667516  1
  Fe  Fe26  1  0.66085906  0.66311746  0.33160122  1
  Fe  Fe27  1  0.16125597  0.16478234  0.49709376  1
  Cr  Cr28  1  0.99525851  -0.00356685  0.65969213  1
  Cr  Cr29  1  0.16227117  0.16512176  0.83114286  1
  Fe  Fe30  1  0.16319850  0.49449345  0.49873476  1
  Fe  Fe31  1  0.99550778  0.32934633  0.66117429  1
  Cr  Cr32  1  0.16492795  0.49850540  0.82342753  1
  Cr  Cr33  1  0.16160856  0.82710542  0.49678521  1
  Fe  Fe34  1  0.99514646  0.66194118  0.66128841  1
  Fe  Fe35  1  0.16297085  0.83082668  0.82707833  1
  Fe  Fe36  1  0.49797771  0.16515940  0.49878922  1
  Cr  Cr37  1  0.33030020  -0.00252953  0.66163690  1
  Cr  Cr38  1  0.49836551  0.16227686  0.82908666  1
  Fe  Fe39  1  0.49611927  0.49726794  0.49762805  1
  Fe  Fe40  1  0.33098836  0.33021044  0.66018402  1
  Fe  Fe41  1  0.49880944  0.49747279  0.82616031  1
  Fe  Fe42  1  0.49720552  0.82741870  0.49793030  1
  Fe  Fe43  1  0.33216709  0.66320994  0.66139339  1
  Fe  Fe44  1  0.49586756  0.82845638  0.82774415  1
  Fe  Fe45  1  0.82976533  0.16455997  0.49684115  1
  Fe  Fe46  1  0.66221510  -0.00348860  0.65909886  1
  Cr  Cr47  1  0.82869309  0.16104419  0.83029975  1
  Cr  Cr48  1  0.82918462  0.49660772  0.49495147  1
  Fe  Fe49  1  0.66314417  0.32936010  0.66181285  1
  Fe  Fe50  1  0.82971853  0.49498215  0.82500401  1
  Fe  Fe51  1  0.82728272  0.82900179  0.49767372  1
  Fe  Fe52  1  0.66138598  0.66275355  0.66185600  1
  Cr  Cr53  1  0.82799952  0.82964437  0.82555443  1
" 