8542,Fe47Cr53_17,-217.193990122189, 169.067277499497,Fe47Cr53,"# generated using pymatgen
 data_Cr25Fe29
_symmetry_space_group_name_H-M   'P 1'
_cell_length_a   7.53217252
_cell_length_b   7.53217252
_cell_length_c   10.65210053
_cell_angle_alpha   90.00000000
_cell_angle_beta   90.00000000
_cell_angle_gamma   90.00000000
_symmetry_Int_Tables_number   1
_chemical_formula_structural   Cr25Fe29
_chemical_formula_sum   'Cr25 Fe29'
_cell_volume   604.33225480
_cell_formula_units_Z   1
loop_
 _symmetry_equiv_pos_site_id
 _symmetry_equiv_pos_as_xyz
  1  'x, y, z'
loop_
 _atom_site_type_symbol
 _atom_site_label
 _atom_site_symmetry_multiplicity
 _atom_site_fract_x
 _atom_site_fract_y
 _atom_site_fract_z
 _atom_site_occupancy
  Fe  Fe0  1  0.99407948  -0.00393212  0.99142257  1
  Cr  Cr1  1  0.16073970  0.16163616  0.16098042  1
  Fe  Fe2  1  0.99565900  -0.00260559  0.33055191  1
  Fe  Fe3  1  -0.00345227  0.32809414  0.99364939  1
  Cr  Cr4  1  0.16374610  0.49444733  0.16237338  1
  Fe  Fe5  1  -0.00377635  0.32784632  0.33080091  1
  Cr  Cr6  1  0.99525405  0.66271383  0.99410684  1
  Cr  Cr7  1  0.15963438  0.83137130  0.16282993  1
  Cr  Cr8  1  0.99531077  0.66077820  0.32913430  1
  Cr  Cr9  1  0.32634101  0.99486879  0.99363594  1
  Cr  Cr10  1  0.49426271  0.16310962  0.16258641  1
  Fe  Fe11  1  0.32824145  -0.00395110  0.33087465  1
  Fe  Fe12  1  0.32786069  0.32996367  0.99491944  1
  Fe  Fe13  1  0.49432374  0.49676699  0.16014482  1
  Cr  Cr14  1  0.32886536  0.32764888  0.33246252  1
  Fe  Fe15  1  0.33027355  0.66258880  -0.00402253  1
  Fe  Fe16  1  0.49482505  0.83051850  0.16065112  1
  Cr  Cr17  1  0.32900527  0.66363364  0.32858838  1
  Cr  Cr18  1  0.66210036  -0.00399885  0.99145078  1
  Cr  Cr19  1  0.83109168  0.15967782  0.16316480  1
  Cr  Cr20  1  0.66024004  -0.00374668  0.33248008  1
  Cr  Cr21  1  0.66390701  0.33197653  -0.00161023  1
  Fe  Fe22  1  0.83190208  0.49476939  0.16098574  1
  Cr  Cr23  1  0.66397033  0.32953054  0.32826251  1
  Fe  Fe24  1  0.66187111  0.66414540  -0.00292030  1
  Fe  Fe25  1  0.82827497  0.83031402  0.16080122  1
  Cr  Cr26  1  0.66307740  0.66196084  0.32239892  1
  Fe  Fe27  1  0.15985857  0.16251081  0.49668571  1
  Cr  Cr28  1  -0.00417217  0.99471283  0.66808390  1
  Fe  Fe29  1  0.16226784  0.16381106  0.82965804  1
  Fe  Fe30  1  0.16181581  0.49474208  0.49885549  1
  Fe  Fe31  1  -0.00275277  0.32762494  0.66257995  1
  Cr  Cr32  1  0.16379963  0.49517613  0.82542891  1
  Cr  Cr33  1  0.16138740  0.82804976  0.49471994  1
  Fe  Fe34  1  0.99539236  0.66192626  0.66381001  1
  Fe  Fe35  1  0.16414777  0.82736903  0.82877434  1
  Fe  Fe36  1  0.49603455  0.16072395  0.49739330  1
  Cr  Cr37  1  0.33001152  0.99479963  0.66134934  1
  Cr  Cr38  1  0.49577393  0.16405772  0.82768433  1
  Cr  Cr39  1  0.49531965  0.49648527  0.49835214  1
  Fe  Fe40  1  0.32755042  0.32775858  0.66069774  1
  Cr  Cr41  1  0.49559201  0.49694427  0.83029374  1
  Fe  Fe42  1  0.49627011  0.82771861  0.49677219  1
  Fe  Fe43  1  0.32880322  0.66298597  0.66206047  1
  Fe  Fe44  1  0.49512385  0.82741316  0.82758719  1
  Fe  Fe45  1  0.83180432  0.16210341  0.49663315  1
  Fe  Fe46  1  0.66307291  0.99438638  0.66347178  1
  Fe  Fe47  1  0.83090269  0.16534112  0.82947274  1
  Cr  Cr48  1  0.83039536  0.49652373  0.49735542  1
  Cr  Cr49  1  0.66426100  0.32709540  0.66140685  1
  Fe  Fe50  1  0.82914161  0.49569409  0.82767173  1
  Cr  Cr51  1  0.82805478  0.83003645  0.49668209  1
  Fe  Fe52  1  0.66213870  0.66436086  0.66440115  1
  Fe  Fe53  1  0.82692800  0.82607385  0.82796617  1
" 