5871,Fe47Cr53_14,-217.224810844661, 171.080754623774,Fe47Cr53,"# generated using pymatgen
 data_Cr25Fe29
_symmetry_space_group_name_H-M   'P 1'
_cell_length_a   7.53123201
_cell_length_b   7.53123201
_cell_length_c   10.65077044
_cell_angle_alpha   90.00000000
_cell_angle_beta   90.00000000
_cell_angle_gamma   90.00000000
_symmetry_Int_Tables_number   1
_chemical_formula_structural   Cr25Fe29
_chemical_formula_sum   'Cr25 Fe29'
_cell_volume   604.10590046
_cell_formula_units_Z   1
loop_
 _symmetry_equiv_pos_site_id
 _symmetry_equiv_pos_as_xyz
  1  'x, y, z'
loop_
 _atom_site_type_symbol
 _atom_site_label
 _atom_site_symmetry_multiplicity
 _atom_site_fract_x
 _atom_site_fract_y
 _atom_site_fract_z
 _atom_site_occupancy
  Fe  Fe0  1  0.99445668  -0.00409945  -0.00201543  1
  Fe  Fe1  1  0.16251476  0.16025020  0.16250414  1
  Fe  Fe2  1  -0.00061513  0.99391746  0.32813759  1
  Cr  Cr3  1  0.99465789  0.33003638  0.99453926  1
  Fe  Fe4  1  0.16067097  0.49860536  0.16343541  1
  Cr  Cr5  1  0.99439108  0.32764687  0.32561035  1
  Fe  Fe6  1  0.99500790  0.66180887  -0.00310099  1
  Fe  Fe7  1  0.16437433  0.82941175  0.16151960  1
  Fe  Fe8  1  -0.00255723  0.66245427  0.32792247  1
  Fe  Fe9  1  0.32882700  0.99510217  -0.00149346  1
  Fe  Fe10  1  0.49443793  0.15997159  0.16290685  1
  Fe  Fe11  1  0.33007431  -0.00394041  0.32793576  1
  Cr  Cr12  1  0.32619919  0.33280205  -0.00164265  1
  Cr  Cr13  1  0.49658129  0.49333349  0.16711894  1
  Fe  Fe14  1  0.33009546  0.32660735  0.32815710  1
  Fe  Fe15  1  0.32734519  0.66445783  -0.00259003  1
  Fe  Fe16  1  0.49406951  0.82992126  0.16385676  1
  Cr  Cr17  1  0.32950869  0.66378968  0.33058796  1
  Cr  Cr18  1  0.66077448  0.99389883  0.99445290  1
  Fe  Fe19  1  0.82936530  0.16098746  0.16257653  1
  Cr  Cr20  1  0.66368891  -0.00339293  0.32891783  1
  Cr  Cr21  1  0.66590693  0.32717895  -0.00207161  1
  Fe  Fe22  1  0.83008556  0.49549891  0.16382551  1
  Fe  Fe23  1  0.66180620  0.32785176  0.32869884  1
  Cr  Cr24  1  0.65847795  0.66378716  -0.00204630  1
  Cr  Cr25  1  0.83189793  0.82689054  0.16468718  1
  Fe  Fe26  1  0.66381482  0.66148114  0.32812173  1
  Cr  Cr27  1  0.16512646  0.16067258  0.49236794  1
  Cr  Cr28  1  0.99425233  -0.00126952  0.65841916  1
  Cr  Cr29  1  0.16336073  0.16212353  0.83149908  1
  Cr  Cr30  1  0.16088961  0.49424357  0.49585529  1
  Cr  Cr31  1  0.99223922  0.33040838  0.66725007  1
  Fe  Fe32  1  0.16124436  0.49898196  0.83015011  1
  Fe  Fe33  1  0.16342999  0.82784976  0.49404650  1
  Fe  Fe34  1  -0.00341963  0.66250273  0.66255710  1
  Cr  Cr35  1  0.15948062  0.83106172  0.83106783  1
  Fe  Fe36  1  0.49901519  0.16465660  0.49455243  1
  Cr  Cr37  1  0.33123361  0.99327555  0.65973731  1
  Cr  Cr38  1  0.49390044  0.16322327  0.82835645  1
  Fe  Fe39  1  0.49627988  0.49398133  0.49397311  1
  Cr  Cr40  1  0.32687090  0.33073643  0.65953211  1
  Cr  Cr41  1  0.49623561  0.49497934  0.82751176  1
  Cr  Cr42  1  0.50091064  0.82838197  0.49697740  1
  Cr  Cr43  1  0.32918450  0.66291648  0.66306668  1
  Fe  Fe44  1  0.49391508  0.82932588  0.82878872  1
  Fe  Fe45  1  0.82849246  0.16480393  0.49438218  1
  Fe  Fe46  1  0.66319370  -0.00168733  0.66180608  1
  Fe  Fe47  1  0.82762371  0.16124181  0.82881510  1
  Cr  Cr48  1  0.82557967  0.49875901  0.49417150  1
  Fe  Fe49  1  0.66168820  0.32802118  0.66094110  1
  Fe  Fe50  1  0.82817708  0.49701069  0.82944688  1
  Cr  Cr51  1  0.83340431  0.82842039  0.49487797  1
  Fe  Fe52  1  0.66352642  0.66115708  0.66269421  1
  Cr  Cr53  1  0.82820138  0.82785754  0.82649807  1
" 