3738,Fe47Cr53_13,-217.082999229835, 167.206402080667,Fe47Cr53,"# generated using pymatgen
 data_Cr25Fe29
_symmetry_space_group_name_H-M   'P 1'
_cell_length_a   7.52711347
_cell_length_b   7.52711347
_cell_length_c   10.64494595
_cell_angle_alpha   90.00000000
_cell_angle_beta   90.00000000
_cell_angle_gamma   90.00000000
_symmetry_Int_Tables_number   1
_chemical_formula_structural   Cr25Fe29
_chemical_formula_sum   'Cr25 Fe29'
_cell_volume   603.11535659
_cell_formula_units_Z   1
loop_
 _symmetry_equiv_pos_site_id
 _symmetry_equiv_pos_as_xyz
  1  'x, y, z'
loop_
 _atom_site_type_symbol
 _atom_site_label
 _atom_site_symmetry_multiplicity
 _atom_site_fract_x
 _atom_site_fract_y
 _atom_site_fract_z
 _atom_site_occupancy
  Cr  Cr0  1  -0.00331968  -0.00279418  0.99565205  1
  Fe  Fe1  1  0.16413034  0.16411265  0.16018048  1
  Cr  Cr2  1  -0.00142314  0.99554064  0.33175277  1
  Fe  Fe3  1  -0.00247522  0.32902330  0.99290474  1
  Cr  Cr4  1  0.16312974  0.49790775  0.15947047  1
  Cr  Cr5  1  0.00011319  0.33035474  0.32820445  1
  Fe  Fe6  1  0.99469462  0.66155823  0.99405218  1
  Fe  Fe7  1  0.16442640  0.82853537  0.16038565  1
  Cr  Cr8  1  -0.00370229  0.66200537  0.33024229  1
  Fe  Fe9  1  0.32918296  -0.00208115  -0.00262293  1
  Fe  Fe10  1  0.49433531  0.16423857  0.16118232  1
  Cr  Cr11  1  0.32930839  -0.00347128  0.32377323  1
  Fe  Fe12  1  0.32834679  0.32697392  0.99503584  1
  Cr  Cr13  1  0.49504710  0.49617018  0.16483055  1
  Cr  Cr14  1  0.32865662  0.32988517  0.33324922  1
  Fe  Fe15  1  0.33018347  0.66335416  -0.00390550  1
  Fe  Fe16  1  0.49361803  0.82779322  0.15987222  1
  Fe  Fe17  1  0.32814127  0.66291910  0.32926596  1
  Cr  Cr18  1  0.66035444  0.99516400  0.99547277  1
  Cr  Cr19  1  0.82939531  0.16433875  0.16596260  1
  Cr  Cr20  1  0.66013080  0.99348876  0.32811785  1
  Cr  Cr21  1  0.66214984  0.32978957  0.99499062  1
  Cr  Cr22  1  0.82976731  0.49404163  0.16047031  1
  Fe  Fe23  1  0.66066479  0.32913025  0.32914897  1
  Fe  Fe24  1  0.66310104  0.66251132  0.99521211  1
  Cr  Cr25  1  0.83154096  0.82918547  0.16246055  1
  Cr  Cr26  1  0.66122427  0.66255628  0.32887144  1
  Fe  Fe27  1  0.16357321  0.16291299  0.49798130  1
  Fe  Fe28  1  0.99439599  0.99548925  0.66376576  1
  Fe  Fe29  1  0.16455699  0.16457485  0.83060665  1
  Fe  Fe30  1  0.16492643  0.49585718  0.49825255  1
  Cr  Cr31  1  -0.00101278  0.33069753  0.66490089  1
  Fe  Fe32  1  0.16285649  0.49603232  0.83121431  1
  Cr  Cr33  1  0.16306656  0.82873945  0.49662604  1
  Fe  Fe34  1  0.99497482  0.66285576  0.66282756  1
  Cr  Cr35  1  0.16251771  0.82805574  0.83026951  1
  Cr  Cr36  1  0.49852943  0.16424317  0.49768030  1
  Cr  Cr37  1  0.32922312  -0.00096601  0.66472118  1
  Fe  Fe38  1  0.49523919  0.16367458  0.82861380  1
  Fe  Fe39  1  0.49472321  0.49670877  0.49848906  1
  Fe  Fe40  1  0.32943600  0.33141062  0.66237901  1
  Cr  Cr41  1  0.49477130  0.49554947  0.82705131  1
  Cr  Cr42  1  0.49325916  0.82831631  0.49733120  1
  Fe  Fe43  1  0.32740185  0.65981799  0.66262124  1
  Cr  Cr44  1  0.49456769  0.82861951  0.82972567  1
  Cr  Cr45  1  0.82958957  0.16217687  0.49481573  1
  Fe  Fe46  1  0.66528274  0.99588451  0.66451478  1
  Fe  Fe47  1  0.82878996  0.16205889  0.82826090  1
  Cr  Cr48  1  0.82754155  0.49302587  0.49389642  1
  Fe  Fe49  1  0.66337698  0.32920749  0.66445436  1
  Fe  Fe50  1  0.83056567  0.49839376  0.82948052  1
  Fe  Fe51  1  0.82790610  0.82893773  0.49896083  1
  Fe  Fe52  1  0.66466112  0.66231546  0.66256808  1
  Fe  Fe53  1  0.82909909  0.82771994  0.82829964  1
" 