2076,Fe47Cr53_16,-217.28680194603, 166.364961934263,Fe47Cr53,"# generated using pymatgen
 data_Cr25Fe29
_symmetry_space_group_name_H-M   'P 1'
_cell_length_a   7.53308124
_cell_length_b   7.53308124
_cell_length_c   10.65338566
_cell_angle_alpha   90.00000000
_cell_angle_beta   90.00000000
_cell_angle_gamma   90.00000000
_symmetry_Int_Tables_number   1
_chemical_formula_structural   Cr25Fe29
_chemical_formula_sum   'Cr25 Fe29'
_cell_volume   604.55101056
_cell_formula_units_Z   1
loop_
 _symmetry_equiv_pos_site_id
 _symmetry_equiv_pos_as_xyz
  1  'x, y, z'
loop_
 _atom_site_type_symbol
 _atom_site_label
 _atom_site_symmetry_multiplicity
 _atom_site_fract_x
 _atom_site_fract_y
 _atom_site_fract_z
 _atom_site_occupancy
  Fe  Fe0  1  0.99363020  -0.00361829  -0.00297325  1
  Cr  Cr1  1  0.16155941  0.16108793  0.16362674  1
  Fe  Fe2  1  -0.00408735  -0.00340218  0.33067138  1
  Cr  Cr3  1  0.99265364  0.32676294  0.99276471  1
  Cr  Cr4  1  0.16268279  0.49322687  0.16179065  1
  Fe  Fe5  1  0.99332265  0.32670184  0.32880501  1
  Cr  Cr6  1  0.99537364  0.66345306  -0.00338685  1
  Fe  Fe7  1  0.16210438  0.83042634  0.16360909  1
  Cr  Cr8  1  -0.00286299  0.66354940  0.32905001  1
  Cr  Cr9  1  0.33043661  -0.00393296  0.99491721  1
  Fe  Fe10  1  0.49629557  0.16355200  0.16331730  1
  Fe  Fe11  1  0.32761924  0.99370753  0.32847566  1
  Cr  Cr12  1  0.33176638  0.32750088  0.99181174  1
  Fe  Fe13  1  0.49660093  0.49298349  0.16516553  1
  Fe  Fe14  1  0.32943405  0.32757630  0.32789932  1
  Cr  Cr15  1  0.32975291  0.66296518  -0.00104524  1
  Fe  Fe16  1  0.49540344  0.83098062  0.16490977  1
  Fe  Fe17  1  0.33004450  0.66367882  0.32779853  1
  Fe  Fe18  1  0.66347492  -0.00174199  -0.00191193  1
  Fe  Fe19  1  0.82819361  0.16291519  0.16258621  1
  Cr  Cr20  1  0.66342981  -0.00148481  0.32981063  1
  Fe  Fe21  1  0.66219556  0.32678706  -0.00371740  1
  Fe  Fe22  1  0.82848776  0.49332173  0.16403194  1
  Fe  Fe23  1  0.66349986  0.32978801  0.32761837  1
  Cr  Cr24  1  0.66200940  0.66181758  -0.00050747  1
  Fe  Fe25  1  0.82997336  0.83184154  0.16305498  1
  Fe  Fe26  1  0.66259898  0.66328411  0.32630506  1
  Fe  Fe27  1  0.16115825  0.16045487  0.49279737  1
  Cr  Cr28  1  -0.00403318  -0.00275432  0.65950255  1
  Fe  Fe29  1  0.16164293  0.16076740  0.82745915  1
  Cr  Cr30  1  0.16202705  0.49080840  0.49647383  1
  Fe  Fe31  1  -0.00364517  0.32635873  0.66223804  1
  Cr  Cr32  1  0.16143304  0.49286429  0.82758284  1
  Fe  Fe33  1  0.16381778  0.82964677  0.49475598  1
  Fe  Fe34  1  -0.00405859  0.66293393  0.66169783  1
  Cr  Cr35  1  0.16086066  0.83001537  0.83110175  1
  Cr  Cr36  1  0.49224729  0.16160366  0.49493859  1
  Fe  Fe37  1  0.32781449  -0.00131423  0.66292538  1
  Fe  Fe38  1  0.49756099  0.16143197  0.82747867  1
  Cr  Cr39  1  0.49582576  0.49588869  0.49282824  1
  Fe  Fe40  1  0.32780451  0.32514802  0.66273193  1
  Cr  Cr41  1  0.49597977  0.49511898  0.82833573  1
  Cr  Cr42  1  0.49661639  0.83025565  0.49793511  1
  Cr  Cr43  1  0.32755184  0.66296339  0.66204920  1
  Cr  Cr44  1  0.49856797  0.83247891  0.82655798  1
  Fe  Fe45  1  0.82970855  0.16423071  0.49426243  1
  Fe  Fe46  1  0.66231549  -0.00182095  0.66184384  1
  Fe  Fe47  1  0.82767819  0.16106845  0.82902893  1
  Cr  Cr48  1  0.82962751  0.49612716  0.49623701  1
  Cr  Cr49  1  0.66276028  0.32660611  0.66193704  1
  Cr  Cr50  1  0.82963927  0.49664041  0.82689086  1
  Cr  Cr51  1  0.82740913  0.82909942  0.49876219  1
  Fe  Fe52  1  0.66233912  0.66161688  0.66199983  1
  Cr  Cr53  1  0.82708027  0.83135600  0.82849286  1
" 