657,Fe47Cr53_11,-217.159650892263, 167.961337366057,Fe47Cr53,"# generated using pymatgen
 data_Cr25Fe29
_symmetry_space_group_name_H-M   'P 1'
_cell_length_a   7.53148442
_cell_length_b   7.53148442
_cell_length_c   10.65112741
_cell_angle_alpha   90.00000000
_cell_angle_beta   90.00000000
_cell_angle_gamma   90.00000000
_symmetry_Int_Tables_number   1
_chemical_formula_structural   Cr25Fe29
_chemical_formula_sum   'Cr25 Fe29'
_cell_volume   604.16664256
_cell_formula_units_Z   1
loop_
 _symmetry_equiv_pos_site_id
 _symmetry_equiv_pos_as_xyz
  1  'x, y, z'
loop_
 _atom_site_type_symbol
 _atom_site_label
 _atom_site_symmetry_multiplicity
 _atom_site_fract_x
 _atom_site_fract_y
 _atom_site_fract_z
 _atom_site_occupancy
  Cr  Cr0  1  -0.00356801  0.99504414  -0.00279336  1
  Fe  Fe1  1  0.16297536  0.16497857  0.16269421  1
  Fe  Fe2  1  -0.00412507  -0.00356803  0.32782774  1
  Fe  Fe3  1  0.99518278  0.33020797  -0.00374455  1
  Fe  Fe4  1  0.16288923  0.49298272  0.16318632  1
  Fe  Fe5  1  -0.00161505  0.32814149  0.32803005  1
  Cr  Cr6  1  0.99444853  0.66011949  -0.00373554  1
  Fe  Fe7  1  0.16231789  0.82944873  0.16309207  1
  Cr  Cr8  1  -0.00377023  0.66376087  0.32588537  1
  Cr  Cr9  1  0.32872913  -0.00349080  -0.00389417  1
  Fe  Fe10  1  0.49436923  0.16404720  0.16254410  1
  Cr  Cr11  1  0.32555672  -0.00339249  0.32877055  1
  Fe  Fe12  1  0.32822272  0.33025274  -0.00208235  1
  Fe  Fe13  1  0.49432940  0.49386198  0.16180312  1
  Fe  Fe14  1  0.32753944  0.33098213  0.32782662  1
  Cr  Cr15  1  0.32789589  0.66319483  -0.00244786  1
  Fe  Fe16  1  0.49598210  0.82940627  0.16376642  1
  Fe  Fe17  1  0.32941629  0.66106523  0.32761258  1
  Cr  Cr18  1  0.66210549  -0.00426240  0.99563548  1
  Cr  Cr19  1  0.82908692  0.16228156  0.16348140  1
  Fe  Fe20  1  0.66238024  0.99440692  0.32704516  1
  Fe  Fe21  1  0.66370003  0.32998262  -0.00315516  1
  Fe  Fe22  1  0.82987875  0.49403146  0.16196601  1
  Cr  Cr23  1  0.66151213  0.33045684  0.32940765  1
  Cr  Cr24  1  0.66480449  0.66088393  -0.00379566  1
  Fe  Fe25  1  0.82864179  0.82952176  0.16328543  1
  Cr  Cr26  1  0.66259296  0.66002993  0.32763220  1
  Fe  Fe27  1  0.15996686  0.16125584  0.49493069  1
  Fe  Fe28  1  0.99469606  -0.00368065  0.66314346  1
  Cr  Cr29  1  0.16040033  0.16565108  0.83024560  1
  Cr  Cr30  1  0.16330938  0.49593001  0.49536375  1
  Fe  Fe31  1  -0.00366252  0.32908518  0.66355301  1
  Fe  Fe32  1  0.16044021  0.49447491  0.82858735  1
  Fe  Fe33  1  0.16027370  0.83045622  0.49552838  1
  Fe  Fe34  1  0.99425878  0.66172618  0.66358206  1
  Cr  Cr35  1  0.16124154  0.82656123  0.82750981  1
  Cr  Cr36  1  0.49660826  0.16198855  0.49397785  1
  Cr  Cr37  1  0.32712969  -0.00349286  0.66314815  1
  Cr  Cr38  1  0.49731641  0.16242301  0.83212672  1
  Fe  Fe39  1  0.49601010  0.49651872  0.49504346  1
  Cr  Cr40  1  0.32902525  0.32756634  0.65945549  1
  Cr  Cr41  1  0.49438275  0.49647741  0.82897739  1
  Cr  Cr42  1  0.49667918  0.82738533  0.49702541  1
  Cr  Cr43  1  0.32852093  0.66289577  0.66077770  1
  Fe  Fe44  1  0.49786336  0.82854488  0.82776514  1
  Cr  Cr45  1  0.83155300  0.16031034  0.49537305  1
  Fe  Fe46  1  0.66344417  0.99466698  0.66483595  1
  Fe  Fe47  1  0.82996165  0.16302688  0.82858189  1
  Cr  Cr48  1  0.83097971  0.49626361  0.49673071  1
  Cr  Cr49  1  0.66449496  0.33013539  0.66210789  1
  Fe  Fe50  1  0.83151547  0.49460042  0.82804299  1
  Cr  Cr51  1  0.82970902  0.83079348  0.49606083  1
  Fe  Fe52  1  0.66373351  0.66369890  0.66412806  1
  Fe  Fe53  1  0.82766633  0.82935840  0.82655063  1
" 