8890,Fe47Cr53_15,-217.333873443846, 166.864488553495,Fe47Cr53,"# generated using pymatgen
 data_Cr25Fe29
_symmetry_space_group_name_H-M   'P 1'
_cell_length_a   7.52991169
_cell_length_b   7.52991169
_cell_length_c   10.64890324
_cell_angle_alpha   90.00000000
_cell_angle_beta   90.00000000
_cell_angle_gamma   90.00000000
_symmetry_Int_Tables_number   1
_chemical_formula_structural   Cr25Fe29
_chemical_formula_sum   'Cr25 Fe29'
_cell_volume   603.78823514
_cell_formula_units_Z   1
loop_
 _symmetry_equiv_pos_site_id
 _symmetry_equiv_pos_as_xyz
  1  'x, y, z'
loop_
 _atom_site_type_symbol
 _atom_site_label
 _atom_site_symmetry_multiplicity
 _atom_site_fract_x
 _atom_site_fract_y
 _atom_site_fract_z
 _atom_site_occupancy
  Fe  Fe0  1  0.99546288  -0.00246246  -0.00277748  1
  Fe  Fe1  1  0.16185960  0.15947019  0.16164744  1
  Fe  Fe2  1  0.99422225  -0.00177850  0.32774819  1
  Fe  Fe3  1  -0.00340950  0.32802855  -0.00358966  1
  Cr  Cr4  1  0.16169787  0.49376926  0.16149482  1
  Fe  Fe5  1  0.99513949  0.32739367  0.32835414  1
  Fe  Fe6  1  -0.00370745  0.66229414  -0.00331433  1
  Fe  Fe7  1  0.16289092  0.83206896  0.16230135  1
  Cr  Cr8  1  -0.00242150  0.66429214  0.32728403  1
  Fe  Fe9  1  0.33089032  -0.00159780  -0.00302456  1
  Fe  Fe10  1  0.49461293  0.15998853  0.16210356  1
  Fe  Fe11  1  0.32899401  0.99462820  0.32784764  1
  Fe  Fe12  1  0.32875246  0.32721504  -0.00403296  1
  Cr  Cr13  1  0.49683233  0.49510344  0.16384938  1
  Cr  Cr14  1  0.32816065  0.32700120  0.32852356  1
  Cr  Cr15  1  0.32698147  0.66481652  0.99557049  1
  Cr  Cr16  1  0.49531984  0.83098892  0.16423561  1
  Fe  Fe17  1  0.32845775  0.66398471  0.32909242  1
  Fe  Fe18  1  0.66130230  -0.00338311  0.99543936  1
  Fe  Fe19  1  0.83131174  0.16193600  0.16223347  1
  Fe  Fe20  1  0.66394093  -0.00405126  0.32949244  1
  Cr  Cr21  1  0.66194587  0.32479459  -0.00246010  1
  Fe  Fe22  1  0.83098379  0.49429813  0.16177009  1
  Cr  Cr23  1  0.66440368  0.32537586  0.32689805  1
  Cr  Cr24  1  0.66285254  0.66366479  -0.00332723  1
  Cr  Cr25  1  0.83097253  0.83063934  0.16081337  1
  Cr  Cr26  1  0.66361257  0.66483701  0.32953149  1
  Cr  Cr27  1  0.16049368  0.16112324  0.49451594  1
  Fe  Fe28  1  0.99395044  -0.00317815  0.66202411  1
  Cr  Cr29  1  0.16239927  0.16170395  0.83020076  1
  Fe  Fe30  1  0.16315369  0.49656181  0.49474593  1
  Cr  Cr31  1  0.99571506  0.32874133  0.66099792  1
  Fe  Fe32  1  0.16140944  0.49594216  0.83094368  1
  Cr  Cr33  1  0.16308088  0.83190552  0.49416284  1
  Cr  Cr34  1  -0.00192680  0.66358643  0.66322366  1
  Cr  Cr35  1  0.16138802  0.83249794  0.83142685  1
  Cr  Cr36  1  0.49496351  0.16095995  0.49531063  1
  Fe  Fe37  1  0.33058334  0.99426132  0.66307599  1
  Fe  Fe38  1  0.49669586  0.15822648  0.82988380  1
  Cr  Cr39  1  0.49507619  0.49779230  0.49548786  1
  Cr  Cr40  1  0.32793652  0.32905570  0.66442533  1
  Cr  Cr41  1  0.49592469  0.49577970  0.82850524  1
  Fe  Fe42  1  0.49635183  0.83054920  0.49637047  1
  Fe  Fe43  1  0.32975295  0.66486688  0.66291646  1
  Fe  Fe44  1  0.49560834  0.83180901  0.82825513  1
  Fe  Fe45  1  0.82915035  0.15869154  0.49486922  1
  Fe  Fe46  1  0.66260624  0.99412872  0.66233108  1
  Fe  Fe47  1  0.82937575  0.16078167  0.83000111  1
  Cr  Cr48  1  0.82818729  0.49577459  0.49403498  1
  Cr  Cr49  1  0.66345734  0.32493405  0.66323649  1
  Cr  Cr50  1  0.82931568  0.49598461  0.83255360  1
  Fe  Fe51  1  0.82766407  0.83272714  0.49659769  1
  Fe  Fe52  1  0.66157585  0.66474407  0.66197071  1
  Cr  Cr53  1  0.82863656  0.83132107  0.82881622  1
" 