8599,Fe47Cr53_12,-217.164046450569, 177.668584576721,Fe47Cr53,"# generated using pymatgen
 data_Cr25Fe29
_symmetry_space_group_name_H-M   'P 1'
_cell_length_a   7.52496861
_cell_length_b   7.52496861
_cell_length_c   10.64191267
_cell_angle_alpha   90.00000000
_cell_angle_beta   90.00000000
_cell_angle_gamma   90.00000000
_symmetry_Int_Tables_number   1
_chemical_formula_structural   Cr25Fe29
_chemical_formula_sum   'Cr25 Fe29'
_cell_volume   602.59992917
_cell_formula_units_Z   1
loop_
 _symmetry_equiv_pos_site_id
 _symmetry_equiv_pos_as_xyz
  1  'x, y, z'
loop_
 _atom_site_type_symbol
 _atom_site_label
 _atom_site_symmetry_multiplicity
 _atom_site_fract_x
 _atom_site_fract_y
 _atom_site_fract_z
 _atom_site_occupancy
  Fe  Fe0  1  0.99600281  0.99392603  0.99588063  1
  Cr  Cr1  1  0.16416065  0.15900551  0.16265930  1
  Fe  Fe2  1  -0.00247051  0.99473692  0.33116606  1
  Cr  Cr3  1  0.00002976  0.33190283  0.99323950  1
  Fe  Fe4  1  0.16238875  0.49367024  0.16458269  1
  Fe  Fe5  1  -0.00042669  0.32866107  0.33031952  1
  Cr  Cr6  1  -0.00383796  0.65896852  -0.00221569  1
  Cr  Cr7  1  0.16328378  0.82854317  0.16102661  1
  Fe  Fe8  1  0.99540925  0.66571806  0.33103341  1
  Cr  Cr9  1  0.33615004  -0.00249812  -0.00235019  1
  Fe  Fe10  1  0.49654451  0.16600019  0.16401004  1
  Cr  Cr11  1  0.33323242  -0.00226578  0.33288564  1
  Fe  Fe12  1  0.33028713  0.33222041  0.99562573  1
  Cr  Cr13  1  0.49649493  0.49641953  0.16262848  1
  Fe  Fe14  1  0.32834287  0.33005021  0.33014028  1
  Fe  Fe15  1  0.33044023  0.66093265  0.99612953  1
  Fe  Fe16  1  0.49630163  0.82792927  0.16382352  1
  Cr  Cr17  1  0.32599773  0.66171966  0.33102639  1
  Cr  Cr18  1  0.66410117  -0.00351897  -0.00071960  1
  Cr  Cr19  1  0.83208212  0.16507496  0.16144721  1
  Cr  Cr20  1  0.66387582  0.99525149  0.32602093  1
  Fe  Fe21  1  0.66279331  0.33217659  -0.00360417  1
  Cr  Cr22  1  0.82711593  0.49660730  0.16909817  1
  Fe  Fe23  1  0.66029057  0.32795929  0.32917864  1
  Cr  Cr24  1  0.66400265  0.66745475  0.99490360  1
  Fe  Fe25  1  0.83149684  0.82910905  0.16452456  1
  Fe  Fe26  1  0.66042379  0.66580603  0.32989736  1
  Fe  Fe27  1  0.16164855  0.16288705  0.49607488  1
  Fe  Fe28  1  -0.00284498  0.99317474  0.66074280  1
  Cr  Cr29  1  0.16212388  0.15644244  0.82799350  1
  Fe  Fe30  1  0.16110540  0.49451986  0.49493910  1
  Fe  Fe31  1  0.99495589  0.32820969  0.66234220  1
  Fe  Fe32  1  0.16387861  0.49525368  0.82835713  1
  Fe  Fe33  1  0.16191947  0.82944505  0.49725196  1
  Cr  Cr34  1  -0.00384360  0.65880231  0.66164830  1
  Cr  Cr35  1  0.16541046  0.82778710  0.83091387  1
  Cr  Cr36  1  0.49569963  0.16483178  0.49537432  1
  Fe  Fe37  1  0.32865887  0.99420633  0.66016870  1
  Cr  Cr38  1  0.49696352  0.16700276  0.83039738  1
  Cr  Cr39  1  0.49722774  0.49884669  0.49709157  1
  Cr  Cr40  1  0.32477131  0.33029164  0.66190976  1
  Fe  Fe41  1  0.49140180  0.49971962  0.82875591  1
  Fe  Fe42  1  0.49756900  0.82931802  0.49695681  1
  Fe  Fe43  1  0.32996368  0.66516299  0.66172858  1
  Fe  Fe44  1  0.49670876  0.82937030  0.82852440  1
  Cr  Cr45  1  0.83131175  0.16418805  0.49745683  1
  Cr  Cr46  1  0.66142618  0.99397506  0.66357541  1
  Cr  Cr47  1  0.83062079  0.16312700  0.82845821  1
  Cr  Cr48  1  0.82588775  0.49579895  0.49286090  1
  Fe  Fe49  1  0.66094847  0.33053219  0.66254579  1
  Cr  Cr50  1  0.82284266  0.49460072  0.82633072  1
  Fe  Fe51  1  0.82844832  0.82912952  0.49569460  1
  Fe  Fe52  1  0.66101233  0.66367267  0.66336914  1
  Fe  Fe53  1  0.83184649  0.83031917  0.82835534  1
" 