7863,Fe47Cr53_2,-217.284867665911, 172.361155505446,Fe47Cr53,"# generated using pymatgen
 data_Cr25Fe29
_symmetry_space_group_name_H-M   'P 1'
_cell_length_a   7.52400961
_cell_length_b   7.52400961
_cell_length_c   10.64055643
_cell_angle_alpha   90.00000000
_cell_angle_beta   90.00000000
_cell_angle_gamma   90.00000000
_symmetry_Int_Tables_number   1
_chemical_formula_structural   Cr25Fe29
_chemical_formula_sum   'Cr25 Fe29'
_cell_volume   602.36956667
_cell_formula_units_Z   1
loop_
 _symmetry_equiv_pos_site_id
 _symmetry_equiv_pos_as_xyz
  1  'x, y, z'
loop_
 _atom_site_type_symbol
 _atom_site_label
 _atom_site_symmetry_multiplicity
 _atom_site_fract_x
 _atom_site_fract_y
 _atom_site_fract_z
 _atom_site_occupancy
  Cr  Cr0  1  0.99593738  0.99549854  0.99510443  1
  Fe  Fe1  1  0.16231477  0.16367282  0.16165915  1
  Cr  Cr2  1  -0.00330724  -0.00306924  0.33520791  1
  Fe  Fe3  1  0.99518522  0.33293620  -0.00291557  1
  Fe  Fe4  1  0.16083735  0.49563766  0.16298416  1
  Cr  Cr5  1  0.99550828  0.32862732  0.32751293  1
  Fe  Fe6  1  0.99487731  0.66014242  0.99520994  1
  Cr  Cr7  1  0.16222092  0.82849731  0.16363812  1
  Fe  Fe8  1  -0.00355670  0.66137058  0.32959526  1
  Fe  Fe9  1  0.32999923  0.99606633  -0.00344845  1
  Cr  Cr10  1  0.49634316  0.16191239  0.15986321  1
  Cr  Cr11  1  0.32906117  -0.00297782  0.32748558  1
  Cr  Cr12  1  0.33064130  0.33049679  -0.00227596  1
  Cr  Cr13  1  0.49685032  0.49706052  0.16698502  1
  Fe  Fe14  1  0.32843790  0.32779996  0.32992369  1
  Cr  Cr15  1  0.33017318  0.66232128  0.99566349  1
  Fe  Fe16  1  0.49775789  0.82959710  0.16188570  1
  Cr  Cr17  1  0.33089703  0.66178376  0.33096917  1
  Fe  Fe18  1  0.66236414  0.99587865  0.99573755  1
  Cr  Cr19  1  0.82937566  0.16291258  0.16275695  1
  Fe  Fe20  1  0.66159521  -0.00267959  0.32974584  1
  Fe  Fe21  1  0.66414283  0.33214267  0.99538642  1
  Fe  Fe22  1  0.83026549  0.49721085  0.16183213  1
  Cr  Cr23  1  0.66163557  0.33063141  0.33104513  1
  Fe  Fe24  1  0.66480509  0.66082198  0.99611924  1
  Cr  Cr25  1  0.82827872  0.82853818  0.16463424  1
  Fe  Fe26  1  0.66428858  0.66358871  0.32936803  1
  Fe  Fe27  1  0.16465034  0.16442321  0.49704243  1
  Cr  Cr28  1  0.99511963  -0.00327034  0.65884935  1
  Cr  Cr29  1  0.16263416  0.16538154  0.83121523  1
  Cr  Cr30  1  0.16494818  0.49487069  0.49758923  1
  Fe  Fe31  1  0.99619203  0.32964997  0.66261265  1
  Fe  Fe32  1  0.16168282  0.49498235  0.82897838  1
  Fe  Fe33  1  0.16391309  0.82779526  0.49676816  1
  Cr  Cr34  1  0.99568029  0.66336967  0.66546671  1
  Cr  Cr35  1  0.16317591  0.82834696  0.82815725  1
  Fe  Fe36  1  0.49619246  0.16419921  0.49689357  1
  Cr  Cr37  1  0.32992759  -0.00363088  0.66363492  1
  Fe  Fe38  1  0.49681129  0.16324149  0.83018347  1
  Fe  Fe39  1  0.49694939  0.49491876  0.49854396  1
  Fe  Fe40  1  0.32944647  0.32863009  0.66229855  1
  Cr  Cr41  1  0.49645326  0.49526684  0.82379920  1
  Cr  Cr42  1  0.49721898  0.82878421  0.49487106  1
  Fe  Fe43  1  0.33061243  0.66253308  0.66194821  1
  Cr  Cr44  1  0.49803964  0.83002692  0.83212885  1
  Fe  Fe45  1  0.82698466  0.16458375  0.49754060  1
  Fe  Fe46  1  0.66215259  -0.00329250  0.66272708  1
  Cr  Cr47  1  0.82816401  0.16424382  0.82813877  1
  Cr  Cr48  1  0.82952658  0.49650894  0.49569800  1
  Fe  Fe49  1  0.66295160  0.32809532  0.66097590  1
  Fe  Fe50  1  0.82981072  0.49667896  0.82993364  1
  Cr  Cr51  1  0.82832552  0.83022507  0.49486548  1
  Fe  Fe52  1  0.66308154  0.66393294  0.66293023  1
  Fe  Fe53  1  0.82801625  0.82867648  0.83012701  1
" 