6727,Fe47Cr53_19,-217.239374043081, 173.724504645115,Fe47Cr53,"# generated using pymatgen
 data_Cr25Fe29
_symmetry_space_group_name_H-M   'P 1'
_cell_length_a   7.53355083
_cell_length_b   7.53355083
_cell_length_c   10.65404976
_cell_angle_alpha   90.00000000
_cell_angle_beta   90.00000000
_cell_angle_gamma   90.00000000
_symmetry_Int_Tables_number   1
_chemical_formula_structural   Cr25Fe29
_chemical_formula_sum   'Cr25 Fe29'
_cell_volume   604.66407512
_cell_formula_units_Z   1
loop_
 _symmetry_equiv_pos_site_id
 _symmetry_equiv_pos_as_xyz
  1  'x, y, z'
loop_
 _atom_site_type_symbol
 _atom_site_label
 _atom_site_symmetry_multiplicity
 _atom_site_fract_x
 _atom_site_fract_y
 _atom_site_fract_z
 _atom_site_occupancy
  Fe  Fe0  1  -0.00261638  0.99403008  -0.00366830  1
  Fe  Fe1  1  0.16397374  0.16053921  0.16027996  1
  Cr  Cr2  1  -0.00053871  0.99241378  0.32730414  1
  Fe  Fe3  1  0.99534336  0.32961152  -0.00333858  1
  Cr  Cr4  1  0.16332424  0.49458185  0.16051250  1
  Cr  Cr5  1  0.99373961  0.33025083  0.32711045  1
  Fe  Fe6  1  0.99469191  0.66251155  0.99510097  1
  Fe  Fe7  1  0.16377431  0.82899836  0.16089601  1
  Fe  Fe8  1  -0.00220761  0.66154333  0.32890796  1
  Fe  Fe9  1  0.32737656  0.99449705  0.99506538  1
  Cr  Cr10  1  0.49322326  0.16126201  0.16434674  1
  Fe  Fe11  1  0.32832423  0.99444953  0.32963966  1
  Fe  Fe12  1  0.32913289  0.32774902  -0.00351223  1
  Cr  Cr13  1  0.49423688  0.49852501  0.16370787  1
  Cr  Cr14  1  0.33150211  0.33047671  0.33277860  1
  Fe  Fe15  1  0.32806648  0.66463058  0.99456679  1
  Cr  Cr16  1  0.49535996  0.82736657  0.16246056  1
  Fe  Fe17  1  0.32604699  0.66353596  0.33048379  1
  Cr  Cr18  1  0.66089808  -0.00356519  0.99173730  1
  Cr  Cr19  1  0.83088117  0.16094304  0.16356229  1
  Fe  Fe20  1  0.66062855  -0.00297414  0.32916065  1
  Cr  Cr21  1  0.66406317  0.33181051  -0.00206608  1
  Fe  Fe22  1  0.82845441  0.49767932  0.16253342  1
  Fe  Fe23  1  0.66222794  0.32986494  0.32985399  1
  Fe  Fe24  1  0.66343753  0.66269464  0.99505276  1
  Cr  Cr25  1  0.82735505  0.82748453  0.16429236  1
  Fe  Fe26  1  0.66283981  0.65972521  0.32922743  1
  Cr  Cr27  1  0.16286293  0.16594662  0.49700934  1
  Cr  Cr28  1  -0.00224603  0.99222905  0.66211004  1
  Cr  Cr29  1  0.16306462  0.16530684  0.83224859  1
  Fe  Fe30  1  0.16230982  0.49821827  0.49584274  1
  Fe  Fe31  1  -0.00309657  0.33107429  0.66169942  1
  Cr  Cr32  1  0.16207482  0.49357399  0.82682427  1
  Fe  Fe33  1  0.16175975  0.82704637  0.49405999  1
  Fe  Fe34  1  -0.00441289  0.66074334  0.66228355  1
  Fe  Fe35  1  0.16244038  0.82791804  0.83116155  1
  Fe  Fe36  1  0.49688819  0.16183158  0.49511020  1
  Cr  Cr37  1  0.32982615  0.99436668  0.66381708  1
  Fe  Fe38  1  0.49465892  0.16267179  0.82917731  1
  Fe  Fe39  1  0.49609713  0.49543494  0.49532819  1
  Fe  Fe40  1  0.32955444  0.32891347  0.66090417  1
  Cr  Cr41  1  0.49295859  0.49829985  0.83045495  1
  Cr  Cr42  1  0.49783864  0.82856740  0.49284185  1
  Cr  Cr43  1  0.32714213  0.66281571  0.65961180  1
  Fe  Fe44  1  0.49334060  0.82905552  0.82926286  1
  Cr  Cr45  1  0.82820734  0.15954505  0.49591128  1
  Fe  Fe46  1  0.65910968  0.99466869  0.66309183  1
  Cr  Cr47  1  0.83181057  0.16141140  0.82597684  1
  Cr  Cr48  1  0.83090509  0.49779306  0.49626542  1
  Cr  Cr49  1  0.66051255  0.32925508  0.66199401  1
  Fe  Fe50  1  0.83005395  0.49593893  0.82853282  1
  Cr  Cr51  1  0.82707516  0.82904149  0.49590426  1
  Fe  Fe52  1  0.66131404  0.66262265  0.66275336  1
  Cr  Cr53  1  0.82606509  0.82672871  0.82548054  1
" 