4915,Fe47Cr53_3,-217.359672396866, 171.07928595906,Fe47Cr53,"# generated using pymatgen
 data_Cr25Fe29
_symmetry_space_group_name_H-M   'P 1'
_cell_length_a   7.53110589
_cell_length_b   7.53110589
_cell_length_c   10.65059209
_cell_angle_alpha   90.00000000
_cell_angle_beta   90.00000000
_cell_angle_gamma   90.00000000
_symmetry_Int_Tables_number   1
_chemical_formula_structural   Cr25Fe29
_chemical_formula_sum   'Cr25 Fe29'
_cell_volume   604.07555255
_cell_formula_units_Z   1
loop_
 _symmetry_equiv_pos_site_id
 _symmetry_equiv_pos_as_xyz
  1  'x, y, z'
loop_
 _atom_site_type_symbol
 _atom_site_label
 _atom_site_symmetry_multiplicity
 _atom_site_fract_x
 _atom_site_fract_y
 _atom_site_fract_z
 _atom_site_occupancy
  Cr  Cr0  1  0.99321960  -0.00219699  -0.00380135  1
  Cr  Cr1  1  0.16269932  0.16485708  0.16610446  1
  Cr  Cr2  1  0.99269660  -0.00302275  0.32992923  1
  Cr  Cr3  1  0.99422443  0.32686386  0.99373198  1
  Cr  Cr4  1  0.16066291  0.49581393  0.16474661  1
  Fe  Fe5  1  0.99317416  0.32722165  0.32997887  1
  Cr  Cr6  1  0.99365719  0.66190779  0.99286217  1
  Cr  Cr7  1  0.16272915  0.82739697  0.15859349  1
  Fe  Fe8  1  0.99473369  0.66602995  0.32881100  1
  Cr  Cr9  1  0.33030684  -0.00321727  -0.00316021  1
  Fe  Fe10  1  0.49895298  0.16190036  0.16332004  1
  Cr  Cr11  1  0.32836401  -0.00328141  0.32916208  1
  Cr  Cr12  1  0.32968607  0.32920226  0.99462341  1
  Cr  Cr13  1  0.49666336  0.49340384  0.16396976  1
  Fe  Fe14  1  0.33121318  0.32792818  0.33048755  1
  Fe  Fe15  1  0.32842903  0.66123440  0.99393762  1
  Fe  Fe16  1  0.49847383  0.83066555  0.16244828  1
  Cr  Cr17  1  0.33412248  0.66291992  0.32802655  1
  Fe  Fe18  1  0.66297034  -0.00150713  -0.00325788  1
  Fe  Fe19  1  0.82571724  0.16233419  0.16327613  1
  Fe  Fe20  1  0.66227508  -0.00422454  0.32808109  1
  Fe  Fe21  1  0.66253175  0.32633622  0.99459654  1
  Cr  Cr22  1  0.83013155  0.49384843  0.16344081  1
  Fe  Fe23  1  0.66273467  0.32630933  0.32972163  1
  Cr  Cr24  1  0.66032890  0.66258440  -0.00249855  1
  Fe  Fe25  1  0.82725291  0.82974344  0.16310566  1
  Fe  Fe26  1  0.66563081  0.66516508  0.32932112  1
  Fe  Fe27  1  0.16093168  0.16222973  0.49544264  1
  Fe  Fe28  1  0.99517680  -0.00405939  0.66286355  1
  Fe  Fe29  1  0.16329613  0.15963594  0.82794258  1
  Cr  Cr30  1  0.16074573  0.49549948  0.48983428  1
  Cr  Cr31  1  0.99512377  0.32528925  0.66387983  1
  Fe  Fe32  1  0.16229957  0.49590059  0.82866336  1
  Cr  Cr33  1  0.16151432  0.82931020  0.50160262  1
  Fe  Fe34  1  -0.00324087  0.65949074  0.66379572  1
  Fe  Fe35  1  0.16197629  0.83024620  0.82794223  1
  Cr  Cr36  1  0.49684793  0.16257619  0.49716160  1
  Fe  Fe37  1  0.32807677  -0.00219800  0.66455930  1
  Fe  Fe38  1  0.49778466  0.16410236  0.82776601  1
  Fe  Fe39  1  0.49668720  0.49522772  0.49316567  1
  Cr  Cr40  1  0.32943143  0.32945856  0.66033501  1
  Fe  Fe41  1  0.49831842  0.49459425  0.82963198  1
  Cr  Cr42  1  0.49737917  0.83265611  0.49692003  1
  Cr  Cr43  1  0.33218915  0.66079072  0.66507204  1
  Cr  Cr44  1  0.49486796  0.83296691  0.83011681  1
  Fe  Fe45  1  0.82873121  0.16066356  0.49660571  1
  Fe  Fe46  1  0.66389493  -0.00110041  0.66258144  1
  Fe  Fe47  1  0.82553300  0.16192827  0.82833887  1
  Cr  Cr48  1  0.82928118  0.49500437  0.49421091  1
  Fe  Fe49  1  0.66244644  0.32854470  0.66337498  1
  Fe  Fe50  1  0.82630925  0.49416534  0.82789306  1
  Fe  Fe51  1  0.82950238  0.83097534  0.49684489  1
  Cr  Cr52  1  0.66260242  0.66083916  0.65852667  1
  Cr  Cr53  1  0.82905369  0.82938802  0.82571283  1
" 