65,Fe47Cr53_1,-217.525425646111, 169.689330791828,Fe47Cr53,"# generated using pymatgen
 data_Cr25Fe29
_symmetry_space_group_name_H-M   'P 1'
_cell_length_a   7.52949908
_cell_length_b   7.52949908
_cell_length_c   10.64831972
_cell_angle_alpha   90.00000000
_cell_angle_beta   90.00000000
_cell_angle_gamma   90.00000000
_symmetry_Int_Tables_number   1
_chemical_formula_structural   Cr25Fe29
_chemical_formula_sum   'Cr25 Fe29'
_cell_volume   603.68898544
_cell_formula_units_Z   1
loop_
 _symmetry_equiv_pos_site_id
 _symmetry_equiv_pos_as_xyz
  1  'x, y, z'
loop_
 _atom_site_type_symbol
 _atom_site_label
 _atom_site_symmetry_multiplicity
 _atom_site_fract_x
 _atom_site_fract_y
 _atom_site_fract_z
 _atom_site_occupancy
  Fe  Fe0  1  -0.00323464  0.99496327  -0.00391930  1
  Cr  Cr1  1  0.16437486  0.16194543  0.16315269  1
  Fe  Fe2  1  0.99504996  0.99398236  0.32965209  1
  Cr  Cr3  1  -0.00253410  0.32992351  0.99508815  1
  Fe  Fe4  1  0.16322162  0.49663415  0.16181697  1
  Cr  Cr5  1  -0.00291599  0.33007786  0.32777355  1
  Fe  Fe6  1  0.99489482  0.66322323  -0.00372774  1
  Cr  Cr7  1  0.16083654  0.82709549  0.16171131  1
  Fe  Fe8  1  0.99335655  0.66488062  0.32938146  1
  Fe  Fe9  1  0.32864032  -0.00387893  0.99511344  1
  Fe  Fe10  1  0.49515673  0.16161956  0.16187784  1
  Fe  Fe11  1  0.33019739  -0.00226260  0.33050294  1
  Fe  Fe12  1  0.32926413  0.32913482  0.99573490  1
  Cr  Cr13  1  0.49372966  0.49388542  0.16205885  1
  Fe  Fe14  1  0.33038394  0.32779563  0.33035058  1
  Fe  Fe15  1  0.33010884  0.66213696  -0.00413607  1
  Cr  Cr16  1  0.49700377  0.83020043  0.16043943  1
  Cr  Cr17  1  0.32965982  0.66514563  0.32909455  1
  Fe  Fe18  1  0.66214130  0.99382733  0.99576010  1
  Cr  Cr19  1  0.82568925  0.15900754  0.16126102  1
  Fe  Fe20  1  0.66142130  0.99322450  0.33044760  1
  Cr  Cr21  1  0.66396613  0.33107780  0.99340851  1
  Cr  Cr22  1  0.82857507  0.49813199  0.16311247  1
  Cr  Cr23  1  0.66217298  0.32878973  0.33158801  1
  Fe  Fe24  1  0.66264341  0.66343719  0.99467068  1
  Fe  Fe25  1  0.82865415  0.82882338  0.16213046  1
  Fe  Fe26  1  0.66369379  0.66439681  0.33061284  1
  Fe  Fe27  1  0.16243953  0.16171229  0.49393481  1
  Fe  Fe28  1  0.99521500  0.99522535  0.66221265  1
  Fe  Fe29  1  0.16328129  0.16085132  0.83075934  1
  Cr  Cr30  1  0.16390644  0.49772139  0.49412565  1
  Cr  Cr31  1  -0.00338830  0.32959433  0.66463413  1
  Cr  Cr32  1  0.16575654  0.49883440  0.83024929  1
  Cr  Cr33  1  0.16110720  0.82881535  0.49852050  1
  Fe  Fe34  1  0.99404838  0.66227390  0.66229236  1
  Cr  Cr35  1  0.16360223  0.82789407  0.82742993  1
  Fe  Fe36  1  0.49323912  0.16149943  0.49477747  1
  Cr  Cr37  1  0.32848049  0.99331216  0.66227490  1
  Cr  Cr38  1  0.49684905  0.16329876  0.83201007  1
  Fe  Fe39  1  0.49649211  0.49688282  0.49492401  1
  Cr  Cr40  1  0.32860054  0.32733342  0.66141500  1
  Fe  Fe41  1  0.49577517  0.49944930  0.83041795  1
  Fe  Fe42  1  0.49667166  0.82915704  0.49366945  1
  Fe  Fe43  1  0.33180346  0.66111398  0.66171838  1
  Fe  Fe44  1  0.49537154  0.82722602  0.83201583  1
  Cr  Cr45  1  0.82791075  0.16067476  0.49809274  1
  Cr  Cr46  1  0.65898821  0.99269769  0.66189730  1
  Cr  Cr47  1  0.82938328  0.16118670  0.82842991  1
  Fe  Fe48  1  0.83045121  0.49891529  0.49494068  1
  Cr  Cr49  1  0.66334071  0.33284480  0.66319392  1
  Fe  Fe50  1  0.83000002  0.49946118  0.83005451  1
  Fe  Fe51  1  0.82909881  0.82714637  0.49463399  1
  Cr  Cr52  1  0.66105998  0.66314589  0.66191556  1
  Cr  Cr53  1  0.83041951  0.83056842  0.83055787  1
" 