1713,Fe47Cr53_6,-217.846863931175, 167.836930092275,Fe47Cr53,"# generated using pymatgen
 data_Cr25Fe29
_symmetry_space_group_name_H-M   'P 1'
_cell_length_a   7.54005000
_cell_length_b   7.54005000
_cell_length_c   10.66324098
_cell_angle_alpha   90.00000000
_cell_angle_beta   90.00000000
_cell_angle_gamma   90.00000000
_symmetry_Int_Tables_number   1
_chemical_formula_structural   Cr25Fe29
_chemical_formula_sum   'Cr25 Fe29'
_cell_volume   606.23035160
_cell_formula_units_Z   1
loop_
 _symmetry_equiv_pos_site_id
 _symmetry_equiv_pos_as_xyz
  1  'x, y, z'
loop_
 _atom_site_type_symbol
 _atom_site_label
 _atom_site_symmetry_multiplicity
 _atom_site_fract_x
 _atom_site_fract_y
 _atom_site_fract_z
 _atom_site_occupancy
  Cr  Cr0  1  -0.00393878  0.99231393  -0.00027350  1
  Cr  Cr1  1  0.16249772  0.16455261  0.16399790  1
  Fe  Fe2  1  0.99465801  0.99499096  0.32709593  1
  Fe  Fe3  1  0.99509060  0.32924698  0.99414317  1
  Fe  Fe4  1  0.16343355  0.49895563  0.16236547  1
  Cr  Cr5  1  -0.00391458  0.33080104  0.32947817  1
  Fe  Fe6  1  -0.00045878  0.65988248  0.99492102  1
  Fe  Fe7  1  0.16256105  0.82678738  0.16185344  1
  Cr  Cr8  1  0.99431560  0.66484700  0.32841952  1
  Cr  Cr9  1  0.32884748  -0.00382992  0.99177223  1
  Fe  Fe10  1  0.49649289  0.16230099  0.16371298  1
  Cr  Cr11  1  0.32668560  0.99497779  0.32887530  1
  Cr  Cr12  1  0.32819000  0.32915713  -0.00071051  1
  Fe  Fe13  1  0.49488750  0.49377357  0.16308829  1
  Fe  Fe14  1  0.33089487  0.33160984  0.32811799  1
  Fe  Fe15  1  0.32672018  0.66238830  0.99466673  1
  Cr  Cr16  1  0.49569624  0.82609097  0.15929624  1
  Fe  Fe17  1  0.32881717  0.66087247  0.32824063  1
  Cr  Cr18  1  0.66035520  -0.00344809  0.99343728  1
  Cr  Cr19  1  0.82861220  0.16157374  0.16277524  1
  Fe  Fe20  1  0.66106816  0.99417752  0.32694748  1
  Cr  Cr21  1  0.66092936  0.32758709  0.99138507  1
  Cr  Cr22  1  0.82911404  0.49612084  0.15869128  1
  Fe  Fe23  1  0.66102546  0.32972567  0.32813902  1
  Cr  Cr24  1  0.66421440  0.66162586  -0.00461399  1
  Fe  Fe25  1  0.82850714  0.82856814  0.16331888  1
  Fe  Fe26  1  0.65930582  0.65968736  0.32755934  1
  Cr  Cr27  1  0.16001176  0.16049381  0.49489587  1
  Fe  Fe28  1  0.99468125  0.99265179  0.66266463  1
  Cr  Cr29  1  0.15987679  0.16361229  0.82771062  1
  Cr  Cr30  1  0.16400822  0.49639022  0.49652102  1
  Fe  Fe31  1  0.99414823  0.32964828  0.66339074  1
  Fe  Fe32  1  0.16051438  0.49674433  0.82807052  1
  Fe  Fe33  1  0.16077787  0.82874704  0.49683196  1
  Fe  Fe34  1  -0.00295084  0.66333343  0.66250732  1
  Fe  Fe35  1  0.16191465  0.82656450  0.82769976  1
  Cr  Cr36  1  0.49615656  0.16076946  0.49417847  1
  Fe  Fe37  1  0.32755171  0.99319806  0.66322958  1
  Fe  Fe38  1  0.49492404  0.16204358  0.82552651  1
  Fe  Fe39  1  0.49615784  0.49415504  0.49398405  1
  Cr  Cr40  1  0.32980756  0.32750457  0.65901512  1
  Cr  Cr41  1  0.49333688  0.49870477  0.82810033  1
  Cr  Cr42  1  0.49357756  0.82510123  0.49824077  1
  Fe  Fe43  1  0.32659596  0.66281054  0.66311298  1
  Fe  Fe44  1  0.49329099  0.82946544  0.82624998  1
  Cr  Cr45  1  0.82939252  0.16103286  0.49669802  1
  Fe  Fe46  1  0.66142581  -0.00426286  0.66368445  1
  Fe  Fe47  1  0.82907448  0.16163046  0.82671321  1
  Cr  Cr48  1  0.82740201  0.49467670  0.49831408  1
  Fe  Fe49  1  0.66242775  0.32671228  0.66436064  1
  Fe  Fe50  1  0.83190118  0.49355142  0.82753342  1
  Cr  Cr51  1  0.82670447  0.83012794  0.49090677  1
  Cr  Cr52  1  0.66359503  0.66056447  0.66126081  1
  Cr  Cr53  1  0.82767457  0.82727835  0.83048514  1
" 