4997,Fe47Cr53_0,-217.037882378282, 175.433634837776,Fe47Cr53,"# generated using pymatgen
 data_Cr25Fe29
_symmetry_space_group_name_H-M   'P 1'
_cell_length_a   7.53909637
_cell_length_b   7.53909637
_cell_length_c   10.66189234
_cell_angle_alpha   90.00000000
_cell_angle_beta   90.00000000
_cell_angle_gamma   90.00000000
_symmetry_Int_Tables_number   1
_chemical_formula_structural   Cr25Fe29
_chemical_formula_sum   'Cr25 Fe29'
_cell_volume   606.00036049
_cell_formula_units_Z   1
loop_
 _symmetry_equiv_pos_site_id
 _symmetry_equiv_pos_as_xyz
  1  'x, y, z'
loop_
 _atom_site_type_symbol
 _atom_site_label
 _atom_site_symmetry_multiplicity
 _atom_site_fract_x
 _atom_site_fract_y
 _atom_site_fract_z
 _atom_site_occupancy
  Cr  Cr0  1  0.99498432  0.99388212  -0.00476976  1
  Fe  Fe1  1  0.16270850  0.16196185  0.16188217  1
  Cr  Cr2  1  0.99343630  0.99400513  0.32960558  1
  Fe  Fe3  1  0.99451757  0.32925756  -0.00467978  1
  Cr  Cr4  1  0.15961867  0.49598599  0.16295086  1
  Cr  Cr5  1  -0.00334991  0.32750340  0.32787304  1
  Fe  Fe6  1  0.99461344  0.66179784  0.99441196  1
  Cr  Cr7  1  0.16326474  0.82737046  0.16165186  1
  Fe  Fe8  1  0.99449201  0.66261223  0.32864870  1
  Fe  Fe9  1  0.32855368  0.99449659  -0.00477286  1
  Cr  Cr10  1  0.49571506  0.15934337  0.16185331  1
  Fe  Fe11  1  0.32882235  -0.00431955  0.32818623  1
  Cr  Cr12  1  0.32938052  0.32901231  -0.00303167  1
  Cr  Cr13  1  0.49599793  0.49600000  0.16321817  1
  Fe  Fe14  1  0.32920237  0.32845079  0.32844968  1
  Fe  Fe15  1  0.32845927  0.66270964  0.99450548  1
  Cr  Cr16  1  0.49531774  0.83032261  0.16189037  1
  Fe  Fe17  1  0.32873064  0.66153325  0.32890584  1
  Fe  Fe18  1  0.66178983  0.99459520  0.99512841  1
  Cr  Cr19  1  0.82709874  0.16299128  0.16126182  1
  Fe  Fe20  1  0.66232993  0.99495399  0.32901351  1
  Fe  Fe21  1  0.66269639  0.32916949  0.99451627  1
  Cr  Cr22  1  0.83005327  0.49558707  0.16003230  1
  Fe  Fe23  1  0.66125507  0.32845929  0.32927235  1
  Fe  Fe24  1  0.66258792  0.66190486  0.99451067  1
  Fe  Fe25  1  0.82773802  0.82774055  0.16189567  1
  Fe  Fe26  1  0.66244568  0.66225368  0.32891437  1
  Cr  Cr27  1  0.16209416  0.16244908  0.49652231  1
  Cr  Cr28  1  0.99470724  0.99471302  0.66083016  1
  Cr  Cr29  1  0.16191158  0.16150220  0.82756366  1
  Cr  Cr30  1  0.16166285  0.49582570  0.49446309  1
  Fe  Fe31  1  0.99441361  0.32847666  0.66178719  1
  Cr  Cr32  1  0.15960826  0.49665463  0.82825500  1
  Cr  Cr33  1  0.16344448  0.82739205  0.49587589  1
  Cr  Cr34  1  0.99443537  0.66366613  0.66269587  1
  Fe  Fe35  1  0.16228009  0.82837875  0.82891452  1
  Cr  Cr36  1  0.49639742  0.16134005  0.49487694  1
  Fe  Fe37  1  0.32813212  0.99475927  0.66225415  1
  Cr  Cr38  1  0.49605734  0.16039291  0.82893733  1
  Fe  Fe39  1  0.49503277  0.49522006  0.49511840  1
  Fe  Fe40  1  0.32917739  0.32917986  0.66198035  1
  Fe  Fe41  1  0.49627394  0.49539811  0.82828723  1
  Cr  Cr42  1  0.49503929  0.82850690  0.49428023  1
  Fe  Fe43  1  0.32963436  0.66172355  0.66225864  1
  Cr  Cr44  1  0.49375115  0.82862217  0.82949006  1
  Fe  Fe45  1  0.82791109  0.16181493  0.49522320  1
  Cr  Cr46  1  0.66391228  0.99467771  0.66056742  1
  Cr  Cr47  1  0.82770205  0.16499328  0.82820101  1
  Cr  Cr48  1  0.82830019  0.49446121  0.49546133  1
  Fe  Fe49  1  0.66207108  0.32998013  0.66187302  1
  Fe  Fe50  1  0.82740365  0.49547831  0.82892146  1
  Fe  Fe51  1  0.82791585  0.82862508  0.49448598  1
  Fe  Fe52  1  0.66161016  0.66092419  0.66223881  1
  Fe  Fe53  1  0.82862970  0.82723258  0.82928171  1
" 