225,Fe47Cr53_4,-217.112784188412, 172.300093170669,Fe47Cr53,"# generated using pymatgen
 data_Cr25Fe29
_symmetry_space_group_name_H-M   'P 1'
_cell_length_a   7.52371711
_cell_length_b   7.52371711
_cell_length_c   10.64014278
_cell_angle_alpha   90.00000000
_cell_angle_beta   90.00000000
_cell_angle_gamma   90.00000000
_symmetry_Int_Tables_number   1
_chemical_formula_structural   Cr25Fe29
_chemical_formula_sum   'Cr25 Fe29'
_cell_volume   602.29931830
_cell_formula_units_Z   1
loop_
 _symmetry_equiv_pos_site_id
 _symmetry_equiv_pos_as_xyz
  1  'x, y, z'
loop_
 _atom_site_type_symbol
 _atom_site_label
 _atom_site_symmetry_multiplicity
 _atom_site_fract_x
 _atom_site_fract_y
 _atom_site_fract_z
 _atom_site_occupancy
  Cr  Cr0  1  -0.00226565  -0.00337249  -0.00373883  1
  Fe  Fe1  1  0.16486073  0.16397441  0.16293285  1
  Cr  Cr2  1  -0.00286680  -0.00376287  0.32886974  1
  Fe  Fe3  1  -0.00300511  0.33054302  -0.00365540  1
  Cr  Cr4  1  0.16100246  0.49640631  0.16334883  1
  Fe  Fe5  1  -0.00362951  0.33086399  0.32908223  1
  Fe  Fe6  1  -0.00316475  0.66214195  -0.00369069  1
  Cr  Cr7  1  0.16502594  0.82892242  0.16125038  1
  Fe  Fe8  1  -0.00365961  0.66271253  0.32933928  1
  Fe  Fe9  1  0.33043721  -0.00369755  -0.00264904  1
  Fe  Fe10  1  0.49341724  0.16335986  0.16341555  1
  Fe  Fe11  1  0.33087525  0.99553791  0.32831407  1
  Fe  Fe12  1  0.32917033  0.33015077  -0.00323258  1
  Fe  Fe13  1  0.49491786  0.49538560  0.16362410  1
  Fe  Fe14  1  0.33054797  0.33029844  0.32891612  1
  Fe  Fe15  1  0.32914660  0.66227976  0.99572404  1
  Fe  Fe16  1  0.49487040  0.82973101  0.16283149  1
  Fe  Fe17  1  0.32993322  0.66272904  0.32989546  1
  Cr  Cr18  1  0.66390602  0.99491349  -0.00282353  1
  Cr  Cr19  1  0.82858710  0.16643102  0.16268710  1
  Cr  Cr20  1  0.66340531  0.99352169  0.32923705  1
  Cr  Cr21  1  0.66072732  0.33157385  0.99579291  1
  Fe  Fe22  1  0.83029511  0.49694669  0.16350348  1
  Fe  Fe23  1  0.66171919  0.33008496  0.32855709  1
  Cr  Cr24  1  0.66087632  0.66223510  -0.00009368  1
  Fe  Fe25  1  0.83054616  0.82773578  0.16279530  1
  Cr  Cr26  1  0.66136463  0.66257273  0.32746887  1
  Cr  Cr27  1  0.16487474  0.16328686  0.49240843  1
  Cr  Cr28  1  0.99591706  0.99565950  0.66352915  1
  Cr  Cr29  1  0.16447547  0.16274608  0.83218721  1
  Fe  Fe30  1  0.16398427  0.49668100  0.49483711  1
  Cr  Cr31  1  -0.00129832  0.32865836  0.66406505  1
  Fe  Fe32  1  0.16433088  0.49866243  0.83098866  1
  Cr  Cr33  1  0.16492570  0.82663012  0.49748047  1
  Fe  Fe34  1  -0.00204550  0.66184516  0.66290011  1
  Fe  Fe35  1  0.16369211  0.82744363  0.82963683  1
  Cr  Cr36  1  0.49637029  0.16130895  0.49616820  1
  Fe  Fe37  1  0.33005209  0.99514695  0.66262901  1
  Cr  Cr38  1  0.49696870  0.16163472  0.82902746  1
  Fe  Fe39  1  0.49418763  0.49697127  0.49490288  1
  Cr  Cr40  1  0.32899013  0.33338525  0.66282831  1
  Fe  Fe41  1  0.49389272  0.49730011  0.83029391  1
  Fe  Fe42  1  0.49584415  0.82913452  0.49665490  1
  Fe  Fe43  1  0.32813174  0.66270177  0.66299621  1
  Cr  Cr44  1  0.49305095  0.83035141  0.82861915  1
  Cr  Cr45  1  0.82743544  0.16437298  0.49858940  1
  Fe  Fe46  1  0.66225595  0.99574821  0.66248170  1
  Fe  Fe47  1  0.82942559  0.16259467  0.82981334  1
  Cr  Cr48  1  0.83142671  0.49674944  0.49341831  1
  Cr  Cr49  1  0.66127439  0.33078409  0.66441243  1
  Cr  Cr50  1  0.83181076  0.49561247  0.83177865  1
  Fe  Fe51  1  0.82930868  0.82939509  0.49671961  1
  Cr  Cr52  1  0.66008606  0.66338743  0.66106529  1
  Cr  Cr53  1  0.83022360  0.82822099  0.82849896  1
" 