702,Fe47Cr53_18,-217.027712414254, 171.964769428218,Fe47Cr53,"# generated using pymatgen
 data_Cr25Fe29
_symmetry_space_group_name_H-M   'P 1'
_cell_length_a   7.52278817
_cell_length_b   7.52278817
_cell_length_c   10.63882905
_cell_angle_alpha   90.00000000
_cell_angle_beta   90.00000000
_cell_angle_gamma   90.00000000
_symmetry_Int_Tables_number   1
_chemical_formula_structural   Cr25Fe29
_chemical_formula_sum   'Cr25 Fe29'
_cell_volume   602.07625002
_cell_formula_units_Z   1
loop_
 _symmetry_equiv_pos_site_id
 _symmetry_equiv_pos_as_xyz
  1  'x, y, z'
loop_
 _atom_site_type_symbol
 _atom_site_label
 _atom_site_symmetry_multiplicity
 _atom_site_fract_x
 _atom_site_fract_y
 _atom_site_fract_z
 _atom_site_occupancy
  Fe  Fe0  1  0.99558698  0.99407925  -0.00219393  1
  Fe  Fe1  1  0.16325485  0.16139508  0.16103879  1
  Fe  Fe2  1  0.99544069  -0.00151688  0.32897949  1
  Fe  Fe3  1  -0.00346708  0.33006631  -0.00309720  1
  Cr  Cr4  1  0.16317791  0.49444773  0.16399362  1
  Fe  Fe5  1  -0.00250525  0.32759490  0.33039758  1
  Fe  Fe6  1  0.99538643  0.66448967  -0.00351842  1
  Fe  Fe7  1  0.16040903  0.83209132  0.16172745  1
  Cr  Cr8  1  -0.00205393  0.66727343  0.32834977  1
  Fe  Fe9  1  0.33023823  -0.00309861  -0.00100388  1
  Fe  Fe10  1  0.49508018  0.16308483  0.16102552  1
  Cr  Cr11  1  0.32719778  -0.00303233  0.32952627  1
  Fe  Fe12  1  0.32950599  0.32889959  -0.00200692  1
  Fe  Fe13  1  0.49666945  0.49610681  0.16348733  1
  Cr  Cr14  1  0.33101100  0.32900030  0.32922538  1
  Cr  Cr15  1  0.32881824  0.66333551  -0.00234666  1
  Cr  Cr16  1  0.49780528  0.82947026  0.16562636  1
  Fe  Fe17  1  0.33007532  0.66284937  0.32849856  1
  Fe  Fe18  1  0.66331209  0.99443160  -0.00329174  1
  Cr  Cr19  1  0.83115908  0.16145284  0.16434869  1
  Fe  Fe20  1  0.66396665  -0.00358771  0.32957901  1
  Cr  Cr21  1  0.66062322  0.32971196  0.99562964  1
  Cr  Cr22  1  0.82973569  0.49625885  0.16272220  1
  Cr  Cr23  1  0.66243340  0.32672600  0.33025885  1
  Cr  Cr24  1  0.66560649  0.66283913  0.99273959  1
  Fe  Fe25  1  0.83084226  0.83052308  0.16276299  1
  Fe  Fe26  1  0.66248850  0.66381897  0.32801261  1
  Cr  Cr27  1  0.15946134  0.16459329  0.49915491  1
  Fe  Fe28  1  0.99499800  0.99609950  0.66312146  1
  Cr  Cr29  1  0.16280056  0.16313665  0.83295230  1
  Fe  Fe30  1  0.16164095  0.49687421  0.49581982  1
  Fe  Fe31  1  0.99602050  0.33036496  0.66281967  1
  Cr  Cr32  1  0.15975975  0.49477328  0.82866822  1
  Cr  Cr33  1  0.16429170  0.82951964  0.49662416  1
  Fe  Fe34  1  0.99351204  0.66257017  0.66328928  1
  Cr  Cr35  1  0.16384525  0.83126095  0.82940084  1
  Fe  Fe36  1  0.49825258  0.16052554  0.49707822  1
  Fe  Fe37  1  0.33108721  -0.00293472  0.66307550  1
  Cr  Cr38  1  0.49503979  0.15854612  0.83120060  1
  Cr  Cr39  1  0.49639551  0.50033794  0.49230894  1
  Cr  Cr40  1  0.33139582  0.32904307  0.66181456  1
  Fe  Fe41  1  0.49611481  0.49710771  0.82878348  1
  Cr  Cr42  1  0.49765730  0.83082107  0.49711034  1
  Cr  Cr43  1  0.32836039  0.66373345  0.66172870  1
  Fe  Fe44  1  0.49793728  0.83003244  0.82873257  1
  Fe  Fe45  1  0.82894699  0.16090313  0.49633896  1
  Fe  Fe46  1  0.66260041  0.99497871  0.66353068  1
  Cr  Cr47  1  0.83116746  0.16312870  0.82867013  1
  Cr  Cr48  1  0.83203469  0.49465386  0.49655785  1
  Cr  Cr49  1  0.66347186  0.32875694  0.66273248  1
  Fe  Fe50  1  0.83068354  0.49766698  0.82850009  1
  Cr  Cr51  1  0.82674816  0.83122167  0.49522510  1
  Fe  Fe52  1  0.66406882  0.66362449  0.66604947  1
  Fe  Fe53  1  0.82985068  0.82989083  0.82818258  1
" 