6327,Fe4Cr96_11,-222.207798919846, 118.120809778686,Fe4Cr96,"# generated using pymatgen
 data_CrFe26
_symmetry_space_group_name_H-M   'P 1'
_cell_length_a   7.43596978
_cell_length_b   7.43596978
_cell_length_c   10.51604931
_cell_angle_alpha   90.00000000
_cell_angle_beta   90.00000000
_cell_angle_gamma   90.00000000
_symmetry_Int_Tables_number   1
_chemical_formula_structural   CrFe26
_chemical_formula_sum   'Cr2 Fe52'
_cell_volume   581.47071419
_cell_formula_units_Z   2
loop_
 _symmetry_equiv_pos_site_id
 _symmetry_equiv_pos_as_xyz
  1  'x, y, z'
loop_
 _atom_site_type_symbol
 _atom_site_label
 _atom_site_symmetry_multiplicity
 _atom_site_fract_x
 _atom_site_fract_y
 _atom_site_fract_z
 _atom_site_occupancy
  Fe  Fe0  1  0.00208970  1.00207229  1.00207132  1
  Fe  Fe1  1  0.16875783  0.16877086  0.16878934  1
  Fe  Fe2  1  0.00208970  0.00210710  0.33544140  1
  Fe  Fe3  1  0.00208970  0.33542058  1.00208129  1
  Fe  Fe4  1  0.16872732  0.50208970  0.16875636  1
  Fe  Fe5  1  1.00208970  0.33540331  0.33544126  1
  Fe  Fe6  1  1.00208970  0.66877608  1.00207147  1
  Fe  Fe7  1  0.16875783  0.83540854  0.16872338  1
  Fe  Fe8  1  0.00208970  0.66875881  0.33543143  1
  Fe  Fe9  1  0.33453866  0.00298182  0.00297864  1
  Fe  Fe10  1  0.50208970  0.16873989  0.16900267  1
  Fe  Fe11  1  0.33453866  1.00119757  0.33453408  1
  Fe  Fe12  1  0.33544706  0.33541804  1.00207130  1
  Fe  Fe13  1  0.50208970  0.50208970  0.16875636  1
  Fe  Fe14  1  0.33454605  0.33630265  0.33454485  1
  Fe  Fe15  1  0.33454605  0.66787674  0.00296787  1
  Fe  Fe16  1  0.50208970  0.83543951  0.16851005  1
  Fe  Fe17  1  0.33544706  0.66876136  0.33544143  1
  Fe  Fe18  1  0.66964073  0.00298182  0.00297864  1
  Fe  Fe19  1  0.83542156  0.16877086  0.16878934  1
  Fe  Fe20  1  0.66964073  1.00119757  0.33453408  1
  Fe  Fe21  1  0.66873233  0.33541804  1.00207130  1
  Fe  Fe22  1  0.83545207  0.50208970  0.16875636  1
  Fe  Fe23  1  0.66963335  0.33630265  0.33454485  1
  Fe  Fe24  1  0.66963335  0.66787674  0.00296787  1
  Fe  Fe25  1  0.83542156  0.83540854  0.16872338  1
  Fe  Fe26  1  0.66873233  0.66876136  0.33544143  1
  Fe  Fe27  1  0.16699089  0.16877020  0.50207720  1
  Fe  Fe28  1  0.00208970  0.00208970  0.66875636  1
  Fe  Fe29  1  0.16903782  0.16849174  0.83540275  1
  Fe  Fe30  1  0.16900468  0.50181165  0.50207682  1
  Fe  Fe31  1  0.00208970  0.33540309  0.66874626  1
  Fe  Fe32  1  0.16900468  0.50236774  0.83543591  1
  Fe  Fe33  1  0.16903782  0.83568765  0.50210998  1
  Fe  Fe34  1  0.00208970  0.66877630  0.66876647  1
  Fe  Fe35  1  0.16699089  0.83540919  0.83543552  1
  Cr  Cr36  1  0.50208970  0.16819918  0.50265524  1
  Fe  Fe37  1  0.33358973  0.00208970  0.66875636  1
  Fe  Fe38  1  0.50208970  0.17052616  0.83515377  1
  Fe  Fe39  1  0.50208970  0.50383943  0.50210923  1
  Fe  Fe40  1  0.33454458  0.33631981  0.66967025  1
  Fe  Fe41  1  0.50208970  0.50033996  0.83540350  1
  Fe  Fe42  1  0.50208970  0.83365324  0.50235896  1
  Fe  Fe43  1  0.33454458  0.66785958  0.66784248  1
  Cr  Cr44  1  0.50208970  0.83598021  0.83485749  1
  Fe  Fe45  1  0.83718850  0.16877020  0.50207720  1
  Fe  Fe46  1  0.67058966  0.00208970  0.66875636  1
  Fe  Fe47  1  0.83514157  0.16849174  0.83540275  1
  Fe  Fe48  1  0.83517471  0.50181165  0.50207682  1
  Fe  Fe49  1  0.66963481  0.33631981  0.66967025  1
  Fe  Fe50  1  0.83517471  0.50236774  0.83543591  1
  Fe  Fe51  1  0.83514157  0.83568765  0.50210998  1
  Fe  Fe52  1  0.66963481  0.66785958  0.66784248  1
  Fe  Fe53  1  0.83718850  0.83540919  0.83543552  1
" 