2517,Fe4Cr96_13,-222.207798919847, 118.120809759276,Fe4Cr96,"# generated using pymatgen
 data_CrFe26
_symmetry_space_group_name_H-M   'P 1'
_cell_length_a   7.43596978
_cell_length_b   7.43596978
_cell_length_c   10.51604931
_cell_angle_alpha   90.00000000
_cell_angle_beta   90.00000000
_cell_angle_gamma   90.00000000
_symmetry_Int_Tables_number   1
_chemical_formula_structural   CrFe26
_chemical_formula_sum   'Cr2 Fe52'
_cell_volume   581.47071419
_cell_formula_units_Z   2
loop_
 _symmetry_equiv_pos_site_id
 _symmetry_equiv_pos_as_xyz
  1  'x, y, z'
loop_
 _atom_site_type_symbol
 _atom_site_label
 _atom_site_symmetry_multiplicity
 _atom_site_fract_x
 _atom_site_fract_y
 _atom_site_fract_z
 _atom_site_occupancy
  Fe  Fe0  1  1.00180824  1.00182507  1.00206941  1
  Fe  Fe1  1  0.16875636  0.16875391  0.16874796  1
  Fe  Fe2  1  1.00208823  0.00210419  0.33545601  1
  Fe  Fe3  1  1.00184137  0.33570107  0.00210258  1
  Fe  Fe4  1  0.16875636  0.50210942  0.16873814  1
  Fe  Fe5  1  0.00211874  0.33542303  0.33542303  1
  Fe  Fe6  1  0.00385517  0.66874253  0.00210219  1
  Fe  Fe7  1  0.16875636  0.83540563  0.16873799  1
  Fe  Fe8  1  1.00208823  0.66874187  0.33539005  1
  Fe  Fe9  1  0.33570449  1.00182507  1.00206941  1
  Fe  Fe10  1  0.50211373  0.16875137  0.16873796  1
  Fe  Fe11  1  0.33542450  0.00210419  0.33545601  1
  Fe  Fe12  1  0.33567135  0.33570107  0.00210258  1
  Fe  Fe13  1  0.50121271  0.50121007  0.16963454  1
  Fe  Fe14  1  0.33539399  0.33542303  0.33542303  1
  Fe  Fe15  1  0.33365755  0.66874253  0.00210219  1
  Fe  Fe16  1  0.50120533  0.83631515  0.16964531  1
  Fe  Fe17  1  0.33542450  0.66874187  0.33539005  1
  Fe  Fe18  1  0.66875636  0.00385949  1.00182043  1
  Fe  Fe19  1  0.83539900  0.16875137  0.16873796  1
  Fe  Fe20  1  0.66875636  1.00207322  0.33566934  1
  Fe  Fe21  1  0.66875636  0.33367329  1.00207016  1
  Fe  Fe22  1  0.83630001  0.50121007  0.16963454  1
  Fe  Fe23  1  0.66875636  0.33542303  0.33542303  1
  Cr  Cr24  1  0.66875636  0.66931355  1.00152416  1
  Fe  Fe25  1  0.83630739  0.83631515  0.16964531  1
  Fe  Fe26  1  0.66875636  0.66877284  0.33517672  1
  Fe  Fe27  1  0.16875636  0.16873664  0.50210792  1
  Fe  Fe28  1  0.00385517  0.00210353  0.66874387  1
  Fe  Fe29  1  0.16875636  0.16873642  0.83541292  1
  Fe  Fe30  1  0.16875636  0.50209215  0.50209810  1
  Fe  Fe31  1  1.00184137  0.33514499  0.66874348  1
  Fe  Fe32  1  0.16875636  0.50210964  0.83543314  1
  Fe  Fe33  1  0.16875636  0.83544043  0.50210807  1
  Fe  Fe34  1  1.00180824  0.66902098  0.66877665  1
  Fe  Fe35  1  0.16875636  0.83542303  0.83542303  1
  Fe  Fe36  1  0.50121271  0.16963599  0.50121152  1
  Fe  Fe37  1  0.33365755  0.00210353  0.66874387  1
  Fe  Fe38  1  0.50121124  0.16965314  0.83633692  1
  Fe  Fe39  1  0.50211373  0.50209469  0.50210810  1
  Fe  Fe40  1  0.33567135  0.33514499  0.66874348  1
  Fe  Fe41  1  0.50121124  0.50119291  0.83450914  1
  Fe  Fe42  1  0.50120533  0.83453091  0.50120075  1
  Fe  Fe43  1  0.33570449  0.66902098  0.66877665  1
  Fe  Fe44  1  0.50025640  0.83542303  0.83542303  1
  Fe  Fe45  1  0.83630001  0.16963599  0.50121152  1
  Cr  Cr46  1  0.66875636  1.00153251  0.66932190  1
  Fe  Fe47  1  0.83630148  0.16965314  0.83633692  1
  Fe  Fe48  1  0.83539900  0.50209469  0.50210810  1
  Fe  Fe49  1  0.66875636  0.33717276  0.66877589  1
  Fe  Fe50  1  0.83630148  0.50119291  0.83450914  1
  Fe  Fe51  1  0.83630739  0.83453091  0.50120075  1
  Fe  Fe52  1  0.66875636  0.66698657  0.66902562  1
  Fe  Fe53  1  0.83725633  0.83542303  0.83542303  1
" 