4891,Fe4Cr96_8,-222.229426382967, 117.738140855043,Fe4Cr96,"# generated using pymatgen
 data_CrFe26
_symmetry_space_group_name_H-M   'P 1'
_cell_length_a   7.43529727
_cell_length_b   7.43529727
_cell_length_c   10.51509824
_cell_angle_alpha   90.00000000
_cell_angle_beta   90.00000000
_cell_angle_gamma   90.00000000
_symmetry_Int_Tables_number   1
_chemical_formula_structural   CrFe26
_chemical_formula_sum   'Cr2 Fe52'
_cell_volume   581.31296364
_cell_formula_units_Z   2
loop_
 _symmetry_equiv_pos_site_id
 _symmetry_equiv_pos_as_xyz
  1  'x, y, z'
loop_
 _atom_site_type_symbol
 _atom_site_label
 _atom_site_symmetry_multiplicity
 _atom_site_fract_x
 _atom_site_fract_y
 _atom_site_fract_z
 _atom_site_occupancy
  Fe  Fe0  1  0.00416091  0.00239202  0.00213511  1
  Fe  Fe1  1  0.16791627  0.16788508  0.16965475  1
  Fe  Fe2  1  1.00210485  1.00213499  0.33543529  1
  Fe  Fe3  1  1.00010931  0.33521153  0.00213511  1
  Fe  Fe4  1  0.16791611  0.50302077  0.16968497  1
  Fe  Fe5  1  0.00216536  0.33546856  0.33543529  1
  Fe  Fe6  1  0.00213511  0.66880178  0.00213511  1
  Fe  Fe7  1  0.16883360  0.83550027  0.16873957  1
  Fe  Fe8  1  0.00213511  0.66880178  0.33546688  1
  Fe  Fe9  1  0.33370142  1.00036809  0.00213511  1
  Fe  Fe10  1  0.50213511  0.16880178  0.17056859  1
  Fe  Fe11  1  0.33549830  0.00216497  0.33540402  1
  Cr  Cr12  1  0.33518314  0.33575375  0.00213511  1
  Fe  Fe13  1  0.50305180  0.50302062  0.16965475  1
  Fe  Fe14  1  0.33546804  0.33546884  0.33521009  1
  Fe  Fe15  1  0.33572535  0.67082757  0.00213511  1
  Fe  Fe16  1  0.50121841  0.83458294  0.16965475  1
  Fe  Fe17  1  0.33546833  0.66877152  0.33543529  1
  Cr  Cr18  1  0.66908708  1.00184980  0.00213511  1
  Fe  Fe19  1  0.83635395  0.16971847  0.16965475  1
  Fe  Fe20  1  0.66880218  1.00213471  0.33521009  1
  Fe  Fe21  1  0.67056880  0.33723547  0.00213511  1
  Fe  Fe22  1  0.83543662  0.50210328  0.16873957  1
  Fe  Fe23  1  0.66877192  0.33543859  0.33540402  1
  Fe  Fe24  1  0.66854487  0.66677598  0.00213511  1
  Fe  Fe25  1  0.83635410  0.83458278  0.16968497  1
  Fe  Fe26  1  0.66880189  0.66883203  0.33543529  1
  Fe  Fe27  1  0.16880258  0.16880166  0.50213511  1
  Fe  Fe28  1  1.00210485  1.00213499  0.66883493  1
  Fe  Fe29  1  0.16791627  0.16788508  0.83461547  1
  Fe  Fe30  1  0.16880259  0.50213429  0.50213511  1
  Fe  Fe31  1  0.00216536  0.33546856  0.66883493  1
  Fe  Fe32  1  0.16791611  0.50302077  0.83458525  1
  Fe  Fe33  1  0.16880271  0.83546938  0.50213511  1
  Fe  Fe34  1  0.00213511  0.66880178  0.66880334  1
  Fe  Fe35  1  0.16883360  0.83550027  0.83553065  1
  Fe  Fe36  1  0.50213511  0.16880178  0.50213511  1
  Fe  Fe37  1  0.33549830  0.00216497  0.66886620  1
  Fe  Fe38  1  0.50213511  0.16880178  0.83370163  1
  Fe  Fe39  1  0.50213522  0.50213430  0.50213511  1
  Fe  Fe40  1  0.33546804  0.33546884  0.66906012  1
  Fe  Fe41  1  0.50305180  0.50302062  0.83461547  1
  Fe  Fe42  1  0.50213499  0.83546925  0.50213511  1
  Fe  Fe43  1  0.33546833  0.66877152  0.66883493  1
  Fe  Fe44  1  0.50121841  0.83458294  0.83461547  1
  Fe  Fe45  1  0.83546763  0.16880189  0.50213511  1
  Fe  Fe46  1  0.66880218  1.00213471  0.66906012  1
  Fe  Fe47  1  0.83635395  0.16971847  0.83461547  1
  Fe  Fe48  1  0.83546751  0.50213418  0.50213511  1
  Fe  Fe49  1  0.66877192  0.33543859  0.66886620  1
  Fe  Fe50  1  0.83543662  0.50210328  0.83553065  1
  Fe  Fe51  1  0.83546762  0.83546926  0.50213511  1
  Fe  Fe52  1  0.66880189  0.66883203  0.66883493  1
  Fe  Fe53  1  0.83635410  0.83458278  0.83458525  1
" 