266,Fe4Cr96_0,-222.229426382967, 117.738131573626,Fe4Cr96,"# generated using pymatgen
 data_CrFe26
_symmetry_space_group_name_H-M   'P 1'
_cell_length_a   7.43529727
_cell_length_b   7.43529727
_cell_length_c   10.51509824
_cell_angle_alpha   90.00000000
_cell_angle_beta   90.00000000
_cell_angle_gamma   90.00000000
_symmetry_Int_Tables_number   1
_chemical_formula_structural   CrFe26
_chemical_formula_sum   'Cr2 Fe52'
_cell_volume   581.31296364
_cell_formula_units_Z   2
loop_
 _symmetry_equiv_pos_site_id
 _symmetry_equiv_pos_as_xyz
  1  'x, y, z'
loop_
 _atom_site_type_symbol
 _atom_site_label
 _atom_site_symmetry_multiplicity
 _atom_site_fract_x
 _atom_site_fract_y
 _atom_site_fract_z
 _atom_site_occupancy
  Fe  Fe0  1  1.00210328  1.00210328  1.00207290  1
  Fe  Fe1  1  0.16880178  0.16880178  0.16880022  1
  Fe  Fe2  1  1.00213418  1.00213418  0.33546844  1
  Fe  Fe3  1  0.00302077  0.33458278  0.00301830  1
  Fe  Fe4  1  0.16877152  0.50213499  0.16876862  1
  Fe  Fe5  1  1.00213429  0.33546926  0.33546844  1
  Fe  Fe6  1  0.00302062  0.66971847  0.00298808  1
  Fe  Fe7  1  0.16883203  0.83546856  0.16876862  1
  Fe  Fe8  1  1.00213430  0.66880189  0.33546844  1
  Fe  Fe9  1  0.33458278  0.00302077  0.00301830  1
  Fe  Fe10  1  0.50213499  0.16877152  0.16876862  1
  Fe  Fe11  1  0.33546926  1.00213429  0.33546844  1
  Fe  Fe12  1  0.33550027  0.33550027  1.00207290  1
  Fe  Fe13  1  0.50216497  0.50216497  0.16873735  1
  Fe  Fe14  1  0.33546938  0.33546938  0.33546844  1
  Fe  Fe15  1  0.33458294  0.66788508  0.00298808  1
  Fe  Fe16  1  0.50213471  0.83546884  0.16854343  1
  Fe  Fe17  1  0.33546925  0.66880166  0.33546844  1
  Fe  Fe18  1  0.66971847  0.00302062  0.00298808  1
  Fe  Fe19  1  0.83546856  0.16883203  0.16876862  1
  Fe  Fe20  1  0.66880189  1.00213430  0.33546844  1
  Fe  Fe21  1  0.66788508  0.33458294  0.00298808  1
  Fe  Fe22  1  0.83546884  0.50213471  0.16854343  1
  Fe  Fe23  1  0.66880166  0.33546925  0.33546844  1
  Fe  Fe24  1  0.66880178  0.66880178  0.00390192  1
  Fe  Fe25  1  0.83543859  0.83543859  0.16873735  1
  Fe  Fe26  1  0.66880178  0.66880178  0.33546844  1
  Fe  Fe27  1  0.16880178  0.16880178  0.50213667  1
  Fe  Fe28  1  1.00210328  1.00210328  0.66886398  1
  Fe  Fe29  1  0.16880178  0.16880178  0.83546844  1
  Fe  Fe30  1  0.16877152  0.50213499  0.50216826  1
  Fe  Fe31  1  0.00302077  0.33458278  0.66791858  1
  Fe  Fe32  1  0.17082757  0.50239202  0.83546844  1
  Fe  Fe33  1  0.16883203  0.83546856  0.50216826  1
  Fe  Fe34  1  0.00302062  0.66971847  0.66794880  1
  Fe  Fe35  1  0.16677598  0.83521153  0.83546844  1
  Fe  Fe36  1  0.50213499  0.16877152  0.50216826  1
  Fe  Fe37  1  0.33458278  0.00302077  0.66791858  1
  Fe  Fe38  1  0.50239202  0.17082757  0.83546844  1
  Fe  Fe39  1  0.50216497  0.50216497  0.50219953  1
  Fe  Fe40  1  0.33550027  0.33550027  0.66886398  1
  Fe  Fe41  1  0.50036809  0.50036809  0.83546844  1
  Fe  Fe42  1  0.50213471  0.83546884  0.50239346  1
  Fe  Fe43  1  0.33458294  0.66788508  0.66794880  1
  Cr  Cr44  1  0.50184980  0.83575375  0.83546844  1
  Fe  Fe45  1  0.83546856  0.16883203  0.50216826  1
  Fe  Fe46  1  0.66971847  0.00302062  0.66794880  1
  Fe  Fe47  1  0.83521153  0.16677598  0.83546844  1
  Fe  Fe48  1  0.83546884  0.50213471  0.50239346  1
  Fe  Fe49  1  0.66788508  0.33458294  0.66794880  1
  Cr  Cr50  1  0.83575375  0.50184980  0.83546844  1
  Fe  Fe51  1  0.83543859  0.83543859  0.50219953  1
  Fe  Fe52  1  0.66880178  0.66880178  0.66703496  1
  Fe  Fe53  1  0.83723547  0.83723547  0.83546844  1
" 