5795,Fe4Cr96_19,-222.189419541529, 118.380458254649,Fe4Cr96,"# generated using pymatgen
 data_CrFe26
_symmetry_space_group_name_H-M   'P 1'
_cell_length_a   7.43301930
_cell_length_b   7.43301930
_cell_length_c   10.51187671
_cell_angle_alpha   90.00000000
_cell_angle_beta   90.00000000
_cell_angle_gamma   90.00000000
_symmetry_Int_Tables_number   1
_chemical_formula_structural   CrFe26
_chemical_formula_sum   'Cr2 Fe52'
_cell_volume   580.77883344
_cell_formula_units_Z   2
loop_
 _symmetry_equiv_pos_site_id
 _symmetry_equiv_pos_as_xyz
  1  'x, y, z'
loop_
 _atom_site_type_symbol
 _atom_site_label
 _atom_site_symmetry_multiplicity
 _atom_site_fract_x
 _atom_site_fract_y
 _atom_site_fract_z
 _atom_site_occupancy
  Fe  Fe0  1  0.00229032  0.00228942  0.00228925  1
  Fe  Fe1  1  0.16895566  0.16898482  0.16898871  1
  Fe  Fe2  1  1.00207311  1.00204266  0.33565249  1
  Fe  Fe3  1  0.00229031  0.33562273  0.00228920  1
  Fe  Fe4  1  0.16895566  0.50231963  0.16923344  1
  Fe  Fe5  1  1.00118375  0.33501006  0.33476451  1
  Fe  Fe6  1  1.00226074  0.66895484  0.00232021  1
  Fe  Fe7  1  0.16895566  0.83556258  0.16901640  1
  Fe  Fe8  1  0.00314328  0.66981668  0.33476186  1
  Fe  Fe9  1  0.33562101  0.00228942  0.00228925  1
  Fe  Fe10  1  0.50232074  0.16895510  0.16898600  1
  Fe  Fe11  1  0.33583822  1.00204266  0.33565249  1
  Fe  Fe12  1  0.33562102  0.33562273  0.00228920  1
  Fe  Fe13  1  0.50140311  0.50143194  0.16813016  1
  Fe  Fe14  1  0.33672758  0.33501006  0.33476451  1
  Fe  Fe15  1  0.33565059  0.66895484  0.00232021  1
  Fe  Fe16  1  0.50143423  0.83647880  0.16810062  1
  Fe  Fe17  1  0.33476804  0.66981668  0.33476186  1
  Fe  Fe18  1  0.66895566  1.00225987  0.00232031  1
  Fe  Fe19  1  0.83559059  0.16895510  0.16898600  1
  Fe  Fe20  1  0.66895566  0.00399973  0.33562389  1
  Fe  Fe21  1  0.66895566  0.33565233  0.00232025  1
  Fe  Fe22  1  0.83650822  0.50143194  0.16813016  1
  Fe  Fe23  1  0.66895566  0.33393688  0.33565182  1
  Fe  Fe24  1  0.66895566  0.66895479  0.00253685  1
  Fe  Fe25  1  0.83647710  0.83647880  0.16810062  1
  Cr  Cr26  1  0.66895566  0.66838818  0.33618885  1
  Fe  Fe27  1  0.16895566  0.16724493  0.50228743  1
  Fe  Fe28  1  0.00232074  0.00228956  0.66892533  1
  Fe  Fe29  1  0.16895566  0.16898479  0.83559102  1
  Cr  Cr30  1  0.16895566  0.50285648  0.50172247  1
  Fe  Fe31  1  1.00143423  0.33476586  0.66981071  1
  Fe  Fe32  1  0.16895566  0.50228987  0.83537448  1
  Fe  Fe33  1  0.16895566  0.83730778  0.50225950  1
  Fe  Fe34  1  1.00140311  0.66981272  0.66978117  1
  Fe  Fe35  1  0.16895566  0.83559232  0.83559108  1
  Fe  Fe36  1  0.50207311  0.16920200  0.50225883  1
  Fe  Fe37  1  0.33559059  0.00228956  0.66892533  1
  Fe  Fe38  1  0.50229032  0.16895524  0.83562208  1
  Fe  Fe39  1  0.50314328  0.50142798  0.50314947  1
  Fe  Fe40  1  0.33647710  0.33476586  0.66981071  1
  Fe  Fe41  1  0.50226074  0.50228982  0.83559112  1
  Fe  Fe42  1  0.50118375  0.83623460  0.50314682  1
  Fe  Fe43  1  0.33650822  0.66981272  0.66978117  1
  Fe  Fe44  1  0.50229031  0.83562193  0.83562212  1
  Fe  Fe45  1  0.83583822  0.16920200  0.50225883  1
  Fe  Fe46  1  0.66895566  1.00225984  0.66892262  1
  Fe  Fe47  1  0.83562101  0.16895524  0.83562208  1
  Fe  Fe48  1  0.83476804  0.50142798  0.50314947  1
  Fe  Fe49  1  0.66895566  0.33568207  0.66889492  1
  Fe  Fe50  1  0.83565059  0.50228982  0.83559112  1
  Fe  Fe51  1  0.83672758  0.83623460  0.50314682  1
  Fe  Fe52  1  0.66895566  0.66892503  0.66867788  1
  Fe  Fe53  1  0.83562102  0.83562193  0.83562212  1
" 