6974,Fe4Cr96_6,-222.218981653946, 117.334367049142,Fe4Cr96,"# generated using pymatgen
 data_CrFe26
_symmetry_space_group_name_H-M   'P 1'
_cell_length_a   7.43495328
_cell_length_b   7.43495328
_cell_length_c   10.51461177
_cell_angle_alpha   90.00000000
_cell_angle_beta   90.00000000
_cell_angle_gamma   90.00000000
_symmetry_Int_Tables_number   1
_chemical_formula_structural   CrFe26
_chemical_formula_sum   'Cr2 Fe52'
_cell_volume   581.23228540
_cell_formula_units_Z   2
loop_
 _symmetry_equiv_pos_site_id
 _symmetry_equiv_pos_as_xyz
  1  'x, y, z'
loop_
 _atom_site_type_symbol
 _atom_site_label
 _atom_site_symmetry_multiplicity
 _atom_site_fract_x
 _atom_site_fract_y
 _atom_site_fract_z
 _atom_site_occupancy
  Fe  Fe0  1  0.00243379  1.00191443  0.00218784  1
  Fe  Fe1  1  0.16885568  0.16712024  0.16879545  1
  Fe  Fe2  1  0.00218900  0.00215890  0.33546153  1
  Fe  Fe3  1  1.00154987  0.33488321  1.00130631  1
  Cr  Cr4  1  0.16797038  0.50130372  0.16967876  1
  Fe  Fe5  1  1.00130438  0.33463771  0.33634445  1
  Fe  Fe6  1  0.99960763  0.66967518  1.00130792  1
  Fe  Fe7  1  0.16797484  0.83804238  0.16967543  1
  Fe  Fe8  1  1.00133378  0.66967792  0.33631363  1
  Fe  Fe9  1  0.33546100  0.00386311  0.00218790  1
  Fe  Fe10  1  0.50188289  0.16906892  0.16879550  1
  Fe  Fe11  1  0.33546096  1.00212988  0.33543113  1
  Fe  Fe12  1  0.33634184  0.33294096  1.00130792  1
  Fe  Fe13  1  0.50470905  0.50130817  0.16967543  1
  Fe  Fe14  1  0.33634458  0.33466711  0.33631363  1
  Cr  Cr15  1  0.33634630  0.66967963  1.00130459  1
  Fe  Fe16  1  0.50276681  0.83610014  0.16967704  1
  Fe  Fe17  1  0.33634423  0.66967756  0.33609869  1
  Fe  Fe18  1  0.66858004  1.00191337  0.00215985  1
  Fe  Fe19  1  0.83573665  0.16906998  0.16882350  1
  Fe  Fe20  1  0.66882507  0.00215840  0.33548947  1
  Fe  Fe21  1  0.66858110  0.33576712  0.00218784  1
  Fe  Fe22  1  0.83378691  0.50218901  0.16879545  1
  Fe  Fe23  1  0.66882557  0.33552233  0.33546153  1
  Fe  Fe24  1  0.67052978  0.66879433  0.00218790  1
  Fe  Fe25  1  0.83573558  0.83521623  0.16879550  1
  Fe  Fe26  1  0.66879655  0.66879429  0.33543113  1
  Fe  Fe27  1  0.16882586  0.16885402  0.50212718  1
  Fe  Fe28  1  0.00215920  0.00215837  0.66882562  1
  Fe  Fe29  1  0.16885573  0.16885347  0.83555221  1
  Fe  Fe30  1  0.16882575  0.50215908  0.50191245  1
  Fe  Fe31  1  0.00215911  0.33549244  0.66882562  1
  Fe  Fe32  1  0.16797246  0.50130579  0.83488466  1
  Fe  Fe33  1  0.16882580  0.83546197  0.50212731  1
  Fe  Fe34  1  0.00218805  0.66882422  0.66885604  1
  Fe  Fe35  1  0.16797210  0.83631624  0.83466972  1
  Fe  Fe36  1  0.50215748  0.16882498  0.50215773  1
  Fe  Fe37  1  0.33549082  1.00212933  0.66885617  1
  Fe  Fe38  1  0.50212769  0.16882445  0.83552182  1
  Fe  Fe39  1  0.50212863  0.50215913  0.50212731  1
  Fe  Fe40  1  0.33549089  0.33552138  0.66885604  1
  Fe  Fe41  1  0.50298291  0.50130543  0.83466972  1
  Fe  Fe42  1  0.50215757  0.83549091  0.50215773  1
  Fe  Fe43  1  0.33549093  0.66882427  0.66907090  1
  Fe  Fe44  1  0.50301231  0.83634564  0.83463890  1
  Fe  Fe45  1  0.83549168  0.16882501  0.50215767  1
  Fe  Fe46  1  0.66882500  1.00215834  0.66882568  1
  Fe  Fe47  1  0.83549161  0.16882495  0.83549388  1
  Fe  Fe48  1  0.83552068  0.50215919  0.50212718  1
  Fe  Fe49  1  0.66882503  0.33549253  0.66882562  1
  Fe  Fe50  1  0.83552013  0.50218906  0.83555221  1
  Fe  Fe51  1  0.83549165  0.83549082  0.50215773  1
  Fe  Fe52  1  0.66879600  0.66882416  0.66885617  1
  Fe  Fe53  1  0.83549111  0.83546102  0.83552182  1
" 