77,Fe4Cr96_3,-222.218981653947, 117.334366489858,Fe4Cr96,"# generated using pymatgen
 data_CrFe26
_symmetry_space_group_name_H-M   'P 1'
_cell_length_a   7.43495328
_cell_length_b   7.43495328
_cell_length_c   10.51461177
_cell_angle_alpha   90.00000000
_cell_angle_beta   90.00000000
_cell_angle_gamma   90.00000000
_symmetry_Int_Tables_number   1
_chemical_formula_structural   CrFe26
_chemical_formula_sum   'Cr2 Fe52'
_cell_volume   581.23228540
_cell_formula_units_Z   2
loop_
 _symmetry_equiv_pos_site_id
 _symmetry_equiv_pos_as_xyz
  1  'x, y, z'
loop_
 _atom_site_type_symbol
 _atom_site_label
 _atom_site_symmetry_multiplicity
 _atom_site_fract_x
 _atom_site_fract_y
 _atom_site_fract_z
 _atom_site_occupancy
  Fe  Fe0  1  1.00215749  0.00218735  0.00218950  1
  Fe  Fe1  1  0.16967897  0.16797104  0.16797223  1
  Fe  Fe2  1  1.00212767  1.00045357  0.33552123  1
  Fe  Fe3  1  1.00215760  0.33549241  0.00240423  1
  Fe  Fe4  1  0.16964957  0.50301125  0.16800306  1
  Cr  Cr5  1  0.00301296  0.33463705  0.33463792  1
  Fe  Fe6  1  1.00215755  0.66879530  0.00218937  1
  Fe  Fe7  1  0.16879435  0.83549223  0.16885515  1
  Fe  Fe8  1  0.00300851  0.67137572  0.33464125  1
  Fe  Fe9  1  0.33549167  0.00215835  0.00215902  1
  Fe  Fe10  1  0.50215778  0.16885566  0.16885515  1
  Fe  Fe11  1  0.33524670  0.00240331  0.33549319  1
  Fe  Fe12  1  0.33546267  0.33549252  0.00218950  1
  Fe  Fe13  1  0.50218680  0.50212762  0.16888555  1
  Fe  Fe14  1  0.33719644  0.33552235  0.33552123  1
  Fe  Fe15  1  0.33549170  0.66882415  0.00215896  1
  Fe  Fe16  1  0.50215828  0.83549173  0.16882721  1
  Fe  Fe17  1  0.33524777  0.66854956  0.33552118  1
  Fe  Fe18  1  0.66882586  1.00215832  0.00215896  1
  Fe  Fe19  1  0.83463877  0.16800044  0.16800306  1
  Fe  Fe20  1  0.66910046  0.00240225  0.33552118  1
  Fe  Fe21  1  0.66885471  0.33549246  0.00218937  1
  Fe  Fe22  1  0.83463912  0.50301089  0.16821799  1
  Fe  Fe23  1  0.66627430  0.33464150  0.33464125  1
  Fe  Fe24  1  0.66882577  0.66882424  0.00215895  1
  Fe  Fe25  1  0.83552239  0.83546321  0.16888555  1
  Fe  Fe26  1  0.66821654  0.66943347  0.33463964  1
  Fe  Fe27  1  0.16943347  0.16821654  0.50301037  1
  Fe  Fe28  1  1.00212762  0.00218680  0.66876447  1
  Fe  Fe29  1  0.16882424  0.16882577  0.83549106  1
  Fe  Fe30  1  0.17137572  0.50300851  0.50300876  1
  Fe  Fe31  1  0.00301089  0.33463912  0.66943202  1
  Fe  Fe32  1  0.16879530  0.50215755  0.83546064  1
  Fe  Fe33  1  0.16854956  0.83524777  0.50212884  1
  Fe  Fe34  1  0.00301125  0.66964957  0.66964696  1
  Fe  Fe35  1  0.16882415  0.83549170  0.83549106  1
  Fe  Fe36  1  0.50240225  0.16910046  0.50212884  1
  Fe  Fe37  1  0.33549173  1.00215828  0.66882280  1
  Fe  Fe38  1  0.50215832  0.16882586  0.83549106  1
  Fe  Fe39  1  0.50045357  0.50212767  0.50212878  1
  Fe  Fe40  1  0.33546321  0.33552239  0.66876447  1
  Fe  Fe41  1  0.50218735  0.50215749  0.83546051  1
  Fe  Fe42  1  0.50240331  0.83524670  0.50215683  1
  Fe  Fe43  1  0.33549223  0.66879435  0.66879486  1
  Fe  Fe44  1  0.50215835  0.83549167  0.83549100  1
  Fe  Fe45  1  0.83464150  0.16627430  0.50300876  1
  Fe  Fe46  1  0.66885566  1.00215778  0.66879486  1
  Fe  Fe47  1  0.83549246  0.16885471  0.83546064  1
  Cr  Cr48  1  0.83463705  0.50301296  0.50301209  1
  Fe  Fe49  1  0.66800044  0.33463877  0.66964696  1
  Fe  Fe50  1  0.83549241  0.50215760  0.83524578  1
  Fe  Fe51  1  0.83552235  0.83719644  0.50212878  1
  Fe  Fe52  1  0.66797104  0.66967897  0.66967778  1
  Fe  Fe53  1  0.83549252  0.83546267  0.83546051  1
" 