799,Fe4Cr96_7,-222.199244278565, 117.483331559122,Fe4Cr96,"# generated using pymatgen
 data_CrFe26
_symmetry_space_group_name_H-M   'P 1'
_cell_length_a   7.43590182
_cell_length_b   7.43590182
_cell_length_c   10.51595321
_cell_angle_alpha   90.00000000
_cell_angle_beta   90.00000000
_cell_angle_gamma   90.00000000
_symmetry_Int_Tables_number   1
_chemical_formula_structural   CrFe26
_chemical_formula_sum   'Cr2 Fe52'
_cell_volume   581.45477204
_cell_formula_units_Z   2
loop_
 _symmetry_equiv_pos_site_id
 _symmetry_equiv_pos_as_xyz
  1  'x, y, z'
loop_
 _atom_site_type_symbol
 _atom_site_label
 _atom_site_symmetry_multiplicity
 _atom_site_fract_x
 _atom_site_fract_y
 _atom_site_fract_z
 _atom_site_occupancy
  Fe  Fe0  1  1.00121407  1.00121313  0.00297385  1
  Fe  Fe1  1  0.16876088  0.16876102  0.16850409  1
  Fe  Fe2  1  0.00209502  1.00206287  0.33545859  1
  Fe  Fe3  1  1.00121315  0.33630875  0.00297475  1
  Fe  Fe4  1  0.16876091  0.50206424  0.16872929  1
  Fe  Fe5  1  0.00209513  0.33542677  0.33542932  1
  Fe  Fe6  1  0.00212657  0.66876178  1.00206328  1
  Fe  Fe7  1  0.16879092  0.83545759  0.16876095  1
  Fe  Fe8  1  0.00209512  0.66879323  0.33545862  1
  Fe  Fe9  1  0.33630778  1.00121413  0.00297307  1
  Fe  Fe10  1  0.50206432  0.16873098  0.16876095  1
  Fe  Fe11  1  0.33454746  0.00297444  0.33454883  1
  Fe  Fe12  1  0.33630877  0.33630784  0.00297385  1
  Fe  Fe13  1  0.50209432  0.50212433  0.16879261  1
  Fe  Fe14  1  0.33545904  0.33542689  0.33545859  1
  Fe  Fe15  1  0.33539620  0.66876168  1.00206331  1
  Fe  Fe16  1  0.50209435  0.83542755  0.16901781  1
  Fe  Fe17  1  0.33454646  0.66788073  0.33454805  1
  Fe  Fe18  1  0.66876022  0.00212570  1.00206331  1
  Fe  Fe19  1  0.83545766  0.16876099  0.16872929  1
  Fe  Fe20  1  0.66964117  0.00297544  0.33454805  1
  Fe  Fe21  1  0.66876012  0.33539534  1.00206328  1
  Fe  Fe22  1  0.83542762  0.50209428  0.16876095  1
  Fe  Fe23  1  0.66872867  0.33542679  0.33545862  1
  Fe  Fe24  1  0.66876010  0.66876180  1.00209259  1
  Fe  Fe25  1  0.83539757  0.83542758  0.16879261  1
  Fe  Fe26  1  0.66964208  0.66787982  0.33454715  1
  Fe  Fe27  1  0.16901664  0.16850526  0.50235073  1
  Fe  Fe28  1  1.00121530  1.00118391  0.66785236  1
  Cr  Cr29  1  0.16831683  0.16920507  0.83587078  1
  Fe  Fe30  1  0.16901720  0.50232065  0.50212625  1
  Fe  Fe31  1  1.00121474  0.33630717  0.66788060  1
  Fe  Fe32  1  0.16876068  0.50385317  0.83542723  1
  Fe  Fe33  1  0.16700530  0.83545719  0.50212589  1
  Fe  Fe34  1  0.00212612  0.66879278  0.66876095  1
  Fe  Fe35  1  0.16879053  0.83367197  0.83539602  1
  Fe  Fe36  1  0.50206471  0.17051660  0.50212589  1
  Fe  Fe37  1  0.33542762  1.00209428  0.66876095  1
  Fe  Fe38  1  0.50384993  0.16873137  0.83539602  1
  Fe  Fe39  1  0.50209456  0.50033540  0.50209468  1
  Fe  Fe40  1  0.33633799  0.33630660  0.66785236  1
  Fe  Fe41  1  0.50183804  0.50186791  0.83539565  1
  Cr  Cr42  1  0.50253840  0.83498350  0.50165112  1
  Fe  Fe43  1  0.33451725  0.66788197  0.66966954  1
  Fe  Fe44  1  0.50183859  0.83568331  0.83517118  1
  Fe  Fe45  1  0.83520125  0.16850471  0.50212625  1
  Fe  Fe46  1  0.66963993  0.00300465  0.66966954  1
  Fe  Fe47  1  0.83366874  0.16876123  0.83542723  1
  Fe  Fe48  1  0.83517094  0.50235096  0.50209488  1
  Fe  Fe49  1  0.66872912  0.33539579  0.66876095  1
  Fe  Fe50  1  0.83568430  0.50183760  0.83542702  1
  Fe  Fe51  1  0.83718650  0.83542734  0.50209468  1
  Fe  Fe52  1  0.66964050  0.66788140  0.66964131  1
  Fe  Fe53  1  0.83565399  0.83568386  0.83539565  1
" 