8795,Fe4Cr96_16,-222.189419541529, 118.380458249803,Fe4Cr96,"# generated using pymatgen
 data_CrFe26
_symmetry_space_group_name_H-M   'P 1'
_cell_length_a   7.43301930
_cell_length_b   7.43301930
_cell_length_c   10.51187671
_cell_angle_alpha   90.00000000
_cell_angle_beta   90.00000000
_cell_angle_gamma   90.00000000
_symmetry_Int_Tables_number   1
_chemical_formula_structural   CrFe26
_chemical_formula_sum   'Cr2 Fe52'
_cell_volume   580.77883344
_cell_formula_units_Z   2
loop_
 _symmetry_equiv_pos_site_id
 _symmetry_equiv_pos_as_xyz
  1  'x, y, z'
loop_
 _atom_site_type_symbol
 _atom_site_label
 _atom_site_symmetry_multiplicity
 _atom_site_fract_x
 _atom_site_fract_y
 _atom_site_fract_z
 _atom_site_occupancy
  Fe  Fe0  1  0.00314547  1.00143423  1.00143395  1
  Fe  Fe1  1  0.17066640  0.16895566  0.16895723  1
  Fe  Fe2  1  0.00290127  1.00118375  0.33648015  1
  Fe  Fe3  1  0.00314547  0.33647710  1.00143395  1
  Fe  Fe4  1  0.16870932  0.50207311  0.16898583  1
  Fe  Fe5  1  0.00290127  0.33672758  0.33648015  1
  Fe  Fe6  1  1.00222925  0.66895566  0.00234974  1
  Fe  Fe7  1  0.16870932  0.83583822  0.16898583  1
  Fe  Fe8  1  0.00397445  0.66895566  0.33559284  1
  Fe  Fe9  1  0.33562177  0.00232074  0.00231933  1
  Fe  Fe10  1  0.50060354  0.16895566  0.16898516  1
  Fe  Fe11  1  0.33586867  1.00207311  0.33559217  1
  Fe  Fe12  1  0.33562177  0.33559059  0.00231933  1
  Fe  Fe13  1  0.50167672  0.50118375  0.16809784  1
  Fe  Fe14  1  0.33586867  0.33583822  0.33559217  1
  Fe  Fe15  1  0.33565149  0.66895566  0.00232204  1
  Fe  Fe16  1  0.50167672  0.83672758  0.16809784  1
  Fe  Fe17  1  0.33391159  0.66895566  0.33562077  1
  Fe  Fe18  1  0.66809861  1.00140311  1.00146349  1
  Cr  Cr19  1  0.83505485  0.16895566  0.16952219  1
  Fe  Fe20  1  0.66809464  0.00314328  0.33648280  1
  Fe  Fe21  1  0.66809861  0.33650822  1.00146349  1
  Fe  Fe22  1  0.83648335  0.50314328  0.16809519  1
  Fe  Fe23  1  0.66809464  0.33476804  0.33648280  1
  Fe  Fe24  1  0.66898630  0.66895566  0.00256677  1
  Fe  Fe25  1  0.83648335  0.83476804  0.16809519  1
  Cr  Cr26  1  0.66952314  0.66895566  0.33505580  1
  Fe  Fe27  1  0.16892650  0.16895566  0.50225595  1
  Fe  Fe28  1  1.00228859  0.00229031  0.66895546  1
  Fe  Fe29  1  0.16892654  0.16895566  0.83565364  1
  Fe  Fe30  1  0.16895622  0.50232074  0.50225866  1
  Fe  Fe31  1  1.00228859  0.33562102  0.66895546  1
  Fe  Fe32  1  0.16895609  0.50229032  0.83562258  1
  Fe  Fe33  1  0.16895622  0.83559059  0.50225866  1
  Fe  Fe34  1  1.00225899  0.66895566  0.66892441  1
  Fe  Fe35  1  0.16895609  0.83562101  0.83562258  1
  Fe  Fe36  1  0.50234874  0.16895566  0.50222825  1
  Fe  Fe37  1  0.33562191  0.00229032  0.66895541  1
  Fe  Fe38  1  0.50231900  0.16895566  0.83565358  1
  Fe  Fe39  1  0.50143252  0.50143423  0.50314404  1
  Fe  Fe40  1  0.33562191  0.33562101  0.66895541  1
  Fe  Fe41  1  0.50228940  0.50229031  0.83562254  1
  Fe  Fe42  1  0.50143252  0.83647710  0.50314404  1
  Fe  Fe43  1  0.33565145  0.66895566  0.66892435  1
  Fe  Fe44  1  0.50228940  0.83562102  0.83562254  1
  Fe  Fe45  1  0.83559169  0.16895566  0.50201122  1
  Fe  Fe46  1  0.66895649  1.00226074  0.66892445  1
  Fe  Fe47  1  0.83562145  0.16895566  0.83587018  1
  Fe  Fe48  1  0.83647939  0.50140311  0.50311450  1
  Fe  Fe49  1  0.66895649  0.33565059  0.66892445  1
  Fe  Fe50  1  0.83562150  0.50226074  0.83565354  1
  Fe  Fe51  1  0.83647939  0.83650822  0.50311450  1
  Fe  Fe52  1  0.66895654  0.66895566  0.66870781  1
  Fe  Fe53  1  0.83562150  0.83565059  0.83565354  1
" 