2506,Fe4Cr96_14,-222.218981653946, 117.334367578257,Fe4Cr96,"# generated using pymatgen
 data_CrFe26
_symmetry_space_group_name_H-M   'P 1'
_cell_length_a   7.43495328
_cell_length_b   7.43495328
_cell_length_c   10.51461177
_cell_angle_alpha   90.00000000
_cell_angle_beta   90.00000000
_cell_angle_gamma   90.00000000
_symmetry_Int_Tables_number   1
_chemical_formula_structural   CrFe26
_chemical_formula_sum   'Cr2 Fe52'
_cell_volume   581.23228540
_cell_formula_units_Z   2
loop_
 _symmetry_equiv_pos_site_id
 _symmetry_equiv_pos_as_xyz
  1  'x, y, z'
loop_
 _atom_site_type_symbol
 _atom_site_label
 _atom_site_symmetry_multiplicity
 _atom_site_fract_x
 _atom_site_fract_y
 _atom_site_fract_z
 _atom_site_occupancy
  Fe  Fe0  1  0.00215908  1.00215760  0.00240423  1
  Fe  Fe1  1  0.16967792  0.16964957  0.16800306  1
  Cr  Cr2  1  1.00130372  0.00301296  0.33463792  1
  Fe  Fe3  1  0.00215919  0.33546267  0.00218950  1
  Fe  Fe4  1  0.16879429  0.50218680  0.16888555  1
  Fe  Fe5  1  0.00218901  0.33719644  0.33552123  1
  Fe  Fe6  1  0.00215913  0.66885471  0.00218937  1
  Fe  Fe7  1  0.16967756  0.83463912  0.16821799  1
  Fe  Fe8  1  1.00130817  0.66627430  0.33464125  1
  Fe  Fe9  1  0.33546197  1.00215755  0.00218937  1
  Fe  Fe10  1  0.50215890  0.16879435  0.16885515  1
  Fe  Fe11  1  0.33804238  0.00300851  0.33464125  1
  Fe  Fe12  1  0.33549082  0.33549170  0.00215896  1
  Fe  Fe13  1  0.50215840  0.50215828  0.16882721  1
  Fe  Fe14  1  0.33521623  0.33524777  0.33552118  1
  Fe  Fe15  1  0.33549091  0.66882577  0.00215895  1
  Fe  Fe16  1  0.50212988  0.83552239  0.16888555  1
  Fe  Fe17  1  0.33610014  0.66821654  0.33463964  1
  Fe  Fe18  1  0.66885402  1.00215749  0.00218950  1
  Fe  Fe19  1  0.83463771  0.16967897  0.16797223  1
  Fe  Fe20  1  0.66712024  1.00212767  0.33552123  1
  Fe  Fe21  1  0.66882501  0.33549167  0.00215902  1
  Fe  Fe22  1  0.83552233  0.50215778  0.16885515  1
  Fe  Fe23  1  0.66906998  0.33524670  0.33549319  1
  Fe  Fe24  1  0.66882498  0.66882586  0.00215896  1
  Fe  Fe25  1  0.83466711  0.83463877  0.16800306  1
  Fe  Fe26  1  0.66906892  0.66910046  0.33552118  1
  Fe  Fe27  1  0.16967518  0.17137572  0.50300876  1
  Fe  Fe28  1  1.00130579  0.00301089  0.66943202  1
  Fe  Fe29  1  0.16882422  0.16879530  0.83546064  1
  Fe  Fe30  1  0.16879433  0.50045357  0.50212878  1
  Fe  Fe31  1  0.00218906  0.33546321  0.66876447  1
  Fe  Fe32  1  0.16882416  0.50218735  0.83546051  1
  Cr  Cr33  1  0.16967963  0.83463705  0.50301209  1
  Fe  Fe34  1  1.00130543  0.66800044  0.66964696  1
  Fe  Fe35  1  0.16882427  0.83549241  0.83524578  1
  Fe  Fe36  1  0.50191443  0.16854956  0.50212884  1
  Fe  Fe37  1  0.33631624  0.00301125  0.66964696  1
  Fe  Fe38  1  0.50215837  0.16882415  0.83549106  1
  Fe  Fe39  1  0.50191337  0.50240331  0.50215683  1
  Fe  Fe40  1  0.33546102  0.33549223  0.66879486  1
  Fe  Fe41  1  0.50215834  0.50215835  0.83549100  1
  Fe  Fe42  1  0.50386311  0.83552235  0.50212878  1
  Fe  Fe43  1  0.33634564  0.66797104  0.66967778  1
  Fe  Fe44  1  0.50212933  0.83549252  0.83546051  1
  Fe  Fe45  1  0.83488321  0.16943347  0.50301037  1
  Fe  Fe46  1  0.66885347  1.00212762  0.66876447  1
  Fe  Fe47  1  0.83549244  0.16882424  0.83549106  1
  Fe  Fe48  1  0.83576712  0.50240225  0.50212884  1
  Fe  Fe49  1  0.66882495  0.33549173  0.66882280  1
  Fe  Fe50  1  0.83549253  0.50215832  0.83549106  1
  Fe  Fe51  1  0.83294096  0.83464150  0.50300876  1
  Fe  Fe52  1  0.66882445  0.66885566  0.66879486  1
  Fe  Fe53  1  0.83552138  0.83549246  0.83546064  1
" 