4866,Fe4Cr96_5,-222.218981653946, 117.334367457404,Fe4Cr96,"# generated using pymatgen
 data_CrFe26
_symmetry_space_group_name_H-M   'P 1'
_cell_length_a   7.43495328
_cell_length_b   7.43495328
_cell_length_c   10.51461177
_cell_angle_alpha   90.00000000
_cell_angle_beta   90.00000000
_cell_angle_gamma   90.00000000
_symmetry_Int_Tables_number   1
_chemical_formula_structural   CrFe26
_chemical_formula_sum   'Cr2 Fe52'
_cell_volume   581.23228540
_cell_formula_units_Z   2
loop_
 _symmetry_equiv_pos_site_id
 _symmetry_equiv_pos_as_xyz
  1  'x, y, z'
loop_
 _atom_site_type_symbol
 _atom_site_label
 _atom_site_symmetry_multiplicity
 _atom_site_fract_x
 _atom_site_fract_y
 _atom_site_fract_z
 _atom_site_occupancy
  Fe  Fe0  1  1.00130579  1.00130579  0.00276536  1
  Fe  Fe1  1  0.16882427  0.16882427  0.16857912  1
  Fe  Fe2  1  0.00215908  0.00215908  0.33573756  1
  Fe  Fe3  1  1.00130543  0.33631624  0.00298029  1
  Fe  Fe4  1  0.16882416  0.50212933  0.16879384  1
  Fe  Fe5  1  0.00215913  0.33546197  0.33552271  1
  Fe  Fe6  1  0.00218906  0.66885347  1.00209780  1
  Fe  Fe7  1  0.16882422  0.83552138  0.16879398  1
  Fe  Fe8  1  0.00215919  0.66885402  0.33552284  1
  Fe  Fe9  1  0.33631624  1.00130543  0.00298029  1
  Fe  Fe10  1  0.50212933  0.16882416  0.16879384  1
  Fe  Fe11  1  0.33546197  0.00215913  0.33552271  1
  Fe  Fe12  1  0.33634564  0.33634564  0.00301112  1
  Fe  Fe13  1  0.50215834  0.50215834  0.16882433  1
  Fe  Fe14  1  0.33549091  0.33549091  0.33549228  1
  Fe  Fe15  1  0.33546102  0.66882445  1.00212820  1
  Fe  Fe16  1  0.50215837  0.83549253  0.16882439  1
  Fe  Fe17  1  0.33549082  0.66882498  0.33549229  1
  Fe  Fe18  1  0.66885347  0.00218906  1.00209780  1
  Fe  Fe19  1  0.83552138  0.16882422  0.16879398  1
  Fe  Fe20  1  0.66885402  0.00215919  0.33552284  1
  Fe  Fe21  1  0.66882445  0.33546102  1.00212820  1
  Fe  Fe22  1  0.83549253  0.50215837  0.16882439  1
  Fe  Fe23  1  0.66882498  0.33549082  0.33549229  1
  Fe  Fe24  1  0.66882495  0.66882495  1.00215613  1
  Fe  Fe25  1  0.83549244  0.83549244  0.16882440  1
  Fe  Fe26  1  0.66882501  0.66882501  0.33549235  1
  Fe  Fe27  1  0.16967756  0.16967756  0.50155133  1
  Cr  Cr28  1  1.00130372  1.00130372  0.66797126  1
  Cr  Cr29  1  0.16967963  0.16967963  0.83634543  1
  Fe  Fe30  1  0.16879429  0.50212988  0.50221888  1
  Fe  Fe31  1  1.00130817  0.33804238  0.66797459  1
  Fe  Fe32  1  0.16879433  0.50386311  0.83546212  1
  Fe  Fe33  1  0.16967792  0.83466711  0.50133639  1
  Fe  Fe34  1  0.00218901  0.66712024  0.66885457  1
  Fe  Fe35  1  0.16967518  0.83294096  0.83634210  1
  Fe  Fe36  1  0.50212988  0.16879429  0.50221888  1
  Fe  Fe37  1  0.33804238  1.00130817  0.66797459  1
  Fe  Fe38  1  0.50386311  0.16879433  0.83546212  1
  Fe  Fe39  1  0.50215840  0.50215840  0.50216055  1
  Fe  Fe40  1  0.33610014  0.33610014  0.66797298  1
  Fe  Fe41  1  0.50191337  0.50191337  0.83549016  1
  Fe  Fe42  1  0.50215890  0.83552233  0.50218849  1
  Fe  Fe43  1  0.33521623  0.66906892  0.66885451  1
  Fe  Fe44  1  0.50191443  0.83576712  0.83546217  1
  Fe  Fe45  1  0.83466711  0.16967792  0.50133639  1
  Fe  Fe46  1  0.66712024  0.00218901  0.66885457  1
  Fe  Fe47  1  0.83294096  0.16967518  0.83634210  1
  Fe  Fe48  1  0.83552233  0.50215890  0.50218849  1
  Fe  Fe49  1  0.66906892  0.33521623  0.66885451  1
  Fe  Fe50  1  0.83576712  0.50191443  0.83546217  1
  Fe  Fe51  1  0.83463771  0.83463771  0.50130556  1
  Fe  Fe52  1  0.66906998  0.66906998  0.66882652  1
  Fe  Fe53  1  0.83488321  0.83488321  0.83634371  1
" 