5655,Fe4Cr96_9,-222.207798919846, 118.120809761651,Fe4Cr96,"# generated using pymatgen
 data_CrFe26
_symmetry_space_group_name_H-M   'P 1'
_cell_length_a   7.43596978
_cell_length_b   7.43596978
_cell_length_c   10.51604931
_cell_angle_alpha   90.00000000
_cell_angle_beta   90.00000000
_cell_angle_gamma   90.00000000
_symmetry_Int_Tables_number   1
_chemical_formula_structural   CrFe26
_chemical_formula_sum   'Cr2 Fe52'
_cell_volume   581.47071419
_cell_formula_units_Z   2
loop_
 _symmetry_equiv_pos_site_id
 _symmetry_equiv_pos_as_xyz
  1  'x, y, z'
loop_
 _atom_site_type_symbol
 _atom_site_label
 _atom_site_symmetry_multiplicity
 _atom_site_fract_x
 _atom_site_fract_y
 _atom_site_fract_z
 _atom_site_occupancy
  Fe  Fe0  1  1.00181165  0.00233802  0.00210258  1
  Fe  Fe1  1  0.16876136  0.16878040  0.16873796  1
  Fe  Fe2  1  0.00208970  1.00206065  0.33542303  1
  Fe  Fe3  1  0.00383943  0.33542303  1.00207016  1
  Fe  Fe4  1  0.16876136  0.50206566  0.16873796  1
  Fe  Fe5  1  0.00208970  0.33542303  0.33542303  1
  Fe  Fe6  1  1.00181165  0.66850804  0.00210258  1
  Fe  Fe7  1  0.16875881  0.83542303  0.16874796  1
  Fe  Fe8  1  0.00208970  0.66878540  0.33542303  1
  Fe  Fe9  1  0.33568765  0.00237115  1.00206941  1
  Fe  Fe10  1  0.50119757  0.16787200  0.16964531  1
  Fe  Fe11  1  0.33540854  0.00209116  0.33545601  1
  Fe  Fe12  1  0.33365324  0.33542303  1.00182043  1
  Fe  Fe13  1  0.50119757  0.50297406  0.16964531  1
  Fe  Fe14  1  0.33543951  0.33542303  0.33566934  1
  Fe  Fe15  1  0.33568765  0.66847490  1.00206941  1
  Fe  Fe16  1  0.50210710  0.83542303  0.16873799  1
  Fe  Fe17  1  0.33540854  0.66875490  0.33545601  1
  Fe  Fe18  1  0.66877020  1.00032422  0.00210219  1
  Fe  Fe19  1  0.83630265  0.16787938  0.16963454  1
  Fe  Fe20  1  0.66877086  0.00209116  0.33539005  1
  Cr  Cr21  1  0.66819918  0.33542303  1.00152416  1
  Fe  Fe22  1  0.83630265  0.50296668  0.16963454  1
  Fe  Fe23  1  0.66873989  0.33542303  0.33517672  1
  Fe  Fe24  1  0.66877020  0.67052184  0.00210219  1
  Fe  Fe25  1  0.83540331  0.83542303  0.16873814  1
  Fe  Fe26  1  0.66877086  0.66875490  0.33539005  1
  Fe  Fe27  1  0.16787674  0.16787938  0.50121152  1
  Fe  Fe28  1  0.00236774  0.00233802  0.66874348  1
  Fe  Fe29  1  0.16785958  0.16787791  0.83633692  1
  Fe  Fe30  1  0.16787674  0.50296668  0.50121152  1
  Fe  Fe31  1  1.00033996  0.33542303  0.66877589  1
  Fe  Fe32  1  0.16785958  0.50296815  0.83633692  1
  Fe  Fe33  1  0.16877608  0.83542303  0.50210792  1
  Fe  Fe34  1  0.00236774  0.66850804  0.66874348  1
  Fe  Fe35  1  0.16877630  0.83542303  0.83541292  1
  Fe  Fe36  1  0.50298182  0.16787200  0.50120075  1
  Fe  Fe37  1  0.33540919  1.00032422  0.66874387  1
  Fe  Fe38  1  0.50208970  0.16692306  0.83542303  1
  Fe  Fe39  1  0.50298182  0.50297406  0.50120075  1
  Cr  Cr40  1  0.33598021  0.33542303  0.66932190  1
  Fe  Fe41  1  0.50208970  0.50392299  0.83542303  1
  Fe  Fe42  1  0.50207229  0.83542303  0.50210807  1
  Fe  Fe43  1  0.33540919  0.67052184  0.66874387  1
  Fe  Fe44  1  0.50208970  0.83542303  0.83542303  1
  Fe  Fe45  1  0.83541804  0.16878040  0.50210810  1
  Fe  Fe46  1  0.66849174  0.00237115  0.66877665  1
  Fe  Fe47  1  0.83631981  0.16787791  0.83450914  1
  Fe  Fe48  1  0.83541804  0.50206566  0.50210810  1
  Fe  Fe49  1  0.67052616  0.33542303  0.66902562  1
  Fe  Fe50  1  0.83631981  0.50296815  0.83450914  1
  Fe  Fe51  1  0.83542058  0.83542303  0.50209810  1
  Fe  Fe52  1  0.66849174  0.66847490  0.66877665  1
  Fe  Fe53  1  0.83540309  0.83542303  0.83543314  1
" 