3707,Fe4Cr96_1,-222.189419541529, 118.380458248204,Fe4Cr96,"# generated using pymatgen
 data_CrFe26
_symmetry_space_group_name_H-M   'P 1'
_cell_length_a   7.43301930
_cell_length_b   7.43301930
_cell_length_c   10.51187671
_cell_angle_alpha   90.00000000
_cell_angle_beta   90.00000000
_cell_angle_gamma   90.00000000
_symmetry_Int_Tables_number   1
_chemical_formula_structural   CrFe26
_chemical_formula_sum   'Cr2 Fe52'
_cell_volume   580.77883344
_cell_formula_units_Z   2
loop_
 _symmetry_equiv_pos_site_id
 _symmetry_equiv_pos_as_xyz
  1  'x, y, z'
loop_
 _atom_site_type_symbol
 _atom_site_label
 _atom_site_symmetry_multiplicity
 _atom_site_fract_x
 _atom_site_fract_y
 _atom_site_fract_z
 _atom_site_occupancy
  Fe  Fe0  1  1.00143471  1.00142798  0.00314947  1
  Fe  Fe1  1  0.16806977  0.16981272  0.16978117  1
  Fe  Fe2  1  0.00231725  0.00228982  0.33559112  1
  Fe  Fe3  1  0.00339424  0.33623460  0.00314682  1
  Fe  Fe4  1  0.16898740  0.50228956  0.16892533  1
  Fe  Fe5  1  1.00228768  0.33562193  0.33562212  1
  Fe  Fe6  1  0.00250488  0.66920200  1.00225883  1
  Fe  Fe7  1  0.16810089  0.83476586  0.16981071  1
  Fe  Fe8  1  1.00228767  0.66895524  0.33562208  1
  Cr  Cr9  1  0.33562233  0.00285648  1.00172247  1
  Fe  Fe10  1  0.50317489  0.16981272  0.16978117  1
  Fe  Fe11  1  0.33562233  0.00228987  0.33537448  1
  Fe  Fe12  1  0.33562233  0.33730778  1.00225950  1
  Fe  Fe13  1  0.50225726  0.50228956  0.16892533  1
  Fe  Fe14  1  0.33562233  0.33559232  0.33559108  1
  Fe  Fe15  1  0.33562233  0.66724493  1.00228743  1
  Fe  Fe16  1  0.50314377  0.83476586  0.16981071  1
  Fe  Fe17  1  0.33562233  0.66898479  0.33559102  1
  Fe  Fe18  1  0.66980995  1.00142798  0.00314947  1
  Fe  Fe19  1  0.83562233  0.16892503  0.16867788  1
  Fe  Fe20  1  0.66892741  0.00228982  0.33559112  1
  Fe  Fe21  1  0.66785041  0.33623460  0.00314682  1
  Fe  Fe22  1  0.83562233  0.50225984  0.16892262  1
  Fe  Fe23  1  0.66895697  0.33562193  0.33562212  1
  Fe  Fe24  1  0.66873978  0.66920200  1.00225883  1
  Fe  Fe25  1  0.83562233  0.83568207  0.16889492  1
  Fe  Fe26  1  0.66895699  0.66895524  0.33562208  1
  Fe  Fe27  1  0.16892741  0.16895484  0.50232021  1
  Fe  Fe28  1  0.00317489  1.00143194  0.66813016  1
  Fe  Fe29  1  0.16980995  0.16981668  0.83476186  1
  Fe  Fe30  1  0.16895699  0.50228942  0.50228925  1
  Fe  Fe31  1  0.00314377  0.33647880  0.66810062  1
  Fe  Fe32  1  0.16873978  0.50204266  0.83565249  1
  Fe  Fe33  1  0.16895697  0.83562273  0.50228920  1
  Fe  Fe34  1  1.00225726  0.66895510  0.66898600  1
  Fe  Fe35  1  0.16785041  0.83501006  0.83476451  1
  Fe  Fe36  1  0.50231725  0.16895484  0.50232021  1
  Fe  Fe37  1  0.33562233  0.00231963  0.66923344  1
  Fe  Fe38  1  0.50143471  0.16981668  0.83476186  1
  Fe  Fe39  1  0.50228767  0.50228942  0.50228925  1
  Fe  Fe40  1  0.33562233  0.33556258  0.66901640  1
  Fe  Fe41  1  0.50250488  0.50204266  0.83565249  1
  Fe  Fe42  1  0.50228768  0.83562273  0.50228920  1
  Fe  Fe43  1  0.33562233  0.66898482  0.66898871  1
  Fe  Fe44  1  0.50339424  0.83501006  0.83476451  1
  Fe  Fe45  1  0.83562233  0.16895479  0.50253685  1
  Fe  Fe46  1  0.66806977  1.00143194  0.66813016  1
  Cr  Cr47  1  0.83562233  0.16838818  0.83618885  1
  Fe  Fe48  1  0.83562233  0.50225987  0.50232031  1
  Fe  Fe49  1  0.66810089  0.33647880  0.66810062  1
  Fe  Fe50  1  0.83562233  0.50399973  0.83562389  1
  Fe  Fe51  1  0.83562233  0.83565233  0.50232025  1
  Fe  Fe52  1  0.66898740  0.66895510  0.66898600  1
  Fe  Fe53  1  0.83562233  0.83393688  0.83565182  1
" 