5261,Fe4Cr96_2,-222.190903326332, 116.563873710795,Fe4Cr96,"# generated using pymatgen
 data_CrFe26
_symmetry_space_group_name_H-M   'P 1'
_cell_length_a   7.43616666
_cell_length_b   7.43616666
_cell_length_c   10.51632774
_cell_angle_alpha   90.00000000
_cell_angle_beta   90.00000000
_cell_angle_gamma   90.00000000
_symmetry_Int_Tables_number   1
_chemical_formula_structural   CrFe26
_chemical_formula_sum   'Cr2 Fe52'
_cell_volume   581.51690174
_cell_formula_units_Z   2
loop_
 _symmetry_equiv_pos_site_id
 _symmetry_equiv_pos_as_xyz
  1  'x, y, z'
loop_
 _atom_site_type_symbol
 _atom_site_label
 _atom_site_symmetry_multiplicity
 _atom_site_fract_x
 _atom_site_fract_y
 _atom_site_fract_z
 _atom_site_occupancy
  Fe  Fe0  1  1.00204711  0.00207640  0.00236877  1
  Fe  Fe1  1  0.16964470  0.16961260  0.16787317  1
  Cr  Cr2  1  0.00298429  0.00207640  0.33540974  1
  Fe  Fe3  1  0.00207738  0.33538097  0.00210833  1
  Fe  Fe4  1  0.16871090  0.50207640  0.16877604  1
  Fe  Fe5  1  1.00181708  0.33695176  0.33540974  1
  Fe  Fe6  1  0.00207738  0.66877184  0.00210833  1
  Fe  Fe7  1  0.16964470  0.83454020  0.16787317  1
  Fe  Fe8  1  1.00181708  0.66720105  0.33540974  1
  Fe  Fe9  1  0.33540974  0.00207640  0.00214067  1
  Fe  Fe10  1  0.50117477  0.16961260  0.16787317  1
  Fe  Fe11  1  0.33540974  0.00207640  0.33540974  1
  Fe  Fe12  1  0.33540974  0.33541108  0.00207662  1
  Fe  Fe13  1  0.50210857  0.50207640  0.16877604  1
  Fe  Fe14  1  0.33540974  0.33489111  0.33540974  1
  Fe  Fe15  1  0.33540974  0.66874173  0.00207662  1
  Fe  Fe16  1  0.50117477  0.83454020  0.16787317  1
  Fe  Fe17  1  0.33540974  0.66926169  0.33540974  1
  Fe  Fe18  1  0.66877236  0.00207640  0.00236877  1
  Fe  Fe19  1  0.83540974  0.17054438  0.16694429  1
  Cr  Cr20  1  0.66783518  0.00207640  0.33540974  1
  Fe  Fe21  1  0.66874209  0.33538097  0.00210833  1
  Fe  Fe22  1  0.83540974  0.50207640  0.16880501  1
  Fe  Fe23  1  0.66900240  0.33695176  0.33540974  1
  Fe  Fe24  1  0.66874209  0.66877184  0.00210833  1
  Fe  Fe25  1  0.83540974  0.83360843  0.16694429  1
  Fe  Fe26  1  0.66900240  0.66720105  0.33540974  1
  Fe  Fe27  1  0.16964470  0.16961260  0.50294630  1
  Fe  Fe28  1  1.00204711  0.00207640  0.66845070  1
  Fe  Fe29  1  0.16874209  0.16874108  0.83540974  1
  Fe  Fe30  1  0.16871090  0.50207640  0.50204343  1
  Fe  Fe31  1  0.00207738  0.33538097  0.66871114  1
  Fe  Fe32  1  0.16874204  0.50207640  0.83540974  1
  Fe  Fe33  1  0.16964470  0.83454020  0.50294630  1
  Fe  Fe34  1  0.00207738  0.66877184  0.66871114  1
  Fe  Fe35  1  0.16874209  0.83541173  0.83540974  1
  Fe  Fe36  1  0.50117477  0.16961260  0.50294630  1
  Fe  Fe37  1  0.33540974  0.00207640  0.66867880  1
  Fe  Fe38  1  0.50207738  0.16874108  0.83540974  1
  Fe  Fe39  1  0.50210857  0.50207640  0.50204343  1
  Fe  Fe40  1  0.33540974  0.33541108  0.66874285  1
  Fe  Fe41  1  0.50207743  0.50207640  0.83540974  1
  Fe  Fe42  1  0.50117477  0.83454020  0.50294630  1
  Fe  Fe43  1  0.33540974  0.66874173  0.66874285  1
  Fe  Fe44  1  0.50207738  0.83541173  0.83540974  1
  Fe  Fe45  1  0.83540974  0.17054438  0.50387518  1
  Fe  Fe46  1  0.66877236  0.00207640  0.66845070  1
  Fe  Fe47  1  0.83540974  0.16874113  0.83540974  1
  Fe  Fe48  1  0.83540974  0.50207640  0.50201446  1
  Fe  Fe49  1  0.66874209  0.33538097  0.66871114  1
  Fe  Fe50  1  0.83540974  0.50207640  0.83540974  1
  Fe  Fe51  1  0.83540974  0.83360843  0.50387518  1
  Fe  Fe52  1  0.66874209  0.66877184  0.66871114  1
  Fe  Fe53  1  0.83540974  0.83541167  0.83540974  1
" 