7402,Fe4Cr96_15,-222.229426382967, 117.738141055301,Fe4Cr96,"# generated using pymatgen
 data_CrFe26
_symmetry_space_group_name_H-M   'P 1'
_cell_length_a   7.43529727
_cell_length_b   7.43529727
_cell_length_c   10.51509824
_cell_angle_alpha   90.00000000
_cell_angle_beta   90.00000000
_cell_angle_gamma   90.00000000
_symmetry_Int_Tables_number   1
_chemical_formula_structural   CrFe26
_chemical_formula_sum   'Cr2 Fe52'
_cell_volume   581.31296364
_cell_formula_units_Z   2
loop_
 _symmetry_equiv_pos_site_id
 _symmetry_equiv_pos_as_xyz
  1  'x, y, z'
loop_
 _atom_site_type_symbol
 _atom_site_label
 _atom_site_symmetry_multiplicity
 _atom_site_fract_x
 _atom_site_fract_y
 _atom_site_fract_z
 _atom_site_occupancy
  Fe  Fe0  1  0.00216536  0.00213523  1.00210195  1
  Fe  Fe1  1  0.16880259  0.16880096  0.16880178  1
  Fe  Fe2  1  0.00216536  0.00213523  0.33550160  1
  Fe  Fe3  1  0.00213511  0.33546844  1.00213355  1
  Fe  Fe4  1  0.16880271  0.50213604  0.16880178  1
  Fe  Fe5  1  0.00213511  0.33546844  0.33547000  1
  Fe  Fe6  1  1.00210485  0.66880166  1.00210195  1
  Fe  Fe7  1  0.16880258  0.83546833  0.16880178  1
  Fe  Fe8  1  1.00210485  0.66880166  0.33550160  1
  Fe  Fe9  1  0.33546804  0.00213551  1.00187676  1
  Fe  Fe10  1  0.50213522  0.16880097  0.16880178  1
  Fe  Fe11  1  0.33546804  0.00213551  0.33572679  1
  Fe  Fe12  1  0.33546833  0.33543819  1.00210195  1
  Fe  Fe13  1  0.50213499  0.50213592  0.16880178  1
  Fe  Fe14  1  0.33546833  0.33543819  0.33550160  1
  Fe  Fe15  1  0.33549830  0.66883163  1.00207069  1
  Fe  Fe16  1  0.50213511  0.83546844  0.16880178  1
  Fe  Fe17  1  0.33549830  0.66883163  0.33553286  1
  Fe  Fe18  1  0.66877192  1.00210525  1.00207069  1
  Fe  Fe19  1  0.83546751  0.16880084  0.16880178  1
  Fe  Fe20  1  0.66877192  1.00210525  0.33553286  1
  Fe  Fe21  1  0.66880189  0.33549870  1.00210195  1
  Fe  Fe22  1  0.83546762  0.50213593  0.16880178  1
  Fe  Fe23  1  0.66880189  0.33549870  0.33550160  1
  Fe  Fe24  1  0.66880218  0.66880137  1.00187676  1
  Fe  Fe25  1  0.83546763  0.83546856  0.16880178  1
  Fe  Fe26  1  0.66880218  0.66880137  0.33572679  1
  Fe  Fe27  1  0.16791611  0.16968744  0.50125192  1
  Fe  Fe28  1  1.00010931  1.00187820  0.66880178  1
  Fe  Fe29  1  0.16791611  0.16968744  0.83635163  1
  Fe  Fe30  1  0.16883360  0.50216693  0.50219732  1
  Fe  Fe31  1  0.00213511  0.33546844  0.66880178  1
  Fe  Fe32  1  0.16883360  0.50216693  0.83540624  1
  Fe  Fe33  1  0.16791627  0.83455175  0.50128213  1
  Fe  Fe34  1  0.00416091  0.66905869  0.66880178  1
  Fe  Fe35  1  0.16791627  0.83455175  0.83632142  1
  Fe  Fe36  1  0.50305180  0.16968728  0.50128213  1
  Cr  Cr37  1  0.33518314  0.00242041  0.66880178  1
  Fe  Fe38  1  0.50305180  0.16968728  0.83632142  1
  Fe  Fe39  1  0.50121841  0.50124960  0.50128213  1
  Fe  Fe40  1  0.33572535  0.33749424  0.66880178  1
  Fe  Fe41  1  0.50121841  0.50124960  0.83632142  1
  Fe  Fe42  1  0.50213511  0.83546844  0.50036829  1
  Fe  Fe43  1  0.33370142  0.66703475  0.66880178  1
  Fe  Fe44  1  0.50213511  0.83546844  0.83723526  1
  Fe  Fe45  1  0.83543662  0.16876995  0.50219732  1
  Fe  Fe46  1  0.67056880  0.00390213  0.66880178  1
  Fe  Fe47  1  0.83543662  0.16876995  0.83540624  1
  Fe  Fe48  1  0.83635410  0.50124945  0.50125192  1
  Fe  Fe49  1  0.66854487  0.33344264  0.66880178  1
  Fe  Fe50  1  0.83635410  0.50124945  0.83635163  1
  Fe  Fe51  1  0.83635395  0.83638514  0.50128213  1
  Cr  Cr52  1  0.66908708  0.66851647  0.66880178  1
  Fe  Fe53  1  0.83635395  0.83638514  0.83632142  1
" 