2004,Fe4Cr96_10,-222.227719366334, 118.020212507195,Fe4Cr96,"# generated using pymatgen
 data_CrFe26
_symmetry_space_group_name_H-M   'P 1'
_cell_length_a   7.43422822
_cell_length_b   7.43422822
_cell_length_c   10.51358638
_cell_angle_alpha   90.00000000
_cell_angle_beta   90.00000000
_cell_angle_gamma   90.00000000
_symmetry_Int_Tables_number   1
_chemical_formula_structural   CrFe26
_chemical_formula_sum   'Cr2 Fe52'
_cell_volume   581.06225555
_cell_formula_units_Z   2
loop_
 _symmetry_equiv_pos_site_id
 _symmetry_equiv_pos_as_xyz
  1  'x, y, z'
loop_
 _atom_site_type_symbol
 _atom_site_label
 _atom_site_symmetry_multiplicity
 _atom_site_fract_x
 _atom_site_fract_y
 _atom_site_fract_z
 _atom_site_occupancy
  Fe  Fe0  1  1.00133715  0.00307749  0.00333049  1
  Fe  Fe1  1  0.16974426  0.16971428  0.16797212  1
  Cr  Cr2  1  1.00220405  0.00221058  0.33554065  1
  Fe  Fe3  1  0.00223965  0.33551058  0.00220840  1
  Fe  Fe4  1  0.16884165  0.50223738  0.16887290  1
  Fe  Fe5  1  0.00220810  0.33728085  0.33554065  1
  Fe  Fe6  1  1.00133704  0.66803368  0.00310918  1
  Fe  Fe7  1  0.16974415  0.83467048  0.16775081  1
  Fe  Fe8  1  0.00220804  0.66713446  0.33554065  1
  Fe  Fe9  1  0.33638095  0.00307760  0.00310918  1
  Fe  Fe10  1  0.50220719  0.16884143  0.16890429  1
  Fe  Fe11  1  0.33728017  1.00220659  0.33554065  1
  Fe  Fe12  1  0.33550810  0.33554052  1.00217701  1
  Fe  Fe13  1  0.50220709  0.50220754  0.16887457  1
  Fe  Fe14  1  0.33528681  0.33528766  0.33554065  1
  Fe  Fe15  1  0.33641085  0.66800378  0.00307782  1
  Fe  Fe16  1  0.50217725  0.83557298  0.16887290  1
  Fe  Fe17  1  0.33528692  0.66912771  0.33554065  1
  Fe  Fe18  1  0.66890405  1.00217499  0.00220840  1
  Fe  Fe19  1  0.83467045  0.16974419  0.16800348  1
  Fe  Fe20  1  0.66713378  1.00220653  0.33554065  1
  Fe  Fe21  1  0.66887421  0.33554042  1.00220672  1
  Fe  Fe22  1  0.83557320  0.50220745  0.16890429  1
  Fe  Fe23  1  0.66912704  0.33528759  0.33554065  1
  Fe  Fe24  1  0.66887411  0.66890654  1.00217701  1
  Fe  Fe25  1  0.83470035  0.83467037  0.16797212  1
  Fe  Fe26  1  0.66912697  0.66912782  0.33554065  1
  Fe  Fe27  1  0.16974426  0.16971428  0.50310918  1
  Fe  Fe28  1  1.00133715  0.00307749  0.66775081  1
  Fe  Fe29  1  0.16887326  0.17061351  0.83554065  1
  Fe  Fe30  1  0.16884165  0.50223738  0.50220840  1
  Fe  Fe31  1  0.00223965  0.33551058  0.66887290  1
  Fe  Fe32  1  0.16887320  0.50046712  0.83554065  1
  Fe  Fe33  1  0.16974415  0.83467048  0.50333049  1
  Fe  Fe34  1  1.00133704  0.66803368  0.66797212  1
  Cr  Cr35  1  0.16887725  0.83553738  0.83554065  1
  Fe  Fe36  1  0.50220719  0.16884143  0.50217701  1
  Fe  Fe37  1  0.33638095  0.00307760  0.66797212  1
  Fe  Fe38  1  0.50195433  0.16862014  0.83554065  1
  Fe  Fe39  1  0.50220709  0.50220754  0.50220672  1
  Fe  Fe40  1  0.33550810  0.33554052  0.66890429  1
  Fe  Fe41  1  0.50195426  0.50246037  0.83554065  1
  Fe  Fe42  1  0.50217725  0.83557298  0.50220840  1
  Fe  Fe43  1  0.33641085  0.66800378  0.66800348  1
  Fe  Fe44  1  0.50394752  0.83554143  0.83554065  1
  Fe  Fe45  1  0.83467045  0.16974419  0.50307782  1
  Fe  Fe46  1  0.66890405  1.00217499  0.66887290  1
  Fe  Fe47  1  0.83579438  0.16862026  0.83554065  1
  Fe  Fe48  1  0.83557320  0.50220745  0.50217701  1
  Fe  Fe49  1  0.66887421  0.33554042  0.66887457  1
  Fe  Fe50  1  0.83579449  0.50246030  0.83554065  1
  Fe  Fe51  1  0.83470035  0.83467037  0.50310918  1
  Fe  Fe52  1  0.66887411  0.66890654  0.66890429  1
  Fe  Fe53  1  0.83380113  0.83554137  0.83554065  1
" 