4685,Fe51Cr49_6,-216.545467988959, 172.990743768829,Fe51Cr49,"# generated using pymatgen
 data_CrFe
_symmetry_space_group_name_H-M   'P 1'
_cell_length_a   7.53769544
_cell_length_b   7.53769544
_cell_length_c   10.65991113
_cell_angle_alpha   90.00000000
_cell_angle_beta   90.00000000
_cell_angle_gamma   90.00000000
_symmetry_Int_Tables_number   1
_chemical_formula_structural   CrFe
_chemical_formula_sum   'Cr27 Fe27'
_cell_volume   605.66259912
_cell_formula_units_Z   27
loop_
 _symmetry_equiv_pos_site_id
 _symmetry_equiv_pos_as_xyz
  1  'x, y, z'
loop_
 _atom_site_type_symbol
 _atom_site_label
 _atom_site_symmetry_multiplicity
 _atom_site_fract_x
 _atom_site_fract_y
 _atom_site_fract_z
 _atom_site_occupancy
  Cr  Cr0  1  0.99405447  0.99360053  0.99240254  1
  Cr  Cr1  1  0.15947266  0.16310205  0.16257607  1
  Cr  Cr2  1  0.99515600  0.99509537  0.32989790  1
  Fe  Fe3  1  0.99306894  0.32999789  0.99465688  1
  Fe  Fe4  1  0.15926957  0.49471277  0.16198146  1
  Fe  Fe5  1  0.99424450  0.33021311  0.32935858  1
  Cr  Cr6  1  0.99417858  0.66222233  0.99524567  1
  Cr  Cr7  1  0.16195421  0.82811092  0.15967327  1
  Fe  Fe8  1  0.99402842  0.66026341  0.32738792  1
  Fe  Fe9  1  0.32941474  0.99332346  0.99498445  1
  Cr  Cr10  1  0.49794120  0.16040616  0.15901842  1
  Cr  Cr11  1  0.32958371  -0.00435262  0.33012393  1
  Cr  Cr12  1  0.32840131  0.32818012  -0.00348457  1
  Cr  Cr13  1  0.49591210  0.49644962  0.16053504  1
  Cr  Cr14  1  0.32741065  0.32734925  0.33014061  1
  Fe  Fe15  1  0.32828945  0.66361313  -0.00426312  1
  Fe  Fe16  1  0.49736822  0.83029332  0.16114815  1
  Cr  Cr17  1  0.32964307  0.66287823  0.32618277  1
  Fe  Fe18  1  0.66196887  0.99512155  0.99368442  1
  Cr  Cr19  1  0.82837172  0.16155479  0.16092825  1
  Fe  Fe20  1  0.66084254  0.99427831  0.32895414  1
  Fe  Fe21  1  0.66509123  0.32821751  0.99352266  1
  Fe  Fe22  1  0.83042414  0.49504733  0.16309890  1
  Cr  Cr23  1  0.66237383  0.32956226  0.33202256  1
  Cr  Cr24  1  0.66398429  0.66299146  -0.00331031  1
  Fe  Fe25  1  0.82656911  0.82841847  0.16358701  1
  Fe  Fe26  1  0.66330370  0.66377947  0.32780600  1
  Fe  Fe27  1  0.16045654  0.16072031  0.49604908  1
  Fe  Fe28  1  0.99443389  0.99521469  0.66301874  1
  Cr  Cr29  1  0.16073585  0.16004078  0.82839629  1
  Cr  Cr30  1  0.16080901  0.49657722  0.49404858  1
  Cr  Cr31  1  0.99398963  0.32810312  0.66080658  1
  Cr  Cr32  1  0.16287574  0.49749730  0.82869827  1
  Cr  Cr33  1  0.16147666  0.82887395  0.50149088  1
  Fe  Fe34  1  0.99441600  0.66259587  0.66363560  1
  Fe  Fe35  1  0.16205108  0.82829551  0.82693538  1
  Fe  Fe36  1  0.49616403  0.15927815  0.49550307  1
  Fe  Fe37  1  0.32915242  -0.00461161  0.66183971  1
  Fe  Fe38  1  0.49559172  0.16095427  0.83027747  1
  Cr  Cr39  1  0.49628969  0.49750645  0.49735817  1
  Cr  Cr40  1  0.32936449  0.32585062  0.65882818  1
  Cr  Cr41  1  0.49569647  0.49504704  0.82866850  1
  Fe  Fe42  1  0.49507114  0.82923931  0.49555486  1
  Fe  Fe43  1  0.32853692  0.66325226  0.66247259  1
  Cr  Cr44  1  0.49364831  0.82837222  0.82922951  1
  Fe  Fe45  1  0.82938453  0.16268549  0.49507592  1
  Cr  Cr46  1  0.66259257  -0.00403202  0.66148981  1
  Fe  Fe47  1  0.82679368  0.16230238  0.82990661  1
  Fe  Fe48  1  0.83027595  0.49612374  0.49451080  1
  Cr  Cr49  1  0.66246153  0.32809314  0.66400153  1
  Fe  Fe50  1  0.82946414  0.49484508  0.82938331  1
  Cr  Cr51  1  0.82841648  0.82904594  0.49339595  1
  Cr  Cr52  1  0.66475952  0.66195214  0.66118283  1
  Fe  Fe53  1  0.82971049  0.82868614  0.82732186  1
" 