1488,Fe51Cr49_4,-216.278532184968, 174.276288603556,Fe51Cr49,"# generated using pymatgen
 data_CrFe
_symmetry_space_group_name_H-M   'P 1'
_cell_length_a   7.53826071
_cell_length_b   7.53826071
_cell_length_c   10.66071054
_cell_angle_alpha   90.00000000
_cell_angle_beta   90.00000000
_cell_angle_gamma   90.00000000
_symmetry_Int_Tables_number   1
_chemical_formula_structural   CrFe
_chemical_formula_sum   'Cr27 Fe27'
_cell_volume   605.79886961
_cell_formula_units_Z   27
loop_
 _symmetry_equiv_pos_site_id
 _symmetry_equiv_pos_as_xyz
  1  'x, y, z'
loop_
 _atom_site_type_symbol
 _atom_site_label
 _atom_site_symmetry_multiplicity
 _atom_site_fract_x
 _atom_site_fract_y
 _atom_site_fract_z
 _atom_site_occupancy
  Cr  Cr0  1  0.99478557  -0.00317004  0.99327239  1
  Cr  Cr1  1  0.16185665  0.16392029  0.16244020  1
  Cr  Cr2  1  0.99481802  0.99451319  0.32992923  1
  Fe  Fe3  1  0.99492092  0.33009272  0.99502841  1
  Fe  Fe4  1  0.15935484  0.49485878  0.16193450  1
  Fe  Fe5  1  -0.00374465  0.33096799  0.32819064  1
  Fe  Fe6  1  -0.00364079  0.65990789  -0.00449934  1
  Cr  Cr7  1  0.16204558  0.82722607  0.16023640  1
  Fe  Fe8  1  -0.00387356  0.66068415  0.32764507  1
  Fe  Fe9  1  0.32816283  0.99418319  -0.00471486  1
  Cr  Cr10  1  0.49351776  0.16153746  0.16346761  1
  Cr  Cr11  1  0.32705241  0.99507072  0.33096381  1
  Cr  Cr12  1  0.32522329  0.33219966  0.99289378  1
  Cr  Cr13  1  0.49460080  0.49359880  0.16237973  1
  Fe  Fe14  1  0.32802127  0.32895531  0.33118571  1
  Fe  Fe15  1  0.32607297  0.66325314  -0.00464720  1
  Fe  Fe16  1  0.49313276  0.82880020  0.16129463  1
  Cr  Cr17  1  0.32775179  0.65869322  0.32912674  1
  Cr  Cr18  1  0.66474178  0.99411849  -0.00151821  1
  Fe  Fe19  1  0.83033502  0.16493347  0.16291173  1
  Cr  Cr20  1  0.66410020  0.99401056  0.32518758  1
  Cr  Cr21  1  0.66422021  0.32852536  0.99457277  1
  Fe  Fe22  1  0.83316241  0.49384325  0.16269907  1
  Fe  Fe23  1  0.66173674  0.32864674  0.32872781  1
  Cr  Cr24  1  0.66070892  0.66276710  -0.00098943  1
  Fe  Fe25  1  0.83048084  0.82724605  0.16193215  1
  Cr  Cr26  1  0.66183922  0.66167066  0.32563055  1
  Fe  Fe27  1  0.16280815  0.16285335  0.49474111  1
  Cr  Cr28  1  -0.00248034  0.99488748  0.66190248  1
  Fe  Fe29  1  0.16204094  0.16097510  0.82938449  1
  Fe  Fe30  1  0.16137380  0.49609103  0.49476417  1
  Cr  Cr31  1  -0.00200555  0.32675824  0.66645189  1
  Fe  Fe32  1  0.16216772  0.49861360  0.82904319  1
  Fe  Fe33  1  0.16168178  0.82666108  0.49642864  1
  Fe  Fe34  1  -0.00031590  0.66020617  0.66169196  1
  Fe  Fe35  1  0.16315985  0.82673424  0.82890413  1
  Fe  Fe36  1  0.49490813  0.16303473  0.49466502  1
  Fe  Fe37  1  0.32683202  -0.00400292  0.66109050  1
  Cr  Cr38  1  0.49303646  0.15938999  0.82797291  1
  Fe  Fe39  1  0.49529947  0.49481139  0.49464169  1
  Cr  Cr40  1  0.32747387  0.33094803  0.65820780  1
  Cr  Cr41  1  0.49482479  0.49763770  0.82656392  1
  Cr  Cr42  1  0.49451243  0.82991474  0.49914168  1
  Fe  Fe43  1  0.32531994  0.66250941  0.66109300  1
  Cr  Cr44  1  0.49225676  0.82942761  0.82930960  1
  Cr  Cr45  1  0.82803669  0.16363005  0.49484131  1
  Fe  Fe46  1  0.66096473  -0.00362667  0.66185949  1
  Fe  Fe47  1  0.82863079  0.16105491  0.82851151  1
  Cr  Cr48  1  0.83031897  0.49634105  0.49496476  1
  Cr  Cr49  1  0.66055538  0.32940622  0.66230513  1
  Cr  Cr50  1  0.83168929  0.49597641  0.82830898  1
  Cr  Cr51  1  0.83035697  0.82565326  0.49785009  1
  Fe  Fe52  1  0.66097339  0.66175594  0.66138364  1
  Cr  Cr53  1  0.82912971  0.82623748  0.82362945  1
" 