7825,Fe51Cr49_2,-216.154702379251, 170.720443909273,Fe51Cr49,"# generated using pymatgen
 data_CrFe
_symmetry_space_group_name_H-M   'P 1'
_cell_length_a   7.53857053
_cell_length_b   7.53857053
_cell_length_c   10.66114868
_cell_angle_alpha   90.00000000
_cell_angle_beta   90.00000000
_cell_angle_gamma   90.00000000
_symmetry_Int_Tables_number   1
_chemical_formula_structural   CrFe
_chemical_formula_sum   'Cr27 Fe27'
_cell_volume   605.87356589
_cell_formula_units_Z   27
loop_
 _symmetry_equiv_pos_site_id
 _symmetry_equiv_pos_as_xyz
  1  'x, y, z'
loop_
 _atom_site_type_symbol
 _atom_site_label
 _atom_site_symmetry_multiplicity
 _atom_site_fract_x
 _atom_site_fract_y
 _atom_site_fract_z
 _atom_site_occupancy
  Fe  Fe0  1  0.99476899  0.99457643  0.99511962  1
  Fe  Fe1  1  0.16164287  0.16126346  0.16097403  1
  Fe  Fe2  1  -0.00235699  -0.00471086  0.32772534  1
  Fe  Fe3  1  0.99512130  0.32737504  -0.00433063  1
  Cr  Cr4  1  0.16288002  0.49818673  0.15836635  1
  Cr  Cr5  1  -0.00310206  0.32830433  0.32881350  1
  Fe  Fe6  1  0.99420543  0.66383394  -0.00326252  1
  Fe  Fe7  1  0.16131168  0.83174021  0.16165626  1
  Cr  Cr8  1  0.99289803  0.66229226  0.32799014  1
  Cr  Cr9  1  0.32621676  -0.00200373  0.99413660  1
  Cr  Cr10  1  0.49657715  0.16056615  0.16185416  1
  Fe  Fe11  1  0.32731894  0.99314822  0.32853350  1
  Fe  Fe12  1  0.32865066  0.32933755  -0.00357982  1
  Fe  Fe13  1  0.49505155  0.49584365  0.16156664  1
  Cr  Cr14  1  0.32674164  0.32624978  0.32854170  1
  Fe  Fe15  1  0.32914383  0.66389606  -0.00270036  1
  Fe  Fe16  1  0.49371072  0.82787997  0.16241370  1
  Fe  Fe17  1  0.32810698  0.66266004  0.32795156  1
  Cr  Cr18  1  0.66423456  0.99193847  0.99199700  1
  Cr  Cr19  1  0.82929836  0.15886503  0.16196460  1
  Fe  Fe20  1  0.66082361  0.99360692  0.32784294  1
  Fe  Fe21  1  0.66407013  0.32788431  -0.00328109  1
  Fe  Fe22  1  0.82904047  0.49455386  0.16081364  1
  Cr  Cr23  1  0.66229045  0.33218101  0.32747085  1
  Cr  Cr24  1  0.66352125  0.66027869  -0.00149621  1
  Fe  Fe25  1  0.82879733  0.82836631  0.16307645  1
  Fe  Fe26  1  0.65998131  0.66394285  0.32664227  1
  Fe  Fe27  1  0.15994379  0.16048000  0.49427570  1
  Cr  Cr28  1  -0.00400006  -0.00392787  0.66501037  1
  Fe  Fe29  1  0.16128900  0.16421650  0.83021297  1
  Cr  Cr30  1  0.16056852  0.49816534  0.49900123  1
  Fe  Fe31  1  0.99480979  0.32627770  0.66223589  1
  Cr  Cr32  1  0.16127476  0.49749771  0.82887574  1
  Fe  Fe33  1  0.16226604  0.83075833  0.49341114  1
  Fe  Fe34  1  -0.00420597  0.66447742  0.66194645  1
  Cr  Cr35  1  0.16028718  0.82721866  0.82989283  1
  Fe  Fe36  1  0.49520921  0.15959354  0.49336792  1
  Cr  Cr37  1  0.32794385  -0.00297074  0.65908586  1
  Cr  Cr38  1  0.49840465  0.16363067  0.82859051  1
  Cr  Cr39  1  0.49475974  0.49512500  0.49465001  1
  Cr  Cr40  1  0.32680173  0.32614003  0.66119427  1
  Cr  Cr41  1  0.49406057  0.49370943  0.83168838  1
  Fe  Fe42  1  0.49571054  0.82973823  0.49266984  1
  Cr  Cr43  1  0.32948923  0.66361148  0.66091848  1
  Cr  Cr44  1  0.49326564  0.82834329  0.82856237  1
  Cr  Cr45  1  0.82593659  0.16084145  0.49499780  1
  Cr  Cr46  1  0.66246554  0.99393175  0.66512615  1
  Fe  Fe47  1  0.83207169  0.16252716  0.83031785  1
  Cr  Cr48  1  0.82964196  0.49455339  0.49773575  1
  Fe  Fe49  1  0.66123352  0.32678054  0.66162773  1
  Cr  Cr50  1  0.83076961  0.49271258  0.82564169  1
  Cr  Cr51  1  0.82941119  0.83042990  0.49428754  1
  Cr  Cr52  1  0.66339958  0.66202647  0.66206851  1
  Fe  Fe53  1  0.83008202  0.82589020  0.82964167  1
" 