2808,Fe51Cr49_7,-216.451676027589, 175.812114501117,Fe51Cr49,"# generated using pymatgen
 data_CrFe
_symmetry_space_group_name_H-M   'P 1'
_cell_length_a   7.54002994
_cell_length_b   7.54002994
_cell_length_c   10.66321261
_cell_angle_alpha   90.00000000
_cell_angle_beta   90.00000000
_cell_angle_gamma   90.00000000
_symmetry_Int_Tables_number   1
_chemical_formula_structural   CrFe
_chemical_formula_sum   'Cr27 Fe27'
_cell_volume   606.22551283
_cell_formula_units_Z   27
loop_
 _symmetry_equiv_pos_site_id
 _symmetry_equiv_pos_as_xyz
  1  'x, y, z'
loop_
 _atom_site_type_symbol
 _atom_site_label
 _atom_site_symmetry_multiplicity
 _atom_site_fract_x
 _atom_site_fract_y
 _atom_site_fract_z
 _atom_site_occupancy
  Fe  Fe0  1  -0.00265328  -0.00241978  -0.00349713  1
  Fe  Fe1  1  0.16285538  0.16344779  0.16037920  1
  Cr  Cr2  1  -0.00394161  0.99255233  0.32680615  1
  Fe  Fe3  1  -0.00392390  0.32972235  -0.00452408  1
  Fe  Fe4  1  0.16104219  0.49249826  0.15996230  1
  Fe  Fe5  1  -0.00095348  0.33001800  0.32781933  1
  Cr  Cr6  1  0.99275183  0.66463829  -0.00381661  1
  Fe  Fe7  1  0.16302202  0.82953172  0.15912192  1
  Cr  Cr8  1  -0.00458515  0.66263156  0.32901386  1
  Fe  Fe9  1  0.32741723  0.99416442  -0.00307469  1
  Cr  Cr10  1  0.49607348  0.16055463  0.16319608  1
  Cr  Cr11  1  0.32649498  -0.00425150  0.32840422  1
  Cr  Cr12  1  0.33029977  0.32677676  0.99220181  1
  Fe  Fe13  1  0.49365035  0.49420754  0.15926578  1
  Fe  Fe14  1  0.32562019  0.32892563  0.32872593  1
  Fe  Fe15  1  0.32953301  0.66049791  -0.00185624  1
  Fe  Fe16  1  0.49373764  0.82754732  0.15964645  1
  Cr  Cr17  1  0.32783287  0.65998729  0.32516160  1
  Cr  Cr18  1  0.66357602  -0.00457864  -0.00370261  1
  Cr  Cr19  1  0.83064873  0.16574516  0.16449904  1
  Fe  Fe20  1  0.66157163  0.99262692  0.32643606  1
  Cr  Cr21  1  0.66198436  0.33278572  0.99194145  1
  Fe  Fe22  1  0.82985785  0.49516007  0.16069477  1
  Cr  Cr23  1  0.65874475  0.33091043  0.32792385  1
  Fe  Fe24  1  0.66033205  0.66229184  -0.00273938  1
  Fe  Fe25  1  0.82817202  0.82990664  0.16074404  1
  Cr  Cr26  1  0.66317465  0.66135926  0.32324321  1
  Fe  Fe27  1  0.15999433  0.16178878  0.49395800  1
  Cr  Cr28  1  0.99479302  0.99268593  0.66446913  1
  Fe  Fe29  1  0.16236791  0.16107080  0.83053785  1
  Fe  Fe30  1  0.16309355  0.49150811  0.49399054  1
  Cr  Cr31  1  -0.00441121  0.32645486  0.66262505  1
  Cr  Cr32  1  0.16152020  0.49493553  0.82777249  1
  Cr  Cr33  1  0.16240086  0.82392123  0.49861727  1
  Fe  Fe34  1  0.99340158  0.65988670  0.66396915  1
  Cr  Cr35  1  0.16435496  0.82653674  0.83030951  1
  Fe  Fe36  1  0.49512725  0.16224725  0.49350238  1
  Cr  Cr37  1  0.32794105  -0.00200109  0.66285631  1
  Fe  Fe38  1  0.49370632  0.16006784  0.82991054  1
  Fe  Fe39  1  0.49688435  0.49614766  0.49355909  1
  Cr  Cr40  1  0.33102162  0.32711439  0.65923347  1
  Fe  Fe41  1  0.49434934  0.49809923  0.82870188  1
  Cr  Cr42  1  0.49623471  0.82981158  0.49413068  1
  Cr  Cr43  1  0.32953112  0.65938877  0.65948628  1
  Cr  Cr44  1  0.49472868  0.82751487  0.83049500  1
  Cr  Cr45  1  0.82583769  0.16167114  0.49126682  1
  Fe  Fe46  1  0.66033504  -0.00272774  0.66415431  1
  Cr  Cr47  1  0.82942606  0.16357015  0.83098622  1
  Cr  Cr48  1  0.83114864  0.49399190  0.49694208  1
  Cr  Cr49  1  0.65925301  0.32953724  0.66561431  1
  Fe  Fe50  1  0.82790388  0.50015896  0.82832620  1
  Cr  Cr51  1  0.82571649  0.82911375  0.49906212  1
  Fe  Fe52  1  0.66194939  0.66185315  0.66370938  1
  Fe  Fe53  1  0.82771306  0.82707282  0.82849614  1
" 