5195,Fe51Cr49_13,-216.397607617787, 173.195631280658,Fe51Cr49,"# generated using pymatgen
 data_CrFe
_symmetry_space_group_name_H-M   'P 1'
_cell_length_a   7.53204791
_cell_length_b   7.53204791
_cell_length_c   10.65192431
_cell_angle_alpha   90.00000000
_cell_angle_beta   90.00000000
_cell_angle_gamma   90.00000000
_symmetry_Int_Tables_number   1
_chemical_formula_structural   CrFe
_chemical_formula_sum   'Cr27 Fe27'
_cell_volume   604.30226167
_cell_formula_units_Z   27
loop_
 _symmetry_equiv_pos_site_id
 _symmetry_equiv_pos_as_xyz
  1  'x, y, z'
loop_
 _atom_site_type_symbol
 _atom_site_label
 _atom_site_symmetry_multiplicity
 _atom_site_fract_x
 _atom_site_fract_y
 _atom_site_fract_z
 _atom_site_occupancy
  Fe  Fe0  1  0.99329771  -0.00358153  -0.00325962  1
  Cr  Cr1  1  0.16454172  0.16266376  0.15963969  1
  Cr  Cr2  1  0.99536548  0.99334414  0.32605010  1
  Fe  Fe3  1  0.99515982  0.32822483  0.99489330  1
  Cr  Cr4  1  0.16218637  0.49576994  0.16107884  1
  Cr  Cr5  1  0.99300151  0.33039647  0.32737399  1
  Cr  Cr6  1  -0.00231682  0.66342685  -0.00124169  1
  Fe  Fe7  1  0.16369942  0.82944387  0.16058114  1
  Fe  Fe8  1  -0.00430372  0.66225254  0.32836909  1
  Fe  Fe9  1  0.32993802  0.99261592  -0.00361688  1
  Cr  Cr10  1  0.49508360  0.16099829  0.16561631  1
  Cr  Cr11  1  0.32892885  0.98990639  0.33068492  1
  Fe  Fe12  1  0.32844762  0.33091826  0.99418285  1
  Cr  Cr13  1  0.49580321  0.49568341  0.15983698  1
  Cr  Cr14  1  0.32863782  0.33213149  0.33201801  1
  Fe  Fe15  1  0.33120042  0.66371454  0.99428264  1
  Fe  Fe16  1  0.49587109  0.82926249  0.16004131  1
  Cr  Cr17  1  0.32677418  0.66524106  0.32944367  1
  Fe  Fe18  1  0.66322928  0.99319918  -0.00399030  1
  Fe  Fe19  1  0.82871956  0.16124021  0.16078529  1
  Fe  Fe20  1  0.66314126  0.99317623  0.32814879  1
  Cr  Cr21  1  0.66572041  0.32740823  0.99404015  1
  Fe  Fe22  1  0.82863452  0.49617083  0.16121930  1
  Cr  Cr23  1  0.66533918  0.32889394  0.33087282  1
  Fe  Fe24  1  0.66137490  0.66482901  -0.00379410  1
  Fe  Fe25  1  0.82758580  0.82948919  0.16134338  1
  Cr  Cr26  1  0.66198989  0.66279877  0.32810834  1
  Cr  Cr27  1  0.16410628  0.16106241  0.49758230  1
  Fe  Fe28  1  -0.00258399  0.99473208  0.66205216  1
  Cr  Cr29  1  0.16309342  0.16233052  0.83044103  1
  Fe  Fe30  1  0.15943571  0.49855320  0.49594319  1
  Cr  Cr31  1  0.99441061  0.32877158  0.66492711  1
  Fe  Fe32  1  0.16342685  0.49657528  0.83115144  1
  Fe  Fe33  1  0.16146560  0.82812000  0.49776464  1
  Fe  Fe34  1  -0.00346499  0.66132641  0.66115608  1
  Cr  Cr35  1  0.16048508  0.83028503  0.82747858  1
  Cr  Cr36  1  0.49432204  0.16171009  0.49303207  1
  Fe  Fe37  1  0.32914168  0.99463192  0.66159475  1
  Cr  Cr38  1  0.49282937  0.16239135  0.82946264  1
  Fe  Fe39  1  0.49715176  0.49877645  0.49628899  1
  Cr  Cr40  1  0.32948516  0.33302379  0.66202270  1
  Fe  Fe41  1  0.49425994  0.49884621  0.83092328  1
  Fe  Fe42  1  0.49622302  0.82865055  0.49698938  1
  Cr  Cr43  1  0.32958896  0.66476911  0.66247756  1
  Fe  Fe44  1  0.49539535  0.82756236  0.83074621  1
  Cr  Cr45  1  0.82884219  0.15941468  0.49632634  1
  Cr  Cr46  1  0.66156332  0.99535777  0.66367691  1
  Fe  Fe47  1  0.83033253  0.16052840  0.83032462  1
  Fe  Fe48  1  0.83023734  0.49697748  0.49681830  1
  Cr  Cr49  1  0.66295249  0.33007528  0.66154005  1
  Cr  Cr50  1  0.82805850  0.50067131  0.82775833  1
  Cr  Cr51  1  0.83072729  0.82381719  0.49803229  1
  Fe  Fe52  1  0.66041478  0.66105699  0.66115009  1
  Cr  Cr53  1  0.82804315  0.82735880  0.82662521  1
" 