6652,Fe51Cr49_19,-216.400594209197, 178.626341096941,Fe51Cr49,"# generated using pymatgen
 data_CrFe
_symmetry_space_group_name_H-M   'P 1'
_cell_length_a   7.53843212
_cell_length_b   7.53843212
_cell_length_c   10.66095295
_cell_angle_alpha   90.00000000
_cell_angle_beta   90.00000000
_cell_angle_gamma   90.00000000
_symmetry_Int_Tables_number   1
_chemical_formula_structural   CrFe
_chemical_formula_sum   'Cr27 Fe27'
_cell_volume   605.84019534
_cell_formula_units_Z   27
loop_
 _symmetry_equiv_pos_site_id
 _symmetry_equiv_pos_as_xyz
  1  'x, y, z'
loop_
 _atom_site_type_symbol
 _atom_site_label
 _atom_site_symmetry_multiplicity
 _atom_site_fract_x
 _atom_site_fract_y
 _atom_site_fract_z
 _atom_site_occupancy
  Cr  Cr0  1  0.99267231  -0.00282672  -0.00419480  1
  Cr  Cr1  1  0.16232753  0.16121195  0.16272997  1
  Fe  Fe2  1  0.99491657  0.99514447  0.32913195  1
  Fe  Fe3  1  0.99376278  0.32809821  -0.00429899  1
  Cr  Cr4  1  0.16229356  0.49526190  0.16081097  1
  Cr  Cr5  1  -0.00424199  0.32839743  0.32664699  1
  Cr  Cr6  1  -0.00459074  0.66077450  -0.00414450  1
  Cr  Cr7  1  0.16215860  0.82925504  0.16251642  1
  Fe  Fe8  1  0.99486565  0.66178130  0.32920245  1
  Fe  Fe9  1  0.33000226  -0.00451942  0.99439515  1
  Cr  Cr10  1  0.49579338  0.16314150  0.16075169  1
  Cr  Cr11  1  0.32906238  -0.00400802  0.33140086  1
  Fe  Fe12  1  0.32901049  0.32851388  0.99511540  1
  Fe  Fe13  1  0.49599706  0.49540721  0.15990526  1
  Cr  Cr14  1  0.32868935  0.33007778  0.33176693  1
  Fe  Fe15  1  0.33013844  0.66181852  0.99500112  1
  Cr  Cr16  1  0.49495241  0.82832615  0.15895847  1
  Cr  Cr17  1  0.32882806  0.65982813  0.32864202  1
  Fe  Fe18  1  0.66157234  -0.00417749  0.99412338  1
  Fe  Fe19  1  0.82853689  0.16270874  0.16107625  1
  Cr  Cr20  1  0.66371129  0.99512378  0.32880151  1
  Fe  Fe21  1  0.66315595  0.32810439  -0.00417276  1
  Fe  Fe22  1  0.82737578  0.49433117  0.16092093  1
  Cr  Cr23  1  0.66114345  0.32869314  0.32756938  1
  Fe  Fe24  1  0.66166165  0.66175773  -0.00429233  1
  Cr  Cr25  1  0.82889965  0.82811838  0.16567325  1
  Cr  Cr26  1  0.66172295  0.66210685  0.32945208  1
  Fe  Fe27  1  0.16110886  0.16205872  0.49620448  1
  Fe  Fe28  1  -0.00389060  -0.00422621  0.66159945  1
  Cr  Cr29  1  0.16280993  0.16142728  0.82772681  1
  Fe  Fe30  1  0.16053427  0.49511905  0.49573153  1
  Fe  Fe31  1  0.99492714  0.32787195  0.66138430  1
  Cr  Cr32  1  0.16089715  0.49451164  0.82843369  1
  Cr  Cr33  1  0.16010478  0.82986680  0.49424736  1
  Fe  Fe34  1  0.99495414  0.66225510  0.66123964  1
  Cr  Cr35  1  0.16378808  0.82986260  0.82940853  1
  Fe  Fe36  1  0.49509831  0.16162776  0.49612986  1
  Fe  Fe37  1  0.32918328  -0.00445818  0.66112984  1
  Fe  Fe38  1  0.49604355  0.16130815  0.82953502  1
  Fe  Fe39  1  0.49578743  0.49549126  0.49628785  1
  Cr  Cr40  1  0.32814472  0.32828901  0.65814818  1
  Cr  Cr41  1  0.49735335  0.49478147  0.83025631  1
  Fe  Fe42  1  0.49646207  0.82852473  0.49620342  1
  Cr  Cr43  1  0.32909986  0.66180351  0.66181919  1
  Fe  Fe44  1  0.49516571  0.82926311  0.82975687  1
  Cr  Cr45  1  0.82881976  0.16195037  0.49559107  1
  Cr  Cr46  1  0.66154052  0.99500716  0.66292018  1
  Fe  Fe47  1  0.82782646  0.16295574  0.82835712  1
  Cr  Cr48  1  0.82770259  0.49674864  0.49795947  1
  Fe  Fe49  1  0.66127610  0.32835798  0.66181329  1
  Cr  Cr50  1  0.82748814  0.49362697  0.82647836  1
  Fe  Fe51  1  0.82898138  0.82840136  0.49597864  1
  Fe  Fe52  1  0.66117326  0.66188231  0.66089058  1
  Cr  Cr53  1  0.82752762  0.82756712  0.82560581  1
" 