8647,Fe51Cr49_1,-216.446971796733, 174.735355738169,Fe51Cr49,"# generated using pymatgen
 data_CrFe
_symmetry_space_group_name_H-M   'P 1'
_cell_length_a   7.53768924
_cell_length_b   7.53768924
_cell_length_c   10.65990235
_cell_angle_alpha   90.00000000
_cell_angle_beta   90.00000000
_cell_angle_gamma   90.00000000
_symmetry_Int_Tables_number   1
_chemical_formula_structural   CrFe
_chemical_formula_sum   'Cr27 Fe27'
_cell_volume   605.66110417
_cell_formula_units_Z   27
loop_
 _symmetry_equiv_pos_site_id
 _symmetry_equiv_pos_as_xyz
  1  'x, y, z'
loop_
 _atom_site_type_symbol
 _atom_site_label
 _atom_site_symmetry_multiplicity
 _atom_site_fract_x
 _atom_site_fract_y
 _atom_site_fract_z
 _atom_site_occupancy
  Fe  Fe0  1  -0.00468099  0.99509493  0.99469229  1
  Fe  Fe1  1  0.15987475  0.16302888  0.16137036  1
  Cr  Cr2  1  -0.00418909  -0.00120522  0.33035404  1
  Cr  Cr3  1  0.99357030  0.33078270  -0.00218280  1
  Cr  Cr4  1  0.16319720  0.49648434  0.15889084  1
  Fe  Fe5  1  0.99389887  0.32868753  0.32846458  1
  Fe  Fe6  1  -0.00441833  0.66450797  0.99309747  1
  Cr  Cr7  1  0.16169412  0.82909526  0.16084839  1
  Cr  Cr8  1  0.99216337  0.65690430  0.33019766  1
  Cr  Cr9  1  0.33175319  -0.00405277  -0.00156009  1
  Fe  Fe10  1  0.49749250  0.16577633  0.16209948  1
  Cr  Cr11  1  0.33068166  -0.00261897  0.32477303  1
  Cr  Cr12  1  0.32911590  0.32704845  0.99319125  1
  Fe  Fe13  1  0.49714415  0.49412512  0.16217252  1
  Cr  Cr14  1  0.32666401  0.32772223  0.33048139  1
  Cr  Cr15  1  0.32936569  0.66280616  0.99203232  1
  Fe  Fe16  1  0.49640350  0.82612026  0.16230256  1
  Cr  Cr17  1  0.33113289  0.66085821  0.32885262  1
  Cr  Cr18  1  0.66083101  -0.00374874  0.99379949  1
  Fe  Fe19  1  0.82824100  0.16381559  0.16206358  1
  Cr  Cr20  1  0.66043519  0.99444674  0.32702728  1
  Fe  Fe21  1  0.65994439  0.32801694  -0.00262054  1
  Fe  Fe22  1  0.82671736  0.49355912  0.16259802  1
  Fe  Fe23  1  0.66243537  0.33052743  0.32805193  1
  Cr  Cr24  1  0.66333009  0.66275939  -0.00271367  1
  Cr  Cr25  1  0.83067000  0.82905909  0.16188297  1
  Fe  Fe26  1  0.66180279  0.65848858  0.32745879  1
  Fe  Fe27  1  0.16305762  0.16225409  0.49640844  1
  Fe  Fe28  1  -0.00400586  0.99463633  0.66250244  1
  Cr  Cr29  1  0.16146367  0.16104384  0.82816228  1
  Fe  Fe30  1  0.16356289  0.49497758  0.49564092  1
  Cr  Cr31  1  -0.00372640  0.33066252  0.65753844  1
  Fe  Fe32  1  0.16090204  0.49504215  0.82847222  1
  Cr  Cr33  1  0.16207192  0.82865879  0.49441114  1
  Cr  Cr34  1  0.99377817  0.65974836  0.66474654  1
  Fe  Fe35  1  0.16141794  0.82861399  0.82879104  1
  Cr  Cr36  1  0.49685337  0.16478193  0.49907807  1
  Cr  Cr37  1  0.33147598  -0.00445880  0.66223153  1
  Fe  Fe38  1  0.49617770  0.16208713  0.82632614  1
  Fe  Fe39  1  0.49732619  0.49516545  0.49741666  1
  Fe  Fe40  1  0.32774252  0.33124491  0.66147645  1
  Cr  Cr41  1  0.49411481  0.49309428  0.82643618  1
  Cr  Cr42  1  0.49613965  0.82559600  0.49384931  1
  Fe  Fe43  1  0.32787755  0.66062991  0.66215366  1
  Fe  Fe44  1  0.49681824  0.82853144  0.82657634  1
  Cr  Cr45  1  0.82843105  0.16291955  0.49626772  1
  Fe  Fe46  1  0.66328027  0.99363414  0.66403026  1
  Cr  Cr47  1  0.82702145  0.16124980  0.82776377  1
  Fe  Fe48  1  0.82414508  0.49542157  0.49533904  1
  Fe  Fe49  1  0.66222114  0.33037456  0.66226906  1
  Cr  Cr50  1  0.82615137  0.49424959  0.83231716  1
  Cr  Cr51  1  0.82783985  0.82841756  0.49776984  1
  Fe  Fe52  1  0.66068899  0.66144132  0.66306079  1
  Fe  Fe53  1  0.82886364  0.82885386  0.82830053  1
" 