500,Fe51Cr49_3,-216.48319926466, 175.5433672875,Fe51Cr49,"# generated using pymatgen
 data_CrFe
_symmetry_space_group_name_H-M   'P 1'
_cell_length_a   7.52980646
_cell_length_b   7.52980646
_cell_length_c   10.64875442
_cell_angle_alpha   90.00000000
_cell_angle_beta   90.00000000
_cell_angle_gamma   90.00000000
_symmetry_Int_Tables_number   1
_chemical_formula_structural   CrFe
_chemical_formula_sum   'Cr27 Fe27'
_cell_volume   603.76292160
_cell_formula_units_Z   27
loop_
 _symmetry_equiv_pos_site_id
 _symmetry_equiv_pos_as_xyz
  1  'x, y, z'
loop_
 _atom_site_type_symbol
 _atom_site_label
 _atom_site_symmetry_multiplicity
 _atom_site_fract_x
 _atom_site_fract_y
 _atom_site_fract_z
 _atom_site_occupancy
  Fe  Fe0  1  0.99392142  -0.00179979  -0.00210639  1
  Fe  Fe1  1  0.16271096  0.16574599  0.16214886  1
  Cr  Cr2  1  -0.00402748  -0.00273485  0.32635099  1
  Cr  Cr3  1  0.99476899  0.32932229  0.99380914  1
  Fe  Fe4  1  0.16366294  0.49249494  0.16377764  1
  Fe  Fe5  1  -0.00223568  0.33133241  0.32875573  1
  Cr  Cr6  1  0.99422435  0.66024355  -0.00010286  1
  Cr  Cr7  1  0.15866144  0.83036889  0.15976580  1
  Fe  Fe8  1  -0.00304956  0.66024535  0.32914147  1
  Cr  Cr9  1  0.33135587  -0.00274252  0.99553182  1
  Fe  Fe10  1  0.49609716  0.16479297  0.16430480  1
  Cr  Cr11  1  0.33153201  -0.00391490  0.33056695  1
  Fe  Fe12  1  0.32985629  0.32804809  -0.00183600  1
  Fe  Fe13  1  0.49416445  0.49421976  0.16268241  1
  Fe  Fe14  1  0.32708725  0.32965889  0.32751694  1
  Cr  Cr15  1  0.32999126  0.66284567  -0.00314386  1
  Fe  Fe16  1  0.49768309  0.82856663  0.16306491  1
  Cr  Cr17  1  0.32666494  0.66265510  0.33059689  1
  Cr  Cr18  1  0.66181502  -0.00308863  -0.00174861  1
  Fe  Fe19  1  0.82907365  0.16232687  0.16362470  1
  Fe  Fe20  1  0.66226069  -0.00346420  0.32629783  1
  Cr  Cr21  1  0.66337760  0.32779538  0.99337929  1
  Cr  Cr22  1  0.82615077  0.49640174  0.16435756  1
  Fe  Fe23  1  0.66247824  0.32781587  0.32720710  1
  Fe  Fe24  1  0.66184871  0.66321861  -0.00257501  1
  Fe  Fe25  1  0.82671282  0.83093283  0.16269818  1
  Cr  Cr26  1  0.66335637  0.66385872  0.32896803  1
  Fe  Fe27  1  0.16104598  0.16499153  0.49554886  1
  Fe  Fe28  1  0.99427598  -0.00148208  0.66207060  1
  Cr  Cr29  1  0.16069190  0.16034835  0.82902232  1
  Fe  Fe30  1  0.16024502  0.49250927  0.49476357  1
  Fe  Fe31  1  -0.00414078  0.32747234  0.66224324  1
  Cr  Cr32  1  0.16551754  0.49588667  0.83002947  1
  Cr  Cr33  1  0.16127667  0.82953716  0.49937350  1
  Cr  Cr34  1  0.99474214  0.65646459  0.65978945  1
  Cr  Cr35  1  0.16023421  0.83068899  0.82856297  1
  Cr  Cr36  1  0.49698631  0.16549974  0.49216599  1
  Cr  Cr37  1  0.33126118  0.99378119  0.66088416  1
  Fe  Fe38  1  0.49555257  0.16153689  0.82928756  1
  Cr  Cr39  1  0.49657202  0.49493215  0.49578359  1
  Cr  Cr40  1  0.32740805  0.32765553  0.66228915  1
  Cr  Cr41  1  0.49788509  0.49609729  0.83143993  1
  Fe  Fe42  1  0.49723850  0.82824361  0.49610517  1
  Fe  Fe43  1  0.33215617  0.66204094  0.66230194  1
  Fe  Fe44  1  0.49616207  0.82805043  0.82892371  1
  Cr  Cr45  1  0.82991801  0.16353221  0.49463613  1
  Cr  Cr46  1  0.65988617  0.99576530  0.66230039  1
  Fe  Fe47  1  0.83016238  0.16210964  0.82836434  1
  Fe  Fe48  1  0.83059963  0.49446095  0.49398245  1
  Cr  Cr49  1  0.66778419  0.32993911  0.66584318  1
  Fe  Fe50  1  0.83065889  0.49693424  0.82901032  1
  Cr  Cr51  1  0.82938566  0.82969753  0.49261090  1
  Fe  Fe52  1  0.66123155  0.66310213  0.66234172  1
  Cr  Cr53  1  0.83008178  0.83002116  0.83225355  1
" 