4020,Fe51Cr49_16,-216.635253370844, 174.037831538441,Fe51Cr49,"# generated using pymatgen
 data_CrFe
_symmetry_space_group_name_H-M   'P 1'
_cell_length_a   7.54006392
_cell_length_b   7.54006392
_cell_length_c   10.66326065
_cell_angle_alpha   90.00000000
_cell_angle_beta   90.00000000
_cell_angle_gamma   90.00000000
_symmetry_Int_Tables_number   1
_chemical_formula_structural   CrFe
_chemical_formula_sum   'Cr27 Fe27'
_cell_volume   606.23370743
_cell_formula_units_Z   27
loop_
 _symmetry_equiv_pos_site_id
 _symmetry_equiv_pos_as_xyz
  1  'x, y, z'
loop_
 _atom_site_type_symbol
 _atom_site_label
 _atom_site_symmetry_multiplicity
 _atom_site_fract_x
 _atom_site_fract_y
 _atom_site_fract_z
 _atom_site_occupancy
  Fe  Fe0  1  0.99500882  0.99282803  -0.00387062  1
  Cr  Cr1  1  0.16364343  0.16305045  0.15957790  1
  Cr  Cr2  1  -0.00356493  0.99457901  0.32434520  1
  Cr  Cr3  1  -0.00407859  0.32811512  0.99166452  1
  Cr  Cr4  1  0.16176483  0.49764368  0.16124986  1
  Cr  Cr5  1  0.99420881  0.32959017  0.33396917  1
  Fe  Fe6  1  -0.00250761  0.66519364  -0.00465688  1
  Fe  Fe7  1  0.16049672  0.82560042  0.16077529  1
  Fe  Fe8  1  -0.00317812  0.66222555  0.32917997  1
  Cr  Cr9  1  0.32730712  0.99146379  -0.00231157  1
  Cr  Cr10  1  0.49500338  0.16397912  0.16365011  1
  Cr  Cr11  1  0.33002556  0.99031714  0.32542012  1
  Fe  Fe12  1  0.32963059  0.33110690  0.99419124  1
  Fe  Fe13  1  0.49436857  0.49742828  0.16078103  1
  Cr  Cr14  1  0.32825492  0.33017580  0.32701213  1
  Fe  Fe15  1  0.32986977  0.66050130  0.99432197  1
  Fe  Fe16  1  0.49503746  0.82472913  0.16150626  1
  Fe  Fe17  1  0.32772325  0.66135567  0.32838480  1
  Cr  Cr18  1  0.66125955  0.99247759  -0.00332245  1
  Cr  Cr19  1  0.82692837  0.16259169  0.16240505  1
  Fe  Fe20  1  0.66231591  0.99445045  0.32774680  1
  Cr  Cr21  1  0.66106577  0.33126626  0.99427287  1
  Cr  Cr22  1  0.82866138  0.49976864  0.16217876  1
  Fe  Fe23  1  0.66198941  0.32986833  0.33006052  1
  Fe  Fe24  1  0.65841171  0.66310932  -0.00387137  1
  Fe  Fe25  1  0.82942547  0.82795519  0.16087632  1
  Cr  Cr26  1  0.65941569  0.66284554  0.32731525  1
  Cr  Cr27  1  0.16538818  0.15944397  0.49614063  1
  Fe  Fe28  1  0.99411622  0.99438152  0.66235985  1
  Cr  Cr29  1  0.16358872  0.15943540  0.82909094  1
  Fe  Fe30  1  0.16414288  0.49634954  0.49460187  1
  Cr  Cr31  1  0.99468651  0.32726799  0.65990791  1
  Fe  Fe32  1  0.16332003  0.49810869  0.82988961  1
  Cr  Cr33  1  0.16247484  0.82615973  0.49631624  1
  Cr  Cr34  1  -0.00397565  0.65927206  0.66016351  1
  Fe  Fe35  1  0.16323375  0.82632947  0.82780175  1
  Cr  Cr36  1  0.49655117  0.16081598  0.49393446  1
  Fe  Fe37  1  0.33031130  0.99166094  0.66265260  1
  Cr  Cr38  1  0.49480848  0.16191642  0.82817340  1
  Fe  Fe39  1  0.49351261  0.49743399  0.49481261  1
  Cr  Cr40  1  0.32755467  0.33137926  0.66348543  1
  Fe  Fe41  1  0.49279245  0.49784494  0.82979556  1
  Fe  Fe42  1  0.49419631  0.82794692  0.49591752  1
  Fe  Fe43  1  0.32849482  0.66237872  0.66296725  1
  Fe  Fe44  1  0.49273770  0.82755887  0.82888028  1
  Fe  Fe45  1  0.82834963  0.15877787  0.49451129  1
  Fe  Fe46  1  0.66246989  -0.00468803  0.66233760  1
  Fe  Fe47  1  0.82843551  0.16043136  0.82812339  1
  Fe  Fe48  1  0.82619815  0.49601785  0.49418214  1
  Cr  Cr49  1  0.66379335  0.32996698  0.66066712  1
  Cr  Cr50  1  0.82798255  0.49884707  0.83067627  1
  Cr  Cr51  1  0.82776557  0.82725411  0.49425046  1
  Cr  Cr52  1  0.65767077  0.66382461  0.66360059  1
  Cr  Cr53  1  0.82945034  0.82820554  0.83044544  1
" 