8638,Fe51Cr49_10,-216.408292042479, 169.685025244162,Fe51Cr49,"# generated using pymatgen
 data_CrFe
_symmetry_space_group_name_H-M   'P 1'
_cell_length_a   7.53999348
_cell_length_b   7.53999348
_cell_length_c   10.66316104
_cell_angle_alpha   90.00000000
_cell_angle_beta   90.00000000
_cell_angle_gamma   90.00000000
_symmetry_Int_Tables_number   1
_chemical_formula_structural   CrFe
_chemical_formula_sum   'Cr27 Fe27'
_cell_volume   606.21671769
_cell_formula_units_Z   27
loop_
 _symmetry_equiv_pos_site_id
 _symmetry_equiv_pos_as_xyz
  1  'x, y, z'
loop_
 _atom_site_type_symbol
 _atom_site_label
 _atom_site_symmetry_multiplicity
 _atom_site_fract_x
 _atom_site_fract_y
 _atom_site_fract_z
 _atom_site_occupancy
  Cr  Cr0  1  0.99412494  0.99345187  -0.00208607  1
  Cr  Cr1  1  0.16218446  0.16384134  0.16322156  1
  Fe  Fe2  1  -0.00411605  0.99427318  0.33026795  1
  Fe  Fe3  1  0.99490679  0.32961917  0.99417629  1
  Cr  Cr4  1  0.16178124  0.49364230  0.15895989  1
  Fe  Fe5  1  -0.00236267  0.32966357  0.33145064  1
  Fe  Fe6  1  -0.00472760  0.65936926  0.99417670  1
  Cr  Cr7  1  0.15991306  0.82703869  0.16019514  1
  Fe  Fe8  1  0.99445279  0.66123846  0.32999274  1
  Cr  Cr9  1  0.32859742  0.99376170  0.99361298  1
  Cr  Cr10  1  0.49317906  0.16303191  0.16212705  1
  Fe  Fe11  1  0.32640288  -0.00453647  0.33006033  1
  Fe  Fe12  1  0.32820109  0.32969235  0.99222568  1
  Cr  Cr13  1  0.49362735  0.49434420  0.16248791  1
  Fe  Fe14  1  0.32598335  0.32857079  0.33071102  1
  Fe  Fe15  1  0.32875688  0.66055624  0.99321341  1
  Cr  Cr16  1  0.49642718  0.82809952  0.16572939  1
  Cr  Cr17  1  0.32496667  0.66219497  0.32999329  1
  Cr  Cr18  1  0.66307531  -0.00412091  -0.00269138  1
  Cr  Cr19  1  0.83016586  0.16155920  0.16427995  1
  Fe  Fe20  1  0.66261842  0.99389792  0.33024801  1
  Cr  Cr21  1  0.66194304  0.32826009  0.99132959  1
  Cr  Cr22  1  0.83014942  0.49659392  0.16326304  1
  Cr  Cr23  1  0.66414975  0.32753258  0.32981054  1
  Cr  Cr24  1  0.66225536  0.66125637  -0.00403821  1
  Fe  Fe25  1  0.82918947  0.82744748  0.16535037  1
  Fe  Fe26  1  0.66350519  0.66263950  0.32944210  1
  Fe  Fe27  1  0.15923474  0.16147431  0.49477434  1
  Fe  Fe28  1  -0.00264462  -0.00449011  0.65929742  1
  Cr  Cr29  1  0.16167777  0.16323976  0.82747898  1
  Fe  Fe30  1  0.15902001  0.49465681  0.49464723  1
  Fe  Fe31  1  -0.00358685  0.33044774  0.65972788  1
  Fe  Fe32  1  0.15965943  0.49581267  0.82957469  1
  Fe  Fe33  1  0.16132177  0.83057500  0.49537446  1
  Fe  Fe34  1  0.99378432  0.65859269  0.66052375  1
  Cr  Cr35  1  0.15988999  0.82778343  0.82660604  1
  Cr  Cr36  1  0.49289741  0.16128043  0.49468444  1
  Fe  Fe37  1  0.32663828  -0.00380663  0.66019378  1
  Fe  Fe38  1  0.49413418  0.16181135  0.82788381  1
  Cr  Cr39  1  0.49736873  0.49736347  0.49308248  1
  Cr  Cr40  1  0.32788635  0.33054101  0.66195918  1
  Fe  Fe41  1  0.49344304  0.49578686  0.82830406  1
  Fe  Fe42  1  0.49474568  0.82948592  0.49499363  1
  Cr  Cr43  1  0.32516446  0.66285732  0.66010513  1
  Cr  Cr44  1  0.49542257  0.82734186  0.82445281  1
  Fe  Fe45  1  0.83060110  0.16199564  0.49536210  1
  Cr  Cr46  1  0.66258935  -0.00289699  0.66282746  1
  Cr  Cr47  1  0.83184144  0.16208181  0.82667706  1
  Fe  Fe48  1  0.83121274  0.49427095  0.49506723  1
  Cr  Cr49  1  0.66457922  0.33026479  0.66420224  1
  Fe  Fe50  1  0.83220192  0.49626964  0.82776243  1
  Cr  Cr51  1  0.82817085  0.82637071  0.49594252  1
  Fe  Fe52  1  0.66251400  0.66033117  0.66148247  1
  Cr  Cr53  1  0.82966922  0.82642695  0.82829025  1
" 