7508,Fe51Cr49_15,-216.360568595544, 175.741374552163,Fe51Cr49,"# generated using pymatgen
 data_CrFe
_symmetry_space_group_name_H-M   'P 1'
_cell_length_a   7.53823248
_cell_length_b   7.53823248
_cell_length_c   10.66067061
_cell_angle_alpha   90.00000000
_cell_angle_beta   90.00000000
_cell_angle_gamma   90.00000000
_symmetry_Int_Tables_number   1
_chemical_formula_structural   CrFe
_chemical_formula_sum   'Cr27 Fe27'
_cell_volume   605.79206296
_cell_formula_units_Z   27
loop_
 _symmetry_equiv_pos_site_id
 _symmetry_equiv_pos_as_xyz
  1  'x, y, z'
loop_
 _atom_site_type_symbol
 _atom_site_label
 _atom_site_symmetry_multiplicity
 _atom_site_fract_x
 _atom_site_fract_y
 _atom_site_fract_z
 _atom_site_occupancy
  Fe  Fe0  1  0.99512226  -0.00335659  0.99209154  1
  Cr  Cr1  1  0.15788974  0.16456599  0.16208146  1
  Fe  Fe2  1  0.99250259  -0.00292190  0.33041794  1
  Fe  Fe3  1  -0.00452872  0.32804122  0.99206422  1
  Fe  Fe4  1  0.15998433  0.49317638  0.16169871  1
  Fe  Fe5  1  0.99500989  0.32999801  0.33019052  1
  Cr  Cr6  1  -0.00447844  0.66351990  0.99325635  1
  Cr  Cr7  1  0.16170485  0.83119586  0.16148693  1
  Cr  Cr8  1  0.99502758  0.66143989  0.32994251  1
  Cr  Cr9  1  0.32745797  -0.00234211  0.99364202  1
  Fe  Fe10  1  0.49692499  0.16257489  0.16126257  1
  Cr  Cr11  1  0.33037081  -0.00115179  0.32697277  1
  Cr  Cr12  1  0.33239666  0.32776705  -0.00413934  1
  Fe  Fe13  1  0.49576644  0.49289261  0.16134544  1
  Cr  Cr14  1  0.33089389  0.32891663  0.32907344  1
  Cr  Cr15  1  0.32622247  0.65996428  -0.00205313  1
  Cr  Cr16  1  0.49643467  0.82701452  0.16302445  1
  Cr  Cr17  1  0.32643555  0.65823535  0.32544943  1
  Cr  Cr18  1  0.66302943  0.00011299  0.99473671  1
  Cr  Cr19  1  0.83139257  0.16426947  0.16178781  1
  Fe  Fe20  1  0.66335228  -0.00354389  0.33010504  1
  Fe  Fe21  1  0.66203529  0.32845842  0.99312000  1
  Cr  Cr22  1  0.82926261  0.49133770  0.15913023  1
  Cr  Cr23  1  0.66101754  0.32548862  0.32688454  1
  Cr  Cr24  1  0.66381584  0.65860305  0.99399214  1
  Cr  Cr25  1  0.82768647  0.83036430  0.16341210  1
  Cr  Cr26  1  0.66455794  0.65901087  0.33046248  1
  Cr  Cr27  1  0.15880578  0.16643264  0.49620039  1
  Cr  Cr28  1  0.99313549  0.99410329  0.66486261  1
  Fe  Fe29  1  0.16027582  0.16451098  0.82886324  1
  Fe  Fe30  1  0.16129301  0.49411668  0.49612646  1
  Fe  Fe31  1  -0.00443257  0.32918200  0.66315411  1
  Fe  Fe32  1  0.16154083  0.49266173  0.82826401  1
  Cr  Cr33  1  0.16441854  0.83054877  0.49370150  1
  Cr  Cr34  1  0.99273303  0.66152132  0.66194463  1
  Fe  Fe35  1  0.16090184  0.82883537  0.82920727  1
  Fe  Fe36  1  0.49649406  0.16193440  0.49632670  1
  Cr  Cr37  1  0.32869430  -0.00014276  0.66479414  1
  Fe  Fe38  1  0.49641158  0.16418692  0.82810214  1
  Fe  Fe39  1  0.49493590  0.49372937  0.49646489  1
  Fe  Fe40  1  0.32726422  0.32934590  0.66288687  1
  Fe  Fe41  1  0.49555264  0.49323304  0.82805994  1
  Cr  Cr42  1  0.49833460  0.82757634  0.49666432  1
  Cr  Cr43  1  0.32563810  0.65886480  0.66200353  1
  Cr  Cr44  1  0.49641526  0.82592571  0.82647256  1
  Fe  Fe45  1  0.82736471  0.16081787  0.49486596  1
  Fe  Fe46  1  0.66377593  -0.00458943  0.66235350  1
  Fe  Fe47  1  0.82910240  0.16344558  0.82926692  1
  Fe  Fe48  1  0.82915881  0.49340739  0.49615695  1
  Cr  Cr49  1  0.66087594  0.32719305  0.66243632  1
  Fe  Fe50  1  0.82848476  0.49323072  0.82825078  1
  Fe  Fe51  1  0.82864162  0.83084538  0.49560801  1
  Fe  Fe52  1  0.66366656  0.66130143  0.66191068  1
  Fe  Fe53  1  0.82826352  0.82918400  0.82864687  1
" 