3944,Fe51Cr49_9,-216.312710177115, 172.258621511392,Fe51Cr49,"# generated using pymatgen
 data_CrFe
_symmetry_space_group_name_H-M   'P 1'
_cell_length_a   7.53177954
_cell_length_b   7.53177954
_cell_length_c   10.65154478
_cell_angle_alpha   90.00000000
_cell_angle_beta   90.00000000
_cell_angle_gamma   90.00000000
_symmetry_Int_Tables_number   1
_chemical_formula_structural   CrFe
_chemical_formula_sum   'Cr27 Fe27'
_cell_volume   604.23766984
_cell_formula_units_Z   27
loop_
 _symmetry_equiv_pos_site_id
 _symmetry_equiv_pos_as_xyz
  1  'x, y, z'
loop_
 _atom_site_type_symbol
 _atom_site_label
 _atom_site_symmetry_multiplicity
 _atom_site_fract_x
 _atom_site_fract_y
 _atom_site_fract_z
 _atom_site_occupancy
  Cr  Cr0  1  -0.00298451  -0.00359361  -0.00145306  1
  Cr  Cr1  1  0.16235508  0.16586979  0.16256294  1
  Cr  Cr2  1  -0.00262446  0.99520277  0.32824051  1
  Fe  Fe3  1  -0.00354679  0.33124780  -0.00360284  1
  Fe  Fe4  1  0.16235742  0.49645205  0.16163561  1
  Cr  Cr5  1  0.99459806  0.33168401  0.32760117  1
  Fe  Fe6  1  -0.00409347  0.66075845  -0.00310758  1
  Cr  Cr7  1  0.16171520  0.82511800  0.16566669  1
  Fe  Fe8  1  0.99419399  0.66114029  0.32894243  1
  Cr  Cr9  1  0.32901778  0.99429948  0.99340049  1
  Cr  Cr10  1  0.49593347  0.16528110  0.16271605  1
  Cr  Cr11  1  0.32776953  0.99498760  0.33046353  1
  Fe  Fe12  1  0.32729544  0.32979977  0.99476720  1
  Cr  Cr13  1  0.49367895  0.49600924  0.16373117  1
  Fe  Fe14  1  0.32877497  0.32993691  0.33067667  1
  Fe  Fe15  1  0.32760539  0.66089007  0.99539376  1
  Cr  Cr16  1  0.49600090  0.82571797  0.16122585  1
  Fe  Fe17  1  0.32858041  0.65992598  0.32997815  1
  Cr  Cr18  1  0.66079630  0.99428748  0.99476160  1
  Fe  Fe19  1  0.82799456  0.16410624  0.16119813  1
  Cr  Cr20  1  0.66195167  0.99533634  0.32736445  1
  Fe  Fe21  1  0.66298919  0.32990085  -0.00356765  1
  Fe  Fe22  1  0.82996173  0.49740328  0.16032997  1
  Cr  Cr23  1  0.66296776  0.33395597  0.33124308  1
  Fe  Fe24  1  0.66331187  0.66128581  -0.00427984  1
  Fe  Fe25  1  0.82861142  0.82599631  0.16221508  1
  Fe  Fe26  1  0.66449212  0.66181168  0.32945765  1
  Fe  Fe27  1  0.16456148  0.16316659  0.49542287  1
  Cr  Cr28  1  -0.00001405  -0.00379782  0.66090600  1
  Fe  Fe29  1  0.16375434  0.16592541  0.83004218  1
  Cr  Cr30  1  0.16504589  0.49685953  0.49615540  1
  Cr  Cr31  1  -0.00289350  0.33142665  0.66325889  1
  Fe  Fe32  1  0.16243788  0.49469118  0.82982222  1
  Fe  Fe33  1  0.16269788  0.82731111  0.49576875  1
  Fe  Fe34  1  -0.00226626  0.66138625  0.66152255  1
  Cr  Cr35  1  0.16225435  0.82483502  0.82692601  1
  Fe  Fe36  1  0.49315510  0.16405463  0.49575109  1
  Cr  Cr37  1  0.32992997  -0.00413333  0.66360536  1
  Fe  Fe38  1  0.49495010  0.16316450  0.82874147  1
  Fe  Fe39  1  0.49487449  0.49545229  0.49473924  1
  Fe  Fe40  1  0.32909513  0.32900292  0.66244574  1
  Cr  Cr41  1  0.49201966  0.49510926  0.83023651  1
  Cr  Cr42  1  0.49513859  0.82710568  0.49565332  1
  Fe  Fe43  1  0.32790952  0.66042283  0.66229558  1
  Fe  Fe44  1  0.49629028  0.82797295  0.82847245  1
  Cr  Cr45  1  0.82853702  0.16132453  0.49685357  1
  Fe  Fe46  1  0.66034928  -0.00350937  0.66302830  1
  Cr  Cr47  1  0.82821990  0.16217500  0.82944687  1
  Fe  Fe48  1  0.82963933  0.49801387  0.49513005  1
  Cr  Cr49  1  0.66081056  0.33119340  0.65940046  1
  Cr  Cr50  1  0.83059279  0.49579187  0.82940524  1
  Cr  Cr51  1  0.83111479  0.82833602  0.49695164  1
  Cr  Cr52  1  0.66118116  0.66031895  0.66168443  1
  Cr  Cr53  1  0.82885865  0.82953676  0.82672085  1
" 