623,Fe51Cr49_11,-216.4120930494, 173.967719299114,Fe51Cr49,"# generated using pymatgen
 data_CrFe
_symmetry_space_group_name_H-M   'P 1'
_cell_length_a   7.53812383
_cell_length_b   7.53812383
_cell_length_c   10.66051696
_cell_angle_alpha   90.00000000
_cell_angle_beta   90.00000000
_cell_angle_gamma   90.00000000
_symmetry_Int_Tables_number   1
_chemical_formula_structural   CrFe
_chemical_formula_sum   'Cr27 Fe27'
_cell_volume   605.76586997
_cell_formula_units_Z   27
loop_
 _symmetry_equiv_pos_site_id
 _symmetry_equiv_pos_as_xyz
  1  'x, y, z'
loop_
 _atom_site_type_symbol
 _atom_site_label
 _atom_site_symmetry_multiplicity
 _atom_site_fract_x
 _atom_site_fract_y
 _atom_site_fract_z
 _atom_site_occupancy
  Fe  Fe0  1  -0.00465379  -0.00366776  -0.00383158  1
  Fe  Fe1  1  0.16001757  0.16207802  0.15992215  1
  Fe  Fe2  1  -0.00411652  -0.00290681  0.33083138  1
  Fe  Fe3  1  0.99460105  0.32835682  0.99489129  1
  Cr  Cr4  1  0.16373280  0.49654793  0.15824834  1
  Cr  Cr5  1  -0.00360321  0.32967080  0.32670353  1
  Fe  Fe6  1  -0.00464561  0.66155518  0.99445026  1
  Cr  Cr7  1  0.15913675  0.82867954  0.16307492  1
  Fe  Fe8  1  0.99505181  0.66250799  0.33113619  1
  Cr  Cr9  1  0.32927530  0.99472781  -0.00358608  1
  Fe  Fe10  1  0.49555744  0.16268201  0.16108691  1
  Cr  Cr11  1  0.32758477  -0.00345651  0.32891108  1
  Fe  Fe12  1  0.32847504  0.32770895  0.99499873  1
  Cr  Cr13  1  0.49462650  0.49278269  0.16362894  1
  Cr  Cr14  1  0.32598243  0.32585776  0.32902573  1
  Fe  Fe15  1  0.32828238  0.66111527  0.99371210  1
  Cr  Cr16  1  0.49510227  0.82505522  0.16072418  1
  Cr  Cr17  1  0.32926209  0.66323488  0.32967087  1
  Cr  Cr18  1  0.66021603  0.99458574  0.99480369  1
  Fe  Fe19  1  0.82961600  0.16251904  0.16059414  1
  Cr  Cr20  1  0.65948957  0.99371646  0.32737719  1
  Fe  Fe21  1  0.66215228  0.32864334  -0.00376127  1
  Cr  Cr22  1  0.82794828  0.49673168  0.16352539  1
  Cr  Cr23  1  0.66399983  0.32874789  0.32988512  1
  Cr  Cr24  1  0.66301022  0.66231426  0.99397786  1
  Cr  Cr25  1  0.83101888  0.83090151  0.16587946  1
  Fe  Fe26  1  0.66294364  0.66145737  0.33207247  1
  Fe  Fe27  1  0.16071185  0.16192104  0.49697756  1
  Fe  Fe28  1  -0.00466136  0.99395198  0.66024517  1
  Cr  Cr29  1  0.16129266  0.16121078  0.82642948  1
  Cr  Cr30  1  0.16512712  0.49758512  0.49650701  1
  Cr  Cr31  1  -0.00462310  0.33275230  0.66341551  1
  Fe  Fe32  1  0.16072753  0.49485664  0.82982402  1
  Fe  Fe33  1  0.15932690  0.82994648  0.49550428  1
  Fe  Fe34  1  -0.00385609  0.66376184  0.66083470  1
  Cr  Cr35  1  0.16149903  0.82572193  0.82800701  1
  Fe  Fe36  1  0.49467028  0.16327281  0.49660724  1
  Cr  Cr37  1  0.32884488  0.99393257  0.65912325  1
  Cr  Cr38  1  0.49639494  0.16556851  0.82673080  1
  Fe  Fe39  1  0.49695425  0.49468359  0.49604098  1
  Fe  Fe40  1  0.32979736  0.32947193  0.65975440  1
  Cr  Cr41  1  0.49280718  0.49477949  0.82778799  1
  Fe  Fe42  1  0.49562900  0.82712036  0.49498990  1
  Fe  Fe43  1  0.32890650  0.66164070  0.66105798  1
  Fe  Fe44  1  0.49364907  0.82765731  0.82876998  1
  Cr  Cr45  1  0.82780442  0.15891739  0.49789389  1
  Cr  Cr46  1  0.65902917  0.99227672  0.66387695  1
  Cr  Cr47  1  0.82786479  0.16241127  0.82873145  1
  Fe  Fe48  1  0.82987884  0.49629226  0.49488192  1
  Fe  Fe49  1  0.66169452  0.32975826  0.66002847  1
  Fe  Fe50  1  0.82938349  0.49531916  0.82959884  1
  Fe  Fe51  1  0.83021255  0.82685681  0.49444023  1
  Cr  Cr52  1  0.66387028  0.66124059  0.66115754  1
  Cr  Cr53  1  0.83241983  0.83036472  0.82825015  1
" 