7302,Fe51Cr49_8,-216.201624684781, 173.864374765004,Fe51Cr49,"# generated using pymatgen
 data_CrFe
_symmetry_space_group_name_H-M   'P 1'
_cell_length_a   7.52983281
_cell_length_b   7.52983281
_cell_length_c   10.64879169
_cell_angle_alpha   90.00000000
_cell_angle_beta   90.00000000
_cell_angle_gamma   90.00000000
_symmetry_Int_Tables_number   1
_chemical_formula_structural   CrFe
_chemical_formula_sum   'Cr27 Fe27'
_cell_volume   603.76926094
_cell_formula_units_Z   27
loop_
 _symmetry_equiv_pos_site_id
 _symmetry_equiv_pos_as_xyz
  1  'x, y, z'
loop_
 _atom_site_type_symbol
 _atom_site_label
 _atom_site_symmetry_multiplicity
 _atom_site_fract_x
 _atom_site_fract_y
 _atom_site_fract_z
 _atom_site_occupancy
  Fe  Fe0  1  0.99472897  -0.00330115  -0.00371490  1
  Fe  Fe1  1  0.16382327  0.16285985  0.15948800  1
  Cr  Cr2  1  0.99387773  -0.00223420  0.32708126  1
  Fe  Fe3  1  0.99366192  0.32678998  0.99494529  1
  Cr  Cr4  1  0.16128548  0.49424082  0.15961979  1
  Cr  Cr5  1  -0.00202619  0.32735144  0.32879851  1
  Cr  Cr6  1  -0.00416148  0.66280071  0.99349594  1
  Cr  Cr7  1  0.16287655  0.83170225  0.16077179  1
  Fe  Fe8  1  -0.00357255  0.66228465  0.32809320  1
  Fe  Fe9  1  0.32919811  -0.00332582  -0.00400827  1
  Fe  Fe10  1  0.49397039  0.16317310  0.16224406  1
  Fe  Fe11  1  0.32738426  -0.00103561  0.32914192  1
  Fe  Fe12  1  0.32963877  0.32735621  0.99562542  1
  Cr  Cr13  1  0.49703969  0.49480765  0.16165224  1
  Cr  Cr14  1  0.32706311  0.32880968  0.33222071  1
  Fe  Fe15  1  0.32911473  0.66277470  0.99492850  1
  Cr  Cr16  1  0.49495526  0.83124725  0.16656107  1
  Cr  Cr17  1  0.32873366  0.66041410  0.33088969  1
  Cr  Cr18  1  0.66348787  -0.00305250  -0.00293416  1
  Fe  Fe19  1  0.82937200  0.16205419  0.16107701  1
  Fe  Fe20  1  0.66263683  -0.00246347  0.32757897  1
  Fe  Fe21  1  0.66429865  0.32779830  0.99573712  1
  Cr  Cr22  1  0.82961963  0.49431938  0.16255812  1
  Cr  Cr23  1  0.66243731  0.32678299  0.32992806  1
  Cr  Cr24  1  0.66336872  0.66496840  -0.00333108  1
  Fe  Fe25  1  0.82959583  0.82911394  0.16386716  1
  Fe  Fe26  1  0.66468788  0.66228241  0.32828969  1
  Fe  Fe27  1  0.15998976  0.16084695  0.49593693  1
  Fe  Fe28  1  0.99548033  0.99499179  0.66379188  1
  Cr  Cr29  1  0.16165934  0.16035650  0.83063835  1
  Fe  Fe30  1  0.16044091  0.49801523  0.49563902  1
  Cr  Cr31  1  -0.00400176  0.32800252  0.66034046  1
  Fe  Fe32  1  0.16239508  0.49434861  0.83039492  1
  Cr  Cr33  1  0.16115417  0.83109324  0.49778108  1
  Fe  Fe34  1  0.99557682  0.66284392  0.66517858  1
  Fe  Fe35  1  0.16053583  0.82883419  0.82963258  1
  Cr  Cr36  1  0.49645549  0.16216227  0.49753292  1
  Cr  Cr37  1  0.32914382  -0.00375027  0.66265353  1
  Fe  Fe38  1  0.49607595  0.16361493  0.82975480  1
  Fe  Fe39  1  0.49755458  0.49709341  0.49599692  1
  Cr  Cr40  1  0.32800547  0.33075507  0.65835032  1
  Cr  Cr41  1  0.49839845  0.49284110  0.83057019  1
  Cr  Cr42  1  0.49608475  0.83048167  0.49221404  1
  Cr  Cr43  1  0.32752832  0.66072133  0.66361758  1
  Cr  Cr44  1  0.49293365  0.83059011  0.82999124  1
  Fe  Fe45  1  0.82974720  0.16053547  0.49627875  1
  Cr  Cr46  1  0.66587854  -0.00302095  0.66429417  1
  Fe  Fe47  1  0.82856431  0.16433767  0.82998527  1
  Cr  Cr48  1  0.82925593  0.49507445  0.49554674  1
  Fe  Fe49  1  0.66305325  0.32908607  0.66307370  1
  Fe  Fe50  1  0.83109729  0.49367280  0.82897918  1
  Cr  Cr51  1  0.83038822  0.82818226  0.49371752  1
  Cr  Cr52  1  0.66266222  0.66383421  0.66349326  1
  Fe  Fe53  1  0.83171442  0.83080493  0.82887976  1
" 