5852,Fe51Cr49_12,-216.534525205158, 175.928516587507,Fe51Cr49,"# generated using pymatgen
 data_CrFe
_symmetry_space_group_name_H-M   'P 1'
_cell_length_a   7.53412871
_cell_length_b   7.53412871
_cell_length_c   10.65486700
_cell_angle_alpha   90.00000000
_cell_angle_beta   90.00000000
_cell_angle_gamma   90.00000000
_symmetry_Int_Tables_number   1
_chemical_formula_structural   CrFe
_chemical_formula_sum   'Cr27 Fe27'
_cell_volume   604.80323190
_cell_formula_units_Z   27
loop_
 _symmetry_equiv_pos_site_id
 _symmetry_equiv_pos_as_xyz
  1  'x, y, z'
loop_
 _atom_site_type_symbol
 _atom_site_label
 _atom_site_symmetry_multiplicity
 _atom_site_fract_x
 _atom_site_fract_y
 _atom_site_fract_z
 _atom_site_occupancy
  Cr  Cr0  1  -0.00435490  -0.00366701  0.99422216  1
  Fe  Fe1  1  0.16266277  0.16215213  0.16361472  1
  Fe  Fe2  1  -0.00322107  -0.00186086  0.32903572  1
  Fe  Fe3  1  0.99331712  0.32917878  0.99465559  1
  Cr  Cr4  1  0.16326108  0.49503605  0.15905664  1
  Cr  Cr5  1  -0.00425227  0.32874263  0.32976310  1
  Cr  Cr6  1  0.99402266  0.65865052  0.99178058  1
  Cr  Cr7  1  0.16079958  0.83011972  0.16398881  1
  Cr  Cr8  1  0.99244625  0.65856925  0.33169290  1
  Cr  Cr9  1  0.33182796  0.99477374  -0.00107628  1
  Fe  Fe10  1  0.49502536  0.16328080  0.16374683  1
  Fe  Fe11  1  0.32779938  -0.00125153  0.32815738  1
  Cr  Cr12  1  0.32897135  0.32818030  -0.00156817  1
  Fe  Fe13  1  0.49896336  0.49574242  0.16213872  1
  Fe  Fe14  1  0.32994356  0.32678524  0.32731837  1
  Fe  Fe15  1  0.33082897  0.66342661  0.99515540  1
  Fe  Fe16  1  0.49638051  0.82746683  0.16233789  1
  Cr  Cr17  1  0.33178790  0.66232741  0.32792479  1
  Cr  Cr18  1  0.65939989  0.99440607  0.99132152  1
  Cr  Cr19  1  0.82863964  0.16280605  0.15931204  1
  Cr  Cr20  1  0.65864710  -0.00420843  0.32966580  1
  Fe  Fe21  1  0.66359157  0.33087660  -0.00425365  1
  Fe  Fe22  1  0.82649231  0.49513397  0.16151979  1
  Fe  Fe23  1  0.66179170  0.33081805  0.32786783  1
  Fe  Fe24  1  0.66045889  0.66107314  0.99535211  1
  Cr  Cr25  1  0.82856917  0.82802502  0.16400961  1
  Fe  Fe26  1  0.66178023  0.65900351  0.32812515  1
  Fe  Fe27  1  0.16280521  0.16206020  0.49480953  1
  Cr  Cr28  1  0.99377108  -0.00322681  0.66166621  1
  Cr  Cr29  1  0.16119373  0.16393555  0.83073536  1
  Cr  Cr30  1  0.16546432  0.49465969  0.49958932  1
  Cr  Cr31  1  0.99409085  0.33002999  0.66283821  1
  Fe  Fe32  1  0.16300744  0.49597145  0.82908869  1
  Cr  Cr33  1  0.16065129  0.82981649  0.49400044  1
  Cr  Cr34  1  0.99537551  0.66005902  0.66327885  1
  Fe  Fe35  1  0.16421538  0.82714187  0.82889322  1
  Cr  Cr36  1  0.49657761  0.16580588  0.49816436  1
  Cr  Cr37  1  0.33129536  0.99509368  0.66271517  1
  Cr  Cr38  1  0.49915979  0.16446770  0.82593029  1
  Cr  Cr39  1  0.49574272  0.49265863  0.49626472  1
  Fe  Fe40  1  0.32813108  0.32969554  0.66318091  1
  Cr  Cr41  1  0.49353056  0.49547115  0.82760383  1
  Cr  Cr42  1  0.49613556  0.82818591  0.49671600  1
  Fe  Fe43  1  0.32802835  0.66216875  0.66391263  1
  Fe  Fe44  1  0.49505246  0.82752510  0.82841028  1
  Fe  Fe45  1  0.82857590  0.16385525  0.49520889  1
  Fe  Fe46  1  0.66464838  -0.00358231  0.66318861  1
  Fe  Fe47  1  0.82786654  0.16418425  0.82897277  1
  Fe  Fe48  1  0.82652617  0.49361921  0.49532451  1
  Fe  Fe49  1  0.66460371  0.32823270  0.66227647  1
  Fe  Fe50  1  0.82757896  0.49331018  0.82978926  1
  Cr  Cr51  1  0.82973030  0.83104859  0.49285895  1
  Cr  Cr52  1  0.66281731  0.66296374  0.66092953  1
  Fe  Fe53  1  0.82744632  0.82886359  0.82838959  1
" 