3310,Fe51Cr49_5,-216.344452958572, 174.886151284394,Fe51Cr49,"# generated using pymatgen
 data_CrFe
_symmetry_space_group_name_H-M   'P 1'
_cell_length_a   7.53145562
_cell_length_b   7.53145562
_cell_length_c   10.65108668
_cell_angle_alpha   90.00000000
_cell_angle_beta   90.00000000
_cell_angle_gamma   90.00000000
_symmetry_Int_Tables_number   1
_chemical_formula_structural   CrFe
_chemical_formula_sum   'Cr27 Fe27'
_cell_volume   604.15971289
_cell_formula_units_Z   27
loop_
 _symmetry_equiv_pos_site_id
 _symmetry_equiv_pos_as_xyz
  1  'x, y, z'
loop_
 _atom_site_type_symbol
 _atom_site_label
 _atom_site_symmetry_multiplicity
 _atom_site_fract_x
 _atom_site_fract_y
 _atom_site_fract_z
 _atom_site_occupancy
  Cr  Cr0  1  0.99262199  0.99529297  -0.00221457  1
  Fe  Fe1  1  0.16383235  0.16320273  0.16311294  1
  Cr  Cr2  1  0.99158101  -0.00331001  0.32378700  1
  Cr  Cr3  1  0.99467231  0.33040592  -0.00278414  1
  Cr  Cr4  1  0.16196697  0.49367891  0.16462971  1
  Fe  Fe5  1  0.99256774  0.32811264  0.32748176  1
  Cr  Cr6  1  0.99532412  0.66127076  0.99391214  1
  Cr  Cr7  1  0.16357460  0.83096162  0.16305194  1
  Cr  Cr8  1  -0.00421447  0.66014996  0.32726208  1
  Cr  Cr9  1  0.33014373  0.99533845  -0.00419049  1
  Fe  Fe10  1  0.49582318  0.16439625  0.16268220  1
  Fe  Fe11  1  0.33024191  -0.00236470  0.32867955  1
  Fe  Fe12  1  0.32976772  0.32813506  -0.00107668  1
  Fe  Fe13  1  0.49807468  0.49466216  0.16165548  1
  Cr  Cr14  1  0.33136727  0.33312002  0.32851021  1
  Cr  Cr15  1  0.32858167  0.65806167  0.99431730  1
  Cr  Cr16  1  0.49762581  0.82733035  0.16376563  1
  Fe  Fe17  1  0.33178053  0.66349239  0.33027763  1
  Cr  Cr18  1  0.66433745  -0.00216784  -0.00340409  1
  Fe  Fe19  1  0.82663937  0.16629662  0.16307271  1
  Cr  Cr20  1  0.66204884  -0.00275366  0.33083749  1
  Fe  Fe21  1  0.66338876  0.33071834  -0.00106353  1
  Fe  Fe22  1  0.82556145  0.49606929  0.16326638  1
  Fe  Fe23  1  0.66409279  0.33024207  0.32820267  1
  Fe  Fe24  1  0.66442459  0.66067892  -0.00207517  1
  Fe  Fe25  1  0.82729539  0.82590820  0.16247313  1
  Fe  Fe26  1  0.66082139  0.65913482  0.32874400  1
  Cr  Cr27  1  0.16095868  0.16447372  0.49214594  1
  Cr  Cr28  1  0.99294029  -0.00374281  0.66516745  1
  Cr  Cr29  1  0.16232106  0.16334928  0.83206900  1
  Fe  Fe30  1  0.16088606  0.49621378  0.49423319  1
  Fe  Fe31  1  0.99562594  0.32951203  0.66318604  1
  Fe  Fe32  1  0.16135655  0.49545918  0.82835038  1
  Cr  Cr33  1  0.16274475  0.83098250  0.49387791  1
  Fe  Fe34  1  -0.00407124  0.65980104  0.66295991  1
  Fe  Fe35  1  0.16269127  0.82806778  0.82818790  1
  Fe  Fe36  1  0.49728266  0.16601797  0.49478831  1
  Cr  Cr37  1  0.33150242  -0.00407765  0.66046733  1
  Cr  Cr38  1  0.49577719  0.16489139  0.83127948  1
  Fe  Fe39  1  0.49696930  0.49687353  0.49475793  1
  Cr  Cr40  1  0.32974597  0.33233873  0.66229084  1
  Cr  Cr41  1  0.49995601  0.49448895  0.83346156  1
  Fe  Fe42  1  0.49597971  0.82701084  0.49399783  1
  Cr  Cr43  1  0.32736983  0.65977575  0.66044677  1
  Cr  Cr44  1  0.49705625  0.82808180  0.82819469  1
  Fe  Fe45  1  0.82947545  0.16352429  0.49533007  1
  Cr  Cr46  1  0.66313788  -0.00131741  0.65969593  1
  Fe  Fe47  1  0.82728868  0.16560992  0.82925248  1
  Cr  Cr48  1  0.82828459  0.49284915  0.49700791  1
  Fe  Fe49  1  0.66295850  0.33002436  0.66218654  1
  Fe  Fe50  1  0.82975253  0.49229888  0.82700983  1
  Cr  Cr51  1  0.82790039  0.82562707  0.49525206  1
  Fe  Fe52  1  0.66115288  0.66022887  0.66160036  1
  Cr  Cr53  1  0.82811280  0.82467276  0.82898870  1
" 