7858,Fe51Cr49_17,-216.476123476338, 182.166156425948,Fe51Cr49,"# generated using pymatgen
 data_CrFe
_symmetry_space_group_name_H-M   'P 1'
_cell_length_a   7.53712037
_cell_length_b   7.53712037
_cell_length_c   10.65909784
_cell_angle_alpha   90.00000000
_cell_angle_beta   90.00000000
_cell_angle_gamma   90.00000000
_symmetry_Int_Tables_number   1
_chemical_formula_structural   CrFe
_chemical_formula_sum   'Cr27 Fe27'
_cell_volume   605.52398512
_cell_formula_units_Z   27
loop_
 _symmetry_equiv_pos_site_id
 _symmetry_equiv_pos_as_xyz
  1  'x, y, z'
loop_
 _atom_site_type_symbol
 _atom_site_label
 _atom_site_symmetry_multiplicity
 _atom_site_fract_x
 _atom_site_fract_y
 _atom_site_fract_z
 _atom_site_occupancy
  Fe  Fe0  1  -0.00439461  0.99529877  -0.00281878  1
  Fe  Fe1  1  0.16170761  0.16398483  0.16180155  1
  Cr  Cr2  1  -0.00379312  0.00040132  0.32721645  1
  Cr  Cr3  1  0.99441849  0.32880083  0.99505187  1
  Cr  Cr4  1  0.16173995  0.49690514  0.16387786  1
  Fe  Fe5  1  -0.00458825  0.32816980  0.32700973  1
  Fe  Fe6  1  -0.00433346  0.66270645  -0.00325119  1
  Fe  Fe7  1  0.16180413  0.82798832  0.16290497  1
  Fe  Fe8  1  0.99521306  0.66380137  0.32734734  1
  Cr  Cr9  1  0.32755339  0.99447708  0.00018730  1
  Fe  Fe10  1  0.49616307  0.16194918  0.16297753  1
  Cr  Cr11  1  0.32866744  0.99291206  0.32737730  1
  Fe  Fe12  1  0.32842362  0.32812057  -0.00212720  1
  Cr  Cr13  1  0.49630524  0.49069864  0.16367957  1
  Fe  Fe14  1  0.32738257  0.32529413  0.32861441  1
  Cr  Cr15  1  0.32943340  0.66243969  -0.00389966  1
  Fe  Fe16  1  0.49675721  0.82647144  0.16334766  1
  Fe  Fe17  1  0.32984150  0.66220274  0.32750037  1
  Cr  Cr18  1  0.66135063  0.99476056  0.99517277  1
  Fe  Fe19  1  0.82733946  0.16520273  0.16207252  1
  Cr  Cr20  1  0.66159209  0.99492644  0.33115199  1
  Fe  Fe21  1  0.66163839  0.32780461  -0.00241298  1
  Fe  Fe22  1  0.82873305  0.49431892  0.16404394  1
  Fe  Fe23  1  0.66333028  0.32648759  0.32796696  1
  Cr  Cr24  1  0.66133661  0.66011183  0.99356487  1
  Cr  Cr25  1  0.83168444  0.82932231  0.15981258  1
  Fe  Fe26  1  0.66149629  0.66329567  0.32676821  1
  Fe  Fe27  1  0.16172243  0.16371109  0.49565040  1
  Cr  Cr28  1  -0.00401684  -0.00136557  0.66171524  1
  Cr  Cr29  1  0.16472218  0.16217029  0.82845917  1
  Cr  Cr30  1  0.16193729  0.49429471  0.49541262  1
  Fe  Fe31  1  -0.00456192  0.32961003  0.66112672  1
  Cr  Cr32  1  0.16290980  0.49569564  0.82608312  1
  Cr  Cr33  1  0.16129049  0.82772346  0.49341653  1
  Fe  Fe34  1  0.99397588  0.66168668  0.66161593  1
  Cr  Cr35  1  0.15753960  0.82856228  0.83175461  1
  Cr  Cr36  1  0.49512849  0.16121299  0.49737195  1
  Fe  Fe37  1  0.32828886  0.99504209  0.66044831  1
  Cr  Cr38  1  0.49415897  0.16312440  0.83111868  1
  Cr  Cr39  1  0.49457126  0.49515634  0.49337288  1
  Fe  Fe40  1  0.32776746  0.32722253  0.66062177  1
  Cr  Cr41  1  0.49311722  0.49198315  0.82882178  1
  Fe  Fe42  1  0.49459106  0.82642257  0.49742549  1
  Fe  Fe43  1  0.32863375  0.66303447  0.66114496  1
  Cr  Cr44  1  0.49574142  0.83090139  0.82318361  1
  Fe  Fe45  1  0.83034298  0.16448607  0.49528992  1
  Fe  Fe46  1  0.66164549  -0.00434897  0.66083092  1
  Cr  Cr47  1  0.82737408  0.15843595  0.82957899  1
  Cr  Cr48  1  0.82981399  0.49631785  0.48954894  1
  Cr  Cr49  1  0.66571814  0.33083235  0.66300508  1
  Cr  Cr50  1  0.83017979  0.49804892  0.83044565  1
  Cr  Cr51  1  0.82784712  0.82979727  0.49777975  1
  Fe  Fe52  1  0.66283703  0.66200831  0.66139456  1
  Fe  Fe53  1  0.82890197  0.82836113  0.82742491  1
" 