5703,Fe51Cr49_0,-216.329316941301, 174.223973534339,Fe51Cr49,"# generated using pymatgen
 data_CrFe
_symmetry_space_group_name_H-M   'P 1'
_cell_length_a   7.53165706
_cell_length_b   7.53165706
_cell_length_c   10.65137156
_cell_angle_alpha   90.00000000
_cell_angle_beta   90.00000000
_cell_angle_gamma   90.00000000
_symmetry_Int_Tables_number   1
_chemical_formula_structural   CrFe
_chemical_formula_sum   'Cr27 Fe27'
_cell_volume   604.20819112
_cell_formula_units_Z   27
loop_
 _symmetry_equiv_pos_site_id
 _symmetry_equiv_pos_as_xyz
  1  'x, y, z'
loop_
 _atom_site_type_symbol
 _atom_site_label
 _atom_site_symmetry_multiplicity
 _atom_site_fract_x
 _atom_site_fract_y
 _atom_site_fract_z
 _atom_site_occupancy
  Fe  Fe0  1  0.99545070  0.99492260  -0.00290794  1
  Cr  Cr1  1  0.16512318  0.16274660  0.16559908  1
  Fe  Fe2  1  0.99374758  0.99554483  0.32726837  1
  Cr  Cr3  1  -0.00388693  0.32590438  0.99238565  1
  Cr  Cr4  1  0.16185987  0.49508324  0.16333037  1
  Fe  Fe5  1  0.99467562  0.32734109  0.32748342  1
  Fe  Fe6  1  0.99562163  0.66293111  -0.00219326  1
  Fe  Fe7  1  0.16087138  0.83010172  0.16048226  1
  Cr  Cr8  1  0.99422363  0.66373380  0.32473456  1
  Fe  Fe9  1  0.32744659  -0.00212559  -0.00336241  1
  Fe  Fe10  1  0.49649795  0.16504517  0.16009268  1
  Cr  Cr11  1  0.32856639  0.99468532  0.32914694  1
  Fe  Fe12  1  0.33021106  0.32884720  0.99539232  1
  Fe  Fe13  1  0.49468266  0.49227177  0.16164003  1
  Fe  Fe14  1  0.33149816  0.33055606  0.32842853  1
  Cr  Cr15  1  0.32915992  0.66170891  0.99397688  1
  Cr  Cr16  1  0.49568382  0.83279769  0.16069901  1
  Cr  Cr17  1  0.33227188  0.66288601  0.33172810  1
  Fe  Fe18  1  0.66475846  -0.00158303  -0.00274017  1
  Fe  Fe19  1  0.82911858  0.16185095  0.16122791  1
  Cr  Cr20  1  0.66369806  0.99463724  0.32841877  1
  Fe  Fe21  1  0.66149887  0.32827631  -0.00229493  1
  Fe  Fe22  1  0.82878220  0.49377565  0.16096569  1
  Cr  Cr23  1  0.66325622  0.32987242  0.32726536  1
  Cr  Cr24  1  0.66249145  0.66189220  -0.00010316  1
  Fe  Fe25  1  0.83244414  0.83122944  0.16053463  1
  Cr  Cr26  1  0.66063651  0.66264175  0.32836857  1
  Cr  Cr27  1  0.16249966  0.16302575  0.49176451  1
  Fe  Fe28  1  -0.00342739  -0.00412129  0.66374299  1
  Fe  Fe29  1  0.16226850  0.15995841  0.83006195  1
  Cr  Cr30  1  0.16144503  0.49514759  0.49413673  1
  Cr  Cr31  1  -0.00390855  0.32518295  0.66463179  1
  Fe  Fe32  1  0.16388250  0.49607627  0.82927771  1
  Cr  Cr33  1  0.16218271  0.82890596  0.49695968  1
  Fe  Fe34  1  -0.00237612  0.66161401  0.66304123  1
  Cr  Cr35  1  0.16154770  0.82812080  0.82993645  1
  Cr  Cr36  1  0.49552378  0.16214765  0.49526526  1
  Fe  Fe37  1  0.32862382  -0.00408712  0.66213348  1
  Cr  Cr38  1  0.49696851  0.16300559  0.83327276  1
  Fe  Fe39  1  0.49473738  0.49464717  0.49656473  1
  Cr  Cr40  1  0.32727237  0.32978222  0.66489571  1
  Fe  Fe41  1  0.49578232  0.49610677  0.82934874  1
  Fe  Fe42  1  0.49462446  0.82972634  0.49784804  1
  Fe  Fe43  1  0.32785734  0.66191430  0.66249409  1
  Cr  Cr44  1  0.49589952  0.83228419  0.82636875  1
  Cr  Cr45  1  0.82875757  0.16268100  0.49728458  1
  Fe  Fe46  1  0.66224911  -0.00149018  0.66281367  1
  Fe  Fe47  1  0.82821416  0.15967368  0.82884559  1
  Cr  Cr48  1  0.83034324  0.49501997  0.49475833  1
  Fe  Fe49  1  0.66094591  0.32842890  0.66347686  1
  Cr  Cr50  1  0.82899505  0.49635046  0.82851495  1
  Cr  Cr51  1  0.82950655  0.82932967  0.49754136  1
  Cr  Cr52  1  0.65826142  0.66256022  0.65836777  1
  Cr  Cr53  1  0.82931748  0.82881752  0.82946864  1
" 