7197,Fe51Cr49_18,-216.214822111509, 172.502258303552,Fe51Cr49,"# generated using pymatgen
 data_CrFe
_symmetry_space_group_name_H-M   'P 1'
_cell_length_a   7.55303100
_cell_length_b   7.55303100
_cell_length_c   10.68159888
_cell_angle_alpha   90.00000000
_cell_angle_beta   90.00000000
_cell_angle_gamma   90.00000000
_symmetry_Int_Tables_number   1
_chemical_formula_structural   CrFe
_chemical_formula_sum   'Cr27 Fe27'
_cell_volume   609.36681511
_cell_formula_units_Z   27
loop_
 _symmetry_equiv_pos_site_id
 _symmetry_equiv_pos_as_xyz
  1  'x, y, z'
loop_
 _atom_site_type_symbol
 _atom_site_label
 _atom_site_symmetry_multiplicity
 _atom_site_fract_x
 _atom_site_fract_y
 _atom_site_fract_z
 _atom_site_occupancy
  Cr  Cr0  1  -0.00558493  -0.00438487  0.99365816  1
  Cr  Cr1  1  0.16110512  0.16105755  0.16153791  1
  Fe  Fe2  1  -0.00275113  0.99350282  0.32968458  1
  Fe  Fe3  1  -0.00561047  0.32685530  0.99312607  1
  Cr  Cr4  1  0.16288505  0.49428137  0.16149578  1
  Fe  Fe5  1  -0.00395075  0.32705461  0.32919351  1
  Cr  Cr6  1  0.99298096  0.65780801  0.99264464  1
  Cr  Cr7  1  0.16247212  0.82792702  0.16171143  1
  Cr  Cr8  1  -0.00479413  0.65944408  0.32868233  1
  Cr  Cr9  1  0.32917226  -0.00171053  0.99373535  1
  Fe  Fe10  1  0.49325907  0.16089232  0.16431558  1
  Fe  Fe11  1  0.32843286  0.99319578  0.32922830  1
  Fe  Fe12  1  0.32620056  0.32836096  0.99341134  1
  Cr  Cr13  1  0.49265336  0.49194598  0.16168862  1
  Fe  Fe14  1  0.32554127  0.32742174  0.32936264  1
  Cr  Cr15  1  0.32824934  0.66155660  -0.00526638  1
  Fe  Fe16  1  0.49388872  0.82873329  0.16309187  1
  Fe  Fe17  1  0.32763343  0.66230282  0.32927273  1
  Cr  Cr18  1  0.65926186  -0.00550087  -0.00254122  1
  Cr  Cr19  1  0.82687126  0.16074120  0.16556637  1
  Fe  Fe20  1  0.65991278  0.99366410  0.32850985  1
  Fe  Fe21  1  0.66122297  0.32688289  -0.00554293  1
  Cr  Cr22  1  0.82731956  0.49150243  0.16044555  1
  Fe  Fe23  1  0.65981651  0.32809890  0.32817004  1
  Cr  Cr24  1  0.66199728  0.66135492  -0.00563892  1
  Cr  Cr25  1  0.83036597  0.82925442  0.16161323  1
  Cr  Cr26  1  0.66072674  0.66308457  0.32703926  1
  Fe  Fe27  1  0.16089252  0.16014031  0.49290190  1
  Fe  Fe28  1  -0.00154560  -0.00290650  0.65994904  1
  Fe  Fe29  1  0.16045781  0.16193675  0.82678326  1
  Fe  Fe30  1  0.15929373  0.49312500  0.49431010  1
  Fe  Fe31  1  0.99377361  0.32764444  0.66026934  1
  Fe  Fe32  1  0.15917696  0.49261778  0.82684964  1
  Fe  Fe33  1  0.16412477  0.82744867  0.49499602  1
  Fe  Fe34  1  -0.00322867  0.65878172  0.66023917  1
  Cr  Cr35  1  0.16092076  0.82766672  0.82622669  1
  Cr  Cr36  1  0.49480866  0.16208834  0.49359772  1
  Fe  Fe37  1  0.32668117  0.99372669  0.65907464  1
  Cr  Cr38  1  0.49430922  0.16248417  0.82773889  1
  Cr  Cr39  1  0.49103425  0.49578709  0.49442061  1
  Cr  Cr40  1  0.32382740  0.32541893  0.66090867  1
  Cr  Cr41  1  0.49335432  0.49369813  0.82695518  1
  Fe  Fe42  1  0.49512892  0.82853067  0.49612184  1
  Fe  Fe43  1  0.32515231  0.66031585  0.65939771  1
  Cr  Cr44  1  0.49352703  0.82750832  0.82323914  1
  Cr  Cr45  1  0.82878633  0.16054493  0.49261150  1
  Fe  Fe46  1  0.66062950  -0.00430412  0.65944312  1
  Cr  Cr47  1  0.82787962  0.16212066  0.82571602  1
  Cr  Cr48  1  0.82581919  0.49259734  0.49556349  1
  Fe  Fe49  1  0.66060913  0.32793452  0.66061625  1
  Fe  Fe50  1  0.82707342  0.49401533  0.82485577  1
  Cr  Cr51  1  0.83114485  0.82940880  0.49734850  1
  Fe  Fe52  1  0.66076175  0.66056312  0.66006034  1
  Cr  Cr53  1  0.82896253  0.82841205  0.82424289  1
" 