3642,Fe51Cr49_14,-216.218566930998, 174.177456576607,Fe51Cr49,"# generated using pymatgen
 data_CrFe
_symmetry_space_group_name_H-M   'P 1'
_cell_length_a   7.52957206
_cell_length_b   7.52957206
_cell_length_c   10.64842293
_cell_angle_alpha   90.00000000
_cell_angle_beta   90.00000000
_cell_angle_gamma   90.00000000
_symmetry_Int_Tables_number   1
_chemical_formula_structural   CrFe
_chemical_formula_sum   'Cr27 Fe27'
_cell_volume   603.70653897
_cell_formula_units_Z   27
loop_
 _symmetry_equiv_pos_site_id
 _symmetry_equiv_pos_as_xyz
  1  'x, y, z'
loop_
 _atom_site_type_symbol
 _atom_site_label
 _atom_site_symmetry_multiplicity
 _atom_site_fract_x
 _atom_site_fract_y
 _atom_site_fract_z
 _atom_site_occupancy
  Fe  Fe0  1  -0.00363253  0.99317518  0.99519076  1
  Cr  Cr1  1  0.16042476  0.16157529  0.15880871  1
  Cr  Cr2  1  -0.00245355  0.99528948  0.33113663  1
  Fe  Fe3  1  0.99583982  0.32959985  0.99569972  1
  Fe  Fe4  1  0.16289688  0.49685712  0.16140976  1
  Cr  Cr5  1  -0.00379496  0.32885568  0.33090092  1
  Cr  Cr6  1  -0.00280477  0.66279321  0.99394279  1
  Fe  Fe7  1  0.16479660  0.82715416  0.16256378  1
  Cr  Cr8  1  -0.00262364  0.66322533  0.33114230  1
  Cr  Cr9  1  0.33087251  0.99544195  -0.00302442  1
  Fe  Fe10  1  0.49709344  0.16234008  0.16348986  1
  Fe  Fe11  1  0.32961353  0.99479879  0.32817429  1
  Fe  Fe12  1  0.33111858  0.33007913  -0.00295706  1
  Cr  Cr13  1  0.49404802  0.49942161  0.16447024  1
  Cr  Cr14  1  0.33094561  0.32579523  0.32992423  1
  Fe  Fe15  1  0.32950572  0.66403749  -0.00352522  1
  Fe  Fe16  1  0.49439460  0.83047085  0.16483929  1
  Fe  Fe17  1  0.32808674  0.66546300  0.32797830  1
  Cr  Cr18  1  0.65869963  -0.00337800  0.99449891  1
  Cr  Cr19  1  0.82972106  0.16160929  0.16061625  1
  Fe  Fe20  1  0.66052766  -0.00198720  0.32955288  1
  Fe  Fe21  1  0.66031150  0.32925751  0.99510950  1
  Cr  Cr22  1  0.82721155  0.49395860  0.16186412  1
  Fe  Fe23  1  0.66221188  0.32612467  0.32978960  1
  Cr  Cr24  1  0.66230008  0.66322830  0.99190247  1
  Cr  Cr25  1  0.82732985  0.83179645  0.16421325  1
  Fe  Fe26  1  0.66176344  0.66393750  0.32874166  1
  Fe  Fe27  1  0.16589863  0.15965817  0.49650398  1
  Cr  Cr28  1  -0.00335011  0.99349675  0.66031561  1
  Cr  Cr29  1  0.16240938  0.16151067  0.82886753  1
  Cr  Cr30  1  0.16596260  0.49542429  0.49687467  1
  Cr  Cr31  1  0.99584443  0.32932685  0.65894423  1
  Cr  Cr32  1  0.16469726  0.49363393  0.83063997  1
  Fe  Fe33  1  0.16466417  0.83037328  0.49548351  1
  Cr  Cr34  1  0.99454996  0.66405576  0.66291646  1
  Fe  Fe35  1  0.16346296  0.83049381  0.83010459  1
  Fe  Fe36  1  0.49587182  0.16110056  0.49592523  1
  Fe  Fe37  1  0.33134487  -0.00249993  0.66246270  1
  Fe  Fe38  1  0.49427364  0.16228858  0.82837804  1
  Cr  Cr39  1  0.49553879  0.49807644  0.49518505  1
  Fe  Fe40  1  0.32968943  0.32559660  0.66154479  1
  Cr  Cr41  1  0.49433965  0.49637534  0.82846462  1
  Cr  Cr42  1  0.49667462  0.82988720  0.49384331  1
  Cr  Cr43  1  0.32805044  0.66530927  0.66455860  1
  Fe  Fe44  1  0.49416825  0.83273594  0.82820166  1
  Fe  Fe45  1  0.82591208  0.15988884  0.49510805  1
  Fe  Fe46  1  0.66162646  0.99567243  0.66309720  1
  Cr  Cr47  1  0.83098218  0.16035237  0.83316372  1
  Cr  Cr48  1  0.82600527  0.49660971  0.49461661  1
  Cr  Cr49  1  0.65988371  0.32641083  0.66292295  1
  Fe  Fe50  1  0.83031161  0.49348480  0.83009471  1
  Fe  Fe51  1  0.82735601  0.83075215  0.49491172  1
  Cr  Cr52  1  0.66509597  0.66456455  0.66655285  1
  Fe  Fe53  1  0.83012793  0.83029625  0.82966010  1
" 