5036,Fe52Cr48_15,-215.931472874654, 180.124099178104,Fe52Cr48,"# generated using pymatgen
 data_Cr14Fe13
_symmetry_space_group_name_H-M   'P 1'
_cell_length_a   7.54634428
_cell_length_b   7.54634428
_cell_length_c   10.67214243
_cell_angle_alpha   90.00000000
_cell_angle_beta   90.00000000
_cell_angle_gamma   90.00000000
_symmetry_Int_Tables_number   1
_chemical_formula_structural   Cr14Fe13
_chemical_formula_sum   'Cr28 Fe26'
_cell_volume   607.74982461
_cell_formula_units_Z   2
loop_
 _symmetry_equiv_pos_site_id
 _symmetry_equiv_pos_as_xyz
  1  'x, y, z'
loop_
 _atom_site_type_symbol
 _atom_site_label
 _atom_site_symmetry_multiplicity
 _atom_site_fract_x
 _atom_site_fract_y
 _atom_site_fract_z
 _atom_site_occupancy
  Cr  Cr0  1  0.99430610  -0.00449225  0.00075681  1
  Fe  Fe1  1  0.16361889  0.16467814  0.16152443  1
  Cr  Cr2  1  -0.00517215  -0.00375928  0.32328399  1
  Cr  Cr3  1  0.99356524  0.32874499  -0.00501188  1
  Cr  Cr4  1  0.16324514  0.49681211  0.16159301  1
  Cr  Cr5  1  -0.00507989  0.32953995  0.32662287  1
  Cr  Cr6  1  0.99308651  0.66009290  0.99473466  1
  Fe  Fe7  1  0.16230562  0.82601466  0.16180588  1
  Fe  Fe8  1  0.99380379  0.66421659  0.32571723  1
  Cr  Cr9  1  0.32903060  -0.00518672  0.00031554  1
  Fe  Fe10  1  0.49570799  0.16313347  0.16204250  1
  Cr  Cr11  1  0.32903304  0.99408993  0.32646581  1
  Fe  Fe12  1  0.32945371  0.32857976  0.99397546  1
  Cr  Cr13  1  0.49641301  0.49366328  0.16176433  1
  Fe  Fe14  1  0.32862013  0.32688044  0.32673808  1
  Fe  Fe15  1  0.32801711  0.66033264  0.99471603  1
  Fe  Fe16  1  0.49460675  0.82537936  0.16158060  1
  Fe  Fe17  1  0.32852035  0.66336455  0.32723763  1
  Cr  Cr18  1  0.66062011  0.99420157  -0.00393370  1
  Fe  Fe19  1  0.82464744  0.16395009  0.16166599  1
  Cr  Cr20  1  0.66014410  0.99155325  0.32776149  1
  Fe  Fe21  1  0.66122043  0.32705758  0.99358791  1
  Fe  Fe22  1  0.82747689  0.49484773  0.16285373  1
  Fe  Fe23  1  0.66190714  0.32550275  0.32580015  1
  Cr  Cr24  1  0.66133985  0.66002025  0.99454124  1
  Fe  Fe25  1  0.82686248  0.82529810  0.16199543  1
  Fe  Fe26  1  0.66221710  0.66242506  0.32578576  1
  Cr  Cr27  1  0.16033095  0.16066354  0.49435610  1
  Fe  Fe28  1  0.99238825  0.99290449  0.66264719  1
  Cr  Cr29  1  0.16068976  0.15945511  0.82797846  1
  Cr  Cr30  1  0.16189493  0.49709358  0.49321043  1
  Cr  Cr31  1  0.99464374  0.33037598  0.66235681  1
  Fe  Fe32  1  0.16247324  0.49479726  0.82947242  1
  Cr  Cr33  1  0.15832213  0.82737713  0.49538431  1
  Fe  Fe34  1  0.99365214  0.66157022  0.66265652  1
  Cr  Cr35  1  0.15978087  0.82717987  0.82979385  1
  Cr  Cr36  1  0.49717218  0.16261467  0.49492454  1
  Cr  Cr37  1  0.33050986  0.99421540  0.65856778  1
  Fe  Fe38  1  0.49465797  0.16165770  0.82918084  1
  Cr  Cr39  1  0.49542936  0.49495551  0.48941356  1
  Cr  Cr40  1  0.32727194  0.32854663  0.66173030  1
  Fe  Fe41  1  0.49402566  0.49368474  0.83054766  1
  Fe  Fe42  1  0.49588214  0.82697758  0.49369259  1
  Cr  Cr43  1  0.32949074  0.66052206  0.66228166  1
  Cr  Cr44  1  0.49476356  0.82805716  0.82916471  1
  Cr  Cr45  1  0.82749156  0.15947397  0.49691659  1
  Fe  Fe46  1  0.66276740  0.99470803  0.66301577  1
  Fe  Fe47  1  0.82726037  0.15938915  0.82842293  1
  Cr  Cr48  1  0.82712308  0.49607924  0.48958312  1
  Cr  Cr49  1  0.66180668  0.33009455  0.66450294  1
  Fe  Fe50  1  0.82793322  0.49599777  0.82838258  1
  Fe  Fe51  1  0.82791102  0.82807437  0.49412480  1
  Cr  Cr52  1  0.66266123  0.66328624  0.66015857  1
  Fe  Fe53  1  0.82843368  0.82959226  0.82789707  1
" 