3704,Fe52Cr48_3,-215.876390851997, 171.47048708684,Fe52Cr48,"# generated using pymatgen
 data_Cr14Fe13
_symmetry_space_group_name_H-M   'P 1'
_cell_length_a   7.53364884
_cell_length_b   7.53364884
_cell_length_c   10.65418837
_cell_angle_alpha   90.00000000
_cell_angle_beta   90.00000000
_cell_angle_gamma   90.00000000
_symmetry_Int_Tables_number   1
_chemical_formula_structural   Cr14Fe13
_chemical_formula_sum   'Cr28 Fe26'
_cell_volume   604.68767576
_cell_formula_units_Z   2
loop_
 _symmetry_equiv_pos_site_id
 _symmetry_equiv_pos_as_xyz
  1  'x, y, z'
loop_
 _atom_site_type_symbol
 _atom_site_label
 _atom_site_symmetry_multiplicity
 _atom_site_fract_x
 _atom_site_fract_y
 _atom_site_fract_z
 _atom_site_occupancy
  Cr  Cr0  1  -0.00302366  -0.00060634  0.99506391  1
  Fe  Fe1  1  0.16554305  0.16374632  0.16286083  1
  Fe  Fe2  1  -0.00198188  -0.00359552  0.32844242  1
  Cr  Cr3  1  0.99489787  0.32670374  0.99529117  1
  Fe  Fe4  1  0.16408499  0.49337259  0.16205146  1
  Cr  Cr5  1  -0.00388991  0.32582505  0.32726374  1
  Cr  Cr6  1  0.99518949  0.66054349  -0.00361275  1
  Cr  Cr7  1  0.16335009  0.83123788  0.16048239  1
  Cr  Cr8  1  -0.00145856  0.66034787  0.32754573  1
  Fe  Fe9  1  0.33094850  -0.00024516  -0.00271448  1
  Fe  Fe10  1  0.49536988  0.15887921  0.16257146  1
  Fe  Fe11  1  0.32907647  -0.00152996  0.32959315  1
  Fe  Fe12  1  0.32785948  0.32710241  -0.00310411  1
  Cr  Cr13  1  0.49395723  0.49029237  0.16225527  1
  Fe  Fe14  1  0.32939775  0.32743026  0.32985994  1
  Cr  Cr15  1  0.33134647  0.66475463  -0.00341102  1
  Fe  Fe16  1  0.49629555  0.83107397  0.16332869  1
  Cr  Cr17  1  0.33173416  0.66438072  0.33033966  1
  Fe  Fe18  1  0.66209398  -0.00376380  -0.00245080  1
  Fe  Fe19  1  0.82661663  0.16121717  0.16412164  1
  Fe  Fe20  1  0.65837286  -0.00344286  0.32831124  1
  Cr  Cr21  1  0.66314066  0.32728701  0.99422277  1
  Cr  Cr22  1  0.82748308  0.49462988  0.16448633  1
  Fe  Fe23  1  0.65831613  0.32684532  0.32888015  1
  Cr  Cr24  1  0.66031190  0.66235896  -0.00415090  1
  Cr  Cr25  1  0.82873217  0.83052030  0.16525538  1
  Fe  Fe26  1  0.66028015  0.66261466  0.32912357  1
  Fe  Fe27  1  0.16373250  0.16393691  0.49409514  1
  Cr  Cr28  1  -0.00284316  -0.00063994  0.66224732  1
  Fe  Fe29  1  0.16524042  0.16204630  0.82924253  1
  Fe  Fe30  1  0.16412370  0.49263517  0.49602635  1
  Cr  Cr31  1  0.99546604  0.32688124  0.66414118  1
  Cr  Cr32  1  0.16563334  0.49380085  0.82933210  1
  Cr  Cr33  1  0.16209147  0.82879703  0.49722670  1
  Cr  Cr34  1  0.99509119  0.66024718  0.66266757  1
  Cr  Cr35  1  0.16300097  0.82884849  0.82883976  1
  Fe  Fe36  1  0.49415170  0.16279801  0.49414186  1
  Cr  Cr37  1  0.33052449  -0.00417589  0.65975390  1
  Cr  Cr38  1  0.49480445  0.16494951  0.83003856  1
  Fe  Fe39  1  0.49387508  0.49350262  0.49448526  1
  Fe  Fe40  1  0.32914323  0.32959874  0.66019368  1
  Fe  Fe41  1  0.49446607  0.49620934  0.82910427  1
  Fe  Fe42  1  0.49718342  0.83073730  0.49474177  1
  Fe  Fe43  1  0.32948735  0.65949918  0.66062451  1
  Cr  Cr44  1  0.49519848  0.83230252  0.82988174  1
  Cr  Cr45  1  0.82582193  0.16098944  0.49406339  1
  Fe  Fe46  1  0.66182161  -0.00334410  0.66143208  1
  Fe  Fe47  1  0.82789150  0.16140327  0.82868634  1
  Cr  Cr48  1  0.82746122  0.49511030  0.49276623  1
  Cr  Cr49  1  0.66120263  0.32905601  0.66349434  1
  Fe  Fe50  1  0.82785288  0.49551788  0.82896786  1
  Cr  Cr51  1  0.82881848  0.83010496  0.49362390  1
  Cr  Cr52  1  0.65747244  0.66172623  0.66184576  1
  Cr  Cr53  1  0.82854853  0.83078775  0.82773553  1
" 