6235,Fe52Cr48_6,-216.089981582546, 175.921672919829,Fe52Cr48,"# generated using pymatgen
 data_Cr14Fe13
_symmetry_space_group_name_H-M   'P 1'
_cell_length_a   7.54462478
_cell_length_b   7.54462478
_cell_length_c   10.66971068
_cell_angle_alpha   90.00000000
_cell_angle_beta   90.00000000
_cell_angle_gamma   90.00000000
_symmetry_Int_Tables_number   1
_chemical_formula_structural   Cr14Fe13
_chemical_formula_sum   'Cr28 Fe26'
_cell_volume   607.33447498
_cell_formula_units_Z   2
loop_
 _symmetry_equiv_pos_site_id
 _symmetry_equiv_pos_as_xyz
  1  'x, y, z'
loop_
 _atom_site_type_symbol
 _atom_site_label
 _atom_site_symmetry_multiplicity
 _atom_site_fract_x
 _atom_site_fract_y
 _atom_site_fract_z
 _atom_site_occupancy
  Cr  Cr0  1  0.99123704  -0.00279329  0.99471301  1
  Cr  Cr1  1  0.16465682  0.16070868  0.16457252  1
  Fe  Fe2  1  -0.00428915  0.99354488  0.32910233  1
  Cr  Cr3  1  0.99272419  0.32479301  -0.00397097  1
  Cr  Cr4  1  0.16165616  0.49438382  0.15748089  1
  Cr  Cr5  1  0.99394041  0.32580916  0.32637581  1
  Cr  Cr6  1  0.99179409  0.66126233  -0.00469676  1
  Cr  Cr7  1  0.16333415  0.82863204  0.15768584  1
  Cr  Cr8  1  -0.00472488  0.66178555  0.32640196  1
  Fe  Fe9  1  0.32967482  -0.00169588  0.99442090  1
  Cr  Cr10  1  0.49748019  0.16220781  0.16167150  1
  Fe  Fe11  1  0.32732459  0.99327064  0.33009801  1
  Cr  Cr12  1  0.33346502  0.32844920  0.99290498  1
  Fe  Fe13  1  0.49604026  0.49518453  0.16197635  1
  Cr  Cr14  1  0.32962017  0.32855764  0.33131128  1
  Fe  Fe15  1  0.33047148  0.66086415  0.99449174  1
  Cr  Cr16  1  0.49486245  0.83116772  0.16111754  1
  Cr  Cr17  1  0.33023135  0.66160167  0.32905279  1
  Fe  Fe18  1  0.66164590  -0.00092798  0.99412175  1
  Fe  Fe19  1  0.82700724  0.16024940  0.16339394  1
  Fe  Fe20  1  0.66058343  -0.00485404  0.32922772  1
  Fe  Fe21  1  0.66356204  0.32703333  0.99366162  1
  Fe  Fe22  1  0.82392111  0.49256027  0.16210169  1
  Fe  Fe23  1  0.66125701  0.32946745  0.32825031  1
  Cr  Cr24  1  0.65947614  0.66068335  0.99432247  1
  Cr  Cr25  1  0.82561717  0.82834581  0.16326193  1
  Fe  Fe26  1  0.66041706  0.65962592  0.32825921  1
  Fe  Fe27  1  0.15990523  0.15875875  0.49647889  1
  Fe  Fe28  1  -0.00448654  -0.00398840  0.66124624  1
  Cr  Cr29  1  0.16435089  0.16252407  0.82454618  1
  Cr  Cr30  1  0.16089397  0.49196328  0.49795582  1
  Fe  Fe31  1  0.99429407  0.32632810  0.66125219  1
  Cr  Cr32  1  0.16154916  0.49378896  0.82956658  1
  Fe  Fe33  1  0.16182567  0.82993273  0.49498781  1
  Cr  Cr34  1  -0.00393632  0.66479813  0.66263467  1
  Cr  Cr35  1  0.16256505  0.82827579  0.83334783  1
  Cr  Cr36  1  0.49233184  0.15968989  0.49531641  1
  Fe  Fe37  1  0.32777975  0.99354333  0.66087802  1
  Fe  Fe38  1  0.49848992  0.16374066  0.82597554  1
  Fe  Fe39  1  0.49706922  0.49495259  0.49634907  1
  Fe  Fe40  1  0.33048411  0.32753160  0.66135281  1
  Fe  Fe41  1  0.49601490  0.49483829  0.82661136  1
  Fe  Fe42  1  0.49489384  0.82760634  0.49501755  1
  Cr  Cr43  1  0.33072272  0.66165307  0.66199873  1
  Cr  Cr44  1  0.49514101  0.83265232  0.83020900  1
  Cr  Cr45  1  0.82716765  0.16157615  0.49500863  1
  Fe  Fe46  1  0.65939609  -0.00444202  0.66114442  1
  Fe  Fe47  1  0.82707872  0.16128041  0.82495588  1
  Cr  Cr48  1  0.82757844  0.49584477  0.49551842  1
  Fe  Fe49  1  0.65912799  0.32799306  0.66118228  1
  Cr  Cr50  1  0.82824518  0.49304343  0.82477807  1
  Cr  Cr51  1  0.82550622  0.82760480  0.49547569  1
  Fe  Fe52  1  0.65966500  0.66154352  0.66147667  1
  Cr  Cr53  1  0.82573401  0.82942329  0.82579895  1
" 