564,Fe52Cr48_8,-215.764294956476, 176.785818864559,Fe52Cr48,"# generated using pymatgen
 data_Cr14Fe13
_symmetry_space_group_name_H-M   'P 1'
_cell_length_a   7.53489652
_cell_length_b   7.53489652
_cell_length_c   10.65595285
_cell_angle_alpha   90.00000000
_cell_angle_beta   90.00000000
_cell_angle_gamma   90.00000000
_symmetry_Int_Tables_number   1
_chemical_formula_structural   Cr14Fe13
_chemical_formula_sum   'Cr28 Fe26'
_cell_volume   604.98815873
_cell_formula_units_Z   2
loop_
 _symmetry_equiv_pos_site_id
 _symmetry_equiv_pos_as_xyz
  1  'x, y, z'
loop_
 _atom_site_type_symbol
 _atom_site_label
 _atom_site_symmetry_multiplicity
 _atom_site_fract_x
 _atom_site_fract_y
 _atom_site_fract_z
 _atom_site_occupancy
  Fe  Fe0  1  -0.00396705  0.99394104  0.99450977  1
  Cr  Cr1  1  0.16288403  0.16170426  0.15817187  1
  Cr  Cr2  1  0.99457389  -0.00424881  0.33187066  1
  Fe  Fe3  1  -0.00385471  0.33021422  0.99467779  1
  Fe  Fe4  1  0.16182368  0.49332370  0.16118609  1
  Cr  Cr5  1  -0.00271411  0.32822502  0.33015653  1
  Fe  Fe6  1  0.99486510  0.66301087  0.99460664  1
  Cr  Cr7  1  0.15996148  0.82805603  0.16173653  1
  Fe  Fe8  1  0.99417493  0.66339930  0.32848479  1
  Fe  Fe9  1  0.32960385  0.99522735  0.99397215  1
  Cr  Cr10  1  0.49526439  0.16233410  0.16264005  1
  Cr  Cr11  1  0.32801023  0.99276954  0.32847435  1
  Fe  Fe12  1  0.33035162  0.32898188  0.99394994  1
  Fe  Fe13  1  0.49477000  0.49329393  0.16141034  1
  Fe  Fe14  1  0.32864678  0.32888356  0.32755983  1
  Cr  Cr15  1  0.32983765  0.66123417  -0.00193802  1
  Fe  Fe16  1  0.49604949  0.82959899  0.16153850  1
  Cr  Cr17  1  0.32832967  0.65983770  0.32543224  1
  Cr  Cr18  1  0.66192248  0.99356359  -0.00358934  1
  Cr  Cr19  1  0.82858102  0.16282299  0.16175767  1
  Cr  Cr20  1  0.66417738  0.99397085  0.32967573  1
  Fe  Fe21  1  0.65979575  0.33033338  0.99445281  1
  Cr  Cr22  1  0.82997386  0.49673471  0.15981385  1
  Cr  Cr23  1  0.66307575  0.32946883  0.32960936  1
  Cr  Cr24  1  0.66017036  0.66233540  0.99414409  1
  Fe  Fe25  1  0.82996204  0.82899286  0.16124877  1
  Cr  Cr26  1  0.66010134  0.66339056  0.32627690  1
  Cr  Cr27  1  0.16563629  0.16169039  0.49674530  1
  Cr  Cr28  1  -0.00437198  -0.00365164  0.66018187  1
  Fe  Fe29  1  0.16373743  0.16221429  0.83013653  1
  Cr  Cr30  1  0.16232865  0.49851466  0.49460406  1
  Cr  Cr31  1  -0.00357794  0.32790720  0.66247451  1
  Cr  Cr32  1  0.16066679  0.49665076  0.82906916  1
  Fe  Fe33  1  0.16203920  0.82665365  0.49661284  1
  Fe  Fe34  1  0.99411359  0.66344286  0.66268975  1
  Cr  Cr35  1  0.16279404  0.82983956  0.82757718  1
  Cr  Cr36  1  0.49542839  0.16228559  0.49502656  1
  Fe  Fe37  1  0.32930780  -0.00361118  0.66361860  1
  Fe  Fe38  1  0.49282925  0.16198561  0.82944527  1
  Cr  Cr39  1  0.49513438  0.49551472  0.49649131  1
  Fe  Fe40  1  0.32908494  0.32824116  0.66399786  1
  Fe  Fe41  1  0.49499855  0.49537657  0.82823192  1
  Cr  Cr42  1  0.49406691  0.82824802  0.49734571  1
  Fe  Fe43  1  0.32920666  0.66217873  0.66319854  1
  Fe  Fe44  1  0.49520812  0.82878436  0.82751080  1
  Fe  Fe45  1  0.82818373  0.16273200  0.49624158  1
  Cr  Cr46  1  0.66332175  0.99487557  0.66147010  1
  Cr  Cr47  1  0.82815778  0.16327125  0.83211493  1
  Cr  Cr48  1  0.82878743  0.49834619  0.49743585  1
  Cr  Cr49  1  0.66260486  0.32938803  0.66408283  1
  Fe  Fe50  1  0.82858259  0.49769171  0.82946150  1
  Fe  Fe51  1  0.82976388  0.82674672  0.49611837  1
  Fe  Fe52  1  0.66296738  0.66275197  0.66473056  1
  Fe  Fe53  1  0.82950379  0.82740640  0.82843179  1
" 