6102,Fe52Cr48_7,-216.087699443599, 181.895309403383,Fe52Cr48,"# generated using pymatgen
 data_Cr14Fe13
_symmetry_space_group_name_H-M   'P 1'
_cell_length_a   7.53534801
_cell_length_b   7.53534801
_cell_length_c   10.65659135
_cell_angle_alpha   90.00000000
_cell_angle_beta   90.00000000
_cell_angle_gamma   90.00000000
_symmetry_Int_Tables_number   1
_chemical_formula_structural   Cr14Fe13
_chemical_formula_sum   'Cr28 Fe26'
_cell_volume   605.09691724
_cell_formula_units_Z   2
loop_
 _symmetry_equiv_pos_site_id
 _symmetry_equiv_pos_as_xyz
  1  'x, y, z'
loop_
 _atom_site_type_symbol
 _atom_site_label
 _atom_site_symmetry_multiplicity
 _atom_site_fract_x
 _atom_site_fract_y
 _atom_site_fract_z
 _atom_site_occupancy
  Fe  Fe0  1  0.99411081  0.99404622  0.99516360  1
  Cr  Cr1  1  0.16161685  0.16325010  0.15960326  1
  Fe  Fe2  1  -0.00396079  -0.00438337  0.32945475  1
  Fe  Fe3  1  0.99378072  0.32859572  0.99473805  1
  Cr  Cr4  1  0.16626513  0.49485513  0.16096760  1
  Cr  Cr5  1  -0.00426000  0.33214610  0.32769040  1
  Cr  Cr6  1  0.99396271  0.65646122  -0.00445218  1
  Cr  Cr7  1  0.16134044  0.82850009  0.16258904  1
  Fe  Fe8  1  -0.00309035  0.66296700  0.32952770  1
  Cr  Cr9  1  0.33122584  -0.00406570  -0.00203383  1
  Fe  Fe10  1  0.49536393  0.16511268  0.16183749  1
  Cr  Cr11  1  0.33019278  -0.00193908  0.32692565  1
  Fe  Fe12  1  0.33123326  0.33046611  0.99403550  1
  Cr  Cr13  1  0.49556639  0.49442149  0.16298660  1
  Fe  Fe14  1  0.33106988  0.32897046  0.32985891  1
  Fe  Fe15  1  0.33023474  0.66169601  0.99437800  1
  Fe  Fe16  1  0.49444196  0.82752507  0.16206483  1
  Cr  Cr17  1  0.32799012  0.66367066  0.33106967  1
  Cr  Cr18  1  0.65772346  0.99517712  0.99544635  1
  Cr  Cr19  1  0.82855572  0.16245426  0.16127728  1
  Cr  Cr20  1  0.65765673  -0.00329756  0.32806354  1
  Fe  Fe21  1  0.66162373  0.32911371  0.99455570  1
  Fe  Fe22  1  0.82951489  0.49376614  0.16200885  1
  Fe  Fe23  1  0.65955202  0.32747158  0.32873867  1
  Cr  Cr24  1  0.66257922  0.66209704  -0.00421901  1
  Cr  Cr25  1  0.82983687  0.82996846  0.16393430  1
  Cr  Cr26  1  0.66387123  0.66156023  0.32591918  1
  Cr  Cr27  1  0.16214523  0.16259232  0.49489530  1
  Fe  Fe28  1  -0.00252637  0.99543037  0.66200998  1
  Cr  Cr29  1  0.16179985  0.16290724  0.83214703  1
  Fe  Fe30  1  0.16387922  0.49572657  0.49534431  1
  Cr  Cr31  1  -0.00366314  0.33120155  0.66425346  1
  Fe  Fe32  1  0.16447885  0.49522694  0.82990392  1
  Fe  Fe33  1  0.16202568  0.82887648  0.49562310  1
  Cr  Cr34  1  -0.00373220  0.65839728  0.65970681  1
  Cr  Cr35  1  0.16291521  0.82786070  0.82861549  1
  Fe  Fe36  1  0.49614542  0.16469742  0.49609496  1
  Cr  Cr37  1  0.33129069  -0.00285585  0.66181838  1
  Fe  Fe38  1  0.49536852  0.16393889  0.82819060  1
  Fe  Fe39  1  0.49390085  0.49231305  0.49582577  1
  Fe  Fe40  1  0.33037265  0.33121054  0.66248978  1
  Fe  Fe41  1  0.49396107  0.49404871  0.82933121  1
  Cr  Cr42  1  0.49643669  0.82513584  0.49732007  1
  Fe  Fe43  1  0.32843121  0.65916175  0.66221205  1
  Fe  Fe44  1  0.49439328  0.82847214  0.82814443  1
  Cr  Cr45  1  0.82777653  0.16113444  0.49773969  1
  Fe  Fe46  1  0.66097339  -0.00293778  0.66253077  1
  Cr  Cr47  1  0.82799871  0.16168393  0.82751604  1
  Cr  Cr48  1  0.82439958  0.49497007  0.49266797  1
  Fe  Fe49  1  0.65927152  0.32866258  0.66271316  1
  Fe  Fe50  1  0.82795555  0.49408633  0.82939281  1
  Cr  Cr51  1  0.83026245  0.83076463  0.49568767  1
  Cr  Cr52  1  0.66214280  0.66088654  0.66467661  1
  Cr  Cr53  1  0.82887047  0.83107242  0.82629077  1
" 