5915,Fe52Cr48_13,-215.897689351724, 179.139721234005,Fe52Cr48,"# generated using pymatgen
 data_Cr14Fe13
_symmetry_space_group_name_H-M   'P 1'
_cell_length_a   7.53019768
_cell_length_b   7.53019768
_cell_length_c   10.64930769
_cell_angle_alpha   90.00000000
_cell_angle_beta   90.00000000
_cell_angle_gamma   90.00000000
_symmetry_Int_Tables_number   1
_chemical_formula_structural   Cr14Fe13
_chemical_formula_sum   'Cr28 Fe26'
_cell_volume   603.85703403
_cell_formula_units_Z   2
loop_
 _symmetry_equiv_pos_site_id
 _symmetry_equiv_pos_as_xyz
  1  'x, y, z'
loop_
 _atom_site_type_symbol
 _atom_site_label
 _atom_site_symmetry_multiplicity
 _atom_site_fract_x
 _atom_site_fract_y
 _atom_site_fract_z
 _atom_site_occupancy
  Cr  Cr0  1  0.99493049  0.99515002  0.99232582  1
  Cr  Cr1  1  0.16078162  0.15981259  0.16084120  1
  Fe  Fe2  1  -0.00140171  0.99271304  0.33011711  1
  Fe  Fe3  1  0.99404682  0.32940891  0.99359947  1
  Fe  Fe4  1  0.16148052  0.49463893  0.16026885  1
  Fe  Fe5  1  0.99516860  0.32786753  0.33100810  1
  Fe  Fe6  1  -0.00205303  0.66054055  0.99239774  1
  Fe  Fe7  1  0.16438407  0.82565193  0.15952718  1
  Cr  Cr8  1  -0.00098106  0.65913082  0.32897607  1
  Fe  Fe9  1  0.32715202  0.99376030  0.99438892  1
  Cr  Cr10  1  0.49425580  0.16557125  0.15928891  1
  Cr  Cr11  1  0.33250282  0.99348139  0.32520298  1
  Cr  Cr12  1  0.32640433  0.32974500  0.99140973  1
  Cr  Cr13  1  0.49561237  0.49805643  0.16071851  1
  Cr  Cr14  1  0.32583015  0.33060208  0.33155964  1
  Fe  Fe15  1  0.32762653  0.66354348  0.99513884  1
  Fe  Fe16  1  0.49573504  0.82887469  0.15928755  1
  Cr  Cr17  1  0.32792660  0.66272654  0.33059430  1
  Cr  Cr18  1  0.66116742  -0.00368673  -0.00283282  1
  Cr  Cr19  1  0.83128991  0.16413819  0.16809568  1
  Cr  Cr20  1  0.66348359  -0.00124651  0.32975076  1
  Fe  Fe21  1  0.66442328  0.33001047  0.99423381  1
  Cr  Cr22  1  0.82905466  0.49531374  0.16028299  1
  Fe  Fe23  1  0.66051793  0.33143057  0.33014578  1
  Fe  Fe24  1  0.66363546  0.66189641  0.99442752  1
  Cr  Cr25  1  0.83324632  0.82755067  0.16052437  1
  Cr  Cr26  1  0.66145263  0.66704212  0.32913571  1
  Cr  Cr27  1  0.16002388  0.15821693  0.49736346  1
  Fe  Fe28  1  -0.00230079  0.99417941  0.66572134  1
  Fe  Fe29  1  0.16200454  0.16193271  0.82865734  1
  Fe  Fe30  1  0.16018927  0.49403859  0.49681429  1
  Cr  Cr31  1  -0.00379303  0.33027035  0.66479518  1
  Fe  Fe32  1  0.16269318  0.49728341  0.82987398  1
  Fe  Fe33  1  0.16383793  0.82885488  0.49598683  1
  Cr  Cr34  1  0.99552731  0.66161027  0.66627469  1
  Fe  Fe35  1  0.16269395  0.82796096  0.83009605  1
  Cr  Cr36  1  0.49486809  0.16512273  0.49983065  1
  Cr  Cr37  1  0.33064382  0.99531021  0.66537456  1
  Cr  Cr38  1  0.49397531  0.16384857  0.82829815  1
  Cr  Cr39  1  0.49539858  0.49707483  0.49943406  1
  Fe  Fe40  1  0.32606157  0.32977125  0.66403673  1
  Cr  Cr41  1  0.49703850  0.49648383  0.82586130  1
  Fe  Fe42  1  0.49757223  0.83157442  0.49750159  1
  Cr  Cr43  1  0.32684582  0.66202706  0.65811874  1
  Cr  Cr44  1  0.49614857  0.82703706  0.82994667  1
  Fe  Fe45  1  0.82846516  0.16374557  0.49718831  1
  Fe  Fe46  1  0.66469808  0.99495531  0.66309195  1
  Cr  Cr47  1  0.82960342  0.16164446  0.82677483  1
  Cr  Cr48  1  0.82688285  0.49711920  0.49514230  1
  Fe  Fe49  1  0.66389699  0.33019561  0.66321671  1
  Fe  Fe50  1  0.82827534  0.49653421  0.83162502  1
  Cr  Cr51  1  0.83351138  0.83177726  0.49958202  1
  Fe  Fe52  1  0.66336206  0.66427964  0.66333595  1
  Fe  Fe53  1  0.82777425  0.82699831  0.82921399  1
" 