980,Fe52Cr48_2,-215.975130509481, 177.341676780556,Fe52Cr48,"# generated using pymatgen
 data_Cr14Fe13
_symmetry_space_group_name_H-M   'P 1'
_cell_length_a   7.54046611
_cell_length_b   7.54046611
_cell_length_c   10.66382944
_cell_angle_alpha   90.00000000
_cell_angle_beta   90.00000000
_cell_angle_gamma   90.00000000
_symmetry_Int_Tables_number   1
_chemical_formula_structural   Cr14Fe13
_chemical_formula_sum   'Cr28 Fe26'
_cell_volume   606.33072415
_cell_formula_units_Z   2
loop_
 _symmetry_equiv_pos_site_id
 _symmetry_equiv_pos_as_xyz
  1  'x, y, z'
loop_
 _atom_site_type_symbol
 _atom_site_label
 _atom_site_symmetry_multiplicity
 _atom_site_fract_x
 _atom_site_fract_y
 _atom_site_fract_z
 _atom_site_occupancy
  Fe  Fe0  1  0.99341732  0.99439541  0.99471589  1
  Cr  Cr1  1  0.16033997  0.16042387  0.16049319  1
  Cr  Cr2  1  0.99414549  0.99371919  0.32912930  1
  Fe  Fe3  1  0.99502126  0.32993017  -0.00426257  1
  Fe  Fe4  1  0.16048329  0.49585670  0.15992170  1
  Cr  Cr5  1  -0.00434029  0.33101956  0.33093986  1
  Fe  Fe6  1  -0.00359835  0.66095890  -0.00435710  1
  Cr  Cr7  1  0.16134873  0.82851269  0.15917632  1
  Cr  Cr8  1  0.99402668  0.66093393  0.32639127  1
  Fe  Fe9  1  0.33016964  0.99433004  0.99462993  1
  Fe  Fe10  1  0.49566834  0.15989798  0.16152965  1
  Cr  Cr11  1  0.33006736  -0.00363082  0.32633042  1
  Cr  Cr12  1  0.32814767  0.32654507  -0.00359205  1
  Cr  Cr13  1  0.49772303  0.49686362  0.16326995  1
  Cr  Cr14  1  0.32778290  0.32831957  0.32758115  1
  Fe  Fe15  1  0.32853070  0.66178096  0.99490212  1
  Cr  Cr16  1  0.49559821  0.82621134  0.16459892  1
  Cr  Cr17  1  0.32660447  0.66084671  0.33259959  1
  Cr  Cr18  1  0.66030080  -0.00466504  0.99257386  1
  Cr  Cr19  1  0.82922305  0.16239202  0.16325887  1
  Fe  Fe20  1  0.66189950  0.99410711  0.32819940  1
  Cr  Cr21  1  0.65993056  0.32586349  -0.00451097  1
  Fe  Fe22  1  0.83058307  0.49702659  0.16029776  1
  Cr  Cr23  1  0.66200239  0.32828354  0.32769618  1
  Cr  Cr24  1  0.66553921  0.66443134  0.99410463  1
  Fe  Fe25  1  0.82772800  0.82784572  0.16154244  1
  Fe  Fe26  1  0.66253446  0.66197460  0.32972594  1
  Cr  Cr27  1  0.15924180  0.16137115  0.49805803  1
  Fe  Fe28  1  0.99306729  0.99451799  0.66124298  1
  Cr  Cr29  1  0.16057073  0.16085182  0.82689689  1
  Fe  Fe30  1  0.16255720  0.49459971  0.49744977  1
  Fe  Fe31  1  -0.00434754  0.32989200  0.66047482  1
  Fe  Fe32  1  0.16165957  0.49448123  0.82877775  1
  Cr  Cr33  1  0.16375192  0.82990413  0.49604414  1
  Cr  Cr34  1  -0.00347547  0.66143580  0.66249572  1
  Cr  Cr35  1  0.16329345  0.82904697  0.83010651  1
  Cr  Cr36  1  0.49582623  0.16195179  0.49432236  1
  Fe  Fe37  1  0.33141224  0.99414058  0.66239068  1
  Fe  Fe38  1  0.49304981  0.15967070  0.82660424  1
  Fe  Fe39  1  0.49495473  0.49684084  0.49627504  1
  Fe  Fe40  1  0.32712521  0.33032720  0.66169758  1
  Cr  Cr41  1  0.49373807  0.49731658  0.82745327  1
  Fe  Fe42  1  0.49554000  0.82883080  0.49551916  1
  Fe  Fe43  1  0.32911093  0.66130342  0.66092265  1
  Fe  Fe44  1  0.49435714  0.83068443  0.82764072  1
  Fe  Fe45  1  0.82793111  0.16178369  0.49668639  1
  Fe  Fe46  1  0.66089594  0.99399010  0.66249723  1
  Cr  Cr47  1  0.83063428  0.16144855  0.82460870  1
  Fe  Fe48  1  0.82798287  0.49412156  0.49600689  1
  Cr  Cr49  1  0.66105680  0.32681130  0.66230031  1
  Cr  Cr50  1  0.82842589  0.49386430  0.83107164  1
  Cr  Cr51  1  0.82639435  0.82971750  0.49337424  1
  Cr  Cr52  1  0.66183247  0.66439635  0.66170113  1
  Fe  Fe53  1  0.82964735  0.82963705  0.82760729  1
" 