2711,Fe52Cr48_1,-215.783184348984, 175.943157610949,Fe52Cr48,"# generated using pymatgen
 data_Cr14Fe13
_symmetry_space_group_name_H-M   'P 1'
_cell_length_a   7.53386849
_cell_length_b   7.53386849
_cell_length_c   10.65449900
_cell_angle_alpha   90.00000000
_cell_angle_beta   90.00000000
_cell_angle_gamma   90.00000000
_symmetry_Int_Tables_number   1
_chemical_formula_structural   Cr14Fe13
_chemical_formula_sum   'Cr28 Fe26'
_cell_volume   604.74056796
_cell_formula_units_Z   2
loop_
 _symmetry_equiv_pos_site_id
 _symmetry_equiv_pos_as_xyz
  1  'x, y, z'
loop_
 _atom_site_type_symbol
 _atom_site_label
 _atom_site_symmetry_multiplicity
 _atom_site_fract_x
 _atom_site_fract_y
 _atom_site_fract_z
 _atom_site_occupancy
  Fe  Fe0  1  0.99216553  0.99440144  -0.00362175  1
  Cr  Cr1  1  0.15979465  0.16040094  0.16208518  1
  Fe  Fe2  1  0.99395842  0.99406630  0.32944359  1
  Cr  Cr3  1  -0.00379714  0.33113606  0.99507907  1
  Cr  Cr4  1  0.16350216  0.49790817  0.16002621  1
  Fe  Fe5  1  0.99347594  0.32894531  0.32717527  1
  Fe  Fe6  1  0.99413209  0.66335430  0.99491887  1
  Cr  Cr7  1  0.16030760  0.82863651  0.16330969  1
  Fe  Fe8  1  0.99339588  0.66348800  0.32872275  1
  Cr  Cr9  1  0.33293678  0.99468221  -0.00140668  1
  Fe  Fe10  1  0.49621199  0.16220526  0.16189488  1
  Cr  Cr11  1  0.32995342  0.99499953  0.33246166  1
  Fe  Fe12  1  0.33065609  0.32976051  -0.00376796  1
  Cr  Cr13  1  0.49771191  0.49698437  0.16415129  1
  Cr  Cr14  1  0.32802519  0.32733623  0.32815972  1
  Fe  Fe15  1  0.32956011  0.66125281  0.99508976  1
  Fe  Fe16  1  0.49611662  0.82853362  0.16196247  1
  Cr  Cr17  1  0.33011725  0.66419668  0.33110335  1
  Fe  Fe18  1  0.66462648  -0.00440746  -0.00221218  1
  Fe  Fe19  1  0.82929703  0.16170102  0.16323216  1
  Cr  Cr20  1  0.66117780  0.99487344  0.32549817  1
  Cr  Cr21  1  0.66525904  0.32866609  -0.00108707  1
  Fe  Fe22  1  0.83099509  0.49753803  0.16521189  1
  Fe  Fe23  1  0.66210839  0.32812253  0.32685192  1
  Cr  Cr24  1  0.66311559  0.66491997  -0.00410217  1
  Fe  Fe25  1  0.82920817  0.82811300  0.16225865  1
  Fe  Fe26  1  0.66301562  0.66342531  0.32825954  1
  Cr  Cr27  1  0.15995396  0.16091368  0.49564397  1
  Cr  Cr28  1  0.99483133  0.99360564  0.66089103  1
  Cr  Cr29  1  0.16363817  0.16070258  0.82853657  1
  Cr  Cr30  1  0.16214903  0.49660666  0.49499164  1
  Cr  Cr31  1  0.99489542  0.33119311  0.66580758  1
  Fe  Fe32  1  0.16399446  0.49553750  0.83094130  1
  Fe  Fe33  1  0.15819964  0.82737029  0.49392246  1
  Cr  Cr34  1  0.99362113  0.66033874  0.66505540  1
  Cr  Cr35  1  0.16127250  0.82823461  0.83094176  1
  Fe  Fe36  1  0.49767619  0.16561360  0.49554484  1
  Cr  Cr37  1  0.33085534  0.99505025  0.65602890  1
  Cr  Cr38  1  0.49666235  0.16417823  0.82810102  1
  Fe  Fe39  1  0.49610854  0.49345934  0.49495803  1
  Fe  Fe40  1  0.33019825  0.32948579  0.66045561  1
  Cr  Cr41  1  0.49537039  0.49616252  0.82675488  1
  Fe  Fe42  1  0.49964952  0.82742070  0.49419762  1
  Cr  Cr43  1  0.32922099  0.66373678  0.66081626  1
  Fe  Fe44  1  0.49537825  0.83016051  0.83015497  1
  Cr  Cr45  1  0.82696703  0.16146051  0.49531503  1
  Cr  Cr46  1  0.66047604  0.99319457  0.66377865  1
  Cr  Cr47  1  0.82769603  0.15957285  0.82797188  1
  Cr  Cr48  1  0.82486346  0.49585637  0.49210903  1
  Fe  Fe49  1  0.66115092  0.32969908  0.66120176  1
  Fe  Fe50  1  0.82809637  0.49618030  0.83007957  1
  Fe  Fe51  1  0.82946545  0.82838856  0.49317760  1
  Cr  Cr52  1  0.66327483  0.66286083  0.66158774  1
  Fe  Fe53  1  0.82783296  0.82830246  0.83086283  1
" 