1403,Fe52Cr48_19,-215.726693805507, 177.821013349613,Fe52Cr48,"# generated using pymatgen
 data_Cr14Fe13
_symmetry_space_group_name_H-M   'P 1'
_cell_length_a   7.53657130
_cell_length_b   7.53657130
_cell_length_c   10.65832135
_cell_angle_alpha   90.00000000
_cell_angle_beta   90.00000000
_cell_angle_gamma   90.00000000
_symmetry_Int_Tables_number   1
_chemical_formula_structural   Cr14Fe13
_chemical_formula_sum   'Cr28 Fe26'
_cell_volume   605.39166125
_cell_formula_units_Z   2
loop_
 _symmetry_equiv_pos_site_id
 _symmetry_equiv_pos_as_xyz
  1  'x, y, z'
loop_
 _atom_site_type_symbol
 _atom_site_label
 _atom_site_symmetry_multiplicity
 _atom_site_fract_x
 _atom_site_fract_y
 _atom_site_fract_z
 _atom_site_occupancy
  Fe  Fe0  1  -0.00332250  -0.00388423  -0.00415366  1
  Cr  Cr1  1  0.16275594  0.16071992  0.16323112  1
  Cr  Cr2  1  0.99401556  0.99532933  0.32862783  1
  Cr  Cr3  1  -0.00433379  0.32701391  -0.00443036  1
  Cr  Cr4  1  0.16143451  0.49289754  0.16448760  1
  Fe  Fe5  1  -0.00359208  0.32849849  0.32984041  1
  Cr  Cr6  1  -0.00269757  0.66571496  0.99528478  1
  Fe  Fe7  1  0.16215496  0.82890194  0.16178284  1
  Cr  Cr8  1  -0.00390111  0.66582379  0.33145327  1
  Fe  Fe9  1  0.32803800  -0.00405023  0.99519718  1
  Fe  Fe10  1  0.49639896  0.16236057  0.16426874  1
  Fe  Fe11  1  0.32731674  0.99507831  0.32898213  1
  Cr  Cr12  1  0.33188288  0.32806277  0.99342803  1
  Cr  Cr13  1  0.49565049  0.49657885  0.16430707  1
  Fe  Fe14  1  0.32801952  0.32611204  0.32999087  1
  Cr  Cr15  1  0.32796067  0.66102745  0.99340292  1
  Cr  Cr16  1  0.49334867  0.83133222  0.16145354  1
  Cr  Cr17  1  0.32662969  0.66146617  0.33046822  1
  Fe  Fe18  1  0.65994967  -0.00282219  0.99499183  1
  Fe  Fe19  1  0.82633723  0.16154422  0.16257432  1
  Fe  Fe20  1  0.66190866  -0.00331269  0.32825494  1
  Cr  Cr21  1  0.65946299  0.32691627  0.99407184  1
  Cr  Cr22  1  0.82946663  0.49402922  0.16277749  1
  Fe  Fe23  1  0.66266090  0.32600567  0.32821479  1
  Fe  Fe24  1  0.66048603  0.66036989  0.99427332  1
  Cr  Cr25  1  0.82577246  0.82940043  0.15809572  1
  Cr  Cr26  1  0.66320489  0.66349018  0.32818141  1
  Fe  Fe27  1  0.16297884  0.16316872  0.49543323  1
  Cr  Cr28  1  0.99463004  0.99295434  0.66019046  1
  Cr  Cr29  1  0.16326533  0.16119532  0.82835744  1
  Fe  Fe30  1  0.16316630  0.49307314  0.49666620  1
  Fe  Fe31  1  -0.00178078  0.32949749  0.66203049  1
  Fe  Fe32  1  0.16224206  0.49712662  0.82732317  1
  Fe  Fe33  1  0.16265640  0.82974291  0.49712174  1
  Fe  Fe34  1  -0.00159696  0.66115865  0.66126670  1
  Fe  Fe35  1  0.16084806  0.82882064  0.82728961  1
  Cr  Cr36  1  0.49377486  0.15917388  0.49503701  1
  Fe  Fe37  1  0.32780264  0.99463476  0.66199491  1
  Fe  Fe38  1  0.49725291  0.15994421  0.82700393  1
  Cr  Cr39  1  0.49582390  0.49556943  0.49401253  1
  Cr  Cr40  1  0.33160493  0.32962022  0.66474857  1
  Fe  Fe41  1  0.49666055  0.49613675  0.82709071  1
  Cr  Cr42  1  0.49415652  0.83052320  0.49557751  1
  Fe  Fe43  1  0.32578194  0.66325721  0.66211469  1
  Cr  Cr44  1  0.49268377  0.82973551  0.82846585  1
  Cr  Cr45  1  0.82991303  0.16357850  0.49660018  1
  Fe  Fe46  1  0.66040140  -0.00306989  0.66207374  1
  Cr  Cr47  1  0.83065443  0.16223741  0.82761038  1
  Cr  Cr48  1  0.83198636  0.49467476  0.49573486  1
  Fe  Fe49  1  0.66252721  0.32761221  0.66258909  1
  Cr  Cr50  1  0.83084670  0.49504392  0.82773384  1
  Fe  Fe51  1  0.82710487  0.83004394  0.49666198  1
  Cr  Cr52  1  0.66204676  0.66214372  0.66144188  1
  Cr  Cr53  1  0.82648815  0.82872684  0.82970033  1
" 