6951,Fe52Cr48_17,-215.731906527577, 179.176975308449,Fe52Cr48,"# generated using pymatgen
 data_Cr14Fe13
_symmetry_space_group_name_H-M   'P 1'
_cell_length_a   7.53274409
_cell_length_b   7.53274409
_cell_length_c   10.65290885
_cell_angle_alpha   90.00000000
_cell_angle_beta   90.00000000
_cell_angle_gamma   90.00000000
_symmetry_Int_Tables_number   1
_chemical_formula_structural   Cr14Fe13
_chemical_formula_sum   'Cr28 Fe26'
_cell_volume   604.46984162
_cell_formula_units_Z   2
loop_
 _symmetry_equiv_pos_site_id
 _symmetry_equiv_pos_as_xyz
  1  'x, y, z'
loop_
 _atom_site_type_symbol
 _atom_site_label
 _atom_site_symmetry_multiplicity
 _atom_site_fract_x
 _atom_site_fract_y
 _atom_site_fract_z
 _atom_site_occupancy
  Fe  Fe0  1  -0.00420389  -0.00252079  0.99343999  1
  Fe  Fe1  1  0.16280960  0.16213475  0.16100207  1
  Cr  Cr2  1  0.99500443  -0.00201718  0.32797010  1
  Cr  Cr3  1  -0.00345005  0.32835566  -0.00224518  1
  Fe  Fe4  1  0.16378833  0.49455492  0.16067707  1
  Cr  Cr5  1  -0.00306325  0.32924674  0.32936612  1
  Cr  Cr6  1  -0.00344758  0.66281125  -0.00378792  1
  Cr  Cr7  1  0.16257057  0.83290441  0.15805730  1
  Cr  Cr8  1  -0.00200575  0.66003366  0.32685763  1
  Fe  Fe9  1  0.32708460  -0.00260882  0.99396938  1
  Cr  Cr10  1  0.49456390  0.16302811  0.16193362  1
  Fe  Fe11  1  0.32891906  -0.00297993  0.33048977  1
  Fe  Fe12  1  0.32747262  0.32738910  0.99528622  1
  Cr  Cr13  1  0.49636703  0.49410088  0.15944760  1
  Cr  Cr14  1  0.32752059  0.32864608  0.32955280  1
  Fe  Fe15  1  0.32866663  0.66220072  0.99562861  1
  Cr  Cr16  1  0.49494829  0.82983908  0.16564379  1
  Cr  Cr17  1  0.32847605  0.66237833  0.32937994  1
  Cr  Cr18  1  0.66211513  -0.00401484  0.99385410  1
  Fe  Fe19  1  0.82857298  0.16310159  0.16269597  1
  Fe  Fe20  1  0.66000923  -0.00205463  0.33053752  1
  Cr  Cr21  1  0.66240707  0.32679003  0.99340446  1
  Fe  Fe22  1  0.82788147  0.49400276  0.16328823  1
  Fe  Fe23  1  0.66320501  0.32764984  0.32881794  1
  Cr  Cr24  1  0.66319903  0.66392401  0.99501007  1
  Cr  Cr25  1  0.82932915  0.83096633  0.16388954  1
  Fe  Fe26  1  0.66230649  0.66121050  0.32882259  1
  Fe  Fe27  1  0.16300126  0.16169654  0.49559705  1
  Cr  Cr28  1  0.99491914  -0.00355260  0.66637398  1
  Fe  Fe29  1  0.16449282  0.16028123  0.83051699  1
  Fe  Fe30  1  0.16292653  0.49635183  0.49635203  1
  Cr  Cr31  1  -0.00347513  0.32813041  0.65957015  1
  Cr  Cr32  1  0.16429129  0.49500050  0.82800885  1
  Cr  Cr33  1  0.16355120  0.83209623  0.49819900  1
  Cr  Cr34  1  -0.00335681  0.66242409  0.66350577  1
  Fe  Fe35  1  0.16342038  0.83071466  0.83024501  1
  Fe  Fe36  1  0.49612241  0.15929017  0.49387061  1
  Fe  Fe37  1  0.32870644  -0.00340076  0.66255875  1
  Fe  Fe38  1  0.49168897  0.16126841  0.82981636  1
  Cr  Cr39  1  0.49718119  0.49568195  0.49778847  1
  Cr  Cr40  1  0.32887065  0.32670601  0.66044718  1
  Cr  Cr41  1  0.49569407  0.49424935  0.82956001  1
  Fe  Fe42  1  0.49597556  0.83017117  0.49548942  1
  Fe  Fe43  1  0.33020578  0.66408884  0.66153653  1
  Cr  Cr44  1  0.49266604  0.82821639  0.82742135  1
  Fe  Fe45  1  0.82712614  0.16187375  0.49480294  1
  Cr  Cr46  1  0.65976863  0.99551664  0.66260918  1
  Fe  Fe47  1  0.83056372  0.16230452  0.82967570  1
  Cr  Cr48  1  0.82719307  0.49445067  0.49620578  1
  Cr  Cr49  1  0.66181956  0.32523701  0.66589957  1
  Fe  Fe50  1  0.82965469  0.49614834  0.82840033  1
  Cr  Cr51  1  0.82811593  0.82941049  0.49448369  1
  Fe  Fe52  1  0.66233117  0.66269852  0.66345538  1
  Fe  Fe53  1  0.83001930  0.82839382  0.82914133  1
" 