4398,Fe52Cr48_5,-215.796048488114, 180.42241448633,Fe52Cr48,"# generated using pymatgen
 data_Cr14Fe13
_symmetry_space_group_name_H-M   'P 1'
_cell_length_a   7.53458281
_cell_length_b   7.53458281
_cell_length_c   10.65550919
_cell_angle_alpha   90.00000000
_cell_angle_beta   90.00000000
_cell_angle_gamma   90.00000000
_symmetry_Int_Tables_number   1
_chemical_formula_structural   Cr14Fe13
_chemical_formula_sum   'Cr28 Fe26'
_cell_volume   604.91259694
_cell_formula_units_Z   2
loop_
 _symmetry_equiv_pos_site_id
 _symmetry_equiv_pos_as_xyz
  1  'x, y, z'
loop_
 _atom_site_type_symbol
 _atom_site_label
 _atom_site_symmetry_multiplicity
 _atom_site_fract_x
 _atom_site_fract_y
 _atom_site_fract_z
 _atom_site_occupancy
  Cr  Cr0  1  0.99531921  0.99332842  0.99503295  1
  Fe  Fe1  1  0.16271023  0.16159133  0.16211999  1
  Cr  Cr2  1  -0.00305158  -0.00331895  0.32936165  1
  Cr  Cr3  1  0.00087529  0.33053133  -0.00398739  1
  Fe  Fe4  1  0.16286739  0.49442632  0.16334216  1
  Fe  Fe5  1  -0.00395184  0.32789792  0.32861425  1
  Cr  Cr6  1  0.99500433  0.66269543  0.99393229  1
  Cr  Cr7  1  0.16642251  0.82788857  0.16248179  1
  Cr  Cr8  1  0.99512830  0.66252921  0.32707609  1
  Fe  Fe9  1  0.32906326  0.99490089  -0.00344796  1
  Fe  Fe10  1  0.49502529  0.16117336  0.16099464  1
  Fe  Fe11  1  0.32928652  -0.00383669  0.32793811  1
  Cr  Cr12  1  0.33015242  0.32735242  -0.00417486  1
  Fe  Fe13  1  0.49591667  0.49543608  0.16305159  1
  Cr  Cr14  1  0.32861180  0.32604197  0.32750151  1
  Cr  Cr15  1  0.32830749  0.65787576  0.99551324  1
  Fe  Fe16  1  0.49689848  0.82936352  0.16154335  1
  Fe  Fe17  1  0.32956221  0.66164623  0.32683229  1
  Fe  Fe18  1  0.66003705  0.99499907  -0.00315849  1
  Cr  Cr19  1  0.82759650  0.16351865  0.15972743  1
  Cr  Cr20  1  0.66049583  -0.00382789  0.32871956  1
  Fe  Fe21  1  0.66171031  0.33112898  -0.00424440  1
  Cr  Cr22  1  0.82824768  0.49246810  0.16424380  1
  Fe  Fe23  1  0.66117171  0.32813683  0.32969138  1
  Cr  Cr24  1  0.66330869  0.66327661  0.99408101  1
  Fe  Fe25  1  0.82797025  0.82932627  0.16178407  1
  Cr  Cr26  1  0.66208897  0.66272131  0.33021556  1
  Fe  Fe27  1  0.16428328  0.16237202  0.49734593  1
  Fe  Fe28  1  -0.00408429  -0.00359070  0.66235830  1
  Cr  Cr29  1  0.16174423  0.16118696  0.82668033  1
  Cr  Cr30  1  0.16144156  0.49633114  0.49453167  1
  Fe  Fe31  1  0.99540045  0.32980192  0.66253481  1
  Fe  Fe32  1  0.16396209  0.49485247  0.82707437  1
  Cr  Cr33  1  0.16497427  0.82841545  0.49746741  1
  Cr  Cr34  1  0.99492540  0.66310994  0.66603464  1
  Fe  Fe35  1  0.16284292  0.82962233  0.82784841  1
  Fe  Fe36  1  0.49243277  0.16202593  0.49546680  1
  Fe  Fe37  1  0.32840055  -0.00296115  0.66236677  1
  Cr  Cr38  1  0.49657270  0.16162129  0.83053236  1
  Cr  Cr39  1  0.49454444  0.49685247  0.49542552  1
  Fe  Fe40  1  0.32740815  0.32907023  0.66218376  1
  Fe  Fe41  1  0.49477381  0.49426825  0.82808139  1
  Cr  Cr42  1  0.49127794  0.82815989  0.49489640  1
  Fe  Fe43  1  0.32856282  0.66031782  0.66440003  1
  Cr  Cr44  1  0.49195160  0.82820789  0.82858627  1
  Cr  Cr45  1  0.83039846  0.16694131  0.49550720  1
  Cr  Cr46  1  0.66212194  0.99531413  0.66083409  1
  Cr  Cr47  1  0.82819973  0.16441304  0.83103968  1
  Fe  Fe48  1  0.83023502  0.49566481  0.49505986  1
  Cr  Cr49  1  0.65878961  0.32943678  0.66133487  1
  Fe  Fe50  1  0.82819517  0.49384234  0.82932899  1
  Cr  Cr51  1  0.83023080  0.82991361  0.49548860  1
  Cr  Cr52  1  0.66347447  0.66221333  0.66258298  1
  Fe  Fe53  1  0.82815439  0.83131465  0.82821214  1
" 