7202,Fe52Cr48_18,-215.803549631834, 177.397652464835,Fe52Cr48,"# generated using pymatgen
 data_Cr14Fe13
_symmetry_space_group_name_H-M   'P 1'
_cell_length_a   7.54308193
_cell_length_b   7.54308193
_cell_length_c   10.66752876
_cell_angle_alpha   90.00000000
_cell_angle_beta   90.00000000
_cell_angle_gamma   90.00000000
_symmetry_Int_Tables_number   1
_chemical_formula_structural   Cr14Fe13
_chemical_formula_sum   'Cr28 Fe26'
_cell_volume   606.96195766
_cell_formula_units_Z   2
loop_
 _symmetry_equiv_pos_site_id
 _symmetry_equiv_pos_as_xyz
  1  'x, y, z'
loop_
 _atom_site_type_symbol
 _atom_site_label
 _atom_site_symmetry_multiplicity
 _atom_site_fract_x
 _atom_site_fract_y
 _atom_site_fract_z
 _atom_site_occupancy
  Fe  Fe0  1  0.99470312  -0.00496821  0.99471516  1
  Cr  Cr1  1  0.15908385  0.16113610  0.15927863  1
  Cr  Cr2  1  0.99156623  0.99391147  0.32698904  1
  Fe  Fe3  1  -0.00410787  0.32697923  0.99432171  1
  Cr  Cr4  1  0.16241781  0.49558387  0.16223212  1
  Cr  Cr5  1  -0.00463478  0.33051238  0.33177367  1
  Cr  Cr6  1  0.99392618  0.66156609  -0.00402129  1
  Cr  Cr7  1  0.16140026  0.82853196  0.16247134  1
  Fe  Fe8  1  0.99485968  0.66086312  0.32932189  1
  Cr  Cr9  1  0.32938646  -0.00242583  0.99196242  1
  Fe  Fe10  1  0.49642156  0.16299161  0.16166084  1
  Cr  Cr11  1  0.33046904  -0.00197484  0.32823010  1
  Fe  Fe12  1  0.32841805  0.32778400  0.99358877  1
  Cr  Cr13  1  0.49565215  0.49412936  0.16084460  1
  Cr  Cr14  1  0.32824323  0.32740286  0.32803677  1
  Cr  Cr15  1  0.32754561  0.66188985  0.99249494  1
  Cr  Cr16  1  0.49342430  0.82667500  0.16332291  1
  Fe  Fe17  1  0.32748825  0.66101675  0.32900641  1
  Cr  Cr18  1  0.66145316  -0.00457857  -0.00174887  1
  Fe  Fe19  1  0.82713621  0.16190955  0.16168254  1
  Fe  Fe20  1  0.66285513  -0.00341887  0.32743616  1
  Fe  Fe21  1  0.66042979  0.32609244  0.99495970  1
  Cr  Cr22  1  0.82724040  0.49191273  0.15985104  1
  Fe  Fe23  1  0.66290419  0.32667419  0.32764947  1
  Cr  Cr24  1  0.66300171  0.66368819  0.99321709  1
  Fe  Fe25  1  0.82844798  0.82874213  0.16163484  1
  Cr  Cr26  1  0.66619376  0.66349508  0.32880123  1
  Cr  Cr27  1  0.15973501  0.15931525  0.49730474  1
  Fe  Fe28  1  -0.00409053  0.99457765  0.66225844  1
  Fe  Fe29  1  0.16099095  0.16199534  0.82804549  1
  Fe  Fe30  1  0.16216731  0.49553428  0.49524364  1
  Fe  Fe31  1  0.99482455  0.32880981  0.66165980  1
  Fe  Fe32  1  0.15995909  0.49378583  0.82809190  1
  Cr  Cr33  1  0.16234926  0.82807230  0.49307629  1
  Cr  Cr34  1  0.99307194  0.65981864  0.65917230  1
  Fe  Fe35  1  0.16148940  0.82882914  0.82663705  1
  Cr  Cr36  1  0.49730227  0.16135768  0.49461630  1
  Fe  Fe37  1  0.32807418  0.99369123  0.66389136  1
  Fe  Fe38  1  0.49652701  0.16158622  0.82721488  1
  Cr  Cr39  1  0.49595000  0.49598857  0.49402661  1
  Cr  Cr40  1  0.32703263  0.32680774  0.66224557  1
  Cr  Cr41  1  0.49570387  0.49571224  0.82910468  1
  Cr  Cr42  1  0.49402109  0.82756622  0.49724265  1
  Fe  Fe43  1  0.32754118  0.66167471  0.66337220  1
  Fe  Fe44  1  0.49495238  0.83004734  0.82591495  1
  Cr  Cr45  1  0.82809196  0.16205221  0.49726984  1
  Fe  Fe46  1  0.66114641  0.99476852  0.66259744  1
  Cr  Cr47  1  0.83063012  0.16222643  0.82827001  1
  Fe  Fe48  1  0.82795761  0.49549636  0.49582037  1
  Fe  Fe49  1  0.66167108  0.32886273  0.66162635  1
  Cr  Cr50  1  0.82718288  0.49236422  0.82804136  1
  Fe  Fe51  1  0.82737649  0.82901898  0.49605342  1
  Fe  Fe52  1  0.66118873  0.66169275  0.66172334  1
  Cr  Cr53  1  0.82906751  0.83006575  0.82760563  1
" 