8981,Fe52Cr48_9,-216.103825652273, 179.513707365055,Fe52Cr48,"# generated using pymatgen
 data_Cr14Fe13
_symmetry_space_group_name_H-M   'P 1'
_cell_length_a   7.53839639
_cell_length_b   7.53839639
_cell_length_c   10.66090241
_cell_angle_alpha   90.00000000
_cell_angle_beta   90.00000000
_cell_angle_gamma   90.00000000
_symmetry_Int_Tables_number   1
_chemical_formula_structural   Cr14Fe13
_chemical_formula_sum   'Cr28 Fe26'
_cell_volume   605.83158039
_cell_formula_units_Z   2
loop_
 _symmetry_equiv_pos_site_id
 _symmetry_equiv_pos_as_xyz
  1  'x, y, z'
loop_
 _atom_site_type_symbol
 _atom_site_label
 _atom_site_symmetry_multiplicity
 _atom_site_fract_x
 _atom_site_fract_y
 _atom_site_fract_z
 _atom_site_occupancy
  Cr  Cr0  1  -0.00192719  0.99196933  -0.00431106  1
  Cr  Cr1  1  0.16335494  0.16458153  0.16050228  1
  Cr  Cr2  1  -0.00280576  0.99281257  0.33166894  1
  Fe  Fe3  1  0.99497905  0.32874157  -0.00418564  1
  Fe  Fe4  1  0.16369041  0.49578450  0.16070663  1
  Cr  Cr5  1  0.99339146  0.33090166  0.32512566  1
  Cr  Cr6  1  0.99516703  0.65953087  -0.00114928  1
  Fe  Fe7  1  0.16417716  0.82894021  0.16113598  1
  Cr  Cr8  1  -0.00435222  0.66209486  0.32515328  1
  Fe  Fe9  1  0.33081609  -0.00460714  0.99453648  1
  Fe  Fe10  1  0.49678776  0.16227265  0.16121196  1
  Cr  Cr11  1  0.33085632  -0.00408043  0.32675546  1
  Fe  Fe12  1  0.32948364  0.32930807  -0.00452968  1
  Cr  Cr13  1  0.49373972  0.49659901  0.16524802  1
  Fe  Fe14  1  0.32941220  0.32792205  0.32928864  1
  Fe  Fe15  1  0.32854773  0.66268408  -0.00451016  1
  Cr  Cr16  1  0.49778113  0.82776517  0.15896282  1
  Cr  Cr17  1  0.32673974  0.66406985  0.33043887  1
  Fe  Fe18  1  0.66083262  -0.00425393  0.99418144  1
  Cr  Cr19  1  0.82883531  0.15890239  0.16309791  1
  Fe  Fe20  1  0.66125164  -0.00456521  0.33106582  1
  Cr  Cr21  1  0.66170685  0.32852839  0.99279728  1
  Fe  Fe22  1  0.82522214  0.49447591  0.16140812  1
  Fe  Fe23  1  0.65948158  0.32731363  0.32919212  1
  Fe  Fe24  1  0.66154059  0.66118429  0.99434022  1
  Cr  Cr25  1  0.82458482  0.82893919  0.16408484  1
  Fe  Fe26  1  0.66103745  0.66285451  0.33036977  1
  Cr  Cr27  1  0.15958951  0.16235301  0.49705977  1
  Fe  Fe28  1  0.99430659  0.99409102  0.66051136  1
  Cr  Cr29  1  0.16191346  0.16201609  0.82832159  1
  Cr  Cr30  1  0.16501545  0.49352426  0.49595670  1
  Cr  Cr31  1  0.99216152  0.33063736  0.66447494  1
  Cr  Cr32  1  0.16475929  0.49402735  0.82841435  1
  Fe  Fe33  1  0.16250044  0.82823293  0.49638298  1
  Cr  Cr34  1  -0.00290869  0.66411190  0.66215125  1
  Fe  Fe35  1  0.16315424  0.82701690  0.82962414  1
  Fe  Fe36  1  0.49590296  0.16231279  0.49291263  1
  Cr  Cr37  1  0.32860111  0.99250352  0.66337116  1
  Fe  Fe38  1  0.49456443  0.16105304  0.83034279  1
  Fe  Fe39  1  0.49625495  0.49539737  0.49348239  1
  Cr  Cr40  1  0.33307631  0.32644124  0.66008999  1
  Cr  Cr41  1  0.49384557  0.49973677  0.82648535  1
  Fe  Fe42  1  0.49595184  0.82785909  0.49484539  1
  Fe  Fe43  1  0.32983943  0.66338913  0.66044897  1
  Fe  Fe44  1  0.49295196  0.83016230  0.83110104  1
  Fe  Fe45  1  0.82703385  0.16193961  0.49430771  1
  Cr  Cr46  1  0.65872349  -0.00290448  0.66099115  1
  Cr  Cr47  1  0.83085253  0.15926791  0.82745064  1
  Cr  Cr48  1  0.82723623  0.49643933  0.49441210  1
  Cr  Cr49  1  0.66122144  0.32793219  0.66225033  1
  Fe  Fe50  1  0.82920194  0.49626599  0.83009401  1
  Fe  Fe51  1  0.82756266  0.82943786  0.49527992  1
  Cr  Cr52  1  0.66148986  0.66153955  0.66243102  1
  Cr  Cr53  1  0.82531809  0.82899905  0.82867228  1
" 