1556,Fe52Cr48_10,-216.208256308513, 182.311380257778,Fe52Cr48,"# generated using pymatgen
 data_Cr14Fe13
_symmetry_space_group_name_H-M   'P 1'
_cell_length_a   7.53943825
_cell_length_b   7.53943825
_cell_length_c   10.66237583
_cell_angle_alpha   90.00000000
_cell_angle_beta   90.00000000
_cell_angle_gamma   90.00000000
_symmetry_Int_Tables_number   1
_chemical_formula_structural   Cr14Fe13
_chemical_formula_sum   'Cr28 Fe26'
_cell_volume   606.08280666
_cell_formula_units_Z   2
loop_
 _symmetry_equiv_pos_site_id
 _symmetry_equiv_pos_as_xyz
  1  'x, y, z'
loop_
 _atom_site_type_symbol
 _atom_site_label
 _atom_site_symmetry_multiplicity
 _atom_site_fract_x
 _atom_site_fract_y
 _atom_site_fract_z
 _atom_site_occupancy
  Cr  Cr0  1  0.99401494  0.99502323  0.98953044  1
  Cr  Cr1  1  0.16063120  0.16090090  0.16283068  1
  Cr  Cr2  1  0.99250007  0.99410019  0.33005580  1
  Cr  Cr3  1  0.99225633  0.32879662  0.99266167  1
  Cr  Cr4  1  0.16198303  0.49417678  0.16496377  1
  Fe  Fe5  1  0.99289373  0.32831173  0.32885818  1
  Cr  Cr6  1  -0.00232568  0.66066506  0.99388258  1
  Cr  Cr7  1  0.16083672  0.83109773  0.16279168  1
  Fe  Fe8  1  0.99155431  0.65905896  0.32918991  1
  Fe  Fe9  1  0.32752095  -0.00349633  0.99337632  1
  Fe  Fe10  1  0.49392518  0.16120750  0.16114126  1
  Fe  Fe11  1  0.32982630  -0.00312752  0.32913037  1
  Cr  Cr12  1  0.32890980  0.33034845  0.99413853  1
  Cr  Cr13  1  0.49978236  0.49694443  0.15829704  1
  Fe  Fe14  1  0.33156188  0.32670385  0.32788365  1
  Cr  Cr15  1  0.33022430  0.66632612  0.99260813  1
  Fe  Fe16  1  0.49428125  0.83064105  0.16188723  1
  Cr  Cr17  1  0.32973217  0.66250885  0.32786320  1
  Cr  Cr18  1  0.65950082  -0.00252770  -0.00423812  1
  Fe  Fe19  1  0.82771275  0.16263784  0.16135432  1
  Cr  Cr20  1  0.65864958  -0.00380836  0.33152344  1
  Fe  Fe21  1  0.66314800  0.32994594  0.99439193  1
  Fe  Fe22  1  0.82979522  0.49460211  0.16168301  1
  Cr  Cr23  1  0.66192572  0.32791014  0.32710657  1
  Fe  Fe24  1  0.66438103  0.66295261  0.99375344  1
  Cr  Cr25  1  0.82630594  0.82721058  0.16337033  1
  Fe  Fe26  1  0.66276498  0.66097630  0.32934870  1
  Cr  Cr27  1  0.16207850  0.16340272  0.49436863  1
  Cr  Cr28  1  0.99363380  0.99322064  0.66624623  1
  Fe  Fe29  1  0.16327399  0.16252248  0.82802426  1
  Cr  Cr30  1  0.16329221  0.49300917  0.49358480  1
  Cr  Cr31  1  0.99468047  0.32990827  0.66491066  1
  Fe  Fe32  1  0.16312762  0.49551952  0.82736584  1
  Cr  Cr33  1  0.15988231  0.82872693  0.49226363  1
  Cr  Cr34  1  -0.00288469  0.66164884  0.66167108  1
  Fe  Fe35  1  0.16457381  0.82806012  0.82758568  1
  Fe  Fe36  1  0.49367239  0.16191320  0.49658732  1
  Cr  Cr37  1  0.32980428  0.99405383  0.66135885  1
  Cr  Cr38  1  0.49544945  0.16329643  0.82693104  1
  Cr  Cr39  1  0.49557949  0.49445045  0.49996799  1
  Fe  Fe40  1  0.32633123  0.32860368  0.66338580  1
  Cr  Cr41  1  0.49661931  0.49813010  0.82627223  1
  Cr  Cr42  1  0.49865895  0.82646478  0.49825587  1
  Fe  Fe43  1  0.32770082  0.66171788  0.66332410  1
  Fe  Fe44  1  0.49713304  0.82970161  0.82701799  1
  Cr  Cr45  1  0.82851749  0.15855560  0.49852583  1
  Fe  Fe46  1  0.66310702  0.99235497  0.66350637  1
  Fe  Fe47  1  0.82615267  0.16251735  0.82796676  1
  Fe  Fe48  1  0.82886404  0.49564044  0.49473519  1
  Cr  Cr49  1  0.66162908  0.32699428  0.66109721  1
  Fe  Fe50  1  0.82740096  0.49661804  0.82844941  1
  Fe  Fe51  1  0.82796514  0.82459505  0.49599492  1
  Fe  Fe52  1  0.66541833  0.66301312  0.66323567  1
  Fe  Fe53  1  0.82480229  0.82603034  0.82873951  1
" 