5911,Fe52Cr48_16,-216.309925687609, 178.685620904946,Fe52Cr48,"# generated using pymatgen
 data_Cr14Fe13
_symmetry_space_group_name_H-M   'P 1'
_cell_length_a   7.54170113
_cell_length_b   7.54170113
_cell_length_c   10.66557602
_cell_angle_alpha   90.00000000
_cell_angle_beta   90.00000000
_cell_angle_gamma   90.00000000
_symmetry_Int_Tables_number   1
_chemical_formula_structural   Cr14Fe13
_chemical_formula_sum   'Cr28 Fe26'
_cell_volume   606.62869600
_cell_formula_units_Z   2
loop_
 _symmetry_equiv_pos_site_id
 _symmetry_equiv_pos_as_xyz
  1  'x, y, z'
loop_
 _atom_site_type_symbol
 _atom_site_label
 _atom_site_symmetry_multiplicity
 _atom_site_fract_x
 _atom_site_fract_y
 _atom_site_fract_z
 _atom_site_occupancy
  Cr  Cr0  1  0.99504381  0.99441658  -0.00454058  1
  Cr  Cr1  1  0.16162059  0.16257272  0.15817270  1
  Cr  Cr2  1  -0.00423650  0.99389000  0.33039145  1
  Fe  Fe3  1  -0.00358395  0.32828785  -0.00437854  1
  Fe  Fe4  1  0.16342660  0.49536459  0.16174102  1
  Cr  Cr5  1  0.99352351  0.32695249  0.32669120  1
  Cr  Cr6  1  0.99464265  0.66203940  -0.00487532  1
  Fe  Fe7  1  0.16178476  0.82685966  0.16200264  1
  Cr  Cr8  1  -0.00388167  0.66401853  0.32785635  1
  Cr  Cr9  1  0.33009112  0.99474657  -0.00390524  1
  Fe  Fe10  1  0.49675993  0.16248124  0.16132093  1
  Cr  Cr11  1  0.32720975  0.99377502  0.32672239  1
  Fe  Fe12  1  0.32814707  0.32930423  -0.00402964  1
  Fe  Fe13  1  0.49438515  0.49526132  0.16279907  1
  Cr  Cr14  1  0.33164639  0.32846416  0.32939070  1
  Cr  Cr15  1  0.32948006  0.66253769  -0.00285597  1
  Fe  Fe16  1  0.49649582  0.82764391  0.16284692  1
  Fe  Fe17  1  0.32955867  0.66187094  0.32673772  1
  Fe  Fe18  1  0.66169475  0.99348449  -0.00305041  1
  Fe  Fe19  1  0.82691355  0.16033663  0.16106027  1
  Cr  Cr20  1  0.66198427  -0.00261141  0.32772891  1
  Cr  Cr21  1  0.66088971  0.32860744  -0.00295159  1
  Cr  Cr22  1  0.82800844  0.49485713  0.16182794  1
  Fe  Fe23  1  0.66081719  0.32831236  0.32832691  1
  Cr  Cr24  1  0.66114655  0.66398143  0.99330736  1
  Fe  Fe25  1  0.82714922  0.82959082  0.16183883  1
  Fe  Fe26  1  0.65974084  0.66163409  0.32752960  1
  Cr  Cr27  1  0.16153856  0.16028434  0.49808732  1
  Fe  Fe28  1  0.99170628  0.99306865  0.66100667  1
  Fe  Fe29  1  0.16199103  0.16229416  0.82896479  1
  Cr  Cr30  1  0.16271563  0.49730196  0.49603252  1
  Cr  Cr31  1  0.99467853  0.32745549  0.66355735  1
  Cr  Cr32  1  0.16208760  0.49322778  0.82946736  1
  Fe  Fe33  1  0.16086929  0.82715153  0.49697132  1
  Fe  Fe34  1  -0.00484571  0.66395352  0.66074016  1
  Cr  Cr35  1  0.16228570  0.82839397  0.82467261  1
  Fe  Fe36  1  0.49591447  0.16217600  0.49491015  1
  Cr  Cr37  1  0.32799625  -0.00410783  0.66158527  1
  Cr  Cr38  1  0.49455048  0.15925562  0.82874996  1
  Fe  Fe39  1  0.49437003  0.49596767  0.49459050  1
  Fe  Fe40  1  0.32917285  0.32902395  0.66098519  1
  Cr  Cr41  1  0.49320995  0.49499718  0.82647477  1
  Cr  Cr42  1  0.49451073  0.82766976  0.49521323  1
  Fe  Fe43  1  0.32828941  0.66094032  0.66104764  1
  Fe  Fe44  1  0.49622848  0.82931526  0.82775760  1
  Fe  Fe45  1  0.82716559  0.15963005  0.49554392  1
  Fe  Fe46  1  0.66343808  0.99493066  0.66078060  1
  Cr  Cr47  1  0.82791311  0.15980458  0.83005571  1
  Cr  Cr48  1  0.82711723  0.49601577  0.49320749  1
  Cr  Cr49  1  0.66004944  0.32825465  0.65671049  1
  Cr  Cr50  1  0.82988129  0.49531000  0.82934307  1
  Fe  Fe51  1  0.82896993  0.82919680  0.49652809  1
  Cr  Cr52  1  0.66273294  0.66238336  0.66455966  1
  Fe  Fe53  1  0.82773790  0.83015833  0.82748434  1
" 