183,Fe52Cr48_14,-215.950914727736, 174.247820477832,Fe52Cr48,"# generated using pymatgen
 data_Cr14Fe13
_symmetry_space_group_name_H-M   'P 1'
_cell_length_a   7.53796950
_cell_length_b   7.53796950
_cell_length_c   10.66029870
_cell_angle_alpha   90.00000000
_cell_angle_beta   90.00000000
_cell_angle_gamma   90.00000000
_symmetry_Int_Tables_number   1
_chemical_formula_structural   Cr14Fe13
_chemical_formula_sum   'Cr28 Fe26'
_cell_volume   605.72866384
_cell_formula_units_Z   2
loop_
 _symmetry_equiv_pos_site_id
 _symmetry_equiv_pos_as_xyz
  1  'x, y, z'
loop_
 _atom_site_type_symbol
 _atom_site_label
 _atom_site_symmetry_multiplicity
 _atom_site_fract_x
 _atom_site_fract_y
 _atom_site_fract_z
 _atom_site_occupancy
  Fe  Fe0  1  0.99231699  0.99463956  0.99316616  1
  Cr  Cr1  1  0.16116466  0.16070002  0.16428052  1
  Fe  Fe2  1  0.99508554  0.99406682  0.33093320  1
  Cr  Cr3  1  0.99236107  0.32839097  0.99320606  1
  Cr  Cr4  1  0.16206258  0.49387528  0.16264215  1
  Cr  Cr5  1  -0.00405406  0.32899351  0.33229541  1
  Fe  Fe6  1  0.99281390  0.66309597  0.99438444  1
  Cr  Cr7  1  0.16074270  0.83146969  0.15764817  1
  Cr  Cr8  1  0.99463619  0.66495257  0.32899331  1
  Cr  Cr9  1  0.33113743  -0.00377773  0.99464425  1
  Fe  Fe10  1  0.49670291  0.16060712  0.16204992  1
  Cr  Cr11  1  0.32996286  -0.00399273  0.33075286  1
  Cr  Cr12  1  0.33295319  0.32783094  -0.00302637  1
  Cr  Cr13  1  0.49726576  0.49611606  0.16170108  1
  Fe  Fe14  1  0.32880861  0.32798427  0.33052563  1
  Cr  Cr15  1  0.32891825  0.66171355  0.99480118  1
  Cr  Cr16  1  0.49774235  0.82885670  0.16372243  1
  Cr  Cr17  1  0.32743003  0.66321408  0.32901096  1
  Fe  Fe18  1  0.66258802  -0.00331470  0.99325672  1
  Cr  Cr19  1  0.82887707  0.15976021  0.16114128  1
  Fe  Fe20  1  0.66265666  0.99351998  0.33057880  1
  Fe  Fe21  1  0.66062881  0.32675478  0.99345686  1
  Cr  Cr22  1  0.82630006  0.49613026  0.16193672  1
  Cr  Cr23  1  0.65974071  0.32641546  0.32591269  1
  Fe  Fe24  1  0.66253370  0.66236792  0.99336171  1
  Cr  Cr25  1  0.82718918  0.83012716  0.16150603  1
  Fe  Fe26  1  0.66199156  0.66468640  0.33047375  1
  Fe  Fe27  1  0.16371354  0.16187298  0.49610271  1
  Cr  Cr28  1  0.99365344  0.99277790  0.66177631  1
  Cr  Cr29  1  0.16084274  0.16094631  0.82727171  1
  Fe  Fe30  1  0.16202833  0.49561053  0.49721199  1
  Fe  Fe31  1  -0.00449720  0.32863327  0.66089819  1
  Cr  Cr32  1  0.16180495  0.49579731  0.82572257  1
  Fe  Fe33  1  0.16194055  0.82846459  0.49706808  1
  Fe  Fe34  1  0.99523229  0.66208141  0.66052035  1
  Cr  Cr35  1  0.16276885  0.82922880  0.83029318  1
  Fe  Fe36  1  0.49572029  0.16077563  0.49595849  1
  Fe  Fe37  1  0.33037496  0.99486199  0.65959945  1
  Fe  Fe38  1  0.49693700  0.16137662  0.82896746  1
  Cr  Cr39  1  0.49588017  0.49835462  0.49524794  1
  Cr  Cr40  1  0.32999846  0.32807898  0.66077152  1
  Fe  Fe41  1  0.49526669  0.49594517  0.82876031  1
  Fe  Fe42  1  0.49744579  0.83057952  0.49704913  1
  Fe  Fe43  1  0.32822818  0.66387551  0.66027204  1
  Cr  Cr44  1  0.49650401  0.82840608  0.82493395  1
  Cr  Cr45  1  0.82932931  0.16069566  0.49565466  1
  Fe  Fe46  1  0.66081071  0.99438284  0.66145483  1
  Fe  Fe47  1  0.82671682  0.15825539  0.82938963  1
  Cr  Cr48  1  0.82776635  0.49578030  0.49634253  1
  Cr  Cr49  1  0.66234545  0.32650983  0.66690260  1
  Cr  Cr50  1  0.82693847  0.49555817  0.82799877  1
  Fe  Fe51  1  0.82639238  0.82848807  0.49540251  1
  Fe  Fe52  1  0.66267292  0.66432906  0.66157274  1
  Fe  Fe53  1  0.82859507  0.82911659  0.82946766  1
" 