7257,Fe52Cr48_12,-215.859677098484, 181.20425363705,Fe52Cr48,"# generated using pymatgen
 data_Cr14Fe13
_symmetry_space_group_name_H-M   'P 1'
_cell_length_a   7.55079003
_cell_length_b   7.55079003
_cell_length_c   10.67842967
_cell_angle_alpha   90.00000000
_cell_angle_beta   90.00000000
_cell_angle_gamma   90.00000000
_symmetry_Int_Tables_number   1
_chemical_formula_structural   Cr14Fe13
_chemical_formula_sum   'Cr28 Fe26'
_cell_volume   608.82458175
_cell_formula_units_Z   2
loop_
 _symmetry_equiv_pos_site_id
 _symmetry_equiv_pos_as_xyz
  1  'x, y, z'
loop_
 _atom_site_type_symbol
 _atom_site_label
 _atom_site_symmetry_multiplicity
 _atom_site_fract_x
 _atom_site_fract_y
 _atom_site_fract_z
 _atom_site_occupancy
  Cr  Cr0  1  -0.00489817  -0.00532320  0.99265596  1
  Cr  Cr1  1  0.16287465  0.16270869  0.16114073  1
  Cr  Cr2  1  0.99319475  -0.00515959  0.33054348  1
  Fe  Fe3  1  -0.00531911  0.32938728  -0.00495059  1
  Fe  Fe4  1  0.16020023  0.49415202  0.15973167  1
  Fe  Fe5  1  0.99400412  0.32870767  0.32730609  1
  Fe  Fe6  1  -0.00490294  0.66022881  -0.00301813  1
  Fe  Fe7  1  0.16114213  0.82732987  0.15982784  1
  Cr  Cr8  1  -0.00518445  0.66174007  0.32488858  1
  Fe  Fe9  1  0.32762769  0.99386601  -0.00496526  1
  Cr  Cr10  1  0.49295842  0.15919063  0.16465842  1
  Fe  Fe11  1  0.32747877  0.99390235  0.32751027  1
  Fe  Fe12  1  0.32707670  0.32883029  -0.00532517  1
  Cr  Cr13  1  0.49497536  0.49313609  0.16112845  1
  Fe  Fe14  1  0.32692285  0.32793046  0.32738012  1
  Fe  Fe15  1  0.32619890  0.66077087  -0.00466941  1
  Cr  Cr16  1  0.49366021  0.83087967  0.16112197  1
  Cr  Cr17  1  0.32710903  0.66010553  0.32740691  1
  Cr  Cr18  1  0.66258628  -0.00498396  -0.00539387  1
  Cr  Cr19  1  0.82760411  0.16416445  0.16225786  1
  Fe  Fe20  1  0.66223718  0.99437249  0.32812286  1
  Cr  Cr21  1  0.66077809  0.32825255  0.99094025  1
  Fe  Fe22  1  0.82987161  0.49411959  0.16084551  1
  Fe  Fe23  1  0.66254855  0.32721498  0.32775854  1
  Cr  Cr24  1  0.65977505  0.66009360  -0.00438127  1
  Fe  Fe25  1  0.82891559  0.82739561  0.16080602  1
  Cr  Cr26  1  0.66158366  0.66172176  0.32669774  1
  Cr  Cr27  1  0.16210367  0.16132570  0.49327978  1
  Fe  Fe28  1  0.99275672  0.99409515  0.66061792  1
  Cr  Cr29  1  0.16175682  0.16108273  0.82892881  1
  Cr  Cr30  1  0.15947975  0.49357936  0.49434444  1
  Cr  Cr31  1  0.99367672  0.32358808  0.66117525  1
  Cr  Cr32  1  0.16055045  0.49484912  0.82910123  1
  Cr  Cr33  1  0.16049552  0.82831841  0.49859813  1
  Fe  Fe34  1  0.99374779  0.66194278  0.66052220  1
  Cr  Cr35  1  0.16160857  0.82737845  0.82715231  1
  Cr  Cr36  1  0.49503408  0.16023067  0.48955191  1
  Fe  Fe37  1  0.32791713  -0.00472949  0.66113375  1
  Cr  Cr38  1  0.49375611  0.16111243  0.82875512  1
  Cr  Cr39  1  0.49578519  0.49319472  0.49741406  1
  Fe  Fe40  1  0.32935597  0.32797468  0.66167974  1
  Fe  Fe41  1  0.49292646  0.49485705  0.82636624  1
  Cr  Cr42  1  0.49610801  0.82989691  0.49511107  1
  Fe  Fe43  1  0.32822055  0.66019013  0.66160654  1
  Cr  Cr44  1  0.49368686  0.82753680  0.82715807  1
  Fe  Fe45  1  0.82642215  0.16013156  0.49435438  1
  Fe  Fe46  1  0.66280492  -0.00423006  0.66064483  1
  Fe  Fe47  1  0.82797150  0.16072028  0.82662131  1
  Cr  Cr48  1  0.82811534  0.49479727  0.49307059  1
  Fe  Fe49  1  0.66058500  0.32688055  0.66191850  1
  Cr  Cr50  1  0.82804025  0.49461289  0.82888541  1
  Fe  Fe51  1  0.82719926  0.82925508  0.49640850  1
  Fe  Fe52  1  0.66136516  0.66079812  0.66112893  1
  Cr  Cr53  1  0.82806596  0.82643116  0.82500054  1
" 