3910,Fe52Cr48_4,-215.963976675363, 179.000178832829,Fe52Cr48,"# generated using pymatgen
 data_Cr14Fe13
_symmetry_space_group_name_H-M   'P 1'
_cell_length_a   7.53481287
_cell_length_b   7.53481287
_cell_length_c   10.65583454
_cell_angle_alpha   90.00000000
_cell_angle_beta   90.00000000
_cell_angle_gamma   90.00000000
_symmetry_Int_Tables_number   1
_chemical_formula_structural   Cr14Fe13
_chemical_formula_sum   'Cr28 Fe26'
_cell_volume   604.96800931
_cell_formula_units_Z   2
loop_
 _symmetry_equiv_pos_site_id
 _symmetry_equiv_pos_as_xyz
  1  'x, y, z'
loop_
 _atom_site_type_symbol
 _atom_site_label
 _atom_site_symmetry_multiplicity
 _atom_site_fract_x
 _atom_site_fract_y
 _atom_site_fract_z
 _atom_site_occupancy
  Fe  Fe0  1  0.99464414  0.99405780  -0.00327372  1
  Cr  Cr1  1  0.16180240  0.16196451  0.16040725  1
  Fe  Fe2  1  -0.00262819  0.99330422  0.32910945  1
  Fe  Fe3  1  -0.00168381  0.32853546  0.99543976  1
  Fe  Fe4  1  0.16003824  0.49426333  0.16302644  1
  Cr  Cr5  1  0.99134129  0.32658793  0.32727547  1
  Cr  Cr6  1  -0.00426810  0.65776664  -0.00348277  1
  Fe  Fe7  1  0.16001972  0.83043445  0.16235765  1
  Fe  Fe8  1  0.99470850  0.66307451  0.32668950  1
  Cr  Cr9  1  0.33017290  0.99470722  0.99349355  1
  Cr  Cr10  1  0.49467650  0.16276816  0.16041081  1
  Fe  Fe11  1  0.32698969  -0.00353626  0.32862476  1
  Fe  Fe12  1  0.32768583  0.33041805  0.99422349  1
  Cr  Cr13  1  0.49451152  0.49301714  0.16563254  1
  Cr  Cr14  1  0.32648904  0.33003749  0.33106896  1
  Cr  Cr15  1  0.32807165  0.66120483  -0.00094575  1
  Fe  Fe16  1  0.49524067  0.83120371  0.16194281  1
  Cr  Cr17  1  0.32717686  0.66563297  0.32609623  1
  Fe  Fe18  1  0.66483404  0.99451068  -0.00242403  1
  Fe  Fe19  1  0.83019827  0.16097005  0.16038194  1
  Cr  Cr20  1  0.66445953  -0.00263498  0.32598289  1
  Cr  Cr21  1  0.66578387  0.32893063  -0.00291993  1
  Fe  Fe22  1  0.83048589  0.49429967  0.16290304  1
  Fe  Fe23  1  0.66274540  0.32862784  0.32859212  1
  Cr  Cr24  1  0.66195909  0.66268591  -0.00253656  1
  Fe  Fe25  1  0.83156011  0.83052942  0.16174030  1
  Cr  Cr26  1  0.66217961  0.66204814  0.32681452  1
  Fe  Fe27  1  0.16009305  0.16163826  0.49336913  1
  Cr  Cr28  1  -0.00320604  -0.00063867  0.65899955  1
  Fe  Fe29  1  0.16395793  0.16406355  0.83063347  1
  Cr  Cr30  1  0.16079707  0.49663157  0.49541252  1
  Cr  Cr31  1  0.99489060  0.32828617  0.66491784  1
  Fe  Fe32  1  0.16139950  0.49395857  0.82912843  1
  Fe  Fe33  1  0.16224401  0.82947814  0.49353499  1
  Fe  Fe34  1  -0.00391315  0.66091364  0.66303234  1
  Cr  Cr35  1  0.15934387  0.82894530  0.82713381  1
  Cr  Cr36  1  0.49539020  0.16578487  0.49501017  1
  Cr  Cr37  1  0.32794981  -0.00331170  0.66058167  1
  Fe  Fe38  1  0.49450565  0.16337714  0.82968110  1
  Fe  Fe39  1  0.49612418  0.49639671  0.49631137  1
  Fe  Fe40  1  0.32734128  0.32704918  0.66163225  1
  Cr  Cr41  1  0.49440655  0.49269724  0.82549458  1
  Cr  Cr42  1  0.49688988  0.82957739  0.49478231  1
  Cr  Cr43  1  0.32899781  0.66229258  0.66117753  1
  Cr  Cr44  1  0.49750823  0.82851183  0.83060226  1
  Fe  Fe45  1  0.82815487  0.16291818  0.49480754  1
  Cr  Cr46  1  0.66184809  -0.00249418  0.66517247  1
  Cr  Cr47  1  0.83004502  0.16060055  0.83265614  1
  Cr  Cr48  1  0.82706548  0.49569935  0.49722913  1
  Fe  Fe49  1  0.66184562  0.32829671  0.66279320  1
  Fe  Fe50  1  0.82875193  0.49560194  0.82811554  1
  Cr  Cr51  1  0.83216101  0.82792761  0.49821671  1
  Fe  Fe52  1  0.66306033  0.66056679  0.66262652  1
  Cr  Cr53  1  0.83032477  0.82699398  0.82748895  1
" 