6745,Fe52Cr48_0,-215.966052417932, 176.455468356057,Fe52Cr48,"# generated using pymatgen
 data_Cr14Fe13
_symmetry_space_group_name_H-M   'P 1'
_cell_length_a   7.54283340
_cell_length_b   7.54283340
_cell_length_c   10.66717729
_cell_angle_alpha   90.00000000
_cell_angle_beta   90.00000000
_cell_angle_gamma   90.00000000
_symmetry_Int_Tables_number   1
_chemical_formula_structural   Cr14Fe13
_chemical_formula_sum   'Cr28 Fe26'
_cell_volume   606.90196480
_cell_formula_units_Z   2
loop_
 _symmetry_equiv_pos_site_id
 _symmetry_equiv_pos_as_xyz
  1  'x, y, z'
loop_
 _atom_site_type_symbol
 _atom_site_label
 _atom_site_symmetry_multiplicity
 _atom_site_fract_x
 _atom_site_fract_y
 _atom_site_fract_z
 _atom_site_occupancy
  Fe  Fe0  1  -0.00455202  -0.00475364  0.99460598  1
  Cr  Cr1  1  0.15980660  0.16173593  0.16003276  1
  Cr  Cr2  1  0.99396945  0.99460038  0.32897859  1
  Cr  Cr3  1  -0.00383433  0.33003314  -0.00203170  1
  Fe  Fe4  1  0.16178138  0.49508658  0.16164660  1
  Cr  Cr5  1  -0.00458510  0.33119713  0.32553816  1
  Cr  Cr6  1  -0.00436823  0.65897706  0.99432505  1
  Cr  Cr7  1  0.16295028  0.82896702  0.16199770  1
  Cr  Cr8  1  -0.00386913  0.65913042  0.32897169  1
  Cr  Cr9  1  0.32939105  -0.00281721  0.99412341  1
  Cr  Cr10  1  0.49538499  0.16334610  0.16167170  1
  Fe  Fe11  1  0.32807576  0.99404611  0.32917810  1
  Fe  Fe12  1  0.32889338  0.32892913  0.99366679  1
  Cr  Cr13  1  0.49627836  0.49570283  0.16241816  1
  Cr  Cr14  1  0.32800883  0.32933560  0.32930726  1
  Cr  Cr15  1  0.32665943  0.65950104  0.99408961  1
  Cr  Cr16  1  0.49372495  0.82588530  0.16365638  1
  Fe  Fe17  1  0.32817663  0.66174220  0.32915965  1
  Cr  Cr18  1  0.66084661  -0.00334606  -0.00389446  1
  Fe  Fe19  1  0.82771432  0.16300472  0.16114837  1
  Cr  Cr20  1  0.65960797  -0.00470270  0.32847172  1
  Fe  Fe21  1  0.66108673  0.32891405  0.99449805  1
  Fe  Fe22  1  0.82782611  0.49350167  0.16224351  1
  Fe  Fe23  1  0.66188871  0.32926869  0.32829826  1
  Cr  Cr24  1  0.66263710  0.66096926  0.99424624  1
  Cr  Cr25  1  0.82825148  0.82808107  0.16105846  1
  Fe  Fe26  1  0.66130163  0.66007610  0.32881183  1
  Cr  Cr27  1  0.16242156  0.15980579  0.49669382  1
  Fe  Fe28  1  -0.00325797  0.99390062  0.66151014  1
  Fe  Fe29  1  0.16302468  0.16091984  0.82785008  1
  Fe  Fe30  1  0.16401246  0.49640934  0.49544331  1
  Cr  Cr31  1  -0.00248262  0.33005288  0.66142059  1
  Fe  Fe32  1  0.16291517  0.49460889  0.82783909  1
  Fe  Fe33  1  0.16187868  0.82783052  0.49533302  1
  Cr  Cr34  1  -0.00302216  0.66170799  0.66162534  1
  Fe  Fe35  1  0.16150088  0.82940204  0.82747472  1
  Fe  Fe36  1  0.49461543  0.16317115  0.49531110  1
  Fe  Fe37  1  0.32676733  -0.00469511  0.66222600  1
  Fe  Fe38  1  0.49369745  0.16392189  0.82795110  1
  Fe  Fe39  1  0.49403536  0.49379655  0.49483524  1
  Fe  Fe40  1  0.32986209  0.32890487  0.66199086  1
  Fe  Fe41  1  0.49477428  0.49256643  0.82795647  1
  Cr  Cr42  1  0.49240483  0.82590431  0.49162977  1
  Fe  Fe43  1  0.32734949  0.66070661  0.66175179  1
  Cr  Cr44  1  0.49243216  0.82614496  0.82964935  1
  Cr  Cr45  1  0.82850950  0.16232795  0.49520133  1
  Cr  Cr46  1  0.65993427  -0.00358731  0.66034853  1
  Cr  Cr47  1  0.82999542  0.16301034  0.82886018  1
  Cr  Cr48  1  0.82542682  0.49454423  0.49441723  1
  Fe  Fe49  1  0.65942200  0.32890268  0.66213261  1
  Fe  Fe50  1  0.82725001  0.49409854  0.82817619  1
  Fe  Fe51  1  0.82935721  0.82840730  0.49500216  1
  Cr  Cr52  1  0.66177641  0.66122043  0.66220917  1
  Cr  Cr53  1  0.83106682  0.82832483  0.82766339  1
" 