7425,Fe52Cr48_11,-215.861982380464, 179.783945487499,Fe52Cr48,"# generated using pymatgen
 data_Cr14Fe13
_symmetry_space_group_name_H-M   'P 1'
_cell_length_a   7.52482477
_cell_length_b   7.52482477
_cell_length_c   10.64170925
_cell_angle_alpha   90.00000000
_cell_angle_beta   90.00000000
_cell_angle_gamma   90.00000000
_symmetry_Int_Tables_number   1
_chemical_formula_structural   Cr14Fe13
_chemical_formula_sum   'Cr28 Fe26'
_cell_volume   602.56537333
_cell_formula_units_Z   2
loop_
 _symmetry_equiv_pos_site_id
 _symmetry_equiv_pos_as_xyz
  1  'x, y, z'
loop_
 _atom_site_type_symbol
 _atom_site_label
 _atom_site_symmetry_multiplicity
 _atom_site_fract_x
 _atom_site_fract_y
 _atom_site_fract_z
 _atom_site_occupancy
  Cr  Cr0  1  -0.00331940  0.99300802  -0.00375147  1
  Cr  Cr1  1  0.16402258  0.16136499  0.16164655  1
  Cr  Cr2  1  0.99434334  0.99429961  0.32866771  1
  Fe  Fe3  1  0.99588439  0.33078079  0.99598105  1
  Cr  Cr4  1  0.16069071  0.49586567  0.16530603  1
  Fe  Fe5  1  0.99464486  0.32907487  0.32935582  1
  Fe  Fe6  1  0.99473769  0.66231666  0.99549056  1
  Fe  Fe7  1  0.16422546  0.82966234  0.16237829  1
  Cr  Cr8  1  -0.00306867  0.66502675  0.32993100  1
  Fe  Fe9  1  0.33046148  0.99385421  0.99578277  1
  Cr  Cr10  1  0.49492980  0.16037695  0.16581747  1
  Fe  Fe11  1  0.33025934  0.99399780  0.33021916  1
  Cr  Cr12  1  0.33198926  0.33164601  0.99348270  1
  Fe  Fe13  1  0.49587311  0.49707006  0.16315779  1
  Cr  Cr14  1  0.33164296  0.33042024  0.33291596  1
  Cr  Cr15  1  0.32875656  0.66356653  0.99564291  1
  Fe  Fe16  1  0.49531953  0.82835856  0.16252944  1
  Cr  Cr17  1  0.32855136  0.66275257  0.33038197  1
  Cr  Cr18  1  0.66380490  -0.00340724  -0.00346010  1
  Fe  Fe19  1  0.83030971  0.16402425  0.16361162  1
  Cr  Cr20  1  0.66376557  -0.00262411  0.33190562  1
  Cr  Cr21  1  0.66223711  0.33061147  -0.00301828  1
  Cr  Cr22  1  0.82842685  0.49741566  0.16120010  1
  Fe  Fe23  1  0.66436203  0.32992094  0.32880223  1
  Fe  Fe24  1  0.66237098  0.66356693  0.99607281  1
  Fe  Fe25  1  0.82925142  0.82939773  0.16147605  1
  Cr  Cr26  1  0.66275221  0.66468794  0.32821760  1
  Cr  Cr27  1  0.16357400  0.16398689  0.49710807  1
  Fe  Fe28  1  0.99511048  -0.00363484  0.66252474  1
  Cr  Cr29  1  0.16262639  0.16202923  0.82998310  1
  Fe  Fe30  1  0.16238779  0.49501238  0.49807908  1
  Fe  Fe31  1  -0.00315978  0.32956121  0.66229405  1
  Cr  Cr32  1  0.16131879  0.49621324  0.82647166  1
  Cr  Cr33  1  0.16477426  0.82979342  0.49622104  1
  Cr  Cr34  1  -0.00232722  0.66423717  0.66088255  1
  Fe  Fe35  1  0.16364683  0.82959159  0.82907255  1
  Fe  Fe36  1  0.49624260  0.16144503  0.49695122  1
  Cr  Cr37  1  0.33032416  0.99527943  0.66373622  1
  Cr  Cr38  1  0.49489870  0.16012124  0.82825111  1
  Cr  Cr39  1  0.49633800  0.49839324  0.49674051  1
  Fe  Fe40  1  0.32857955  0.33192822  0.66203585  1
  Fe  Fe41  1  0.49811749  0.49954590  0.82771360  1
  Fe  Fe42  1  0.49807513  0.83109829  0.49767882  1
  Fe  Fe43  1  0.33221068  0.66213493  0.66357101  1
  Fe  Fe44  1  0.49523187  0.82709799  0.82897533  1
  Cr  Cr45  1  0.82951323  0.16276341  0.49675947  1
  Fe  Fe46  1  0.66311612  0.99319480  0.66120891  1
  Cr  Cr47  1  0.83132285  0.16313714  0.82893852  1
  Cr  Cr48  1  0.83001256  0.49733314  0.49562024  1
  Cr  Cr49  1  0.66066027  0.32855978  0.66411528  1
  Fe  Fe50  1  0.82874012  0.49654283  0.82997132  1
  Fe  Fe51  1  0.82727034  0.82977435  0.49875840  1
  Fe  Fe52  1  0.66008203  0.66431992  0.66262545  1
  Cr  Cr53  1  0.82677601  0.82619230  0.82665699  1
" 