1299,Fe53Cr47_1,-216.140495654523, 179.634053308003,Fe53Cr47,"# generated using pymatgen
 data_Cr14Fe13
_symmetry_space_group_name_H-M   'P 1'
_cell_length_a   7.53867104
_cell_length_b   7.53867104
_cell_length_c   10.66129082
_cell_angle_alpha   90.00000000
_cell_angle_beta   90.00000000
_cell_angle_gamma   90.00000000
_symmetry_Int_Tables_number   1
_chemical_formula_structural   Cr14Fe13
_chemical_formula_sum   'Cr28 Fe26'
_cell_volume   605.89779955
_cell_formula_units_Z   2
loop_
 _symmetry_equiv_pos_site_id
 _symmetry_equiv_pos_as_xyz
  1  'x, y, z'
loop_
 _atom_site_type_symbol
 _atom_site_label
 _atom_site_symmetry_multiplicity
 _atom_site_fract_x
 _atom_site_fract_y
 _atom_site_fract_z
 _atom_site_occupancy
  Cr  Cr0  1  -0.00440620  -0.00332664  0.99471106  1
  Fe  Fe1  1  0.15935498  0.16593999  0.16219553  1
  Cr  Cr2  1  0.99211150  0.99312057  0.33191863  1
  Fe  Fe3  1  -0.00289870  0.32751632  -0.00343711  1
  Fe  Fe4  1  0.16202636  0.49483922  0.16389771  1
  Fe  Fe5  1  -0.00251405  0.32552899  0.32924905  1
  Cr  Cr6  1  -0.00447377  0.66113276  0.99451705  1
  Cr  Cr7  1  0.16356233  0.83177723  0.16252970  1
  Fe  Fe8  1  -0.00243157  0.65980779  0.32887225  1
  Fe  Fe9  1  0.32827079  -0.00134639  -0.00310522  1
  Fe  Fe10  1  0.49536955  0.16362452  0.16281265  1
  Cr  Cr11  1  0.32839255  -0.00144225  0.32544777  1
  Cr  Cr12  1  0.32784654  0.32801051  0.99404755  1
  Cr  Cr13  1  0.49839988  0.49767491  0.16483930  1
  Cr  Cr14  1  0.33004008  0.33134641  0.32987675  1
  Cr  Cr15  1  0.32644379  0.65910437  -0.00298945  1
  Cr  Cr16  1  0.49326404  0.82991635  0.16211980  1
  Fe  Fe17  1  0.32559618  0.66241187  0.32900536  1
  Cr  Cr18  1  0.66254653  -0.00356665  -0.00266516  1
  Fe  Fe19  1  0.82948624  0.15964964  0.16403429  1
  Fe  Fe20  1  0.66174091  -0.00290821  0.32821911  1
  Cr  Cr21  1  0.66035007  0.32659248  -0.00366599  1
  Cr  Cr22  1  0.83122082  0.48862585  0.16358282  1
  Fe  Fe23  1  0.66298154  0.32342505  0.32870116  1
  Fe  Fe24  1  0.66148155  0.66048083  0.99520778  1
  Cr  Cr25  1  0.82740763  0.82506620  0.16164141  1
  Fe  Fe26  1  0.66365693  0.66257777  0.32878254  1
  Fe  Fe27  1  0.16227635  0.16315782  0.49484740  1
  Fe  Fe28  1  -0.00375208  -0.00335842  0.65800884  1
  Fe  Fe29  1  0.16420459  0.16482814  0.82754104  1
  Fe  Fe30  1  0.16162294  0.49573930  0.49327456  1
  Cr  Cr31  1  -0.00250420  0.33025497  0.66028196  1
  Fe  Fe32  1  0.16143373  0.49506971  0.82784519  1
  Fe  Fe33  1  0.16074608  0.82853468  0.49374626  1
  Cr  Cr34  1  0.99419314  0.66545495  0.66076568  1
  Cr  Cr35  1  0.16304777  0.83426764  0.82742453  1
  Fe  Fe36  1  0.49604221  0.16251543  0.49343990  1
  Cr  Cr37  1  0.32966135  -0.00180285  0.65998399  1
  Fe  Fe38  1  0.49505755  0.16096139  0.82822424  1
  Cr  Cr39  1  0.49691617  0.49589287  0.49597649  1
  Fe  Fe40  1  0.32767125  0.32814745  0.66171816  1
  Fe  Fe41  1  0.49237472  0.49332217  0.82876012  1
  Cr  Cr42  1  0.49285300  0.82852313  0.49052865  1
  Cr  Cr43  1  0.32620920  0.65907345  0.66018949  1
  Cr  Cr44  1  0.49346381  0.82818585  0.83361629  1
  Fe  Fe45  1  0.82811473  0.16111119  0.49454337  1
  Cr  Cr46  1  0.66439834  0.99435459  0.65929156  1
  Cr  Cr47  1  0.83315933  0.16288883  0.82699252  1
  Cr  Cr48  1  0.82827274  0.49224965  0.49161759  1
  Cr  Cr49  1  0.65795543  0.32641304  0.66177690  1
  Cr  Cr50  1  0.82734621  0.49349501  0.83199057  1
  Fe  Fe51  1  0.82647076  0.82582951  0.49349810  1
  Cr  Cr52  1  0.66245628  0.66264009  0.66763430  1
  Fe  Fe53  1  0.82896042  0.83014928  0.82961428  1
" 