3173,Fe53Cr47_0,-215.847113667349, 178.814161557442,Fe53Cr47,"# generated using pymatgen
 data_Cr14Fe13
_symmetry_space_group_name_H-M   'P 1'
_cell_length_a   7.53743614
_cell_length_b   7.53743614
_cell_length_c   10.65954442
_cell_angle_alpha   90.00000000
_cell_angle_beta   90.00000000
_cell_angle_gamma   90.00000000
_symmetry_Int_Tables_number   1
_chemical_formula_structural   Cr14Fe13
_chemical_formula_sum   'Cr28 Fe26'
_cell_volume   605.60009548
_cell_formula_units_Z   2
loop_
 _symmetry_equiv_pos_site_id
 _symmetry_equiv_pos_as_xyz
  1  'x, y, z'
loop_
 _atom_site_type_symbol
 _atom_site_label
 _atom_site_symmetry_multiplicity
 _atom_site_fract_x
 _atom_site_fract_y
 _atom_site_fract_z
 _atom_site_occupancy
  Fe  Fe0  1  0.99475896  -0.00410061  -0.00435282  1
  Cr  Cr1  1  0.16022702  0.16052942  0.16098401  1
  Fe  Fe2  1  0.99530452  -0.00442158  0.32787342  1
  Fe  Fe3  1  0.99442412  0.32779178  -0.00466460  1
  Cr  Cr4  1  0.16336986  0.49412364  0.16210030  1
  Cr  Cr5  1  0.99260577  0.32948157  0.32805868  1
  Cr  Cr6  1  -0.00337934  0.66201114  0.99382597  1
  Fe  Fe7  1  0.16312896  0.82955693  0.16212326  1
  Cr  Cr8  1  -0.00338897  0.66129041  0.32941982  1
  Fe  Fe9  1  0.32819920  0.99397663  -0.00433931  1
  Cr  Cr10  1  0.49394478  0.16138074  0.16091486  1
  Fe  Fe11  1  0.32856464  0.99363289  0.32878917  1
  Fe  Fe12  1  0.32763928  0.32878894  -0.00453659  1
  Cr  Cr13  1  0.49595807  0.49841207  0.16046180  1
  Cr  Cr14  1  0.32867504  0.32866379  0.33117262  1
  Fe  Fe15  1  0.32919540  0.66322406  -0.00433874  1
  Fe  Fe16  1  0.49464713  0.82821389  0.16143888  1
  Fe  Fe17  1  0.32968345  0.66369922  0.32879108  1
  Fe  Fe18  1  0.66302688  0.99433608  -0.00377641  1
  Fe  Fe19  1  0.82956315  0.16133002  0.16110149  1
  Cr  Cr20  1  0.66038852  -0.00428390  0.32989797  1
  Cr  Cr21  1  0.66493789  0.32790259  0.99513730  1
  Fe  Fe22  1  0.82822028  0.49555895  0.16153512  1
  Cr  Cr23  1  0.66471001  0.32784062  0.33002636  1
  Fe  Fe24  1  0.66203876  0.66287109  -0.00388221  1
  Fe  Fe25  1  0.82821849  0.82910260  0.16156171  1
  Fe  Fe26  1  0.66155570  0.66220729  0.32833732  1
  Cr  Cr27  1  0.16287751  0.16292172  0.49390428  1
  Cr  Cr28  1  0.99529806  0.99411611  0.66354183  1
  Cr  Cr29  1  0.16183754  0.16246098  0.83111178  1
  Fe  Fe30  1  0.16140702  0.49590175  0.49579747  1
  Cr  Cr31  1  0.99334395  0.33179496  0.66149582  1
  Cr  Cr32  1  0.16266134  0.49405102  0.82719284  1
  Cr  Cr33  1  0.16039874  0.82875377  0.49486013  1
  Fe  Fe34  1  0.99521656  0.66118238  0.66200574  1
  Fe  Fe35  1  0.16221039  0.82864714  0.82946613  1
  Fe  Fe36  1  0.49533791  0.16085818  0.49532346  1
  Cr  Cr37  1  0.33035419  0.99418131  0.66119986  1
  Cr  Cr38  1  0.49401429  0.16333437  0.82826855  1
  Cr  Cr39  1  0.49482991  0.49515130  0.49474294  1
  Fe  Fe40  1  0.32877273  0.32854933  0.66095499  1
  Cr  Cr41  1  0.49485956  0.49483699  0.83079975  1
  Fe  Fe42  1  0.49477049  0.82923478  0.49405452  1
  Cr  Cr43  1  0.32515420  0.66321279  0.66203161  1
  Cr  Cr44  1  0.49731125  0.82782210  0.83062272  1
  Fe  Fe45  1  0.82821571  0.16243968  0.49485811  1
  Cr  Cr46  1  0.66034354  -0.00186598  0.66115474  1
  Fe  Fe47  1  0.82901384  0.16257795  0.83003626  1
  Fe  Fe48  1  0.82982858  0.49534296  0.49532416  1
  Cr  Cr49  1  0.66345582  0.32660362  0.66082158  1
  Fe  Fe50  1  0.82901960  0.49477153  0.82912881  1
  Cr  Cr51  1  0.82822538  0.82797004  0.49572147  1
  Cr  Cr52  1  0.66353006  0.66125049  0.66203025  1
  Cr  Cr53  1  0.82935412  0.82863834  0.82774957  1
" 