6734,Fe53Cr47_18,-216.046313186324, 175.18763691172,Fe53Cr47,"# generated using pymatgen
 data_Cr14Fe13
_symmetry_space_group_name_H-M   'P 1'
_cell_length_a   7.53608549
_cell_length_b   7.53608549
_cell_length_c   10.65763431
_cell_angle_alpha   90.00000000
_cell_angle_beta   90.00000000
_cell_angle_gamma   90.00000000
_symmetry_Int_Tables_number   1
_chemical_formula_structural   Cr14Fe13
_chemical_formula_sum   'Cr28 Fe26'
_cell_volume   605.27459717
_cell_formula_units_Z   2
loop_
 _symmetry_equiv_pos_site_id
 _symmetry_equiv_pos_as_xyz
  1  'x, y, z'
loop_
 _atom_site_type_symbol
 _atom_site_label
 _atom_site_symmetry_multiplicity
 _atom_site_fract_x
 _atom_site_fract_y
 _atom_site_fract_z
 _atom_site_occupancy
  Cr  Cr0  1  -0.00358413  -0.00457323  0.99336747  1
  Cr  Cr1  1  0.16217319  0.16466686  0.16160029  1
  Cr  Cr2  1  -0.00399636  -0.00310621  0.32904896  1
  Cr  Cr3  1  -0.00320393  0.32907905  -0.00244058  1
  Fe  Fe4  1  0.16244134  0.49488742  0.16156667  1
  Fe  Fe5  1  0.99470320  0.32972388  0.32961563  1
  Cr  Cr6  1  0.99523467  0.66175279  0.99524845  1
  Cr  Cr7  1  0.16359952  0.82767484  0.16122226  1
  Cr  Cr8  1  0.99470816  0.65913708  0.32947658  1
  Cr  Cr9  1  0.32931871  -0.00379896  -0.00439985  1
  Cr  Cr10  1  0.49544909  0.16100301  0.16263424  1
  Fe  Fe11  1  0.33035001  0.99446045  0.32961438  1
  Fe  Fe12  1  0.32864757  0.32972051  0.99455365  1
  Cr  Cr13  1  0.49319785  0.49691441  0.16005644  1
  Cr  Cr14  1  0.32777647  0.32725257  0.32807067  1
  Fe  Fe15  1  0.32865136  0.66112171  -0.00447350  1
  Fe  Fe16  1  0.49595299  0.82929284  0.16240530  1
  Cr  Cr17  1  0.32969490  0.66461215  0.32921865  1
  Fe  Fe18  1  0.66141794  -0.00458033  0.99541134  1
  Cr  Cr19  1  0.82863755  0.16086292  0.16402172  1
  Fe  Fe20  1  0.66025313  0.99528122  0.32961199  1
  Cr  Cr21  1  0.66052364  0.32949035  0.99143971  1
  Cr  Cr22  1  0.82930474  0.49547709  0.16450863  1
  Fe  Fe23  1  0.66344956  0.32846275  0.32994176  1
  Cr  Cr24  1  0.66129210  0.66213550  -0.00331094  1
  Cr  Cr25  1  0.82564413  0.82991933  0.16064914  1
  Fe  Fe26  1  0.66164174  0.66251591  0.32919332  1
  Cr  Cr27  1  0.16135833  0.16179882  0.49409298  1
  Fe  Fe28  1  -0.00454465  0.99457785  0.66208711  1
  Fe  Fe29  1  0.16295454  0.16103250  0.82872576  1
  Fe  Fe30  1  0.16073263  0.49677766  0.49595826  1
  Cr  Cr31  1  0.99297743  0.32949982  0.66038797  1
  Cr  Cr32  1  0.16523967  0.49641869  0.82980275  1
  Fe  Fe33  1  0.16303374  0.82779970  0.49617526  1
  Fe  Fe34  1  -0.00309678  0.66250472  0.66166398  1
  Fe  Fe35  1  0.16201102  0.82886809  0.82798185  1
  Fe  Fe36  1  0.49762304  0.16071740  0.49488853  1
  Cr  Cr37  1  0.32820715  0.99472855  0.66034193  1
  Fe  Fe38  1  0.49539211  0.16291350  0.82885678  1
  Cr  Cr39  1  0.49557217  0.49542077  0.49683647  1
  Cr  Cr40  1  0.33117484  0.32763169  0.66442500  1
  Fe  Fe41  1  0.49563061  0.49458105  0.82874174  1
  Fe  Fe42  1  0.49490320  0.83011636  0.49510622  1
  Fe  Fe43  1  0.32738464  0.66240162  0.66154958  1
  Cr  Cr44  1  0.49524303  0.82763033  0.82981037  1
  Fe  Fe45  1  0.82695649  0.16303698  0.49541479  1
  Fe  Fe46  1  0.66206201  -0.00269231  0.66124186  1
  Cr  Cr47  1  0.82780135  0.16018726  0.82768750  1
  Fe  Fe48  1  0.82927104  0.49405763  0.49488485  1
  Fe  Fe49  1  0.66196916  0.32781879  0.66220962  1
  Fe  Fe50  1  0.82780419  0.49553132  0.82797989  1
  Cr  Cr51  1  0.82853747  0.82982597  0.49676674  1
  Cr  Cr52  1  0.66290274  0.65984609  0.66234095  1
  Cr  Cr53  1  0.83027342  0.83023694  0.82884261  1
" 