4016,Fe53Cr47_19,-216.034011133383, 181.858479315163,Fe53Cr47,"# generated using pymatgen
 data_Cr14Fe13
_symmetry_space_group_name_H-M   'P 1'
_cell_length_a   7.54726732
_cell_length_b   7.54726732
_cell_length_c   10.67344780
_cell_angle_alpha   90.00000000
_cell_angle_beta   90.00000000
_cell_angle_gamma   90.00000000
_symmetry_Int_Tables_number   1
_chemical_formula_structural   Cr14Fe13
_chemical_formula_sum   'Cr28 Fe26'
_cell_volume   607.97286359
_cell_formula_units_Z   2
loop_
 _symmetry_equiv_pos_site_id
 _symmetry_equiv_pos_as_xyz
  1  'x, y, z'
loop_
 _atom_site_type_symbol
 _atom_site_label
 _atom_site_symmetry_multiplicity
 _atom_site_fract_x
 _atom_site_fract_y
 _atom_site_fract_z
 _atom_site_occupancy
  Fe  Fe0  1  0.99458332  -0.00325862  0.99443400  1
  Cr  Cr1  1  0.16175315  0.16027126  0.16235740  1
  Cr  Cr2  1  0.99364334  -0.00337190  0.33134900  1
  Cr  Cr3  1  -0.00517334  0.33064944  0.99328043  1
  Fe  Fe4  1  0.16056688  0.49384160  0.16243478  1
  Cr  Cr5  1  0.99223063  0.32785494  0.33016217  1
  Fe  Fe6  1  0.99391587  0.66177923  -0.00523274  1
  Fe  Fe7  1  0.16057305  0.82720757  0.16188454  1
  Cr  Cr8  1  -0.00457475  0.65975962  0.32817559  1
  Cr  Cr9  1  0.33095298  0.99268142  -0.00498914  1
  Fe  Fe10  1  0.49556272  0.16352304  0.16179900  1
  Cr  Cr11  1  0.32901364  0.99172290  0.32677887  1
  Cr  Cr12  1  0.32670815  0.32865054  0.99138991  1
  Fe  Fe13  1  0.49321389  0.49330288  0.16206697  1
  Fe  Fe14  1  0.32875042  0.32906992  0.32708578  1
  Cr  Cr15  1  0.32536227  0.66131929  -0.00140967  1
  Fe  Fe16  1  0.49610604  0.82582930  0.16215656  1
  Fe  Fe17  1  0.32816338  0.65903480  0.32662120  1
  Cr  Cr18  1  0.66061087  -0.00478493  0.99360936  1
  Fe  Fe19  1  0.82837908  0.16173473  0.16140319  1
  Cr  Cr20  1  0.66154241  -0.00395722  0.32695844  1
  Cr  Cr21  1  0.66374184  0.32585800  0.99414583  1
  Cr  Cr22  1  0.82458867  0.49528257  0.16046930  1
  Fe  Fe23  1  0.66033537  0.32828632  0.32832462  1
  Cr  Cr24  1  0.65926500  0.66211057  0.99064801  1
  Cr  Cr25  1  0.82992496  0.82857728  0.15974525  1
  Cr  Cr26  1  0.65917239  0.66042293  0.33152074  1
  Fe  Fe27  1  0.16211074  0.16182579  0.49571616  1
  Fe  Fe28  1  0.99265027  -0.00530973  0.65991761  1
  Cr  Cr29  1  0.16261786  0.16161344  0.82399499  1
  Cr  Cr30  1  0.16429942  0.49388207  0.49535688  1
  Cr  Cr31  1  -0.00369686  0.33004985  0.66006651  1
  Fe  Fe32  1  0.16061081  0.49683682  0.82666349  1
  Cr  Cr33  1  0.15887608  0.82914930  0.49419972  1
  Fe  Fe34  1  0.99210666  0.66300323  0.66101568  1
  Cr  Cr35  1  0.15652558  0.82874128  0.83001869  1
  Cr  Cr36  1  0.49308094  0.16475355  0.49471250  1
  Cr  Cr37  1  0.32804195  0.99438501  0.66213825  1
  Fe  Fe38  1  0.49609380  0.16071683  0.82707386  1
  Fe  Fe39  1  0.49553533  0.49438471  0.49616790  1
  Fe  Fe40  1  0.32977246  0.32822616  0.66134046  1
  Cr  Cr41  1  0.49639631  0.49285237  0.82461856  1
  Cr  Cr42  1  0.49565948  0.82639733  0.49592955  1
  Cr  Cr43  1  0.32773052  0.66198842  0.66177936  1
  Fe  Fe44  1  0.49331206  0.82687524  0.82747349  1
  Fe  Fe45  1  0.82720887  0.16045018  0.49593045  1
  Cr  Cr46  1  0.66104565  0.99224244  0.66377120  1
  Fe  Fe47  1  0.83021479  0.16015858  0.82771543  1
  Fe  Fe48  1  0.82714299  0.49577947  0.49552344  1
  Cr  Cr49  1  0.66562700  0.32777718  0.66156226  1
  Fe  Fe50  1  0.83132598  0.49693582  0.82728871  1
  Fe  Fe51  1  0.82756010  0.82739396  0.49652911  1
  Fe  Fe52  1  0.66431609  0.66066664  0.66152853  1
  Fe  Fe53  1  0.82794059  0.82784429  0.82781555  1
" 