5067,Fe53Cr47_8,-215.610229936448, 176.097969694387,Fe53Cr47,"# generated using pymatgen
 data_Cr14Fe13
_symmetry_space_group_name_H-M   'P 1'
_cell_length_a   7.53623702
_cell_length_b   7.53623702
_cell_length_c   10.65784861
_cell_angle_alpha   90.00000000
_cell_angle_beta   90.00000000
_cell_angle_gamma   90.00000000
_symmetry_Int_Tables_number   1
_chemical_formula_structural   Cr14Fe13
_chemical_formula_sum   'Cr28 Fe26'
_cell_volume   605.31110982
_cell_formula_units_Z   2
loop_
 _symmetry_equiv_pos_site_id
 _symmetry_equiv_pos_as_xyz
  1  'x, y, z'
loop_
 _atom_site_type_symbol
 _atom_site_label
 _atom_site_symmetry_multiplicity
 _atom_site_fract_x
 _atom_site_fract_y
 _atom_site_fract_z
 _atom_site_occupancy
  Cr  Cr0  1  -0.00418259  0.99360015  -0.00304520  1
  Cr  Cr1  1  0.16130771  0.16204178  0.16368688  1
  Fe  Fe2  1  -0.00458015  0.99469614  0.32861156  1
  Fe  Fe3  1  -0.00324331  0.32910826  0.99494191  1
  Cr  Cr4  1  0.16089174  0.49608624  0.16103601  1
  Fe  Fe5  1  0.99384028  0.32910202  0.32922482  1
  Cr  Cr6  1  -0.00324634  0.66231455  -0.00308773  1
  Fe  Fe7  1  0.16162395  0.82825011  0.16354671  1
  Fe  Fe8  1  0.99385356  0.66243213  0.32811522  1
  Cr  Cr9  1  0.32824455  -0.00217549  -0.00417728  1
  Fe  Fe10  1  0.49431110  0.16220233  0.16222693  1
  Fe  Fe11  1  0.32838984  0.99408592  0.32813077  1
  Fe  Fe12  1  0.32824453  0.32924282  0.99394957  1
  Cr  Cr13  1  0.49549222  0.49691662  0.16147567  1
  Cr  Cr14  1  0.32941531  0.32856210  0.32870827  1
  Fe  Fe15  1  0.32836836  0.66073171  0.99480028  1
  Cr  Cr16  1  0.49422861  0.82816411  0.16338650  1
  Fe  Fe17  1  0.32946727  0.66352475  0.32936629  1
  Cr  Cr18  1  0.66216491  -0.00339606  -0.00392331  1
  Cr  Cr19  1  0.82978498  0.16331441  0.16215697  1
  Cr  Cr20  1  0.66300663  0.99457847  0.32806653  1
  Cr  Cr21  1  0.65915624  0.32816585  -0.00418809  1
  Fe  Fe22  1  0.82972494  0.49634986  0.16292233  1
  Cr  Cr23  1  0.66250342  0.33015139  0.33025301  1
  Cr  Cr24  1  0.66338862  0.66145969  -0.00400806  1
  Fe  Fe25  1  0.83031211  0.82716495  0.16341693  1
  Fe  Fe26  1  0.66290306  0.66195142  0.32971442  1
  Cr  Cr27  1  0.15903030  0.16098916  0.49584283  1
  Fe  Fe28  1  -0.00405892  -0.00411244  0.66169352  1
  Fe  Fe29  1  0.16244462  0.16341213  0.82824661  1
  Cr  Cr30  1  0.15996357  0.49557089  0.49510832  1
  Fe  Fe31  1  0.99531087  0.32887479  0.66205890  1
  Fe  Fe32  1  0.16244805  0.49407423  0.82924539  1
  Cr  Cr33  1  0.16333762  0.82966826  0.49437242  1
  Fe  Fe34  1  0.99483898  0.66146702  0.66169815  1
  Cr  Cr35  1  0.16333052  0.82834561  0.82717572  1
  Cr  Cr36  1  0.49573174  0.16008683  0.49462402  1
  Fe  Fe37  1  0.32849570  -0.00408871  0.66266545  1
  Fe  Fe38  1  0.49358446  0.16293996  0.82860756  1
  Fe  Fe39  1  0.49608354  0.49735056  0.49431758  1
  Cr  Cr40  1  0.32826580  0.32867509  0.66541854  1
  Fe  Fe41  1  0.49358554  0.49455347  0.82983728  1
  Fe  Fe42  1  0.49511894  0.82777282  0.49443587  1
  Cr  Cr43  1  0.32770170  0.66088188  0.66264999  1
  Cr  Cr44  1  0.49442899  0.82834202  0.82801901  1
  Fe  Fe45  1  0.83093999  0.16208153  0.49540627  1
  Cr  Cr46  1  0.66317965  -0.00455989  0.66207613  1
  Cr  Cr47  1  0.83057429  0.16309430  0.82728524  1
  Fe  Fe48  1  0.82936489  0.49573866  0.49505191  1
  Cr  Cr49  1  0.66141654  0.32906267  0.66015468  1
  Cr  Cr50  1  0.83056937  0.49390522  0.82888556  1
  Fe  Fe51  1  0.82937369  0.82841031  0.49506204  1
  Cr  Cr52  1  0.66320899  0.66172616  0.65913313  1
  Cr  Cr53  1  0.82847483  0.82922704  0.82773577  1
" 