9013,Fe53Cr47_3,-215.889340972097, 178.338764440773,Fe53Cr47,"# generated using pymatgen
 data_Cr14Fe13
_symmetry_space_group_name_H-M   'P 1'
_cell_length_a   7.53739749
_cell_length_b   7.53739749
_cell_length_c   10.65948976
_cell_angle_alpha   90.00000000
_cell_angle_beta   90.00000000
_cell_angle_gamma   90.00000000
_symmetry_Int_Tables_number   1
_chemical_formula_structural   Cr14Fe13
_chemical_formula_sum   'Cr28 Fe26'
_cell_volume   605.59077978
_cell_formula_units_Z   2
loop_
 _symmetry_equiv_pos_site_id
 _symmetry_equiv_pos_as_xyz
  1  'x, y, z'
loop_
 _atom_site_type_symbol
 _atom_site_label
 _atom_site_symmetry_multiplicity
 _atom_site_fract_x
 _atom_site_fract_y
 _atom_site_fract_z
 _atom_site_occupancy
  Fe  Fe0  1  0.99459456  -0.00444458  -0.00437061  1
  Cr  Cr1  1  0.16301023  0.16045823  0.16079615  1
  Cr  Cr2  1  0.99411310  -0.00456823  0.32750793  1
  Cr  Cr3  1  0.99372465  0.32698711  0.99450282  1
  Cr  Cr4  1  0.16087014  0.49459478  0.16537441  1
  Cr  Cr5  1  0.99243573  0.32728308  0.32966281  1
  Cr  Cr6  1  -0.00449408  0.66323447  -0.00231012  1
  Fe  Fe7  1  0.16257046  0.82851680  0.16289470  1
  Fe  Fe8  1  0.99395823  0.66420503  0.32815904  1
  Cr  Cr9  1  0.32945217  0.99515205  0.99378360  1
  Cr  Cr10  1  0.49442414  0.16176082  0.16341902  1
  Fe  Fe11  1  0.32861323  0.99295583  0.32921603  1
  Cr  Cr12  1  0.32978505  0.32968530  0.99015232  1
  Cr  Cr13  1  0.49642142  0.49441611  0.15948497  1
  Fe  Fe14  1  0.32938102  0.32846051  0.32862300  1
  Cr  Cr15  1  0.33033825  0.66153714  0.99464441  1
  Cr  Cr16  1  0.49629851  0.82967888  0.16410378  1
  Fe  Fe17  1  0.32726329  0.66372380  0.32938104  1
  Cr  Cr18  1  0.66445958  -0.00400909  -0.00284655  1
  Fe  Fe19  1  0.82833015  0.16151408  0.16114043  1
  Fe  Fe20  1  0.66326531  0.99472504  0.32911316  1
  Fe  Fe21  1  0.66226537  0.32880046  0.99424604  1
  Fe  Fe22  1  0.82782509  0.49575939  0.16129654  1
  Cr  Cr23  1  0.66344278  0.32614322  0.32665516  1
  Fe  Fe24  1  0.66307096  0.66210217  -0.00440504  1
  Fe  Fe25  1  0.82975946  0.82845976  0.16258275  1
  Cr  Cr26  1  0.65962986  0.66245657  0.32831157  1
  Cr  Cr27  1  0.16433680  0.16088492  0.49597936  1
  Cr  Cr28  1  0.99356707  -0.00282905  0.66463320  1
  Fe  Fe29  1  0.16239630  0.16334133  0.82783680  1
  Cr  Cr30  1  0.16169785  0.49481219  0.49292348  1
  Cr  Cr31  1  0.99406796  0.32739617  0.66108278  1
  Fe  Fe32  1  0.16172588  0.49560719  0.82762641  1
  Fe  Fe33  1  0.16367898  0.82968697  0.49449777  1
  Cr  Cr34  1  -0.00193912  0.66268023  0.66020355  1
  Cr  Cr35  1  0.16012721  0.83145189  0.83057322  1
  Cr  Cr36  1  0.49513282  0.15871997  0.49471693  1
  Fe  Fe37  1  0.32875864  -0.00382104  0.66321862  1
  Fe  Fe38  1  0.49759114  0.16273867  0.82650846  1
  Cr  Cr39  1  0.49565651  0.49329073  0.49663512  1
  Fe  Fe40  1  0.32914774  0.32748153  0.66456518  1
  Fe  Fe41  1  0.49665285  0.49458462  0.82683408  1
  Fe  Fe42  1  0.49350463  0.82881581  0.49553898  1
  Cr  Cr43  1  0.33056922  0.66230231  0.66161342  1
  Cr  Cr44  1  0.49908702  0.82914458  0.82707707  1
  Fe  Fe45  1  0.82686901  0.16119567  0.49643709  1
  Fe  Fe46  1  0.66084762  -0.00299725  0.66281220  1
  Fe  Fe47  1  0.82618144  0.16132573  0.82904069  1
  Cr  Cr48  1  0.82837399  0.49647128  0.49554569  1
  Fe  Fe49  1  0.66096283  0.32686735  0.66287306  1
  Cr  Cr50  1  0.82698312  0.49803007  0.82815777  1
  Cr  Cr51  1  0.82678303  0.82923542  0.49908358  1
  Fe  Fe52  1  0.66236879  0.66225078  0.66218489  1
  Fe  Fe53  1  0.82805899  0.82974015  0.82867825  1
" 