1920,Fe53Cr47_2,-216.045731338434, 181.425738157895,Fe53Cr47,"# generated using pymatgen
 data_Cr14Fe13
_symmetry_space_group_name_H-M   'P 1'
_cell_length_a   7.54025250
_cell_length_b   7.54025250
_cell_length_c   10.66352735
_cell_angle_alpha   90.00000000
_cell_angle_beta   90.00000000
_cell_angle_gamma   90.00000000
_symmetry_Int_Tables_number   1
_chemical_formula_structural   Cr14Fe13
_chemical_formula_sum   'Cr28 Fe26'
_cell_volume   606.27919559
_cell_formula_units_Z   2
loop_
 _symmetry_equiv_pos_site_id
 _symmetry_equiv_pos_as_xyz
  1  'x, y, z'
loop_
 _atom_site_type_symbol
 _atom_site_label
 _atom_site_symmetry_multiplicity
 _atom_site_fract_x
 _atom_site_fract_y
 _atom_site_fract_z
 _atom_site_occupancy
  Fe  Fe0  1  0.99285533  -0.00337149  0.99493453  1
  Cr  Cr1  1  0.15975807  0.16021629  0.16140134  1
  Fe  Fe2  1  0.99486194  -0.00435587  0.32908451  1
  Fe  Fe3  1  0.99418338  0.32999947  -0.00376406  1
  Fe  Fe4  1  0.16148605  0.49471275  0.15821201  1
  Cr  Cr5  1  0.99294750  0.32829531  0.32767266  1
  Fe  Fe6  1  -0.00483226  0.65878000  -0.00433693  1
  Cr  Cr7  1  0.16013844  0.83013768  0.15736446  1
  Cr  Cr8  1  -0.00309967  0.65905490  0.32693820  1
  Fe  Fe9  1  0.32985077  -0.00355674  0.99469328  1
  Cr  Cr10  1  0.49581397  0.16475359  0.15938983  1
  Cr  Cr11  1  0.33068319  0.99395610  0.32965979  1
  Fe  Fe12  1  0.32792197  0.32931661  0.99481494  1
  Cr  Cr13  1  0.49854847  0.49411461  0.16447441  1
  Cr  Cr14  1  0.32417481  0.33022695  0.32964556  1
  Fe  Fe15  1  0.32794224  0.65944683  -0.00459402  1
  Cr  Cr16  1  0.49582565  0.82674460  0.16183149  1
  Cr  Cr17  1  0.32604567  0.66191303  0.32734418  1
  Fe  Fe18  1  0.66265532  -0.00364851  0.99491230  1
  Fe  Fe19  1  0.82769266  0.16279665  0.15981353  1
  Cr  Cr20  1  0.66419281  -0.00309963  0.32963191  1
  Fe  Fe21  1  0.66376367  0.32838879  0.99454910  1
  Fe  Fe22  1  0.82895283  0.49335314  0.16047377  1
  Fe  Fe23  1  0.66379143  0.32837188  0.32821462  1
  Cr  Cr24  1  0.66406961  0.66178775  0.99309527  1
  Cr  Cr25  1  0.83025928  0.82881111  0.16253762  1
  Fe  Fe26  1  0.66374387  0.66216237  0.32877393  1
  Cr  Cr27  1  0.15909372  0.16142661  0.49844153  1
  Fe  Fe28  1  0.99329364  -0.00479271  0.66172369  1
  Cr  Cr29  1  0.16313399  0.16096421  0.82585755  1
  Fe  Fe30  1  0.16018296  0.49468668  0.49721595  1
  Fe  Fe31  1  -0.00484929  0.32940342  0.66134306  1
  Cr  Cr32  1  0.16069628  0.49422044  0.82722360  1
  Cr  Cr33  1  0.15771458  0.83127204  0.49587173  1
  Fe  Fe34  1  0.99334350  0.66133136  0.66116021  1
  Cr  Cr35  1  0.15961057  0.83028031  0.83141959  1
  Cr  Cr36  1  0.49394009  0.16534576  0.49628414  1
  Fe  Fe37  1  0.32921560  -0.00472270  0.66205593  1
  Fe  Fe38  1  0.49405061  0.16095288  0.83054016  1
  Cr  Cr39  1  0.49766273  0.49617240  0.49301329  1
  Fe  Fe40  1  0.32878643  0.32842153  0.66147403  1
  Cr  Cr41  1  0.49730721  0.49255958  0.82771544  1
  Fe  Fe42  1  0.49681452  0.82787971  0.49569848  1
  Cr  Cr43  1  0.32666943  0.66236600  0.66008846  1
  Cr  Cr44  1  0.49439323  0.82808780  0.82936108  1
  Fe  Fe45  1  0.82901917  0.16141925  0.49603445  1
  Cr  Cr46  1  0.66090978  0.99446854  0.66269863  1
  Cr  Cr47  1  0.83080191  0.16213269  0.83076603  1
  Cr  Cr48  1  0.82589550  0.49672448  0.49727086  1
  Cr  Cr49  1  0.66411997  0.32578848  0.66538603  1
  Fe  Fe50  1  0.83109174  0.49491993  0.82817973  1
  Fe  Fe51  1  0.82754251  0.82901224  0.49569658  1
  Fe  Fe52  1  0.66219743  0.66202303  0.66204648  1
  Cr  Cr53  1  0.83100444  0.82621713  0.82653432  1
" 