8335,Fe53Cr47_4,-215.826016914917, 175.680862249399,Fe53Cr47,"# generated using pymatgen
 data_Cr14Fe13
_symmetry_space_group_name_H-M   'P 1'
_cell_length_a   7.54248917
_cell_length_b   7.54248917
_cell_length_c   10.66669048
_cell_angle_alpha   90.00000000
_cell_angle_beta   90.00000000
_cell_angle_gamma   90.00000000
_symmetry_Int_Tables_number   1
_chemical_formula_structural   Cr14Fe13
_chemical_formula_sum   'Cr28 Fe26'
_cell_volume   606.81887928
_cell_formula_units_Z   2
loop_
 _symmetry_equiv_pos_site_id
 _symmetry_equiv_pos_as_xyz
  1  'x, y, z'
loop_
 _atom_site_type_symbol
 _atom_site_label
 _atom_site_symmetry_multiplicity
 _atom_site_fract_x
 _atom_site_fract_y
 _atom_site_fract_z
 _atom_site_occupancy
  Cr  Cr0  1  -0.00493002  -0.00495073  -0.00116884  1
  Fe  Fe1  1  0.16321403  0.16193785  0.16293660  1
  Cr  Cr2  1  0.99486782  0.99385982  0.32958443  1
  Cr  Cr3  1  -0.00360816  0.32978805  -0.00265203  1
  Fe  Fe4  1  0.16227141  0.49575320  0.16359026  1
  Cr  Cr5  1  -0.00471460  0.32831837  0.32782183  1
  Fe  Fe6  1  0.99469830  0.66046699  -0.00290117  1
  Fe  Fe7  1  0.16237093  0.82797988  0.16298912  1
  Cr  Cr8  1  -0.00373757  0.66172679  0.32883941  1
  Fe  Fe9  1  0.32867293  -0.00277078  -0.00111688  1
  Fe  Fe10  1  0.49611242  0.16142708  0.16359368  1
  Cr  Cr11  1  0.32901824  0.99394196  0.32806495  1
  Cr  Cr12  1  0.32970305  0.32919233  0.99489184  1
  Fe  Fe13  1  0.49483845  0.49665185  0.16414726  1
  Cr  Cr14  1  0.33048668  0.33055703  0.32931770  1
  Cr  Cr15  1  0.32589168  0.66116998  -0.00040888  1
  Fe  Fe16  1  0.49514523  0.82783903  0.16293158  1
  Fe  Fe17  1  0.32963046  0.66196294  0.32905520  1
  Cr  Cr18  1  0.65981592  -0.00327053  0.99412236  1
  Fe  Fe19  1  0.82638120  0.16068674  0.16444318  1
  Fe  Fe20  1  0.66034251  0.99466576  0.32827978  1
  Cr  Cr21  1  0.66025056  0.32674530  -0.00305463  1
  Cr  Cr22  1  0.82574263  0.49406083  0.16298752  1
  Fe  Fe23  1  0.66052233  0.32832922  0.32831861  1
  Cr  Cr24  1  0.65998732  0.66055289  0.99239090  1
  Cr  Cr25  1  0.82644175  0.82740912  0.16209492  1
  Fe  Fe26  1  0.65919252  0.66148718  0.32970811  1
  Fe  Fe27  1  0.16401442  0.16299437  0.49465211  1
  Cr  Cr28  1  -0.00436771  0.99297035  0.65650737  1
  Cr  Cr29  1  0.16429370  0.16354204  0.82483236  1
  Fe  Fe30  1  0.16126837  0.49385239  0.49430864  1
  Fe  Fe31  1  -0.00351236  0.32876877  0.65818538  1
  Fe  Fe32  1  0.16110444  0.49574355  0.82791203  1
  Fe  Fe33  1  0.16331342  0.82690626  0.49336883  1
  Cr  Cr34  1  -0.00499497  0.66081558  0.66140307  1
  Cr  Cr35  1  0.16211740  0.83004422  0.83269315  1
  Fe  Fe36  1  0.49603736  0.16193574  0.49390332  1
  Cr  Cr37  1  0.33022878  -0.00429674  0.66016933  1
  Fe  Fe38  1  0.49452685  0.16192056  0.82819166  1
  Fe  Fe39  1  0.49730478  0.49516141  0.49415159  1
  Fe  Fe40  1  0.32711804  0.32877823  0.65745429  1
  Cr  Cr41  1  0.49243923  0.49483716  0.82579657  1
  Fe  Fe42  1  0.49704480  0.82794610  0.49335904  1
  Cr  Cr43  1  0.32723279  0.66078215  0.65807539  1
  Cr  Cr44  1  0.49205786  0.82842290  0.82884127  1
  Cr  Cr45  1  0.82861657  0.16279723  0.49178333  1
  Cr  Cr46  1  0.66207849  0.99468696  0.66228840  1
  Cr  Cr47  1  0.83230232  0.16231012  0.82896574  1
  Fe  Fe48  1  0.82658807  0.49602244  0.49436571  1
  Cr  Cr49  1  0.66022872  0.32778787  0.66221663  1
  Cr  Cr50  1  0.82919170  0.49442809  0.82749843  1
  Fe  Fe51  1  0.82528067  0.82614483  0.49348651  1
  Fe  Fe52  1  0.66100007  0.66220370  0.65897414  1
  Cr  Cr53  1  0.82881847  0.82691592  0.82774920  1
" 