1275,Fe53Cr47_15,-216.106154890947, 179.193833359776,Fe53Cr47,"# generated using pymatgen
 data_Cr14Fe13
_symmetry_space_group_name_H-M   'P 1'
_cell_length_a   7.53679506
_cell_length_b   7.53679506
_cell_length_c   10.65863779
_cell_angle_alpha   90.00000000
_cell_angle_beta   90.00000000
_cell_angle_gamma   90.00000000
_symmetry_Int_Tables_number   1
_chemical_formula_structural   Cr14Fe13
_chemical_formula_sum   'Cr28 Fe26'
_cell_volume   605.44558417
_cell_formula_units_Z   2
loop_
 _symmetry_equiv_pos_site_id
 _symmetry_equiv_pos_as_xyz
  1  'x, y, z'
loop_
 _atom_site_type_symbol
 _atom_site_label
 _atom_site_symmetry_multiplicity
 _atom_site_fract_x
 _atom_site_fract_y
 _atom_site_fract_z
 _atom_site_occupancy
  Fe  Fe0  1  -0.00109636  0.99532104  0.99526956  1
  Fe  Fe1  1  0.16279559  0.16003508  0.16226234  1
  Fe  Fe2  1  -0.00223554  -0.00396444  0.32888696  1
  Cr  Cr3  1  -0.00398838  0.32857886  0.99504978  1
  Fe  Fe4  1  0.16107292  0.49588798  0.16161210  1
  Cr  Cr5  1  -0.00150171  0.32673309  0.32935176  1
  Fe  Fe6  1  -0.00347697  0.66176706  -0.00363901  1
  Fe  Fe7  1  0.16215213  0.83009490  0.16100522  1
  Cr  Cr8  1  -0.00264966  0.65911503  0.32555510  1
  Fe  Fe9  1  0.32527664  -0.00441966  -0.00429754  1
  Fe  Fe10  1  0.49395637  0.16208961  0.16276402  1
  Cr  Cr11  1  0.32776499  -0.00376200  0.32816794  1
  Cr  Cr12  1  0.32505476  0.32693147  -0.00199258  1
  Cr  Cr13  1  0.49402054  0.49099093  0.16450148  1
  Fe  Fe14  1  0.32794625  0.32851826  0.32893563  1
  Cr  Cr15  1  0.32766803  0.66378539  0.99416960  1
  Cr  Cr16  1  0.49393914  0.82946742  0.16192841  1
  Cr  Cr17  1  0.32782761  0.66028958  0.33228731  1
  Cr  Cr18  1  0.66105582  0.99456517  -0.00391643  1
  Cr  Cr19  1  0.82749333  0.16124813  0.16457178  1
  Cr  Cr20  1  0.66315494  -0.00441205  0.33026222  1
  Cr  Cr21  1  0.66461957  0.32946038  0.99458114  1
  Fe  Fe22  1  0.82900016  0.49506067  0.16205139  1
  Fe  Fe23  1  0.66190793  0.32940328  0.32900378  1
  Cr  Cr24  1  0.66283713  0.66189606  0.99317517  1
  Cr  Cr25  1  0.83360772  0.82820598  0.16216723  1
  Cr  Cr26  1  0.66101013  0.66352105  0.33016753  1
  Fe  Fe27  1  0.15971736  0.16201035  0.49600184  1
  Fe  Fe28  1  -0.00164702  -0.00336275  0.66207497  1
  Fe  Fe29  1  0.16094259  0.15901911  0.82801614  1
  Fe  Fe30  1  0.16177105  0.49356648  0.49610852  1
  Fe  Fe31  1  0.99450082  0.32817870  0.66119239  1
  Cr  Cr32  1  0.16071581  0.49761539  0.82711278  1
  Cr  Cr33  1  0.16022636  0.82865702  0.49669447  1
  Fe  Fe34  1  -0.00435563  0.66148873  0.66227890  1
  Fe  Fe35  1  0.16277081  0.83206813  0.82794152  1
  Cr  Cr36  1  0.49532423  0.16589406  0.49271430  1
  Fe  Fe37  1  0.32783475  -0.00420760  0.66237090  1
  Cr  Cr38  1  0.49275250  0.16317373  0.83150589  1
  Fe  Fe39  1  0.49501653  0.49467312  0.49497744  1
  Cr  Cr40  1  0.32431478  0.32856639  0.66086444  1
  Fe  Fe41  1  0.49574149  0.49494688  0.82825721  1
  Fe  Fe42  1  0.49478812  0.82923761  0.49559313  1
  Cr  Cr43  1  0.33035762  0.66341221  0.66016239  1
  Fe  Fe44  1  0.49306664  0.82979267  0.82857288  1
  Fe  Fe45  1  0.83120763  0.16278171  0.49624418  1
  Cr  Cr46  1  0.66146866  0.99410870  0.65980933  1
  Cr  Cr47  1  0.82903878  0.16246103  0.82446150  1
  Cr  Cr48  1  0.82869165  0.49438560  0.49750789  1
  Fe  Fe49  1  0.66104049  0.32948309  0.66233686  1
  Fe  Fe50  1  0.82914109  0.49491068  0.82658908  1
  Cr  Cr51  1  0.83250168  0.82996200  0.49369801  1
  Cr  Cr52  1  0.66009536  0.66329106  0.66354173  1
  Cr  Cr53  1  0.83389779  0.82761263  0.82962445  1
" 