1450,Fe53Cr47_9,-215.856373482626, 176.135831301098,Fe53Cr47,"# generated using pymatgen
 data_Cr14Fe13
_symmetry_space_group_name_H-M   'P 1'
_cell_length_a   7.53768545
_cell_length_b   7.53768545
_cell_length_c   10.65989699
_cell_angle_alpha   90.00000000
_cell_angle_beta   90.00000000
_cell_angle_gamma   90.00000000
_symmetry_Int_Tables_number   1
_chemical_formula_structural   Cr14Fe13
_chemical_formula_sum   'Cr28 Fe26'
_cell_volume   605.66018924
_cell_formula_units_Z   2
loop_
 _symmetry_equiv_pos_site_id
 _symmetry_equiv_pos_as_xyz
  1  'x, y, z'
loop_
 _atom_site_type_symbol
 _atom_site_label
 _atom_site_symmetry_multiplicity
 _atom_site_fract_x
 _atom_site_fract_y
 _atom_site_fract_z
 _atom_site_occupancy
  Cr  Cr0  1  0.99429142  -0.00369121  -0.00335022  1
  Cr  Cr1  1  0.16403522  0.16199803  0.16232757  1
  Cr  Cr2  1  0.99290372  -0.00421584  0.32636426  1
  Cr  Cr3  1  -0.00410390  0.32771187  0.99497136  1
  Cr  Cr4  1  0.15959545  0.49667394  0.16434003  1
  Fe  Fe5  1  0.99485680  0.32849275  0.32873244  1
  Cr  Cr6  1  -0.00375070  0.66167600  0.99520768  1
  Fe  Fe7  1  0.16224770  0.82793042  0.16304944  1
  Fe  Fe8  1  0.99443599  0.66202066  0.32907821  1
  Cr  Cr9  1  0.32727679  0.99527394  0.99517196  1
  Cr  Cr10  1  0.49754359  0.16229048  0.16293308  1
  Fe  Fe11  1  0.32997890  0.99490243  0.32947444  1
  Cr  Cr12  1  0.32943868  0.33181782  -0.00464262  1
  Fe  Fe13  1  0.49826429  0.49529534  0.16216197  1
  Cr  Cr14  1  0.33055298  0.33065267  0.32930315  1
  Cr  Cr15  1  0.33152015  0.65882997  -0.00408177  1
  Cr  Cr16  1  0.49528521  0.82917705  0.16014857  1
  Cr  Cr17  1  0.33144108  0.66027665  0.32752196  1
  Cr  Cr18  1  0.66410390  0.99480663  0.99461018  1
  Fe  Fe19  1  0.82691122  0.16342412  0.16330115  1
  Fe  Fe20  1  0.65939417  0.99441749  0.32997970  1
  Fe  Fe21  1  0.66104214  0.33130333  -0.00462871  1
  Cr  Cr22  1  0.82660777  0.49424894  0.16234267  1
  Fe  Fe23  1  0.66179303  0.32949218  0.32886324  1
  Fe  Fe24  1  0.66138250  0.65878024  0.99400402  1
  Cr  Cr25  1  0.82695141  0.82565011  0.16276991  1
  Fe  Fe26  1  0.66158786  0.66217412  0.33019091  1
  Cr  Cr27  1  0.16442604  0.16237770  0.49778626  1
  Cr  Cr28  1  0.99345893  -0.00358560  0.66372219  1
  Fe  Fe29  1  0.16271274  0.16353266  0.82677593  1
  Cr  Cr30  1  0.16019805  0.49602333  0.49719673  1
  Fe  Fe31  1  0.99460620  0.33020589  0.66386399  1
  Fe  Fe32  1  0.16176956  0.49401187  0.82596532  1
  Cr  Cr33  1  0.16312747  0.82753905  0.49414519  1
  Fe  Fe34  1  0.99512630  0.66115706  0.66311265  1
  Cr  Cr35  1  0.16443202  0.82740304  0.82881443  1
  Fe  Fe36  1  0.49479451  0.16262629  0.49515285  1
  Fe  Fe37  1  0.33018987  0.99415210  0.66202556  1
  Cr  Cr38  1  0.49440538  0.16151508  0.82725335  1
  Fe  Fe39  1  0.49545441  0.49437525  0.49620160  1
  Fe  Fe40  1  0.33012858  0.33013320  0.66278053  1
  Fe  Fe41  1  0.49659064  0.49592222  0.82746868  1
  Fe  Fe42  1  0.49548039  0.82869784  0.49384682  1
  Fe  Fe43  1  0.32948928  0.66153989  0.66242880  1
  Fe  Fe44  1  0.49532510  0.82768016  0.82821714  1
  Cr  Cr45  1  0.82653762  0.16474795  0.49317046  1
  Cr  Cr46  1  0.66256047  0.99412634  0.65863224  1
  Cr  Cr47  1  0.82611182  0.16502574  0.82974924  1
  Cr  Cr48  1  0.82909185  0.49666076  0.49517242  1
  Fe  Fe49  1  0.66097877  0.32967073  0.66169563  1
  Fe  Fe50  1  0.82779293  0.49490235  0.82780386  1
  Fe  Fe51  1  0.82902822  0.82785881  0.49373113  1
  Cr  Cr52  1  0.65993994  0.66162326  0.66150590  1
  Cr  Cr53  1  0.82763073  0.82564211  0.82861165  1
" 