313,Fe53Cr47_17,-216.058211065318, 176.782035139325,Fe53Cr47,"# generated using pymatgen
 data_Cr14Fe13
_symmetry_space_group_name_H-M   'P 1'
_cell_length_a   7.55138415
_cell_length_b   7.55138415
_cell_length_c   10.67926988
_cell_angle_alpha   90.00000000
_cell_angle_beta   90.00000000
_cell_angle_gamma   90.00000000
_symmetry_Int_Tables_number   1
_chemical_formula_structural   Cr14Fe13
_chemical_formula_sum   'Cr28 Fe26'
_cell_volume   608.96830548
_cell_formula_units_Z   2
loop_
 _symmetry_equiv_pos_site_id
 _symmetry_equiv_pos_as_xyz
  1  'x, y, z'
loop_
 _atom_site_type_symbol
 _atom_site_label
 _atom_site_symmetry_multiplicity
 _atom_site_fract_x
 _atom_site_fract_y
 _atom_site_fract_z
 _atom_site_occupancy
  Fe  Fe0  1  0.99361014  -0.00557547  -0.00486800  1
  Fe  Fe1  1  0.15979165  0.16058454  0.16058934  1
  Fe  Fe2  1  -0.00425246  -0.00528573  0.32743876  1
  Fe  Fe3  1  0.99410574  0.32725069  -0.00517414  1
  Cr  Cr4  1  0.16296025  0.49345276  0.15837822  1
  Cr  Cr5  1  0.99281233  0.32532712  0.32777135  1
  Fe  Fe6  1  0.99411086  0.66157038  0.99404114  1
  Fe  Fe7  1  0.16026760  0.82854691  0.16016770  1
  Cr  Cr8  1  0.99441301  0.66218788  0.32969732  1
  Cr  Cr9  1  0.32763210  0.99415374  -0.00490983  1
  Cr  Cr10  1  0.49512255  0.16302100  0.16068880  1
  Cr  Cr11  1  0.32484569  0.99414739  0.32885505  1
  Fe  Fe12  1  0.32855269  0.32854376  -0.00556978  1
  Fe  Fe13  1  0.49492157  0.49409944  0.16080657  1
  Fe  Fe14  1  0.32815166  0.32732197  0.32732488  1
  Fe  Fe15  1  0.32815581  0.65989502  -0.00517043  1
  Cr  Cr16  1  0.49514082  0.82596305  0.16111962  1
  Cr  Cr17  1  0.32886803  0.66204201  0.32649987  1
  Fe  Fe18  1  0.66227051  -0.00518454  0.99411026  1
  Fe  Fe19  1  0.82855134  0.16108463  0.16028223  1
  Cr  Cr20  1  0.66169931  -0.00425713  0.32688647  1
  Fe  Fe21  1  0.66059056  0.32803719  0.99402951  1
  Cr  Cr22  1  0.82677445  0.49347362  0.16167491  1
  Fe  Fe23  1  0.66015610  0.32867294  0.32691430  1
  Fe  Fe24  1  0.66098760  0.66039516  0.99362878  1
  Cr  Cr25  1  0.82800335  0.82960888  0.16002695  1
  Fe  Fe26  1  0.66069528  0.65985625  0.32730722  1
  Fe  Fe27  1  0.16149961  0.16067619  0.49408963  1
  Cr  Cr28  1  -0.00527267  0.99397365  0.65849932  1
  Cr  Cr29  1  0.16220609  0.16398531  0.82807054  1
  Cr  Cr30  1  0.16208726  0.49269458  0.49567880  1
  Cr  Cr31  1  0.99310672  0.32888579  0.66074943  1
  Cr  Cr32  1  0.16139994  0.49337911  0.82919481  1
  Fe  Fe33  1  0.16068326  0.82898275  0.49409140  1
  Cr  Cr34  1  0.99248640  0.66038555  0.66150260  1
  Cr  Cr35  1  0.15967966  0.82588513  0.83002847  1
  Cr  Cr36  1  0.49360525  0.16199879  0.49710575  1
  Cr  Cr37  1  0.32901392  -0.00429237  0.65931431  1
  Fe  Fe38  1  0.49503652  0.16266573  0.82773285  1
  Cr  Cr39  1  0.49426023  0.49351799  0.49231229  1
  Fe  Fe40  1  0.32876543  0.32734093  0.66149329  1
  Fe  Fe41  1  0.49550553  0.49311653  0.82803926  1
  Cr  Cr42  1  0.49586954  0.82773242  0.49471844  1
  Cr  Cr43  1  0.32851005  0.66138388  0.66073939  1
  Cr  Cr44  1  0.49787970  0.82835154  0.82740233  1
  Cr  Cr45  1  0.82787181  0.16023931  0.49283351  1
  Fe  Fe46  1  0.66118352  0.99433179  0.66183213  1
  Cr  Cr47  1  0.82541320  0.16008093  0.82926436  1
  Cr  Cr48  1  0.82689240  0.49495785  0.49433530  1
  Fe  Fe49  1  0.65986042  0.32813348  0.66230633  1
  Fe  Fe50  1  0.82624163  0.49530448  0.82855404  1
  Cr  Cr51  1  0.82705916  0.82805047  0.49515554  1
  Fe  Fe52  1  0.66156644  0.66078146  0.66230674  1
  Fe  Fe53  1  0.82710481  0.82697771  0.82855645  1
" 