3957,Fe53Cr47_6,-215.895041486576, 175.162309452727,Fe53Cr47,"# generated using pymatgen
 data_Cr14Fe13
_symmetry_space_group_name_H-M   'P 1'
_cell_length_a   7.53381121
_cell_length_b   7.53381121
_cell_length_c   10.65441799
_cell_angle_alpha   90.00000000
_cell_angle_beta   90.00000000
_cell_angle_gamma   90.00000000
_symmetry_Int_Tables_number   1
_chemical_formula_structural   Cr14Fe13
_chemical_formula_sum   'Cr28 Fe26'
_cell_volume   604.72677415
_cell_formula_units_Z   2
loop_
 _symmetry_equiv_pos_site_id
 _symmetry_equiv_pos_as_xyz
  1  'x, y, z'
loop_
 _atom_site_type_symbol
 _atom_site_label
 _atom_site_symmetry_multiplicity
 _atom_site_fract_x
 _atom_site_fract_y
 _atom_site_fract_z
 _atom_site_occupancy
  Cr  Cr0  1  0.99298762  0.99525960  0.99440968  1
  Cr  Cr1  1  0.16324038  0.15971710  0.16265795  1
  Cr  Cr2  1  0.99245039  -0.00410433  0.32977118  1
  Cr  Cr3  1  0.00050812  0.32919142  0.99353175  1
  Cr  Cr4  1  0.16401715  0.49914556  0.16113523  1
  Cr  Cr5  1  -0.00089438  0.32918021  0.33308671  1
  Cr  Cr6  1  0.99260905  0.66302501  0.99480785  1
  Cr  Cr7  1  0.16549166  0.82939366  0.16392283  1
  Cr  Cr8  1  0.99430143  0.66059269  0.32958076  1
  Cr  Cr9  1  0.33328291  -0.00085888  -0.00436834  1
  Fe  Fe10  1  0.49500438  0.16296960  0.16313159  1
  Fe  Fe11  1  0.33070931  0.99531796  0.32933947  1
  Cr  Cr12  1  0.33112335  0.33037299  0.99089680  1
  Cr  Cr13  1  0.49772091  0.49423560  0.16107049  1
  Cr  Cr14  1  0.32987928  0.33013530  0.33041149  1
  Fe  Fe15  1  0.33154121  0.66411632  0.99378424  1
  Fe  Fe16  1  0.49513392  0.82724193  0.16196331  1
  Fe  Fe17  1  0.33097632  0.66275443  0.33008013  1
  Cr  Cr18  1  0.66091983  0.99198470  -0.00392808  1
  Cr  Cr19  1  0.82548576  0.16554136  0.16373876  1
  Cr  Cr20  1  0.65945012  0.99326058  0.32816856  1
  Fe  Fe21  1  0.66026963  0.32578880  0.99384375  1
  Cr  Cr22  1  0.82597497  0.49330277  0.16065762  1
  Fe  Fe23  1  0.66147874  0.32860359  0.33022734  1
  Fe  Fe24  1  0.65782000  0.66214034  0.99454382  1
  Fe  Fe25  1  0.82804296  0.82767700  0.16196921  1
  Cr  Cr26  1  0.65965741  0.66415422  0.32962671  1
  Fe  Fe27  1  0.16506105  0.16090772  0.49665870  1
  Cr  Cr28  1  0.99426210  -0.00362150  0.66342646  1
  Fe  Fe29  1  0.16434066  0.16259202  0.82688062  1
  Fe  Fe30  1  0.16591543  0.49728908  0.49678728  1
  Cr  Cr31  1  0.00070092  0.32933078  0.65979034  1
  Fe  Fe32  1  0.16409298  0.49700493  0.82740573  1
  Cr  Cr33  1  0.16685686  0.82966557  0.49387986  1
  Cr  Cr34  1  0.99457288  0.66046849  0.66281520  1
  Cr  Cr35  1  0.16538110  0.82983717  0.82959647  1
  Cr  Cr36  1  0.49728122  0.16295489  0.49647977  1
  Fe  Fe37  1  0.32990360  -0.00370463  0.66296395  1
  Fe  Fe38  1  0.49515436  0.16192897  0.82520804  1
  Fe  Fe39  1  0.49271877  0.49810104  0.49765328  1
  Fe  Fe40  1  0.33172085  0.32998407  0.66303812  1
  Fe  Fe41  1  0.49409532  0.49729631  0.82694691  1
  Fe  Fe42  1  0.49630444  0.82816521  0.49869213  1
  Fe  Fe43  1  0.32999944  0.66150776  0.66249028  1
  Fe  Fe44  1  0.49774271  0.82765627  0.82675434  1
  Fe  Fe45  1  0.82764994  0.16100768  0.49722343  1
  Fe  Fe46  1  0.65878450  0.99440611  0.66328691  1
  Cr  Cr47  1  0.82617748  0.16362217  0.82647007  1
  Cr  Cr48  1  0.82379087  0.49187877  0.49534362  1
  Fe  Fe49  1  0.66061942  0.32998786  0.66224443  1
  Cr  Cr50  1  0.82464204  0.49471347  0.83088552  1
  Cr  Cr51  1  0.82934762  0.82817504  0.49996471  1
  Fe  Fe52  1  0.65873392  0.66131119  0.66292840  1
  Fe  Fe53  1  0.82569680  0.82812371  0.82685432  1
" 