1336,Fe53Cr47_10,-215.912351254541, 175.111548031115,Fe53Cr47,"# generated using pymatgen
 data_Cr14Fe13
_symmetry_space_group_name_H-M   'P 1'
_cell_length_a   7.53879390
_cell_length_b   7.53879390
_cell_length_c   10.66146458
_cell_angle_alpha   90.00000000
_cell_angle_beta   90.00000000
_cell_angle_gamma   90.00000000
_symmetry_Int_Tables_number   1
_chemical_formula_structural   Cr14Fe13
_chemical_formula_sum   'Cr28 Fe26'
_cell_volume   605.92742509
_cell_formula_units_Z   2
loop_
 _symmetry_equiv_pos_site_id
 _symmetry_equiv_pos_as_xyz
  1  'x, y, z'
loop_
 _atom_site_type_symbol
 _atom_site_label
 _atom_site_symmetry_multiplicity
 _atom_site_fract_x
 _atom_site_fract_y
 _atom_site_fract_z
 _atom_site_occupancy
  Cr  Cr0  1  0.99498485  0.99488370  0.99323869  1
  Fe  Fe1  1  0.16267660  0.16182715  0.16013060  1
  Fe  Fe2  1  -0.00138971  0.99505131  0.32847063  1
  Fe  Fe3  1  0.99509340  0.32738438  0.99507521  1
  Fe  Fe4  1  0.16190273  0.49420852  0.15858219  1
  Cr  Cr5  1  -0.00214455  0.33020224  0.32991497  1
  Fe  Fe6  1  0.99441676  0.66023029  0.99467154  1
  Cr  Cr7  1  0.16311375  0.82780595  0.16137605  1
  Cr  Cr8  1  0.99478887  0.66197156  0.32720980  1
  Fe  Fe9  1  0.32810643  -0.00300983  0.99419305  1
  Fe  Fe10  1  0.49331001  0.16169238  0.16032311  1
  Fe  Fe11  1  0.32520358  -0.00453209  0.32974453  1
  Fe  Fe12  1  0.32911952  0.32519408  -0.00470005  1
  Cr  Cr13  1  0.49379105  0.49404026  0.16058688  1
  Cr  Cr14  1  0.32766806  0.32618701  0.32694497  1
  Fe  Fe15  1  0.32951061  0.66226886  -0.00461888  1
  Cr  Cr16  1  0.49211751  0.82796502  0.16225491  1
  Cr  Cr17  1  0.32817235  0.66284043  0.33153016  1
  Cr  Cr18  1  0.65907285  0.99443605  0.99355366  1
  Cr  Cr19  1  0.82790220  0.16270811  0.16554221  1
  Cr  Cr20  1  0.65842912  0.99405949  0.32622508  1
  Fe  Fe21  1  0.66166451  0.32770638  0.99315273  1
  Cr  Cr22  1  0.82776137  0.49251907  0.16126782  1
  Fe  Fe23  1  0.66098534  0.33070535  0.32901068  1
  Fe  Fe24  1  0.66200333  0.66035144  0.99389737  1
  Cr  Cr25  1  0.82961342  0.82954591  0.15847388  1
  Cr  Cr26  1  0.66321802  0.66303754  0.33023508  1
  Fe  Fe27  1  0.16240472  0.15965969  0.49510392  1
  Fe  Fe28  1  -0.00324393  -0.00373299  0.66280097  1
  Fe  Fe29  1  0.16311038  0.16138774  0.83028407  1
  Cr  Cr30  1  0.16396716  0.49714161  0.49640043  1
  Cr  Cr31  1  -0.00265563  0.32944778  0.66206152  1
  Cr  Cr32  1  0.16472503  0.49549523  0.83244528  1
  Fe  Fe33  1  0.16214500  0.83160744  0.49603717  1
  Cr  Cr34  1  0.99284748  0.66150171  0.66220086  1
  Cr  Cr35  1  0.16215371  0.82768986  0.82776863  1
  Cr  Cr36  1  0.49777664  0.16256749  0.49332410  1
  Cr  Cr37  1  0.32958739  -0.00292915  0.66099983  1
  Fe  Fe38  1  0.49364302  0.16237566  0.82983443  1
  Cr  Cr39  1  0.49474037  0.49646123  0.49755125  1
  Cr  Cr40  1  0.32820074  0.32704052  0.66504154  1
  Fe  Fe41  1  0.49700990  0.49460734  0.83078453  1
  Fe  Fe42  1  0.49508560  0.82961696  0.49737215  1
  Fe  Fe43  1  0.32875050  0.66163057  0.66184649  1
  Cr  Cr44  1  0.49439775  0.82618156  0.82661242  1
  Cr  Cr45  1  0.83008284  0.16247617  0.49356197  1
  Fe  Fe46  1  0.66220574  0.99488514  0.66265500  1
  Cr  Cr47  1  0.82860125  0.16136906  0.82565197  1
  Fe  Fe48  1  0.82798243  0.49597363  0.49550649  1
  Cr  Cr49  1  0.66174869  0.33034552  0.66259658  1
  Fe  Fe50  1  0.82782852  0.49678484  0.83082087  1
  Cr  Cr51  1  0.82986671  0.83300909  0.49706586  1
  Fe  Fe52  1  0.66118172  0.66274064  0.66231277  1
  Fe  Fe53  1  0.82780671  0.82642756  0.82811447  1
" 