6942,Fe53Cr47_12,-216.021615634112, 174.971274267562,Fe53Cr47,"# generated using pymatgen
 data_Cr14Fe13
_symmetry_space_group_name_H-M   'P 1'
_cell_length_a   7.54116260
_cell_length_b   7.54116260
_cell_length_c   10.66481442
_cell_angle_alpha   90.00000000
_cell_angle_beta   90.00000000
_cell_angle_gamma   90.00000000
_symmetry_Int_Tables_number   1
_chemical_formula_structural   Cr14Fe13
_chemical_formula_sum   'Cr28 Fe26'
_cell_volume   606.49875314
_cell_formula_units_Z   2
loop_
 _symmetry_equiv_pos_site_id
 _symmetry_equiv_pos_as_xyz
  1  'x, y, z'
loop_
 _atom_site_type_symbol
 _atom_site_label
 _atom_site_symmetry_multiplicity
 _atom_site_fract_x
 _atom_site_fract_y
 _atom_site_fract_z
 _atom_site_occupancy
  Cr  Cr0  1  0.99316607  0.99480616  -0.00237025  1
  Fe  Fe1  1  0.16037166  0.16131918  0.16222264  1
  Fe  Fe2  1  -0.00392278  -0.00481489  0.32738942  1
  Fe  Fe3  1  -0.00471243  0.32843759  -0.00395488  1
  Fe  Fe4  1  0.16286266  0.49507816  0.16177373  1
  Cr  Cr5  1  0.99289226  0.32727693  0.32553640  1
  Cr  Cr6  1  0.99489985  0.66123871  0.99393497  1
  Fe  Fe7  1  0.16129179  0.82886732  0.16313811  1
  Cr  Cr8  1  -0.00351883  0.66360503  0.32801554  1
  Cr  Cr9  1  0.32904064  0.99443101  0.99333299  1
  Cr  Cr10  1  0.49453727  0.16136618  0.16085389  1
  Fe  Fe11  1  0.32684908  0.99372701  0.32886741  1
  Cr  Cr12  1  0.32725660  0.32953749  -0.00406134  1
  Fe  Fe13  1  0.49510783  0.49600368  0.16255681  1
  Cr  Cr14  1  0.33064361  0.32999704  0.32710132  1
  Cr  Cr15  1  0.32763945  0.66128695  -0.00362523  1
  Cr  Cr16  1  0.49716699  0.82649378  0.16121534  1
  Fe  Fe17  1  0.32931528  0.66266006  0.32840215  1
  Fe  Fe18  1  0.66258593  0.99403031  -0.00396333  1
  Fe  Fe19  1  0.82920258  0.16072060  0.16163558  1
  Cr  Cr20  1  0.66293224  -0.00354292  0.32784589  1
  Cr  Cr21  1  0.66308662  0.32779261  0.99475959  1
  Cr  Cr22  1  0.82811947  0.49587231  0.16104793  1
  Fe  Fe23  1  0.66187034  0.32942313  0.32921342  1
  Fe  Fe24  1  0.66213219  0.66233050  -0.00442509  1
  Fe  Fe25  1  0.82828006  0.82943752  0.16175537  1
  Fe  Fe26  1  0.66042059  0.66017782  0.32886805  1
  Cr  Cr27  1  0.16142763  0.15917667  0.49462998  1
  Fe  Fe28  1  -0.00425149  0.99366735  0.66139807  1
  Cr  Cr29  1  0.16129100  0.16221816  0.82883509  1
  Cr  Cr30  1  0.16174976  0.49636585  0.49494949  1
  Cr  Cr31  1  0.99106027  0.33032065  0.66288789  1
  Cr  Cr32  1  0.15921319  0.49445575  0.82932208  1
  Fe  Fe33  1  0.16215340  0.82886982  0.49462499  1
  Fe  Fe34  1  0.99426817  0.66282965  0.66175667  1
  Fe  Fe35  1  0.16090146  0.82852694  0.82748820  1
  Fe  Fe36  1  0.49647488  0.16220299  0.49460115  1
  Cr  Cr37  1  0.32831454  0.99330370  0.66144899  1
  Cr  Cr38  1  0.49474289  0.16087773  0.82849633  1
  Fe  Fe39  1  0.49737833  0.49553957  0.49473437  1
  Cr  Cr40  1  0.33145379  0.32826177  0.66222433  1
  Cr  Cr41  1  0.49715691  0.49615392  0.82895466  1
  Fe  Fe42  1  0.49398776  0.82752684  0.49414856  1
  Cr  Cr43  1  0.32693284  0.66368751  0.66098371  1
  Cr  Cr44  1  0.49728690  0.82822957  0.83067468  1
  Fe  Fe45  1  0.82762433  0.16275062  0.49519114  1
  Cr  Cr46  1  0.66159042  -0.00307092  0.66183059  1
  Cr  Cr47  1  0.82922545  0.16208958  0.82891624  1
  Fe  Fe48  1  0.82627698  0.49453465  0.49541745  1
  Fe  Fe49  1  0.66200686  0.32979873  0.66047287  1
  Fe  Fe50  1  0.82783980  0.49545196  0.82808295  1
  Cr  Cr51  1  0.82889855  0.82734346  0.49530440  1
  Fe  Fe52  1  0.66258928  0.65981670  0.66082856  1
  Cr  Cr53  1  0.82753151  0.82615390  0.82937255  1
" 