1678,Fe53Cr47_13,-216.086534852589, 178.260480884169,Fe53Cr47,"# generated using pymatgen
 data_Cr14Fe13
_symmetry_space_group_name_H-M   'P 1'
_cell_length_a   7.54271067
_cell_length_b   7.54271067
_cell_length_c   10.66700372
_cell_angle_alpha   90.00000000
_cell_angle_beta   90.00000000
_cell_angle_gamma   90.00000000
_symmetry_Int_Tables_number   1
_chemical_formula_structural   Cr14Fe13
_chemical_formula_sum   'Cr28 Fe26'
_cell_volume   606.87234115
_cell_formula_units_Z   2
loop_
 _symmetry_equiv_pos_site_id
 _symmetry_equiv_pos_as_xyz
  1  'x, y, z'
loop_
 _atom_site_type_symbol
 _atom_site_label
 _atom_site_symmetry_multiplicity
 _atom_site_fract_x
 _atom_site_fract_y
 _atom_site_fract_z
 _atom_site_occupancy
  Cr  Cr0  1  -0.00434323  0.99270159  0.99493985  1
  Cr  Cr1  1  0.16161150  0.16186015  0.15969134  1
  Fe  Fe2  1  0.99447966  -0.00429304  0.33007833  1
  Cr  Cr3  1  0.99318371  0.32848178  0.99295204  1
  Cr  Cr4  1  0.16159978  0.49593212  0.16276011  1
  Fe  Fe5  1  -0.00493892  0.32697230  0.32963592  1
  Cr  Cr6  1  -0.00495469  0.66360036  -0.00472883  1
  Fe  Fe7  1  0.16220499  0.82783297  0.16289249  1
  Fe  Fe8  1  -0.00447064  0.66220927  0.32869043  1
  Fe  Fe9  1  0.32618925  0.99275099  0.99347737  1
  Cr  Cr10  1  0.49506007  0.16016849  0.16010935  1
  Cr  Cr11  1  0.32731783  0.99463800  0.32880837  1
  Fe  Fe12  1  0.32679468  0.32856208  0.99417379  1
  Cr  Cr13  1  0.49442574  0.49657412  0.16107731  1
  Cr  Cr14  1  0.33100305  0.32989252  0.33114420  1
  Fe  Fe15  1  0.32769923  0.66347938  0.99354013  1
  Cr  Cr16  1  0.49437351  0.82846071  0.15872485  1
  Fe  Fe17  1  0.32896194  0.66223103  0.32888657  1
  Cr  Cr18  1  0.66402682  0.99378234  0.99364330  1
  Cr  Cr19  1  0.82832643  0.16104404  0.16501043  1
  Fe  Fe20  1  0.66165839  -0.00424467  0.33082979  1
  Cr  Cr21  1  0.66238149  0.33012752  -0.00378415  1
  Cr  Cr22  1  0.82904060  0.49536439  0.16231194  1
  Fe  Fe23  1  0.66205785  0.32808911  0.33041867  1
  Fe  Fe24  1  0.66315831  0.66317104  0.99374827  1
  Cr  Cr25  1  0.82763526  0.82877709  0.16688115  1
  Fe  Fe26  1  0.66053773  0.66109769  0.32975598  1
  Fe  Fe27  1  0.15852710  0.16130259  0.49422159  1
  Cr  Cr28  1  0.99446034  0.99389990  0.66256734  1
  Fe  Fe29  1  0.16144382  0.16134221  0.82862202  1
  Cr  Cr30  1  0.15883605  0.49463327  0.49568039  1
  Fe  Fe31  1  0.99419345  0.32639996  0.66244145  1
  Cr  Cr32  1  0.15964214  0.49370135  0.82573368  1
  Cr  Cr33  1  0.15965262  0.82739527  0.49350004  1
  Fe  Fe34  1  0.99235391  0.66233779  0.66307350  1
  Fe  Fe35  1  0.16337668  0.82805026  0.82836973  1
  Fe  Fe36  1  0.49695089  0.16190068  0.49384901  1
  Cr  Cr37  1  0.32710150  -0.00457478  0.66219192  1
  Cr  Cr38  1  0.49322709  0.15948387  0.83066291  1
  Fe  Fe39  1  0.49710344  0.49653072  0.49355323  1
  Cr  Cr40  1  0.32932474  0.32760564  0.65772186  1
  Cr  Cr41  1  0.49515486  0.49673663  0.82899179  1
  Cr  Cr42  1  0.49777846  0.82905483  0.49613045  1
  Cr  Cr43  1  0.32867938  0.66158930  0.65940086  1
  Fe  Fe44  1  0.49448917  0.82677155  0.82895086  1
  Fe  Fe45  1  0.82964969  0.16058286  0.49276723  1
  Cr  Cr46  1  0.66347913  0.99469658  0.66108582  1
  Fe  Fe47  1  0.82920355  0.16283948  0.82748641  1
  Cr  Cr48  1  0.82999484  0.49595046  0.49619624  1
  Cr  Cr49  1  0.66155820  0.32897715  0.66033664  1
  Fe  Fe50  1  0.82765527  0.49640270  0.82668518  1
  Fe  Fe51  1  0.82923033  0.82793145  0.49313393  1
  Fe  Fe52  1  0.66368216  0.66259395  0.66245354  1
  Fe  Fe53  1  0.82738623  0.82575636  0.82767875  1
" 