8212,Fe53Cr47_16,-216.085087750581, 176.435937472719,Fe53Cr47,"# generated using pymatgen
 data_Cr14Fe13
_symmetry_space_group_name_H-M   'P 1'
_cell_length_a   7.54276093
_cell_length_b   7.54276093
_cell_length_c   10.66707481
_cell_angle_alpha   90.00000000
_cell_angle_beta   90.00000000
_cell_angle_gamma   90.00000000
_symmetry_Int_Tables_number   1
_chemical_formula_structural   Cr14Fe13
_chemical_formula_sum   'Cr28 Fe26'
_cell_volume   606.88447428
_cell_formula_units_Z   2
loop_
 _symmetry_equiv_pos_site_id
 _symmetry_equiv_pos_as_xyz
  1  'x, y, z'
loop_
 _atom_site_type_symbol
 _atom_site_label
 _atom_site_symmetry_multiplicity
 _atom_site_fract_x
 _atom_site_fract_y
 _atom_site_fract_z
 _atom_site_occupancy
  Cr  Cr0  1  0.99458403  -0.00421106  0.99436291  1
  Cr  Cr1  1  0.16328952  0.16233480  0.16128966  1
  Cr  Cr2  1  -0.00175917  0.99480357  0.32972899  1
  Fe  Fe3  1  0.99326210  0.32920697  0.99447859  1
  Cr  Cr4  1  0.16315160  0.49607294  0.16063771  1
  Cr  Cr5  1  -0.00382652  0.32732717  0.32862150  1
  Fe  Fe6  1  -0.00494780  0.66118142  0.99399214  1
  Cr  Cr7  1  0.16298649  0.82634674  0.16086794  1
  Fe  Fe8  1  -0.00271466  0.66139824  0.32930493  1
  Cr  Cr9  1  0.32871731  0.99297403  0.99461493  1
  Fe  Fe10  1  0.49591753  0.16037935  0.16113911  1
  Fe  Fe11  1  0.32973092  0.99369309  0.32953914  1
  Cr  Cr12  1  0.33021895  0.32940821  -0.00429124  1
  Fe  Fe13  1  0.49294679  0.49639094  0.16175450  1
  Cr  Cr14  1  0.32831258  0.32735466  0.32927346  1
  Fe  Fe15  1  0.32939533  0.66228219  0.99421161  1
  Fe  Fe16  1  0.49267154  0.82812672  0.16122995  1
  Fe  Fe17  1  0.32765407  0.66331269  0.32913250  1
  Fe  Fe18  1  0.66019213  -0.00372122  -0.00485770  1
  Fe  Fe19  1  0.82789810  0.16160889  0.16069626  1
  Cr  Cr20  1  0.65984706  0.99351579  0.32592440  1
  Cr  Cr21  1  0.66194672  0.33007225  -0.00497141  1
  Cr  Cr22  1  0.83041381  0.49544839  0.16198759  1
  Cr  Cr23  1  0.66037507  0.32998505  0.32673139  1
  Cr  Cr24  1  0.65901515  0.66154423  -0.00347984  1
  Cr  Cr25  1  0.82767142  0.82940936  0.16208781  1
  Cr  Cr26  1  0.65930966  0.66142817  0.32616432  1
  Fe  Fe27  1  0.16301965  0.16140754  0.49457578  1
  Cr  Cr28  1  -0.00260006  0.99375998  0.66129846  1
  Cr  Cr29  1  0.16280906  0.16282532  0.83014560  1
  Fe  Fe30  1  0.16135685  0.49762844  0.49504629  1
  Cr  Cr31  1  -0.00483930  0.32824741  0.66196247  1
  Cr  Cr32  1  0.16268620  0.49736562  0.83023748  1
  Fe  Fe33  1  0.16361835  0.82554887  0.49407681  1
  Fe  Fe34  1  -0.00217331  0.66187888  0.66196703  1
  Fe  Fe35  1  0.16276903  0.82672765  0.82840406  1
  Fe  Fe36  1  0.49511310  0.15951771  0.49498655  1
  Cr  Cr37  1  0.32746627  0.99363859  0.66000787  1
  Fe  Fe38  1  0.49755218  0.16075085  0.82768074  1
  Cr  Cr39  1  0.49313918  0.49445902  0.49565815  1
  Cr  Cr40  1  0.32914311  0.32791726  0.66065424  1
  Fe  Fe41  1  0.49529920  0.49540264  0.82750698  1
  Fe  Fe42  1  0.49368175  0.82886065  0.49480774  1
  Fe  Fe43  1  0.32649536  0.66264109  0.66176736  1
  Fe  Fe44  1  0.49328686  0.82823618  0.82813939  1
  Cr  Cr45  1  0.82462737  0.16078622  0.49657551  1
  Fe  Fe46  1  0.65977029  -0.00364120  0.66236599  1
  Fe  Fe47  1  0.82630627  0.16280162  0.82780648  1
  Cr  Cr48  1  0.82920885  0.49626423  0.49591196  1
  Fe  Fe49  1  0.66090603  0.32651915  0.66374282  1
  Fe  Fe50  1  0.82847293  0.49418214  0.82838572  1
  Cr  Cr51  1  0.82798543  0.82769466  0.49453848  1
  Cr  Cr52  1  0.66041914  0.66053398  0.66269778  1
  Cr  Cr53  1  0.82719767  0.82934920  0.82785837  1
" 