5566,Fe53Cr47_11,-215.645507417007, 184.969468673556,Fe53Cr47,"# generated using pymatgen
 data_Cr14Fe13
_symmetry_space_group_name_H-M   'P 1'
_cell_length_a   7.52824792
_cell_length_b   7.52824792
_cell_length_c   10.64655031
_cell_angle_alpha   90.00000000
_cell_angle_beta   90.00000000
_cell_angle_gamma   90.00000000
_symmetry_Int_Tables_number   1
_chemical_formula_structural   Cr14Fe13
_chemical_formula_sum   'Cr28 Fe26'
_cell_volume   603.38809369
_cell_formula_units_Z   2
loop_
 _symmetry_equiv_pos_site_id
 _symmetry_equiv_pos_as_xyz
  1  'x, y, z'
loop_
 _atom_site_type_symbol
 _atom_site_label
 _atom_site_symmetry_multiplicity
 _atom_site_fract_x
 _atom_site_fract_y
 _atom_site_fract_z
 _atom_site_occupancy
  Fe  Fe0  1  -0.00143817  0.99511086  -0.00306900  1
  Cr  Cr1  1  0.16397740  0.15828861  0.16493675  1
  Fe  Fe2  1  0.99454146  0.99553144  0.32776531  1
  Cr  Cr3  1  0.99543310  0.32814268  -0.00347923  1
  Fe  Fe4  1  0.16304632  0.49518502  0.16318106  1
  Cr  Cr5  1  -0.00361278  0.32833532  0.32921707  1
  Cr  Cr6  1  0.00094190  0.66142878  0.99503206  1
  Fe  Fe7  1  0.16184539  0.82897193  0.16285265  1
  Cr  Cr8  1  -0.00073674  0.65987674  0.32857421  1
  Fe  Fe9  1  0.32767066  0.99563620  0.99584632  1
  Fe  Fe10  1  0.49716495  0.16058397  0.16154770  1
  Fe  Fe11  1  0.32986987  0.99578793  0.32818232  1
  Cr  Cr12  1  0.32661975  0.33068635  -0.00188468  1
  Cr  Cr13  1  0.49777094  0.49356719  0.16235641  1
  Fe  Fe14  1  0.32926634  0.32899201  0.32743712  1
  Cr  Cr15  1  0.32927057  0.66417495  0.99451449  1
  Cr  Cr16  1  0.49712837  0.82816496  0.16311507  1
  Cr  Cr17  1  0.32909013  0.66217544  0.32790552  1
  Fe  Fe18  1  0.66189105  -0.00386575  -0.00265449  1
  Fe  Fe19  1  0.82833994  0.16042418  0.16059712  1
  Cr  Cr20  1  0.66259258  0.99532155  0.33119483  1
  Fe  Fe21  1  0.66241132  0.32689932  -0.00256224  1
  Cr  Cr22  1  0.82650654  0.49974948  0.16046089  1
  Cr  Cr23  1  0.66536015  0.32423702  0.32911683  1
  Fe  Fe24  1  0.66273753  0.66485453  -0.00404328  1
  Fe  Fe25  1  0.83127935  0.83211124  0.16175322  1
  Fe  Fe26  1  0.66423542  0.66150814  0.32974793  1
  Cr  Cr27  1  0.16335484  0.16163390  0.49532940  1
  Cr  Cr28  1  0.99291960  -0.00165217  0.66384853  1
  Fe  Fe29  1  0.16227994  0.16200786  0.82964642  1
  Fe  Fe30  1  0.16439010  0.49624127  0.49688550  1
  Cr  Cr31  1  -0.00370961  0.33080177  0.66196545  1
  Fe  Fe32  1  0.16226845  0.49450587  0.82809618  1
  Cr  Cr33  1  0.16175835  0.83273994  0.49514762  1
  Fe  Fe34  1  -0.00379612  0.66371629  0.66254438  1
  Fe  Fe35  1  0.16406306  0.83299820  0.82899260  1
  Cr  Cr36  1  0.49051697  0.16445466  0.49645281  1
  Fe  Fe37  1  0.32792752  0.99571563  0.66455051  1
  Cr  Cr38  1  0.49216449  0.16392259  0.83042123  1
  Cr  Cr39  1  0.49774857  0.49496484  0.49411815  1
  Fe  Fe40  1  0.32871292  0.33010013  0.66394427  1
  Cr  Cr41  1  0.49842259  0.49484016  0.83125718  1
  Fe  Fe42  1  0.49288495  0.83037253  0.49412245  1
  Cr  Cr43  1  0.32815586  0.66397867  0.66532059  1
  Fe  Fe44  1  0.49736088  0.83149387  0.83103662  1
  Fe  Fe45  1  0.82944410  0.16248479  0.49657809  1
  Cr  Cr46  1  0.65951425  -0.00267897  0.66038634  1
  Cr  Cr47  1  0.82837322  0.16296446  0.83135544  1
  Fe  Fe48  1  0.83062943  0.49444197  0.49643500  1
  Fe  Fe49  1  0.66239014  0.32952543  0.66121429  1
  Cr  Cr50  1  0.82692636  0.49797830  0.82776022  1
  Cr  Cr51  1  0.83162998  0.82594631  0.49361357  1
  Cr  Cr52  1  0.65930439  0.66696861  0.65955186  1
  Cr  Cr53  1  0.83166703  0.82815856  0.83228888  1
" 