5720,Fe53Cr47_14,-215.952188724483, 176.075450786325,Fe53Cr47,"# generated using pymatgen
 data_Cr14Fe13
_symmetry_space_group_name_H-M   'P 1'
_cell_length_a   7.53344635
_cell_length_b   7.53344635
_cell_length_c   10.65390200
_cell_angle_alpha   90.00000000
_cell_angle_beta   90.00000000
_cell_angle_gamma   90.00000000
_symmetry_Int_Tables_number   1
_chemical_formula_structural   Cr14Fe13
_chemical_formula_sum   'Cr28 Fe26'
_cell_volume   604.63891692
_cell_formula_units_Z   2
loop_
 _symmetry_equiv_pos_site_id
 _symmetry_equiv_pos_as_xyz
  1  'x, y, z'
loop_
 _atom_site_type_symbol
 _atom_site_label
 _atom_site_symmetry_multiplicity
 _atom_site_fract_x
 _atom_site_fract_y
 _atom_site_fract_z
 _atom_site_occupancy
  Cr  Cr0  1  0.99388317  -0.00428801  -0.00309608  1
  Fe  Fe1  1  0.16091415  0.16181069  0.16370939  1
  Fe  Fe2  1  -0.00091221  0.99335566  0.32861579  1
  Cr  Cr3  1  -0.00091790  0.32896060  0.99055581  1
  Fe  Fe4  1  0.16231808  0.49746836  0.16219263  1
  Cr  Cr5  1  -0.00151999  0.32780894  0.33280912  1
  Fe  Fe6  1  -0.00157383  0.66298304  -0.00285707  1
  Fe  Fe7  1  0.15886018  0.82772642  0.16351514  1
  Fe  Fe8  1  -0.00260821  0.66359069  0.32863000  1
  Cr  Cr9  1  0.32736964  -0.00371153  -0.00292433  1
  Cr  Cr10  1  0.49423019  0.16455926  0.16278918  1
  Fe  Fe11  1  0.32587378  0.99502099  0.32893805  1
  Cr  Cr12  1  0.32627004  0.33171740  -0.00431666  1
  Fe  Fe13  1  0.49596675  0.49682713  0.16102892  1
  Cr  Cr14  1  0.32737502  0.33121579  0.32826484  1
  Fe  Fe15  1  0.32662555  0.66273562  -0.00333296  1
  Cr  Cr16  1  0.49032678  0.82979755  0.16128402  1
  Cr  Cr17  1  0.32865943  0.66212342  0.33125754  1
  Cr  Cr18  1  0.66332252  0.99157658  0.99505629  1
  Cr  Cr19  1  0.82837833  0.16518768  0.16558851  1
  Cr  Cr20  1  0.66391258  0.99341757  0.32914125  1
  Fe  Fe21  1  0.66271135  0.32845423  -0.00363963  1
  Cr  Cr22  1  0.83070585  0.49661285  0.16181912  1
  Fe  Fe23  1  0.66114878  0.33062559  0.33029876  1
  Fe  Fe24  1  0.66111207  0.66156684  -0.00277665  1
  Fe  Fe25  1  0.83026235  0.82810815  0.16287904  1
  Cr  Cr26  1  0.66090080  0.66357737  0.32998501  1
  Fe  Fe27  1  0.16111360  0.15888821  0.49593180  1
  Fe  Fe28  1  -0.00240176  -0.00420573  0.66135829  1
  Fe  Fe29  1  0.16279339  0.15964334  0.82753620  1
  Fe  Fe30  1  0.16355158  0.49723177  0.49608811  1
  Cr  Cr31  1  -0.00105791  0.32734810  0.66369658  1
  Fe  Fe32  1  0.16408317  0.49881464  0.82908665  1
  Fe  Fe33  1  0.16469722  0.83057396  0.49621955  1
  Cr  Cr34  1  -0.00269953  0.66076920  0.66197288  1
  Cr  Cr35  1  0.16352111  0.82844382  0.82790690  1
  Cr  Cr36  1  0.49360260  0.16144980  0.49302741  1
  Fe  Fe37  1  0.32673558  -0.00367333  0.66006069  1
  Cr  Cr38  1  0.49412971  0.16150810  0.83013145  1
  Fe  Fe39  1  0.49471816  0.49698508  0.49660860  1
  Cr  Cr40  1  0.32593416  0.33084214  0.66346801  1
  Cr  Cr41  1  0.49623711  0.49690017  0.83084984  1
  Fe  Fe42  1  0.49483708  0.82878425  0.49824012  1
  Fe  Fe43  1  0.32946170  0.66216189  0.65900310  1
  Cr  Cr44  1  0.49294790  0.82880444  0.82427486  1
  Fe  Fe45  1  0.83028148  0.15983196  0.49568092  1
  Fe  Fe46  1  0.66236101  0.99441154  0.66005387  1
  Cr  Cr47  1  0.82780712  0.16224638  0.82548587  1
  Cr  Cr48  1  0.82978145  0.49428503  0.49415838  1
  Cr  Cr49  1  0.66200667  0.32857521  0.65957098  1
  Cr  Cr50  1  0.82942193  0.49651280  0.83095969  1
  Cr  Cr51  1  0.83339296  0.82780220  0.49620514  1
  Fe  Fe52  1  0.66097944  0.66192633  0.66026230  1
  Cr  Cr53  1  0.83019358  0.82633559  0.82877251  1
" 