6919,Fe53Cr47_7,-215.765174907038, 177.462439958724,Fe53Cr47,"# generated using pymatgen
 data_Cr14Fe13
_symmetry_space_group_name_H-M   'P 1'
_cell_length_a   7.52772453
_cell_length_b   7.52772453
_cell_length_c   10.64581012
_cell_angle_alpha   90.00000000
_cell_angle_beta   90.00000000
_cell_angle_gamma   90.00000000
_symmetry_Int_Tables_number   1
_chemical_formula_structural   Cr14Fe13
_chemical_formula_sum   'Cr28 Fe26'
_cell_volume   603.26225353
_cell_formula_units_Z   2
loop_
 _symmetry_equiv_pos_site_id
 _symmetry_equiv_pos_as_xyz
  1  'x, y, z'
loop_
 _atom_site_type_symbol
 _atom_site_label
 _atom_site_symmetry_multiplicity
 _atom_site_fract_x
 _atom_site_fract_y
 _atom_site_fract_z
 _atom_site_occupancy
  Fe  Fe0  1  0.99396893  0.99594360  0.99499249  1
  Cr  Cr1  1  0.15998724  0.16362949  0.16432079  1
  Fe  Fe2  1  0.99548158  0.99514641  0.33032988  1
  Fe  Fe3  1  0.99459401  0.33125226  0.99456447  1
  Cr  Cr4  1  0.16250998  0.49473085  0.16142725  1
  Fe  Fe5  1  -0.00370856  0.33049609  0.33166747  1
  Fe  Fe6  1  0.99515996  0.66066450  0.99479814  1
  Cr  Cr7  1  0.16040383  0.83014892  0.15857559  1
  Cr  Cr8  1  0.99434097  0.66317656  0.32895966  1
  Fe  Fe9  1  0.33024239  0.99579542  0.99446135  1
  Cr  Cr10  1  0.49637585  0.16162956  0.16093954  1
  Cr  Cr11  1  0.32731546  0.99556417  0.33280016  1
  Cr  Cr12  1  0.33016382  0.32776510  0.99450337  1
  Fe  Fe13  1  0.49555633  0.49454500  0.16242187  1
  Cr  Cr14  1  0.32843074  0.32816944  0.33099136  1
  Cr  Cr15  1  0.32864916  0.66411448  0.99580130  1
  Cr  Cr16  1  0.49775799  0.82977902  0.16383970  1
  Cr  Cr17  1  0.32882317  0.66433758  0.33083394  1
  Fe  Fe18  1  0.66361166  0.99580128  0.99496070  1
  Cr  Cr19  1  0.83162208  0.16019223  0.16378689  1
  Fe  Fe20  1  0.66322743  0.99531276  0.32958575  1
  Cr  Cr21  1  0.66565395  0.32834510  0.99387520  1
  Fe  Fe22  1  0.83265546  0.49435740  0.16170002  1
  Cr  Cr23  1  0.66563942  0.33058044  0.32706877  1
  Cr  Cr24  1  0.66597598  0.66170207  0.00150304  1
  Fe  Fe25  1  0.83163163  0.83131626  0.16176986  1
  Cr  Cr26  1  0.66476429  0.66271220  0.32530615  1
  Fe  Fe27  1  0.16047725  0.16197732  0.49615028  1
  Fe  Fe28  1  -0.00305329  0.99512794  0.66336493  1
  Cr  Cr29  1  0.16025026  0.16283956  0.83289441  1
  Fe  Fe30  1  0.15879218  0.49570003  0.49594181  1
  Cr  Cr31  1  0.99265767  0.32989456  0.66267995  1
  Fe  Fe32  1  0.15928332  0.49866745  0.82959696  1
  Fe  Fe33  1  0.15972562  0.83052981  0.49651443  1
  Fe  Fe34  1  0.99569846  0.66309539  0.66220336  1
  Fe  Fe35  1  0.16144507  0.82866755  0.83047912  1
  Cr  Cr36  1  0.49811470  0.16313441  0.49800663  1
  Cr  Cr37  1  0.32789198  0.99521488  0.66274301  1
  Fe  Fe38  1  0.49836612  0.16072954  0.82856612  1
  Cr  Cr39  1  0.49592423  0.49803301  0.49643862  1
  Cr  Cr40  1  0.32746612  0.32800376  0.66320918  1
  Cr  Cr41  1  0.49561768  0.49590055  0.82740365  1
  Fe  Fe42  1  0.49842417  0.83046447  0.49692242  1
  Cr  Cr43  1  0.32593835  0.66510879  0.65997577  1
  Cr  Cr44  1  0.49810832  0.82880579  0.82776928  1
  Cr  Cr45  1  0.83126931  0.16116741  0.49570973  1
  Fe  Fe46  1  0.66407954  -0.00270048  0.66370938  1
  Fe  Fe47  1  0.82766212  0.16196267  0.82840113  1
  Fe  Fe48  1  0.82897278  0.49620781  0.49703055  1
  Fe  Fe49  1  0.66325739  0.32914122  0.66419503  1
  Fe  Fe50  1  0.83056513  0.49680974  0.82859939  1
  Cr  Cr51  1  0.82856074  0.82986735  0.49684745  1
  Fe  Fe52  1  0.66490187  0.66146301  0.66215510  1
  Cr  Cr53  1  0.83113572  0.82934584  0.82907517  1
" 