40,Fe53Cr47_5,-215.851037869439, 170.608920563323,Fe53Cr47,"# generated using pymatgen
 data_Cr14Fe13
_symmetry_space_group_name_H-M   'P 1'
_cell_length_a   7.54555104
_cell_length_b   7.54555104
_cell_length_c   10.67102062
_cell_angle_alpha   90.00000000
_cell_angle_beta   90.00000000
_cell_angle_gamma   90.00000000
_symmetry_Int_Tables_number   1
_chemical_formula_structural   Cr14Fe13
_chemical_formula_sum   'Cr28 Fe26'
_cell_volume   607.55819260
_cell_formula_units_Z   2
loop_
 _symmetry_equiv_pos_site_id
 _symmetry_equiv_pos_as_xyz
  1  'x, y, z'
loop_
 _atom_site_type_symbol
 _atom_site_label
 _atom_site_symmetry_multiplicity
 _atom_site_fract_x
 _atom_site_fract_y
 _atom_site_fract_z
 _atom_site_occupancy
  Fe  Fe0  1  -0.00422259  0.99478083  0.99282846  1
  Cr  Cr1  1  0.16156238  0.16186413  0.15962192  1
  Cr  Cr2  1  0.99368102  -0.00414561  0.32771868  1
  Fe  Fe3  1  -0.00506142  0.32892924  0.99333978  1
  Fe  Fe4  1  0.16105815  0.49464071  0.16147660  1
  Fe  Fe5  1  0.99439692  0.32949330  0.32758185  1
  Fe  Fe6  1  -0.00494872  0.66069706  0.99318932  1
  Cr  Cr7  1  0.16148585  0.82678333  0.16027582  1
  Fe  Fe8  1  -0.00413627  0.66049461  0.32754657  1
  Fe  Fe9  1  0.32733108  -0.00455723  0.99308885  1
  Cr  Cr10  1  0.49489703  0.16299859  0.15924288  1
  Cr  Cr11  1  0.32815839  0.99448993  0.33018558  1
  Fe  Fe12  1  0.32831114  0.32811952  0.99348553  1
  Fe  Fe13  1  0.49418583  0.49385840  0.16141925  1
  Cr  Cr14  1  0.32712429  0.33108062  0.32688226  1
  Cr  Cr15  1  0.32788111  0.65779083  -0.00386007  1
  Cr  Cr16  1  0.49282591  0.82821364  0.16290613  1
  Fe  Fe17  1  0.32758054  0.66109315  0.32759989  1
  Cr  Cr18  1  0.66423993  -0.00488104  0.99470490  1
  Cr  Cr19  1  0.82792229  0.16409465  0.16234580  1
  Cr  Cr20  1  0.66267946  0.99411850  0.32943684  1
  Fe  Fe21  1  0.66114549  0.32890209  0.99327553  1
  Cr  Cr22  1  0.82908692  0.49352884  0.16255610  1
  Fe  Fe23  1  0.66126041  0.32845803  0.32781837  1
  Cr  Cr24  1  0.66202919  0.65975879  0.99451426  1
  Cr  Cr25  1  0.83020881  0.82682659  0.15969545  1
  Cr  Cr26  1  0.66015958  0.66090489  0.32726873  1
  Cr  Cr27  1  0.16063858  0.16285886  0.49470939  1
  Cr  Cr28  1  0.99314844  -0.00421283  0.66279930  1
  Fe  Fe29  1  0.16113485  0.16169777  0.82967914  1
  Cr  Cr30  1  0.15893171  0.49556669  0.49356236  1
  Fe  Fe31  1  0.99424547  0.32899781  0.66346500  1
  Fe  Fe32  1  0.16017670  0.49473882  0.82858543  1
  Cr  Cr33  1  0.16259542  0.82622382  0.49395467  1
  Fe  Fe34  1  0.99449295  0.66065008  0.66347395  1
  Fe  Fe35  1  0.16017084  0.82780302  0.82902523  1
  Cr  Cr36  1  0.49628300  0.16081225  0.49624239  1
  Cr  Cr37  1  0.32775527  -0.00440954  0.66073592  1
  Fe  Fe38  1  0.49536957  0.16273491  0.82877055  1
  Cr  Cr39  1  0.49622297  0.49533691  0.49499019  1
  Cr  Cr40  1  0.32700752  0.32893209  0.66382048  1
  Fe  Fe41  1  0.49575315  0.49341915  0.82812142  1
  Fe  Fe42  1  0.49560050  0.82737602  0.49549084  1
  Cr  Cr43  1  0.32882266  0.65985621  0.66004986  1
  Cr  Cr44  1  0.49430859  0.82908513  0.82636382  1
  Cr  Cr45  1  0.82727318  0.16448746  0.49411779  1
  Fe  Fe46  1  0.66151662  -0.00498362  0.66245986  1
  Fe  Fe47  1  0.82790175  0.16248801  0.82823195  1
  Cr  Cr48  1  0.82915242  0.49377078  0.49610637  1
  Fe  Fe49  1  0.66215218  0.32802376  0.66351142  1
  Fe  Fe50  1  0.82847897  0.49443437  0.82759279  1
  Cr  Cr51  1  0.82746213  0.82626246  0.49658621  1
  Fe  Fe52  1  0.66241151  0.66135949  0.66269404  1
  Fe  Fe53  1  0.82924403  0.82744745  0.82780807  1
" 