2197,Fe54Cr46_1,-215.482053625175, 179.916100924055,Fe54Cr46,"# generated using pymatgen
 data_Cr29Fe25
_symmetry_space_group_name_H-M   'P 1'
_cell_length_a   7.54226734
_cell_length_b   7.54226734
_cell_length_c   10.66637676
_cell_angle_alpha   90.00000000
_cell_angle_beta   90.00000000
_cell_angle_gamma   90.00000000
_symmetry_Int_Tables_number   1
_chemical_formula_structural   Cr29Fe25
_chemical_formula_sum   'Cr29 Fe25'
_cell_volume   606.76533878
_cell_formula_units_Z   1
loop_
 _symmetry_equiv_pos_site_id
 _symmetry_equiv_pos_as_xyz
  1  'x, y, z'
loop_
 _atom_site_type_symbol
 _atom_site_label
 _atom_site_symmetry_multiplicity
 _atom_site_fract_x
 _atom_site_fract_y
 _atom_site_fract_z
 _atom_site_occupancy
  Fe  Fe0  1  0.99417290  0.99481990  -0.00497443  1
  Fe  Fe1  1  0.16051616  0.16202209  0.16293536  1
  Fe  Fe2  1  0.99472347  0.99446614  0.32740474  1
  Cr  Cr3  1  -0.00276434  0.32688372  -0.00490171  1
  Fe  Fe4  1  0.16116819  0.49507045  0.16119893  1
  Fe  Fe5  1  -0.00401290  0.32900953  0.32691386  1
  Fe  Fe6  1  -0.00333642  0.66212679  -0.00428232  1
  Cr  Cr7  1  0.16283040  0.82928060  0.15955319  1
  Cr  Cr8  1  0.99473219  0.66374440  0.33006814  1
  Cr  Cr9  1  0.32922154  -0.00392350  -0.00269160  1
  Cr  Cr10  1  0.49540985  0.16010800  0.16322198  1
  Fe  Fe11  1  0.32840811  0.99333785  0.32655447  1
  Cr  Cr12  1  0.32881332  0.32859564  0.99447244  1
  Cr  Cr13  1  0.49730289  0.49655458  0.15931512  1
  Cr  Cr14  1  0.32615611  0.32774987  0.32691575  1
  Fe  Fe15  1  0.32800091  0.66068369  -0.00486992  1
  Fe  Fe16  1  0.49785503  0.82855400  0.16087807  1
  Cr  Cr17  1  0.32904424  0.66085158  0.32725659  1
  Fe  Fe18  1  0.66261728  -0.00430114  -0.00481950  1
  Cr  Cr19  1  0.82905601  0.16301047  0.16203677  1
  Fe  Fe20  1  0.66243242  0.99401820  0.32787532  1
  Fe  Fe21  1  0.66040712  0.32597752  0.99360060  1
  Cr  Cr22  1  0.82846593  0.49540390  0.16025779  1
  Cr  Cr23  1  0.65938862  0.32918493  0.32903091  1
  Fe  Fe24  1  0.66042499  0.66327962  -0.00464980  1
  Fe  Fe25  1  0.82731369  0.82945657  0.15990264  1
  Cr  Cr26  1  0.66194980  0.66550403  0.32960847  1
  Cr  Cr27  1  0.16213835  0.16012728  0.49167150  1
  Cr  Cr28  1  0.99249694  0.99482147  0.66320075  1
  Cr  Cr29  1  0.16281318  0.15968337  0.82716599  1
  Fe  Fe30  1  0.16400940  0.49428628  0.49530602  1
  Cr  Cr31  1  -0.00332569  0.32835699  0.66150874  1
  Fe  Fe32  1  0.16335249  0.49605610  0.82830539  1
  Cr  Cr33  1  0.16394598  0.82917568  0.49865981  1
  Cr  Cr34  1  0.99485397  0.66150787  0.66035027  1
  Cr  Cr35  1  0.16356480  0.82655381  0.82768427  1
  Cr  Cr36  1  0.49407831  0.16041409  0.49629774  1
  Fe  Fe37  1  0.33006275  -0.00352317  0.66266869  1
  Fe  Fe38  1  0.49613809  0.16103990  0.82876393  1
  Fe  Fe39  1  0.49195140  0.49400888  0.49573344  1
  Fe  Fe40  1  0.32810896  0.33013999  0.66224310  1
  Fe  Fe41  1  0.49311058  0.49605845  0.82910876  1
  Cr  Cr42  1  0.49257655  0.82989172  0.49463382  1
  Fe  Fe43  1  0.32900362  0.65796894  0.66174372  1
  Cr  Cr44  1  0.49303505  0.82812803  0.82867180  1
  Cr  Cr45  1  0.82807985  0.16277576  0.49408212  1
  Fe  Fe46  1  0.66125719  -0.00493255  0.66275299  1
  Fe  Fe47  1  0.82655082  0.16015777  0.83013925  1
  Cr  Cr48  1  0.82839444  0.49348355  0.49281204  1
  Cr  Cr49  1  0.65901015  0.32761395  0.66511427  1
  Cr  Cr50  1  0.82718925  0.49369013  0.83205424  1
  Fe  Fe51  1  0.82822046  0.83191261  0.49455769  1
  Cr  Cr52  1  0.66125538  0.66272605  0.65744394  1
  Cr  Cr53  1  0.82855671  0.82713414  0.83024040  1
" 