6744,Fe54Cr46_3,-215.527481104087, 181.420559115446,Fe54Cr46,"# generated using pymatgen
 data_Cr29Fe25
_symmetry_space_group_name_H-M   'P 1'
_cell_length_a   7.54229222
_cell_length_b   7.54229222
_cell_length_c   10.66641195
_cell_angle_alpha   90.00000000
_cell_angle_beta   90.00000000
_cell_angle_gamma   90.00000000
_symmetry_Int_Tables_number   1
_chemical_formula_structural   Cr29Fe25
_chemical_formula_sum   'Cr29 Fe25'
_cell_volume   606.77134459
_cell_formula_units_Z   1
loop_
 _symmetry_equiv_pos_site_id
 _symmetry_equiv_pos_as_xyz
  1  'x, y, z'
loop_
 _atom_site_type_symbol
 _atom_site_label
 _atom_site_symmetry_multiplicity
 _atom_site_fract_x
 _atom_site_fract_y
 _atom_site_fract_z
 _atom_site_occupancy
  Fe  Fe0  1  -0.00463592  -0.00457974  -0.00363532  1
  Fe  Fe1  1  0.16310996  0.16233611  0.16052196  1
  Cr  Cr2  1  0.99349833  -0.00326921  0.32844646  1
  Fe  Fe3  1  0.99455191  0.32738220  -0.00483064  1
  Cr  Cr4  1  0.16256555  0.49257598  0.16023875  1
  Cr  Cr5  1  0.99363257  0.32767422  0.33037710  1
  Fe  Fe6  1  -0.00440181  0.66221085  0.99467265  1
  Cr  Cr7  1  0.16028377  0.83170060  0.16122950  1
  Cr  Cr8  1  0.99450894  0.66080434  0.32755542  1
  Fe  Fe9  1  0.32843461  -0.00370829  0.99489876  1
  Fe  Fe10  1  0.49278621  0.16312744  0.16186721  1
  Fe  Fe11  1  0.32799996  -0.00376666  0.32830418  1
  Fe  Fe12  1  0.32950444  0.32559881  0.99464620  1
  Cr  Cr13  1  0.49471788  0.49183469  0.16349178  1
  Fe  Fe14  1  0.32945900  0.32563817  0.32720252  1
  Cr  Cr15  1  0.32668461  0.66116489  0.99045551  1
  Cr  Cr16  1  0.49349938  0.82926037  0.16418690  1
  Cr  Cr17  1  0.32816292  0.66327451  0.33242843  1
  Cr  Cr18  1  0.66045416  -0.00243660  -0.00333294  1
  Fe  Fe19  1  0.82907683  0.16241864  0.16040037  1
  Cr  Cr20  1  0.66084845  -0.00315150  0.32645502  1
  Fe  Fe21  1  0.66105440  0.32677433  -0.00487706  1
  Cr  Cr22  1  0.82784674  0.49457455  0.16107905  1
  Fe  Fe23  1  0.66266562  0.32711216  0.32832918  1
  Cr  Cr24  1  0.66209621  0.66372193  -0.00202704  1
  Fe  Fe25  1  0.83004171  0.83002023  0.16065753  1
  Cr  Cr26  1  0.66257262  0.66307758  0.32774658  1
  Cr  Cr27  1  0.16132921  0.15882293  0.49233390  1
  Fe  Fe28  1  -0.00395166  0.99466990  0.66086604  1
  Cr  Cr29  1  0.16100060  0.15990566  0.83134725  1
  Cr  Cr30  1  0.16355956  0.49418708  0.49418044  1
  Cr  Cr31  1  0.99401812  0.32809054  0.65895928  1
  Fe  Fe32  1  0.15993307  0.49522805  0.82942293  1
  Fe  Fe33  1  0.16304257  0.82893441  0.49564413  1
  Cr  Cr34  1  -0.00225028  0.66054988  0.66223191  1
  Fe  Fe35  1  0.16054019  0.82826935  0.82883453  1
  Cr  Cr36  1  0.49525226  0.16238265  0.49453016  1
  Cr  Cr37  1  0.32962437  0.99334045  0.66191033  1
  Fe  Fe38  1  0.49641485  0.16158819  0.82899346  1
  Cr  Cr39  1  0.49742658  0.49531749  0.49461470  1
  Cr  Cr40  1  0.32713396  0.32869554  0.66522887  1
  Cr  Cr41  1  0.49583860  0.49360338  0.82778329  1
  Fe  Fe42  1  0.49444662  0.82912677  0.49637466  1
  Fe  Fe43  1  0.32811103  0.66170826  0.66122273  1
  Cr  Cr44  1  0.49599085  0.82835122  0.82458038  1
  Fe  Fe45  1  0.82601459  0.16265382  0.49638071  1
  Fe  Fe46  1  0.66271953  -0.00395390  0.66079864  1
  Cr  Cr47  1  0.82867135  0.16059898  0.82469874  1
  Fe  Fe48  1  0.82648611  0.49377883  0.49555271  1
  Fe  Fe49  1  0.66153156  0.32780665  0.66075776  1
  Cr  Cr50  1  0.82714531  0.49477788  0.82900111  1
  Cr  Cr51  1  0.82809421  0.82968634  0.49686413  1
  Fe  Fe52  1  0.66124232  0.66145805  0.66065960  1
  Cr  Cr53  1  0.83025380  0.82968934  0.83037789  1
" 