3720,Fe54Cr46_8,-215.481684578901, 185.328565758829,Fe54Cr46,"# generated using pymatgen
 data_Cr29Fe25
_symmetry_space_group_name_H-M   'P 1'
_cell_length_a   7.53658426
_cell_length_b   7.53658426
_cell_length_c   10.65833967
_cell_angle_alpha   90.00000000
_cell_angle_beta   90.00000000
_cell_angle_gamma   90.00000000
_symmetry_Int_Tables_number   1
_chemical_formula_structural   Cr29Fe25
_chemical_formula_sum   'Cr29 Fe25'
_cell_volume   605.39478367
_cell_formula_units_Z   1
loop_
 _symmetry_equiv_pos_site_id
 _symmetry_equiv_pos_as_xyz
  1  'x, y, z'
loop_
 _atom_site_type_symbol
 _atom_site_label
 _atom_site_symmetry_multiplicity
 _atom_site_fract_x
 _atom_site_fract_y
 _atom_site_fract_z
 _atom_site_occupancy
  Cr  Cr0  1  0.99149359  -0.00395424  0.99381280  1
  Cr  Cr1  1  0.15906383  0.16325934  0.16367327  1
  Cr  Cr2  1  0.99369113  -0.00382358  0.32866979  1
  Fe  Fe3  1  0.99512550  0.32730386  -0.00400156  1
  Fe  Fe4  1  0.16253436  0.49429170  0.16258239  1
  Fe  Fe5  1  0.99409162  0.32857340  0.32852254  1
  Cr  Cr6  1  0.99438455  0.66447221  -0.00434692  1
  Cr  Cr7  1  0.16531378  0.82813677  0.16476934  1
  Cr  Cr8  1  0.99314140  0.66372037  0.32767964  1
  Cr  Cr9  1  0.32633793  -0.00055456  0.99375291  1
  Fe  Fe10  1  0.49685451  0.16469590  0.16013415  1
  Fe  Fe11  1  0.33022760  -0.00177244  0.32863399  1
  Fe  Fe12  1  0.32903370  0.32773289  -0.00277433  1
  Fe  Fe13  1  0.49635360  0.49373302  0.16195503  1
  Cr  Cr14  1  0.33112986  0.32863785  0.32712383  1
  Cr  Cr15  1  0.32878295  0.65695925  -0.00299495  1
  Cr  Cr16  1  0.49457998  0.83066416  0.16204597  1
  Fe  Fe17  1  0.33025450  0.66002419  0.32846295  1
  Fe  Fe18  1  0.66237848  -0.00323478  -0.00343205  1
  Fe  Fe19  1  0.82673124  0.16156799  0.16077038  1
  Cr  Cr20  1  0.66366401  -0.00287023  0.32543273  1
  Fe  Fe21  1  0.66269017  0.32629600  -0.00331946  1
  Cr  Cr22  1  0.83049201  0.48994207  0.16289305  1
  Fe  Fe23  1  0.66217676  0.32867027  0.32844433  1
  Cr  Cr24  1  0.66373759  0.66226276  0.99514596  1
  Fe  Fe25  1  0.82843618  0.82893457  0.16127855  1
  Cr  Cr26  1  0.66210991  0.66119766  0.33118742  1
  Fe  Fe27  1  0.16346620  0.16203492  0.49456224  1
  Cr  Cr28  1  -0.00328569  -0.00278732  0.66435808  1
  Fe  Fe29  1  0.16094792  0.16359129  0.82899758  1
  Cr  Cr30  1  0.15705314  0.49468381  0.49287762  1
  Fe  Fe31  1  -0.00406861  0.32818501  0.66146958  1
  Cr  Cr32  1  0.15885220  0.49352985  0.83256197  1
  Cr  Cr33  1  0.16601219  0.83035447  0.49407736  1
  Cr  Cr34  1  0.99366715  0.66510475  0.66278810  1
  Fe  Fe35  1  0.16229303  0.82944796  0.82891770  1
  Fe  Fe36  1  0.49494881  0.16255653  0.49507353  1
  Fe  Fe37  1  0.32801283  -0.00418905  0.66287504  1
  Cr  Cr38  1  0.49852022  0.16102985  0.82942042  1
  Fe  Fe39  1  0.49545940  0.49258125  0.49514655  1
  Cr  Cr40  1  0.32908684  0.32573675  0.66267150  1
  Cr  Cr41  1  0.49821272  0.49409734  0.82993865  1
  Cr  Cr42  1  0.49335147  0.83160413  0.49544840  1
  Cr  Cr43  1  0.32835192  0.65686275  0.66341979  1
  Cr  Cr44  1  0.49331378  0.82981882  0.82838195  1
  Cr  Cr45  1  0.82903805  0.16839440  0.49479481  1
  Cr  Cr46  1  0.66508092  -0.00401333  0.66282663  1
  Fe  Fe47  1  0.82914761  0.16312945  0.82932700  1
  Fe  Fe48  1  0.82749666  0.49545991  0.49532781  1
  Fe  Fe49  1  0.66226519  0.32805964  0.66038296  1
  Cr  Cr50  1  0.82947192  0.48992862  0.82564497  1
  Fe  Fe51  1  0.82958313  0.83105085  0.49526833  1
  Cr  Cr52  1  0.66297722  0.66092561  0.65912840  1
  Fe  Fe53  1  0.82681631  0.82883859  0.82909451  1
" 