8974,Fe54Cr46_12,-215.469850078942, 174.989531286446,Fe54Cr46,"# generated using pymatgen
 data_Cr29Fe25
_symmetry_space_group_name_H-M   'P 1'
_cell_length_a   7.54402027
_cell_length_b   7.54402027
_cell_length_c   10.66885578
_cell_angle_alpha   90.00000000
_cell_angle_beta   90.00000000
_cell_angle_gamma   90.00000000
_symmetry_Int_Tables_number   1
_chemical_formula_structural   Cr29Fe25
_chemical_formula_sum   'Cr29 Fe25'
_cell_volume   607.18850045
_cell_formula_units_Z   1
loop_
 _symmetry_equiv_pos_site_id
 _symmetry_equiv_pos_as_xyz
  1  'x, y, z'
loop_
 _atom_site_type_symbol
 _atom_site_label
 _atom_site_symmetry_multiplicity
 _atom_site_fract_x
 _atom_site_fract_y
 _atom_site_fract_z
 _atom_site_occupancy
  Cr  Cr0  1  0.99466349  0.99420746  0.99354993  1
  Cr  Cr1  1  0.16350885  0.16271916  0.16039339  1
  Cr  Cr2  1  -0.00486595  0.99179688  0.32846540  1
  Cr  Cr3  1  -0.00301331  0.32769290  0.99313032  1
  Cr  Cr4  1  0.16202639  0.49544600  0.16108093  1
  Cr  Cr5  1  0.99401766  0.32974797  0.32926816  1
  Cr  Cr6  1  0.99121833  0.66279099  -0.00421106  1
  Cr  Cr7  1  0.16253299  0.82652906  0.16462715  1
  Fe  Fe8  1  0.99363191  0.66198266  0.32866813  1
  Cr  Cr9  1  0.32819305  -0.00232071  -0.00498875  1
  Fe  Fe10  1  0.49425838  0.16199303  0.16285194  1
  Fe  Fe11  1  0.32941717  0.99459217  0.32773395  1
  Fe  Fe12  1  0.32856541  0.32768848  -0.00478851  1
  Fe  Fe13  1  0.49562645  0.49477378  0.16229082  1
  Fe  Fe14  1  0.33024080  0.32853739  0.32792922  1
  Cr  Cr15  1  0.33131533  0.65964116  0.99406870  1
  Fe  Fe16  1  0.49607443  0.82792928  0.16283357  1
  Fe  Fe17  1  0.32885212  0.66156938  0.32816669  1
  Cr  Cr18  1  0.66184158  0.99191094  -0.00430915  1
  Cr  Cr19  1  0.82565278  0.16156463  0.16273613  1
  Fe  Fe20  1  0.66081190  0.99416236  0.32730166  1
  Cr  Cr21  1  0.65868760  0.33081741  -0.00316077  1
  Fe  Fe22  1  0.82676162  0.49659879  0.16230541  1
  Fe  Fe23  1  0.66038995  0.32937338  0.32771653  1
  Fe  Fe24  1  0.66211234  0.66211267  -0.00393148  1
  Fe  Fe25  1  0.82674338  0.82653025  0.16241313  1
  Fe  Fe26  1  0.66221244  0.66116020  0.32792673  1
  Cr  Cr27  1  0.16135021  0.16088572  0.49504572  1
  Cr  Cr28  1  -0.00464711  0.99465799  0.66267793  1
  Fe  Fe29  1  0.16211275  0.16210504  0.82777981  1
  Cr  Cr30  1  0.16102694  0.49813165  0.49444169  1
  Fe  Fe31  1  0.99395738  0.32833009  0.66154065  1
  Cr  Cr32  1  0.16149986  0.49411723  0.82916590  1
  Fe  Fe33  1  0.16203364  0.82801896  0.49448147  1
  Cr  Cr34  1  0.99423923  0.66267801  0.65927424  1
  Cr  Cr35  1  0.16310482  0.82779673  0.82644399  1
  Cr  Cr36  1  0.49787125  0.16035753  0.49405105  1
  Fe  Fe37  1  0.32824922  0.99383604  0.66163660  1
  Cr  Cr38  1  0.49563455  0.15999276  0.82679397  1
  Fe  Fe39  1  0.49572089  0.49468432  0.49418987  1
  Cr  Cr40  1  0.32923542  0.32818100  0.66311365  1
  Cr  Cr41  1  0.49434886  0.49643437  0.82831983  1
  Cr  Cr42  1  0.49311987  0.82847984  0.49581530  1
  Fe  Fe43  1  0.32813489  0.66253692  0.66077601  1
  Cr  Cr44  1  0.49553934  0.82826840  0.82714001  1
  Cr  Cr45  1  0.82548188  0.16315376  0.49671814  1
  Fe  Fe46  1  0.66155592  0.99487663  0.66164076  1
  Cr  Cr47  1  0.82838205  0.16158702  0.82524050  1
  Fe  Fe48  1  0.82687029  0.49518568  0.49460799  1
  Fe  Fe49  1  0.66263062  0.32822105  0.66078729  1
  Cr  Cr50  1  0.82884472  0.49402336  0.82834707  1
  Fe  Fe51  1  0.82830836  0.82752661  0.49406682  1
  Cr  Cr52  1  0.66118703  0.66077730  0.66213573  1
  Fe  Fe53  1  0.82724535  0.82812365  0.82821515  1
" 