1265,Fe54Cr46_2,-215.776818932648, 181.535840045273,Fe54Cr46,"# generated using pymatgen
 data_Cr29Fe25
_symmetry_space_group_name_H-M   'P 1'
_cell_length_a   7.54551669
_cell_length_b   7.54551669
_cell_length_c   10.67097203
_cell_angle_alpha   90.00000000
_cell_angle_beta   90.00000000
_cell_angle_gamma   90.00000000
_symmetry_Int_Tables_number   1
_chemical_formula_structural   Cr29Fe25
_chemical_formula_sum   'Cr29 Fe25'
_cell_volume   607.54989426
_cell_formula_units_Z   1
loop_
 _symmetry_equiv_pos_site_id
 _symmetry_equiv_pos_as_xyz
  1  'x, y, z'
loop_
 _atom_site_type_symbol
 _atom_site_label
 _atom_site_symmetry_multiplicity
 _atom_site_fract_x
 _atom_site_fract_y
 _atom_site_fract_z
 _atom_site_occupancy
  Cr  Cr0  1  0.99269855  -0.00284203  0.99341082  1
  Fe  Fe1  1  0.15955177  0.16199681  0.16193934  1
  Cr  Cr2  1  0.99375152  -0.00351777  0.32854448  1
  Fe  Fe3  1  0.99396613  0.32648854  0.99381010  1
  Cr  Cr4  1  0.15786262  0.49520451  0.16152013  1
  Fe  Fe5  1  0.99425003  0.32600988  0.32774189  1
  Cr  Cr6  1  0.99292248  0.66271593  0.99227431  1
  Cr  Cr7  1  0.16295976  0.82907822  0.16027446  1
  Cr  Cr8  1  0.99315931  0.66316500  0.33111042  1
  Cr  Cr9  1  0.32830479  -0.00349574  -0.00383056  1
  Fe  Fe10  1  0.49588528  0.15983110  0.16248443  1
  Fe  Fe11  1  0.32830529  0.99469204  0.32747518  1
  Cr  Cr12  1  0.32715801  0.32864407  -0.00377059  1
  Cr  Cr13  1  0.49829301  0.49511111  0.16059026  1
  Cr  Cr14  1  0.32729527  0.32692925  0.32627658  1
  Cr  Cr15  1  0.33080298  0.65942470  0.99295943  1
  Fe  Fe16  1  0.49553355  0.82811197  0.16180462  1
  Cr  Cr17  1  0.33042362  0.65975064  0.32864165  1
  Cr  Cr18  1  0.66372048  0.99370208  0.99456322  1
  Fe  Fe19  1  0.82858035  0.16356301  0.16197596  1
  Cr  Cr20  1  0.66197314  0.99306501  0.32793559  1
  Cr  Cr21  1  0.66110583  0.32791226  0.99216243  1
  Cr  Cr22  1  0.82816841  0.49316045  0.16233764  1
  Fe  Fe23  1  0.66210050  0.32733125  0.32696483  1
  Fe  Fe24  1  0.66130301  0.66189318  0.99231870  1
  Cr  Cr25  1  0.82703912  0.82657386  0.16149475  1
  Fe  Fe26  1  0.66080561  0.66187042  0.32910475  1
  Fe  Fe27  1  0.16119052  0.16219449  0.49518293  1
  Cr  Cr28  1  0.99353367  0.99430007  0.66255408  1
  Fe  Fe29  1  0.16062900  0.16161873  0.82762569  1
  Cr  Cr30  1  0.15907573  0.49596477  0.49570474  1
  Fe  Fe31  1  0.99290539  0.32815461  0.66289579  1
  Cr  Cr32  1  0.15906578  0.49688217  0.82740655  1
  Cr  Cr33  1  0.16356161  0.82962491  0.49780607  1
  Fe  Fe34  1  0.99371973  0.66164371  0.66282526  1
  Fe  Fe35  1  0.16288278  0.82977839  0.82651306  1
  Cr  Cr36  1  0.49484267  0.15882307  0.49562399  1
  Fe  Fe37  1  0.32827073  0.99314333  0.66270729  1
  Cr  Cr38  1  0.49626242  0.15978143  0.82570781  1
  Cr  Cr39  1  0.49711269  0.49312203  0.49602933  1
  Cr  Cr40  1  0.32757516  0.33016817  0.66171955  1
  Fe  Fe41  1  0.49615526  0.49596417  0.82707261  1
  Fe  Fe42  1  0.49539453  0.82771032  0.49508294  1
  Fe  Fe43  1  0.32857039  0.66417332  0.66302845  1
  Fe  Fe44  1  0.49386487  0.82685764  0.82771957  1
  Cr  Cr45  1  0.82637114  0.16419257  0.49554599  1
  Cr  Cr46  1  0.66437293  0.99295673  0.66176766  1
  Fe  Fe47  1  0.83028046  0.16402344  0.82703366  1
  Cr  Cr48  1  0.82811658  0.49344114  0.49374304  1
  Fe  Fe49  1  0.66388515  0.32881882  0.66368556  1
  Fe  Fe50  1  0.82692448  0.49380385  0.82706784  1
  Fe  Fe51  1  0.82682139  0.82732214  0.49510565  1
  Cr  Cr52  1  0.66196335  0.66173151  0.66192690  1
  Fe  Fe53  1  0.82794654  0.82665010  0.82801854  1
" 