5694,Fe54Cr46_19,-215.690195956729, 177.569893020282,Fe54Cr46,"# generated using pymatgen
 data_Cr29Fe25
_symmetry_space_group_name_H-M   'P 1'
_cell_length_a   7.55719217
_cell_length_b   7.55719217
_cell_length_c   10.68748365
_cell_angle_alpha   90.00000000
_cell_angle_beta   90.00000000
_cell_angle_gamma   90.00000000
_symmetry_Int_Tables_number   1
_chemical_formula_structural   Cr29Fe25
_chemical_formula_sum   'Cr29 Fe25'
_cell_volume   610.37451873
_cell_formula_units_Z   1
loop_
 _symmetry_equiv_pos_site_id
 _symmetry_equiv_pos_as_xyz
  1  'x, y, z'
loop_
 _atom_site_type_symbol
 _atom_site_label
 _atom_site_symmetry_multiplicity
 _atom_site_fract_x
 _atom_site_fract_y
 _atom_site_fract_z
 _atom_site_occupancy
  Fe  Fe0  1  -0.00558890  0.99346291  -0.00469738  1
  Fe  Fe1  1  0.16076459  0.16060136  0.15984935  1
  Cr  Cr2  1  -0.00567200  -0.00554781  0.32930406  1
  Fe  Fe3  1  0.99403513  0.32815147  -0.00517573  1
  Fe  Fe4  1  0.16040586  0.49354890  0.15953729  1
  Cr  Cr5  1  -0.00566667  0.32643606  0.32675749  1
  Fe  Fe6  1  0.99364488  0.66049738  -0.00469613  1
  Fe  Fe7  1  0.15949983  0.82795517  0.16023586  1
  Cr  Cr8  1  0.99403201  0.66122100  0.32603625  1
  Cr  Cr9  1  0.32501715  -0.00541386  -0.00585316  1
  Cr  Cr10  1  0.49379492  0.16051769  0.16183306  1
  Fe  Fe11  1  0.32694245  -0.00556363  0.32777175  1
  Fe  Fe12  1  0.32755799  0.32817842  -0.00509115  1
  Fe  Fe13  1  0.49412978  0.49315516  0.16000778  1
  Cr  Cr14  1  0.32638043  0.32614961  0.32751540  1
  Cr  Cr15  1  0.32728601  0.65925208  -0.00498640  1
  Cr  Cr16  1  0.49410521  0.82813479  0.16330449  1
  Cr  Cr17  1  0.32688027  0.66170622  0.32521781  1
  Cr  Cr18  1  0.66230620  -0.00572478  -0.00570317  1
  Cr  Cr19  1  0.82783753  0.16098315  0.15924058  1
  Fe  Fe20  1  0.66075002  -0.00594671  0.32815100  1
  Fe  Fe21  1  0.66051450  0.32894564  -0.00586278  1
  Fe  Fe22  1  0.82757264  0.49441916  0.15962403  1
  Cr  Cr23  1  0.66139446  0.32645050  0.32781708  1
  Cr  Cr24  1  0.66145287  0.65814539  0.99360173  1
  Fe  Fe25  1  0.82847341  0.82709007  0.16023539  1
  Cr  Cr26  1  0.66119576  0.66170600  0.32551720  1
  Fe  Fe27  1  0.16117038  0.15961416  0.49450801  1
  Fe  Fe28  1  -0.00589016  0.99318432  0.65904769  1
  Cr  Cr29  1  0.16020600  0.16154228  0.82918966  1
  Cr  Cr30  1  0.16003397  0.49409921  0.49470747  1
  Cr  Cr31  1  0.99308420  0.32626725  0.65872088  1
  Cr  Cr32  1  0.16023742  0.49381064  0.82713726  1
  Fe  Fe33  1  0.15951424  0.82836269  0.49450440  1
  Fe  Fe34  1  0.99286188  0.66204526  0.66022166  1
  Cr  Cr35  1  0.15846455  0.82675502  0.82690996  1
  Fe  Fe36  1  0.49403505  0.16087432  0.49403146  1
  Cr  Cr37  1  0.32557138  -0.00506268  0.65947070  1
  Cr  Cr38  1  0.49434244  0.16358585  0.82777179  1
  Cr  Cr39  1  0.49388621  0.49267005  0.49586673  1
  Fe  Fe40  1  0.32860101  0.32688311  0.66024029  1
  Fe  Fe41  1  0.49519400  0.49284985  0.82688719  1
  Cr  Cr42  1  0.49470293  0.82944408  0.49173063  1
  Cr  Cr43  1  0.32781935  0.66007598  0.66187492  1
  Cr  Cr44  1  0.49466327  0.82613982  0.82705683  1
  Fe  Fe45  1  0.82690015  0.15960721  0.49441678  1
  Cr  Cr46  1  0.66235671  -0.00539083  0.65902394  1
  Cr  Cr47  1  0.82755619  0.16181303  0.82889085  1
  Cr  Cr48  1  0.82818721  0.49441031  0.49576739  1
  Fe  Fe49  1  0.65975467  0.32813804  0.66062690  1
  Fe  Fe50  1  0.82660043  0.49402698  0.82725690  1
  Fe  Fe51  1  0.82816836  0.82797453  0.49489830  1
  Fe  Fe52  1  0.66188936  0.65953884  0.66109220  1
  Cr  Cr53  1  0.82897801  0.82616489  0.82659304  1
" 