6518,Fe54Cr46_15,-215.713399520905, 181.289987263286,Fe54Cr46,"# generated using pymatgen
 data_Cr29Fe25
_symmetry_space_group_name_H-M   'P 1'
_cell_length_a   7.54315383
_cell_length_b   7.54315383
_cell_length_c   10.66763045
_cell_angle_alpha   90.00000000
_cell_angle_beta   90.00000000
_cell_angle_gamma   90.00000000
_symmetry_Int_Tables_number   1
_chemical_formula_structural   Cr29Fe25
_chemical_formula_sum   'Cr29 Fe25'
_cell_volume   606.97931613
_cell_formula_units_Z   1
loop_
 _symmetry_equiv_pos_site_id
 _symmetry_equiv_pos_as_xyz
  1  'x, y, z'
loop_
 _atom_site_type_symbol
 _atom_site_label
 _atom_site_symmetry_multiplicity
 _atom_site_fract_x
 _atom_site_fract_y
 _atom_site_fract_z
 _atom_site_occupancy
  Cr  Cr0  1  0.99453929  0.99337332  0.99348105  1
  Cr  Cr1  1  0.16276619  0.16249958  0.16126817  1
  Cr  Cr2  1  -0.00478674  0.99359209  0.32846872  1
  Cr  Cr3  1  -0.00273780  0.32823510  0.99480470  1
  Cr  Cr4  1  0.15990602  0.49536731  0.16270579  1
  Fe  Fe5  1  -0.00432195  0.32807053  0.32869024  1
  Cr  Cr6  1  -0.00256807  0.66359703  0.99195098  1
  Cr  Cr7  1  0.16585365  0.82700486  0.16555975  1
  Fe  Fe8  1  -0.00498422  0.66230581  0.32939114  1
  Cr  Cr9  1  0.32626650  0.99312068  -0.00418285  1
  Cr  Cr10  1  0.49368891  0.15842407  0.16162366  1
  Fe  Fe11  1  0.32847642  -0.00482627  0.32964176  1
  Fe  Fe12  1  0.32803069  0.32894536  0.99374764  1
  Fe  Fe13  1  0.49550406  0.49681414  0.16315961  1
  Cr  Cr14  1  0.33122940  0.33183583  0.32919217  1
  Cr  Cr15  1  0.33005493  0.65668146  -0.00298095  1
  Fe  Fe16  1  0.49535579  0.82531037  0.16319918  1
  Fe  Fe17  1  0.32987276  0.66273439  0.32904085  1
  Cr  Cr18  1  0.66397277  0.99385535  -0.00452770  1
  Cr  Cr19  1  0.82853070  0.16482174  0.16200186  1
  Cr  Cr20  1  0.66264198  -0.00396392  0.32826123  1
  Cr  Cr21  1  0.65769704  0.33100059  -0.00248643  1
  Cr  Cr22  1  0.82903279  0.49518119  0.16544538  1
  Fe  Fe23  1  0.66030320  0.33013963  0.32895950  1
  Fe  Fe24  1  0.66127745  0.66069336  0.99484494  1
  Cr  Cr25  1  0.82616284  0.82485476  0.16009352  1
  Fe  Fe26  1  0.65952332  0.66072663  0.32882822  1
  Fe  Fe27  1  0.16347787  0.16092349  0.49544816  1
  Cr  Cr28  1  -0.00455702  0.99249547  0.66274015  1
  Fe  Fe29  1  0.16267555  0.16283699  0.82693909  1
  Cr  Cr30  1  0.15827535  0.49559237  0.49468228  1
  Fe  Fe31  1  -0.00269981  0.32822516  0.66231348  1
  Fe  Fe32  1  0.16360355  0.49298114  0.82693833  1
  Fe  Fe33  1  0.16069360  0.82834364  0.49445052  1
  Fe  Fe34  1  0.99420737  0.66230828  0.66213682  1
  Fe  Fe35  1  0.16181617  0.82796847  0.82703016  1
  Fe  Fe36  1  0.49213090  0.16282663  0.49483300  1
  Fe  Fe37  1  0.32697888  -0.00425518  0.66081726  1
  Cr  Cr38  1  0.49118204  0.16037616  0.82663383  1
  Fe  Fe39  1  0.49514526  0.49559507  0.49419724  1
  Fe  Fe40  1  0.32588371  0.32670178  0.66073728  1
  Fe  Fe41  1  0.49455807  0.49429181  0.82807738  1
  Cr  Cr42  1  0.49234700  0.83042593  0.49391789  1
  Cr  Cr43  1  0.32721078  0.65800176  0.66184632  1
  Cr  Cr44  1  0.49527780  0.82806445  0.82984006  1
  Cr  Cr45  1  0.82867260  0.16544876  0.49290387  1
  Cr  Cr46  1  0.66462814  0.99484165  0.66049547  1
  Cr  Cr47  1  0.82818931  0.16400634  0.83018894  1
  Cr  Cr48  1  0.82975187  0.49672146  0.49333080  1
  Cr  Cr49  1  0.65734790  0.32989277  0.65800481  1
  Cr  Cr50  1  0.82979452  0.49712791  0.82597032  1
  Fe  Fe51  1  0.82940113  0.82612712  0.49471442  1
  Fe  Fe52  1  0.66220547  0.66248622  0.66093517  1
  Fe  Fe53  1  0.82809911  0.82683436  0.82727985  1
" 