5674,Fe54Cr46_9,-215.665127683122, 176.322825712006,Fe54Cr46,"# generated using pymatgen
 data_Cr29Fe25
_symmetry_space_group_name_H-M   'P 1'
_cell_length_a   7.54370214
_cell_length_b   7.54370214
_cell_length_c   10.66840588
_cell_angle_alpha   90.00000000
_cell_angle_beta   90.00000000
_cell_angle_gamma   90.00000000
_symmetry_Int_Tables_number   1
_chemical_formula_structural   Cr29Fe25
_chemical_formula_sum   'Cr29 Fe25'
_cell_volume   607.11168936
_cell_formula_units_Z   1
loop_
 _symmetry_equiv_pos_site_id
 _symmetry_equiv_pos_as_xyz
  1  'x, y, z'
loop_
 _atom_site_type_symbol
 _atom_site_label
 _atom_site_symmetry_multiplicity
 _atom_site_fract_x
 _atom_site_fract_y
 _atom_site_fract_z
 _atom_site_occupancy
  Cr  Cr0  1  -0.00422035  -0.00494036  0.99312880  1
  Fe  Fe1  1  0.16317724  0.16402054  0.16213940  1
  Cr  Cr2  1  -0.00398812  0.99358467  0.32898449  1
  Fe  Fe3  1  -0.00395726  0.32951167  0.99376592  1
  Fe  Fe4  1  0.16395769  0.49230570  0.16245332  1
  Fe  Fe5  1  0.99490422  0.32794406  0.32697955  1
  Cr  Cr6  1  -0.00408556  0.66015437  -0.00478685  1
  Cr  Cr7  1  0.16495587  0.82672140  0.16040881  1
  Cr  Cr8  1  0.99429002  0.66148753  0.33016224  1
  Cr  Cr9  1  0.32897981  -0.00099394  0.99385255  1
  Fe  Fe10  1  0.49456080  0.16258138  0.16262746  1
  Fe  Fe11  1  0.33064414  -0.00346355  0.32714432  1
  Fe  Fe12  1  0.32638682  0.33143329  -0.00470115  1
  Fe  Fe13  1  0.49254064  0.49245755  0.16271708  1
  Fe  Fe14  1  0.33009476  0.32824174  0.32593804  1
  Fe  Fe15  1  0.32842441  0.65778737  0.99401651  1
  Cr  Cr16  1  0.49496942  0.82692889  0.16078779  1
  Fe  Fe17  1  0.32871478  0.65979569  0.32729362  1
  Fe  Fe18  1  0.65989971  -0.00351860  0.99398448  1
  Cr  Cr19  1  0.82958209  0.16227721  0.15801628  1
  Fe  Fe20  1  0.66066355  -0.00271626  0.32852159  1
  Cr  Cr21  1  0.65733663  0.32733880  0.99303208  1
  Cr  Cr22  1  0.82979097  0.49101814  0.16284529  1
  Fe  Fe23  1  0.66025748  0.32603676  0.32762662  1
  Cr  Cr24  1  0.66118336  0.65739287  -0.00356808  1
  Cr  Cr25  1  0.82504879  0.83076954  0.16075419  1
  Cr  Cr26  1  0.66287532  0.65907323  0.32886865  1
  Cr  Cr27  1  0.16156670  0.16364875  0.49261526  1
  Cr  Cr28  1  -0.00458995  0.99328909  0.66213375  1
  Cr  Cr29  1  0.15895222  0.16512405  0.82794442  1
  Cr  Cr30  1  0.16265158  0.49255105  0.49300091  1
  Cr  Cr31  1  0.99380800  0.33081582  0.66268841  1
  Fe  Fe32  1  0.16200912  0.49604438  0.82967529  1
  Cr  Cr33  1  0.16562418  0.82813468  0.49666579  1
  Cr  Cr34  1  0.99173317  0.66157322  0.66011816  1
  Fe  Fe35  1  0.16153828  0.82735655  0.82891225  1
  Fe  Fe36  1  0.49500565  0.16293625  0.49199339  1
  Cr  Cr37  1  0.32895252  -0.00215866  0.66089807  1
  Fe  Fe38  1  0.49596297  0.16190944  0.82880088  1
  Cr  Cr39  1  0.49635221  0.49475945  0.49637665  1
  Cr  Cr40  1  0.33315688  0.32636799  0.66311473  1
  Fe  Fe41  1  0.49515532  0.49315777  0.82834785  1
  Cr  Cr42  1  0.49582286  0.82738505  0.49420087  1
  Cr  Cr43  1  0.32708278  0.66016858  0.66527094  1
  Cr  Cr44  1  0.49401203  0.82559393  0.82988583  1
  Cr  Cr45  1  0.82783459  0.16512788  0.49536318  1
  Cr  Cr46  1  0.65979047  -0.00160900  0.66145953  1
  Fe  Fe47  1  0.82580241  0.16351994  0.82871807  1
  Fe  Fe48  1  0.82712944  0.49432325  0.49476947  1
  Fe  Fe49  1  0.66234847  0.33052555  0.66390533  1
  Fe  Fe50  1  0.82746947  0.49398139  0.82842873  1
  Fe  Fe51  1  0.82667839  0.82878048  0.49537402  1
  Fe  Fe52  1  0.66181976  0.65988040  0.66231585  1
  Cr  Cr53  1  0.82498557  0.82922535  0.82967173  1
" 