7191,Fe54Cr46_14,-215.587646679714, 179.286665049938,Fe54Cr46,"# generated using pymatgen
 data_Cr29Fe25
_symmetry_space_group_name_H-M   'P 1'
_cell_length_a   7.54148700
_cell_length_b   7.54148700
_cell_length_c   10.66527319
_cell_angle_alpha   90.00000000
_cell_angle_beta   90.00000000
_cell_angle_gamma   90.00000000
_symmetry_Int_Tables_number   1
_chemical_formula_structural   Cr29Fe25
_chemical_formula_sum   'Cr29 Fe25'
_cell_volume   606.57702581
_cell_formula_units_Z   1
loop_
 _symmetry_equiv_pos_site_id
 _symmetry_equiv_pos_as_xyz
  1  'x, y, z'
loop_
 _atom_site_type_symbol
 _atom_site_label
 _atom_site_symmetry_multiplicity
 _atom_site_fract_x
 _atom_site_fract_y
 _atom_site_fract_z
 _atom_site_occupancy
  Cr  Cr0  1  -0.00429325  0.99418243  0.99469136  1
  Cr  Cr1  1  0.16210892  0.16477569  0.16516575  1
  Cr  Cr2  1  -0.00348038  0.99334189  0.32759589  1
  Fe  Fe3  1  -0.00346903  0.32840415  -0.00297699  1
  Fe  Fe4  1  0.16106672  0.49600963  0.16290200  1
  Fe  Fe5  1  -0.00451323  0.32956855  0.33015196  1
  Cr  Cr6  1  -0.00000194  0.66283142  -0.00439285  1
  Fe  Fe7  1  0.16188611  0.82751901  0.16325475  1
  Fe  Fe8  1  -0.00489999  0.65907436  0.32954646  1
  Cr  Cr9  1  0.32596595  0.99457880  -0.00304652  1
  Fe  Fe10  1  0.49641364  0.16220104  0.16175121  1
  Fe  Fe11  1  0.32926008  -0.00396874  0.32915372  1
  Cr  Cr12  1  0.33065831  0.33020861  -0.00177672  1
  Cr  Cr13  1  0.49497676  0.49616869  0.16051912  1
  Fe  Fe14  1  0.32830205  0.32792713  0.32901253  1
  Fe  Fe15  1  0.32747338  0.66329297  -0.00380278  1
  Cr  Cr16  1  0.49599441  0.82911014  0.16267585  1
  Cr  Cr17  1  0.32489238  0.66047927  0.32676971  1
  Fe  Fe18  1  0.66052523  -0.00322951  -0.00320583  1
  Fe  Fe19  1  0.82775178  0.16274202  0.16074540  1
  Cr  Cr20  1  0.66123028  -0.00058137  0.32865088  1
  Fe  Fe21  1  0.66363764  0.32575430  -0.00325704  1
  Cr  Cr22  1  0.83018372  0.49533584  0.16341158  1
  Cr  Cr23  1  0.65960350  0.32866611  0.32939418  1
  Cr  Cr24  1  0.66172228  0.65869984  0.99415847  1
  Cr  Cr25  1  0.82639120  0.82707007  0.16324429  1
  Fe  Fe26  1  0.65953599  0.66060866  0.33042531  1
  Cr  Cr27  1  0.16340744  0.16368929  0.49710344  1
  Cr  Cr28  1  -0.00393378  0.99295856  0.66320840  1
  Cr  Cr29  1  0.16252888  0.16352359  0.82375673  1
  Fe  Fe30  1  0.16176133  0.49586763  0.49487173  1
  Fe  Fe31  1  0.99329667  0.32972377  0.65914441  1
  Cr  Cr32  1  0.16308834  0.49203539  0.82817489  1
  Fe  Fe33  1  0.16312434  0.82845526  0.49437147  1
  Cr  Cr34  1  -0.00194550  0.66242384  0.66128398  1
  Fe  Fe35  1  0.16435503  0.82736603  0.82763275  1
  Fe  Fe36  1  0.49336807  0.16163896  0.49525420  1
  Fe  Fe37  1  0.32962884  0.99271967  0.65984387  1
  Cr  Cr38  1  0.49266660  0.16110884  0.82953805  1
  Fe  Fe39  1  0.49155418  0.49473780  0.49352004  1
  Fe  Fe40  1  0.32931409  0.33100485  0.65924688  1
  Cr  Cr41  1  0.49347723  0.49653009  0.82888646  1
  Fe  Fe42  1  0.49118380  0.82923098  0.49364272  1
  Fe  Fe43  1  0.32829630  0.66202693  0.65886317  1
  Cr  Cr44  1  0.49433241  0.82751144  0.82745957  1
  Fe  Fe45  1  0.83046267  0.16249908  0.49484200  1
  Cr  Cr46  1  0.66219879  -0.00247917  0.66057891  1
  Cr  Cr47  1  0.83075048  0.16303287  0.83074826  1
  Fe  Fe48  1  0.83089028  0.49245025  0.49323562  1
  Cr  Cr49  1  0.65962016  0.32818304  0.66054309  1
  Cr  Cr50  1  0.82970606  0.49433641  0.82844692  1
  Cr  Cr51  1  0.82559016  0.82560568  0.49193132  1
  Cr  Cr52  1  0.66061324  0.65884327  0.65703528  1
  Cr  Cr53  1  0.82523376  0.82769711  0.82956656  1
" 