8170,Fe54Cr46_0,-215.323509908252, 175.50902593012,Fe54Cr46,"# generated using pymatgen
 data_Cr29Fe25
_symmetry_space_group_name_H-M   'P 1'
_cell_length_a   7.54372207
_cell_length_b   7.54372207
_cell_length_c   10.66843407
_cell_angle_alpha   90.00000000
_cell_angle_beta   90.00000000
_cell_angle_gamma   90.00000000
_symmetry_Int_Tables_number   1
_chemical_formula_structural   Cr29Fe25
_chemical_formula_sum   'Cr29 Fe25'
_cell_volume   607.11650140
_cell_formula_units_Z   1
loop_
 _symmetry_equiv_pos_site_id
 _symmetry_equiv_pos_as_xyz
  1  'x, y, z'
loop_
 _atom_site_type_symbol
 _atom_site_label
 _atom_site_symmetry_multiplicity
 _atom_site_fract_x
 _atom_site_fract_y
 _atom_site_fract_z
 _atom_site_occupancy
  Cr  Cr0  1  0.99350351  -0.00471522  -0.00317278  1
  Fe  Fe1  1  0.16203060  0.16112787  0.16111588  1
  Fe  Fe2  1  0.99444393  0.99467782  0.32780252  1
  Cr  Cr3  1  0.99350032  0.32807519  -0.00445798  1
  Fe  Fe4  1  0.16202426  0.49560726  0.16202899  1
  Cr  Cr5  1  0.99323005  0.32674640  0.32739987  1
  Cr  Cr6  1  -0.00478448  0.66139573  0.99396112  1
  Fe  Fe7  1  0.16157724  0.82801572  0.16238686  1
  Fe  Fe8  1  -0.00360732  0.66284443  0.32766666  1
  Fe  Fe9  1  0.32936285  -0.00374580  -0.00450917  1
  Fe  Fe10  1  0.49559085  0.16111216  0.16034421  1
  Cr  Cr11  1  0.32759263  0.99135310  0.32826814  1
  Fe  Fe12  1  0.32892252  0.32646802  -0.00415658  1
  Cr  Cr13  1  0.49445911  0.49421925  0.16233306  1
  Cr  Cr14  1  0.32876326  0.33090940  0.32624148  1
  Cr  Cr15  1  0.32836241  0.66257783  -0.00229269  1
  Cr  Cr16  1  0.49654287  0.82909274  0.16140228  1
  Fe  Fe17  1  0.32689866  0.66185091  0.32776732  1
  Fe  Fe18  1  0.66081231  -0.00431276  0.99390776  1
  Fe  Fe19  1  0.82712928  0.16066339  0.16159272  1
  Fe  Fe20  1  0.66295613  -0.00443691  0.32790796  1
  Fe  Fe21  1  0.66125577  0.32702546  0.99446574  1
  Cr  Cr22  1  0.82789739  0.49627971  0.16089184  1
  Cr  Cr23  1  0.66275723  0.32554083  0.32953798  1
  Fe  Fe24  1  0.66225766  0.66204178  0.99357375  1
  Cr  Cr25  1  0.82789191  0.82910836  0.16330940  1
  Fe  Fe26  1  0.66146777  0.66240662  0.32822037  1
  Cr  Cr27  1  0.16098382  0.15952583  0.49768693  1
  Cr  Cr28  1  0.99439744  0.99400621  0.66017431  1
  Cr  Cr29  1  0.16437493  0.16100443  0.82783851  1
  Cr  Cr30  1  0.16100111  0.49573459  0.49511612  1
  Cr  Cr31  1  0.99194404  0.32867620  0.66182435  1
  Cr  Cr32  1  0.15956385  0.49282354  0.82799495  1
  Fe  Fe33  1  0.16122826  0.82769116  0.49457651  1
  Fe  Fe34  1  0.99341495  0.66196387  0.66215232  1
  Cr  Cr35  1  0.16111283  0.83093048  0.82596672  1
  Cr  Cr36  1  0.49432842  0.16074075  0.49588366  1
  Fe  Fe37  1  0.32871803  0.99465110  0.66192927  1
  Fe  Fe38  1  0.49514264  0.16021712  0.82949327  1
  Cr  Cr39  1  0.49605361  0.49626439  0.49330644  1
  Cr  Cr40  1  0.32927385  0.32796626  0.66090534  1
  Cr  Cr41  1  0.49825370  0.49456642  0.82910748  1
  Cr  Cr42  1  0.49569010  0.82775163  0.49460937  1
  Cr  Cr43  1  0.32805078  0.66451593  0.65933009  1
  Fe  Fe44  1  0.49604553  0.82959352  0.82869606  1
  Fe  Fe45  1  0.82814045  0.16074412  0.49400108  1
  Cr  Cr46  1  0.66109372  -0.00478231  0.66285598  1
  Fe  Fe47  1  0.82658079  0.16168703  0.82916591  1
  Cr  Cr48  1  0.82769853  0.49709067  0.49630168  1
  Cr  Cr49  1  0.66353741  0.32747832  0.66112325  1
  Fe  Fe50  1  0.82755450  0.49584812  0.82825218  1
  Cr  Cr51  1  0.82891441  0.82777928  0.49254071  1
  Fe  Fe52  1  0.66307983  0.66195635  0.66295880  1
  Fe  Fe53  1  0.82655550  0.82721744  0.82824375  1
" 