5673,Fe54Cr46_17,-215.55862301386, 183.61833679928,Fe54Cr46,"# generated using pymatgen
 data_Cr29Fe25
_symmetry_space_group_name_H-M   'P 1'
_cell_length_a   7.53764099
_cell_length_b   7.53764099
_cell_length_c   10.65983411
_cell_angle_alpha   90.00000000
_cell_angle_beta   90.00000000
_cell_angle_gamma   90.00000000
_symmetry_Int_Tables_number   1
_chemical_formula_structural   Cr29Fe25
_chemical_formula_sum   'Cr29 Fe25'
_cell_volume   605.64947206
_cell_formula_units_Z   1
loop_
 _symmetry_equiv_pos_site_id
 _symmetry_equiv_pos_as_xyz
  1  'x, y, z'
loop_
 _atom_site_type_symbol
 _atom_site_label
 _atom_site_symmetry_multiplicity
 _atom_site_fract_x
 _atom_site_fract_y
 _atom_site_fract_z
 _atom_site_occupancy
  Cr  Cr0  1  -0.00189214  0.99392727  0.99347983  1
  Cr  Cr1  1  0.16166064  0.16606467  0.15998809  1
  Cr  Cr2  1  -0.00411913  0.99488508  0.32946323  1
  Fe  Fe3  1  -0.00457876  0.32951137  -0.00424036  1
  Fe  Fe4  1  0.15950624  0.49485144  0.16137883  1
  Fe  Fe5  1  0.99439451  0.33045668  0.32781769  1
  Fe  Fe6  1  0.99529816  0.66039877  -0.00330350  1
  Cr  Cr7  1  0.16430958  0.82603058  0.16314422  1
  Cr  Cr8  1  0.99364812  0.66297631  0.32722820  1
  Fe  Fe9  1  0.32995266  -0.00407837  -0.00346112  1
  Fe  Fe10  1  0.49581844  0.16045892  0.16022188  1
  Cr  Cr11  1  0.32772807  -0.00325824  0.32734458  1
  Fe  Fe12  1  0.32714359  0.32741168  0.99479151  1
  Cr  Cr13  1  0.49279038  0.49628279  0.16038446  1
  Cr  Cr14  1  0.33217027  0.32841334  0.32672229  1
  Cr  Cr15  1  0.32938137  0.66174927  -0.00359917  1
  Fe  Fe16  1  0.49576343  0.83094408  0.16141398  1
  Fe  Fe17  1  0.32935481  0.66162428  0.32747028  1
  Fe  Fe18  1  0.66039683  -0.00391021  -0.00381595  1
  Cr  Cr19  1  0.82719943  0.16310717  0.16328628  1
  Fe  Fe20  1  0.66002025  -0.00406379  0.32794001  1
  Cr  Cr21  1  0.65948795  0.33174131  0.99517471  1
  Fe  Fe22  1  0.83000041  0.49471562  0.16029051  1
  Fe  Fe23  1  0.66233092  0.32833311  0.32860484  1
  Fe  Fe24  1  0.66230307  0.66273574  -0.00414277  1
  Cr  Cr25  1  0.82518997  0.82963899  0.15951845  1
  Cr  Cr26  1  0.66199723  0.65868796  0.32678320  1
  Cr  Cr27  1  0.16135952  0.16473581  0.49694568  1
  Cr  Cr28  1  -0.00153790  0.99364487  0.66364680  1
  Fe  Fe29  1  0.16273724  0.16139078  0.82946673  1
  Cr  Cr30  1  0.16348968  0.49557499  0.49308913  1
  Fe  Fe31  1  0.99524678  0.33029181  0.66191362  1
  Cr  Cr32  1  0.16275936  0.49414546  0.83030257  1
  Cr  Cr33  1  0.16496161  0.82524329  0.49732753  1
  Fe  Fe34  1  -0.00386011  0.65945538  0.66236624  1
  Fe  Fe35  1  0.16308658  0.82758416  0.82843615  1
  Fe  Fe36  1  0.49471028  0.16129064  0.49507608  1
  Fe  Fe37  1  0.33080719  0.99487405  0.66259700  1
  Cr  Cr38  1  0.49494466  0.16042986  0.83041683  1
  Fe  Fe39  1  0.49508015  0.49528607  0.49408434  1
  Cr  Cr40  1  0.33151577  0.32875356  0.66438037  1
  Fe  Fe41  1  0.49569846  0.49571851  0.83032527  1
  Cr  Cr42  1  0.49495651  0.82785137  0.49429997  1
  Fe  Fe43  1  0.32878701  0.66129163  0.66357238  1
  Cr  Cr44  1  0.49499636  0.82861879  0.83016518  1
  Cr  Cr45  1  0.82659270  0.16366135  0.49421455  1
  Fe  Fe46  1  0.66002723  -0.00377379  0.66179582  1
  Cr  Cr47  1  0.82859404  0.16257142  0.82780702  1
  Fe  Fe48  1  0.82980662  0.49576605  0.49490571  1
  Cr  Cr49  1  0.65991362  0.33120520  0.65929007  1
  Cr  Cr50  1  0.83100610  0.49524011  0.83039988  1
  Cr  Cr51  1  0.82640110  0.82981623  0.49734451  1
  Cr  Cr52  1  0.66104362  0.65841120  0.66351031  1
  Cr  Cr53  1  0.82675243  0.82841834  0.82956901  1
" 