1297,Fe54Cr46_7,-215.372575865242, 181.09508249189,Fe54Cr46,"# generated using pymatgen
 data_Cr29Fe25
_symmetry_space_group_name_H-M   'P 1'
_cell_length_a   7.54518537
_cell_length_b   7.54518537
_cell_length_c   10.67050349
_cell_angle_alpha   90.00000000
_cell_angle_beta   90.00000000
_cell_angle_gamma   90.00000000
_symmetry_Int_Tables_number   1
_chemical_formula_structural   Cr29Fe25
_chemical_formula_sum   'Cr29 Fe25'
_cell_volume   607.46986766
_cell_formula_units_Z   1
loop_
 _symmetry_equiv_pos_site_id
 _symmetry_equiv_pos_as_xyz
  1  'x, y, z'
loop_
 _atom_site_type_symbol
 _atom_site_label
 _atom_site_symmetry_multiplicity
 _atom_site_fract_x
 _atom_site_fract_y
 _atom_site_fract_z
 _atom_site_occupancy
  Fe  Fe0  1  -0.00442042  0.99404034  0.99481108  1
  Cr  Cr1  1  0.16111127  0.15916714  0.15976155  1
  Fe  Fe2  1  -0.00513858  -0.00449426  0.32816548  1
  Cr  Cr3  1  -0.00487939  0.32903380  0.99420159  1
  Cr  Cr4  1  0.16431668  0.49486175  0.16306095  1
  Fe  Fe5  1  -0.00515239  0.32724239  0.32894520  1
  Cr  Cr6  1  0.99462810  0.66168325  0.99426710  1
  Fe  Fe7  1  0.16215637  0.82906209  0.16059649  1
  Cr  Cr8  1  -0.00387114  0.66003954  0.32884355  1
  Fe  Fe9  1  0.32859184  0.99349763  -0.00473176  1
  Fe  Fe10  1  0.49449105  0.16204462  0.16192492  1
  Cr  Cr11  1  0.32943708  -0.00351635  0.32662163  1
  Cr  Cr12  1  0.32906285  0.32653614  -0.00508110  1
  Fe  Fe13  1  0.49447868  0.49426285  0.16202184  1
  Fe  Fe14  1  0.32913749  0.32822973  0.32805605  1
  Fe  Fe15  1  0.32958171  0.66269197  -0.00462623  1
  Fe  Fe16  1  0.49304964  0.82816028  0.16070011  1
  Cr  Cr17  1  0.32664222  0.66053807  0.32702365  1
  Cr  Cr18  1  0.65862803  0.99409226  0.99337157  1
  Cr  Cr19  1  0.82916524  0.16152599  0.16376457  1
  Cr  Cr20  1  0.66036782  -0.00286463  0.33021466  1
  Cr  Cr21  1  0.66028075  0.32853265  0.99384168  1
  Cr  Cr22  1  0.82512633  0.49334455  0.16220549  1
  Fe  Fe23  1  0.66047622  0.32737544  0.32806081  1
  Cr  Cr24  1  0.66111798  0.66184267  0.99388770  1
  Cr  Cr25  1  0.82868040  0.82959589  0.16163686  1
  Cr  Cr26  1  0.66168889  0.66136304  0.32571961  1
  Cr  Cr27  1  0.15989557  0.16304423  0.49508303  1
  Fe  Fe28  1  0.99385509  0.99471701  0.66150340  1
  Cr  Cr29  1  0.16123742  0.16029466  0.82961724  1
  Fe  Fe30  1  0.16149322  0.49413384  0.49571530  1
  Fe  Fe31  1  0.99428232  0.32848035  0.66115950  1
  Cr  Cr32  1  0.16324143  0.49509622  0.82480973  1
  Cr  Cr33  1  0.16073584  0.82778785  0.49582444  1
  Fe  Fe34  1  -0.00474103  0.66126875  0.66193863  1
  Cr  Cr35  1  0.16205426  0.82907341  0.82939785  1
  Fe  Fe36  1  0.49578214  0.16315807  0.49482188  1
  Cr  Cr37  1  0.33020791  -0.00341985  0.66175502  1
  Fe  Fe38  1  0.49416597  0.16192005  0.82771429  1
  Cr  Cr39  1  0.49332008  0.49298339  0.49458312  1
  Fe  Fe40  1  0.32924269  0.32901444  0.66158688  1
  Fe  Fe41  1  0.49470905  0.49472152  0.82717056  1
  Cr  Cr42  1  0.49448565  0.82725461  0.49544090  1
  Fe  Fe43  1  0.32782367  0.66029093  0.66182355  1
  Fe  Fe44  1  0.49426942  0.82782499  0.82847811  1
  Fe  Fe45  1  0.82807051  0.16226762  0.49481281  1
  Cr  Cr46  1  0.66060697  -0.00392813  0.66088746  1
  Cr  Cr47  1  0.82876122  0.16145148  0.82767177  1
  Cr  Cr48  1  0.82806215  0.49214547  0.49451712  1
  Fe  Fe49  1  0.66093733  0.32761211  0.66203895  1
  Fe  Fe50  1  0.82793903  0.49527101  0.82683305  1
  Cr  Cr51  1  0.82924916  0.83044875  0.49537149  1
  Cr  Cr52  1  0.66312017  0.66184616  0.66485244  1
  Fe  Fe53  1  0.82882668  0.82774085  0.82771506  1
" 