3370,Fe54Cr46_18,-215.707274757052, 182.363742929113,Fe54Cr46,"# generated using pymatgen
 data_Cr29Fe25
_symmetry_space_group_name_H-M   'P 1'
_cell_length_a   7.53943332
_cell_length_b   7.53943332
_cell_length_c   10.66236886
_cell_angle_alpha   90.00000000
_cell_angle_beta   90.00000000
_cell_angle_gamma   90.00000000
_symmetry_Int_Tables_number   1
_chemical_formula_structural   Cr29Fe25
_chemical_formula_sum   'Cr29 Fe25'
_cell_volume   606.08161739
_cell_formula_units_Z   1
loop_
 _symmetry_equiv_pos_site_id
 _symmetry_equiv_pos_as_xyz
  1  'x, y, z'
loop_
 _atom_site_type_symbol
 _atom_site_label
 _atom_site_symmetry_multiplicity
 _atom_site_fract_x
 _atom_site_fract_y
 _atom_site_fract_z
 _atom_site_occupancy
  Cr  Cr0  1  -0.00236203  0.99415319  -0.00423918  1
  Fe  Fe1  1  0.16352421  0.16225665  0.16264910  1
  Cr  Cr2  1  -0.00332160  -0.00342858  0.32585338  1
  Cr  Cr3  1  0.99506258  0.32858273  -0.00152892  1
  Cr  Cr4  1  0.16512444  0.49493940  0.16517596  1
  Fe  Fe5  1  -0.00238101  0.32995989  0.32899467  1
  Fe  Fe6  1  -0.00255377  0.66237143  -0.00448528  1
  Fe  Fe7  1  0.16214338  0.82646897  0.16258588  1
  Fe  Fe8  1  -0.00281555  0.66210281  0.32930550  1
  Cr  Cr9  1  0.32681554  0.99246273  0.99435262  1
  Cr  Cr10  1  0.49266264  0.16242824  0.16136927  1
  Cr  Cr11  1  0.32909025  0.99343640  0.33033181  1
  Fe  Fe12  1  0.33024626  0.33000481  0.99490165  1
  Fe  Fe13  1  0.49484800  0.49494397  0.16275478  1
  Fe  Fe14  1  0.32859479  0.32854786  0.32880882  1
  Fe  Fe15  1  0.32677913  0.66061210  -0.00455008  1
  Cr  Cr16  1  0.49382370  0.82639869  0.16631985  1
  Fe  Fe17  1  0.32790114  0.66066716  0.33033228  1
  Cr  Cr18  1  0.66121513  0.99515919  -0.00289363  1
  Cr  Cr19  1  0.82791888  0.16188376  0.16263465  1
  Fe  Fe20  1  0.66065149  -0.00473688  0.32983815  1
  Fe  Fe21  1  0.65904472  0.32865817  0.99503686  1
  Cr  Cr22  1  0.82949657  0.49678952  0.16254323  1
  Cr  Cr23  1  0.66256295  0.32976654  0.32797255  1
  Cr  Cr24  1  0.65829242  0.65835607  0.99458611  1
  Cr  Cr25  1  0.82757415  0.82729519  0.16350935  1
  Fe  Fe26  1  0.66040970  0.66229498  0.32924468  1
  Cr  Cr27  1  0.16512343  0.16476331  0.49523836  1
  Fe  Fe28  1  -0.00377990  0.99474340  0.66184821  1
  Cr  Cr29  1  0.16441740  0.16202492  0.82709621  1
  Fe  Fe30  1  0.16215400  0.49632337  0.49344177  1
  Cr  Cr31  1  0.99486372  0.32979094  0.65768559  1
  Cr  Cr32  1  0.16298078  0.49536409  0.82748307  1
  Cr  Cr33  1  0.16199335  0.82828375  0.49811494  1
  Fe  Fe34  1  -0.00468479  0.66272792  0.66173590  1
  Fe  Fe35  1  0.16117237  0.82771393  0.82681116  1
  Fe  Fe36  1  0.49524715  0.16237751  0.49471520  1
  Fe  Fe37  1  0.32870352  -0.00314504  0.66142150  1
  Fe  Fe38  1  0.49534416  0.16435480  0.82844765  1
  Cr  Cr39  1  0.49322309  0.49560717  0.49435056  1
  Fe  Fe40  1  0.33158046  0.32787083  0.66149970  1
  Fe  Fe41  1  0.49469510  0.49227974  0.82775939  1
  Fe  Fe42  1  0.49515243  0.82842746  0.49443853  1
  Cr  Cr43  1  0.32910432  0.66188927  0.66165574  1
  Cr  Cr44  1  0.49400961  0.82877382  0.82713615  1
  Cr  Cr45  1  0.82900281  0.16132836  0.49366021  1
  Cr  Cr46  1  0.65948611  -0.00359051  0.65881375  1
  Cr  Cr47  1  0.82737880  0.16230407  0.82855077  1
  Cr  Cr48  1  0.82934836  0.49744861  0.49516374  1
  Fe  Fe49  1  0.65892162  0.32963673  0.66116605  1
  Cr  Cr50  1  0.82774516  0.49540797  0.82771092  1
  Cr  Cr51  1  0.82667643  0.82752450  0.49458720  1
  Fe  Fe52  1  0.66109615  0.66048294  0.66171796  1
  Cr  Cr53  1  0.82947065  0.82768555  0.82712013  1
" 