6913,Fe54Cr46_10,-215.533530408754, 180.298827981389,Fe54Cr46,"# generated using pymatgen
 data_Cr29Fe25
_symmetry_space_group_name_H-M   'P 1'
_cell_length_a   7.53643580
_cell_length_b   7.53643580
_cell_length_c   10.65812973
_cell_angle_alpha   90.00000000
_cell_angle_beta   90.00000000
_cell_angle_gamma   90.00000000
_symmetry_Int_Tables_number   1
_chemical_formula_structural   Cr29Fe25
_chemical_formula_sum   'Cr29 Fe25'
_cell_volume   605.35900935
_cell_formula_units_Z   1
loop_
 _symmetry_equiv_pos_site_id
 _symmetry_equiv_pos_as_xyz
  1  'x, y, z'
loop_
 _atom_site_type_symbol
 _atom_site_label
 _atom_site_symmetry_multiplicity
 _atom_site_fract_x
 _atom_site_fract_y
 _atom_site_fract_z
 _atom_site_occupancy
  Fe  Fe0  1  -0.00351653  0.99531404  -0.00397231  1
  Cr  Cr1  1  0.16122791  0.16216719  0.16321224  1
  Cr  Cr2  1  -0.00097816  0.99252380  0.32886240  1
  Cr  Cr3  1  0.99386931  0.32981389  -0.00378966  1
  Cr  Cr4  1  0.16344378  0.49565214  0.16371773  1
  Fe  Fe5  1  -0.00414920  0.33059850  0.32979526  1
  Cr  Cr6  1  -0.00420045  0.66308028  -0.00401838  1
  Fe  Fe7  1  0.16333428  0.82866101  0.15996524  1
  Fe  Fe8  1  0.99461612  0.66151317  0.32943025  1
  Fe  Fe9  1  0.32750922  0.99458542  -0.00286296  1
  Fe  Fe10  1  0.49394375  0.16121689  0.16196850  1
  Cr  Cr11  1  0.32828592  0.99537168  0.32815134  1
  Cr  Cr12  1  0.32989253  0.32541089  0.99240232  1
  Cr  Cr13  1  0.49417621  0.49915484  0.16071658  1
  Fe  Fe14  1  0.32964310  0.32766306  0.32999231  1
  Fe  Fe15  1  0.32944459  0.66420340  -0.00274228  1
  Fe  Fe16  1  0.49333124  0.82992000  0.16014873  1
  Cr  Cr17  1  0.32697627  0.66626112  0.32969092  1
  Cr  Cr18  1  0.65973111  -0.00297937  0.99443776  1
  Cr  Cr19  1  0.82960693  0.16097038  0.16307355  1
  Cr  Cr20  1  0.65864090  -0.00428312  0.33158954  1
  Cr  Cr21  1  0.66242804  0.32920478  -0.00367743  1
  Fe  Fe22  1  0.82999833  0.49664044  0.16262636  1
  Cr  Cr23  1  0.66293961  0.32983235  0.32620042  1
  Fe  Fe24  1  0.66220264  0.66216366  -0.00358564  1
  Cr  Cr25  1  0.82643717  0.82998205  0.16135518  1
  Cr  Cr26  1  0.66421057  0.66050073  0.33021039  1
  Fe  Fe27  1  0.16252477  0.16276565  0.49571470  1
  Fe  Fe28  1  0.99437969  0.99250899  0.66032738  1
  Cr  Cr29  1  0.15960888  0.16208789  0.82625036  1
  Cr  Cr30  1  0.16337794  0.49345068  0.49586425  1
  Fe  Fe31  1  -0.00395727  0.32897816  0.66069465  1
  Cr  Cr32  1  0.16425495  0.49504323  0.82610219  1
  Fe  Fe33  1  0.15935666  0.82938093  0.49637330  1
  Fe  Fe34  1  0.99476541  0.66370315  0.66095703  1
  Cr  Cr35  1  0.16160413  0.82938450  0.83142666  1
  Fe  Fe36  1  0.49355756  0.16407348  0.49569178  1
  Cr  Cr37  1  0.32810154  -0.00313727  0.65986405  1
  Fe  Fe38  1  0.49433203  0.16097101  0.82737871  1
  Fe  Fe39  1  0.49575051  0.49372144  0.49520869  1
  Fe  Fe40  1  0.32934456  0.32758557  0.66057857  1
  Cr  Cr41  1  0.49309671  0.49794560  0.82900909  1
  Fe  Fe42  1  0.49600397  0.82907222  0.49624220  1
  Cr  Cr43  1  0.32735850  0.66366661  0.66103657  1
  Cr  Cr44  1  0.49764815  0.82761214  0.83180128  1
  Cr  Cr45  1  0.83005172  0.15939537  0.49576915  1
  Fe  Fe46  1  0.66171429  0.99378747  0.66128607  1
  Cr  Cr47  1  0.82981416  0.15664365  0.82745235  1
  Fe  Fe48  1  0.83065466  0.49519372  0.49580300  1
  Cr  Cr49  1  0.66060858  0.32778994  0.66374688  1
  Cr  Cr50  1  0.82882320  0.49612623  0.82918043  1
  Fe  Fe51  1  0.83094171  0.82727319  0.49607666  1
  Cr  Cr52  1  0.66482668  0.66253358  0.66050250  1
  Fe  Fe53  1  0.82982129  0.82870983  0.82817329  1
" 