5928,Fe54Cr46_16,-215.543558756901, 181.891010778442,Fe54Cr46,"# generated using pymatgen
 data_Cr29Fe25
_symmetry_space_group_name_H-M   'P 1'
_cell_length_a   7.53971045
_cell_length_b   7.53971045
_cell_length_c   10.66276077
_cell_angle_alpha   90.00000000
_cell_angle_beta   90.00000000
_cell_angle_gamma   90.00000000
_symmetry_Int_Tables_number   1
_chemical_formula_structural   Cr29Fe25
_chemical_formula_sum   'Cr29 Fe25'
_cell_volume   606.14845267
_cell_formula_units_Z   1
loop_
 _symmetry_equiv_pos_site_id
 _symmetry_equiv_pos_as_xyz
  1  'x, y, z'
loop_
 _atom_site_type_symbol
 _atom_site_label
 _atom_site_symmetry_multiplicity
 _atom_site_fract_x
 _atom_site_fract_y
 _atom_site_fract_z
 _atom_site_occupancy
  Fe  Fe0  1  -0.00481044  0.99439620  0.99424007  1
  Cr  Cr1  1  0.15952249  0.16136394  0.15965077  1
  Cr  Cr2  1  0.99454741  -0.00290817  0.32734622  1
  Fe  Fe3  1  -0.00421716  0.32873034  -0.00373000  1
  Fe  Fe4  1  0.16237240  0.49562833  0.16138609  1
  Cr  Cr5  1  -0.00413893  0.32970596  0.32767672  1
  Cr  Cr6  1  -0.00281626  0.66141246  0.99342546  1
  Cr  Cr7  1  0.16270559  0.82812634  0.16423943  1
  Fe  Fe8  1  0.99500373  0.65974875  0.32792209  1
  Cr  Cr9  1  0.32612163  0.99447796  0.99447885  1
  Cr  Cr10  1  0.49418229  0.16241673  0.16067204  1
  Fe  Fe11  1  0.32786141  -0.00157999  0.32937483  1
  Fe  Fe12  1  0.32572900  0.33032990  0.99494044  1
  Cr  Cr13  1  0.49585013  0.49585097  0.15986419  1
  Cr  Cr14  1  0.32727239  0.32903820  0.33180798  1
  Fe  Fe15  1  0.32674566  0.66077961  0.99453930  1
  Cr  Cr16  1  0.49283760  0.82733634  0.16581908  1
  Fe  Fe17  1  0.32687307  0.65901452  0.32869096  1
  Cr  Cr18  1  0.66296873  0.99498744  0.99436805  1
  Fe  Fe19  1  0.82840690  0.16278378  0.15932016  1
  Cr  Cr20  1  0.66241725  -0.00367370  0.33140417  1
  Fe  Fe21  1  0.66385935  0.32844900  -0.00361149  1
  Fe  Fe22  1  0.83124003  0.49441678  0.16068078  1
  Cr  Cr23  1  0.66310144  0.32856889  0.32579720  1
  Cr  Cr24  1  0.66248863  0.66122915  -0.00474598  1
  Cr  Cr25  1  0.83006673  0.82784374  0.16351263  1
  Fe  Fe26  1  0.66415137  0.66046123  0.32856494  1
  Fe  Fe27  1  0.16044068  0.16336587  0.49605892  1
  Cr  Cr28  1  0.99437874  0.99423206  0.66398456  1
  Fe  Fe29  1  0.16180291  0.16468362  0.82939456  1
  Fe  Fe30  1  0.16165372  0.49578592  0.49658929  1
  Fe  Fe31  1  -0.00146093  0.32856935  0.66107529  1
  Fe  Fe32  1  0.16143254  0.49172967  0.82900990  1
  Cr  Cr33  1  0.16025278  0.82841056  0.49071917  1
  Fe  Fe34  1  -0.00335953  0.66178045  0.66253652  1
  Fe  Fe35  1  0.15978865  0.82883121  0.82886143  1
  Fe  Fe36  1  0.49464287  0.16198138  0.49547908  1
  Cr  Cr37  1  0.32753167  -0.00301183  0.66014325  1
  Cr  Cr38  1  0.49441850  0.16354687  0.82741140  1
  Cr  Cr39  1  0.49573928  0.49560041  0.49621235  1
  Fe  Fe40  1  0.32491404  0.32825594  0.66077768  1
  Cr  Cr41  1  0.49463940  0.49327614  0.83032159  1
  Cr  Cr42  1  0.49406785  0.82847808  0.49182370  1
  Cr  Cr43  1  0.32589586  0.66010606  0.66563334  1
  Cr  Cr44  1  0.49382687  0.82869796  0.82909034  1
  Fe  Fe45  1  0.82976171  0.16104088  0.49636868  1
  Fe  Fe46  1  0.66234772  -0.00470767  0.66074782  1
  Cr  Cr47  1  0.83106017  0.16274761  0.83056325  1
  Cr  Cr48  1  0.83142721  0.49550617  0.49552677  1
  Cr  Cr49  1  0.66108793  0.32697094  0.65969666  1
  Cr  Cr50  1  0.83024269  0.49345648  0.82717310  1
  Fe  Fe51  1  0.82917362  0.82819589  0.49506957  1
  Cr  Cr52  1  0.66389055  0.66466095  0.66322942  1
  Fe  Fe53  1  0.82985156  0.82866585  0.82865887  1
" 