7963,Fe54Cr46_13,-215.64909274109, 180.819174883949,Fe54Cr46,"# generated using pymatgen
 data_Cr29Fe25
_symmetry_space_group_name_H-M   'P 1'
_cell_length_a   7.54576727
_cell_length_b   7.54576727
_cell_length_c   10.67132642
_cell_angle_alpha   90.00000000
_cell_angle_beta   90.00000000
_cell_angle_gamma   90.00000000
_symmetry_Int_Tables_number   1
_chemical_formula_structural   Cr29Fe25
_chemical_formula_sum   'Cr29 Fe25'
_cell_volume   607.61042604
_cell_formula_units_Z   1
loop_
 _symmetry_equiv_pos_site_id
 _symmetry_equiv_pos_as_xyz
  1  'x, y, z'
loop_
 _atom_site_type_symbol
 _atom_site_label
 _atom_site_symmetry_multiplicity
 _atom_site_fract_x
 _atom_site_fract_y
 _atom_site_fract_z
 _atom_site_occupancy
  Cr  Cr0  1  0.99303609  0.99472279  -0.00225384  1
  Cr  Cr1  1  0.16505342  0.16144703  0.16298830  1
  Cr  Cr2  1  0.99080803  -0.00432076  0.32416832  1
  Cr  Cr3  1  -0.00444019  0.32733715  -0.00335930  1
  Fe  Fe4  1  0.16383163  0.49459973  0.16127974  1
  Cr  Cr5  1  0.99423133  0.32774951  0.32638586  1
  Fe  Fe6  1  -0.00469477  0.66162324  -0.00470793  1
  Cr  Cr7  1  0.16314996  0.82900109  0.16127718  1
  Cr  Cr8  1  -0.00424394  0.66098766  0.32561178  1
  Fe  Fe9  1  0.32793936  -0.00328939  0.99295694  1
  Cr  Cr10  1  0.49349535  0.16201098  0.15949215  1
  Fe  Fe11  1  0.33058778  0.99453506  0.32933236  1
  Fe  Fe12  1  0.32737007  0.32627198  0.99359263  1
  Cr  Cr13  1  0.49582224  0.49386283  0.16151711  1
  Fe  Fe14  1  0.32980661  0.32991427  0.32926141  1
  Cr  Cr15  1  0.32822137  0.66070064  -0.00520967  1
  Cr  Cr16  1  0.49488761  0.82834449  0.16285063  1
  Fe  Fe17  1  0.32949702  0.65995151  0.32935053  1
  Fe  Fe18  1  0.66124560  -0.00477640  -0.00481499  1
  Fe  Fe19  1  0.82413583  0.16092785  0.16113715  1
  Fe  Fe20  1  0.66007675  -0.00512093  0.32810799  1
  Fe  Fe21  1  0.66103919  0.32612458  0.99453679  1
  Cr  Cr22  1  0.82595852  0.49566856  0.15846764  1
  Fe  Fe23  1  0.66015798  0.32776947  0.32871575  1
  Fe  Fe24  1  0.66336145  0.66318371  -0.00474731  1
  Fe  Fe25  1  0.82513117  0.82838622  0.16058976  1
  Fe  Fe26  1  0.66076450  0.66176819  0.32932994  1
  Cr  Cr27  1  0.16445489  0.16089313  0.49286237  1
  Cr  Cr28  1  -0.00520731  -0.00482964  0.66264012  1
  Fe  Fe29  1  0.16346719  0.16138787  0.83011528  1
  Fe  Fe30  1  0.16247683  0.49497965  0.49340684  1
  Cr  Cr31  1  -0.00305253  0.32836968  0.66102314  1
  Fe  Fe32  1  0.16081979  0.49592377  0.82886144  1
  Cr  Cr33  1  0.16311642  0.82868681  0.49499211  1
  Fe  Fe34  1  -0.00235658  0.66067501  0.66195047  1
  Fe  Fe35  1  0.16056356  0.82693260  0.82914872  1
  Fe  Fe36  1  0.49503570  0.16031362  0.49267269  1
  Cr  Cr37  1  0.33058714  0.99463129  0.66444781  1
  Fe  Fe38  1  0.49456069  0.16121993  0.83083268  1
  Fe  Fe39  1  0.49316835  0.49429073  0.49150197  1
  Cr  Cr40  1  0.32904728  0.32929701  0.66296853  1
  Cr  Cr41  1  0.49655606  0.49261813  0.83221585  1
  Fe  Fe42  1  0.49534606  0.82975502  0.49213814  1
  Cr  Cr43  1  0.32884637  0.66043181  0.65939704  1
  Cr  Cr44  1  0.49445433  0.83027602  0.82970339  1
  Cr  Cr45  1  0.82658338  0.16163437  0.49436651  1
  Fe  Fe46  1  0.65887402  -0.00456301  0.66099824  1
  Cr  Cr47  1  0.82619677  0.16221726  0.82676058  1
  Cr  Cr48  1  0.82745807  0.49518825  0.49783612  1
  Cr  Cr49  1  0.65840218  0.32647918  0.66072723  1
  Cr  Cr50  1  0.82877540  0.49640503  0.82716142  1
  Cr  Cr51  1  0.82761376  0.82758828  0.49695874  1
  Cr  Cr52  1  0.65701525  0.66256611  0.65984239  1
  Cr  Cr53  1  0.82929504  0.82557913  0.82694131  1
" 