6731,Fe54Cr46_11,-215.595933489125, 180.864221586882,Fe54Cr46,"# generated using pymatgen
 data_Cr29Fe25
_symmetry_space_group_name_H-M   'P 1'
_cell_length_a   7.53860987
_cell_length_b   7.53860987
_cell_length_c   10.66120432
_cell_angle_alpha   90.00000000
_cell_angle_beta   90.00000000
_cell_angle_gamma   90.00000000
_symmetry_Int_Tables_number   1
_chemical_formula_structural   Cr29Fe25
_chemical_formula_sum   'Cr29 Fe25'
_cell_volume   605.88305141
_cell_formula_units_Z   1
loop_
 _symmetry_equiv_pos_site_id
 _symmetry_equiv_pos_as_xyz
  1  'x, y, z'
loop_
 _atom_site_type_symbol
 _atom_site_label
 _atom_site_symmetry_multiplicity
 _atom_site_fract_x
 _atom_site_fract_y
 _atom_site_fract_z
 _atom_site_occupancy
  Cr  Cr0  1  0.99451195  -0.00252752  -0.00452947  1
  Fe  Fe1  1  0.16199391  0.16232322  0.16246658  1
  Cr  Cr2  1  0.99394790  -0.00261460  0.32679843  1
  Fe  Fe3  1  0.99441621  0.33017497  -0.00445432  1
  Cr  Cr4  1  0.16016913  0.49462860  0.16314952  1
  Cr  Cr5  1  0.99516564  0.32835360  0.32721031  1
  Cr  Cr6  1  -0.00320718  0.66210001  -0.00372955  1
  Fe  Fe7  1  0.16214602  0.82848799  0.16348914  1
  Fe  Fe8  1  0.99515649  0.66297302  0.32654298  1
  Cr  Cr9  1  0.32763792  0.99272685  -0.00095736  1
  Cr  Cr10  1  0.49284299  0.16195908  0.16254840  1
  Fe  Fe11  1  0.32899932  0.99410217  0.32779782  1
  Cr  Cr12  1  0.32779730  0.33244294  -0.00419582  1
  Fe  Fe13  1  0.49630695  0.49369309  0.16370949  1
  Fe  Fe14  1  0.33108131  0.32874413  0.32831040  1
  Cr  Cr15  1  0.32991809  0.66045883  0.99286485  1
  Fe  Fe16  1  0.49561644  0.82822446  0.16364539  1
  Cr  Cr17  1  0.33139176  0.66027344  0.32817490  1
  Cr  Cr18  1  0.66340700  0.99458159  0.99357732  1
  Cr  Cr19  1  0.82614800  0.16508926  0.15873136  1
  Cr  Cr20  1  0.66207386  0.99434580  0.33130271  1
  Fe  Fe21  1  0.66120233  0.32975696  -0.00451358  1
  Fe  Fe22  1  0.82649097  0.49588789  0.16323173  1
  Fe  Fe23  1  0.66011626  0.32953610  0.32858271  1
  Cr  Cr24  1  0.65908903  0.66062909  -0.00016088  1
  Fe  Fe25  1  0.82863332  0.82750268  0.16326806  1
  Fe  Fe26  1  0.66246233  0.66056474  0.32655678  1
  Cr  Cr27  1  0.16741152  0.16288333  0.49144109  1
  Cr  Cr28  1  0.99391800  -0.00082800  0.66280957  1
  Cr  Cr29  1  0.16461881  0.16252927  0.83193144  1
  Fe  Fe30  1  0.16285791  0.49539236  0.49457018  1
  Cr  Cr31  1  -0.00403743  0.32838847  0.66183692  1
  Fe  Fe32  1  0.16116745  0.49489958  0.82821917  1
  Cr  Cr33  1  0.16066663  0.82685334  0.49611375  1
  Fe  Fe34  1  -0.00425061  0.66029313  0.66263012  1
  Fe  Fe35  1  0.16104991  0.82821035  0.82799237  1
  Fe  Fe36  1  0.49716559  0.16448498  0.49440114  1
  Cr  Cr37  1  0.32949527  0.99357362  0.66051464  1
  Cr  Cr38  1  0.49540871  0.16406236  0.82838666  1
  Fe  Fe39  1  0.49392108  0.49310952  0.49443795  1
  Fe  Fe40  1  0.33012526  0.32815692  0.66120283  1
  Fe  Fe41  1  0.49665170  0.49341894  0.82838309  1
  Fe  Fe42  1  0.49406226  0.82735853  0.49466390  1
  Cr  Cr43  1  0.32773351  0.65711055  0.66545919  1
  Cr  Cr44  1  0.49534657  0.83036608  0.82912631  1
  Fe  Fe45  1  0.82871033  0.16389397  0.49437057  1
  Cr  Cr46  1  0.66366000  -0.00200772  0.65984493  1
  Fe  Fe47  1  0.82798522  0.16417678  0.82953136  1
  Cr  Cr48  1  0.82900908  0.49669336  0.49229257  1
  Fe  Fe49  1  0.66113838  0.32973257  0.66048692  1
  Cr  Cr50  1  0.82784082  0.49508328  0.83078013  1
  Cr  Cr51  1  0.82959670  0.82494063  0.49552017  1
  Cr  Cr52  1  0.65758103  0.66100173  0.66054544  1
  Cr  Cr53  1  0.82934638  0.82549897  0.82678499  1
" 