3491,Fe54Cr46_5,-215.399588369481, 184.510186641555,Fe54Cr46,"# generated using pymatgen
 data_Cr29Fe25
_symmetry_space_group_name_H-M   'P 1'
_cell_length_a   7.53480264
_cell_length_b   7.53480264
_cell_length_c   10.65582009
_cell_angle_alpha   90.00000000
_cell_angle_beta   90.00000000
_cell_angle_gamma   90.00000000
_symmetry_Int_Tables_number   1
_chemical_formula_structural   Cr29Fe25
_chemical_formula_sum   'Cr29 Fe25'
_cell_volume   604.96554724
_cell_formula_units_Z   1
loop_
 _symmetry_equiv_pos_site_id
 _symmetry_equiv_pos_as_xyz
  1  'x, y, z'
loop_
 _atom_site_type_symbol
 _atom_site_label
 _atom_site_symmetry_multiplicity
 _atom_site_fract_x
 _atom_site_fract_y
 _atom_site_fract_z
 _atom_site_occupancy
  Fe  Fe0  1  -0.00246442  0.99513572  0.99482900  1
  Fe  Fe1  1  0.16089300  0.16237631  0.16128960  1
  Fe  Fe2  1  -0.00269093  0.99410585  0.32772972  1
  Fe  Fe3  1  -0.00172959  0.32701300  -0.00316525  1
  Fe  Fe4  1  0.16113622  0.49433830  0.16162241  1
  Fe  Fe5  1  -0.00299313  0.33043418  0.32771954  1
  Fe  Fe6  1  0.99538390  0.66365646  0.99534178  1
  Fe  Fe7  1  0.16048545  0.82997697  0.16220265  1
  Cr  Cr8  1  -0.00281780  0.66287185  0.32924726  1
  Cr  Cr9  1  0.32754980  -0.00129086  0.99430537  1
  Fe  Fe10  1  0.49649032  0.16146470  0.16241090  1
  Cr  Cr11  1  0.32739601  0.99450817  0.32754576  1
  Fe  Fe12  1  0.32761600  0.32821773  -0.00237500  1
  Fe  Fe13  1  0.49561417  0.49599491  0.16196328  1
  Cr  Cr14  1  0.33070021  0.32848341  0.32367031  1
  Cr  Cr15  1  0.32607873  0.66235767  0.00128655  1
  Fe  Fe16  1  0.49520803  0.82900973  0.16268848  1
  Fe  Fe17  1  0.32856254  0.66203312  0.32561687  1
  Cr  Cr18  1  0.66098309  -0.00350295  0.99411902  1
  Cr  Cr19  1  0.83154449  0.16073653  0.16677213  1
  Fe  Fe20  1  0.66075133  0.99467754  0.32687480  1
  Cr  Cr21  1  0.65924639  0.32930777  -0.00315533  1
  Cr  Cr22  1  0.83091627  0.49423514  0.15998018  1
  Fe  Fe23  1  0.66197707  0.32942271  0.32802457  1
  Fe  Fe24  1  0.66122419  0.66274095  -0.00386164  1
  Cr  Cr25  1  0.82795551  0.83131574  0.15767976  1
  Cr  Cr26  1  0.66424038  0.65952351  0.32734087  1
  Cr  Cr27  1  0.15918237  0.16346846  0.49571196  1
  Cr  Cr28  1  -0.00231361  0.99208513  0.66377310  1
  Fe  Fe29  1  0.16198852  0.16222608  0.83078774  1
  Cr  Cr30  1  0.16385776  0.49506927  0.49626968  1
  Fe  Fe31  1  0.99528042  0.32780683  0.66232039  1
  Cr  Cr32  1  0.16250549  0.49333206  0.83074571  1
  Fe  Fe33  1  0.16279486  0.82878100  0.49486128  1
  Cr  Cr34  1  0.99426370  0.66175896  0.66114905  1
  Fe  Fe35  1  0.16070478  0.82719924  0.83093383  1
  Cr  Cr36  1  0.49657493  0.16071367  0.49446635  1
  Cr  Cr37  1  0.32695214  -0.00424332  0.66467170  1
  Fe  Fe38  1  0.49539410  0.16396403  0.82997765  1
  Cr  Cr39  1  0.49266389  0.49881569  0.49711821  1
  Cr  Cr40  1  0.32997122  0.32597712  0.66668846  1
  Cr  Cr41  1  0.49367259  0.49893489  0.82896025  1
  Cr  Cr42  1  0.49301584  0.82664641  0.49566635  1
  Fe  Fe43  1  0.32655777  0.66352719  0.66292072  1
  Cr  Cr44  1  0.49634438  0.82663187  0.82698582  1
  Cr  Cr45  1  0.83122836  0.16297243  0.48951559  1
  Cr  Cr46  1  0.66207893  -0.00245081  0.66410310  1
  Cr  Cr47  1  0.83325218  0.16106765  0.82980833  1
  Fe  Fe48  1  0.82906250  0.49490914  0.49477868  1
  Cr  Cr49  1  0.66350321  0.33053234  0.65985143  1
  Cr  Cr50  1  0.82949235  0.49617402  0.82973146  1
  Cr  Cr51  1  0.82645117  0.83238928  0.49500160  1
  Fe  Fe52  1  0.66314843  0.66292369  0.66176686  1
  Fe  Fe53  1  0.83032300  0.82685202  0.83093965  1
" 