6349,Fe54Cr46_4,-215.509038884475, 178.225171415775,Fe54Cr46,"# generated using pymatgen
 data_Cr29Fe25
_symmetry_space_group_name_H-M   'P 1'
_cell_length_a   7.54805098
_cell_length_b   7.54805098
_cell_length_c   10.67455606
_cell_angle_alpha   90.00000000
_cell_angle_beta   90.00000000
_cell_angle_gamma   90.00000000
_symmetry_Int_Tables_number   1
_chemical_formula_structural   Cr29Fe25
_chemical_formula_sum   'Cr29 Fe25'
_cell_volume   608.16226810
_cell_formula_units_Z   1
loop_
 _symmetry_equiv_pos_site_id
 _symmetry_equiv_pos_as_xyz
  1  'x, y, z'
loop_
 _atom_site_type_symbol
 _atom_site_label
 _atom_site_symmetry_multiplicity
 _atom_site_fract_x
 _atom_site_fract_y
 _atom_site_fract_z
 _atom_site_occupancy
  Cr  Cr0  1  -0.00513939  -0.00524348  -0.00375471  1
  Fe  Fe1  1  0.16146236  0.16341086  0.16193198  1
  Cr  Cr2  1  -0.00227702  -0.00306568  0.32556066  1
  Cr  Cr3  1  0.99424390  0.32739926  0.99270293  1
  Cr  Cr4  1  0.16363939  0.49573417  0.16143161  1
  Fe  Fe5  1  -0.00379641  0.32707266  0.32845469  1
  Fe  Fe6  1  0.99417302  0.66014357  0.99271883  1
  Cr  Cr7  1  0.16273950  0.82305525  0.16182575  1
  Cr  Cr8  1  0.99273428  0.66223266  0.33071567  1
  Cr  Cr9  1  0.32782569  0.99355899  -0.00366706  1
  Cr  Cr10  1  0.49588176  0.16254817  0.16071708  1
  Cr  Cr11  1  0.32646632  -0.00481716  0.32867728  1
  Cr  Cr12  1  0.32951129  0.32967943  0.99456369  1
  Fe  Fe13  1  0.49463556  0.49716826  0.16048415  1
  Fe  Fe14  1  0.32764358  0.32839922  0.32838138  1
  Fe  Fe15  1  0.33003397  0.66081994  0.99349105  1
  Fe  Fe16  1  0.49467732  0.82480599  0.16027296  1
  Fe  Fe17  1  0.32998765  0.66113977  0.32893428  1
  Fe  Fe18  1  0.66058615  0.99369077  0.99296442  1
  Cr  Cr19  1  0.82495170  0.16199393  0.16028369  1
  Cr  Cr20  1  0.65933944  0.99226440  0.32692984  1
  Fe  Fe21  1  0.66131977  0.32935591  0.99299908  1
  Cr  Cr22  1  0.82869115  0.49472887  0.16305225  1
  Cr  Cr23  1  0.65919533  0.33166341  0.32942771  1
  Fe  Fe24  1  0.65982568  0.66082954  0.99322771  1
  Cr  Cr25  1  0.82620381  0.82713994  0.15897984  1
  Cr  Cr26  1  0.65753183  0.65983431  0.32980360  1
  Fe  Fe27  1  0.16241508  0.16139753  0.49484686  1
  Cr  Cr28  1  -0.00349366  -0.00536227  0.66116577  1
  Cr  Cr29  1  0.16388275  0.16146237  0.82640564  1
  Cr  Cr30  1  0.16210394  0.49568211  0.49384698  1
  Cr  Cr31  1  0.99354513  0.32849937  0.66275115  1
  Fe  Fe32  1  0.16203874  0.49528806  0.82902107  1
  Fe  Fe33  1  0.16336579  0.82897767  0.49523382  1
  Cr  Cr34  1  0.99236199  0.66059078  0.66303649  1
  Cr  Cr35  1  0.16179814  0.82365051  0.82714439  1
  Fe  Fe36  1  0.49273427  0.16067055  0.49524694  1
  Fe  Fe37  1  0.33019853  0.99365452  0.65922641  1
  Cr  Cr38  1  0.49881808  0.15965644  0.82554585  1
  Fe  Fe39  1  0.49376491  0.49438664  0.49422725  1
  Cr  Cr40  1  0.32925713  0.32753365  0.66123306  1
  Fe  Fe41  1  0.49495712  0.49664407  0.82972605  1
  Fe  Fe42  1  0.49251503  0.82896606  0.49517566  1
  Cr  Cr43  1  0.33083998  0.66227949  0.66156524  1
  Fe  Fe44  1  0.49651928  0.82754675  0.82882682  1
  Cr  Cr45  1  0.82480149  0.16176430  0.49473630  1
  Fe  Fe46  1  0.65990446  0.99348363  0.66133772  1
  Fe  Fe47  1  0.82688373  0.15992184  0.82851351  1
  Fe  Fe48  1  0.82803773  0.49380918  0.49454788  1
  Cr  Cr49  1  0.66109892  0.33120369  0.66162057  1
  Fe  Fe50  1  0.82675422  0.49552007  0.83012415  1
  Cr  Cr51  1  0.82745021  0.82835792  0.49518339  1
  Cr  Cr52  1  0.66056327  0.66039768  0.65951034  1
  Fe  Fe53  1  0.82504034  0.82871870  0.82933462  1
" 