834,Fe54Cr46_6,-215.478164621664, 179.065976675891,Fe54Cr46,"# generated using pymatgen
 data_Cr29Fe25
_symmetry_space_group_name_H-M   'P 1'
_cell_length_a   7.54512534
_cell_length_b   7.54512534
_cell_length_c   10.67041859
_cell_angle_alpha   90.00000000
_cell_angle_beta   90.00000000
_cell_angle_gamma   90.00000000
_symmetry_Int_Tables_number   1
_chemical_formula_structural   Cr29Fe25
_chemical_formula_sum   'Cr29 Fe25'
_cell_volume   607.45536800
_cell_formula_units_Z   1
loop_
 _symmetry_equiv_pos_site_id
 _symmetry_equiv_pos_as_xyz
  1  'x, y, z'
loop_
 _atom_site_type_symbol
 _atom_site_label
 _atom_site_symmetry_multiplicity
 _atom_site_fract_x
 _atom_site_fract_y
 _atom_site_fract_z
 _atom_site_occupancy
  Fe  Fe0  1  0.99465096  0.99268228  -0.00424579  1
  Fe  Fe1  1  0.16039879  0.15943412  0.16158520  1
  Cr  Cr2  1  0.99264259  0.99421208  0.32981567  1
  Fe  Fe3  1  0.99333119  0.32963049  -0.00410809  1
  Fe  Fe4  1  0.15851488  0.49656470  0.16068019  1
  Cr  Cr5  1  -0.00325452  0.32873042  0.32871858  1
  Fe  Fe6  1  -0.00484245  0.66254530  -0.00456680  1
  Fe  Fe7  1  0.15906038  0.82803112  0.16192105  1
  Fe  Fe8  1  -0.00506035  0.66157887  0.32663495  1
  Cr  Cr9  1  0.32809007  -0.00327447  -0.00459283  1
  Fe  Fe10  1  0.49597214  0.16054965  0.16297361  1
  Fe  Fe11  1  0.32803857  -0.00513001  0.32730344  1
  Cr  Cr12  1  0.32664748  0.32668835  -0.00230066  1
  Cr  Cr13  1  0.49767762  0.49441966  0.16234353  1
  Cr  Cr14  1  0.32658791  0.32660476  0.32557077  1
  Cr  Cr15  1  0.32896444  0.66153433  0.99339987  1
  Cr  Cr16  1  0.49370521  0.82984725  0.16392541  1
  Cr  Cr17  1  0.32923156  0.65955413  0.32975038  1
  Cr  Cr18  1  0.66144770  0.99284134  0.99331770  1
  Cr  Cr19  1  0.82633204  0.16203592  0.16180751  1
  Fe  Fe20  1  0.66133977  -0.00423084  0.32843684  1
  Fe  Fe21  1  0.66164568  0.32822158  0.99457350  1
  Fe  Fe22  1  0.83005925  0.49587602  0.16133265  1
  Fe  Fe23  1  0.66225458  0.32780375  0.32772063  1
  Cr  Cr24  1  0.66529405  0.66192878  0.99369155  1
  Fe  Fe25  1  0.83017369  0.82741200  0.16139483  1
  Cr  Cr26  1  0.66441323  0.66412105  0.32920002  1
  Cr  Cr27  1  0.16120121  0.15920097  0.49534714  1
  Cr  Cr28  1  0.99229597  0.99434526  0.66108206  1
  Cr  Cr29  1  0.15845995  0.15998244  0.82885457  1
  Cr  Cr30  1  0.16253377  0.49795125  0.49621552  1
  Cr  Cr31  1  0.99452361  0.32731715  0.65932131  1
  Cr  Cr32  1  0.16059797  0.49724076  0.82689617  1
  Cr  Cr33  1  0.16313926  0.82742276  0.49571111  1
  Cr  Cr34  1  0.99126120  0.66263556  0.66180511  1
  Fe  Fe35  1  0.16016045  0.82804632  0.82875081  1
  Cr  Cr36  1  0.49849596  0.16102680  0.49204734  1
  Cr  Cr37  1  0.32977044  0.99472032  0.66433477  1
  Fe  Fe38  1  0.49544370  0.16254802  0.82823248  1
  Fe  Fe39  1  0.49523274  0.49508142  0.49518030  1
  Cr  Cr40  1  0.32839114  0.32843139  0.66033806  1
  Cr  Cr41  1  0.49666935  0.49469273  0.82544596  1
  Fe  Fe42  1  0.49512976  0.82796428  0.49416317  1
  Fe  Fe43  1  0.32925274  0.66391480  0.66166566  1
  Fe  Fe44  1  0.49396011  0.82877042  0.82837585  1
  Fe  Fe45  1  0.82655862  0.16056100  0.49381757  1
  Cr  Cr46  1  0.66248772  0.99194234  0.66085357  1
  Cr  Cr47  1  0.82645043  0.16309464  0.82703385  1
  Cr  Cr48  1  0.82596702  0.49256252  0.49448632  1
  Fe  Fe49  1  0.66169728  0.32728569  0.66087563  1
  Fe  Fe50  1  0.82910174  0.49418092  0.82880766  1
  Fe  Fe51  1  0.82740063  0.82895410  0.49382939  1
  Cr  Cr52  1  0.66047242  0.66325696  0.66166141  1
  Fe  Fe53  1  0.83062960  0.82725774  0.82918469  1
" 