8232,Fe56Cr44_8,-215.214795517001, 179.025783869167,Fe56Cr44,"# generated using pymatgen
 data_Cr5Fe4
_symmetry_space_group_name_H-M   'P 1'
_cell_length_a   7.54743078
_cell_length_b   7.54743078
_cell_length_c   10.67367897
_cell_angle_alpha   90.00000000
_cell_angle_beta   90.00000000
_cell_angle_gamma   90.00000000
_symmetry_Int_Tables_number   1
_chemical_formula_structural   Cr5Fe4
_chemical_formula_sum   'Cr30 Fe24'
_cell_volume   608.01236779
_cell_formula_units_Z   6
loop_
 _symmetry_equiv_pos_site_id
 _symmetry_equiv_pos_as_xyz
  1  'x, y, z'
loop_
 _atom_site_type_symbol
 _atom_site_label
 _atom_site_symmetry_multiplicity
 _atom_site_fract_x
 _atom_site_fract_y
 _atom_site_fract_z
 _atom_site_occupancy
  Fe  Fe0  1  0.99467072  0.99278766  -0.00396894  1
  Cr  Cr1  1  0.15976752  0.16233779  0.16265236  1
  Fe  Fe2  1  0.99318003  0.99216581  0.32880653  1
  Cr  Cr3  1  0.99337357  0.33259374  0.99332949  1
  Fe  Fe4  1  0.15972760  0.49700321  0.16161616  1
  Cr  Cr5  1  0.99126031  0.33157388  0.32802273  1
  Fe  Fe6  1  -0.00342654  0.66285349  -0.00340469  1
  Fe  Fe7  1  0.15803250  0.82638779  0.16064895  1
  Fe  Fe8  1  0.99252229  0.66350697  0.32802688  1
  Cr  Cr9  1  0.32782787  0.99151177  -0.00374961  1
  Fe  Fe10  1  0.49455200  0.16144600  0.16269977  1
  Cr  Cr11  1  0.32928535  0.99360680  0.32716514  1
  Cr  Cr12  1  0.32739810  0.32791267  -0.00502924  1
  Cr  Cr13  1  0.49377028  0.49582606  0.16324058  1
  Fe  Fe14  1  0.32862809  0.32784734  0.32795536  1
  Fe  Fe15  1  0.32530800  0.65963563  -0.00442783  1
  Cr  Cr16  1  0.49735659  0.82570793  0.15995194  1
  Cr  Cr17  1  0.32455441  0.66463254  0.32789507  1
  Cr  Cr18  1  0.65986189  -0.00412153  -0.00451479  1
  Cr  Cr19  1  0.83038284  0.15841751  0.16031244  1
  Fe  Fe20  1  0.66310457  0.99365726  0.32834144  1
  Cr  Cr21  1  0.66309598  0.32743671  -0.00367417  1
  Fe  Fe22  1  0.82951710  0.49794241  0.16196655  1
  Cr  Cr23  1  0.66220224  0.32701614  0.32697554  1
  Cr  Cr24  1  0.66396246  0.66061353  -0.00524306  1
  Fe  Fe25  1  0.83062251  0.82650238  0.16247329  1
  Fe  Fe26  1  0.66412236  0.66183035  0.32838053  1
  Cr  Cr27  1  0.15926249  0.16151504  0.49515478  1
  Fe  Fe28  1  0.99319774  0.99342988  0.65895042  1
  Cr  Cr29  1  0.15911665  0.16238687  0.82615033  1
  Cr  Cr30  1  0.16383426  0.49235169  0.49406962  1
  Cr  Cr31  1  0.99211190  0.32978200  0.66251235  1
  Fe  Fe32  1  0.16144752  0.49596947  0.82829173  1
  Fe  Fe33  1  0.15934461  0.82844699  0.49402188  1
  Cr  Cr34  1  0.99465994  0.66131696  0.65963256  1
  Cr  Cr35  1  0.15957591  0.82861694  0.83017879  1
  Fe  Fe36  1  0.49508380  0.16190703  0.49451947  1
  Cr  Cr37  1  0.32867118  0.99316679  0.66094490  1
  Cr  Cr38  1  0.49435719  0.16169388  0.82792520  1
  Fe  Fe39  1  0.49549599  0.49358054  0.49435182  1
  Fe  Fe40  1  0.32833178  0.32856462  0.66060763  1
  Cr  Cr41  1  0.49310530  0.49670970  0.82585834  1
  Cr  Cr42  1  0.49938450  0.82469989  0.49620774  1
  Cr  Cr43  1  0.32612536  0.66314685  0.66271272  1
  Cr  Cr44  1  0.49711494  0.82521300  0.82806695  1
  Fe  Fe45  1  0.82686799  0.15876713  0.49438373  1
  Fe  Fe46  1  0.66344328  0.99430054  0.65966890  1
  Cr  Cr47  1  0.83068921  0.15802663  0.82761967  1
  Fe  Fe48  1  0.82627974  0.49689644  0.49412517  1
  Cr  Cr49  1  0.66287906  0.32739995  0.66057869  1
  Cr  Cr50  1  0.82714691  0.49673397  0.82885359  1
  Fe  Fe51  1  0.82975525  0.82874703  0.49397290  1
  Fe  Fe52  1  0.66313007  0.66101261  0.65961738  1
  Cr  Cr53  1  0.82736597  0.82942486  0.82701347  1
" 