5408,Fe56Cr44_10,-214.899580279572, 182.22941427773,Fe56Cr44,"# generated using pymatgen
 data_Cr5Fe4
_symmetry_space_group_name_H-M   'P 1'
_cell_length_a   7.54297724
_cell_length_b   7.54297724
_cell_length_c   10.66738071
_cell_angle_alpha   90.00000000
_cell_angle_beta   90.00000000
_cell_angle_gamma   90.00000000
_symmetry_Int_Tables_number   1
_chemical_formula_structural   Cr5Fe4
_chemical_formula_sum   'Cr30 Fe24'
_cell_volume   606.93668721
_cell_formula_units_Z   6
loop_
 _symmetry_equiv_pos_site_id
 _symmetry_equiv_pos_as_xyz
  1  'x, y, z'
loop_
 _atom_site_type_symbol
 _atom_site_label
 _atom_site_symmetry_multiplicity
 _atom_site_fract_x
 _atom_site_fract_y
 _atom_site_fract_z
 _atom_site_occupancy
  Fe  Fe0  1  0.99348291  0.99146933  -0.00429414  1
  Cr  Cr1  1  0.16024860  0.16278239  0.15930233  1
  Cr  Cr2  1  -0.00336945  0.99455112  0.32879366  1
  Fe  Fe3  1  0.99257115  0.32923748  0.99427217  1
  Cr  Cr4  1  0.16179843  0.49677094  0.16312679  1
  Cr  Cr5  1  -0.00412446  0.32722974  0.33062397  1
  Fe  Fe6  1  -0.00456373  0.66406879  0.99490468  1
  Fe  Fe7  1  0.15949821  0.82753774  0.16171747  1
  Fe  Fe8  1  -0.00423663  0.66396906  0.32828003  1
  Cr  Cr9  1  0.32613882  0.99372550  -0.00477649  1
  Cr  Cr10  1  0.49676119  0.16120969  0.16047467  1
  Cr  Cr11  1  0.32756547  0.99376188  0.32646626  1
  Cr  Cr12  1  0.32773905  0.32690396  0.99354678  1
  Cr  Cr13  1  0.49314646  0.49450561  0.16366340  1
  Fe  Fe14  1  0.32902678  0.32707599  0.33005960  1
  Cr  Cr15  1  0.32952896  0.66461145  -0.00369207  1
  Fe  Fe16  1  0.49514338  0.82825425  0.16256998  1
  Fe  Fe17  1  0.32768512  0.66336700  0.32884269  1
  Cr  Cr18  1  0.66086257  0.99118090  -0.00428186  1
  Cr  Cr19  1  0.82735774  0.15934620  0.16252833  1
  Fe  Fe20  1  0.66116353  0.99486343  0.32909152  1
  Fe  Fe21  1  0.66219505  0.32793096  0.99385313  1
  Cr  Cr22  1  0.83022795  0.49445455  0.16001805  1
  Cr  Cr23  1  0.66253088  0.32976840  0.33089277  1
  Cr  Cr24  1  0.66471391  0.66065897  0.99477292  1
  Fe  Fe25  1  0.83035772  0.82806472  0.16210503  1
  Cr  Cr26  1  0.66169009  0.66367753  0.32625555  1
  Fe  Fe27  1  0.16164375  0.15975104  0.49486569  1
  Fe  Fe28  1  0.99357580  -0.00501566  0.66059127  1
  Cr  Cr29  1  0.15897326  0.16068393  0.83026185  1
  Cr  Cr30  1  0.16469317  0.49758904  0.49352661  1
  Cr  Cr31  1  0.99482188  0.32748721  0.66013524  1
  Cr  Cr32  1  0.16083097  0.49677672  0.82810177  1
  Fe  Fe33  1  0.16188922  0.82813686  0.49593689  1
  Fe  Fe34  1  -0.00443530  0.66252488  0.66103172  1
  Cr  Cr35  1  0.15953047  0.82711668  0.82573213  1
  Fe  Fe36  1  0.49576963  0.16001795  0.49427267  1
  Cr  Cr37  1  0.32642776  0.99495347  0.66192266  1
  Fe  Fe38  1  0.49533886  0.16097334  0.82839200  1
  Fe  Fe39  1  0.49507588  0.49688723  0.49469532  1
  Cr  Cr40  1  0.32809892  0.32583237  0.66016840  1
  Cr  Cr41  1  0.49395390  0.49465165  0.82822092  1
  Fe  Fe42  1  0.49379492  0.82751729  0.49545694  1
  Fe  Fe43  1  0.32852482  0.66123415  0.65983270  1
  Cr  Cr44  1  0.49566954  0.82963854  0.82573879  1
  Fe  Fe45  1  0.82731088  0.16057562  0.49576443  1
  Fe  Fe46  1  0.66137578  -0.00301945  0.66099177  1
  Cr  Cr47  1  0.82663050  0.15902293  0.82893209  1
  Cr  Cr48  1  0.82984911  0.49725266  0.49492664  1
  Cr  Cr49  1  0.66228170  0.32986249  0.66227212  1
  Fe  Fe50  1  0.83051431  0.49546363  0.82945214  1
  Cr  Cr51  1  0.82737699  0.83179215  0.49664743  1
  Cr  Cr52  1  0.66327120  0.66177862  0.66383702  1
  Fe  Fe53  1  0.83028315  0.82774781  0.82738633  1
" 