558,Fe56Cr44_5,-215.263794811157, 181.854360836151,Fe56Cr44,"# generated using pymatgen
 data_Cr5Fe4
_symmetry_space_group_name_H-M   'P 1'
_cell_length_a   7.55188690
_cell_length_b   7.55188690
_cell_length_c   10.67998087
_cell_angle_alpha   90.00000000
_cell_angle_beta   90.00000000
_cell_angle_gamma   90.00000000
_symmetry_Int_Tables_number   1
_chemical_formula_structural   Cr5Fe4
_chemical_formula_sum   'Cr30 Fe24'
_cell_volume   609.08994336
_cell_formula_units_Z   6
loop_
 _symmetry_equiv_pos_site_id
 _symmetry_equiv_pos_as_xyz
  1  'x, y, z'
loop_
 _atom_site_type_symbol
 _atom_site_label
 _atom_site_symmetry_multiplicity
 _atom_site_fract_x
 _atom_site_fract_y
 _atom_site_fract_z
 _atom_site_occupancy
  Fe  Fe0  1  -0.00478813  0.99166408  0.99233882  1
  Cr  Cr1  1  0.16059429  0.15912082  0.15744536  1
  Cr  Cr2  1  0.99357972  0.99195495  0.32827175  1
  Fe  Fe3  1  0.99172564  0.32739159  0.99317054  1
  Cr  Cr4  1  0.15802517  0.49538419  0.15872752  1
  Cr  Cr5  1  -0.00537280  0.32731511  0.32849525  1
  Fe  Fe6  1  0.99050274  0.66344667  0.99325493  1
  Cr  Cr7  1  0.16155641  0.82838870  0.15984338  1
  Fe  Fe8  1  0.99378403  0.66063082  0.32712119  1
  Fe  Fe9  1  0.33054083  0.99373089  0.99323589  1
  Fe  Fe10  1  0.49433399  0.15939585  0.16010040  1
  Fe  Fe11  1  0.32783089  -0.00480468  0.32646544  1
  Cr  Cr12  1  0.32846610  0.32818735  -0.00240491  1
  Cr  Cr13  1  0.49580818  0.49957047  0.16106611  1
  Cr  Cr14  1  0.32869104  0.32909748  0.32297797  1
  Cr  Cr15  1  0.32712170  0.66115661  0.99148117  1
  Fe  Fe16  1  0.49414115  0.82844911  0.15999968  1
  Fe  Fe17  1  0.32724536  0.66405853  0.32651832  1
  Cr  Cr18  1  0.66418291  0.99213784  -0.00436649  1
  Cr  Cr19  1  0.83015812  0.16005782  0.15858602  1
  Cr  Cr20  1  0.66117467  0.99401319  0.32352350  1
  Cr  Cr21  1  0.65866886  0.32621537  0.99282638  1
  Cr  Cr22  1  0.82674567  0.49621775  0.16024450  1
  Cr  Cr23  1  0.66032973  0.32607642  0.32861081  1
  Fe  Fe24  1  0.66119667  0.66106193  0.99139164  1
  Fe  Fe25  1  0.82852952  0.82500528  0.16003633  1
  Fe  Fe26  1  0.66161355  0.66127551  0.32651493  1
  Cr  Cr27  1  0.16225676  0.15978473  0.49606119  1
  Cr  Cr28  1  -0.00530086  0.99163708  0.66120369  1
  Cr  Cr29  1  0.16028421  0.15936379  0.82982655  1
  Cr  Cr30  1  0.16128521  0.49499011  0.49179112  1
  Fe  Fe31  1  0.99390310  0.32899891  0.66274855  1
  Cr  Cr32  1  0.15821302  0.49356663  0.83163012  1
  Fe  Fe33  1  0.16221522  0.82746367  0.49279128  1
  Cr  Cr34  1  -0.00441694  0.66149681  0.65932617  1
  Fe  Fe35  1  0.15986139  0.82818054  0.82917882  1
  Cr  Cr36  1  0.49415248  0.15980206  0.49609510  1
  Fe  Fe37  1  0.32782595  0.99302826  0.66341381  1
  Fe  Fe38  1  0.49407751  0.16025640  0.82850080  1
  Cr  Cr39  1  0.49688470  0.49675718  0.49485381  1
  Cr  Cr40  1  0.32943163  0.32955973  0.66309093  1
  Fe  Fe41  1  0.49505945  0.49376283  0.82875198  1
  Cr  Cr42  1  0.49265750  0.82804204  0.49340250  1
  Cr  Cr43  1  0.32572409  0.66189165  0.66330532  1
  Fe  Fe44  1  0.49387732  0.82971343  0.82901998  1
  Cr  Cr45  1  0.82758929  0.16280973  0.49868332  1
  Cr  Cr46  1  0.66200630  -0.00434519  0.66424273  1
  Fe  Fe47  1  0.82862593  0.16181582  0.82838012  1
  Fe  Fe48  1  0.82739056  0.49440495  0.49500297  1
  Fe  Fe49  1  0.66248231  0.32929655  0.66475284  1
  Fe  Fe50  1  0.82767436  0.49411383  0.82911235  1
  Cr  Cr51  1  0.82520868  0.82573895  0.49143613  1
  Cr  Cr52  1  0.66130361  0.66130054  0.66508515  1
  Fe  Fe53  1  0.83001829  0.82704636  0.82951327  1
" 