7733,Fe56Cr44_1,-215.040245695653, 191.053208976164,Fe56Cr44,"# generated using pymatgen
 data_Cr5Fe4
_symmetry_space_group_name_H-M   'P 1'
_cell_length_a   7.54009179
_cell_length_b   7.54009179
_cell_length_c   10.66330007
_cell_angle_alpha   90.00000000
_cell_angle_beta   90.00000000
_cell_angle_gamma   90.00000000
_symmetry_Int_Tables_number   1
_chemical_formula_structural   Cr5Fe4
_chemical_formula_sum   'Cr30 Fe24'
_cell_volume   606.24043017
_cell_formula_units_Z   6
loop_
 _symmetry_equiv_pos_site_id
 _symmetry_equiv_pos_as_xyz
  1  'x, y, z'
loop_
 _atom_site_type_symbol
 _atom_site_label
 _atom_site_symmetry_multiplicity
 _atom_site_fract_x
 _atom_site_fract_y
 _atom_site_fract_z
 _atom_site_occupancy
  Cr  Cr0  1  0.99498848  0.99111030  -0.00272924  1
  Cr  Cr1  1  0.15935714  0.16525300  0.15980432  1
  Fe  Fe2  1  0.99364319  -0.00163697  0.32786310  1
  Fe  Fe3  1  -0.00360372  0.33006043  -0.00411342  1
  Fe  Fe4  1  0.16213200  0.49694492  0.16277000  1
  Cr  Cr5  1  0.99073189  0.33090901  0.32420641  1
  Cr  Cr6  1  0.99386690  0.66006892  0.99486018  1
  Fe  Fe7  1  0.16170770  0.82967573  0.16281904  1
  Cr  Cr8  1  -0.00219008  0.66711867  0.32683727  1
  Cr  Cr9  1  0.33175251  -0.00310767  0.99429840  1
  Fe  Fe10  1  0.49743236  0.16043343  0.16226743  1
  Cr  Cr11  1  0.32882864  0.99308033  0.32768089  1
  Cr  Cr12  1  0.33293881  0.32992613  0.99401542  1
  Cr  Cr13  1  0.49624624  0.49769736  0.16706501  1
  Cr  Cr14  1  0.33105721  0.32669479  0.32905183  1
  Cr  Cr15  1  0.32301666  0.66254356  -0.00279995  1
  Cr  Cr16  1  0.49714014  0.82736240  0.16001141  1
  Fe  Fe17  1  0.32856932  0.66200563  0.32883230  1
  Fe  Fe18  1  0.66240967  -0.00475265  0.99511073  1
  Fe  Fe19  1  0.82506585  0.16066186  0.16106740  1
  Fe  Fe20  1  0.66375554  0.99381911  0.32997429  1
  Cr  Cr21  1  0.66271820  0.32533566  0.99513600  1
  Fe  Fe22  1  0.82736847  0.49491786  0.16155259  1
  Cr  Cr23  1  0.66089010  0.32297719  0.33209469  1
  Fe  Fe24  1  0.66100977  0.65743158  -0.00446349  1
  Cr  Cr25  1  0.82336567  0.82829823  0.16216902  1
  Fe  Fe26  1  0.66368022  0.66082330  0.32945409  1
  Cr  Cr27  1  0.15810320  0.16100723  0.49912946  1
  Fe  Fe28  1  0.99340640  -0.00340559  0.66047642  1
  Cr  Cr29  1  0.16302874  0.16606044  0.82572098  1
  Cr  Cr30  1  0.16248749  0.49180492  0.49265061  1
  Cr  Cr31  1  0.99209267  0.33351787  0.66427114  1
  Fe  Fe32  1  0.16166484  0.49740956  0.82872492  1
  Fe  Fe33  1  0.16185777  0.82920780  0.49509945  1
  Cr  Cr34  1  0.99395917  0.66628640  0.66241383  1
  Cr  Cr35  1  0.16286481  0.83442288  0.82542382  1
  Fe  Fe36  1  0.49368194  0.15831695  0.49511552  1
  Fe  Fe37  1  0.33107117  0.99445347  0.66035737  1
  Fe  Fe38  1  0.49776948  0.15918479  0.82820789  1
  Fe  Fe39  1  0.49479077  0.49470123  0.49380329  1
  Cr  Cr40  1  0.33388951  0.32838583  0.66286258  1
  Fe  Fe41  1  0.49719688  0.49532922  0.82897181  1
  Cr  Cr42  1  0.49900504  0.82348625  0.49362471  1
  Cr  Cr43  1  0.32583239  0.66137440  0.66078952  1
  Cr  Cr44  1  0.49712836  0.82411588  0.83179618  1
  Fe  Fe45  1  0.82900809  0.16013817  0.49499919  1
  Cr  Cr46  1  0.66184182  -0.00349620  0.66091434  1
  Cr  Cr47  1  0.83355334  0.16193183  0.83054626  1
  Cr  Cr48  1  0.82587893  0.49809907  0.49519502  1
  Cr  Cr49  1  0.66036538  0.32690239  0.65979943  1
  Fe  Fe50  1  0.82551460  0.49569365  0.82914808  1
  Fe  Fe51  1  0.83088459  0.83160980  0.49427965  1
  Fe  Fe52  1  0.66013420  0.65978757  0.66172004  1
  Cr  Cr53  1  0.82354871  0.82646124  0.82756194  1
" 