4976,Fe56Cr44_19,-215.160474276262, 181.00032820832,Fe56Cr44,"# generated using pymatgen
 data_Cr5Fe4
_symmetry_space_group_name_H-M   'P 1'
_cell_length_a   7.55374023
_cell_length_b   7.55374023
_cell_length_c   10.68260188
_cell_angle_alpha   90.00000000
_cell_angle_beta   90.00000000
_cell_angle_gamma   90.00000000
_symmetry_Int_Tables_number   1
_chemical_formula_structural   Cr5Fe4
_chemical_formula_sum   'Cr30 Fe24'
_cell_volume   609.53848888
_cell_formula_units_Z   6
loop_
 _symmetry_equiv_pos_site_id
 _symmetry_equiv_pos_as_xyz
  1  'x, y, z'
loop_
 _atom_site_type_symbol
 _atom_site_label
 _atom_site_symmetry_multiplicity
 _atom_site_fract_x
 _atom_site_fract_y
 _atom_site_fract_z
 _atom_site_occupancy
  Cr  Cr0  1  -0.00558639  -0.00494799  -0.00050762  1
  Fe  Fe1  1  0.16186252  0.16081439  0.16277183  1
  Fe  Fe2  1  -0.00521729  0.99411850  0.32500147  1
  Cr  Cr3  1  0.99362144  0.32826562  -0.00181740  1
  Fe  Fe4  1  0.16314647  0.49463394  0.16250105  1
  Cr  Cr5  1  -0.00356262  0.32681274  0.32775697  1
  Cr  Cr6  1  0.99238035  0.65904797  -0.00115486  1
  Fe  Fe7  1  0.16283002  0.82740871  0.16233878  1
  Cr  Cr8  1  0.99215369  0.65866500  0.32522681  1
  Cr  Cr9  1  0.32953205  0.99417587  0.99330627  1
  Cr  Cr10  1  0.49619946  0.16357948  0.16212642  1
  Cr  Cr11  1  0.32870567  -0.00322740  0.32745181  1
  Cr  Cr12  1  0.32680661  0.32875484  -0.00323870  1
  Fe  Fe13  1  0.49429789  0.49652539  0.16289748  1
  Fe  Fe14  1  0.32682878  0.32989399  0.32570961  1
  Fe  Fe15  1  0.32770994  0.66117587  -0.00333561  1
  Fe  Fe16  1  0.49404694  0.82704868  0.16273258  1
  Fe  Fe17  1  0.32580831  0.66079975  0.32518950  1
  Cr  Cr18  1  0.66064845  0.99293215  -0.00503221  1
  Fe  Fe19  1  0.82741430  0.16117038  0.16314067  1
  Fe  Fe20  1  0.66431790  -0.00502901  0.32546224  1
  Fe  Fe21  1  0.66130187  0.32860543  -0.00324281  1
  Fe  Fe22  1  0.82373244  0.49244644  0.16241415  1
  Fe  Fe23  1  0.66333919  0.32834978  0.32576940  1
  Cr  Cr24  1  0.65967919  0.66081922  0.99362388  1
  Fe  Fe25  1  0.82518461  0.82780588  0.16334872  1
  Fe  Fe26  1  0.66030530  0.66079973  0.32450904  1
  Fe  Fe27  1  0.15938560  0.16022656  0.49341698  1
  Fe  Fe28  1  -0.00487087  -0.00501293  0.65946571  1
  Cr  Cr29  1  0.15963736  0.16005521  0.82798005  1
  Fe  Fe30  1  0.16122772  0.49393266  0.49231607  1
  Fe  Fe31  1  0.99292400  0.32429198  0.65884333  1
  Cr  Cr32  1  0.16009732  0.49493943  0.82843679  1
  Cr  Cr33  1  0.16000218  0.82732513  0.49427998  1
  Cr  Cr34  1  0.99401581  0.65678315  0.65958406  1
  Cr  Cr35  1  0.16129731  0.82630636  0.82946689  1
  Cr  Cr36  1  0.49625884  0.16326490  0.49078478  1
  Cr  Cr37  1  0.32978552  -0.00458443  0.66220801  1
  Cr  Cr38  1  0.49555369  0.16527992  0.82894917  1
  Cr  Cr39  1  0.49368883  0.49368952  0.48941548  1
  Cr  Cr40  1  0.32448290  0.32728053  0.65715538  1
  Fe  Fe41  1  0.49281201  0.49457843  0.82847813  1
  Cr  Cr42  1  0.49464585  0.82717435  0.49025870  1
  Cr  Cr43  1  0.32951995  0.66040268  0.66125035  1
  Fe  Fe44  1  0.49491979  0.82696975  0.82846802  1
  Fe  Fe45  1  0.82869216  0.16010526  0.49347075  1
  Cr  Cr46  1  0.66051093  0.99395625  0.66022885  1
  Cr  Cr47  1  0.82659749  0.16217233  0.82756041  1
  Cr  Cr48  1  0.82589024  0.49266574  0.49528970  1
  Fe  Fe49  1  0.65907773  0.32790602  0.65982749  1
  Cr  Cr50  1  0.82554262  0.49142808  0.82751637  1
  Cr  Cr51  1  0.82909423  0.82839378  0.49198079  1
  Cr  Cr52  1  0.66009246  0.66163940  0.66176429  1
  Cr  Cr53  1  0.83175816  0.82751153  0.82678095  1
" 