853,Fe56Cr44_14,-215.290276099327, 184.43288792,Fe56Cr44,"# generated using pymatgen
 data_Cr5Fe4
_symmetry_space_group_name_H-M   'P 1'
_cell_length_a   7.55071542
_cell_length_b   7.55071542
_cell_length_c   10.67832415
_cell_angle_alpha   90.00000000
_cell_angle_beta   90.00000000
_cell_angle_gamma   90.00000000
_symmetry_Int_Tables_number   1
_chemical_formula_structural   Cr5Fe4
_chemical_formula_sum   'Cr30 Fe24'
_cell_volume   608.80653327
_cell_formula_units_Z   6
loop_
 _symmetry_equiv_pos_site_id
 _symmetry_equiv_pos_as_xyz
  1  'x, y, z'
loop_
 _atom_site_type_symbol
 _atom_site_label
 _atom_site_symmetry_multiplicity
 _atom_site_fract_x
 _atom_site_fract_y
 _atom_site_fract_z
 _atom_site_occupancy
  Fe  Fe0  1  0.99384577  0.99324332  -0.00430738  1
  Cr  Cr1  1  0.16323176  0.15885728  0.15976412  1
  Cr  Cr2  1  0.99400240  0.99269349  0.32805169  1
  Cr  Cr3  1  0.99430927  0.32992889  0.99352959  1
  Fe  Fe4  1  0.16001474  0.49706558  0.16054561  1
  Cr  Cr5  1  -0.00547288  0.33087461  0.32730105  1
  Fe  Fe6  1  0.99282900  0.66326870  -0.00444855  1
  Fe  Fe7  1  0.15890996  0.82455902  0.16045723  1
  Fe  Fe8  1  -0.00514303  0.66203867  0.32614926  1
  Cr  Cr9  1  0.33002835  0.99067521  -0.00251369  1
  Fe  Fe10  1  0.49568066  0.16085027  0.16077944  1
  Cr  Cr11  1  0.32933320  0.98958936  0.32649034  1
  Cr  Cr12  1  0.32565546  0.33112153  0.99273072  1
  Cr  Cr13  1  0.49688498  0.49416788  0.15961737  1
  Cr  Cr14  1  0.32607119  0.33061369  0.32773657  1
  Cr  Cr15  1  0.32627069  0.66153397  0.99256520  1
  Fe  Fe16  1  0.49476264  0.82607398  0.16045183  1
  Cr  Cr17  1  0.32489906  0.66209305  0.33072901  1
  Cr  Cr18  1  0.66322839  0.99160982  -0.00450928  1
  Fe  Fe19  1  0.82921067  0.16043973  0.16057416  1
  Cr  Cr20  1  0.66120509  0.99331262  0.32590641  1
  Cr  Cr21  1  0.66367018  0.32649253  -0.00548691  1
  Fe  Fe22  1  0.83013658  0.49715551  0.16025173  1
  Cr  Cr23  1  0.66384971  0.32703436  0.32646511  1
  Fe  Fe24  1  0.66136725  0.66196407  -0.00478878  1
  Fe  Fe25  1  0.82959988  0.82593841  0.16004926  1
  Cr  Cr26  1  0.66066970  0.66316737  0.32684935  1
  Cr  Cr27  1  0.16225294  0.15853871  0.49593508  1
  Fe  Fe28  1  0.99440727  0.99310396  0.66181048  1
  Cr  Cr29  1  0.16064024  0.15833110  0.82780305  1
  Fe  Fe30  1  0.15962247  0.49678648  0.49568190  1
  Cr  Cr31  1  0.99379104  0.32909797  0.66246948  1
  Fe  Fe32  1  0.15955086  0.49694721  0.82715491  1
  Fe  Fe33  1  0.16028080  0.82491203  0.49621885  1
  Fe  Fe34  1  -0.00441918  0.66155090  0.66170698  1
  Cr  Cr35  1  0.15837579  0.82867454  0.82762678  1
  Cr  Cr36  1  0.49289282  0.16271912  0.49045037  1
  Cr  Cr37  1  0.32964958  0.98989466  0.65929434  1
  Cr  Cr38  1  0.49280289  0.16214047  0.83002993  1
  Fe  Fe39  1  0.49380296  0.49675817  0.49506590  1
  Cr  Cr40  1  0.32621991  0.33248581  0.66248115  1
  Fe  Fe41  1  0.49408572  0.49763391  0.82773405  1
  Fe  Fe42  1  0.49552494  0.82567799  0.49535725  1
  Fe  Fe43  1  0.32810063  0.66099634  0.66100449  1
  Fe  Fe44  1  0.49590077  0.82525564  0.82756379  1
  Cr  Cr45  1  0.82875253  0.16065598  0.49589110  1
  Cr  Cr46  1  0.66251695  0.99232471  0.66224175  1
  Fe  Fe47  1  0.82875177  0.15947679  0.82775178  1
  Cr  Cr48  1  0.82594282  0.49805471  0.49208589  1
  Cr  Cr49  1  0.66183010  0.32789346  0.66152780  1
  Cr  Cr50  1  0.82448255  0.50027737  0.82881248  1
  Cr  Cr51  1  0.82998101  0.82449148  0.49689813  1
  Fe  Fe52  1  0.65833724  0.66095632  0.66158045  1
  Fe  Fe53  1  0.82769090  0.82882024  0.82770034  1
" 