543,Fe56Cr44_15,-214.938772195872, 182.230868852332,Fe56Cr44,"# generated using pymatgen
 data_Cr5Fe4
_symmetry_space_group_name_H-M   'P 1'
_cell_length_a   7.53607345
_cell_length_b   7.53607345
_cell_length_c   10.65761728
_cell_angle_alpha   90.00000000
_cell_angle_beta   90.00000000
_cell_angle_gamma   90.00000000
_symmetry_Int_Tables_number   1
_chemical_formula_structural   Cr5Fe4
_chemical_formula_sum   'Cr30 Fe24'
_cell_volume   605.27169550
_cell_formula_units_Z   6
loop_
 _symmetry_equiv_pos_site_id
 _symmetry_equiv_pos_as_xyz
  1  'x, y, z'
loop_
 _atom_site_type_symbol
 _atom_site_label
 _atom_site_symmetry_multiplicity
 _atom_site_fract_x
 _atom_site_fract_y
 _atom_site_fract_z
 _atom_site_occupancy
  Fe  Fe0  1  0.99525240  0.99484158  -0.00255185  1
  Cr  Cr1  1  0.15997219  0.16181123  0.16238028  1
  Cr  Cr2  1  -0.00411744  0.99447246  0.32695363  1
  Fe  Fe3  1  -0.00446373  0.32776572  -0.00320264  1
  Fe  Fe4  1  0.16225135  0.49496311  0.16177590  1
  Fe  Fe5  1  0.99465231  0.32974946  0.32927177  1
  Cr  Cr6  1  -0.00263220  0.66108074  -0.00169678  1
  Fe  Fe7  1  0.16074203  0.82745939  0.16216182  1
  Fe  Fe8  1  0.99395575  0.66157034  0.32818538  1
  Cr  Cr9  1  0.32844963  0.99422906  -0.00275378  1
  Cr  Cr10  1  0.49713532  0.16315735  0.16379157  1
  Fe  Fe11  1  0.32789501  -0.00418545  0.32938924  1
  Fe  Fe12  1  0.32782023  0.33002671  -0.00351084  1
  Cr  Cr13  1  0.49623307  0.49501756  0.16096361  1
  Cr  Cr14  1  0.32752428  0.32741384  0.33262792  1
  Fe  Fe15  1  0.32805456  0.66194193  -0.00353497  1
  Cr  Cr16  1  0.49391686  0.82811158  0.16234973  1
  Cr  Cr17  1  0.32701476  0.66133244  0.32479242  1
  Cr  Cr18  1  0.66352734  0.99517012  0.99435943  1
  Fe  Fe19  1  0.82876210  0.16258787  0.16144660  1
  Cr  Cr20  1  0.66193602  0.99470501  0.32833638  1
  Fe  Fe21  1  0.66279665  0.32885484  -0.00359394  1
  Cr  Cr22  1  0.82907605  0.49293866  0.16523573  1
  Fe  Fe23  1  0.66287152  0.32994905  0.33046906  1
  Cr  Cr24  1  0.66172260  0.66356998  0.99399003  1
  Fe  Fe25  1  0.82977507  0.82911693  0.16234271  1
  Fe  Fe26  1  0.66416413  0.66095816  0.32998470  1
  Fe  Fe27  1  0.16272036  0.16173799  0.49518981  1
  Fe  Fe28  1  0.99463267  0.99509119  0.66041504  1
  Cr  Cr29  1  0.16048887  0.16167975  0.82703434  1
  Cr  Cr30  1  0.16076734  0.49638161  0.49683833  1
  Cr  Cr31  1  -0.00224288  0.32955022  0.66118152  1
  Cr  Cr32  1  0.16406085  0.49628568  0.82978273  1
  Cr  Cr33  1  0.16049478  0.82945677  0.49600310  1
  Fe  Fe34  1  0.99527210  0.66304740  0.66101251  1
  Cr  Cr35  1  0.16273364  0.82816760  0.82665036  1
  Fe  Fe36  1  0.49407368  0.16332042  0.49478344  1
  Cr  Cr37  1  0.32883081  -0.00221827  0.65913625  1
  Cr  Cr38  1  0.49552933  0.16373419  0.82972362  1
  Fe  Fe39  1  0.49620500  0.49494610  0.49489414  1
  Fe  Fe40  1  0.33001366  0.32959654  0.66016063  1
  Cr  Cr41  1  0.49348240  0.49639672  0.83017683  1
  Cr  Cr42  1  0.49504079  0.82814535  0.49405910  1
  Fe  Fe43  1  0.32937155  0.66079704  0.66163742  1
  Fe  Fe44  1  0.49360354  0.82791348  0.82851738  1
  Cr  Cr45  1  0.82912539  0.16298138  0.49478374  1
  Cr  Cr46  1  0.66189786  0.99440848  0.66397568  1
  Cr  Cr47  1  0.83033497  0.16223171  0.83336751  1
  Fe  Fe48  1  0.82828741  0.49774309  0.49336340  1
  Cr  Cr49  1  0.66083510  0.32955580  0.66029987  1
  Cr  Cr50  1  0.82893241  0.49400131  0.82807576  1
  Fe  Fe51  1  0.83003228  0.82670317  0.49531396  1
  Cr  Cr52  1  0.66285207  0.66235799  0.66095631  1
  Cr  Cr53  1  0.83103259  0.83007411  0.82540056  1
" 