932,Fe56Cr44_11,-215.228089528487, 177.305353580877,Fe56Cr44,"# generated using pymatgen
 data_Cr5Fe4
_symmetry_space_group_name_H-M   'P 1'
_cell_length_a   7.55094934
_cell_length_b   7.55094934
_cell_length_c   10.67865496
_cell_angle_alpha   90.00000000
_cell_angle_beta   90.00000000
_cell_angle_gamma   90.00000000
_symmetry_Int_Tables_number   1
_chemical_formula_structural   Cr5Fe4
_chemical_formula_sum   'Cr30 Fe24'
_cell_volume   608.86311802
_cell_formula_units_Z   6
loop_
 _symmetry_equiv_pos_site_id
 _symmetry_equiv_pos_as_xyz
  1  'x, y, z'
loop_
 _atom_site_type_symbol
 _atom_site_label
 _atom_site_symmetry_multiplicity
 _atom_site_fract_x
 _atom_site_fract_y
 _atom_site_fract_z
 _atom_site_occupancy
  Cr  Cr0  1  0.99415725  -0.00411290  0.99423598  1
  Cr  Cr1  1  0.16057400  0.16340162  0.16072387  1
  Cr  Cr2  1  -0.00529751  -0.00374539  0.32770266  1
  Fe  Fe3  1  0.99183704  0.33086915  0.99429339  1
  Cr  Cr4  1  0.16019111  0.49546340  0.16180354  1
  Fe  Fe5  1  0.99289199  0.33056645  0.32806840  1
  Fe  Fe6  1  -0.00531604  0.65938176  0.99231122  1
  Cr  Cr7  1  0.15879162  0.82558437  0.16032683  1
  Fe  Fe8  1  0.99443708  0.65975222  0.32892316  1
  Cr  Cr9  1  0.32763518  0.99381699  -0.00379734  1
  Fe  Fe10  1  0.49599507  0.16183178  0.16139244  1
  Cr  Cr11  1  0.32773590  0.99417536  0.32628846  1
  Cr  Cr12  1  0.32654643  0.32914223  0.99355067  1
  Cr  Cr13  1  0.49567448  0.49205653  0.16073683  1
  Fe  Fe14  1  0.32767185  0.32798075  0.32777736  1
  Cr  Cr15  1  0.32814686  0.66053313  0.99132327  1
  Fe  Fe16  1  0.49406805  0.82580723  0.16094801  1
  Cr  Cr17  1  0.32764338  0.66043071  0.32976707  1
  Cr  Cr18  1  0.66154096  0.99345840  -0.00407149  1
  Fe  Fe19  1  0.82728094  0.16446188  0.16108649  1
  Cr  Cr20  1  0.66103553  0.99366182  0.32665959  1
  Fe  Fe21  1  0.66264446  0.32726064  0.99428343  1
  Fe  Fe22  1  0.82945310  0.49225959  0.16089526  1
  Fe  Fe23  1  0.66266452  0.32718007  0.32731638  1
  Cr  Cr24  1  0.66242810  0.65818748  0.99313016  1
  Cr  Cr25  1  0.82914634  0.82513198  0.16003620  1
  Cr  Cr26  1  0.66252107  0.65819065  0.32783724  1
  Cr  Cr27  1  0.16074223  0.16373115  0.49462684  1
  Cr  Cr28  1  -0.00451099  0.99429440  0.66141776  1
  Cr  Cr29  1  0.16008591  0.16260739  0.82796785  1
  Fe  Fe30  1  0.15771408  0.49610504  0.49430471  1
  Fe  Fe31  1  0.99395964  0.33161396  0.66141384  1
  Fe  Fe32  1  0.15827687  0.49593307  0.82740585  1
  Fe  Fe33  1  0.16168098  0.82581239  0.49478437  1
  Fe  Fe34  1  -0.00381349  0.65910100  0.66199214  1
  Fe  Fe35  1  0.16007664  0.82614621  0.82762462  1
  Cr  Cr36  1  0.49450305  0.16281003  0.49378826  1
  Cr  Cr37  1  0.32673186  0.99303567  0.66056389  1
  Cr  Cr38  1  0.49486992  0.16277207  0.82777900  1
  Cr  Cr39  1  0.49306968  0.49493764  0.49500695  1
  Cr  Cr40  1  0.32468718  0.33162947  0.66178493  1
  Fe  Fe41  1  0.49438794  0.49502078  0.82745619  1
  Fe  Fe42  1  0.49399236  0.82769343  0.49463634  1
  Fe  Fe43  1  0.32593892  0.66216410  0.66208782  1
  Fe  Fe44  1  0.49422128  0.82774764  0.82755717  1
  Cr  Cr45  1  0.82792944  0.16159626  0.49589382  1
  Cr  Cr46  1  0.66134991  0.99225043  0.66087737  1
  Cr  Cr47  1  0.82784639  0.16096015  0.82693066  1
  Fe  Fe48  1  0.82997298  0.49336073  0.49422730  1
  Cr  Cr49  1  0.66312707  0.33066878  0.66207929  1
  Fe  Fe50  1  0.83039739  0.49434227  0.82833996  1
  Cr  Cr51  1  0.82983704  0.82497630  0.49563414  1
  Cr  Cr52  1  0.66146075  0.66022793  0.66240343  1
  Fe  Fe53  1  0.82935799  0.82572555  0.82785820  1
" 