7804,Fe56Cr44_0,-215.220206254943, 185.123197303496,Fe56Cr44,"# generated using pymatgen
 data_Cr5Fe4
_symmetry_space_group_name_H-M   'P 1'
_cell_length_a   7.55003316
_cell_length_b   7.55003316
_cell_length_c   10.67735929
_cell_angle_alpha   90.00000000
_cell_angle_beta   90.00000000
_cell_angle_gamma   90.00000000
_symmetry_Int_Tables_number   1
_chemical_formula_structural   Cr5Fe4
_chemical_formula_sum   'Cr30 Fe24'
_cell_volume   608.64151862
_cell_formula_units_Z   6
loop_
 _symmetry_equiv_pos_site_id
 _symmetry_equiv_pos_as_xyz
  1  'x, y, z'
loop_
 _atom_site_type_symbol
 _atom_site_label
 _atom_site_symmetry_multiplicity
 _atom_site_fract_x
 _atom_site_fract_y
 _atom_site_fract_z
 _atom_site_occupancy
  Fe  Fe0  1  -0.00513062  0.99330582  -0.00392660  1
  Cr  Cr1  1  0.16138858  0.16360497  0.16149282  1
  Cr  Cr2  1  -0.00247268  0.99423042  0.32646201  1
  Cr  Cr3  1  0.99296612  0.32901526  -0.00272961  1
  Fe  Fe4  1  0.16089734  0.49739050  0.16186380  1
  Cr  Cr5  1  0.99225529  0.32953226  0.32709111  1
  Fe  Fe6  1  -0.00302029  0.66298239  0.99432998  1
  Fe  Fe7  1  0.16151835  0.82407291  0.16135151  1
  Fe  Fe8  1  -0.00542701  0.66249465  0.32799923  1
  Cr  Cr9  1  0.32530512  0.99051551  -0.00417933  1
  Cr  Cr10  1  0.49430178  0.16052144  0.16215211  1
  Cr  Cr11  1  0.32892236  0.99218193  0.32873575  1
  Fe  Fe12  1  0.32690674  0.32853390  0.99365974  1
  Cr  Cr13  1  0.49071291  0.49599986  0.16092396  1
  Fe  Fe14  1  0.32748937  0.32745712  0.32751786  1
  Fe  Fe15  1  0.32453312  0.65861184  0.99353781  1
  Fe  Fe16  1  0.49420777  0.82657217  0.16162889  1
  Fe  Fe17  1  0.32625609  0.66072272  0.32607937  1
  Fe  Fe18  1  0.66063796  0.99424190  -0.00410430  1
  Fe  Fe19  1  0.82717912  0.16024580  0.16079233  1
  Fe  Fe20  1  0.66321901  -0.00517962  0.32752286  1
  Cr  Cr21  1  0.66190575  0.32750775  -0.00495934  1
  Cr  Cr22  1  0.82869100  0.49849779  0.16319022  1
  Cr  Cr23  1  0.66231068  0.32888100  0.32783763  1
  Cr  Cr24  1  0.65962464  0.65879594  0.99214837  1
  Cr  Cr25  1  0.82698857  0.82931622  0.16044233  1
  Fe  Fe26  1  0.66199494  0.66278369  0.32786349  1
  Cr  Cr27  1  0.16256760  0.16404802  0.49785848  1
  Fe  Fe28  1  0.99332180  0.99333997  0.66094308  1
  Cr  Cr29  1  0.16010678  0.16294940  0.82401812  1
  Cr  Cr30  1  0.16168067  0.49348115  0.49214051  1
  Fe  Fe31  1  -0.00505360  0.32937450  0.66115275  1
  Fe  Fe32  1  0.16184779  0.49498256  0.82934134  1
  Cr  Cr33  1  0.15982037  0.82697098  0.49431539  1
  Cr  Cr34  1  -0.00504096  0.66068702  0.66000236  1
  Fe  Fe35  1  0.15929303  0.82842938  0.82908034  1
  Fe  Fe36  1  0.49535272  0.16179757  0.49435026  1
  Cr  Cr37  1  0.32723005  0.99370902  0.65893154  1
  Cr  Cr38  1  0.49321124  0.16136773  0.82635591  1
  Cr  Cr39  1  0.49261089  0.49489687  0.49316380  1
  Fe  Fe40  1  0.32841026  0.33114539  0.66160226  1
  Fe  Fe41  1  0.49209105  0.49273709  0.82862224  1
  Cr  Cr42  1  0.49842733  0.82711296  0.49121389  1
  Cr  Cr43  1  0.32742895  0.66381648  0.66625609  1
  Cr  Cr44  1  0.49642697  0.82672952  0.83007921  1
  Cr  Cr45  1  0.82903759  0.15799228  0.49670806  1
  Fe  Fe46  1  0.66115986  0.99326067  0.66040668  1
  Cr  Cr47  1  0.82914774  0.15795434  0.83061714  1
  Fe  Fe48  1  0.82833821  0.49574636  0.49314400  1
  Cr  Cr49  1  0.66303070  0.32819460  0.66162369  1
  Cr  Cr50  1  0.82982252  0.49567829  0.82702609  1
  Fe  Fe51  1  0.82844185  0.82640374  0.49286814  1
  Cr  Cr52  1  0.66159143  0.65880236  0.65971882  1
  Cr  Cr53  1  0.82876693  0.82878739  0.82696760  1
" 