6995,Fe56Cr44_17,-214.992097947538, 182.949381542446,Fe56Cr44,"# generated using pymatgen
 data_Cr5Fe4
_symmetry_space_group_name_H-M   'P 1'
_cell_length_a   7.54226972
_cell_length_b   7.54226972
_cell_length_c   10.66638013
_cell_angle_alpha   90.00000000
_cell_angle_beta   90.00000000
_cell_angle_gamma   90.00000000
_symmetry_Int_Tables_number   1
_chemical_formula_structural   Cr5Fe4
_chemical_formula_sum   'Cr30 Fe24'
_cell_volume   606.76591371
_cell_formula_units_Z   6
loop_
 _symmetry_equiv_pos_site_id
 _symmetry_equiv_pos_as_xyz
  1  'x, y, z'
loop_
 _atom_site_type_symbol
 _atom_site_label
 _atom_site_symmetry_multiplicity
 _atom_site_fract_x
 _atom_site_fract_y
 _atom_site_fract_z
 _atom_site_occupancy
  Cr  Cr0  1  0.99260437  0.99389832  0.99462975  1
  Cr  Cr1  1  0.16098823  0.15880179  0.16119609  1
  Fe  Fe2  1  0.99408498  0.99469918  0.32953230  1
  Fe  Fe3  1  -0.00473310  0.32973432  0.99482561  1
  Fe  Fe4  1  0.16068345  0.49496418  0.16096692  1
  Fe  Fe5  1  -0.00455576  0.32774189  0.32960872  1
  Fe  Fe6  1  -0.00321250  0.66077016  -0.00455467  1
  Cr  Cr7  1  0.16270331  0.82994659  0.16210291  1
  Cr  Cr8  1  -0.00409136  0.66353179  0.32840510  1
  Fe  Fe9  1  0.32887113  0.99454853  0.99460951  1
  Fe  Fe10  1  0.49468326  0.16065542  0.16254673  1
  Fe  Fe11  1  0.32966645  0.99444444  0.32969832  1
  Cr  Cr12  1  0.32514404  0.32986524  0.99477064  1
  Cr  Cr13  1  0.49745610  0.49650971  0.16246890  1
  Cr  Cr14  1  0.32733852  0.32733878  0.32855944  1
  Fe  Fe15  1  0.32687198  0.66227830  0.99422345  1
  Cr  Cr16  1  0.49297018  0.82956801  0.16031983  1
  Cr  Cr17  1  0.32707185  0.66108820  0.32869027  1
  Cr  Cr18  1  0.66244427  0.99427480  0.99442703  1
  Cr  Cr19  1  0.82892172  0.16261356  0.16442145  1
  Fe  Fe20  1  0.66103875  -0.00383538  0.32949099  1
  Cr  Cr21  1  0.66008276  0.32601184  -0.00451809  1
  Cr  Cr22  1  0.82828673  0.49473423  0.16221507  1
  Fe  Fe23  1  0.66148533  0.32621089  0.32931040  1
  Cr  Cr24  1  0.66277813  0.66519924  0.99328552  1
  Fe  Fe25  1  0.82871800  0.82919128  0.16246190  1
  Cr  Cr26  1  0.66210898  0.66608542  0.32948365  1
  Cr  Cr27  1  0.16108595  0.15661042  0.49661852  1
  Fe  Fe28  1  0.99436056  0.99173547  0.66074595  1
  Cr  Cr29  1  0.16210554  0.15858479  0.82726018  1
  Cr  Cr30  1  0.16054588  0.49487601  0.49627088  1
  Cr  Cr31  1  -0.00235440  0.32765579  0.66289602  1
  Fe  Fe32  1  0.16143977  0.49573656  0.82854028  1
  Fe  Fe33  1  0.16106650  0.82884733  0.49557753  1
  Fe  Fe34  1  0.99404625  0.66398691  0.66129957  1
  Cr  Cr35  1  0.16288228  0.82935216  0.82726072  1
  Fe  Fe36  1  0.49531152  0.15975049  0.49437315  1
  Fe  Fe37  1  0.32971599  0.99415994  0.66025121  1
  Cr  Cr38  1  0.49275335  0.16000936  0.82822005  1
  Cr  Cr39  1  0.49727310  0.49536049  0.49534653  1
  Fe  Fe40  1  0.32880118  0.32691688  0.66121657  1
  Cr  Cr41  1  0.49595224  0.49667283  0.82663017  1
  Fe  Fe42  1  0.49366435  0.83134157  0.49450381  1
  Cr  Cr43  1  0.32708911  0.66125669  0.66032644  1
  Fe  Fe44  1  0.49344350  0.82925681  0.82846389  1
  Fe  Fe45  1  0.82813588  0.16022889  0.49344946  1
  Cr  Cr46  1  0.66337908  0.99399027  0.66255676  1
  Cr  Cr47  1  0.83000889  0.16254551  0.82783782  1
  Cr  Cr48  1  0.82711664  0.49413677  0.49476351  1
  Cr  Cr49  1  0.66093209  0.32559034  0.66047823  1
  Cr  Cr50  1  0.82856663  0.49613174  0.82827459  1
  Fe  Fe51  1  0.83037506  0.83074894  0.49498407  1
  Cr  Cr52  1  0.66234827  0.66579327  0.66186358  1
  Fe  Fe53  1  0.83026306  0.82857112  0.82753083  1
" 