8731,Fe56Cr44_13,-215.169665842615, 184.053361993506,Fe56Cr44,"# generated using pymatgen
 data_Cr5Fe4
_symmetry_space_group_name_H-M   'P 1'
_cell_length_a   7.54488807
_cell_length_b   7.54488807
_cell_length_c   10.67008303
_cell_angle_alpha   90.00000000
_cell_angle_beta   90.00000000
_cell_angle_gamma   90.00000000
_symmetry_Int_Tables_number   1
_chemical_formula_structural   Cr5Fe4
_chemical_formula_sum   'Cr30 Fe24'
_cell_volume   607.39806065
_cell_formula_units_Z   6
loop_
 _symmetry_equiv_pos_site_id
 _symmetry_equiv_pos_as_xyz
  1  'x, y, z'
loop_
 _atom_site_type_symbol
 _atom_site_label
 _atom_site_symmetry_multiplicity
 _atom_site_fract_x
 _atom_site_fract_y
 _atom_site_fract_z
 _atom_site_occupancy
  Cr  Cr0  1  -0.00347313  0.99416545  0.99241725  1
  Cr  Cr1  1  0.16458522  0.16242669  0.15918007  1
  Cr  Cr2  1  0.99397473  -0.00344314  0.32622037  1
  Cr  Cr3  1  0.99128804  0.32670989  0.99465882  1
  Cr  Cr4  1  0.15949363  0.49533438  0.16640247  1
  Cr  Cr5  1  0.99370715  0.32705315  0.32991875  1
  Fe  Fe6  1  0.99364580  0.65951537  0.99265048  1
  Cr  Cr7  1  0.16061274  0.82613886  0.15692738  1
  Fe  Fe8  1  0.99433430  0.66139069  0.32834297  1
  Fe  Fe9  1  0.32963790  -0.00392868  0.99425751  1
  Fe  Fe10  1  0.49606280  0.16244146  0.16070312  1
  Cr  Cr11  1  0.32895252  0.99230725  0.32543122  1
  Cr  Cr12  1  0.33051894  0.33108873  -0.00315487  1
  Fe  Fe13  1  0.49573267  0.49678093  0.16187698  1
  Fe  Fe14  1  0.32938107  0.32725664  0.32760557  1
  Cr  Cr15  1  0.33076491  0.66295062  0.99430903  1
  Cr  Cr16  1  0.49666908  0.82853561  0.16270557  1
  Fe  Fe17  1  0.32937037  0.65942491  0.32858112  1
  Cr  Cr18  1  0.66306850  -0.00361491  -0.00255390  1
  Fe  Fe19  1  0.82820516  0.16117686  0.16091636  1
  Fe  Fe20  1  0.66095833  -0.00448497  0.32676687  1
  Fe  Fe21  1  0.66104905  0.33044007  -0.00442020  1
  Fe  Fe22  1  0.82701537  0.49547305  0.16060762  1
  Cr  Cr23  1  0.66153253  0.32779449  0.32249833  1
  Fe  Fe24  1  0.66346342  0.65949629  0.99398787  1
  Cr  Cr25  1  0.82825050  0.82441718  0.16283480  1
  Fe  Fe26  1  0.65959690  0.66072868  0.32825038  1
  Cr  Cr27  1  0.16473366  0.16438489  0.49773924  1
  Cr  Cr28  1  0.99430947  -0.00443367  0.66498860  1
  Fe  Fe29  1  0.16294911  0.16112686  0.82850956  1
  Fe  Fe30  1  0.16232635  0.49522826  0.49349665  1
  Cr  Cr31  1  0.99376798  0.32670966  0.66088015  1
  Cr  Cr32  1  0.16003771  0.49401289  0.82617062  1
  Cr  Cr33  1  0.15985710  0.82715926  0.49271917  1
  Cr  Cr34  1  -0.00506795  0.66248576  0.66247332  1
  Fe  Fe35  1  0.16335037  0.82871840  0.82893112  1
  Cr  Cr36  1  0.49505150  0.15920146  0.49709008  1
  Fe  Fe37  1  0.32771920  0.99409984  0.66174788  1
  Cr  Cr38  1  0.49333009  0.16256165  0.82766624  1
  Cr  Cr39  1  0.49356277  0.49206525  0.49520868  1
  Fe  Fe40  1  0.32818202  0.32904485  0.66313299  1
  Fe  Fe41  1  0.49517652  0.49579562  0.82928634  1
  Fe  Fe42  1  0.49479284  0.82842107  0.49330937  1
  Cr  Cr43  1  0.32975586  0.66254574  0.65890559  1
  Cr  Cr44  1  0.49675808  0.83050504  0.82744131  1
  Cr  Cr45  1  0.82498965  0.15958043  0.49567643  1
  Fe  Fe46  1  0.66164221  0.99399685  0.66291790  1
  Fe  Fe47  1  0.82674757  0.16109056  0.82893521  1
  Cr  Cr48  1  0.82931526  0.49683264  0.49397227  1
  Cr  Cr49  1  0.66189219  0.32917698  0.66611004  1
  Fe  Fe50  1  0.82628434  0.49592194  0.83012682  1
  Cr  Cr51  1  0.82426272  0.82852769  0.49310367  1
  Cr  Cr52  1  0.65906687  0.66205748  0.66299677  1
  Fe  Fe53  1  0.82824953  0.82704863  0.82998358  1
" 