6303,Fe56Cr44_18,-215.083958384581, 176.042107792768,Fe56Cr44,"# generated using pymatgen
 data_Cr5Fe4
_symmetry_space_group_name_H-M   'P 1'
_cell_length_a   7.54844189
_cell_length_b   7.54844189
_cell_length_c   10.67510890
_cell_angle_alpha   90.00000000
_cell_angle_beta   90.00000000
_cell_angle_gamma   90.00000000
_symmetry_Int_Tables_number   1
_chemical_formula_structural   Cr5Fe4
_chemical_formula_sum   'Cr30 Fe24'
_cell_volume   608.25676297
_cell_formula_units_Z   6
loop_
 _symmetry_equiv_pos_site_id
 _symmetry_equiv_pos_as_xyz
  1  'x, y, z'
loop_
 _atom_site_type_symbol
 _atom_site_label
 _atom_site_symmetry_multiplicity
 _atom_site_fract_x
 _atom_site_fract_y
 _atom_site_fract_z
 _atom_site_occupancy
  Fe  Fe0  1  0.99354037  0.99189540  0.99415533  1
  Cr  Cr1  1  0.15995129  0.15862081  0.16226209  1
  Cr  Cr2  1  0.99248683  0.99294318  0.32979650  1
  Cr  Cr3  1  -0.00535563  0.32892553  0.99351205  1
  Cr  Cr4  1  0.15852247  0.49558505  0.16079801  1
  Cr  Cr5  1  0.99383046  0.32762367  0.32882839  1
  Fe  Fe6  1  0.99331922  0.66312161  0.99373250  1
  Fe  Fe7  1  0.16026061  0.82817827  0.16058640  1
  Cr  Cr8  1  0.99347451  0.66291847  0.32716353  1
  Cr  Cr9  1  0.32963472  0.99449102  -0.00345331  1
  Cr  Cr10  1  0.49595396  0.15970911  0.16143853  1
  Fe  Fe11  1  0.32757246  0.99222712  0.32685220  1
  Cr  Cr12  1  0.32883896  0.32858134  0.99353260  1
  Cr  Cr13  1  0.49834088  0.49588262  0.16157107  1
  Cr  Cr14  1  0.32837571  0.32808280  0.32546949  1
  Cr  Cr15  1  0.32841944  0.66040493  0.99421466  1
  Fe  Fe16  1  0.49549823  0.82840790  0.16015754  1
  Cr  Cr17  1  0.32824777  0.66237018  0.32742772  1
  Fe  Fe18  1  0.66298635  0.99398607  0.99368709  1
  Cr  Cr19  1  0.82809090  0.16148897  0.16022504  1
  Cr  Cr20  1  0.66169767  0.99311742  0.32846895  1
  Fe  Fe21  1  0.66129625  0.32843362  0.99295724  1
  Fe  Fe22  1  0.82750300  0.49515858  0.15986737  1
  Fe  Fe23  1  0.66211026  0.32749876  0.32756738  1
  Fe  Fe24  1  0.66332670  0.66129689  0.99420373  1
  Fe  Fe25  1  0.82816907  0.82757628  0.15840557  1
  Cr  Cr26  1  0.66208041  0.66396789  0.32604378  1
  Cr  Cr27  1  0.16186543  0.15894798  0.49291145  1
  Cr  Cr28  1  0.99209443  0.99395498  0.66001495  1
  Cr  Cr29  1  0.15974892  0.15847740  0.82927210  1
  Cr  Cr30  1  0.16142741  0.49576641  0.49582945  1
  Cr  Cr31  1  0.99403245  0.32703381  0.66115115  1
  Fe  Fe32  1  0.16046425  0.49711265  0.82804766  1
  Fe  Fe33  1  0.16188722  0.82775478  0.49525941  1
  Cr  Cr34  1  0.99458232  0.66248897  0.66163021  1
  Fe  Fe35  1  0.16046210  0.82736933  0.82850632  1
  Cr  Cr36  1  0.49453518  0.16102431  0.49473185  1
  Fe  Fe37  1  0.32669973  0.99371654  0.66227166  1
  Fe  Fe38  1  0.49692863  0.16117044  0.82855999  1
  Cr  Cr39  1  0.49607917  0.49506151  0.49570817  1
  Cr  Cr40  1  0.32896272  0.32920937  0.66573842  1
  Fe  Fe41  1  0.49705754  0.49462245  0.82825935  1
  Cr  Cr42  1  0.49241283  0.82822561  0.49525574  1
  Fe  Fe43  1  0.32694091  0.66276277  0.66300239  1
  Cr  Cr44  1  0.49511428  0.82787393  0.82755783  1
  Fe  Fe45  1  0.82615234  0.16175622  0.49458181  1
  Cr  Cr46  1  0.66268259  -0.00442928  0.66142387  1
  Fe  Fe47  1  0.82589532  0.16088423  0.82947995  1
  Cr  Cr48  1  0.82662952  0.49404184  0.49255909  1
  Fe  Fe49  1  0.66253828  0.32784346  0.66319415  1
  Fe  Fe50  1  0.82678037  0.49527310  0.82851637  1
  Fe  Fe51  1  0.82792144  0.82775860  0.49481192  1
  Cr  Cr52  1  0.66169824  0.66251472  0.66111082  1
  Fe  Fe53  1  0.82909448  0.82815141  0.83000352  1
" 