2489,Fe56Cr44_7,-215.13864582517, 182.161539854721,Fe56Cr44,"# generated using pymatgen
 data_Cr5Fe4
_symmetry_space_group_name_H-M   'P 1'
_cell_length_a   7.54795211
_cell_length_b   7.54795211
_cell_length_c   10.67441624
_cell_angle_alpha   90.00000000
_cell_angle_beta   90.00000000
_cell_angle_gamma   90.00000000
_symmetry_Int_Tables_number   1
_chemical_formula_structural   Cr5Fe4
_chemical_formula_sum   'Cr30 Fe24'
_cell_volume   608.13836985
_cell_formula_units_Z   6
loop_
 _symmetry_equiv_pos_site_id
 _symmetry_equiv_pos_as_xyz
  1  'x, y, z'
loop_
 _atom_site_type_symbol
 _atom_site_label
 _atom_site_symmetry_multiplicity
 _atom_site_fract_x
 _atom_site_fract_y
 _atom_site_fract_z
 _atom_site_occupancy
  Cr  Cr0  1  -0.00527018  -0.00487685  -0.00445876  1
  Cr  Cr1  1  0.16599679  0.16232979  0.15857494  1
  Cr  Cr2  1  -0.00358685  0.99389913  0.32728877  1
  Cr  Cr3  1  0.99447934  0.32590314  0.99238933  1
  Cr  Cr4  1  0.16009662  0.49444783  0.16281410  1
  Cr  Cr5  1  -0.00496882  0.32534626  0.33021248  1
  Cr  Cr6  1  0.99378842  0.66307700  -0.00279620  1
  Fe  Fe7  1  0.16187622  0.82847766  0.16198074  1
  Fe  Fe8  1  0.99417527  0.66169103  0.32710256  1
  Fe  Fe9  1  0.33000780  -0.00424360  0.99328121  1
  Fe  Fe10  1  0.49367956  0.16326739  0.16018489  1
  Fe  Fe11  1  0.32760184  -0.00508133  0.32702986  1
  Fe  Fe12  1  0.33110656  0.32716710  0.99332672  1
  Fe  Fe13  1  0.49436642  0.49109821  0.16035003  1
  Fe  Fe14  1  0.32876991  0.32781932  0.32776594  1
  Cr  Cr15  1  0.33021460  0.66030863  -0.00533912  1
  Cr  Cr16  1  0.49466011  0.83207471  0.16076131  1
  Cr  Cr17  1  0.32764532  0.66033963  0.32949543  1
  Fe  Fe18  1  0.66002882  -0.00483361  0.99366817  1
  Cr  Cr19  1  0.82480796  0.16263514  0.16223183  1
  Cr  Cr20  1  0.66352238  -0.00494004  0.32812952  1
  Fe  Fe21  1  0.65891418  0.32803577  0.99457188  1
  Fe  Fe22  1  0.82680879  0.49480889  0.16137302  1
  Cr  Cr23  1  0.65917769  0.32901127  0.32898965  1
  Cr  Cr24  1  0.65981541  0.66050190  0.99383571  1
  Fe  Fe25  1  0.82864739  0.82690365  0.16171587  1
  Cr  Cr26  1  0.65813643  0.66003382  0.32582437  1
  Cr  Cr27  1  0.16417678  0.16180859  0.49547686  1
  Cr  Cr28  1  -0.00425533  -0.00413493  0.66057828  1
  Fe  Fe29  1  0.16452727  0.16010334  0.82866240  1
  Fe  Fe30  1  0.16203652  0.49667382  0.49429252  1
  Cr  Cr31  1  -0.00483249  0.32507697  0.66119868  1
  Cr  Cr32  1  0.15904355  0.49402282  0.82715170  1
  Fe  Fe33  1  0.16083808  0.82702382  0.49493093  1
  Fe  Fe34  1  0.99447663  0.66113400  0.66177679  1
  Cr  Cr35  1  0.16333466  0.82789164  0.82659081  1
  Cr  Cr36  1  0.49400337  0.15981649  0.49219702  1
  Fe  Fe37  1  0.32881103  -0.00398458  0.66274620  1
  Fe  Fe38  1  0.49223565  0.16079137  0.82945603  1
  Fe  Fe39  1  0.49361624  0.49407605  0.49404019  1
  Cr  Cr40  1  0.32861172  0.32986807  0.66149543  1
  Fe  Fe41  1  0.49504735  0.49232930  0.82927108  1
  Cr  Cr42  1  0.49330089  0.82999552  0.49657667  1
  Cr  Cr43  1  0.32943113  0.66097643  0.65988114  1
  Fe  Fe44  1  0.49506828  0.83067651  0.82885984  1
  Fe  Fe45  1  0.82774442  0.16070838  0.49465541  1
  Cr  Cr46  1  0.66224546  -0.00535147  0.66174990  1
  Cr  Cr47  1  0.82520647  0.16241514  0.82683282  1
  Cr  Cr48  1  0.83070396  0.49573009  0.49600856  1
  Cr  Cr49  1  0.66016372  0.32867142  0.65949373  1
  Fe  Fe50  1  0.82713393  0.49597301  0.82796103  1
  Cr  Cr51  1  0.82785148  0.82538705  0.49519129  1
  Cr  Cr52  1  0.65755839  0.66058695  0.66502240  1
  Fe  Fe53  1  0.82801700  0.82712651  0.82819218  1
" 