5524,Fe56Cr44_16,-215.325764971313, 180.219203174948,Fe56Cr44,"# generated using pymatgen
 data_Cr5Fe4
_symmetry_space_group_name_H-M   'P 1'
_cell_length_a   7.55044447
_cell_length_b   7.55044447
_cell_length_c   10.67794097
_cell_angle_alpha   90.00000000
_cell_angle_beta   90.00000000
_cell_angle_gamma   90.00000000
_symmetry_Int_Tables_number   1
_chemical_formula_structural   Cr5Fe4
_chemical_formula_sum   'Cr30 Fe24'
_cell_volume   608.74099728
_cell_formula_units_Z   6
loop_
 _symmetry_equiv_pos_site_id
 _symmetry_equiv_pos_as_xyz
  1  'x, y, z'
loop_
 _atom_site_type_symbol
 _atom_site_label
 _atom_site_symmetry_multiplicity
 _atom_site_fract_x
 _atom_site_fract_y
 _atom_site_fract_z
 _atom_site_occupancy
  Fe  Fe0  1  0.99326372  -0.00431830  0.99407411  1
  Cr  Cr1  1  0.15929259  0.15856050  0.16136267  1
  Cr  Cr2  1  -0.00455023  -0.00505622  0.32714720  1
  Fe  Fe3  1  0.99278274  0.32709399  0.99447523  1
  Cr  Cr4  1  0.16090547  0.49591248  0.16032511  1
  Cr  Cr5  1  -0.00517561  0.32960206  0.32746703  1
  Cr  Cr6  1  -0.00389285  0.66068613  0.99239580  1
  Cr  Cr7  1  0.16294630  0.82896101  0.16113480  1
  Fe  Fe8  1  0.99397717  0.65983573  0.32820903  1
  Fe  Fe9  1  0.32860817  0.99348161  -0.00551593  1
  Cr  Cr10  1  0.49581320  0.16067735  0.15981857  1
  Fe  Fe11  1  0.32862998  0.99386752  0.32861794  1
  Cr  Cr12  1  0.32733960  0.32883899  0.99220742  1
  Cr  Cr13  1  0.49663557  0.49621861  0.16032624  1
  Cr  Cr14  1  0.32625712  0.32702134  0.33119151  1
  Fe  Fe15  1  0.32780743  0.66194898  0.99438273  1
  Fe  Fe16  1  0.49346667  0.82780453  0.16104971  1
  Fe  Fe17  1  0.32821984  0.66235565  0.32830280  1
  Fe  Fe18  1  0.66155901  -0.00431718  0.99407495  1
  Fe  Fe19  1  0.82790250  0.16204283  0.15961630  1
  Cr  Cr20  1  0.65837734  0.99271604  0.32759956  1
  Fe  Fe21  1  0.66285243  0.32630038  -0.00550839  1
  Fe  Fe22  1  0.82790594  0.49359546  0.16104150  1
  Cr  Cr23  1  0.66235671  0.32846831  0.32634632  1
  Cr  Cr24  1  0.65997551  0.66291534  -0.00491254  1
  Cr  Cr25  1  0.82802333  0.82815069  0.16165647  1
  Fe  Fe26  1  0.66124552  0.66104314  0.32780813  1
  Fe  Fe27  1  0.16318646  0.16154002  0.49488842  1
  Cr  Cr28  1  0.99383853  0.99428159  0.66257517  1
  Cr  Cr29  1  0.16106640  0.16036154  0.82727617  1
  Fe  Fe30  1  0.16055450  0.49409018  0.49397824  1
  Cr  Cr31  1  -0.00231121  0.32908760  0.65987481  1
  Fe  Fe32  1  0.16165014  0.49415161  0.82832207  1
  Cr  Cr33  1  0.16194974  0.82942891  0.49269604  1
  Cr  Cr34  1  -0.00535807  0.66006401  0.66157240  1
  Cr  Cr35  1  0.16024614  0.82866534  0.82960702  1
  Fe  Fe36  1  0.49243875  0.15973361  0.49478943  1
  Fe  Fe37  1  0.32861287  -0.00390257  0.66032807  1
  Fe  Fe38  1  0.49485459  0.16073707  0.82831227  1
  Cr  Cr39  1  0.49549568  0.49403610  0.49462058  1
  Fe  Fe40  1  0.32739461  0.32658493  0.66073621  1
  Cr  Cr41  1  0.49376471  0.49248866  0.82849141  1
  Fe  Fe42  1  0.49373550  0.82871286  0.49375946  1
  Cr  Cr43  1  0.32668240  0.65957451  0.66325746  1
  Cr  Cr44  1  0.49410678  0.82848810  0.82879500  1
  Cr  Cr45  1  0.82825701  0.16223084  0.49447454  1
  Cr  Cr46  1  0.65954591  0.99427704  0.66256758  1
  Fe  Fe47  1  0.82692601  0.16023573  0.82933728  1
  Fe  Fe48  1  0.82870927  0.49537009  0.49374990  1
  Cr  Cr49  1  0.65906819  0.32573334  0.66142812  1
  Cr  Cr50  1  0.82697769  0.49330884  0.82753035  1
  Cr  Cr51  1  0.82794082  0.82524380  0.49549199  1
  Cr  Cr52  1  0.66210592  0.66341625  0.65999346  1
  Fe  Fe53  1  0.82781262  0.82943019  0.82862937  1
" 