2448,Fe56Cr44_4,-215.485175352062, 181.053202300168,Fe56Cr44,"# generated using pymatgen
 data_Cr5Fe4
_symmetry_space_group_name_H-M   'P 1'
_cell_length_a   7.55816189
_cell_length_b   7.55816189
_cell_length_c   10.68885506
_cell_angle_alpha   90.00000000
_cell_angle_beta   90.00000000
_cell_angle_gamma   90.00000000
_symmetry_Int_Tables_number   1
_chemical_formula_structural   Cr5Fe4
_chemical_formula_sum   'Cr30 Fe24'
_cell_volume   610.60951582
_cell_formula_units_Z   6
loop_
 _symmetry_equiv_pos_site_id
 _symmetry_equiv_pos_as_xyz
  1  'x, y, z'
loop_
 _atom_site_type_symbol
 _atom_site_label
 _atom_site_symmetry_multiplicity
 _atom_site_fract_x
 _atom_site_fract_y
 _atom_site_fract_z
 _atom_site_occupancy
  Cr  Cr0  1  -0.00509272  -0.00407343  0.99197875  1
  Fe  Fe1  1  0.16063343  0.16143725  0.15991519  1
  Cr  Cr2  1  0.99261068  -0.00586369  0.32798175  1
  Fe  Fe3  1  0.99320246  0.32650476  -0.00513234  1
  Fe  Fe4  1  0.15977423  0.49325739  0.15973615  1
  Cr  Cr5  1  0.99293519  0.32746692  0.32567434  1
  Cr  Cr6  1  -0.00593121  0.65994668  -0.00441339  1
  Cr  Cr7  1  0.16108798  0.82789046  0.16019911  1
  Cr  Cr8  1  -0.00474832  0.66031825  0.32750336  1
  Fe  Fe9  1  0.32798213  0.99309958  0.99395962  1
  Fe  Fe10  1  0.49475648  0.15886573  0.15983912  1
  Cr  Cr11  1  0.32897205  0.99316456  0.32641539  1
  Cr  Cr12  1  0.32766247  0.32605831  -0.00457442  1
  Cr  Cr13  1  0.49426436  0.49320735  0.15868610  1
  Cr  Cr14  1  0.32769776  0.32748894  0.32731782  1
  Fe  Fe15  1  0.32800080  0.66229099  0.99397200  1
  Fe  Fe16  1  0.49437381  0.82847930  0.15944656  1
  Cr  Cr17  1  0.32635665  0.66126442  0.32918398  1
  Fe  Fe18  1  0.65947783  -0.00563886  -0.00563745  1
  Fe  Fe19  1  0.82653108  0.16140747  0.15983064  1
  Fe  Fe20  1  0.66024662  -0.00563444  0.32690885  1
  Fe  Fe21  1  0.66239638  0.32651485  -0.00523467  1
  Fe  Fe22  1  0.82779095  0.49288493  0.15942651  1
  Cr  Cr23  1  0.66128142  0.32484553  0.32535378  1
  Fe  Fe24  1  0.65946030  0.66103970  -0.00553623  1
  Cr  Cr25  1  0.82570252  0.82736679  0.16181627  1
  Cr  Cr26  1  0.66030666  0.66158228  0.32717216  1
  Cr  Cr27  1  0.16042833  0.16156007  0.49475975  1
  Cr  Cr28  1  0.99333891  -0.00493138  0.66196132  1
  Fe  Fe29  1  0.15935537  0.16033190  0.82762473  1
  Fe  Fe30  1  0.16021648  0.49438274  0.49445994  1
  Fe  Fe31  1  -0.00585960  0.32650155  0.66055921  1
  Cr  Cr32  1  0.16032168  0.49245178  0.82696622  1
  Fe  Fe33  1  0.16152896  0.82643494  0.49389067  1
  Cr  Cr34  1  -0.00518003  0.66129082  0.65883138  1
  Fe  Fe35  1  0.16228154  0.82801066  0.82821070  1
  Cr  Cr36  1  0.49455305  0.15941913  0.49236161  1
  Cr  Cr37  1  0.32714620  0.99181014  0.66273868  1
  Cr  Cr38  1  0.49333874  0.15910367  0.82803770  1
  Cr  Cr39  1  0.49272713  0.49421044  0.49595868  1
  Cr  Cr40  1  0.32701264  0.32785790  0.65916315  1
  Cr  Cr41  1  0.49502473  0.49536764  0.82727467  1
  Fe  Fe42  1  0.49437355  0.82772866  0.49438174  1
  Cr  Cr43  1  0.32797540  0.66224808  0.65959019  1
  Fe  Fe44  1  0.49399235  0.82712178  0.82809837  1
  Fe  Fe45  1  0.82682562  0.16031505  0.49437995  1
  Fe  Fe46  1  0.66055280  0.99307008  0.66064159  1
  Fe  Fe47  1  0.82771206  0.16120358  0.82769396  1
  Cr  Cr48  1  0.82842562  0.49487224  0.49550777  1
  Cr  Cr49  1  0.66239727  0.32638516  0.66077561  1
  Cr  Cr50  1  0.82657662  0.49384552  0.82818320  1
  Cr  Cr51  1  0.82629810  0.82862526  0.49346611  1
  Fe  Fe52  1  0.65976313  0.66236308  0.66057163  1
  Cr  Cr53  1  0.82565404  0.82776021  0.82663527  1
" 