948,Fe56Cr44_9,-215.152411143015, 182.317795445674,Fe56Cr44,"# generated using pymatgen
 data_Cr5Fe4
_symmetry_space_group_name_H-M   'P 1'
_cell_length_a   7.54368858
_cell_length_b   7.54368858
_cell_length_c   10.66838670
_cell_angle_alpha   90.00000000
_cell_angle_beta   90.00000000
_cell_angle_gamma   90.00000000
_symmetry_Int_Tables_number   1
_chemical_formula_structural   Cr5Fe4
_chemical_formula_sum   'Cr30 Fe24'
_cell_volume   607.10841452
_cell_formula_units_Z   6
loop_
 _symmetry_equiv_pos_site_id
 _symmetry_equiv_pos_as_xyz
  1  'x, y, z'
loop_
 _atom_site_type_symbol
 _atom_site_label
 _atom_site_symmetry_multiplicity
 _atom_site_fract_x
 _atom_site_fract_y
 _atom_site_fract_z
 _atom_site_occupancy
  Cr  Cr0  1  -0.00380112  -0.00406659  -0.00376700  1
  Fe  Fe1  1  0.15900895  0.16210148  0.16237409  1
  Fe  Fe2  1  -0.00467462  -0.00459392  0.32881663  1
  Fe  Fe3  1  -0.00500022  0.32734067  0.99472436  1
  Cr  Cr4  1  0.15863262  0.49600514  0.16073639  1
  Fe  Fe5  1  -0.00476016  0.32689080  0.32872363  1
  Cr  Cr6  1  -0.00430662  0.66249254  0.99189199  1
  Cr  Cr7  1  0.16261119  0.82856670  0.16203181  1
  Fe  Fe8  1  0.99390165  0.66286528  0.32939542  1
  Fe  Fe9  1  0.32710517  0.99425600  0.99268889  1
  Cr  Cr10  1  0.49401266  0.15888698  0.16108189  1
  Cr  Cr11  1  0.32421352  -0.00241638  0.33030710  1
  Cr  Cr12  1  0.32549368  0.32900634  -0.00235749  1
  Fe  Fe13  1  0.49356380  0.49609640  0.16176570  1
  Cr  Cr14  1  0.32624062  0.32948489  0.32991929  1
  Fe  Fe15  1  0.32762044  0.66255008  0.99334409  1
  Cr  Cr16  1  0.49264193  0.82854180  0.15904411  1
  Cr  Cr17  1  0.32880168  0.65768666  0.33048514  1
  Cr  Cr18  1  0.66455094  0.99334734  0.99383981  1
  Fe  Fe19  1  0.83086984  0.16142956  0.16268414  1
  Cr  Cr20  1  0.66651167  0.99227823  0.32778530  1
  Cr  Cr21  1  0.66065816  0.32868883  -0.00393857  1
  Cr  Cr22  1  0.83043518  0.49358975  0.16185851  1
  Cr  Cr23  1  0.65846899  0.33090029  0.32766374  1
  Cr  Cr24  1  0.66168590  0.66163371  -0.00202626  1
  Fe  Fe25  1  0.83013601  0.82758080  0.16302046  1
  Fe  Fe26  1  0.66239851  0.66167096  0.32839408  1
  Fe  Fe27  1  0.15908846  0.16250544  0.49452231  1
  Cr  Cr28  1  -0.00432393  0.99288807  0.66000338  1
  Fe  Fe29  1  0.16070678  0.16360417  0.82851483  1
  Fe  Fe30  1  0.16034559  0.49620739  0.49500829  1
  Fe  Fe31  1  -0.00220047  0.32834652  0.66121933  1
  Fe  Fe32  1  0.16247580  0.49452138  0.82743495  1
  Fe  Fe33  1  0.15843070  0.82642845  0.49417117  1
  Fe  Fe34  1  -0.00031986  0.66105944  0.66135619  1
  Fe  Fe35  1  0.16395074  0.82735967  0.82846277  1
  Cr  Cr36  1  0.49541295  0.16072832  0.49737967  1
  Cr  Cr37  1  0.32456886  -0.00439323  0.66290974  1
  Cr  Cr38  1  0.49418160  0.15907411  0.82641332  1
  Fe  Fe39  1  0.49602950  0.49568240  0.49592770  1
  Cr  Cr40  1  0.32666425  0.33109147  0.65729425  1
  Cr  Cr41  1  0.49445529  0.49586813  0.82785933  1
  Cr  Cr42  1  0.49177187  0.82879426  0.49601191  1
  Fe  Fe43  1  0.32562689  0.66262614  0.66126426  1
  Fe  Fe44  1  0.49293084  0.82648799  0.82883573  1
  Cr  Cr45  1  0.82839683  0.16390355  0.49660192  1
  Cr  Cr46  1  0.66348850  0.99294618  0.66294986  1
  Cr  Cr47  1  0.82908946  0.16553854  0.82629478  1
  Cr  Cr48  1  0.83172108  0.49505691  0.49697429  1
  Fe  Fe49  1  0.66105668  0.32900304  0.66125165  1
  Cr  Cr50  1  0.83268139  0.49242449  0.82574368  1
  Fe  Fe51  1  0.83003463  0.82724775  0.49395930  1
  Cr  Cr52  1  0.66250142  0.66133969  0.66028295  1
  Cr  Cr53  1  0.82990416  0.82653582  0.82655557  1
" 