7682,Fe56Cr44_12,-214.790122345964, 185.631169313334,Fe56Cr44,"# generated using pymatgen
 data_Cr5Fe4
_symmetry_space_group_name_H-M   'P 1'
_cell_length_a   7.53555628
_cell_length_b   7.53555628
_cell_length_c   10.65688589
_cell_angle_alpha   90.00000000
_cell_angle_beta   90.00000000
_cell_angle_gamma   90.00000000
_symmetry_Int_Tables_number   1
_chemical_formula_structural   Cr5Fe4
_chemical_formula_sum   'Cr30 Fe24'
_cell_volume   605.14709250
_cell_formula_units_Z   6
loop_
 _symmetry_equiv_pos_site_id
 _symmetry_equiv_pos_as_xyz
  1  'x, y, z'
loop_
 _atom_site_type_symbol
 _atom_site_label
 _atom_site_symmetry_multiplicity
 _atom_site_fract_x
 _atom_site_fract_y
 _atom_site_fract_z
 _atom_site_occupancy
  Cr  Cr0  1  0.99253382  -0.00299448  0.99467442  1
  Fe  Fe1  1  0.16176285  0.16198019  0.16204065  1
  Fe  Fe2  1  0.99539468  -0.00293467  0.32811192  1
  Cr  Cr3  1  -0.00403200  0.32937547  -0.00436549  1
  Cr  Cr4  1  0.16211310  0.49981234  0.15858153  1
  Cr  Cr5  1  -0.00326469  0.33115969  0.32650493  1
  Fe  Fe6  1  0.99328274  0.66406382  0.99380709  1
  Cr  Cr7  1  0.16190044  0.83212728  0.16070461  1
  Cr  Cr8  1  0.99175641  0.66215889  0.32965200  1
  Fe  Fe9  1  0.32840304  -0.00265940  0.99391395  1
  Cr  Cr10  1  0.50037872  0.16217687  0.16401110  1
  Cr  Cr11  1  0.33182747  -0.00232838  0.32788145  1
  Cr  Cr12  1  0.32850402  0.32717481  -0.00292922  1
  Cr  Cr13  1  0.49793465  0.49550077  0.16012813  1
  Cr  Cr14  1  0.32878859  0.32858553  0.32915396  1
  Fe  Fe15  1  0.32959387  0.66464284  0.99379329  1
  Cr  Cr16  1  0.49466106  0.82789937  0.15977139  1
  Cr  Cr17  1  0.32745351  0.66064615  0.32974824  1
  Cr  Cr18  1  0.66074902  0.99339343  0.99192962  1
  Fe  Fe19  1  0.82933631  0.16113962  0.16303135  1
  Fe  Fe20  1  0.66498663  0.99487054  0.32979673  1
  Fe  Fe21  1  0.66301035  0.32485473  0.99441699  1
  Cr  Cr22  1  0.82540379  0.49326827  0.15960141  1
  Fe  Fe23  1  0.66351638  0.32901589  0.32957934  1
  Fe  Fe24  1  0.66369174  0.66212602  0.99398102  1
  Cr  Cr25  1  0.82847470  0.82997837  0.16379890  1
  Fe  Fe26  1  0.66192493  0.66142064  0.32909581  1
  Cr  Cr27  1  0.15918069  0.15986419  0.49698621  1
  Fe  Fe28  1  0.99460005  -0.00376657  0.66461044  1
  Fe  Fe29  1  0.16107982  0.16398375  0.82818204  1
  Cr  Cr30  1  0.16213945  0.49587731  0.49980390  1
  Fe  Fe31  1  0.99300147  0.32600998  0.66357869  1
  Cr  Cr32  1  0.16204325  0.49775165  0.82745661  1
  Cr  Cr33  1  0.16080126  0.83169621  0.49642383  1
  Cr  Cr34  1  0.99044025  0.66184947  0.66069080  1
  Cr  Cr35  1  0.16291971  0.83143063  0.82910409  1
  Fe  Fe36  1  0.49709819  0.16151227  0.49521302  1
  Cr  Cr37  1  0.33289098  -0.00204823  0.66537191  1
  Fe  Fe38  1  0.49620711  0.16332635  0.82989896  1
  Cr  Cr39  1  0.49940251  0.49436048  0.49599577  1
  Cr  Cr40  1  0.32944305  0.32817047  0.66107379  1
  Cr  Cr41  1  0.49686311  0.49528172  0.83040566  1
  Cr  Cr42  1  0.49599285  0.82814622  0.49511634  1
  Fe  Fe43  1  0.33083444  0.66407026  0.66306738  1
  Fe  Fe44  1  0.49572522  0.82626373  0.82986430  1
  Cr  Cr45  1  0.82804129  0.16187694  0.49510338  1
  Cr  Cr46  1  0.66311213  0.99247378  0.66498936  1
  Fe  Fe47  1  0.82941561  0.16129132  0.82735335  1
  Fe  Fe48  1  0.82777593  0.49474240  0.49622423  1
  Fe  Fe49  1  0.66275756  0.32690135  0.66244126  1
  Cr  Cr50  1  0.82652639  0.49133870  0.82881946  1
  Fe  Fe51  1  0.82732490  0.82896075  0.49482885  1
  Fe  Fe52  1  0.66051700  0.66116652  0.66276553  1
  Fe  Fe53  1  0.82831215  0.82554624  0.82874823  1
" 