2382,Fe56Cr44_6,-215.072812539345, 188.941808734113,Fe56Cr44,"# generated using pymatgen
 data_Cr5Fe4
_symmetry_space_group_name_H-M   'P 1'
_cell_length_a   7.53961735
_cell_length_b   7.53961735
_cell_length_c   10.66262911
_cell_angle_alpha   90.00000000
_cell_angle_beta   90.00000000
_cell_angle_gamma   90.00000000
_symmetry_Int_Tables_number   1
_chemical_formula_structural   Cr5Fe4
_chemical_formula_sum   'Cr30 Fe24'
_cell_volume   606.12599906
_cell_formula_units_Z   6
loop_
 _symmetry_equiv_pos_site_id
 _symmetry_equiv_pos_as_xyz
  1  'x, y, z'
loop_
 _atom_site_type_symbol
 _atom_site_label
 _atom_site_symmetry_multiplicity
 _atom_site_fract_x
 _atom_site_fract_y
 _atom_site_fract_z
 _atom_site_occupancy
  Cr  Cr0  1  -0.00463868  0.99344928  -0.00368264  1
  Cr  Cr1  1  0.15869938  0.16572902  0.16005846  1
  Cr  Cr2  1  0.99463438  0.99283528  0.32762418  1
  Fe  Fe3  1  0.99483413  0.32796610  0.99376047  1
  Cr  Cr4  1  0.15904916  0.49542380  0.16419070  1
  Fe  Fe5  1  0.99220479  0.32729720  0.32834045  1
  Cr  Cr6  1  0.99121334  0.66466467  0.99311453  1
  Fe  Fe7  1  0.16030665  0.82665572  0.16254666  1
  Fe  Fe8  1  -0.00423847  0.66367063  0.32814100  1
  Cr  Cr9  1  0.32572787  -0.00185993  0.99403956  1
  Cr  Cr10  1  0.49845905  0.15956621  0.15810691  1
  Cr  Cr11  1  0.32497132  0.99468865  0.32649203  1
  Fe  Fe12  1  0.32861561  0.32886532  0.99441604  1
  Fe  Fe13  1  0.49625263  0.49351265  0.16043100  1
  Cr  Cr14  1  0.33442194  0.33048692  0.32805677  1
  Cr  Cr15  1  0.32877449  0.66083097  -0.00200103  1
  Cr  Cr16  1  0.49711821  0.82878137  0.16051626  1
  Fe  Fe17  1  0.32789372  0.66324370  0.32801164  1
  Fe  Fe18  1  0.66393367  0.99424508  0.99492242  1
  Fe  Fe19  1  0.82819737  0.16246758  0.16055833  1
  Cr  Cr20  1  0.66608185  -0.00361571  0.32908936  1
  Fe  Fe21  1  0.66194885  0.32885930  0.99460543  1
  Cr  Cr22  1  0.83087595  0.49278728  0.15896593  1
  Fe  Fe23  1  0.66380201  0.32754910  0.32840019  1
  Fe  Fe24  1  0.66283700  0.66246035  0.99513938  1
  Fe  Fe25  1  0.82895850  0.82885151  0.16142787  1
  Cr  Cr26  1  0.66183754  0.65730711  0.32673413  1
  Cr  Cr27  1  0.15899390  0.16440669  0.49526583  1
  Cr  Cr28  1  0.99513645  0.99257947  0.66129219  1
  Fe  Fe29  1  0.16238749  0.16172744  0.83020999  1
  Cr  Cr30  1  0.16072142  0.49795647  0.49390241  1
  Cr  Cr31  1  0.99400994  0.32744920  0.66382742  1
  Cr  Cr32  1  0.15803844  0.49331874  0.82864008  1
  Fe  Fe33  1  0.16129006  0.82687230  0.49462402  1
  Cr  Cr34  1  0.99317613  0.66537485  0.66442953  1
  Fe  Fe35  1  0.16219191  0.82842386  0.82893534  1
  Cr  Cr36  1  0.49842595  0.15739870  0.49714476  1
  Cr  Cr37  1  0.32528214  -0.00335062  0.66479108  1
  Fe  Fe38  1  0.49618598  0.16298209  0.83029875  1
  Fe  Fe39  1  0.49436727  0.49615276  0.49470343  1
  Cr  Cr40  1  0.33134079  0.32820936  0.66444471  1
  Cr  Cr41  1  0.49499907  0.49762832  0.83041655  1
  Cr  Cr42  1  0.49484015  0.82799467  0.49808632  1
  Fe  Fe43  1  0.32719147  0.66192724  0.66192307  1
  Cr  Cr44  1  0.49825097  0.83239627  0.82760270  1
  Fe  Fe45  1  0.82892699  0.16081516  0.49501345  1
  Fe  Fe46  1  0.66451296  -0.00461240  0.66211886  1
  Cr  Cr47  1  0.82749410  0.16179452  0.82883614  1
  Cr  Cr48  1  0.83232388  0.49321198  0.49465619  1
  Cr  Cr49  1  0.66006257  0.33036361  0.65830292  1
  Fe  Fe50  1  0.82640891  0.49515719  0.83072324  1
  Fe  Fe51  1  0.82930167  0.82875364  0.49500072  1
  Cr  Cr52  1  0.66409402  0.65980584  0.66344895  1
  Fe  Fe53  1  0.82739479  0.82866518  0.82947701  1
" 