4393,Fe56Cr44_3,-215.18881904326, 180.957764611667,Fe56Cr44,"# generated using pymatgen
 data_Cr5Fe4
_symmetry_space_group_name_H-M   'P 1'
_cell_length_a   7.55183265
_cell_length_b   7.55183265
_cell_length_c   10.67990415
_cell_angle_alpha   90.00000000
_cell_angle_beta   90.00000000
_cell_angle_gamma   90.00000000
_symmetry_Int_Tables_number   1
_chemical_formula_structural   Cr5Fe4
_chemical_formula_sum   'Cr30 Fe24'
_cell_volume   609.07681725
_cell_formula_units_Z   6
loop_
 _symmetry_equiv_pos_site_id
 _symmetry_equiv_pos_as_xyz
  1  'x, y, z'
loop_
 _atom_site_type_symbol
 _atom_site_label
 _atom_site_symmetry_multiplicity
 _atom_site_fract_x
 _atom_site_fract_y
 _atom_site_fract_z
 _atom_site_occupancy
  Cr  Cr0  1  0.99397523  -0.00529146  -0.00368267  1
  Cr  Cr1  1  0.16049665  0.16169129  0.16039164  1
  Cr  Cr2  1  -0.00529607  -0.00419233  0.32933860  1
  Cr  Cr3  1  0.99385860  0.32810446  0.99368739  1
  Cr  Cr4  1  0.15992211  0.49538322  0.16105317  1
  Cr  Cr5  1  0.99214667  0.32676088  0.32882031  1
  Fe  Fe6  1  -0.00559291  0.66076178  0.99401390  1
  Cr  Cr7  1  0.15955243  0.82655735  0.16404049  1
  Fe  Fe8  1  0.99218956  0.66091106  0.32853465  1
  Cr  Cr9  1  0.32717977  0.99391318  0.99433487  1
  Fe  Fe10  1  0.49359216  0.16112377  0.16199790  1
  Fe  Fe11  1  0.32775373  -0.00480315  0.32879775  1
  Cr  Cr12  1  0.32625601  0.32837618  0.99228140  1
  Cr  Cr13  1  0.49385171  0.49401427  0.16411284  1
  Cr  Cr14  1  0.32750703  0.32669621  0.32787408  1
  Cr  Cr15  1  0.32779999  0.66091903  0.99185977  1
  Cr  Cr16  1  0.49437660  0.82690960  0.16297865  1
  Fe  Fe17  1  0.32717961  0.66268141  0.32912320  1
  Cr  Cr18  1  0.66205741  0.99358767  -0.00202800  1
  Fe  Fe19  1  0.82710696  0.16220844  0.16218450  1
  Cr  Cr20  1  0.66167723  0.99437622  0.32586207  1
  Cr  Cr21  1  0.66189384  0.32851655  -0.00187516  1
  Fe  Fe22  1  0.82837140  0.49635482  0.16286354  1
  Fe  Fe23  1  0.66194832  0.32666630  0.32762403  1
  Cr  Cr24  1  0.66155990  0.66071316  -0.00494136  1
  Fe  Fe25  1  0.82896238  0.82477452  0.16258162  1
  Fe  Fe26  1  0.66371298  0.65965152  0.32826327  1
  Fe  Fe27  1  0.16374730  0.16020036  0.49423098  1
  Cr  Cr28  1  -0.00371842  -0.00448947  0.65842812  1
  Fe  Fe29  1  0.16152038  0.16036427  0.82629002  1
  Cr  Cr30  1  0.15982967  0.49545669  0.49242104  1
  Cr  Cr31  1  0.99417151  0.32747043  0.65955376  1
  Fe  Fe32  1  0.15799951  0.49503463  0.82622561  1
  Fe  Fe33  1  0.16228721  0.82773045  0.49327967  1
  Fe  Fe34  1  -0.00497701  0.66070855  0.66115635  1
  Fe  Fe35  1  0.16078546  0.82860900  0.82697236  1
  Fe  Fe36  1  0.49483105  0.16067487  0.49536368  1
  Fe  Fe37  1  0.32727866  -0.00402457  0.66000394  1
  Cr  Cr38  1  0.49497901  0.16130359  0.82556641  1
  Cr  Cr39  1  0.49477973  0.49249648  0.49277037  1
  Fe  Fe40  1  0.32661578  0.32629924  0.65953046  1
  Cr  Cr41  1  0.49363056  0.49169114  0.82628097  1
  Cr  Cr42  1  0.49461235  0.82891800  0.49394368  1
  Cr  Cr43  1  0.32743553  0.66174088  0.66202450  1
  Cr  Cr44  1  0.49657261  0.83029631  0.82634499  1
  Fe  Fe45  1  0.82465743  0.16259527  0.49498694  1
  Fe  Fe46  1  0.66151596  -0.00413917  0.65905176  1
  Cr  Cr47  1  0.82705483  0.16027282  0.82691043  1
  Fe  Fe48  1  0.82683670  0.49426255  0.49409681  1
  Fe  Fe49  1  0.66147439  0.32670655  0.65915907  1
  Fe  Fe50  1  0.82806509  0.49402147  0.82730568  1
  Cr  Cr51  1  0.82924671  0.82755649  0.49518628  1
  Cr  Cr52  1  0.66150121  0.65977794  0.66163100  1
  Cr  Cr53  1  0.83009627  0.82796808  0.82806149  1
" 