2789,Fe56Cr44_2,-215.048082193297, 182.753806424777,Fe56Cr44,"# generated using pymatgen
 data_Cr5Fe4
_symmetry_space_group_name_H-M   'P 1'
_cell_length_a   7.54452303
_cell_length_b   7.54452303
_cell_length_c   10.66956680
_cell_angle_alpha   90.00000000
_cell_angle_beta   90.00000000
_cell_angle_gamma   90.00000000
_symmetry_Int_Tables_number   1
_chemical_formula_structural   Cr5Fe4
_chemical_formula_sum   'Cr30 Fe24'
_cell_volume   607.30990473
_cell_formula_units_Z   6
loop_
 _symmetry_equiv_pos_site_id
 _symmetry_equiv_pos_as_xyz
  1  'x, y, z'
loop_
 _atom_site_type_symbol
 _atom_site_label
 _atom_site_symmetry_multiplicity
 _atom_site_fract_x
 _atom_site_fract_y
 _atom_site_fract_z
 _atom_site_occupancy
  Fe  Fe0  1  0.99350876  -0.00330710  0.99430472  1
  Cr  Cr1  1  0.16009767  0.16288800  0.16444899  1
  Cr  Cr2  1  0.99024514  0.99392022  0.32905267  1
  Fe  Fe3  1  0.99379319  0.32684461  0.99479456  1
  Fe  Fe4  1  0.16076222  0.49280408  0.16087595  1
  Fe  Fe5  1  0.99236423  0.32846296  0.32718744  1
  Cr  Cr6  1  -0.00077025  0.66051177  -0.00398216  1
  Cr  Cr7  1  0.16208698  0.83295358  0.16019181  1
  Cr  Cr8  1  -0.00392337  0.66095744  0.32909290  1
  Cr  Cr9  1  0.33119285  0.99318481  0.99327366  1
  Cr  Cr10  1  0.49235790  0.16129082  0.16283618  1
  Fe  Fe11  1  0.32952605  0.99429386  0.32792738  1
  Cr  Cr12  1  0.32890825  0.33101054  0.99280478  1
  Cr  Cr13  1  0.49905398  0.49592637  0.16012961  1
  Fe  Fe14  1  0.32907705  0.32846851  0.32756701  1
  Fe  Fe15  1  0.33064857  0.66190146  0.99334085  1
  Fe  Fe16  1  0.49556312  0.82917735  0.15989000  1
  Cr  Cr17  1  0.32658165  0.66055477  0.32218933  1
  Fe  Fe18  1  0.66239014  -0.00381372  0.99426688  1
  Fe  Fe19  1  0.82770355  0.16281930  0.15892194  1
  Cr  Cr20  1  0.66114175  -0.00318760  0.32837107  1
  Fe  Fe21  1  0.66279911  0.32645694  -0.00511157  1
  Fe  Fe22  1  0.83014884  0.49145619  0.16027069  1
  Cr  Cr23  1  0.66186104  0.32544236  0.32925227  1
  Fe  Fe24  1  0.65932100  0.66219490  0.99431139  1
  Cr  Cr25  1  0.82555488  0.82659535  0.15959257  1
  Cr  Cr26  1  0.66273734  0.66285384  0.32800789  1
  Cr  Cr27  1  0.16468881  0.16065575  0.49225423  1
  Cr  Cr28  1  0.99231840  0.99423271  0.66214038  1
  Cr  Cr29  1  0.16125645  0.15907176  0.82777665  1
  Cr  Cr30  1  0.16275674  0.49148542  0.49259630  1
  Cr  Cr31  1  0.99426219  0.32806549  0.66231889  1
  Fe  Fe32  1  0.15956075  0.49484603  0.82964659  1
  Cr  Cr33  1  0.16404378  0.83183101  0.49646395  1
  Cr  Cr34  1  -0.00295430  0.66243894  0.65872010  1
  Fe  Fe35  1  0.16120226  0.82777628  0.82990550  1
  Fe  Fe36  1  0.49290517  0.16121818  0.49371072  1
  Fe  Fe37  1  0.32980713  -0.00470489  0.66382035  1
  Fe  Fe38  1  0.49785386  0.16020649  0.83006125  1
  Cr  Cr39  1  0.49585663  0.49546783  0.49657632  1
  Cr  Cr40  1  0.33084166  0.32810481  0.66358712  1
  Fe  Fe41  1  0.49614811  0.49642310  0.83041689  1
  Cr  Cr42  1  0.49452671  0.82745847  0.49410838  1
  Cr  Cr43  1  0.32655619  0.66086139  0.66843782  1
  Fe  Fe44  1  0.49630551  0.82827806  0.82848211  1
  Fe  Fe45  1  0.82937722  0.16261183  0.49489088  1
  Cr  Cr46  1  0.66062061  -0.00252583  0.65905782  1
  Fe  Fe47  1  0.82674629  0.16097951  0.83121616  1
  Cr  Cr48  1  0.82541469  0.49707368  0.49637739  1
  Cr  Cr49  1  0.65953304  0.32410591  0.66286702  1
  Cr  Cr50  1  0.82432265  0.49541915  0.82834744  1
  Fe  Fe51  1  0.82725244  0.82916569  0.49552538  1
  Fe  Fe52  1  0.66005603  0.66254720  0.66245412  1
  Cr  Cr53  1  0.82674380  0.82697890  0.82716588  1
" 