2364,Fe60Cr40_6,-214.192689264712, 184.184708200787,Fe60Cr40,"# generated using pymatgen
 data_Cr16Fe11
_symmetry_space_group_name_H-M   'P 1'
_cell_length_a   7.54577401
_cell_length_b   7.54577401
_cell_length_c   10.67133594
_cell_angle_alpha   90.00000000
_cell_angle_beta   90.00000000
_cell_angle_gamma   90.00000000
_symmetry_Int_Tables_number   1
_chemical_formula_structural   Cr16Fe11
_chemical_formula_sum   'Cr32 Fe22'
_cell_volume   607.61205280
_cell_formula_units_Z   2
loop_
 _symmetry_equiv_pos_site_id
 _symmetry_equiv_pos_as_xyz
  1  'x, y, z'
loop_
 _atom_site_type_symbol
 _atom_site_label
 _atom_site_symmetry_multiplicity
 _atom_site_fract_x
 _atom_site_fract_y
 _atom_site_fract_z
 _atom_site_occupancy
  Fe  Fe0  1  -0.00272886  0.99379013  -0.00373546  1
  Fe  Fe1  1  0.16374717  0.15865816  0.16148564  1
  Fe  Fe2  1  -0.00367461  -0.00512384  0.32897867  1
  Cr  Cr3  1  -0.00238989  0.32578939  0.99342477  1
  Cr  Cr4  1  0.16340792  0.49440547  0.16285245  1
  Cr  Cr5  1  -0.00049847  0.32554674  0.33181553  1
  Fe  Fe6  1  -0.00448279  0.66189014  -0.00418467  1
  Fe  Fe7  1  0.16124508  0.83106835  0.16081625  1
  Cr  Cr8  1  -0.00427024  0.66316655  0.32848532  1
  Fe  Fe9  1  0.32731052  -0.00298345  -0.00283277  1
  Fe  Fe10  1  0.49111602  0.16200842  0.16153661  1
  Fe  Fe11  1  0.32776104  -0.00215454  0.32842840  1
  Fe  Fe12  1  0.32900437  0.32701539  -0.00415799  1
  Fe  Fe13  1  0.49323237  0.49322634  0.16173271  1
  Fe  Fe14  1  0.32834669  0.32549437  0.32850793  1
  Cr  Cr15  1  0.32843349  0.65984775  0.99384090  1
  Cr  Cr16  1  0.49191592  0.83069002  0.16371274  1
  Cr  Cr17  1  0.32801459  0.66037267  0.33001616  1
  Cr  Cr18  1  0.66113992  -0.00479865  0.99431834  1
  Cr  Cr19  1  0.82832246  0.16045673  0.16162269  1
  Fe  Fe20  1  0.66040961  -0.00490631  0.32981297  1
  Cr  Cr21  1  0.65736516  0.32850064  0.99416868  1
  Cr  Cr22  1  0.82853116  0.49427425  0.16112049  1
  Cr  Cr23  1  0.65809248  0.32606192  0.32553460  1
  Cr  Cr24  1  0.65941424  0.66079911  -0.00514252  1
  Cr  Cr25  1  0.83029423  0.82948599  0.16215213  1
  Cr  Cr26  1  0.66085641  0.66401602  0.32816137  1
  Fe  Fe27  1  0.16394314  0.16169455  0.49468531  1
  Cr  Cr28  1  -0.00409722  -0.00363430  0.66189755  1
  Cr  Cr29  1  0.16281850  0.15974533  0.82881045  1
  Fe  Fe30  1  0.16222679  0.49315680  0.49546468  1
  Fe  Fe31  1  -0.00468569  0.32766018  0.66013096  1
  Cr  Cr32  1  0.16205779  0.49573368  0.82491638  1
  Cr  Cr33  1  0.16558717  0.82882659  0.49503011  1
  Cr  Cr34  1  -0.00359654  0.66160099  0.66023378  1
  Cr  Cr35  1  0.16395554  0.82884073  0.83171515  1
  Fe  Fe36  1  0.49234763  0.15984400  0.49397704  1
  Fe  Fe37  1  0.32808086  0.99450048  0.65944354  1
  Cr  Cr38  1  0.49375978  0.16127113  0.82750848  1
  Cr  Cr39  1  0.49340445  0.49493210  0.49505834  1
  Cr  Cr40  1  0.32628895  0.32764589  0.66024910  1
  Fe  Fe41  1  0.49357610  0.49395351  0.82666769  1
  Fe  Fe42  1  0.49511156  0.83080305  0.49432802  1
  Fe  Fe43  1  0.32814014  0.66250391  0.66028857  1
  Cr  Cr44  1  0.49066253  0.82883295  0.82429440  1
  Cr  Cr45  1  0.82703281  0.16187056  0.49580902  1
  Cr  Cr46  1  0.66016706  0.99461554  0.65904402  1
  Cr  Cr47  1  0.82770250  0.16354846  0.82616263  1
  Cr  Cr48  1  0.82901270  0.49288325  0.49558060  1
  Fe  Fe49  1  0.66050806  0.32825269  0.66111766  1
  Cr  Cr50  1  0.82777676  0.49260987  0.82693221  1
  Fe  Fe51  1  0.82765878  0.82900548  0.49359265  1
  Cr  Cr52  1  0.65938668  0.66278567  0.66182005  1
  Cr  Cr53  1  0.82956136  0.82822336  0.83107389  1
" 