7436,Fe60Cr40_9,-214.075361359263, 189.20486157783,Fe60Cr40,"# generated using pymatgen
 data_Cr16Fe11
_symmetry_space_group_name_H-M   'P 1'
_cell_length_a   7.54744551
_cell_length_b   7.54744551
_cell_length_c   10.67369980
_cell_angle_alpha   90.00000000
_cell_angle_beta   90.00000000
_cell_angle_gamma   90.00000000
_symmetry_Int_Tables_number   1
_chemical_formula_structural   Cr16Fe11
_chemical_formula_sum   'Cr32 Fe22'
_cell_volume   608.01592739
_cell_formula_units_Z   2
loop_
 _symmetry_equiv_pos_site_id
 _symmetry_equiv_pos_as_xyz
  1  'x, y, z'
loop_
 _atom_site_type_symbol
 _atom_site_label
 _atom_site_symmetry_multiplicity
 _atom_site_fract_x
 _atom_site_fract_y
 _atom_site_fract_z
 _atom_site_occupancy
  Cr  Cr0  1  -0.00243696  -0.00517093  0.99194767  1
  Cr  Cr1  1  0.16623006  0.16270145  0.16136025  1
  Cr  Cr2  1  -0.00455859  -0.00394233  0.32944985  1
  Cr  Cr3  1  0.98996481  0.32696233  0.99281195  1
  Cr  Cr4  1  0.16158728  0.49286890  0.16304483  1
  Cr  Cr5  1  0.99058587  0.32773011  0.33112263  1
  Cr  Cr6  1  -0.00376129  0.66188952  -0.00363751  1
  Fe  Fe7  1  0.16339130  0.83003740  0.16213144  1
  Cr  Cr8  1  -0.00438452  0.66020752  0.32760723  1
  Fe  Fe9  1  0.32905434  0.99339323  -0.00456794  1
  Fe  Fe10  1  0.49448202  0.16097363  0.16382253  1
  Fe  Fe11  1  0.33050807  0.99420934  0.32715015  1
  Cr  Cr12  1  0.33254154  0.32934529  0.99414714  1
  Fe  Fe13  1  0.49529324  0.49261102  0.16288434  1
  Fe  Fe14  1  0.33065242  0.32950303  0.32753201  1
  Cr  Cr15  1  0.32936771  0.66530011  -0.00472665  1
  Fe  Fe16  1  0.49287145  0.83076951  0.16192336  1
  Cr  Cr17  1  0.33014761  0.66329684  0.32868479  1
  Cr  Cr18  1  0.65966377  -0.00276138  -0.00511257  1
  Cr  Cr19  1  0.82565637  0.16063956  0.16335995  1
  Fe  Fe20  1  0.65885533  -0.00521400  0.32779929  1
  Cr  Cr21  1  0.66172126  0.32919929  -0.00416941  1
  Fe  Fe22  1  0.82655822  0.49343265  0.16250963  1
  Fe  Fe23  1  0.65940420  0.32837479  0.32810370  1
  Cr  Cr24  1  0.65831012  0.65710356  -0.00494863  1
  Cr  Cr25  1  0.82575694  0.82541188  0.16198496  1
  Cr  Cr26  1  0.65778325  0.65864021  0.32801121  1
  Cr  Cr27  1  0.16509797  0.16654734  0.49433160  1
  Cr  Cr28  1  0.99363373  -0.00239484  0.66263507  1
  Cr  Cr29  1  0.16417516  0.16381504  0.82838384  1
  Fe  Fe30  1  0.16318124  0.49390174  0.49459631  1
  Cr  Cr31  1  0.99145317  0.32608342  0.66014712  1
  Cr  Cr32  1  0.16239884  0.49336398  0.82605854  1
  Cr  Cr33  1  0.15985278  0.82736082  0.49392577  1
  Cr  Cr34  1  -0.00363796  0.66034385  0.65998304  1
  Fe  Fe35  1  0.16272744  0.82776327  0.82790570  1
  Cr  Cr36  1  0.49471168  0.16167113  0.49231890  1
  Cr  Cr37  1  0.32808972  0.99218243  0.66206219  1
  Cr  Cr38  1  0.49360878  0.16223099  0.82850465  1
  Fe  Fe39  1  0.49480042  0.49408140  0.49489132  1
  Fe  Fe40  1  0.32910097  0.32919251  0.66041690  1
  Fe  Fe41  1  0.49574044  0.49514329  0.82663790  1
  Fe  Fe42  1  0.49513904  0.82869721  0.49491347  1
  Cr  Cr43  1  0.33181751  0.66030329  0.65950893  1
  Cr  Cr44  1  0.49876568  0.82762234  0.82552281  1
  Fe  Fe45  1  0.82539009  0.16122320  0.49410742  1
  Fe  Fe46  1  0.66110472  -0.00437516  0.66040472  1
  Fe  Fe47  1  0.82637725  0.16126040  0.82768615  1
  Fe  Fe48  1  0.82603912  0.49366378  0.49476187  1
  Cr  Cr49  1  0.66143447  0.32809350  0.66316716  1
  Fe  Fe50  1  0.82634807  0.49488139  0.82728478  1
  Cr  Cr51  1  0.82245005  0.82710434  0.49591340  1
  Fe  Fe52  1  0.66120574  0.65968670  0.66008150  1
  Cr  Cr53  1  0.82613508  0.82542712  0.82600975  1
" 