8174,Fe60Cr40_0,-214.324405322893, 190.67919550278,Fe60Cr40,"# generated using pymatgen
 data_Cr16Fe11
_symmetry_space_group_name_H-M   'P 1'
_cell_length_a   7.55689757
_cell_length_b   7.55689757
_cell_length_c   10.68706703
_cell_angle_alpha   90.00000000
_cell_angle_beta   90.00000000
_cell_angle_gamma   90.00000000
_symmetry_Int_Tables_number   1
_chemical_formula_structural   Cr16Fe11
_chemical_formula_sum   'Cr32 Fe22'
_cell_volume   610.30313927
_cell_formula_units_Z   2
loop_
 _symmetry_equiv_pos_site_id
 _symmetry_equiv_pos_as_xyz
  1  'x, y, z'
loop_
 _atom_site_type_symbol
 _atom_site_label
 _atom_site_symmetry_multiplicity
 _atom_site_fract_x
 _atom_site_fract_y
 _atom_site_fract_z
 _atom_site_occupancy
  Cr  Cr0  1  -0.00559664  -0.00518519  -0.00556479  1
  Fe  Fe1  1  0.16081488  0.16088506  0.16074788  1
  Cr  Cr2  1  0.99217409  0.99392278  0.32750304  1
  Fe  Fe3  1  -0.00538944  0.32694405  -0.00353954  1
  Fe  Fe4  1  0.16023496  0.49387209  0.16056276  1
  Cr  Cr5  1  0.99393640  0.32554395  0.32630349  1
  Cr  Cr6  1  0.99264207  0.66364122  -0.00458042  1
  Cr  Cr7  1  0.16299956  0.82687571  0.16354783  1
  Cr  Cr8  1  0.99362224  0.66242019  0.32907941  1
  Cr  Cr9  1  0.32582508  -0.00384689  0.99275483  1
  Fe  Fe10  1  0.49369652  0.15925682  0.16111614  1
  Fe  Fe11  1  0.32766446  -0.00352040  0.32628487  1
  Cr  Cr12  1  0.32780299  0.32701697  -0.00583241  1
  Fe  Fe13  1  0.49373196  0.49580825  0.16123730  1
  Cr  Cr14  1  0.32887443  0.32776284  0.32547141  1
  Cr  Cr15  1  0.32946712  0.65868678  0.99339315  1
  Cr  Cr16  1  0.49372057  0.82946560  0.16182355  1
  Fe  Fe17  1  0.32828101  0.65920181  0.32633691  1
  Cr  Cr18  1  0.66238241  0.99333244  0.99355213  1
  Fe  Fe19  1  0.82720121  0.15999095  0.16037437  1
  Fe  Fe20  1  0.66207111  -0.00549511  0.32597754  1
  Cr  Cr21  1  0.65797836  0.32893132  -0.00195723  1
  Fe  Fe22  1  0.82789381  0.49495020  0.16054453  1
  Cr  Cr23  1  0.65953685  0.32553513  0.32602279  1
  Fe  Fe24  1  0.66017734  0.66140509  -0.00551963  1
  Fe  Fe25  1  0.82651413  0.82743560  0.16108556  1
  Cr  Cr26  1  0.66136268  0.66005335  0.32734332  1
  Cr  Cr27  1  0.16160784  0.16090190  0.49732974  1
  Cr  Cr28  1  0.99320038  0.99367667  0.66078117  1
  Fe  Fe29  1  0.16008387  0.16191466  0.82586063  1
  Cr  Cr30  1  0.15958448  0.49390118  0.49401977  1
  Fe  Fe31  1  0.99375442  0.32719404  0.66096232  1
  Cr  Cr32  1  0.15750569  0.49234320  0.82592416  1
  Cr  Cr33  1  0.16427518  0.82765566  0.49057765  1
  Cr  Cr34  1  0.99310409  0.66469003  0.65803697  1
  Cr  Cr35  1  0.16304396  0.82788400  0.82735594  1
  Cr  Cr36  1  0.49580697  0.15721967  0.49302046  1
  Fe  Fe37  1  0.32827949  0.99334777  0.66138148  1
  Cr  Cr38  1  0.49415875  0.15826101  0.82513785  1
  Cr  Cr39  1  0.49357039  0.49459987  0.49380199  1
  Fe  Fe40  1  0.32651489  0.32620565  0.66141753  1
  Fe  Fe41  1  0.49426267  0.49291741  0.82759205  1
  Cr  Cr42  1  0.49391061  0.82987439  0.49219902  1
  Cr  Cr43  1  0.32872934  0.65931282  0.66094346  1
  Fe  Fe44  1  0.49577822  0.82690849  0.82775138  1
  Fe  Fe45  1  0.82722757  0.15867317  0.49433692  1
  Fe  Fe46  1  0.66119703  0.99233233  0.66089513  1
  Cr  Cr47  1  0.82748895  0.16366313  0.82684180  1
  Cr  Cr48  1  0.82856997  0.49130397  0.49518760  1
  Cr  Cr49  1  0.65787096  0.32701176  0.65806917  1
  Cr  Cr50  1  0.82752131  0.49326411  0.82973347  1
  Fe  Fe51  1  0.82508268  0.82939577  0.49408742  1
  Cr  Cr52  1  0.66057028  0.66156222  0.66397179  1
  Fe  Fe53  1  0.82665544  0.82807006  0.82768993  1
" 