5386,Fe60Cr40_13,-214.674619768332, 187.38125981666,Fe60Cr40,"# generated using pymatgen
 data_Cr16Fe11
_symmetry_space_group_name_H-M   'P 1'
_cell_length_a   7.57323047
_cell_length_b   7.57323047
_cell_length_c   10.71016524
_cell_angle_alpha   90.00000000
_cell_angle_beta   90.00000000
_cell_angle_gamma   90.00000000
_symmetry_Int_Tables_number   1
_chemical_formula_structural   Cr16Fe11
_chemical_formula_sum   'Cr32 Fe22'
_cell_volume   614.26888614
_cell_formula_units_Z   2
loop_
 _symmetry_equiv_pos_site_id
 _symmetry_equiv_pos_as_xyz
  1  'x, y, z'
loop_
 _atom_site_type_symbol
 _atom_site_label
 _atom_site_symmetry_multiplicity
 _atom_site_fract_x
 _atom_site_fract_y
 _atom_site_fract_z
 _atom_site_occupancy
  Cr  Cr0  1  -0.00575324  -0.00615737  -0.00574933  1
  Fe  Fe1  1  0.16109779  0.15894874  0.15896181  1
  Cr  Cr2  1  -0.00689083  0.99148743  0.32544582  1
  Fe  Fe3  1  0.99297879  0.32633113  -0.00699777  1
  Cr  Cr4  1  0.15876768  0.49165027  0.16042318  1
  Cr  Cr5  1  0.99225729  0.32705974  0.32662662  1
  Cr  Cr6  1  0.99223736  0.65915804  -0.00596142  1
  Fe  Fe7  1  0.15998112  0.82731671  0.15997689  1
  Fe  Fe8  1  -0.00663971  0.66001181  0.32741043  1
  Fe  Fe9  1  0.32628253  -0.00563627  -0.00633527  1
  Fe  Fe10  1  0.49198544  0.16008306  0.15931561  1
  Fe  Fe11  1  0.32631906  0.99298737  0.32639189  1
  Fe  Fe12  1  0.32698578  0.32481509  -0.00699711  1
  Cr  Cr13  1  0.49450508  0.49191006  0.15851976  1
  Cr  Cr14  1  0.32809326  0.32621585  0.32632035  1
  Cr  Cr15  1  0.32731490  0.65865954  0.99245771  1
  Cr  Cr16  1  0.49166902  0.82761558  0.15912597  1
  Cr  Cr17  1  0.32445370  0.65986564  0.32850255  1
  Cr  Cr18  1  0.65852667  -0.00587127  0.99244419  1
  Cr  Cr19  1  0.82652446  0.16170338  0.16041675  1
  Cr  Cr20  1  0.65917681  -0.00487493  0.32851606  1
  Fe  Fe21  1  0.65900880  0.32712353  0.99219450  1
  Cr  Cr22  1  0.82569517  0.49245858  0.15881016  1
  Fe  Fe23  1  0.65929212  0.32596435  0.32747761  1
  Fe  Fe24  1  0.65969418  0.65826402  0.99227646  1
  Cr  Cr25  1  0.82626442  0.82480713  0.15943999  1
  Cr  Cr26  1  0.66001588  0.65901639  0.32711929  1
  Cr  Cr27  1  0.15985481  0.15973939  0.49409331  1
  Cr  Cr28  1  0.99112756  0.99260190  0.65926657  1
  Cr  Cr29  1  0.16049022  0.16096713  0.82764508  1
  Fe  Fe30  1  0.15930793  0.49404817  0.49260269  1
  Cr  Cr31  1  0.99245912  0.32685336  0.65989767  1
  Cr  Cr32  1  0.15986184  0.49051942  0.82533382  1
  Fe  Fe33  1  0.15965565  0.82560414  0.49231336  1
  Cr  Cr34  1  -0.00641315  0.65951588  0.65768176  1
  Cr  Cr35  1  0.16101588  0.82748363  0.82544261  1
  Fe  Fe36  1  0.49370984  0.15967563  0.49226183  1
  Cr  Cr37  1  0.32759264  0.99291327  0.65958650  1
  Fe  Fe38  1  0.49257654  0.16068538  0.82739102  1
  Fe  Fe39  1  0.49328453  0.49256222  0.49255200  1
  Cr  Cr40  1  0.32789105  0.32817527  0.66020871  1
  Fe  Fe41  1  0.49410379  0.49189112  0.82746434  1
  Fe  Fe42  1  0.49257745  0.82673506  0.49261574  1
  Cr  Cr43  1  0.32645922  0.65788043  0.65799156  1
  Cr  Cr44  1  0.49376961  0.82554737  0.82662273  1
  Fe  Fe45  1  0.82524670  0.16002340  0.49260289  1
  Cr  Cr46  1  0.66025131  -0.00596640  0.65799694  1
  Cr  Cr47  1  0.82665727  0.16158509  0.82533331  1
  Fe  Fe48  1  0.82637488  0.49291862  0.49220197  1
  Cr  Cr49  1  0.65861933  0.32571959  0.65862417  1
  Fe  Fe50  1  0.82528180  0.49267844  0.82746382  1
  Fe  Fe51  1  0.82673071  0.82602891  0.49260457  1
  Cr  Cr52  1  0.65892374  0.65921026  0.66118787  1
  Cr  Cr53  1  0.82418420  0.82492774  0.82631849  1
" 