2492,Fe60Cr40_15,-213.690215560747, 190.254701545338,Fe60Cr40,"# generated using pymatgen
 data_Cr16Fe11
_symmetry_space_group_name_H-M   'P 1'
_cell_length_a   7.54739906
_cell_length_b   7.54739906
_cell_length_c   10.67363411
_cell_angle_alpha   90.00000000
_cell_angle_beta   90.00000000
_cell_angle_gamma   90.00000000
_symmetry_Int_Tables_number   1
_chemical_formula_structural   Cr16Fe11
_chemical_formula_sum   'Cr32 Fe22'
_cell_volume   608.00470138
_cell_formula_units_Z   2
loop_
 _symmetry_equiv_pos_site_id
 _symmetry_equiv_pos_as_xyz
  1  'x, y, z'
loop_
 _atom_site_type_symbol
 _atom_site_label
 _atom_site_symmetry_multiplicity
 _atom_site_fract_x
 _atom_site_fract_y
 _atom_site_fract_z
 _atom_site_occupancy
  Fe  Fe0  1  -0.00452986  0.99326124  -0.00448111  1
  Cr  Cr1  1  0.15795335  0.16226920  0.16148307  1
  Fe  Fe2  1  -0.00408418  0.99430983  0.32907190  1
  Fe  Fe3  1  0.99379238  0.32835742  -0.00479527  1
  Cr  Cr4  1  0.16349987  0.49277470  0.15917102  1
  Fe  Fe5  1  -0.00466490  0.32719989  0.32940815  1
  Fe  Fe6  1  0.99448917  0.66237797  -0.00427060  1
  Fe  Fe7  1  0.16008830  0.82822949  0.16208835  1
  Cr  Cr8  1  0.99292463  0.66115996  0.32949939  1
  Cr  Cr9  1  0.32969094  -0.00449315  -0.00409466  1
  Fe  Fe10  1  0.49569961  0.16201463  0.16387440  1
  Cr  Cr11  1  0.32863990  -0.00432911  0.32743703  1
  Cr  Cr12  1  0.33169908  0.32421217  0.99414733  1
  Cr  Cr13  1  0.49222543  0.49674761  0.16555059  1
  Fe  Fe14  1  0.32835033  0.32689385  0.32864350  1
  Cr  Cr15  1  0.32737641  0.66456328  -0.00285079  1
  Fe  Fe16  1  0.49402796  0.82897586  0.16384725  1
  Fe  Fe17  1  0.32748251  0.66323453  0.32739621  1
  Cr  Cr18  1  0.65666253  -0.00387643  -0.00450617  1
  Cr  Cr19  1  0.82993825  0.15925297  0.16188748  1
  Fe  Fe20  1  0.66021133  -0.00510530  0.32734693  1
  Cr  Cr21  1  0.66012850  0.32744147  0.99378094  1
  Cr  Cr22  1  0.82838221  0.49236248  0.16257705  1
  Fe  Fe23  1  0.66063553  0.32706085  0.32860964  1
  Cr  Cr24  1  0.66392182  0.66072744  -0.00328536  1
  Cr  Cr25  1  0.82688040  0.83215893  0.16073165  1
  Fe  Fe26  1  0.66060100  0.66243620  0.32787685  1
  Fe  Fe27  1  0.16274801  0.16067582  0.49234860  1
  Cr  Cr28  1  -0.00220198  0.99326368  0.65784532  1
  Cr  Cr29  1  0.15783448  0.16203237  0.83005670  1
  Cr  Cr30  1  0.16594444  0.49269115  0.49359433  1
  Cr  Cr31  1  0.99292786  0.33041913  0.65892753  1
  Cr  Cr32  1  0.16351118  0.49397478  0.83147530  1
  Fe  Fe33  1  0.16267051  0.82800239  0.49354403  1
  Cr  Cr34  1  0.99257744  0.66042038  0.66019366  1
  Cr  Cr35  1  0.16136464  0.82784958  0.82871412  1
  Fe  Fe36  1  0.49613857  0.16166291  0.49336659  1
  Cr  Cr37  1  0.32951915  -0.00360101  0.66085005  1
  Fe  Fe38  1  0.49634156  0.16063985  0.82655724  1
  Cr  Cr39  1  0.49394399  0.49615816  0.49449251  1
  Cr  Cr40  1  0.33027867  0.32334962  0.66191527  1
  Cr  Cr41  1  0.49282409  0.49684024  0.82430740  1
  Cr  Cr42  1  0.49531117  0.82557439  0.49614554  1
  Fe  Fe43  1  0.32602226  0.66155600  0.66037889  1
  Cr  Cr44  1  0.49617264  0.82623530  0.82413421  1
  Cr  Cr45  1  0.82902738  0.16025294  0.49185292  1
  Fe  Fe46  1  0.66100273  -0.00214089  0.66097073  1
  Cr  Cr47  1  0.82908191  0.15867330  0.82923667  1
  Fe  Fe48  1  0.82522030  0.49467754  0.49332425  1
  Fe  Fe49  1  0.66170638  0.32635001  0.66026185  1
  Cr  Cr50  1  0.82766089  0.49389315  0.82817357  1
  Cr  Cr51  1  0.82445555  0.83141929  0.49540092  1
  Fe  Fe52  1  0.66188636  0.65999412  0.66038983  1
  Cr  Cr53  1  0.82655871  0.83146928  0.82794862  1
" 