7040,Fe60Cr40_3,-214.233543393692, 191.185156148607,Fe60Cr40,"# generated using pymatgen
 data_Cr16Fe11
_symmetry_space_group_name_H-M   'P 1'
_cell_length_a   7.54553049
_cell_length_b   7.54553049
_cell_length_c   10.67099155
_cell_angle_alpha   90.00000000
_cell_angle_beta   90.00000000
_cell_angle_gamma   90.00000000
_symmetry_Int_Tables_number   1
_chemical_formula_structural   Cr16Fe11
_chemical_formula_sum   'Cr32 Fe22'
_cell_volume   607.55322742
_cell_formula_units_Z   2
loop_
 _symmetry_equiv_pos_site_id
 _symmetry_equiv_pos_as_xyz
  1  'x, y, z'
loop_
 _atom_site_type_symbol
 _atom_site_label
 _atom_site_symmetry_multiplicity
 _atom_site_fract_x
 _atom_site_fract_y
 _atom_site_fract_z
 _atom_site_occupancy
  Cr  Cr0  1  -0.00464177  -0.00226803  -0.00440658  1
  Cr  Cr1  1  0.16218950  0.16156090  0.16347522  1
  Fe  Fe2  1  0.99315431  0.99455525  0.32807386  1
  Fe  Fe3  1  0.99398093  0.32969134  0.99413074  1
  Cr  Cr4  1  0.16096885  0.49489491  0.15908422  1
  Cr  Cr5  1  0.99340956  0.32698232  0.32542332  1
  Fe  Fe6  1  0.99398722  0.66351554  -0.00368581  1
  Fe  Fe7  1  0.16050995  0.82883187  0.15950135  1
  Cr  Cr8  1  -0.00374643  0.65925845  0.32653691  1
  Fe  Fe9  1  0.32863188  -0.00507542  0.99457827  1
  Cr  Cr10  1  0.49477526  0.16253864  0.16051595  1
  Cr  Cr11  1  0.32715842  0.99236510  0.32373252  1
  Cr  Cr12  1  0.32607556  0.32965256  0.99348428  1
  Cr  Cr13  1  0.49701100  0.49313216  0.16539287  1
  Fe  Fe14  1  0.32910979  0.32873681  0.32901717  1
  Cr  Cr15  1  0.32888055  0.66491060  -0.00489490  1
  Fe  Fe16  1  0.49654075  0.83028254  0.16128680  1
  Cr  Cr17  1  0.32950747  0.66168652  0.32439386  1
  Fe  Fe18  1  0.66068404  0.99235924  0.99376472  1
  Cr  Cr19  1  0.82578096  0.16088215  0.15768488  1
  Cr  Cr20  1  0.66146494  -0.00335404  0.33071699  1
  Fe  Fe21  1  0.66102274  0.32824614  0.99459363  1
  Fe  Fe22  1  0.82812108  0.49317540  0.15926931  1
  Cr  Cr23  1  0.66404503  0.32958657  0.33106915  1
  Cr  Cr24  1  0.65898088  0.66151602  -0.00137646  1
  Cr  Cr25  1  0.82827752  0.82675954  0.16464337  1
  Fe  Fe26  1  0.66291862  0.66144815  0.33040446  1
  Cr  Cr27  1  0.16451528  0.16214002  0.49159819  1
  Cr  Cr28  1  0.99377970  -0.00205186  0.65689271  1
  Fe  Fe29  1  0.16037007  0.16174656  0.82949151  1
  Cr  Cr30  1  0.16364229  0.49303957  0.49853902  1
  Cr  Cr31  1  -0.00468663  0.32781958  0.66640252  1
  Fe  Fe32  1  0.16053663  0.49498695  0.82958207  1
  Cr  Cr33  1  0.15828610  0.82753809  0.49330607  1
  Fe  Fe34  1  0.99274983  0.66065563  0.66049148  1
  Cr  Cr35  1  0.15677228  0.82729492  0.82765435  1
  Fe  Fe36  1  0.49331463  0.16195350  0.49499451  1
  Cr  Cr37  1  0.32734670  0.99343137  0.66556949  1
  Cr  Cr38  1  0.49587280  0.16065729  0.82990212  1
  Fe  Fe39  1  0.49318772  0.49340191  0.49383615  1
  Fe  Fe40  1  0.32911096  0.32491855  0.66254846  1
  Cr  Cr41  1  0.49592764  0.49250230  0.82536178  1
  Cr  Cr42  1  0.49424724  0.82821754  0.49574091  1
  Cr  Cr43  1  0.32721106  0.66003884  0.66519103  1
  Fe  Fe44  1  0.49605629  0.82704562  0.82923609  1
  Fe  Fe45  1  0.83063682  0.16221852  0.49381904  1
  Cr  Cr46  1  0.66223320  -0.00363076  0.66146707  1
  Fe  Fe47  1  0.82796842  0.16226871  0.83110750  1
  Fe  Fe48  1  0.83180009  0.49564049  0.49462373  1
  Cr  Cr49  1  0.66501238  0.32725114  0.65834417  1
  Cr  Cr50  1  0.82868489  0.49797628  0.83257167  1
  Fe  Fe51  1  0.82820794  0.82714934  0.49312947  1
  Cr  Cr52  1  0.66053930  0.66039561  0.65672308  1
  Cr  Cr53  1  0.82704429  0.82868958  0.82463219  1
" 