6926,Fe60Cr40_5,-214.288892952259, 186.434757066719,Fe60Cr40,"# generated using pymatgen
 data_Cr16Fe11
_symmetry_space_group_name_H-M   'P 1'
_cell_length_a   7.55361850
_cell_length_b   7.55361850
_cell_length_c   10.68242973
_cell_angle_alpha   90.00000000
_cell_angle_beta   90.00000000
_cell_angle_gamma   90.00000000
_symmetry_Int_Tables_number   1
_chemical_formula_structural   Cr16Fe11
_chemical_formula_sum   'Cr32 Fe22'
_cell_volume   609.50902156
_cell_formula_units_Z   2
loop_
 _symmetry_equiv_pos_site_id
 _symmetry_equiv_pos_as_xyz
  1  'x, y, z'
loop_
 _atom_site_type_symbol
 _atom_site_label
 _atom_site_symmetry_multiplicity
 _atom_site_fract_x
 _atom_site_fract_y
 _atom_site_fract_z
 _atom_site_occupancy
  Fe  Fe0  1  0.99418898  0.99202021  0.99421528  1
  Fe  Fe1  1  0.16062099  0.16021586  0.15990392  1
  Cr  Cr2  1  -0.00508188  0.99327895  0.32526848  1
  Cr  Cr3  1  0.99345434  0.32696212  0.99389218  1
  Cr  Cr4  1  0.15983344  0.49470481  0.16087434  1
  Cr  Cr5  1  -0.00523714  0.32703867  0.32905177  1
  Fe  Fe6  1  0.99366617  0.66269718  -0.00571304  1
  Fe  Fe7  1  0.15961201  0.82816401  0.15992779  1
  Cr  Cr8  1  0.99291495  0.66259883  0.32643224  1
  Cr  Cr9  1  0.32426561  0.99393604  -0.00488036  1
  Cr  Cr10  1  0.49411616  0.16083654  0.15955614  1
  Cr  Cr11  1  0.32565980  0.99345723  0.32878596  1
  Fe  Fe12  1  0.32854305  0.32853314  -0.00566511  1
  Fe  Fe13  1  0.49545277  0.49416935  0.16034767  1
  Cr  Cr14  1  0.32707261  0.32792943  0.32472006  1
  Cr  Cr15  1  0.32734552  0.65971193  0.99340500  1
  Cr  Cr16  1  0.49592507  0.82724656  0.16320614  1
  Cr  Cr17  1  0.32836007  0.66134866  0.32848938  1
  Cr  Cr18  1  0.66395876  0.99384271  0.99182903  1
  Cr  Cr19  1  0.82780923  0.16004533  0.16030212  1
  Cr  Cr20  1  0.66232156  0.99154374  0.33062050  1
  Fe  Fe21  1  0.66046096  0.32881389  0.99377453  1
  Fe  Fe22  1  0.82650831  0.49523647  0.16066108  1
  Cr  Cr23  1  0.66095325  0.32996861  0.32636213  1
  Cr  Cr24  1  0.66198290  0.65856001  -0.00502132  1
  Fe  Fe25  1  0.82863292  0.82634863  0.16012217  1
  Fe  Fe26  1  0.66180502  0.66131206  0.32717987  1
  Cr  Cr27  1  0.16058510  0.16157221  0.49413279  1
  Cr  Cr28  1  -0.00530546  0.99335434  0.66194078  1
  Cr  Cr29  1  0.16037446  0.16109555  0.82832146  1
  Cr  Cr30  1  0.15893167  0.49595522  0.49714374  1
  Fe  Fe31  1  0.99301434  0.32801910  0.66204920  1
  Cr  Cr32  1  0.15888391  0.49681095  0.82469677  1
  Fe  Fe33  1  0.16102435  0.82718400  0.49561048  1
  Fe  Fe34  1  0.99390790  0.66186564  0.66140722  1
  Fe  Fe35  1  0.15975774  0.82736338  0.82727232  1
  Cr  Cr36  1  0.49432938  0.15791273  0.49465628  1
  Fe  Fe37  1  0.32705952  0.99248074  0.66054482  1
  Cr  Cr38  1  0.49538278  0.16036295  0.82883814  1
  Cr  Cr39  1  0.49398272  0.49672592  0.49304168  1
  Cr  Cr40  1  0.32758375  0.32872721  0.66132859  1
  Fe  Fe41  1  0.49428970  0.49409154  0.82810764  1
  Fe  Fe42  1  0.49366163  0.82683308  0.49506597  1
  Fe  Fe43  1  0.32686802  0.66318164  0.66078341  1
  Cr  Cr44  1  0.49360136  0.82780047  0.82517800  1
  Cr  Cr45  1  0.82790069  0.16111480  0.49549143  1
  Cr  Cr46  1  0.66203011  0.99343531  0.66042545  1
  Fe  Fe47  1  0.82857687  0.16124767  0.82800704  1
  Cr  Cr48  1  0.82984960  0.49571028  0.49386841  1
  Cr  Cr49  1  0.66244069  0.32836375  0.66427358  1
  Fe  Fe50  1  0.82767777  0.49453747  0.82776945  1
  Fe  Fe51  1  0.82816225  0.82664031  0.49447580  1
  Cr  Cr52  1  0.66093404  0.66091430  0.66052103  1
  Fe  Fe53  1  0.82990677  0.82673553  0.82795762  1
" 