7038,Fe60Cr40_14,-214.167894878904, 189.774409036171,Fe60Cr40,"# generated using pymatgen
 data_Cr16Fe11
_symmetry_space_group_name_H-M   'P 1'
_cell_length_a   7.54957438
_cell_length_b   7.54957438
_cell_length_c   10.67671048
_cell_angle_alpha   90.00000000
_cell_angle_beta   90.00000000
_cell_angle_gamma   90.00000000
_symmetry_Int_Tables_number   1
_chemical_formula_structural   Cr16Fe11
_chemical_formula_sum   'Cr32 Fe22'
_cell_volume   608.53057437
_cell_formula_units_Z   2
loop_
 _symmetry_equiv_pos_site_id
 _symmetry_equiv_pos_as_xyz
  1  'x, y, z'
loop_
 _atom_site_type_symbol
 _atom_site_label
 _atom_site_symmetry_multiplicity
 _atom_site_fract_x
 _atom_site_fract_y
 _atom_site_fract_z
 _atom_site_occupancy
  Cr  Cr0  1  0.99345421  0.99350327  0.99324092  1
  Cr  Cr1  1  0.16117283  0.15956210  0.16016863  1
  Cr  Cr2  1  -0.00409199  0.99064675  0.32747602  1
  Fe  Fe3  1  -0.00537988  0.32795486  0.99383470  1
  Cr  Cr4  1  0.16026938  0.49587508  0.16044483  1
  Cr  Cr5  1  0.99346469  0.33059531  0.32988207  1
  Cr  Cr6  1  0.99450522  0.66217747  -0.00337561  1
  Fe  Fe7  1  0.16032315  0.82779389  0.16197596  1
  Fe  Fe8  1  -0.00507592  0.66160298  0.32825386  1
  Cr  Cr9  1  0.32823665  -0.00470584  -0.00454806  1
  Fe  Fe10  1  0.49531961  0.16138331  0.16110726  1
  Fe  Fe11  1  0.32786585  -0.00546298  0.32787650  1
  Cr  Cr12  1  0.32794854  0.32761500  0.99404230  1
  Cr  Cr13  1  0.49556594  0.49389349  0.16010893  1
  Cr  Cr14  1  0.33076349  0.32605978  0.32836313  1
  Cr  Cr15  1  0.32687976  0.66069859  0.99299476  1
  Cr  Cr16  1  0.49344483  0.82905923  0.16050190  1
  Cr  Cr17  1  0.32441123  0.66191365  0.32727086  1
  Fe  Fe18  1  0.66111880  0.99444568  0.99453205  1
  Cr  Cr19  1  0.82687417  0.16167291  0.15875770  1
  Cr  Cr20  1  0.65982516  -0.00300132  0.32720582  1
  Fe  Fe21  1  0.66159019  0.32670241  -0.00518061  1
  Cr  Cr22  1  0.82777168  0.49377172  0.16198069  1
  Fe  Fe23  1  0.66080124  0.32747247  0.32836080  1
  Cr  Cr24  1  0.66221340  0.66247769  0.99286523  1
  Fe  Fe25  1  0.82874194  0.82778800  0.16128733  1
  Cr  Cr26  1  0.66435848  0.65946796  0.32848631  1
  Cr  Cr27  1  0.16140275  0.16107953  0.49619294  1
  Cr  Cr28  1  -0.00501068  0.99423401  0.66288561  1
  Fe  Fe29  1  0.16080954  0.16254244  0.82748374  1
  Fe  Fe30  1  0.16033662  0.49540856  0.49522394  1
  Fe  Fe31  1  -0.00392134  0.32847237  0.66111974  1
  Fe  Fe32  1  0.16116863  0.49357334  0.82718126  1
  Fe  Fe33  1  0.16158667  0.82671675  0.49414992  1
  Cr  Cr34  1  -0.00504812  0.66034631  0.65966182  1
  Fe  Fe35  1  0.16157796  0.82748593  0.82747444  1
  Fe  Fe36  1  0.49422657  0.16149112  0.49423043  1
  Cr  Cr37  1  0.32765402  -0.00499284  0.66070451  1
  Cr  Cr38  1  0.49398467  0.15980543  0.82900571  1
  Cr  Cr39  1  0.49477903  0.49521633  0.49610795  1
  Fe  Fe40  1  0.32623411  0.32853960  0.66120201  1
  Cr  Cr41  1  0.49295122  0.49806530  0.82736319  1
  Cr  Cr42  1  0.49264253  0.82728834  0.49694064  1
  Fe  Fe43  1  0.32755395  0.66091652  0.66159720  1
  Fe  Fe44  1  0.49510283  0.82748935  0.82747491  1
  Cr  Cr45  1  0.82849299  0.16321754  0.49519952  1
  Cr  Cr46  1  0.66096373  0.99318024  0.66253586  1
  Cr  Cr47  1  0.83099038  0.16085242  0.82963872  1
  Fe  Fe48  1  0.82863809  0.49454662  0.49454445  1
  Cr  Cr49  1  0.66049857  0.32873861  0.65718464  1
  Cr  Cr50  1  0.82872606  0.49371926  0.82800482  1
  Cr  Cr51  1  0.82837545  0.82635187  0.49445974  1
  Fe  Fe52  1  0.66084474  0.66175855  0.66160282  1
  Fe  Fe53  1  0.82692085  0.82784751  0.82776968  1
" 