1190,Fe60Cr40_17,-214.007085026748, 185.686977033332,Fe60Cr40,"# generated using pymatgen
 data_Cr16Fe11
_symmetry_space_group_name_H-M   'P 1'
_cell_length_a   7.55197538
_cell_length_b   7.55197538
_cell_length_c   10.68010601
_cell_angle_alpha   90.00000000
_cell_angle_beta   90.00000000
_cell_angle_gamma   90.00000000
_symmetry_Int_Tables_number   1
_chemical_formula_structural   Cr16Fe11
_chemical_formula_sum   'Cr32 Fe22'
_cell_volume   609.11135336
_cell_formula_units_Z   2
loop_
 _symmetry_equiv_pos_site_id
 _symmetry_equiv_pos_as_xyz
  1  'x, y, z'
loop_
 _atom_site_type_symbol
 _atom_site_label
 _atom_site_symmetry_multiplicity
 _atom_site_fract_x
 _atom_site_fract_y
 _atom_site_fract_z
 _atom_site_occupancy
  Cr  Cr0  1  0.99325221  0.99312745  -0.00462660  1
  Cr  Cr1  1  0.16335986  0.15958046  0.15910204  1
  Fe  Fe2  1  -0.00346178  0.99388618  0.32846528  1
  Cr  Cr3  1  0.99437163  0.32836092  -0.00518607  1
  Fe  Fe4  1  0.16164796  0.49428807  0.16000606  1
  Cr  Cr5  1  -0.00493765  0.32621798  0.32760137  1
  Fe  Fe6  1  0.99134676  0.66054060  -0.00463372  1
  Cr  Cr7  1  0.16117705  0.82714459  0.16186824  1
  Cr  Cr8  1  -0.00503490  0.66182515  0.32573042  1
  Fe  Fe9  1  0.32882608  0.99312185  0.99436814  1
  Cr  Cr10  1  0.49348362  0.16046632  0.15988702  1
  Fe  Fe11  1  0.32714307  0.99416839  0.32965673  1
  Fe  Fe12  1  0.32850051  0.32906952  -0.00512977  1
  Fe  Fe13  1  0.49334703  0.49545035  0.16015623  1
  Cr  Cr14  1  0.32689620  0.32816871  0.32732088  1
  Cr  Cr15  1  0.33023384  0.66023816  -0.00521946  1
  Fe  Fe16  1  0.49442867  0.82835143  0.16006919  1
  Cr  Cr17  1  0.32849661  0.66306392  0.32995077  1
  Cr  Cr18  1  0.66205260  0.99081125  0.99182886  1
  Cr  Cr19  1  0.82667771  0.15937456  0.16344357  1
  Cr  Cr20  1  0.66053105  0.99303316  0.32942938  1
  Cr  Cr21  1  0.66114468  0.33057822  -0.00439882  1
  Fe  Fe22  1  0.82840558  0.49641422  0.15982482  1
  Cr  Cr23  1  0.66105443  0.32872838  0.32701856  1
  Fe  Fe24  1  0.66301734  0.66101519  -0.00558391  1
  Fe  Fe25  1  0.82678911  0.82680158  0.16022150  1
  Cr  Cr26  1  0.65962789  0.66144118  0.32304756  1
  Fe  Fe27  1  0.16117753  0.15991208  0.49356670  1
  Cr  Cr28  1  -0.00538816  -0.00508188  0.66065739  1
  Cr  Cr29  1  0.16293041  0.16119548  0.83096435  1
  Cr  Cr30  1  0.15962127  0.49662177  0.49651309  1
  Fe  Fe31  1  -0.00497167  0.32826073  0.66158847  1
  Cr  Cr32  1  0.16007499  0.49611595  0.82689364  1
  Fe  Fe33  1  0.16070823  0.82956661  0.49332698  1
  Fe  Fe34  1  0.99361126  0.66118171  0.66185947  1
  Cr  Cr35  1  0.16028936  0.82575724  0.82804928  1
  Fe  Fe36  1  0.49332446  0.15935780  0.49419500  1
  Cr  Cr37  1  0.32800837  0.99286910  0.65896052  1
  Cr  Cr38  1  0.49419249  0.16035925  0.82901909  1
  Cr  Cr39  1  0.49517091  0.49436260  0.49370583  1
  Cr  Cr40  1  0.32717129  0.32746722  0.66154767  1
  Fe  Fe41  1  0.49479259  0.49509522  0.82845622  1
  Fe  Fe42  1  0.49489354  0.82925345  0.49410471  1
  Cr  Cr43  1  0.32849438  0.66296155  0.65874388  1
  Fe  Fe44  1  0.49472312  0.82714206  0.82809903  1
  Cr  Cr45  1  0.82625163  0.16050869  0.49473450  1
  Fe  Fe46  1  0.65904029  0.99293485  0.66096489  1
  Cr  Cr47  1  0.82624858  0.16071201  0.82483581  1
  Cr  Cr48  1  0.82840947  0.49552382  0.49608920  1
  Cr  Cr49  1  0.66151812  0.32749571  0.66071399  1
  Fe  Fe50  1  0.82803642  0.49628841  0.82783075  1
  Cr  Cr51  1  0.82823931  0.82702922  0.49456701  1
  Cr  Cr52  1  0.65983824  0.66271420  0.66468102  1
  Fe  Fe53  1  0.82758065  0.82549159  0.82747747  1
" 