3960,Fe60Cr40_18,-213.789852194927, 189.227417098837,Fe60Cr40,"# generated using pymatgen
 data_Cr16Fe11
_symmetry_space_group_name_H-M   'P 1'
_cell_length_a   7.54623542
_cell_length_b   7.54623542
_cell_length_c   10.67198847
_cell_angle_alpha   90.00000000
_cell_angle_beta   90.00000000
_cell_angle_gamma   90.00000000
_symmetry_Int_Tables_number   1
_chemical_formula_structural   Cr16Fe11
_chemical_formula_sum   'Cr32 Fe22'
_cell_volume   607.72352293
_cell_formula_units_Z   2
loop_
 _symmetry_equiv_pos_site_id
 _symmetry_equiv_pos_as_xyz
  1  'x, y, z'
loop_
 _atom_site_type_symbol
 _atom_site_label
 _atom_site_symmetry_multiplicity
 _atom_site_fract_x
 _atom_site_fract_y
 _atom_site_fract_z
 _atom_site_occupancy
  Cr  Cr0  1  -0.00501077  0.99445705  0.99268258  1
  Cr  Cr1  1  0.16117327  0.16215741  0.16592501  1
  Cr  Cr2  1  -0.00420064  0.99356736  0.33168657  1
  Cr  Cr3  1  0.99427964  0.32886618  0.99259581  1
  Cr  Cr4  1  0.16121229  0.49530236  0.15950841  1
  Fe  Fe5  1  -0.00521942  0.32955798  0.32857178  1
  Fe  Fe6  1  -0.00512724  0.66072673  0.99390401  1
  Cr  Cr7  1  0.16113990  0.82719677  0.15615826  1
  Cr  Cr8  1  0.99399148  0.66220563  0.32792528  1
  Cr  Cr9  1  0.32868857  0.99422190  0.99408862  1
  Cr  Cr10  1  0.49542759  0.16107674  0.16310722  1
  Cr  Cr11  1  0.32819838  0.99375144  0.33015898  1
  Cr  Cr12  1  0.32934296  0.32906188  0.99401544  1
  Fe  Fe13  1  0.49487232  0.49376037  0.16229026  1
  Fe  Fe14  1  0.32872909  0.32953316  0.32853536  1
  Fe  Fe15  1  0.32825639  0.66072462  0.99389744  1
  Fe  Fe16  1  0.49499996  0.82813181  0.16165793  1
  Cr  Cr17  1  0.32960094  0.66192572  0.32653698  1
  Cr  Cr18  1  0.66064399  -0.00479573  -0.00502507  1
  Cr  Cr19  1  0.82773525  0.16092950  0.16289398  1
  Fe  Fe20  1  0.66113672  0.99217841  0.32843082  1
  Cr  Cr21  1  0.66069634  0.32848746  0.99213056  1
  Fe  Fe22  1  0.82808883  0.49387039  0.16222577  1
  Fe  Fe23  1  0.66064950  0.32897472  0.32757176  1
  Cr  Cr24  1  0.66034841  0.66019925  -0.00092415  1
  Fe  Fe25  1  0.82810414  0.82818435  0.16167586  1
  Cr  Cr26  1  0.66066492  0.66146546  0.32801265  1
  Fe  Fe27  1  0.16266936  0.16257074  0.49498875  1
  Cr  Cr28  1  -0.00325824  0.99396471  0.65973937  1
  Cr  Cr29  1  0.16297820  0.16052385  0.82684298  1
  Cr  Cr30  1  0.16264574  0.49366482  0.49491162  1
  Cr  Cr31  1  -0.00461187  0.32766501  0.66241990  1
  Fe  Fe32  1  0.16255065  0.49798065  0.82777669  1
  Fe  Fe33  1  0.16392673  0.82776526  0.49555896  1
  Cr  Cr34  1  -0.00372376  0.66259016  0.66024307  1
  Fe  Fe35  1  0.16252376  0.82480397  0.82810193  1
  Cr  Cr36  1  0.49371985  0.16120803  0.49492024  1
  Fe  Fe37  1  0.32725262  0.99407508  0.66030623  1
  Fe  Fe38  1  0.49391868  0.16057606  0.82713759  1
  Cr  Cr39  1  0.49438807  0.49540178  0.49716742  1
  Fe  Fe40  1  0.32709542  0.32679374  0.66202434  1
  Cr  Cr41  1  0.49228885  0.49695167  0.82515980  1
  Fe  Fe42  1  0.49490584  0.82755756  0.49643480  1
  Fe  Fe43  1  0.32736901  0.66346682  0.66045896  1
  Cr  Cr44  1  0.49319394  0.82771652  0.82678720  1
  Cr  Cr45  1  0.82760766  0.16145531  0.49288709  1
  Cr  Cr46  1  0.66068375  0.99469691  0.66199419  1
  Fe  Fe47  1  0.82767982  0.16035227  0.82776999  1
  Cr  Cr48  1  0.82723882  0.49512492  0.49491039  1
  Cr  Cr49  1  0.66053987  0.32821341  0.66621637  1
  Cr  Cr50  1  0.82896111  0.49721367  0.82743751  1
  Fe  Fe51  1  0.82584677  0.82780255  0.49530709  1
  Fe  Fe52  1  0.66144484  0.66315250  0.66019167  1
  Cr  Cr53  1  0.82841222  0.82766362  0.82873829  1
" 