7687,Fe60Cr40_1,-213.974230676534, 189.540962416999,Fe60Cr40,"# generated using pymatgen
 data_Cr16Fe11
_symmetry_space_group_name_H-M   'P 1'
_cell_length_a   7.54487854
_cell_length_b   7.54487854
_cell_length_c   10.67006955
_cell_angle_alpha   90.00000000
_cell_angle_beta   90.00000000
_cell_angle_gamma   90.00000000
_symmetry_Int_Tables_number   1
_chemical_formula_structural   Cr16Fe11
_chemical_formula_sum   'Cr32 Fe22'
_cell_volume   607.39575956
_cell_formula_units_Z   2
loop_
 _symmetry_equiv_pos_site_id
 _symmetry_equiv_pos_as_xyz
  1  'x, y, z'
loop_
 _atom_site_type_symbol
 _atom_site_label
 _atom_site_symmetry_multiplicity
 _atom_site_fract_x
 _atom_site_fract_y
 _atom_site_fract_z
 _atom_site_occupancy
  Fe  Fe0  1  -0.00407583  0.99479912  -0.00512897  1
  Fe  Fe1  1  0.16065423  0.16135137  0.16062376  1
  Cr  Cr2  1  0.99135397  -0.00420301  0.32412853  1
  Cr  Cr3  1  -0.00477464  0.32671819  -0.00268194  1
  Fe  Fe4  1  0.16184447  0.49487268  0.16188855  1
  Cr  Cr5  1  -0.00454562  0.32893045  0.32670082  1
  Cr  Cr6  1  -0.00475556  0.66245283  0.99323600  1
  Cr  Cr7  1  0.16128436  0.83119210  0.16043575  1
  Fe  Fe8  1  -0.00475950  0.66047304  0.32793935  1
  Fe  Fe9  1  0.32727241  0.99479630  0.99396298  1
  Cr  Cr10  1  0.49420783  0.16378673  0.16110964  1
  Cr  Cr11  1  0.33073960  -0.00515354  0.33004925  1
  Cr  Cr12  1  0.32795720  0.32954825  -0.00306443  1
  Fe  Fe13  1  0.49578693  0.49515571  0.16150607  1
  Cr  Cr14  1  0.32742033  0.33048890  0.32749058  1
  Cr  Cr15  1  0.32891971  0.66064260  0.99458374  1
  Cr  Cr16  1  0.49433732  0.82620598  0.16240627  1
  Cr  Cr17  1  0.32827125  0.65923732  0.32822191  1
  Cr  Cr18  1  0.66325431  0.99433373  0.99198487  1
  Fe  Fe19  1  0.82781354  0.16121455  0.16132509  1
  Fe  Fe20  1  0.66080090  -0.00451577  0.32856104  1
  Fe  Fe21  1  0.66120829  0.32878700  -0.00473253  1
  Cr  Cr22  1  0.82401088  0.49452606  0.16229543  1
  Fe  Fe23  1  0.66095599  0.32750600  0.32777399  1
  Fe  Fe24  1  0.66125736  0.66098702  0.99438308  1
  Cr  Cr25  1  0.82901222  0.82710035  0.16272542  1
  Fe  Fe26  1  0.66151283  0.66148867  0.32826669  1
  Cr  Cr27  1  0.16292167  0.16148727  0.49609178  1
  Cr  Cr28  1  0.99221744  0.99379915  0.66378956  1
  Cr  Cr29  1  0.16291222  0.15871805  0.82925123  1
  Fe  Fe30  1  0.15977207  0.49532961  0.49525499  1
  Fe  Fe31  1  -0.00416177  0.32996639  0.66158748  1
  Fe  Fe32  1  0.16045589  0.49533206  0.82735998  1
  Cr  Cr33  1  0.16174757  0.82740868  0.49471759  1
  Fe  Fe34  1  -0.00421683  0.66064600  0.66258033  1
  Fe  Fe35  1  0.16102204  0.82751617  0.82863634  1
  Fe  Fe36  1  0.49589757  0.16062739  0.49370196  1
  Cr  Cr37  1  0.33196066  0.99413127  0.66171379  1
  Fe  Fe38  1  0.49486464  0.16084679  0.82927236  1
  Cr  Cr39  1  0.49634069  0.49439649  0.49218341  1
  Cr  Cr40  1  0.32634447  0.32952579  0.66020706  1
  Cr  Cr41  1  0.49700280  0.49455459  0.83221213  1
  Fe  Fe42  1  0.49594582  0.82894241  0.49375549  1
  Cr  Cr43  1  0.32605760  0.66080323  0.66178965  1
  Fe  Fe44  1  0.49482948  0.82920374  0.82929123  1
  Cr  Cr45  1  0.82693831  0.16308372  0.49406317  1
  Cr  Cr46  1  0.66048437  0.99418844  0.66000122  1
  Cr  Cr47  1  0.82868622  0.16274040  0.82880706  1
  Cr  Cr48  1  0.82890905  0.49558122  0.49601575  1
  Cr  Cr49  1  0.66158985  0.32526470  0.66194141  1
  Cr  Cr50  1  0.82729202  0.49585565  0.82633666  1
  Cr  Cr51  1  0.82809464  0.82587145  0.49266062  1
  Cr  Cr52  1  0.66193116  0.66512722  0.66355156  1
  Fe  Fe53  1  0.82867084  0.82780480  0.82871051  1
" 