8047,Fe60Cr40_8,-213.979827852336, 187.829579946559,Fe60Cr40,"# generated using pymatgen
 data_Cr16Fe11
_symmetry_space_group_name_H-M   'P 1'
_cell_length_a   7.54566203
_cell_length_b   7.54566203
_cell_length_c   10.67117758
_cell_angle_alpha   90.00000000
_cell_angle_beta   90.00000000
_cell_angle_gamma   90.00000000
_symmetry_Int_Tables_number   1
_chemical_formula_structural   Cr16Fe11
_chemical_formula_sum   'Cr32 Fe22'
_cell_volume   607.58500379
_cell_formula_units_Z   2
loop_
 _symmetry_equiv_pos_site_id
 _symmetry_equiv_pos_as_xyz
  1  'x, y, z'
loop_
 _atom_site_type_symbol
 _atom_site_label
 _atom_site_symmetry_multiplicity
 _atom_site_fract_x
 _atom_site_fract_y
 _atom_site_fract_z
 _atom_site_occupancy
  Fe  Fe0  1  0.99383588  0.99250449  -0.00431164  1
  Cr  Cr1  1  0.16214901  0.16005647  0.16051679  1
  Cr  Cr2  1  -0.00423908  -0.00378747  0.32876532  1
  Cr  Cr3  1  -0.00430441  0.32806403  -0.00055021  1
  Fe  Fe4  1  0.16263820  0.49395051  0.16104585  1
  Fe  Fe5  1  0.99453050  0.32935634  0.32673916  1
  Fe  Fe6  1  0.99293284  0.66168240  -0.00369281  1
  Cr  Cr7  1  0.16171362  0.82511661  0.16181867  1
  Cr  Cr8  1  0.99315546  0.65942901  0.32409966  1
  Fe  Fe9  1  0.32838349  0.99413657  -0.00518258  1
  Cr  Cr10  1  0.49687410  0.16059464  0.16000103  1
  Fe  Fe11  1  0.32769692  -0.00496750  0.32773195  1
  Fe  Fe12  1  0.32920284  0.32887058  -0.00375512  1
  Fe  Fe13  1  0.49511084  0.49451243  0.16053516  1
  Cr  Cr14  1  0.32683147  0.32722465  0.32628096  1
  Cr  Cr15  1  0.33002600  0.66080698  -0.00397647  1
  Cr  Cr16  1  0.49488097  0.82860974  0.16656808  1
  Fe  Fe17  1  0.32761793  0.65848349  0.32623351  1
  Fe  Fe18  1  0.66128031  0.99143463  -0.00503311  1
  Cr  Cr19  1  0.82590839  0.16201381  0.16058966  1
  Fe  Fe20  1  0.66340010  -0.00502531  0.32720335  1
  Fe  Fe21  1  0.66044738  0.33170897  -0.00419071  1
  Fe  Fe22  1  0.82658097  0.49685697  0.15912553  1
  Cr  Cr23  1  0.66323240  0.33035626  0.32690714  1
  Fe  Fe24  1  0.66248793  0.66203957  -0.00407936  1
  Fe  Fe25  1  0.82748710  0.82902883  0.15976936  1
  Cr  Cr26  1  0.66196762  0.66088733  0.32758668  1
  Fe  Fe27  1  0.16312333  0.16076988  0.49338517  1
  Fe  Fe28  1  0.99421481  0.99433331  0.66110570  1
  Cr  Cr29  1  0.16128926  0.16140887  0.82788921  1
  Cr  Cr30  1  0.16060959  0.49554921  0.49390363  1
  Cr  Cr31  1  -0.00378286  0.32584005  0.65565026  1
  Cr  Cr32  1  0.16274709  0.49460986  0.82845417  1
  Cr  Cr33  1  0.16248795  0.82633332  0.49320880  1
  Cr  Cr34  1  0.99308002  0.66229323  0.66272118  1
  Cr  Cr35  1  0.15898139  0.82789041  0.82926104  1
  Cr  Cr36  1  0.49606968  0.16072242  0.49189971  1
  Cr  Cr37  1  0.32723018  -0.00390775  0.66066334  1
  Cr  Cr38  1  0.49534555  0.16378144  0.83194164  1
  Cr  Cr39  1  0.49398310  0.49524030  0.49670663  1
  Fe  Fe40  1  0.32887646  0.32808301  0.66141600  1
  Fe  Fe41  1  0.49494822  0.49509434  0.83014201  1
  Cr  Cr42  1  0.49361503  0.82815329  0.48922069  1
  Cr  Cr43  1  0.33036384  0.66285009  0.66281668  1
  Fe  Fe44  1  0.49540235  0.82904674  0.83120617  1
  Cr  Cr45  1  0.82809735  0.16293368  0.49374201  1
  Cr  Cr46  1  0.66051848  0.99346342  0.66218297  1
  Cr  Cr47  1  0.82775304  0.16017308  0.82971434  1
  Fe  Fe48  1  0.82780900  0.49612024  0.49431721  1
  Cr  Cr49  1  0.66090834  0.32928270  0.66161132  1
  Cr  Cr50  1  0.82796230  0.49491757  0.82819813  1
  Cr  Cr51  1  0.82806232  0.82839075  0.49556815  1
  Cr  Cr52  1  0.66020595  0.66267514  0.66399135  1
  Fe  Fe53  1  0.82697013  0.82870709  0.83103736  1
" 