2551,Fe60Cr40_11,-213.937560901537, 186.052807248668,Fe60Cr40,"# generated using pymatgen
 data_Cr16Fe11
_symmetry_space_group_name_H-M   'P 1'
_cell_length_a   7.54374967
_cell_length_b   7.54374967
_cell_length_c   10.66847310
_cell_angle_alpha   90.00000000
_cell_angle_beta   90.00000000
_cell_angle_gamma   90.00000000
_symmetry_Int_Tables_number   1
_chemical_formula_structural   Cr16Fe11
_chemical_formula_sum   'Cr32 Fe22'
_cell_volume   607.12316468
_cell_formula_units_Z   2
loop_
 _symmetry_equiv_pos_site_id
 _symmetry_equiv_pos_as_xyz
  1  'x, y, z'
loop_
 _atom_site_type_symbol
 _atom_site_label
 _atom_site_symmetry_multiplicity
 _atom_site_fract_x
 _atom_site_fract_y
 _atom_site_fract_z
 _atom_site_occupancy
  Cr  Cr0  1  -0.00315672  -0.00336416  0.99446948  1
  Fe  Fe1  1  0.16255167  0.16236888  0.16167781  1
  Cr  Cr2  1  -0.00459812  0.99484757  0.32800719  1
  Fe  Fe3  1  -0.00450824  0.32769908  -0.00463578  1
  Cr  Cr4  1  0.16147809  0.49462423  0.16270890  1
  Cr  Cr5  1  0.99490608  0.32870841  0.32721540  1
  Cr  Cr6  1  0.99293720  0.66082084  -0.00356049  1
  Cr  Cr7  1  0.16031243  0.82720756  0.16293064  1
  Fe  Fe8  1  0.99447040  0.66132988  0.32769223  1
  Cr  Cr9  1  0.32737645  0.99459428  0.99413173  1
  Fe  Fe10  1  0.49426168  0.16288894  0.16201269  1
  Cr  Cr11  1  0.32767229  -0.00367005  0.32672651  1
  Cr  Cr12  1  0.32697595  0.32732532  -0.00324702  1
  Fe  Fe13  1  0.49577153  0.49405041  0.16147711  1
  Fe  Fe14  1  0.32966046  0.32859481  0.32768277  1
  Fe  Fe15  1  0.32954199  0.66201384  0.99458077  1
  Cr  Cr16  1  0.49635322  0.82885203  0.15849947  1
  Cr  Cr17  1  0.32929213  0.65973179  0.33027745  1
  Fe  Fe18  1  0.66114573  0.99361220  -0.00463447  1
  Cr  Cr19  1  0.82644768  0.16173558  0.16154624  1
  Cr  Cr20  1  0.66167411  -0.00481960  0.32969426  1
  Cr  Cr21  1  0.66253131  0.33123939  -0.00307451  1
  Fe  Fe22  1  0.82739941  0.49600943  0.16158587  1
  Fe  Fe23  1  0.66018391  0.32858947  0.32781482  1
  Fe  Fe24  1  0.66058502  0.66257677  -0.00419971  1
  Fe  Fe25  1  0.82791132  0.82683720  0.16114820  1
  Cr  Cr26  1  0.66170113  0.65923291  0.32679706  1
  Cr  Cr27  1  0.16290275  0.16361957  0.49419126  1
  Cr  Cr28  1  -0.00377531  -0.00413277  0.66226357  1
  Fe  Fe29  1  0.16150294  0.16171436  0.82816590  1
  Fe  Fe30  1  0.16288229  0.49534892  0.49535433  1
  Cr  Cr31  1  -0.00424652  0.32796642  0.66365478  1
  Cr  Cr32  1  0.16211493  0.49589973  0.82589932  1
  Cr  Cr33  1  0.16100747  0.82423360  0.49480630  1
  Fe  Fe34  1  -0.00344893  0.66168743  0.66169122  1
  Fe  Fe35  1  0.16289665  0.82778900  0.82782679  1
  Cr  Cr36  1  0.49632653  0.16356422  0.49310513  1
  Cr  Cr37  1  0.32749141  0.99278531  0.66387782  1
  Cr  Cr38  1  0.49476170  0.16008802  0.82847167  1
  Fe  Fe39  1  0.49304844  0.49503957  0.49501341  1
  Fe  Fe40  1  0.32791645  0.32944278  0.66125505  1
  Cr  Cr41  1  0.49282409  0.49656660  0.82816921  1
  Fe  Fe42  1  0.49446568  0.82693673  0.49523445  1
  Fe  Fe43  1  0.32780586  0.66114518  0.66103254  1
  Fe  Fe44  1  0.49413201  0.82726052  0.82925858  1
  Fe  Fe45  1  0.82793506  0.16193765  0.49446501  1
  Cr  Cr46  1  0.66103501  0.99391276  0.66070063  1
  Cr  Cr47  1  0.82817854  0.16125754  0.82725480  1
  Cr  Cr48  1  0.82949072  0.49488699  0.49473478  1
  Cr  Cr49  1  0.66184415  0.32958387  0.65896396  1
  Cr  Cr50  1  0.82980682  0.49509669  0.83007698  1
  Cr  Cr51  1  0.82942544  0.82855435  0.49341801  1
  Cr  Cr52  1  0.65876503  0.66125165  0.66164942  1
  Cr  Cr53  1  0.82750664  0.82840030  0.82961442  1
" 