2316,Fe60Cr40_7,-214.165711400987, 190.099500487225,Fe60Cr40,"# generated using pymatgen
 data_Cr16Fe11
_symmetry_space_group_name_H-M   'P 1'
_cell_length_a   7.54897679
_cell_length_b   7.54897679
_cell_length_c   10.67586536
_cell_angle_alpha   90.00000000
_cell_angle_beta   90.00000000
_cell_angle_gamma   90.00000000
_symmetry_Int_Tables_number   1
_chemical_formula_structural   Cr16Fe11
_chemical_formula_sum   'Cr32 Fe22'
_cell_volume   608.38607914
_cell_formula_units_Z   2
loop_
 _symmetry_equiv_pos_site_id
 _symmetry_equiv_pos_as_xyz
  1  'x, y, z'
loop_
 _atom_site_type_symbol
 _atom_site_label
 _atom_site_symmetry_multiplicity
 _atom_site_fract_x
 _atom_site_fract_y
 _atom_site_fract_z
 _atom_site_occupancy
  Fe  Fe0  1  0.99299374  -0.00517881  0.99386160  1
  Cr  Cr1  1  0.15997819  0.15911527  0.15867222  1
  Fe  Fe2  1  0.99372266  -0.00267073  0.32870245  1
  Fe  Fe3  1  -0.00367890  0.32927879  0.99435498  1
  Fe  Fe4  1  0.16005470  0.49404033  0.15958150  1
  Cr  Cr5  1  0.99444144  0.32722743  0.32926379  1
  Fe  Fe6  1  0.99392784  0.66053387  0.99414026  1
  Cr  Cr7  1  0.15892436  0.82921785  0.16327580  1
  Cr  Cr8  1  -0.00367141  0.65651756  0.32913337  1
  Cr  Cr9  1  0.33065178  0.99182397  0.99307588  1
  Cr  Cr10  1  0.49311478  0.16449156  0.15962192  1
  Cr  Cr11  1  0.32863355  -0.00527623  0.32917950  1
  Fe  Fe12  1  0.32651617  0.32917362  0.99454391  1
  Cr  Cr13  1  0.49566762  0.49386466  0.16315204  1
  Cr  Cr14  1  0.32319322  0.32921094  0.32821174  1
  Cr  Cr15  1  0.32456971  0.65986887  0.99441598  1
  Fe  Fe16  1  0.49419211  0.82693497  0.16209492  1
  Fe  Fe17  1  0.32742238  0.66025690  0.32748297  1
  Cr  Cr18  1  0.66290787  0.99445474  0.99308530  1
  Fe  Fe19  1  0.83020027  0.16074072  0.16033991  1
  Cr  Cr20  1  0.66234782  0.99441569  0.32458861  1
  Cr  Cr21  1  0.66652129  0.32581172  0.99441867  1
  Cr  Cr22  1  0.82685119  0.49544016  0.16126747  1
  Cr  Cr23  1  0.66594255  0.32545914  0.33017558  1
  Cr  Cr24  1  0.66068381  0.66452863  0.99404945  1
  Cr  Cr25  1  0.83155329  0.82730703  0.16154614  1
  Fe  Fe26  1  0.66243801  0.66081310  0.32774494  1
  Fe  Fe27  1  0.15782394  0.16170619  0.49572535  1
  Fe  Fe28  1  0.99370034  -0.00317736  0.66114058  1
  Cr  Cr29  1  0.16080491  0.15983480  0.82898271  1
  Fe  Fe30  1  0.16035203  0.49571035  0.49572274  1
  Fe  Fe31  1  0.99211240  0.32748227  0.66002473  1
  Fe  Fe32  1  0.15924960  0.49340471  0.82866061  1
  Cr  Cr33  1  0.15837627  0.83112611  0.49390770  1
  Fe  Fe34  1  -0.00504597  0.65955717  0.66045543  1
  Cr  Cr35  1  0.15485572  0.82818631  0.82647440  1
  Cr  Cr36  1  0.49392288  0.16365075  0.49690638  1
  Cr  Cr37  1  0.32896250  0.99345128  0.66100219  1
  Cr  Cr38  1  0.49394486  0.16509398  0.82713027  1
  Cr  Cr39  1  0.49825749  0.49324408  0.49353252  1
  Cr  Cr40  1  0.32180178  0.32922376  0.66083813  1
  Cr  Cr41  1  0.49606391  0.49207727  0.82740095  1
  Cr  Cr42  1  0.49495262  0.82627189  0.49159933  1
  Cr  Cr43  1  0.32572045  0.66111952  0.66177560  1
  Fe  Fe44  1  0.49320683  0.82683543  0.82765877  1
  Fe  Fe45  1  0.82918578  0.15958254  0.49677772  1
  Cr  Cr46  1  0.66257870  -0.00490630  0.66557271  1
  Fe  Fe47  1  0.83093604  0.16206226  0.82732299  1
  Fe  Fe48  1  0.83013590  0.49355348  0.49728502  1
  Fe  Fe49  1  0.66395815  0.32799799  0.66058488  1
  Cr  Cr50  1  0.82875890  0.49665779  0.82609842  1
  Cr  Cr51  1  0.83073599  0.82672366  0.49409083  1
  Cr  Cr52  1  0.66237357  0.66377914  0.66221444  1
  Fe  Fe53  1  0.82914289  0.82931769  0.82810223  1
" 