3721,Fe60Cr40_12,-214.217023747325, 184.675453582219,Fe60Cr40,"# generated using pymatgen
 data_Cr16Fe11
_symmetry_space_group_name_H-M   'P 1'
_cell_length_a   7.55713009
_cell_length_b   7.55713009
_cell_length_c   10.68739587
_cell_angle_alpha   90.00000000
_cell_angle_beta   90.00000000
_cell_angle_gamma   90.00000000
_symmetry_Int_Tables_number   1
_chemical_formula_structural   Cr16Fe11
_chemical_formula_sum   'Cr32 Fe22'
_cell_volume   610.35947879
_cell_formula_units_Z   2
loop_
 _symmetry_equiv_pos_site_id
 _symmetry_equiv_pos_as_xyz
  1  'x, y, z'
loop_
 _atom_site_type_symbol
 _atom_site_label
 _atom_site_symmetry_multiplicity
 _atom_site_fract_x
 _atom_site_fract_y
 _atom_site_fract_z
 _atom_site_occupancy
  Fe  Fe0  1  -0.00351706  0.99336164  -0.00585371  1
  Cr  Cr1  1  0.16240210  0.15897002  0.16132551  1
  Cr  Cr2  1  -0.00438183  0.99241671  0.32871627  1
  Cr  Cr3  1  -0.00466609  0.32672688  -0.00524168  1
  Cr  Cr4  1  0.16478768  0.49688552  0.16217431  1
  Cr  Cr5  1  -0.00582246  0.32806499  0.32345840  1
  Cr  Cr6  1  -0.00549645  0.65940931  -0.00463199  1
  Fe  Fe7  1  0.16388477  0.82819580  0.16062848  1
  Cr  Cr8  1  -0.00551708  0.66131509  0.32871449  1
  Fe  Fe9  1  0.32688465  0.99292234  -0.00492858  1
  Cr  Cr10  1  0.49367279  0.16004663  0.16338555  1
  Fe  Fe11  1  0.32711621  0.99098070  0.32910436  1
  Cr  Cr12  1  0.32598259  0.32544507  0.98956062  1
  Cr  Cr13  1  0.49124056  0.49517947  0.16202106  1
  Fe  Fe14  1  0.32964617  0.32699948  0.32904728  1
  Fe  Fe15  1  0.32676488  0.66205296  -0.00496016  1
  Fe  Fe16  1  0.49049372  0.82767384  0.16015465  1
  Fe  Fe17  1  0.32827278  0.66463910  0.32914850  1
  Fe  Fe18  1  0.65882557  -0.00533690  -0.00517573  1
  Cr  Cr19  1  0.82592093  0.15831702  0.16021845  1
  Cr  Cr20  1  0.65674565  0.99217657  0.32773925  1
  Cr  Cr21  1  0.66071351  0.32797906  -0.00529082  1
  Cr  Cr22  1  0.82571907  0.49422172  0.16284966  1
  Fe  Fe23  1  0.65898536  0.32817657  0.32920731  1
  Cr  Cr24  1  0.65881553  0.66266156  -0.00588974  1
  Cr  Cr25  1  0.82742127  0.82955328  0.15845172  1
  Cr  Cr26  1  0.65929064  0.66161551  0.32980088  1
  Cr  Cr27  1  0.16215372  0.16082706  0.49414017  1
  Fe  Fe28  1  -0.00579064  0.99327207  0.65868648  1
  Fe  Fe29  1  0.16060448  0.15807624  0.82661555  1
  Cr  Cr30  1  0.16331173  0.49518444  0.49305418  1
  Cr  Cr31  1  -0.00452959  0.32691578  0.66418470  1
  Cr  Cr32  1  0.16266057  0.49586528  0.82659280  1
  Fe  Fe33  1  0.16120608  0.82747569  0.49488676  1
  Fe  Fe34  1  0.99400326  0.66254104  0.65779979  1
  Cr  Cr35  1  0.15941882  0.82821575  0.82745949  1
  Fe  Fe36  1  0.49330277  0.16289306  0.49310032  1
  Cr  Cr37  1  0.32750508  -0.00474911  0.65957621  1
  Cr  Cr38  1  0.49429880  0.16067029  0.82562124  1
  Fe  Fe39  1  0.49529028  0.49216806  0.49442898  1
  Fe  Fe40  1  0.32910219  0.32738498  0.65954308  1
  Cr  Cr41  1  0.49358391  0.49454497  0.82473988  1
  Fe  Fe42  1  0.49202116  0.82686629  0.49370128  1
  Cr  Cr43  1  0.32953934  0.66260970  0.66060793  1
  Cr  Cr44  1  0.49411715  0.82740383  0.83172335  1
  Cr  Cr45  1  0.82594604  0.15975866  0.49221244  1
  Cr  Cr46  1  0.65852434  0.99160008  0.65889219  1
  Cr  Cr47  1  0.82746015  0.15734730  0.82994467  1
  Fe  Fe48  1  0.82726511  0.49325019  0.49569177  1
  Fe  Fe49  1  0.65982968  0.32707443  0.65865492  1
  Cr  Cr50  1  0.82610763  0.49584365  0.82452068  1
  Fe  Fe51  1  0.82811660  0.82580482  0.49582632  1
  Fe  Fe52  1  0.66092390  0.66022153  0.65741871  1
  Cr  Cr53  1  0.82799667  0.82843861  0.82479645  1
" 