2444,Fe60Cr40_10,-214.102619770964, 185.887971978116,Fe60Cr40,"# generated using pymatgen
 data_Cr16Fe11
_symmetry_space_group_name_H-M   'P 1'
_cell_length_a   7.55005085
_cell_length_b   7.55005085
_cell_length_c   10.67738431
_cell_angle_alpha   90.00000000
_cell_angle_beta   90.00000000
_cell_angle_gamma   90.00000000
_symmetry_Int_Tables_number   1
_chemical_formula_structural   Cr16Fe11
_chemical_formula_sum   'Cr32 Fe22'
_cell_volume   608.64579760
_cell_formula_units_Z   2
loop_
 _symmetry_equiv_pos_site_id
 _symmetry_equiv_pos_as_xyz
  1  'x, y, z'
loop_
 _atom_site_type_symbol
 _atom_site_label
 _atom_site_symmetry_multiplicity
 _atom_site_fract_x
 _atom_site_fract_y
 _atom_site_fract_z
 _atom_site_occupancy
  Cr  Cr0  1  -0.00535217  0.99372621  0.99183597  1
  Cr  Cr1  1  0.16011019  0.16271486  0.16139922  1
  Cr  Cr2  1  0.99387581  -0.00543206  0.32816339  1
  Fe  Fe3  1  -0.00532223  0.32640781  0.99417919  1
  Cr  Cr4  1  0.15905281  0.49362213  0.16166609  1
  Fe  Fe5  1  0.99444825  0.32673809  0.32783304  1
  Cr  Cr6  1  0.99389213  0.66444231  0.99357375  1
  Cr  Cr7  1  0.16371363  0.82720521  0.16009536  1
  Cr  Cr8  1  -0.00543959  0.66380579  0.32764456  1
  Cr  Cr9  1  0.32635543  -0.00479251  -0.00444924  1
  Fe  Fe10  1  0.49517719  0.16188531  0.16150286  1
  Cr  Cr11  1  0.32767896  0.99422403  0.32736633  1
  Fe  Fe12  1  0.32632296  0.32696383  0.99439489  1
  Cr  Cr13  1  0.49491990  0.49658151  0.15836056  1
  Cr  Cr14  1  0.32864851  0.32753025  0.32873366  1
  Cr  Cr15  1  0.32724839  0.66048002  0.99388993  1
  Fe  Fe16  1  0.49679321  0.82845932  0.16122567  1
  Cr  Cr17  1  0.32914211  0.66124465  0.32891885  1
  Cr  Cr18  1  0.66343999  -0.00411217  -0.00190507  1
  Fe  Fe19  1  0.82776060  0.16172446  0.16184563  1
  Fe  Fe20  1  0.66089368  0.99307520  0.32644446  1
  Cr  Cr21  1  0.65883517  0.32874762  0.99212808  1
  Cr  Cr22  1  0.82895182  0.49340809  0.16060949  1
  Cr  Cr23  1  0.66003895  0.32699332  0.32931345  1
  Fe  Fe24  1  0.66173833  0.66378136  0.99406789  1
  Fe  Fe25  1  0.82717341  0.82795171  0.16157953  1
  Cr  Cr26  1  0.66093457  0.66151547  0.32957397  1
  Fe  Fe27  1  0.16069019  0.16122265  0.49676131  1
  Fe  Fe28  1  -0.00483033  0.99341903  0.66093365  1
  Cr  Cr29  1  0.16189937  0.16089048  0.82406418  1
  Cr  Cr30  1  0.15932657  0.49447736  0.49277649  1
  Fe  Fe31  1  0.99443682  0.32844200  0.66060411  1
  Cr  Cr32  1  0.16001338  0.49439262  0.82892775  1
  Cr  Cr33  1  0.16410707  0.82795826  0.49844171  1
  Fe  Fe34  1  0.99447525  0.66204411  0.66208957  1
  Fe  Fe35  1  0.16091393  0.82789942  0.82416346  1
  Cr  Cr36  1  0.49383673  0.15626595  0.49512639  1
  Fe  Fe37  1  0.32878790  0.99354970  0.66130582  1
  Cr  Cr38  1  0.49325101  0.15936846  0.82829771  1
  Fe  Fe39  1  0.49306997  0.49456622  0.49595779  1
  Fe  Fe40  1  0.32684153  0.32921265  0.65980285  1
  Fe  Fe41  1  0.49228952  0.49424722  0.82804646  1
  Fe  Fe42  1  0.49584718  0.82613218  0.49600000  1
  Fe  Fe43  1  0.32848051  0.65929350  0.66194192  1
  Cr  Cr44  1  0.49441792  0.82804791  0.82871218  1
  Cr  Cr45  1  0.82833282  0.16136592  0.49362549  1
  Cr  Cr46  1  0.66432364  0.99403409  0.66033782  1
  Cr  Cr47  1  0.82824758  0.16181233  0.82676875  1
  Cr  Cr48  1  0.82932651  0.49462275  0.49382775  1
  Cr  Cr49  1  0.65789062  0.32923539  0.66181771  1
  Cr  Cr50  1  0.82809806  0.49580921  0.82919307  1
  Fe  Fe51  1  0.82848576  0.82813338  0.49530566  1
  Cr  Cr52  1  0.66126645  0.65932512  0.66178255  1
  Fe  Fe53  1  0.82831123  0.82850943  0.82656555  1
" 