3441,Fe60Cr40_4,-214.231229492306, 185.880338857225,Fe60Cr40,"# generated using pymatgen
 data_Cr16Fe11
_symmetry_space_group_name_H-M   'P 1'
_cell_length_a   7.55514814
_cell_length_b   7.55514814
_cell_length_c   10.68459297
_cell_angle_alpha   90.00000000
_cell_angle_beta   90.00000000
_cell_angle_gamma   90.00000000
_symmetry_Int_Tables_number   1
_chemical_formula_structural   Cr16Fe11
_chemical_formula_sum   'Cr32 Fe22'
_cell_volume   609.87938206
_cell_formula_units_Z   2
loop_
 _symmetry_equiv_pos_site_id
 _symmetry_equiv_pos_as_xyz
  1  'x, y, z'
loop_
 _atom_site_type_symbol
 _atom_site_label
 _atom_site_symmetry_multiplicity
 _atom_site_fract_x
 _atom_site_fract_y
 _atom_site_fract_z
 _atom_site_occupancy
  Fe  Fe0  1  -0.00563803  0.99269862  -0.00572161  1
  Cr  Cr1  1  0.16270528  0.15990885  0.15720437  1
  Cr  Cr2  1  0.99376670  0.99415388  0.32780929  1
  Cr  Cr3  1  0.99400645  0.32603863  -0.00558863  1
  Cr  Cr4  1  0.16140450  0.49684687  0.16295028  1
  Cr  Cr5  1  0.99141734  0.32549661  0.32730743  1
  Fe  Fe6  1  -0.00462267  0.66270404  -0.00552003  1
  Fe  Fe7  1  0.16258964  0.82705406  0.15812157  1
  Cr  Cr8  1  0.99415644  0.66337349  0.32625858  1
  Fe  Fe9  1  0.32797908  0.99238319  0.99384058  1
  Cr  Cr10  1  0.49623423  0.15793653  0.16225117  1
  Cr  Cr11  1  0.32708548  0.98854711  0.32515787  1
  Fe  Fe12  1  0.32780624  0.32802166  0.99312689  1
  Cr  Cr13  1  0.49237360  0.49408987  0.16111686  1
  Cr  Cr14  1  0.32714975  0.32669582  0.32882099  1
  Fe  Fe15  1  0.32877769  0.66203298  0.99396095  1
  Fe  Fe16  1  0.49296619  0.82664256  0.15882531  1
  Fe  Fe17  1  0.32795282  0.66260463  0.32648514  1
  Fe  Fe18  1  0.65990067  0.99257374  -0.00579528  1
  Fe  Fe19  1  0.82712470  0.15908036  0.15961460  1
  Fe  Fe20  1  0.66354593  0.99335538  0.32687848  1
  Cr  Cr21  1  0.66074494  0.32993711  -0.00578803  1
  Cr  Cr22  1  0.82853175  0.49659244  0.15837957  1
  Cr  Cr23  1  0.66434733  0.32707953  0.32730556  1
  Fe  Fe24  1  0.65829759  0.66365326  0.99367392  1
  Cr  Cr25  1  0.82724140  0.82951928  0.15797243  1
  Cr  Cr26  1  0.65946011  0.66271940  0.32648988  1
  Cr  Cr27  1  0.16199687  0.16007990  0.49702431  1
  Fe  Fe28  1  0.99214691  0.99314122  0.66006840  1
  Fe  Fe29  1  0.15951448  0.15938760  0.82943644  1
  Cr  Cr30  1  0.16144492  0.49651374  0.49284536  1
  Cr  Cr31  1  0.99328019  0.32587362  0.66072775  1
  Cr  Cr32  1  0.16142186  0.49496950  0.82746586  1
  Cr  Cr33  1  0.15918972  0.82526899  0.49470125  1
  Fe  Fe34  1  0.99412153  0.66216094  0.66046153  1
  Cr  Cr35  1  0.15848499  0.82781178  0.82875627  1
  Cr  Cr36  1  0.49679708  0.15873593  0.49211514  1
  Cr  Cr37  1  0.32643437  0.99118194  0.66358720  1
  Cr  Cr38  1  0.49286676  0.15964284  0.82918279  1
  Cr  Cr39  1  0.49235210  0.49476906  0.49460656  1
  Cr  Cr40  1  0.32799323  0.32713324  0.66427674  1
  Fe  Fe41  1  0.49422023  0.49798804  0.82852027  1
  Cr  Cr42  1  0.49616989  0.82891943  0.49413341  1
  Fe  Fe43  1  0.32908492  0.66099438  0.66207379  1
  Fe  Fe44  1  0.49492260  0.82516878  0.82829198  1
  Fe  Fe45  1  0.82688838  0.15720878  0.49546369  1
  Fe  Fe46  1  0.66184783  0.99350201  0.66034987  1
  Cr  Cr47  1  0.82666515  0.15713902  0.82822656  1
  Cr  Cr48  1  0.82860755  0.49771319  0.49523386  1
  Cr  Cr49  1  0.66120884  0.32995600  0.66115901  1
  Cr  Cr50  1  0.82762329  0.49859317  0.82883320  1
  Fe  Fe51  1  0.82674466  0.82959320  0.49632155  1
  Fe  Fe52  1  0.65917876  0.66296138  0.66106072  1
  Cr  Cr53  1  0.82664091  0.82700559  0.82509151  1
" 