4754,Fe60Cr40_2,-214.285134134604, 188.110703478781,Fe60Cr40,"# generated using pymatgen
 data_Cr16Fe11
_symmetry_space_group_name_H-M   'P 1'
_cell_length_a   7.55048490
_cell_length_b   7.55048490
_cell_length_c   10.67799815
_cell_angle_alpha   90.00000000
_cell_angle_beta   90.00000000
_cell_angle_gamma   90.00000000
_symmetry_Int_Tables_number   1
_chemical_formula_structural   Cr16Fe11
_chemical_formula_sum   'Cr32 Fe22'
_cell_volume   608.75077579
_cell_formula_units_Z   2
loop_
 _symmetry_equiv_pos_site_id
 _symmetry_equiv_pos_as_xyz
  1  'x, y, z'
loop_
 _atom_site_type_symbol
 _atom_site_label
 _atom_site_symmetry_multiplicity
 _atom_site_fract_x
 _atom_site_fract_y
 _atom_site_fract_z
 _atom_site_occupancy
  Fe  Fe0  1  -0.00329437  -0.00516769  0.99442290  1
  Fe  Fe1  1  0.16035682  0.16065182  0.15934953  1
  Cr  Cr2  1  -0.00538394  -0.00338300  0.32902798  1
  Fe  Fe3  1  0.99438204  0.32769368  -0.00463977  1
  Fe  Fe4  1  0.16172346  0.49471661  0.16120793  1
  Cr  Cr5  1  -0.00417157  0.32824722  0.32609104  1
  Cr  Cr6  1  -0.00397731  0.65962026  -0.00244641  1
  Cr  Cr7  1  0.16186981  0.82948966  0.16266684  1
  Fe  Fe8  1  -0.00305366  0.65982409  0.32627585  1
  Fe  Fe9  1  0.32588118  0.99327674  0.99348699  1
  Cr  Cr10  1  0.49218585  0.16081910  0.16157748  1
  Fe  Fe11  1  0.32659307  -0.00519386  0.32783159  1
  Cr  Cr12  1  0.32456721  0.32786803  -0.00552026  1
  Cr  Cr13  1  0.49674917  0.49247200  0.16135969  1
  Cr  Cr14  1  0.32568257  0.32702810  0.32767089  1
  Cr  Cr15  1  0.32778517  0.66073905  0.98922719  1
  Cr  Cr16  1  0.49188965  0.82919569  0.16170669  1
  Fe  Fe17  1  0.32636054  0.65968055  0.32701706  1
  Cr  Cr18  1  0.66062831  0.99376666  0.99105350  1
  Cr  Cr19  1  0.82675003  0.16311379  0.15632121  1
  Cr  Cr20  1  0.66158608  -0.00468699  0.33168571  1
  Fe  Fe21  1  0.66065795  0.32864604  0.99361541  1
  Fe  Fe22  1  0.82901606  0.49322552  0.16063117  1
  Fe  Fe23  1  0.66280160  0.32686679  0.32722588  1
  Cr  Cr24  1  0.66021423  0.66146741  0.99311985  1
  Cr  Cr25  1  0.82974636  0.82649402  0.16143441  1
  Cr  Cr26  1  0.66236899  0.66104386  0.32599944  1
  Cr  Cr27  1  0.16136282  0.16154314  0.49683872  1
  Fe  Fe28  1  0.99309575  -0.00350289  0.66147168  1
  Cr  Cr29  1  0.15888796  0.16086516  0.82927007  1
  Cr  Cr30  1  0.16170202  0.49482608  0.49768882  1
  Fe  Fe31  1  0.99400607  0.32678219  0.66214025  1
  Fe  Fe32  1  0.16092029  0.49378900  0.82597888  1
  Cr  Cr33  1  0.16078482  0.82685795  0.49307528  1
  Cr  Cr34  1  -0.00401441  0.66050226  0.66109696  1
  Fe  Fe35  1  0.16132203  0.82816554  0.82745320  1
  Cr  Cr36  1  0.49440962  0.16251516  0.49252204  1
  Cr  Cr37  1  0.32812093  0.99440754  0.66158556  1
  Cr  Cr38  1  0.49417837  0.16293737  0.82943243  1
  Cr  Cr39  1  0.49355202  0.49380538  0.49552594  1
  Fe  Fe40  1  0.32705318  0.32932678  0.66356495  1
  Fe  Fe41  1  0.49319344  0.49338780  0.82645560  1
  Cr  Cr42  1  0.49300132  0.82701779  0.49358552  1
  Fe  Fe43  1  0.32785258  0.66081655  0.66446791  1
  Fe  Fe44  1  0.49298502  0.82901590  0.82669826  1
  Fe  Fe45  1  0.82931982  0.16186097  0.49601638  1
  Fe  Fe46  1  0.66208595  -0.00466404  0.66153563  1
  Fe  Fe47  1  0.82864803  0.16159103  0.82821212  1
  Cr  Cr48  1  0.82841135  0.49409576  0.49080018  1
  Cr  Cr49  1  0.66223503  0.32616091  0.65971136  1
  Cr  Cr50  1  0.82843952  0.49266711  0.83142770  1
  Cr  Cr51  1  0.82951211  0.82750305  0.49555316  1
  Cr  Cr52  1  0.65954827  0.66254250  0.66421971  1
  Cr  Cr53  1  0.83110495  0.82930304  0.82790606  1
" 