7262,Fe60Cr40_19,-213.787749755011, 182.836262199497,Fe60Cr40,"# generated using pymatgen
 data_Cr16Fe11
_symmetry_space_group_name_H-M   'P 1'
_cell_length_a   7.54581467
_cell_length_b   7.54581467
_cell_length_c   10.67139345
_cell_angle_alpha   90.00000000
_cell_angle_beta   90.00000000
_cell_angle_gamma   90.00000000
_symmetry_Int_Tables_number   1
_chemical_formula_structural   Cr16Fe11
_chemical_formula_sum   'Cr32 Fe22'
_cell_volume   607.62187639
_cell_formula_units_Z   2
loop_
 _symmetry_equiv_pos_site_id
 _symmetry_equiv_pos_as_xyz
  1  'x, y, z'
loop_
 _atom_site_type_symbol
 _atom_site_label
 _atom_site_symmetry_multiplicity
 _atom_site_fract_x
 _atom_site_fract_y
 _atom_site_fract_z
 _atom_site_occupancy
  Fe  Fe0  1  0.99396434  0.99365807  -0.00456919  1
  Cr  Cr1  1  0.16079955  0.16008736  0.15951735  1
  Cr  Cr2  1  0.99434266  0.99414299  0.32321809  1
  Cr  Cr3  1  -0.00520703  0.32853351  0.99365536  1
  Cr  Cr4  1  0.16363094  0.49664055  0.16131741  1
  Cr  Cr5  1  0.99305892  0.33063668  0.32814000  1
  Fe  Fe6  1  0.99297937  0.66393815  -0.00374159  1
  Fe  Fe7  1  0.16304339  0.82736813  0.15884724  1
  Cr  Cr8  1  0.99414957  0.65960879  0.32584106  1
  Fe  Fe9  1  0.32670376  0.99455158  -0.00434277  1
  Cr  Cr10  1  0.49663720  0.16417115  0.16333455  1
  Cr  Cr11  1  0.32993580  0.99448503  0.32812113  1
  Fe  Fe12  1  0.32808911  0.32645381  -0.00503911  1
  Cr  Cr13  1  0.49602624  0.49466453  0.15834859  1
  Fe  Fe14  1  0.32918492  0.32823759  0.32821979  1
  Fe  Fe15  1  0.32733082  0.66370346  -0.00407879  1
  Fe  Fe16  1  0.49287083  0.82677044  0.15981582  1
  Fe  Fe17  1  0.32873030  0.66185653  0.32649234  1
  Cr  Cr18  1  0.66157118  0.99362656  -0.00391591  1
  Fe  Fe19  1  0.82737106  0.16317203  0.16055449  1
  Cr  Cr20  1  0.65983945  -0.00465643  0.32790645  1
  Fe  Fe21  1  0.66319640  0.32771120  -0.00435138  1
  Fe  Fe22  1  0.82692890  0.49392282  0.15912728  1
  Fe  Fe23  1  0.66208916  0.32850660  0.32804504  1
  Fe  Fe24  1  0.66411233  0.66153936  -0.00330418  1
  Fe  Fe25  1  0.82842701  0.82713430  0.15939057  1
  Cr  Cr26  1  0.66346486  0.66134111  0.32765208  1
  Cr  Cr27  1  0.15921994  0.16124573  0.49622515  1
  Fe  Fe28  1  0.99431353  -0.00302094  0.66412165  1
  Fe  Fe29  1  0.15927767  0.16069625  0.82933498  1
  Cr  Cr30  1  0.16189302  0.49427262  0.49364195  1
  Fe  Fe31  1  0.99387448  0.32596783  0.66275516  1
  Cr  Cr32  1  0.16221596  0.49446461  0.82867915  1
  Cr  Cr33  1  0.15958933  0.82860766  0.49291514  1
  Cr  Cr34  1  0.99367219  0.65804692  0.66035204  1
  Cr  Cr35  1  0.15808881  0.83048752  0.82900054  1
  Fe  Fe36  1  0.49429336  0.16297566  0.49339473  1
  Cr  Cr37  1  0.32900003  -0.00337278  0.66160044  1
  Cr  Cr38  1  0.49548317  0.16294977  0.83005707  1
  Cr  Cr39  1  0.49542017  0.49277244  0.49277155  1
  Cr  Cr40  1  0.32583035  0.32648963  0.66308668  1
  Cr  Cr41  1  0.49530429  0.49491402  0.83324180  1
  Cr  Cr42  1  0.49504323  0.82731035  0.49457198  1
  Cr  Cr43  1  0.32805992  0.66131990  0.66051477  1
  Cr  Cr44  1  0.49573041  0.82633047  0.82961042  1
  Cr  Cr45  1  0.82798920  0.16148695  0.49436281  1
  Cr  Cr46  1  0.66049742  -0.00489299  0.66182174  1
  Fe  Fe47  1  0.83073226  0.15947785  0.82807210  1
  Fe  Fe48  1  0.82811550  0.49403266  0.49472120  1
  Cr  Cr49  1  0.66254622  0.32770890  0.66054118  1
  Cr  Cr50  1  0.82685767  0.49496000  0.82821720  1
  Cr  Cr51  1  0.82988416  0.83007262  0.49798257  1
  Cr  Cr52  1  0.66265074  0.66166130  0.66289549  1
  Fe  Fe53  1  0.82930616  0.82938938  0.82946904  1
" 