8389,Fe60Cr40_16,-214.014624499139, 186.362109464386,Fe60Cr40,"# generated using pymatgen
 data_Cr16Fe11
_symmetry_space_group_name_H-M   'P 1'
_cell_length_a   7.54561273
_cell_length_b   7.54561273
_cell_length_c   10.67110786
_cell_angle_alpha   90.00000000
_cell_angle_beta   90.00000000
_cell_angle_gamma   90.00000000
_symmetry_Int_Tables_number   1
_chemical_formula_structural   Cr16Fe11
_chemical_formula_sum   'Cr32 Fe22'
_cell_volume   607.57309334
_cell_formula_units_Z   2
loop_
 _symmetry_equiv_pos_site_id
 _symmetry_equiv_pos_as_xyz
  1  'x, y, z'
loop_
 _atom_site_type_symbol
 _atom_site_label
 _atom_site_symmetry_multiplicity
 _atom_site_fract_x
 _atom_site_fract_y
 _atom_site_fract_z
 _atom_site_occupancy
  Fe  Fe0  1  0.99334998  0.99442686  -0.00402175  1
  Cr  Cr1  1  0.15803979  0.15941361  0.16274879  1
  Fe  Fe2  1  0.99348278  0.99434150  0.32835465  1
  Cr  Cr3  1  0.99326194  0.32780298  -0.00334087  1
  Cr  Cr4  1  0.16088180  0.49651617  0.16301702  1
  Fe  Fe5  1  -0.00353537  0.32806033  0.32825289  1
  Cr  Cr6  1  0.99305415  0.66271737  -0.00456242  1
  Fe  Fe7  1  0.16231730  0.82887276  0.16056249  1
  Fe  Fe8  1  -0.00492776  0.66181849  0.32807588  1
  Fe  Fe9  1  0.32876991  0.99274376  -0.00383084  1
  Cr  Cr10  1  0.49727138  0.15904609  0.16065320  1
  Cr  Cr11  1  0.32760556  -0.00319224  0.32703124  1
  Cr  Cr12  1  0.32826218  0.32355747  0.99317152  1
  Cr  Cr13  1  0.49385912  0.49637868  0.16110068  1
  Fe  Fe14  1  0.32631454  0.32823043  0.32932055  1
  Fe  Fe15  1  0.32830939  0.66298270  -0.00325968  1
  Fe  Fe16  1  0.49316732  0.82952476  0.16012711  1
  Cr  Cr17  1  0.32763517  0.66380307  0.32802446  1
  Fe  Fe18  1  0.66194175  0.99473296  -0.00495916  1
  Fe  Fe19  1  0.82884490  0.16097151  0.16216143  1
  Fe  Fe20  1  0.66274685  0.99449182  0.32764414  1
  Cr  Cr21  1  0.66264422  0.32742584  0.99418758  1
  Fe  Fe22  1  0.82973460  0.49372937  0.16271593  1
  Cr  Cr23  1  0.66334886  0.32821899  0.32497097  1
  Cr  Cr24  1  0.66290435  0.66290946  -0.00275465  1
  Cr  Cr25  1  0.82944477  0.83206706  0.16359958  1
  Cr  Cr26  1  0.66458104  0.66368651  0.32656994  1
  Fe  Fe27  1  0.16038086  0.16244740  0.49282569  1
  Fe  Fe28  1  0.99311805  0.99393749  0.66106432  1
  Cr  Cr29  1  0.15895289  0.15829726  0.82922899  1
  Fe  Fe30  1  0.16111794  0.49352967  0.49321720  1
  Cr  Cr31  1  -0.00362701  0.32756180  0.66103328  1
  Cr  Cr32  1  0.16385111  0.49757912  0.82749167  1
  Cr  Cr33  1  0.15837936  0.82779066  0.49493425  1
  Cr  Cr34  1  0.99247010  0.66374521  0.66100369  1
  Cr  Cr35  1  0.16074447  0.82844571  0.83185640  1
  Cr  Cr36  1  0.49742935  0.16190397  0.49518690  1
  Cr  Cr37  1  0.32781668  -0.00330100  0.66153764  1
  Fe  Fe38  1  0.49567710  0.16010152  0.82788958  1
  Cr  Cr39  1  0.49252931  0.49473464  0.49666885  1
  Cr  Cr40  1  0.32743462  0.32492152  0.65920415  1
  Cr  Cr41  1  0.49384866  0.49498250  0.82551806  1
  Cr  Cr42  1  0.49655864  0.82826938  0.49394967  1
  Fe  Fe43  1  0.32693530  0.66197727  0.66063352  1
  Cr  Cr44  1  0.49409123  0.82839774  0.83013018  1
  Cr  Cr45  1  0.82946164  0.15760747  0.49357131  1
  Fe  Fe46  1  0.66328250  -0.00476659  0.66212607  1
  Cr  Cr47  1  0.82642830  0.15757020  0.82817109  1
  Cr  Cr48  1  0.82925868  0.49410311  0.49250881  1
  Fe  Fe49  1  0.66177302  0.32618128  0.66190924  1
  Cr  Cr50  1  0.82691982  0.49327315  0.82868389  1
  Fe  Fe51  1  0.82830725  0.82996151  0.49355539  1
  Cr  Cr52  1  0.66431243  0.66415171  0.66090403  1
  Fe  Fe53  1  0.82811251  0.83019330  0.82851076  1
" 