6266,Fe61Cr39_2,-213.774788732682, 185.202400944113,Fe61Cr39,"# generated using pymatgen
 data_Cr16Fe11
_symmetry_space_group_name_H-M   'P 1'
_cell_length_a   7.54569155
_cell_length_b   7.54569155
_cell_length_c   10.67121933
_cell_angle_alpha   90.00000000
_cell_angle_beta   90.00000000
_cell_angle_gamma   90.00000000
_symmetry_Int_Tables_number   1
_chemical_formula_structural   Cr16Fe11
_chemical_formula_sum   'Cr32 Fe22'
_cell_volume   607.59213466
_cell_formula_units_Z   2
loop_
 _symmetry_equiv_pos_site_id
 _symmetry_equiv_pos_as_xyz
  1  'x, y, z'
loop_
 _atom_site_type_symbol
 _atom_site_label
 _atom_site_symmetry_multiplicity
 _atom_site_fract_x
 _atom_site_fract_y
 _atom_site_fract_z
 _atom_site_occupancy
  Cr  Cr0  1  0.99470443  0.99384008  -0.00456689  1
  Cr  Cr1  1  0.16032312  0.16076112  0.16099077  1
  Cr  Cr2  1  -0.00512135  0.99443583  0.32733790  1
  Cr  Cr3  1  0.99359840  0.32837643  -0.00447090  1
  Cr  Cr4  1  0.16144416  0.49501928  0.16218971  1
  Cr  Cr5  1  -0.00509888  0.32887304  0.32878515  1
  Cr  Cr6  1  0.99284740  0.66214626  -0.00424378  1
  Fe  Fe7  1  0.16208671  0.82768903  0.16094701  1
  Cr  Cr8  1  0.99407535  0.66105541  0.32825848  1
  Cr  Cr9  1  0.32852342  0.99459773  -0.00478127  1
  Cr  Cr10  1  0.49536623  0.16108912  0.16224897  1
  Cr  Cr11  1  0.32878121  -0.00475526  0.32799699  1
  Cr  Cr12  1  0.32994858  0.32793068  0.99221407  1
  Cr  Cr13  1  0.49643693  0.49688176  0.16043578  1
  Fe  Fe14  1  0.32761471  0.32761378  0.32938397  1
  Fe  Fe15  1  0.32926422  0.66198389  -0.00468918  1
  Fe  Fe16  1  0.49499416  0.82687018  0.16105019  1
  Cr  Cr17  1  0.32802657  0.66180418  0.32891155  1
  Cr  Cr18  1  0.66113649  0.99385097  -0.00485128  1
  Fe  Fe19  1  0.82768561  0.16207317  0.16094980  1
  Cr  Cr20  1  0.66070481  0.99442018  0.32819074  1
  Fe  Fe21  1  0.66155608  0.32882786  -0.00510429  1
  Fe  Fe22  1  0.82686403  0.49499278  0.16105602  1
  Cr  Cr23  1  0.66144860  0.32812340  0.32811638  1
  Fe  Fe24  1  0.66103383  0.66105687  -0.00489876  1
  Fe  Fe25  1  0.82728029  0.82729728  0.16156795  1
  Fe  Fe26  1  0.66196798  0.66197138  0.32696718  1
  Fe  Fe27  1  0.16187961  0.16186785  0.49426864  1
  Cr  Cr28  1  0.99406300  0.99423854  0.66159708  1
  Fe  Fe29  1  0.16228479  0.16145340  0.82821157  1
  Fe  Fe30  1  0.16231056  0.49499060  0.49478502  1
  Cr  Cr31  1  -0.00483921  0.32827062  0.66004859  1
  Cr  Cr32  1  0.16348901  0.49512323  0.82773408  1
  Fe  Fe33  1  0.16188914  0.82751065  0.49530281  1
  Cr  Cr34  1  -0.00449441  0.66185524  0.66035823  1
  Cr  Cr35  1  0.16203715  0.82814040  0.82811897  1
  Fe  Fe36  1  0.49540855  0.16187444  0.49510066  1
  Cr  Cr37  1  0.32940994  -0.00391586  0.66114836  1
  Fe  Fe38  1  0.49510281  0.16278220  0.82779805  1
  Cr  Cr39  1  0.49333932  0.49423388  0.49472618  1
  Cr  Cr40  1  0.32971426  0.32782871  0.66116852  1
  Fe  Fe41  1  0.49520175  0.49437937  0.82852701  1
  Cr  Cr42  1  0.49443084  0.82871358  0.49437859  1
  Fe  Fe43  1  0.32751763  0.66104693  0.66092455  1
  Cr  Cr44  1  0.49503539  0.82701403  0.82805228  1
  Fe  Fe45  1  0.82708281  0.16145105  0.49571371  1
  Fe  Fe46  1  0.66153314  -0.00344351  0.66146630  1
  Cr  Cr47  1  0.82700858  0.16106260  0.82702700  1
  Cr  Cr48  1  0.82857739  0.49343848  0.49405276  1
  Fe  Fe49  1  0.66071143  0.32635069  0.66135058  1
  Cr  Cr50  1  0.82588204  0.49408967  0.82915326  1
  Cr  Cr51  1  0.82780332  0.82982788  0.49669853  1
  Cr  Cr52  1  0.66134728  0.66155196  0.66287322  1
  Fe  Fe53  1  0.82737700  0.82803312  0.82801934  1
" 