3653,Fe61Cr39_9,-214.184488080541, 188.786033981612,Fe61Cr39,"# generated using pymatgen
 data_Cr16Fe11
_symmetry_space_group_name_H-M   'P 1'
_cell_length_a   7.54939898
_cell_length_b   7.54939898
_cell_length_c   10.67646243
_cell_angle_alpha   90.00000000
_cell_angle_beta   90.00000000
_cell_angle_gamma   90.00000000
_symmetry_Int_Tables_number   1
_chemical_formula_structural   Cr16Fe11
_chemical_formula_sum   'Cr32 Fe22'
_cell_volume   608.48816011
_cell_formula_units_Z   2
loop_
 _symmetry_equiv_pos_site_id
 _symmetry_equiv_pos_as_xyz
  1  'x, y, z'
loop_
 _atom_site_type_symbol
 _atom_site_label
 _atom_site_symmetry_multiplicity
 _atom_site_fract_x
 _atom_site_fract_y
 _atom_site_fract_z
 _atom_site_occupancy
  Cr  Cr0  1  -0.00531601  -0.00535458  0.99296988  1
  Cr  Cr1  1  0.16078644  0.16092477  0.16121573  1
  Fe  Fe2  1  0.99421123  -0.00499408  0.32987154  1
  Fe  Fe3  1  0.99429229  0.32785948  -0.00535925  1
  Cr  Cr4  1  0.16036522  0.49361874  0.16198476  1
  Cr  Cr5  1  0.99439626  0.32673373  0.32813819  1
  Cr  Cr6  1  0.99220496  0.66078184  0.99397634  1
  Cr  Cr7  1  0.16289884  0.82877898  0.16220299  1
  Cr  Cr8  1  0.99211149  0.66149496  0.32832473  1
  Fe  Fe9  1  0.32727020  -0.00543338  0.99333603  1
  Cr  Cr10  1  0.49585148  0.16094124  0.16002943  1
  Cr  Cr11  1  0.32922960  -0.00382543  0.32642437  1
  Cr  Cr12  1  0.32771804  0.32672917  0.99222452  1
  Fe  Fe13  1  0.49663297  0.49281034  0.15986293  1
  Cr  Cr14  1  0.32992696  0.32826325  0.33160405  1
  Cr  Cr15  1  0.32952497  0.66105763  -0.00380359  1
  Fe  Fe16  1  0.49521581  0.82845113  0.16014683  1
  Cr  Cr17  1  0.33095226  0.65903053  0.32655679  1
  Cr  Cr18  1  0.66008206  0.99282768  0.99311478  1
  Cr  Cr19  1  0.82696498  0.16346914  0.16186325  1
  Cr  Cr20  1  0.66303302  0.99431437  0.33119746  1
  Fe  Fe21  1  0.66100565  0.32991295  -0.00480285  1
  Fe  Fe22  1  0.82608634  0.49310993  0.15967363  1
  Fe  Fe23  1  0.66047663  0.32863709  0.32877950  1
  Fe  Fe24  1  0.66056441  0.65982920  -0.00410236  1
  Cr  Cr25  1  0.82736385  0.82934706  0.16231202  1
  Cr  Cr26  1  0.66057373  0.66019921  0.32410358  1
  Fe  Fe27  1  0.16074077  0.16006877  0.49455416  1
  Cr  Cr28  1  0.99278028  0.99403157  0.65942400  1
  Fe  Fe29  1  0.16145711  0.16060607  0.82856557  1
  Cr  Cr30  1  0.16200753  0.49594052  0.49610272  1
  Cr  Cr31  1  -0.00454852  0.32663085  0.66317244  1
  Cr  Cr32  1  0.16096749  0.49596189  0.82568110  1
  Cr  Cr33  1  0.16183972  0.82766178  0.49386862  1
  Fe  Fe34  1  0.99439404  0.66155025  0.66091415  1
  Fe  Fe35  1  0.16080327  0.82761829  0.82754459  1
  Fe  Fe36  1  0.49644401  0.16200021  0.49541009  1
  Cr  Cr37  1  0.32832533  -0.00290376  0.66536901  1
  Fe  Fe38  1  0.49531861  0.16254738  0.82817413  1
  Fe  Fe39  1  0.49675679  0.49504114  0.49590057  1
  Cr  Cr40  1  0.32970292  0.32745959  0.65903458  1
  Cr  Cr41  1  0.49594333  0.49483704  0.82476412  1
  Cr  Cr42  1  0.49440028  0.82797726  0.49582816  1
  Fe  Fe43  1  0.32792197  0.66255194  0.66125640  1
  Cr  Cr44  1  0.49346999  0.82866458  0.82864629  1
  Fe  Fe45  1  0.82726099  0.16072585  0.49502408  1
  Fe  Fe46  1  0.66057484  -0.00309186  0.66002505  1
  Cr  Cr47  1  0.82536387  0.16276680  0.82895264  1
  Cr  Cr48  1  0.82671817  0.49304694  0.49641074  1
  Fe  Fe49  1  0.66103287  0.32565678  0.66029011  1
  Cr  Cr50  1  0.82702245  0.49344148  0.82952231  1
  Fe  Fe51  1  0.82716633  0.82700760  0.49563133  1
  Fe  Fe52  1  0.66103535  0.66109620  0.66023535  1
  Cr  Cr53  1  0.82615156  0.82706483  0.82332736  1
" 