7960,Fe61Cr39_6,-214.228957268502, 186.469043277224,Fe61Cr39,"# generated using pymatgen
 data_Cr16Fe11
_symmetry_space_group_name_H-M   'P 1'
_cell_length_a   7.55715577
_cell_length_b   7.55715577
_cell_length_c   10.68743218
_cell_angle_alpha   90.00000000
_cell_angle_beta   90.00000000
_cell_angle_gamma   90.00000000
_symmetry_Int_Tables_number   1
_chemical_formula_structural   Cr16Fe11
_chemical_formula_sum   'Cr32 Fe22'
_cell_volume   610.36570004
_cell_formula_units_Z   2
loop_
 _symmetry_equiv_pos_site_id
 _symmetry_equiv_pos_as_xyz
  1  'x, y, z'
loop_
 _atom_site_type_symbol
 _atom_site_label
 _atom_site_symmetry_multiplicity
 _atom_site_fract_x
 _atom_site_fract_y
 _atom_site_fract_z
 _atom_site_occupancy
  Cr  Cr0  1  0.99361085  -0.00521147  0.99218501  1
  Fe  Fe1  1  0.15977167  0.16178914  0.16133679  1
  Cr  Cr2  1  -0.00513608  -0.00387569  0.32843563  1
  Cr  Cr3  1  -0.00499532  0.32737041  -0.00308725  1
  Fe  Fe4  1  0.15930366  0.49339386  0.16204585  1
  Fe  Fe5  1  -0.00570938  0.32862758  0.32507691  1
  Cr  Cr6  1  0.99338802  0.65990646  0.99292700  1
  Cr  Cr7  1  0.16112702  0.82667047  0.16157631  1
  Fe  Fe8  1  -0.00512254  0.66002701  0.32638025  1
  Cr  Cr9  1  0.32808385  -0.00445441  -0.00292559  1
  Fe  Fe10  1  0.49554183  0.16231288  0.16104588  1
  Cr  Cr11  1  0.32696392  -0.00508117  0.32582916  1
  Cr  Cr12  1  0.32706084  0.32741790  0.99383069  1
  Fe  Fe13  1  0.49605523  0.49295502  0.16042320  1
  Cr  Cr14  1  0.32585087  0.32800792  0.32766739  1
  Cr  Cr15  1  0.32846952  0.65911094  -0.00295942  1
  Fe  Fe16  1  0.49545825  0.82670961  0.16066599  1
  Cr  Cr17  1  0.32796719  0.65927473  0.32682649  1
  Cr  Cr18  1  0.66050261  0.99346443  0.99350455  1
  Fe  Fe19  1  0.82663300  0.16240350  0.16138007  1
  Cr  Cr20  1  0.66053408  0.99371895  0.32659188  1
  Fe  Fe21  1  0.65992193  0.32766294  -0.00412838  1
  Fe  Fe22  1  0.82664360  0.49280427  0.16167436  1
  Fe  Fe23  1  0.65963950  0.32729864  0.32532712  1
  Fe  Fe24  1  0.66014477  0.65900462  -0.00469824  1
  Cr  Cr25  1  0.82730133  0.82654996  0.15973740  1
  Cr  Cr26  1  0.65978013  0.65965910  0.32742326  1
  Fe  Fe27  1  0.16110476  0.15978921  0.49522401  1
  Fe  Fe28  1  -0.00530926  0.99357184  0.65975357  1
  Cr  Cr29  1  0.16276894  0.16014121  0.82582935  1
  Cr  Cr30  1  0.16088859  0.49564956  0.49501505  1
  Cr  Cr31  1  -0.00481720  0.32675441  0.66049660  1
  Cr  Cr32  1  0.16165948  0.49476553  0.82702324  1
  Fe  Fe33  1  0.16048200  0.82825404  0.49541850  1
  Fe  Fe34  1  0.99382135  0.66127136  0.66066876  1
  Cr  Cr35  1  0.16111909  0.82716587  0.82498896  1
  Cr  Cr36  1  0.49330906  0.16161932  0.49548522  1
  Fe  Fe37  1  0.32691206  -0.00566878  0.65979335  1
  Fe  Fe38  1  0.49312293  0.16104142  0.82683300  1
  Fe  Fe39  1  0.49361156  0.49383132  0.49454806  1
  Fe  Fe40  1  0.32772989  0.32729038  0.65999838  1
  Cr  Cr41  1  0.49362914  0.49271915  0.82645046  1
  Cr  Cr42  1  0.49140038  0.82781517  0.49264325  1
  Fe  Fe43  1  0.32747047  0.66077765  0.65965606  1
  Cr  Cr44  1  0.49279622  0.82750439  0.83011985  1
  Cr  Cr45  1  0.82703773  0.16222972  0.49121232  1
  Cr  Cr46  1  0.66182093  0.99309693  0.66206658  1
  Cr  Cr47  1  0.82603353  0.16153012  0.82814139  1
  Cr  Cr48  1  0.82777514  0.49296048  0.49063819  1
  Cr  Cr49  1  0.66001946  0.32806802  0.65988217  1
  Cr  Cr50  1  0.82666399  0.49391120  0.82940196  1
  Cr  Cr51  1  0.82959238  0.82692498  0.49513412  1
  Cr  Cr52  1  0.66072536  0.66105805  0.66078722  1
  Fe  Fe53  1  0.82790570  0.82647388  0.82676209  1
" 