6528,Fe61Cr39_18,-214.410432437798, 188.351354881665,Fe61Cr39,"# generated using pymatgen
 data_Cr16Fe11
_symmetry_space_group_name_H-M   'P 1'
_cell_length_a   7.55478842
_cell_length_b   7.55478842
_cell_length_c   10.68408425
_cell_angle_alpha   90.00000000
_cell_angle_beta   90.00000000
_cell_angle_gamma   90.00000000
_symmetry_Int_Tables_number   1
_chemical_formula_structural   Cr16Fe11
_chemical_formula_sum   'Cr32 Fe22'
_cell_volume   609.79227251
_cell_formula_units_Z   2
loop_
 _symmetry_equiv_pos_site_id
 _symmetry_equiv_pos_as_xyz
  1  'x, y, z'
loop_
 _atom_site_type_symbol
 _atom_site_label
 _atom_site_symmetry_multiplicity
 _atom_site_fract_x
 _atom_site_fract_y
 _atom_site_fract_z
 _atom_site_occupancy
  Cr  Cr0  1  0.99215681  -0.00516817  0.99172449  1
  Cr  Cr1  1  0.16130889  0.15931641  0.16198076  1
  Cr  Cr2  1  0.99049290  0.99404522  0.33209521  1
  Cr  Cr3  1  0.99331529  0.33004833  -0.00381153  1
  Fe  Fe4  1  0.15983283  0.49573957  0.16057867  1
  Cr  Cr5  1  0.99251625  0.32780635  0.32641237  1
  Fe  Fe6  1  0.99393904  0.65960300  -0.00563609  1
  Cr  Cr7  1  0.16005473  0.82901888  0.15927521  1
  Cr  Cr8  1  -0.00416242  0.66024982  0.32619330  1
  Cr  Cr9  1  0.33084806  -0.00501040  0.99206080  1
  Fe  Fe10  1  0.49467149  0.15977811  0.16226594  1
  Fe  Fe11  1  0.32791661  0.99148110  0.32761589  1
  Cr  Cr12  1  0.32827666  0.32736439  0.99389890  1
  Cr  Cr13  1  0.49642733  0.49443925  0.16348105  1
  Cr  Cr14  1  0.32712232  0.32922964  0.32482452  1
  Cr  Cr15  1  0.32527576  0.65986221  -0.00499518  1
  Fe  Fe16  1  0.49251407  0.82798305  0.16173306  1
  Fe  Fe17  1  0.32779848  0.66422820  0.32766475  1
  Cr  Cr18  1  0.65974788  -0.00332129  -0.00290089  1
  Fe  Fe19  1  0.82681490  0.16228694  0.16176096  1
  Cr  Cr20  1  0.66017265  -0.00480397  0.32475668  1
  Cr  Cr21  1  0.66139555  0.32452005  0.99412930  1
  Fe  Fe22  1  0.82780403  0.49393818  0.16126640  1
  Fe  Fe23  1  0.66253800  0.32668669  0.32660733  1
  Cr  Cr24  1  0.66189233  0.66072423  0.99289415  1
  Cr  Cr25  1  0.82751325  0.82618327  0.15838621  1
  Cr  Cr26  1  0.66006839  0.66465442  0.33053812  1
  Cr  Cr27  1  0.15969837  0.15762479  0.49629047  1
  Fe  Fe28  1  -0.00577046  0.99372931  0.66032114  1
  Cr  Cr29  1  0.16002616  0.15747420  0.82455968  1
  Cr  Cr30  1  0.16167361  0.49220448  0.49122379  1
  Fe  Fe31  1  0.99135382  0.32632746  0.66123280  1
  Cr  Cr32  1  0.15917786  0.49339560  0.83041260  1
  Fe  Fe33  1  0.16223914  0.82777003  0.49393566  1
  Cr  Cr34  1  -0.00526060  0.66166264  0.66135627  1
  Fe  Fe35  1  0.16100245  0.82729897  0.82686320  1
  Cr  Cr36  1  0.49292020  0.16196316  0.49332249  1
  Fe  Fe37  1  0.32720924  0.99230225  0.66084422  1
  Fe  Fe38  1  0.49612358  0.16027670  0.82605724  1
  Cr  Cr39  1  0.49665938  0.49493381  0.49549653  1
  Cr  Cr40  1  0.32734502  0.32760256  0.66378420  1
  Cr  Cr41  1  0.49872936  0.49352515  0.82350771  1
  Fe  Fe42  1  0.49298930  0.82897817  0.49441236  1
  Cr  Cr43  1  0.32670320  0.66232991  0.65838762  1
  Cr  Cr44  1  0.49535034  0.82718165  0.82775115  1
  Fe  Fe45  1  0.82643643  0.16186457  0.49556716  1
  Cr  Cr46  1  0.66235933  -0.00530101  0.66074893  1
  Fe  Fe47  1  0.82693452  0.16274543  0.82580486  1
  Cr  Cr48  1  0.82449830  0.49394327  0.49654412  1
  Fe  Fe49  1  0.66360009  0.32658493  0.66195311  1
  Fe  Fe50  1  0.82788079  0.49248101  0.82592839  1
  Fe  Fe51  1  0.82733086  0.82853345  0.49567179  1
  Fe  Fe52  1  0.66183042  0.66199464  0.66065099  1
  Cr  Cr53  1  0.82913100  0.82611317  0.82899490  1
" 