4524,Fe61Cr39_16,-214.34300392112, 188.938325747828,Fe61Cr39,"# generated using pymatgen
 data_Cr16Fe11
_symmetry_space_group_name_H-M   'P 1'
_cell_length_a   7.55689453
_cell_length_b   7.55689453
_cell_length_c   10.68706273
_cell_angle_alpha   90.00000000
_cell_angle_beta   90.00000000
_cell_angle_gamma   90.00000000
_symmetry_Int_Tables_number   1
_chemical_formula_structural   Cr16Fe11
_chemical_formula_sum   'Cr32 Fe22'
_cell_volume   610.30240370
_cell_formula_units_Z   2
loop_
 _symmetry_equiv_pos_site_id
 _symmetry_equiv_pos_as_xyz
  1  'x, y, z'
loop_
 _atom_site_type_symbol
 _atom_site_label
 _atom_site_symmetry_multiplicity
 _atom_site_fract_x
 _atom_site_fract_y
 _atom_site_fract_z
 _atom_site_occupancy
  Cr  Cr0  1  0.99286576  -0.00298796  0.99374418  1
  Fe  Fe1  1  0.15984482  0.16106818  0.15995551  1
  Fe  Fe2  1  0.99312535  -0.00492209  0.32566043  1
  Fe  Fe3  1  -0.00425838  0.32638428  -0.00413911  1
  Fe  Fe4  1  0.16013411  0.49339869  0.15933655  1
  Cr  Cr5  1  -0.00509283  0.32400471  0.32803624  1
  Fe  Fe6  1  -0.00418597  0.66157154  -0.00457127  1
  Cr  Cr7  1  0.15868026  0.82700074  0.16401273  1
  Fe  Fe8  1  0.99361403  0.65952136  0.32654663  1
  Cr  Cr9  1  0.32564865  -0.00243197  0.99361960  1
  Fe  Fe10  1  0.49595897  0.16050658  0.16030684  1
  Fe  Fe11  1  0.32656511  -0.00437865  0.32617248  1
  Fe  Fe12  1  0.32559811  0.32635002  -0.00431958  1
  Cr  Cr13  1  0.49581805  0.49121657  0.15950527  1
  Cr  Cr14  1  0.32586607  0.32546236  0.32334556  1
  Cr  Cr15  1  0.32814489  0.65939176  0.99301351  1
  Cr  Cr16  1  0.49343525  0.83108265  0.16127076  1
  Cr  Cr17  1  0.32846054  0.65831945  0.32916614  1
  Fe  Fe18  1  0.66099203  -0.00329968  -0.00440180  1
  Fe  Fe19  1  0.82594777  0.15950357  0.16082719  1
  Fe  Fe20  1  0.66227855  -0.00281229  0.32603229  1
  Fe  Fe21  1  0.66146676  0.32484401  -0.00461361  1
  Cr  Cr22  1  0.82983298  0.49334562  0.15889633  1
  Fe  Fe23  1  0.66215409  0.32585981  0.32583012  1
  Cr  Cr24  1  0.66191226  0.66357839  0.99227808  1
  Fe  Fe25  1  0.82716308  0.82891133  0.16118908  1
  Cr  Cr26  1  0.66166861  0.66250706  0.32876900  1
  Cr  Cr27  1  0.15985168  0.15738275  0.49627054  1
  Fe  Fe28  1  0.99386509  -0.00428395  0.66121499  1
  Fe  Fe29  1  0.15955643  0.16172578  0.82664694  1
  Cr  Cr30  1  0.15921375  0.49497691  0.49287626  1
  Fe  Fe31  1  0.99323898  0.32567239  0.66038832  1
  Cr  Cr32  1  0.15836519  0.49339320  0.83042119  1
  Cr  Cr33  1  0.16083408  0.82936399  0.49404625  1
  Cr  Cr34  1  0.99193873  0.66065810  0.66067335  1
  Cr  Cr35  1  0.16097697  0.82931696  0.82343746  1
  Cr  Cr36  1  0.49585919  0.16098937  0.49097507  1
  Fe  Fe37  1  0.32767420  -0.00429079  0.66129822  1
  Cr  Cr38  1  0.49477361  0.16127136  0.83018620  1
  Cr  Cr39  1  0.49547162  0.49121814  0.49567502  1
  Cr  Cr40  1  0.32452894  0.32643470  0.66201274  1
  Cr  Cr41  1  0.49528519  0.49145107  0.82661359  1
  Cr  Cr42  1  0.49098758  0.83011234  0.49512112  1
  Fe  Fe43  1  0.32631673  0.65986021  0.66056949  1
  Cr  Cr44  1  0.49178199  0.82948065  0.82600579  1
  Fe  Fe45  1  0.82754017  0.15964189  0.49426025  1
  Cr  Cr46  1  0.66346667  0.99337305  0.66138622  1
  Cr  Cr47  1  0.82804790  0.16335441  0.82590801  1
  Cr  Cr48  1  0.82667419  0.48945545  0.49525451  1
  Fe  Fe49  1  0.66107840  0.32534294  0.66038529  1
  Cr  Cr50  1  0.82803936  0.49090868  0.82857854  1
  Cr  Cr51  1  0.83038085  0.82919374  0.49037530  1
  Cr  Cr52  1  0.66016341  0.66168854  0.66137279  1
  Cr  Cr53  1  0.82943646  0.82829836  0.83156371  1
" 