2294,Fe61Cr39_19,-214.208430350692, 187.775041861108,Fe61Cr39,"# generated using pymatgen
 data_Cr16Fe11
_symmetry_space_group_name_H-M   'P 1'
_cell_length_a   7.55365458
_cell_length_b   7.55365458
_cell_length_c   10.68248075
_cell_angle_alpha   90.00000000
_cell_angle_beta   90.00000000
_cell_angle_gamma   90.00000000
_symmetry_Int_Tables_number   1
_chemical_formula_structural   Cr16Fe11
_chemical_formula_sum   'Cr32 Fe22'
_cell_volume   609.51775570
_cell_formula_units_Z   2
loop_
 _symmetry_equiv_pos_site_id
 _symmetry_equiv_pos_as_xyz
  1  'x, y, z'
loop_
 _atom_site_type_symbol
 _atom_site_label
 _atom_site_symmetry_multiplicity
 _atom_site_fract_x
 _atom_site_fract_y
 _atom_site_fract_z
 _atom_site_occupancy
  Fe  Fe0  1  -0.00570356  -0.00379975  -0.00487170  1
  Fe  Fe1  1  0.16111726  0.16061018  0.15864715  1
  Cr  Cr2  1  -0.00419363  -0.00559844  0.32626917  1
  Fe  Fe3  1  -0.00567069  0.32620566  -0.00478053  1
  Cr  Cr4  1  0.16133658  0.49325635  0.15996371  1
  Cr  Cr5  1  -0.00517531  0.32445382  0.32848597  1
  Cr  Cr6  1  0.99342641  0.66375460  0.99347555  1
  Cr  Cr7  1  0.16331257  0.82881484  0.16067736  1
  Fe  Fe8  1  -0.00422786  0.66040111  0.32814939  1
  Fe  Fe9  1  0.32825738  -0.00460289  -0.00519608  1
  Cr  Cr10  1  0.49147415  0.15892377  0.15915955  1
  Fe  Fe11  1  0.32848692  -0.00555933  0.32842537  1
  Fe  Fe12  1  0.32823366  0.32624589  -0.00462462  1
  Fe  Fe13  1  0.49515451  0.49572437  0.15953520  1
  Cr  Cr14  1  0.32852069  0.32753672  0.32750152  1
  Cr  Cr15  1  0.33052671  0.66102321  0.99340850  1
  Fe  Fe16  1  0.49533262  0.82715611  0.16089611  1
  Cr  Cr17  1  0.33059452  0.66203376  0.32992264  1
  Fe  Fe18  1  0.65985072  0.99397773  -0.00531792  1
  Cr  Cr19  1  0.82621272  0.16061460  0.16046539  1
  Fe  Fe20  1  0.65778537  0.99292543  0.32731197  1
  Fe  Fe21  1  0.65986663  0.32765396  -0.00524751  1
  Cr  Cr22  1  0.82713465  0.49569050  0.16123217  1
  Cr  Cr23  1  0.65918226  0.32910385  0.32675868  1
  Fe  Fe24  1  0.65989879  0.66112679  -0.00488263  1
  Cr  Cr25  1  0.82520734  0.82660116  0.16233506  1
  Fe  Fe26  1  0.65958654  0.66185646  0.32783452  1
  Fe  Fe27  1  0.16046682  0.16069631  0.49432811  1
  Cr  Cr28  1  0.99391899  -0.00485582  0.66171553  1
  Cr  Cr29  1  0.16321932  0.16235520  0.83088847  1
  Fe  Fe30  1  0.16122743  0.49386643  0.49378252  1
  Fe  Fe31  1  -0.00387508  0.32736910  0.65955336  1
  Cr  Cr32  1  0.16062323  0.49282698  0.82612428  1
  Fe  Fe33  1  0.16131305  0.82848164  0.49262667  1
  Cr  Cr34  1  -0.00421248  0.66283417  0.66017834  1
  Cr  Cr35  1  0.16238843  0.82786592  0.82841871  1
  Cr  Cr36  1  0.49358904  0.15751549  0.49535828  1
  Cr  Cr37  1  0.32681720  0.99366516  0.66003742  1
  Fe  Fe38  1  0.49420145  0.16043025  0.82973382  1
  Fe  Fe39  1  0.49548394  0.49510709  0.49384264  1
  Cr  Cr40  1  0.32880430  0.32799689  0.65943635  1
  Cr  Cr41  1  0.49334031  0.49220125  0.82987053  1
  Fe  Fe42  1  0.49502828  0.82760611  0.49320059  1
  Cr  Cr43  1  0.32813695  0.66107874  0.65886056  1
  Cr  Cr44  1  0.49462072  0.83158981  0.82745023  1
  Cr  Cr45  1  0.82546644  0.16028737  0.49578969  1
  Fe  Fe46  1  0.65942178  0.99325197  0.66079781  1
  Cr  Cr47  1  0.82538354  0.16087808  0.82659571  1
  Cr  Cr48  1  0.83004875  0.49493144  0.49370028  1
  Cr  Cr49  1  0.66018770  0.32642263  0.66199221  1
  Cr  Cr50  1  0.82902117  0.49316570  0.82828124  1
  Cr  Cr51  1  0.82552043  0.82753962  0.49237234  1
  Cr  Cr52  1  0.65906183  0.66040663  0.66170851  1
  Cr  Cr53  1  0.82569805  0.82878494  0.82825132  1
" 