1662,Fe61Cr39_13,-214.33579274978, 189.176469280831,Fe61Cr39,"# generated using pymatgen
 data_Cr16Fe11
_symmetry_space_group_name_H-M   'P 1'
_cell_length_a   7.55680671
_cell_length_b   7.55680671
_cell_length_c   10.68693853
_cell_angle_alpha   90.00000000
_cell_angle_beta   90.00000000
_cell_angle_gamma   90.00000000
_symmetry_Int_Tables_number   1
_chemical_formula_structural   Cr16Fe11
_chemical_formula_sum   'Cr32 Fe22'
_cell_volume   610.28112570
_cell_formula_units_Z   2
loop_
 _symmetry_equiv_pos_site_id
 _symmetry_equiv_pos_as_xyz
  1  'x, y, z'
loop_
 _atom_site_type_symbol
 _atom_site_label
 _atom_site_symmetry_multiplicity
 _atom_site_fract_x
 _atom_site_fract_y
 _atom_site_fract_z
 _atom_site_occupancy
  Cr  Cr0  1  0.99328957  0.99173411  0.99329607  1
  Cr  Cr1  1  0.15951178  0.16219206  0.15898036  1
  Fe  Fe2  1  -0.00592106  0.99352588  0.32836265  1
  Cr  Cr3  1  0.99210258  0.32858484  -0.00523843  1
  Cr  Cr4  1  0.16001151  0.49376064  0.16381297  1
  Fe  Fe5  1  -0.00571486  0.32684199  0.32836256  1
  Cr  Cr6  1  0.99275139  0.66217750  0.99263584  1
  Cr  Cr7  1  0.16158507  0.82600608  0.16418235  1
  Fe  Fe8  1  0.99256920  0.66202070  0.32933160  1
  Fe  Fe9  1  0.32669315  0.99386541  0.99396341  1
  Cr  Cr10  1  0.49621316  0.15846609  0.15701609  1
  Cr  Cr11  1  0.32793020  0.99358755  0.32794907  1
  Fe  Fe12  1  0.32813029  0.32727862  0.99372745  1
  Cr  Cr13  1  0.49438191  0.49627133  0.15967745  1
  Cr  Cr14  1  0.32985030  0.32700010  0.32776011  1
  Cr  Cr15  1  0.32693420  0.66069574  -0.00401536  1
  Cr  Cr16  1  0.49611627  0.82713766  0.15960522  1
  Fe  Fe17  1  0.32884386  0.66054954  0.32859243  1
  Fe  Fe18  1  0.66174484  0.99290107  0.99332395  1
  Cr  Cr19  1  0.82690665  0.16016196  0.16250721  1
  Fe  Fe20  1  0.66078280  0.99302364  0.32889004  1
  Fe  Fe21  1  0.66017537  0.32929382  0.99324457  1
  Cr  Cr22  1  0.82803700  0.49400085  0.16295367  1
  Cr  Cr23  1  0.66016369  0.32625204  0.33027150  1
  Fe  Fe24  1  0.66237558  0.65963238  0.99301169  1
  Cr  Cr25  1  0.82414600  0.82769703  0.16281380  1
  Fe  Fe26  1  0.66070800  0.66040245  0.32899432  1
  Cr  Cr27  1  0.15919538  0.16056900  0.49787485  1
  Fe  Fe28  1  0.99322230  0.99352447  0.66021246  1
  Cr  Cr29  1  0.16054962  0.16085969  0.82515474  1
  Cr  Cr30  1  0.15957309  0.49491474  0.49061589  1
  Cr  Cr31  1  0.99136015  0.33013051  0.66136066  1
  Cr  Cr32  1  0.16082676  0.49304200  0.82865239  1
  Fe  Fe33  1  0.15885571  0.82812338  0.49349394  1
  Cr  Cr34  1  0.99143383  0.66396562  0.66272738  1
  Cr  Cr35  1  0.16283900  0.82905345  0.82349955  1
  Fe  Fe36  1  0.49377561  0.15951997  0.49411353  1
  Fe  Fe37  1  0.32861170  0.99340751  0.65906977  1
  Cr  Cr38  1  0.49372989  0.15912021  0.82874939  1
  Fe  Fe39  1  0.49541699  0.49472045  0.49302310  1
  Cr  Cr40  1  0.33115943  0.32741198  0.65971095  1
  Fe  Fe41  1  0.49540970  0.49367630  0.82856956  1
  Cr  Cr42  1  0.49560002  0.82534318  0.49316584  1
  Cr  Cr43  1  0.32755432  0.66037774  0.65834244  1
  Cr  Cr44  1  0.49659689  0.82508933  0.82900098  1
  Cr  Cr45  1  0.82844691  0.16053955  0.49185608  1
  Cr  Cr46  1  0.66185618  0.99372976  0.65849140  1
  Cr  Cr47  1  0.82732862  0.16140609  0.82790804  1
  Fe  Fe48  1  0.82632659  0.49709920  0.49296495  1
  Cr  Cr49  1  0.65915092  0.32912666  0.65875809  1
  Fe  Fe50  1  0.82361418  0.49585362  0.82794711  1
  Fe  Fe51  1  0.82914269  0.82626956  0.49246465  1
  Fe  Fe52  1  0.66112435  0.65978973  0.66057269  1
  Fe  Fe53  1  0.82627704  0.82757156  0.82698331  1
" 