8829,Fe61Cr39_15,-214.066640374463, 186.168290988387,Fe61Cr39,"# generated using pymatgen
 data_Cr16Fe11
_symmetry_space_group_name_H-M   'P 1'
_cell_length_a   7.55217781
_cell_length_b   7.55217781
_cell_length_c   10.68039228
_cell_angle_alpha   90.00000000
_cell_angle_beta   90.00000000
_cell_angle_gamma   90.00000000
_symmetry_Int_Tables_number   1
_chemical_formula_structural   Cr16Fe11
_chemical_formula_sum   'Cr32 Fe22'
_cell_volume   609.16033558
_cell_formula_units_Z   2
loop_
 _symmetry_equiv_pos_site_id
 _symmetry_equiv_pos_as_xyz
  1  'x, y, z'
loop_
 _atom_site_type_symbol
 _atom_site_label
 _atom_site_symmetry_multiplicity
 _atom_site_fract_x
 _atom_site_fract_y
 _atom_site_fract_z
 _atom_site_occupancy
  Cr  Cr0  1  0.99413274  -0.00526965  -0.00484636  1
  Fe  Fe1  1  0.16054965  0.16074821  0.16131632  1
  Fe  Fe2  1  -0.00360999  -0.00437389  0.32809446  1
  Fe  Fe3  1  -0.00563052  0.32866345  -0.00494100  1
  Fe  Fe4  1  0.15977134  0.49388512  0.16062328  1
  Fe  Fe5  1  -0.00485223  0.32614910  0.32778957  1
  Fe  Fe6  1  -0.00476317  0.66016546  -0.00476476  1
  Fe  Fe7  1  0.16180580  0.82846180  0.16092696  1
  Cr  Cr8  1  -0.00558849  0.66194577  0.32637170  1
  Fe  Fe9  1  0.32895974  0.99386948  -0.00534197  1
  Cr  Cr10  1  0.49243969  0.15838283  0.15893347  1
  Fe  Fe11  1  0.32575515  0.99397964  0.32739103  1
  Cr  Cr12  1  0.32693224  0.32746998  0.99427724  1
  Cr  Cr13  1  0.49457711  0.49504787  0.16349976  1
  Cr  Cr14  1  0.32481608  0.32723299  0.32714517  1
  Cr  Cr15  1  0.32768732  0.66118841  -0.00537328  1
  Fe  Fe16  1  0.49378380  0.82847348  0.16112642  1
  Cr  Cr17  1  0.32885746  0.66178570  0.32644779  1
  Fe  Fe18  1  0.65891073  -0.00525217  0.99398250  1
  Cr  Cr19  1  0.82885380  0.16191141  0.16031819  1
  Cr  Cr20  1  0.66244264  0.99248457  0.32782547  1
  Fe  Fe21  1  0.66101192  0.32693175  0.99368522  1
  Cr  Cr22  1  0.82965679  0.49445007  0.16038565  1
  Cr  Cr23  1  0.66227756  0.32862643  0.33005516  1
  Cr  Cr24  1  0.66047827  0.66244209  -0.00409114  1
  Cr  Cr25  1  0.82747496  0.82673254  0.16068487  1
  Fe  Fe26  1  0.66057498  0.66134864  0.32728996  1
  Fe  Fe27  1  0.15986818  0.15986622  0.49327137  1
  Cr  Cr28  1  0.99389006  0.99396113  0.65708307  1
  Cr  Cr29  1  0.16339325  0.16069492  0.82933546  1
  Cr  Cr30  1  0.16069026  0.49508953  0.49635926  1
  Cr  Cr31  1  0.99403494  0.32662179  0.65888477  1
  Cr  Cr32  1  0.16048022  0.49652607  0.82755485  1
  Fe  Fe33  1  0.16112253  0.82835988  0.49445451  1
  Fe  Fe34  1  -0.00437869  0.66150782  0.66055366  1
  Cr  Cr35  1  0.16184766  0.82586992  0.82562413  1
  Cr  Cr36  1  0.49383283  0.16117261  0.49484165  1
  Cr  Cr37  1  0.32692484  0.99366650  0.66136956  1
  Fe  Fe38  1  0.49514163  0.16104687  0.82849151  1
  Cr  Cr39  1  0.49489415  0.49430138  0.49503967  1
  Cr  Cr40  1  0.32909671  0.32925022  0.66168422  1
  Fe  Fe41  1  0.49475369  0.49397444  0.82731742  1
  Cr  Cr42  1  0.49244202  0.82761880  0.49216357  1
  Fe  Fe43  1  0.32720801  0.66151249  0.66142543  1
  Fe  Fe44  1  0.49396765  0.82807292  0.82801117  1
  Fe  Fe45  1  0.82876838  0.16150713  0.49396958  1
  Cr  Cr46  1  0.66227687  -0.00461352  0.66316159  1
  Cr  Cr47  1  0.82420378  0.16207718  0.82895941  1
  Cr  Cr48  1  0.82750849  0.49369181  0.49402075  1
  Fe  Fe49  1  0.66064792  0.32712823  0.66133998  1
  Cr  Cr50  1  0.82819505  0.49407315  0.82868566  1
  Cr  Cr51  1  0.82965576  0.82791746  0.49414411  1
  Cr  Cr52  1  0.65966347  0.66033099  0.66082930  1
  Cr  Cr53  1  0.82821362  0.82694165  0.82826127  1
" 