3584,Fe61Cr39_17,-214.087438227087, 190.465529030111,Fe61Cr39,"# generated using pymatgen
 data_Cr16Fe11
_symmetry_space_group_name_H-M   'P 1'
_cell_length_a   7.54997161
_cell_length_b   7.54997161
_cell_length_c   10.67727224
_cell_angle_alpha   90.00000000
_cell_angle_beta   90.00000000
_cell_angle_gamma   90.00000000
_symmetry_Int_Tables_number   1
_chemical_formula_structural   Cr16Fe11
_chemical_formula_sum   'Cr32 Fe22'
_cell_volume   608.62663324
_cell_formula_units_Z   2
loop_
 _symmetry_equiv_pos_site_id
 _symmetry_equiv_pos_as_xyz
  1  'x, y, z'
loop_
 _atom_site_type_symbol
 _atom_site_label
 _atom_site_symmetry_multiplicity
 _atom_site_fract_x
 _atom_site_fract_y
 _atom_site_fract_z
 _atom_site_occupancy
  Fe  Fe0  1  -0.00509580  0.99241048  0.99402998  1
  Cr  Cr1  1  0.16184716  0.15942555  0.16108025  1
  Cr  Cr2  1  0.99101192  0.99335906  0.32950183  1
  Fe  Fe3  1  -0.00524544  0.32926228  -0.00530043  1
  Cr  Cr4  1  0.16353328  0.49159630  0.16304069  1
  Cr  Cr5  1  0.99300198  0.32927782  0.32709438  1
  Cr  Cr6  1  0.99449946  0.65902607  -0.00482047  1
  Cr  Cr7  1  0.16207235  0.83197518  0.16041336  1
  Cr  Cr8  1  0.99441381  0.66114479  0.32839916  1
  Fe  Fe9  1  0.32815758  0.99432116  0.99306736  1
  Fe  Fe10  1  0.49386402  0.15960695  0.16091126  1
  Fe  Fe11  1  0.32946306  -0.00413058  0.32758358  1
  Cr  Cr12  1  0.33065833  0.32742770  -0.00448979  1
  Fe  Fe13  1  0.49703678  0.49606935  0.16008446  1
  Fe  Fe14  1  0.32980384  0.32471298  0.32683569  1
  Cr  Cr15  1  0.32573505  0.66274405  0.99008050  1
  Fe  Fe16  1  0.49355828  0.82837229  0.16114100  1
  Cr  Cr17  1  0.32627102  0.66027510  0.32635572  1
  Cr  Cr18  1  0.65768319  -0.00225066  0.99388622  1
  Cr  Cr19  1  0.83021785  0.16119797  0.15612348  1
  Cr  Cr20  1  0.65967505  -0.00396086  0.33209078  1
  Fe  Fe21  1  0.66217013  0.33152708  -0.00539457  1
  Fe  Fe22  1  0.82594120  0.49426544  0.16001390  1
  Cr  Cr23  1  0.65941111  0.32425908  0.32545426  1
  Fe  Fe24  1  0.66018591  0.66086444  -0.00533306  1
  Cr  Cr25  1  0.82388684  0.82677436  0.16241168  1
  Fe  Fe26  1  0.66106668  0.66016899  0.32629435  1
  Cr  Cr27  1  0.16022849  0.16077157  0.49268154  1
  Fe  Fe28  1  -0.00498275  -0.00440269  0.66052663  1
  Cr  Cr29  1  0.15966725  0.16021275  0.83017176  1
  Cr  Cr30  1  0.16356810  0.49167239  0.49526663  1
  Fe  Fe31  1  0.99438753  0.32669545  0.66136751  1
  Fe  Fe32  1  0.15848062  0.49106896  0.82845715  1
  Cr  Cr33  1  0.16244626  0.83083149  0.49527810  1
  Cr  Cr34  1  -0.00306733  0.66023796  0.66167106  1
  Fe  Fe35  1  0.15873293  0.83007744  0.82914848  1
  Fe  Fe36  1  0.49177854  0.16144782  0.49345045  1
  Cr  Cr37  1  0.33121141  -0.00492190  0.66498180  1
  Fe  Fe38  1  0.49526327  0.16170904  0.82921713  1
  Cr  Cr39  1  0.49469526  0.49459652  0.49288467  1
  Cr  Cr40  1  0.32824391  0.32738102  0.66066504  1
  Cr  Cr41  1  0.49775670  0.49640248  0.82655284  1
  Cr  Cr42  1  0.49563535  0.82442990  0.49417775  1
  Cr  Cr43  1  0.32409003  0.66119246  0.66719730  1
  Fe  Fe44  1  0.49519643  0.83065303  0.82872239  1
  Fe  Fe45  1  0.82899106  0.16228627  0.49543510  1
  Cr  Cr46  1  0.66213640  -0.00207526  0.65718846  1
  Cr  Cr47  1  0.83050054  0.16238380  0.82888276  1
  Cr  Cr48  1  0.82478190  0.49462686  0.49513812  1
  Cr  Cr49  1  0.66133791  0.32328186  0.66158259  1
  Fe  Fe50  1  0.82968900  0.49366887  0.82829648  1
  Fe  Fe51  1  0.82890210  0.82772918  0.49523134  1
  Cr  Cr52  1  0.66248007  0.66307539  0.66177930  1
  Cr  Cr53  1  0.82647385  0.82869450  0.82694152  1
" 