4568,Fe61Cr39_5,-214.433962357393, 185.024395866332,Fe61Cr39,"# generated using pymatgen
 data_Cr16Fe11
_symmetry_space_group_name_H-M   'P 1'
_cell_length_a   7.55112283
_cell_length_b   7.55112283
_cell_length_c   10.67890032
_cell_angle_alpha   90.00000000
_cell_angle_beta   90.00000000
_cell_angle_gamma   90.00000000
_symmetry_Int_Tables_number   1
_chemical_formula_structural   Cr16Fe11
_chemical_formula_sum   'Cr32 Fe22'
_cell_volume   608.90508784
_cell_formula_units_Z   2
loop_
 _symmetry_equiv_pos_site_id
 _symmetry_equiv_pos_as_xyz
  1  'x, y, z'
loop_
 _atom_site_type_symbol
 _atom_site_label
 _atom_site_symmetry_multiplicity
 _atom_site_fract_x
 _atom_site_fract_y
 _atom_site_fract_z
 _atom_site_occupancy
  Cr  Cr0  1  -0.00421524  -0.00413339  -0.00456861  1
  Fe  Fe1  1  0.15863350  0.16239818  0.16161462  1
  Cr  Cr2  1  -0.00421607  -0.00415695  0.32752028  1
  Cr  Cr3  1  0.99300982  0.32693498  0.99356172  1
  Cr  Cr4  1  0.16106589  0.49437626  0.16018831  1
  Fe  Fe5  1  0.99402901  0.32879303  0.32668463  1
  Fe  Fe6  1  -0.00459232  0.66001841  0.99208152  1
  Cr  Cr7  1  0.15929542  0.82585298  0.15929621  1
  Fe  Fe8  1  -0.00264705  0.66059189  0.32860070  1
  Cr  Cr9  1  0.32658857  0.99393003  -0.00408461  1
  Cr  Cr10  1  0.49456788  0.16148393  0.16123393  1
  Cr  Cr11  1  0.32575014  0.99344741  0.32580970  1
  Cr  Cr12  1  0.32800365  0.32730313  -0.00403034  1
  Fe  Fe13  1  0.49407297  0.49576382  0.16214619  1
  Cr  Cr14  1  0.32782362  0.32857557  0.32627512  1
  Cr  Cr15  1  0.32979711  0.66219063  -0.00529460  1
  Fe  Fe16  1  0.49453700  0.82666716  0.16196681  1
  Fe  Fe17  1  0.32564508  0.66176872  0.32727197  1
  Cr  Cr18  1  0.66064271  -0.00550291  0.99328965  1
  Fe  Fe19  1  0.82812082  0.16176673  0.16274792  1
  Fe  Fe20  1  0.65978394  -0.00486814  0.32664127  1
  Cr  Cr21  1  0.66211640  0.32945060  -0.00469885  1
  Cr  Cr22  1  0.82944847  0.49562360  0.16075994  1
  Fe  Fe23  1  0.66193577  0.32568565  0.32679675  1
  Cr  Cr24  1  0.66087354  0.65926236  0.99397858  1
  Cr  Cr25  1  0.82771683  0.82765017  0.16120724  1
  Cr  Cr26  1  0.65928133  0.65821471  0.32621073  1
  Cr  Cr27  1  0.16174708  0.16529480  0.49398005  1
  Cr  Cr28  1  -0.00399525  -0.00517251  0.66003462  1
  Cr  Cr29  1  0.16356145  0.16350443  0.82911836  1
  Fe  Fe30  1  0.16123424  0.49628583  0.49375110  1
  Fe  Fe31  1  -0.00432643  0.32854101  0.66232630  1
  Fe  Fe32  1  0.15974453  0.49622782  0.82789408  1
  Fe  Fe33  1  0.16223114  0.82567154  0.49352921  1
  Cr  Cr34  1  -0.00430943  0.66047972  0.66043196  1
  Fe  Fe35  1  0.16205366  0.82591303  0.82838348  1
  Cr  Cr36  1  0.49438639  0.16082146  0.49830445  1
  Cr  Cr37  1  0.32626496  0.99317969  0.66253479  1
  Fe  Fe38  1  0.49574495  0.15986136  0.82708336  1
  Cr  Cr39  1  0.49116005  0.49351727  0.49291614  1
  Fe  Fe40  1  0.32530644  0.33036660  0.66197023  1
  Cr  Cr41  1  0.49122043  0.49239252  0.82826236  1
  Cr  Cr42  1  0.49476062  0.82827446  0.49497818  1
  Fe  Fe43  1  0.32652799  0.66024980  0.66164049  1
  Fe  Fe44  1  0.49318037  0.82816256  0.82687382  1
  Cr  Cr45  1  0.82659529  0.16055329  0.49383991  1
  Fe  Fe46  1  0.66184422  0.99384751  0.66369887  1
  Fe  Fe47  1  0.82789501  0.16141579  0.82675706  1
  Cr  Cr48  1  0.83004526  0.49388635  0.49296909  1
  Cr  Cr49  1  0.66233663  0.32887848  0.66297576  1
  Fe  Fe50  1  0.83013026  0.49338665  0.82782574  1
  Cr  Cr51  1  0.82746945  0.82802015  0.49238461  1
  Cr  Cr52  1  0.66055048  0.65970387  0.66261272  1
  Cr  Cr53  1  0.82894979  0.82702635  0.82909481  1
" 