4845,Fe61Cr39_1,-213.89558630141, 186.285264279276,Fe61Cr39,"# generated using pymatgen
 data_Cr16Fe11
_symmetry_space_group_name_H-M   'P 1'
_cell_length_a   7.54478456
_cell_length_b   7.54478456
_cell_length_c   10.66993664
_cell_angle_alpha   90.00000000
_cell_angle_beta   90.00000000
_cell_angle_gamma   90.00000000
_symmetry_Int_Tables_number   1
_chemical_formula_structural   Cr16Fe11
_chemical_formula_sum   'Cr32 Fe22'
_cell_volume   607.37306200
_cell_formula_units_Z   2
loop_
 _symmetry_equiv_pos_site_id
 _symmetry_equiv_pos_as_xyz
  1  'x, y, z'
loop_
 _atom_site_type_symbol
 _atom_site_label
 _atom_site_symmetry_multiplicity
 _atom_site_fract_x
 _atom_site_fract_y
 _atom_site_fract_z
 _atom_site_occupancy
  Fe  Fe0  1  0.99192150  -0.00472474  0.99393644  1
  Cr  Cr1  1  0.16087729  0.16031779  0.16438385  1
  Fe  Fe2  1  0.99076812  0.99356844  0.32681812  1
  Cr  Cr3  1  0.99356618  0.32884919  0.99468103  1
  Cr  Cr4  1  0.16595620  0.49398762  0.15902923  1
  Cr  Cr5  1  0.99339969  0.33075827  0.32802018  1
  Cr  Cr6  1  -0.00449911  0.66234053  -0.00408947  1
  Cr  Cr7  1  0.15811254  0.83109486  0.16080295  1
  Cr  Cr8  1  0.99440997  0.66012676  0.32636171  1
  Cr  Cr9  1  0.32961285  0.99218779  0.99210031  1
  Cr  Cr10  1  0.49365210  0.16239052  0.16097494  1
  Fe  Fe11  1  0.32796245  0.99378738  0.32692154  1
  Fe  Fe12  1  0.32833559  0.32658846  0.99383870  1
  Cr  Cr13  1  0.49689833  0.49605449  0.15777953  1
  Fe  Fe14  1  0.32942827  0.33113406  0.32766645  1
  Fe  Fe15  1  0.32942118  0.66268323  0.99425522  1
  Fe  Fe16  1  0.49406194  0.82872694  0.15900088  1
  Cr  Cr17  1  0.32820165  0.66503031  0.32809568  1
  Fe  Fe18  1  0.66356857  0.99296103  0.99395756  1
  Fe  Fe19  1  0.82864920  0.15874505  0.16106709  1
  Cr  Cr20  1  0.65812642  0.99366967  0.32730575  1
  Cr  Cr21  1  0.66386041  0.32595964  0.99480441  1
  Fe  Fe22  1  0.82878487  0.49547053  0.15981140  1
  Cr  Cr23  1  0.66434342  0.32884183  0.32770906  1
  Fe  Fe24  1  0.66271040  0.66436343  -0.00514573  1
  Fe  Fe25  1  0.82523008  0.83008587  0.15965652  1
  Cr  Cr26  1  0.66184882  0.66199760  0.32601971  1
  Cr  Cr27  1  0.16181701  0.15984299  0.48949128  1
  Cr  Cr28  1  -0.00451525  0.99413622  0.66508540  1
  Cr  Cr29  1  0.16118455  0.15962040  0.82996711  1
  Cr  Cr30  1  0.16209823  0.49510318  0.49869296  1
  Fe  Fe31  1  -0.00391633  0.32613159  0.66258257  1
  Cr  Cr32  1  0.16331012  0.49530172  0.82754332  1
  Cr  Cr33  1  0.15924681  0.82953513  0.49444179  1
  Fe  Fe34  1  -0.00365327  0.66392039  0.66376191  1
  Fe  Fe35  1  0.16189336  0.82558607  0.82880882  1
  Cr  Cr36  1  0.49350795  0.16122393  0.49209814  1
  Cr  Cr37  1  0.32936279  0.99131807  0.66115283  1
  Fe  Fe38  1  0.49576259  0.16081970  0.83007498  1
  Cr  Cr39  1  0.49605332  0.49674389  0.49580160  1
  Cr  Cr40  1  0.32910540  0.32544745  0.66257747  1
  Cr  Cr41  1  0.49531780  0.49538106  0.83083636  1
  Fe  Fe42  1  0.49440536  0.82777095  0.49530468  1
  Fe  Fe43  1  0.32977195  0.66278113  0.66271371  1
  Fe  Fe44  1  0.49592740  0.82607148  0.82945968  1
  Cr  Cr45  1  0.82942673  0.15913897  0.49598418  1
  Cr  Cr46  1  0.65881063  -0.00489772  0.66492608  1
  Fe  Fe47  1  0.82759488  0.16088189  0.82920575  1
  Cr  Cr48  1  0.82769683  0.49777796  0.50024821  1
  Cr  Cr49  1  0.66245559  0.32614423  0.66184823  1
  Cr  Cr50  1  0.82736355  0.49781564  0.82392356  1
  Cr  Cr51  1  0.82649422  0.82760066  0.49641023  1
  Fe  Fe52  1  0.65829730  0.66480843  0.66333418  1
  Fe  Fe53  1  0.82777975  0.82880619  0.82977007  1
" 