8617,Fe61Cr39_3,-214.286475212227, 183.532737968338,Fe61Cr39,"# generated using pymatgen
 data_Cr16Fe11
_symmetry_space_group_name_H-M   'P 1'
_cell_length_a   7.55385207
_cell_length_b   7.55385207
_cell_length_c   10.68276004
_cell_angle_alpha   90.00000000
_cell_angle_beta   90.00000000
_cell_angle_gamma   90.00000000
_symmetry_Int_Tables_number   1
_chemical_formula_structural   Cr16Fe11
_chemical_formula_sum   'Cr32 Fe22'
_cell_volume   609.56556397
_cell_formula_units_Z   2
loop_
 _symmetry_equiv_pos_site_id
 _symmetry_equiv_pos_as_xyz
  1  'x, y, z'
loop_
 _atom_site_type_symbol
 _atom_site_label
 _atom_site_symmetry_multiplicity
 _atom_site_fract_x
 _atom_site_fract_y
 _atom_site_fract_z
 _atom_site_occupancy
  Fe  Fe0  1  -0.00455982  0.99285791  0.99253152  1
  Cr  Cr1  1  0.15827081  0.15908977  0.16108023  1
  Fe  Fe2  1  -0.00347644  -0.00513037  0.32902383  1
  Cr  Cr3  1  -0.00422293  0.32948980  -0.00355749  1
  Fe  Fe4  1  0.16071616  0.49739243  0.16075964  1
  Fe  Fe5  1  0.99347832  0.32664375  0.32875346  1
  Fe  Fe6  1  -0.00283918  0.66366028  0.99383859  1
  Fe  Fe7  1  0.16158883  0.82683290  0.16041262  1
  Cr  Cr8  1  -0.00428983  0.66094385  0.32714491  1
  Cr  Cr9  1  0.32559054  0.99339780  0.99142601  1
  Cr  Cr10  1  0.49416824  0.16012534  0.16025596  1
  Fe  Fe11  1  0.32414494  0.99282792  0.32800848  1
  Cr  Cr12  1  0.32479352  0.32713243  -0.00566646  1
  Cr  Cr13  1  0.49104650  0.49607434  0.16081260  1
  Cr  Cr14  1  0.32404622  0.32607138  0.32573822  1
  Fe  Fe15  1  0.32631834  0.66235371  0.99378669  1
  Cr  Cr16  1  0.49266766  0.82642641  0.16272955  1
  Fe  Fe17  1  0.32599633  0.66151693  0.32791786  1
  Cr  Cr18  1  0.66100522  0.99156862  0.99352933  1
  Cr  Cr19  1  0.82963937  0.15869410  0.16183331  1
  Cr  Cr20  1  0.66186896  0.99413381  0.32685207  1
  Cr  Cr21  1  0.66182377  0.32842958  -0.00497985  1
  Cr  Cr22  1  0.83000040  0.49484063  0.16045532  1
  Cr  Cr23  1  0.66242412  0.32808237  0.32809940  1
  Cr  Cr24  1  0.66379927  0.66203021  0.99226085  1
  Cr  Cr25  1  0.83166476  0.82968194  0.15877305  1
  Cr  Cr26  1  0.66342294  0.66087666  0.32897024  1
  Fe  Fe27  1  0.15813487  0.15931014  0.49363896  1
  Fe  Fe28  1  -0.00478233  0.99418344  0.66117549  1
  Fe  Fe29  1  0.15851407  0.16033554  0.82755056  1
  Cr  Cr30  1  0.15922389  0.49451434  0.49417123  1
  Fe  Fe31  1  0.99222429  0.32751312  0.66087218  1
  Cr  Cr32  1  0.15931347  0.49657099  0.82894575  1
  Fe  Fe33  1  0.16071409  0.82921129  0.49351524  1
  Fe  Fe34  1  -0.00468102  0.66195063  0.66124700  1
  Fe  Fe35  1  0.15814460  0.82860787  0.82738198  1
  Cr  Cr36  1  0.49437493  0.16084955  0.49416946  1
  Cr  Cr37  1  0.32446113  -0.00494352  0.66143379  1
  Cr  Cr38  1  0.49510612  0.16172524  0.82805750  1
  Cr  Cr39  1  0.49273448  0.49390061  0.49515087  1
  Cr  Cr40  1  0.32302450  0.32494804  0.66277122  1
  Cr  Cr41  1  0.49315770  0.49481831  0.82679810  1
  Cr  Cr42  1  0.49296060  0.82717658  0.49198310  1
  Cr  Cr43  1  0.32618505  0.66354706  0.66046931  1
  Fe  Fe44  1  0.49317656  0.82654959  0.82731062  1
  Fe  Fe45  1  0.83005453  0.16239778  0.49555725  1
  Cr  Cr46  1  0.66067967  0.99236832  0.66239826  1
  Cr  Cr47  1  0.82973701  0.15871811  0.82803802  1
  Fe  Fe48  1  0.82884022  0.49297992  0.49554593  1
  Fe  Fe49  1  0.66270799  0.32700401  0.66078218  1
  Fe  Fe50  1  0.82888621  0.49357673  0.82701594  1
  Cr  Cr51  1  0.83115688  0.83002415  0.49499342  1
  Cr  Cr52  1  0.66490204  0.66009839  0.66082399  1
  Fe  Fe53  1  0.83169316  0.82575101  0.82714444  1
" 