1745,Fe61Cr39_0,-214.253905634634, 187.405015716112,Fe61Cr39,"# generated using pymatgen
 data_Cr16Fe11
_symmetry_space_group_name_H-M   'P 1'
_cell_length_a   7.55891344
_cell_length_b   7.55891344
_cell_length_c   10.68991791
_cell_angle_alpha   90.00000000
_cell_angle_beta   90.00000000
_cell_angle_gamma   90.00000000
_symmetry_Int_Tables_number   1
_chemical_formula_structural   Cr16Fe11
_chemical_formula_sum   'Cr32 Fe22'
_cell_volume   610.79168269
_cell_formula_units_Z   2
loop_
 _symmetry_equiv_pos_site_id
 _symmetry_equiv_pos_as_xyz
  1  'x, y, z'
loop_
 _atom_site_type_symbol
 _atom_site_label
 _atom_site_symmetry_multiplicity
 _atom_site_fract_x
 _atom_site_fract_y
 _atom_site_fract_z
 _atom_site_occupancy
  Cr  Cr0  1  -0.00600868  0.99202874  0.99382953  1
  Cr  Cr1  1  0.15879667  0.16285055  0.16097677  1
  Cr  Cr2  1  -0.00479447  0.99296829  0.32721310  1
  Cr  Cr3  1  -0.00390143  0.32942150  -0.00576558  1
  Fe  Fe4  1  0.16060329  0.49376869  0.16068971  1
  Fe  Fe5  1  -0.00557819  0.32757734  0.32684973  1
  Cr  Cr6  1  0.99264004  0.66031918  -0.00600076  1
  Cr  Cr7  1  0.16193916  0.82519475  0.16091132  1
  Cr  Cr8  1  0.99268425  0.66006588  0.32587328  1
  Cr  Cr9  1  0.32889806  -0.00429812  0.99318060  1
  Cr  Cr10  1  0.49512446  0.15960039  0.15896653  1
  Cr  Cr11  1  0.32847075  0.99317675  0.33066227  1
  Fe  Fe12  1  0.32629072  0.32807324  0.99311390  1
  Cr  Cr13  1  0.49196793  0.49748096  0.15980051  1
  Cr  Cr14  1  0.32720099  0.32589392  0.32678729  1
  Fe  Fe15  1  0.32755937  0.65929943  -0.00567824  1
  Fe  Fe16  1  0.49551720  0.82663151  0.16049962  1
  Fe  Fe17  1  0.32804468  0.66139474  0.32724222  1
  Fe  Fe18  1  0.66033845  0.99271898  -0.00567014  1
  Cr  Cr19  1  0.82785274  0.15907928  0.16212617  1
  Fe  Fe20  1  0.65977880  0.99232640  0.32725289  1
  Cr  Cr21  1  0.65804051  0.32794141  0.99216384  1
  Fe  Fe22  1  0.82772255  0.49502671  0.16100248  1
  Cr  Cr23  1  0.66072575  0.32840811  0.32900913  1
  Fe  Fe24  1  0.66025220  0.66187945  -0.00494528  1
  Fe  Fe25  1  0.82475981  0.82653201  0.16059141  1
  Fe  Fe26  1  0.65969549  0.66228354  0.32652161  1
  Fe  Fe27  1  0.16131412  0.15988107  0.49381940  1
  Cr  Cr28  1  -0.00285769  0.99227238  0.66072849  1
  Fe  Fe29  1  0.16222243  0.16139643  0.82735828  1
  Cr  Cr30  1  0.16229852  0.49496991  0.49285075  1
  Cr  Cr31  1  -0.00531713  0.32790102  0.66096374  1
  Fe  Fe32  1  0.16175697  0.49361209  0.82758238  1
  Fe  Fe33  1  0.16250714  0.82756738  0.49430785  1
  Cr  Cr34  1  -0.00532486  0.66159717  0.66188905  1
  Cr  Cr35  1  0.16206873  0.82639914  0.82487093  1
  Fe  Fe36  1  0.49360057  0.15868052  0.49423273  1
  Fe  Fe37  1  0.32807825  -0.00607078  0.65978446  1
  Fe  Fe38  1  0.49319493  0.15968141  0.82735995  1
  Cr  Cr39  1  0.49257208  0.49643659  0.49370427  1
  Cr  Cr40  1  0.32882139  0.32396062  0.66299975  1
  Cr  Cr41  1  0.49071347  0.49426541  0.82826976  1
  Fe  Fe42  1  0.49319712  0.82798051  0.49400837  1
  Fe  Fe43  1  0.32677394  0.66168013  0.66019750  1
  Cr  Cr44  1  0.49339242  0.82705218  0.82763879  1
  Cr  Cr45  1  0.82741948  0.16008679  0.49285004  1
  Fe  Fe46  1  0.65865566  -0.00558185  0.66018977  1
  Cr  Cr47  1  0.82665111  0.15876630  0.82679492  1
  Cr  Cr48  1  0.82690021  0.49215869  0.49303997  1
  Cr  Cr49  1  0.65826624  0.32641608  0.66058485  1
  Cr  Cr50  1  0.82729184  0.49342719  0.82576846  1
  Cr  Cr51  1  0.82595145  0.82952466  0.49458721  1
  Cr  Cr52  1  0.66078063  0.66057662  0.65991003  1
  Cr  Cr53  1  0.82631043  0.82957929  0.82836495  1
" 