4651,Fe61Cr39_10,-214.126613876015, 185.360286452772,Fe61Cr39,"# generated using pymatgen
 data_Cr16Fe11
_symmetry_space_group_name_H-M   'P 1'
_cell_length_a   7.55145512
_cell_length_b   7.55145512
_cell_length_c   10.67937024
_cell_angle_alpha   90.00000000
_cell_angle_beta   90.00000000
_cell_angle_gamma   90.00000000
_symmetry_Int_Tables_number   1
_chemical_formula_structural   Cr16Fe11
_chemical_formula_sum   'Cr32 Fe22'
_cell_volume   608.98547458
_cell_formula_units_Z   2
loop_
 _symmetry_equiv_pos_site_id
 _symmetry_equiv_pos_as_xyz
  1  'x, y, z'
loop_
 _atom_site_type_symbol
 _atom_site_label
 _atom_site_symmetry_multiplicity
 _atom_site_fract_x
 _atom_site_fract_y
 _atom_site_fract_z
 _atom_site_occupancy
  Fe  Fe0  1  -0.00401143  0.99319247  -0.00554339  1
  Cr  Cr1  1  0.16285015  0.15835643  0.16107334  1
  Fe  Fe2  1  -0.00379871  0.99275146  0.32787016  1
  Cr  Cr3  1  -0.00324038  0.32806421  0.99144774  1
  Cr  Cr4  1  0.16372946  0.49211398  0.16165783  1
  Cr  Cr5  1  -0.00299936  0.32725692  0.33201387  1
  Cr  Cr6  1  -0.00304980  0.66106707  -0.00517391  1
  Fe  Fe7  1  0.16067675  0.82852567  0.16083817  1
  Cr  Cr8  1  -0.00357880  0.65996385  0.32663660  1
  Fe  Fe9  1  0.32619596  -0.00488249  0.99382001  1
  Fe  Fe10  1  0.49377066  0.16193497  0.16114334  1
  Cr  Cr11  1  0.32970138  0.99427252  0.32738525  1
  Fe  Fe12  1  0.32865442  0.32631134  0.99289585  1
  Cr  Cr13  1  0.49404697  0.49316334  0.16196003  1
  Fe  Fe14  1  0.32844906  0.32706354  0.32817518  1
  Cr  Cr15  1  0.32611456  0.66290387  0.99408909  1
  Fe  Fe16  1  0.49300652  0.82879973  0.16081766  1
  Cr  Cr17  1  0.32794812  0.66272376  0.32837239  1
  Cr  Cr18  1  0.65692295  -0.00475212  -0.00523129  1
  Cr  Cr19  1  0.82988694  0.15976071  0.16208240  1
  Cr  Cr20  1  0.65893767  0.99386326  0.32756515  1
  Cr  Cr21  1  0.65915722  0.32520092  0.99278961  1
  Cr  Cr22  1  0.82580811  0.49410818  0.16266098  1
  Fe  Fe23  1  0.65903053  0.32704463  0.32728578  1
  Cr  Cr24  1  0.65972774  0.66269184  -0.00405680  1
  Fe  Fe25  1  0.82867722  0.82846358  0.16148628  1
  Fe  Fe26  1  0.66000112  0.66295945  0.32690362  1
  Fe  Fe27  1  0.16335547  0.16220478  0.49434439  1
  Cr  Cr28  1  -0.00470769  -0.00339283  0.66005459  1
  Fe  Fe29  1  0.16442293  0.15960695  0.82792584  1
  Fe  Fe30  1  0.16307611  0.49404960  0.49493695  1
  Cr  Cr31  1  -0.00219217  0.32900014  0.65986420  1
  Fe  Fe32  1  0.16466796  0.49402204  0.82743665  1
  Cr  Cr33  1  0.16361694  0.82958488  0.49654508  1
  Cr  Cr34  1  -0.00217457  0.65833746  0.66249140  1
  Fe  Fe35  1  0.16113219  0.82990841  0.82707895  1
  Cr  Cr36  1  0.49165154  0.16315216  0.49488799  1
  Fe  Fe37  1  0.32586918  -0.00301787  0.66125060  1
  Fe  Fe38  1  0.49049364  0.16105994  0.82740806  1
  Cr  Cr39  1  0.49255224  0.49537796  0.49377760  1
  Fe  Fe40  1  0.32742158  0.32818156  0.66259616  1
  Fe  Fe41  1  0.49122534  0.49360706  0.82775275  1
  Fe  Fe42  1  0.49400927  0.82801581  0.49534644  1
  Fe  Fe43  1  0.32685925  0.65921431  0.66114235  1
  Cr  Cr44  1  0.49023390  0.82729724  0.82370227  1
  Cr  Cr45  1  0.82858704  0.16032920  0.49342723  1
  Cr  Cr46  1  0.65723158  -0.00448977  0.66008711  1
  Cr  Cr47  1  0.82974351  0.15925829  0.82760021  1
  Cr  Cr48  1  0.82470788  0.49463437  0.49265984  1
  Cr  Cr49  1  0.66096107  0.32621199  0.66400155  1
  Cr  Cr50  1  0.82608535  0.49536657  0.82841926  1
  Cr  Cr51  1  0.82863007  0.82731811  0.49403202  1
  Cr  Cr52  1  0.65922060  0.66173342  0.66030740  1
  Cr  Cr53  1  0.82890824  0.82870866  0.82816169  1
" 