1830,Fe61Cr39_12,-214.024247429696, 189.906273561392,Fe61Cr39,"# generated using pymatgen
 data_Cr16Fe11
_symmetry_space_group_name_H-M   'P 1'
_cell_length_a   7.54182651
_cell_length_b   7.54182651
_cell_length_c   10.66575333
_cell_angle_alpha   90.00000000
_cell_angle_beta   90.00000000
_cell_angle_gamma   90.00000000
_symmetry_Int_Tables_number   1
_chemical_formula_structural   Cr16Fe11
_chemical_formula_sum   'Cr32 Fe22'
_cell_volume   606.65895256
_cell_formula_units_Z   2
loop_
 _symmetry_equiv_pos_site_id
 _symmetry_equiv_pos_as_xyz
  1  'x, y, z'
loop_
 _atom_site_type_symbol
 _atom_site_label
 _atom_site_symmetry_multiplicity
 _atom_site_fract_x
 _atom_site_fract_y
 _atom_site_fract_z
 _atom_site_occupancy
  Fe  Fe0  1  0.99450306  -0.00388583  -0.00342151  1
  Fe  Fe1  1  0.16188201  0.16314862  0.16086984  1
  Cr  Cr2  1  -0.00440622  -0.00466926  0.32690803  1
  Cr  Cr3  1  0.99368037  0.32713766  0.99427369  1
  Fe  Fe4  1  0.16164332  0.49333181  0.16114729  1
  Fe  Fe5  1  -0.00377606  0.32767541  0.32813257  1
  Cr  Cr6  1  0.99368759  0.66144909  -0.00273625  1
  Fe  Fe7  1  0.15938560  0.82890495  0.16111028  1
  Cr  Cr8  1  -0.00379247  0.66011817  0.32689946  1
  Cr  Cr9  1  0.32836136  -0.00342924  -0.00133312  1
  Fe  Fe10  1  0.49681803  0.16230251  0.16111396  1
  Cr  Cr11  1  0.32988426  0.99443287  0.32533080  1
  Fe  Fe12  1  0.32667179  0.32748503  -0.00300485  1
  Cr  Cr13  1  0.49517455  0.49332177  0.16088750  1
  Cr  Cr14  1  0.32801832  0.32703443  0.32576757  1
  Cr  Cr15  1  0.32791300  0.66460196  -0.00441549  1
  Cr  Cr16  1  0.49937477  0.82810956  0.16144355  1
  Cr  Cr17  1  0.32613792  0.66360906  0.33009482  1
  Fe  Fe18  1  0.66326912  0.99437428  -0.00460183  1
  Cr  Cr19  1  0.82870670  0.15965112  0.16419563  1
  Fe  Fe20  1  0.66191927  -0.00460859  0.32760331  1
  Cr  Cr21  1  0.66358637  0.32709555  0.99324587  1
  Cr  Cr22  1  0.82687547  0.49626542  0.16260625  1
  Fe  Fe23  1  0.66324981  0.32674857  0.32769921  1
  Fe  Fe24  1  0.66198376  0.66329587  0.99427307  1
  Fe  Fe25  1  0.82759126  0.82888313  0.16109910  1
  Fe  Fe26  1  0.66142482  0.66294927  0.32774330  1
  Cr  Cr27  1  0.15994504  0.16300107  0.49799507  1
  Fe  Fe28  1  0.99155221  -0.00330065  0.66252857  1
  Fe  Fe29  1  0.16044557  0.16109652  0.82817502  1
  Fe  Fe30  1  0.16171332  0.49304522  0.49492518  1
  Cr  Cr31  1  0.99130277  0.32696331  0.66168175  1
  Cr  Cr32  1  0.16373216  0.49203877  0.82702623  1
  Cr  Cr33  1  0.15909159  0.82986956  0.49683882  1
  Cr  Cr34  1  0.99427408  0.65937889  0.66044177  1
  Cr  Cr35  1  0.15872779  0.83176419  0.82710419  1
  Cr  Cr36  1  0.49687895  0.16241323  0.49246177  1
  Cr  Cr37  1  0.33062814  0.99496277  0.66190152  1
  Cr  Cr38  1  0.49304009  0.16229296  0.82950128  1
  Cr  Cr39  1  0.49446422  0.49343851  0.49427538  1
  Fe  Fe40  1  0.32824190  0.32853040  0.66141580  1
  Cr  Cr41  1  0.49427269  0.49472841  0.82996426  1
  Cr  Cr42  1  0.49817885  0.82909932  0.49626470  1
  Cr  Cr43  1  0.32862451  0.66326391  0.65947566  1
  Fe  Fe44  1  0.49555011  0.82971630  0.82977462  1
  Fe  Fe45  1  0.82758623  0.16068027  0.49343851  1
  Fe  Fe46  1  0.66420052  -0.00413013  0.66274273  1
  Fe  Fe47  1  0.83012311  0.15991058  0.82873884  1
  Cr  Cr48  1  0.82799158  0.49399568  0.49110262  1
  Cr  Cr49  1  0.66503198  0.32554628  0.66212671  1
  Fe  Fe50  1  0.82874334  0.49514847  0.82928168  1
  Cr  Cr51  1  0.82797357  0.83130649  0.49336282  1
  Cr  Cr52  1  0.66202888  0.66113331  0.66556947  1
  Cr  Cr53  1  0.82817799  0.83106210  0.83124193  1
" 