5215,Fe61Cr39_14,-214.352269335001, 185.665238286052,Fe61Cr39,"# generated using pymatgen
 data_Cr16Fe11
_symmetry_space_group_name_H-M   'P 1'
_cell_length_a   7.55889685
_cell_length_b   7.55889685
_cell_length_c   10.68989444
_cell_angle_alpha   90.00000000
_cell_angle_beta   90.00000000
_cell_angle_gamma   90.00000000
_symmetry_Int_Tables_number   1
_chemical_formula_structural   Cr16Fe11
_chemical_formula_sum   'Cr32 Fe22'
_cell_volume   610.78766035
_cell_formula_units_Z   2
loop_
 _symmetry_equiv_pos_site_id
 _symmetry_equiv_pos_as_xyz
  1  'x, y, z'
loop_
 _atom_site_type_symbol
 _atom_site_label
 _atom_site_symmetry_multiplicity
 _atom_site_fract_x
 _atom_site_fract_y
 _atom_site_fract_z
 _atom_site_occupancy
  Cr  Cr0  1  -0.00246657  -0.00535156  0.99330765  1
  Fe  Fe1  1  0.16132457  0.16084541  0.16051781  1
  Cr  Cr2  1  -0.00434144  -0.00542345  0.32831456  1
  Cr  Cr3  1  -0.00464345  0.32964068  -0.00315066  1
  Fe  Fe4  1  0.16091390  0.49475239  0.16034163  1
  Cr  Cr5  1  -0.00430606  0.32933758  0.32493193  1
  Fe  Fe6  1  -0.00418431  0.66034473  -0.00501238  1
  Fe  Fe7  1  0.16175057  0.82670930  0.15980462  1
  Cr  Cr8  1  -0.00532397  0.65754010  0.32619327  1
  Fe  Fe9  1  0.32541269  -0.00545979  0.99384067  1
  Cr  Cr10  1  0.49139979  0.16225337  0.15921938  1
  Cr  Cr11  1  0.32630851  0.99294246  0.32325009  1
  Cr  Cr12  1  0.32438184  0.32669317  0.99272346  1
  Cr  Cr13  1  0.49238607  0.49416739  0.16238722  1
  Fe  Fe14  1  0.32598169  0.32857114  0.32688203  1
  Cr  Cr15  1  0.32383537  0.66203522  0.99286374  1
  Fe  Fe16  1  0.49278969  0.82690208  0.16028393  1
  Cr  Cr17  1  0.32692865  0.65928059  0.32930350  1
  Cr  Cr18  1  0.65833871  -0.00568914  0.99217734  1
  Cr  Cr19  1  0.82784784  0.16015058  0.16107810  1
  Cr  Cr20  1  0.65963236  0.99285590  0.32802474  1
  Cr  Cr21  1  0.66142220  0.32707803  0.99132563  1
  Fe  Fe22  1  0.82736777  0.49407595  0.16031214  1
  Cr  Cr23  1  0.66267744  0.32993751  0.32931379  1
  Cr  Cr24  1  0.66040492  0.65993261  -0.00269215  1
  Cr  Cr25  1  0.82877338  0.82555341  0.16083232  1
  Fe  Fe26  1  0.66190663  0.65925362  0.32729443  1
  Cr  Cr27  1  0.16118580  0.16268827  0.49229243  1
  Fe  Fe28  1  -0.00416505  -0.00563115  0.66164597  1
  Fe  Fe29  1  0.16078674  0.16170408  0.82627979  1
  Fe  Fe30  1  0.16105354  0.49326435  0.49578381  1
  Fe  Fe31  1  -0.00450074  0.32905100  0.66074973  1
  Fe  Fe32  1  0.15931321  0.49467220  0.82546404  1
  Cr  Cr33  1  0.15944083  0.82639328  0.49704767  1
  Fe  Fe34  1  -0.00409106  0.65838390  0.66106113  1
  Fe  Fe35  1  0.15946949  0.82579690  0.82620693  1
  Cr  Cr36  1  0.49154316  0.16437985  0.49413990  1
  Cr  Cr37  1  0.32662645  0.99328344  0.66392829  1
  Fe  Fe38  1  0.49208521  0.16144751  0.82657325  1
  Fe  Fe39  1  0.49233523  0.49288143  0.49463699  1
  Fe  Fe40  1  0.32588381  0.32845524  0.66094041  1
  Cr  Cr41  1  0.49155999  0.49213387  0.82496857  1
  Cr  Cr42  1  0.49291180  0.82497029  0.49097348  1
  Fe  Fe43  1  0.32542051  0.65864500  0.66064014  1
  Cr  Cr44  1  0.49242461  0.82543858  0.82986104  1
  Cr  Cr45  1  0.82937637  0.16097800  0.49620520  1
  Cr  Cr46  1  0.65931213  -0.00549309  0.66107250  1
  Cr  Cr47  1  0.82900902  0.16128490  0.82471185  1
  Fe  Fe48  1  0.82874428  0.49334502  0.49508757  1
  Fe  Fe49  1  0.66034029  0.32839638  0.66023761  1
  Cr  Cr50  1  0.82890494  0.49510906  0.82937535  1
  Cr  Cr51  1  0.82970291  0.82642804  0.49459195  1
  Cr  Cr52  1  0.65973058  0.65905648  0.65744442  1
  Cr  Cr53  1  0.83099629  0.82592702  0.82633032  1
" 