5491,Fe61Cr39_11,-214.056846326133, 182.125341193932,Fe61Cr39,"# generated using pymatgen
 data_Cr16Fe11
_symmetry_space_group_name_H-M   'P 1'
_cell_length_a   7.54361273
_cell_length_b   7.54361273
_cell_length_c   10.66827943
_cell_angle_alpha   90.00000000
_cell_angle_beta   90.00000000
_cell_angle_gamma   90.00000000
_symmetry_Int_Tables_number   1
_chemical_formula_structural   Cr16Fe11
_chemical_formula_sum   'Cr32 Fe22'
_cell_volume   607.09010179
_cell_formula_units_Z   2
loop_
 _symmetry_equiv_pos_site_id
 _symmetry_equiv_pos_as_xyz
  1  'x, y, z'
loop_
 _atom_site_type_symbol
 _atom_site_label
 _atom_site_symmetry_multiplicity
 _atom_site_fract_x
 _atom_site_fract_y
 _atom_site_fract_z
 _atom_site_occupancy
  Cr  Cr0  1  0.99410921  -0.00366305  -0.00407533  1
  Cr  Cr1  1  0.16118088  0.16220784  0.16253568  1
  Cr  Cr2  1  0.99307839  0.99468521  0.32744697  1
  Cr  Cr3  1  0.99344936  0.32760167  0.99447275  1
  Cr  Cr4  1  0.16159177  0.49378266  0.16510969  1
  Fe  Fe5  1  0.99404389  0.32971216  0.32809492  1
  Cr  Cr6  1  0.99435684  0.66120082  -0.00365332  1
  Fe  Fe7  1  0.16160446  0.82872226  0.16318779  1
  Fe  Fe8  1  0.99316957  0.66086240  0.32855407  1
  Cr  Cr9  1  0.32867221  -0.00288539  -0.00494240  1
  Fe  Fe10  1  0.49685896  0.16190422  0.16406306  1
  Fe  Fe11  1  0.33075221  -0.00381244  0.32800458  1
  Cr  Cr12  1  0.33052395  0.32748228  -0.00415065  1
  Fe  Fe13  1  0.49735356  0.49269305  0.16432664  1
  Fe  Fe14  1  0.33022460  0.32597520  0.32852867  1
  Cr  Cr15  1  0.32884291  0.66022796  -0.00237794  1
  Cr  Cr16  1  0.49583298  0.82913338  0.16061073  1
  Cr  Cr17  1  0.32960189  0.66093682  0.32766416  1
  Fe  Fe18  1  0.66067702  -0.00281104  -0.00420643  1
  Fe  Fe19  1  0.82521078  0.16314643  0.16341478  1
  Fe  Fe20  1  0.65850104  -0.00479123  0.32900957  1
  Cr  Cr21  1  0.66101999  0.32721574  -0.00392936  1
  Fe  Fe22  1  0.82700808  0.49360764  0.16471904  1
  Fe  Fe23  1  0.66067864  0.32773667  0.32589318  1
  Cr  Cr24  1  0.66173939  0.65889561  -0.00463724  1
  Cr  Cr25  1  0.82621956  0.82964772  0.16180579  1
  Fe  Fe26  1  0.66296963  0.66202437  0.32822884  1
  Cr  Cr27  1  0.16280355  0.16314620  0.49524463  1
  Cr  Cr28  1  0.99475620  -0.00476879  0.66239117  1
  Fe  Fe29  1  0.16417776  0.16084702  0.82781507  1
  Fe  Fe30  1  0.16108847  0.49364506  0.49265393  1
  Cr  Cr31  1  0.99455839  0.32751750  0.66321349  1
  Cr  Cr32  1  0.16193814  0.49390385  0.82687002  1
  Cr  Cr33  1  0.16319360  0.82898655  0.49359529  1
  Cr  Cr34  1  0.99399698  0.66227908  0.65961105  1
  Cr  Cr35  1  0.16297708  0.82950111  0.83059051  1
  Fe  Fe36  1  0.49465904  0.16073185  0.49268190  1
  Fe  Fe37  1  0.32916072  -0.00457875  0.66157290  1
  Fe  Fe38  1  0.49476917  0.16032729  0.82732127  1
  Cr  Cr39  1  0.49540331  0.49367740  0.49352054  1
  Cr  Cr40  1  0.33072020  0.32564309  0.66164135  1
  Cr  Cr41  1  0.49678038  0.49419883  0.82860032  1
  Fe  Fe42  1  0.49624862  0.83079457  0.49246710  1
  Cr  Cr43  1  0.32931558  0.66175555  0.66030549  1
  Cr  Cr44  1  0.49539905  0.82961963  0.82826590  1
  Cr  Cr45  1  0.82700494  0.16274516  0.49233045  1
  Cr  Cr46  1  0.65988437  -0.00383614  0.65812396  1
  Cr  Cr47  1  0.82644559  0.16243996  0.82897406  1
  Cr  Cr48  1  0.82815441  0.49373875  0.49443506  1
  Fe  Fe49  1  0.66145993  0.32765411  0.66193413  1
  Fe  Fe50  1  0.82749607  0.49530357  0.82740509  1
  Fe  Fe51  1  0.82648301  0.82803417  0.49210656  1
  Cr  Cr52  1  0.66164386  0.66194681  0.66006920  1
  Cr  Cr53  1  0.82616895  0.82926669  0.82852047  1
" 