3241,Fe61Cr39_8,-214.133123076039, 190.117319859445,Fe61Cr39,"# generated using pymatgen
 data_Cr16Fe11
_symmetry_space_group_name_H-M   'P 1'
_cell_length_a   7.55446013
_cell_length_b   7.55446013
_cell_length_c   10.68361997
_cell_angle_alpha   90.00000000
_cell_angle_beta   90.00000000
_cell_angle_gamma   90.00000000
_symmetry_Int_Tables_number   1
_chemical_formula_structural   Cr16Fe11
_chemical_formula_sum   'Cr32 Fe22'
_cell_volume   609.71277884
_cell_formula_units_Z   2
loop_
 _symmetry_equiv_pos_site_id
 _symmetry_equiv_pos_as_xyz
  1  'x, y, z'
loop_
 _atom_site_type_symbol
 _atom_site_label
 _atom_site_symmetry_multiplicity
 _atom_site_fract_x
 _atom_site_fract_y
 _atom_site_fract_z
 _atom_site_occupancy
  Fe  Fe0  1  -0.00535850  0.99288599  -0.00564419  1
  Cr  Cr1  1  0.16291923  0.15974087  0.15761032  1
  Cr  Cr2  1  -0.00224664  -0.00388403  0.32853832  1
  Cr  Cr3  1  -0.00492030  0.32646159  0.99166309  1
  Cr  Cr4  1  0.16168331  0.49537943  0.16100727  1
  Cr  Cr5  1  -0.00336990  0.32510747  0.33023418  1
  Cr  Cr6  1  0.99366371  0.66048519  0.99383598  1
  Fe  Fe7  1  0.16132120  0.82860793  0.15994500  1
  Fe  Fe8  1  -0.00395856  0.66266444  0.32780085  1
  Fe  Fe9  1  0.32630871  0.99279437  0.99406737  1
  Cr  Cr10  1  0.49338327  0.16286565  0.16008859  1
  Fe  Fe11  1  0.32605279  -0.00464448  0.32833391  1
  Fe  Fe12  1  0.32990120  0.32900571  -0.00550850  1
  Fe  Fe13  1  0.49356794  0.49229293  0.15990034  1
  Fe  Fe14  1  0.32835350  0.32588164  0.32741782  1
  Fe  Fe15  1  0.32771372  0.66109026  -0.00488540  1
  Cr  Cr16  1  0.49157324  0.82931470  0.16017935  1
  Cr  Cr17  1  0.32756520  0.66242491  0.32703166  1
  Cr  Cr18  1  0.65992799  0.99281714  0.99286062  1
  Cr  Cr19  1  0.82640928  0.16131461  0.16096683  1
  Cr  Cr20  1  0.65925232  -0.00511889  0.32902413  1
  Fe  Fe21  1  0.66041187  0.32887597  -0.00576227  1
  Cr  Cr22  1  0.82783282  0.49357993  0.16375231  1
  Fe  Fe23  1  0.65904663  0.32681829  0.32770458  1
  Cr  Cr24  1  0.65862663  0.66036370  0.99271710  1
  Cr  Cr25  1  0.83062595  0.82761716  0.16109957  1
  Cr  Cr26  1  0.65799446  0.66091834  0.32574891  1
  Fe  Fe27  1  0.16243976  0.15880976  0.49549069  1
  Fe  Fe28  1  -0.00531850  0.99392352  0.65982492  1
  Cr  Cr29  1  0.16247109  0.15971904  0.82887215  1
  Cr  Cr30  1  0.16154482  0.49537715  0.49485160  1
  Cr  Cr31  1  -0.00429386  0.32440631  0.66063622  1
  Cr  Cr32  1  0.16264163  0.49471806  0.82667344  1
  Fe  Fe33  1  0.16198885  0.82919871  0.49526100  1
  Cr  Cr34  1  0.99386072  0.66016434  0.66133098  1
  Cr  Cr35  1  0.16048325  0.82781023  0.82878269  1
  Cr  Cr36  1  0.49391104  0.16083961  0.49548066  1
  Fe  Fe37  1  0.32477397  -0.00515518  0.66033508  1
  Cr  Cr38  1  0.49382721  0.16115782  0.82711666  1
  Cr  Cr39  1  0.49340178  0.49245666  0.49423323  1
  Fe  Fe40  1  0.32790881  0.32674090  0.66049898  1
  Cr  Cr41  1  0.49210324  0.49252523  0.82742837  1
  Cr  Cr42  1  0.49271438  0.82937558  0.49773635  1
  Fe  Fe43  1  0.32624751  0.66121157  0.66023333  1
  Cr  Cr44  1  0.49249800  0.82923040  0.82449770  1
  Fe  Fe45  1  0.82691489  0.16083917  0.49587110  1
  Fe  Fe46  1  0.66309839  -0.00381641  0.66077431  1
  Cr  Cr47  1  0.82669261  0.15890059  0.82719928  1
  Cr  Cr48  1  0.82769822  0.49421822  0.49149210  1
  Fe  Fe49  1  0.66168342  0.32714654  0.66063196  1
  Fe  Fe50  1  0.82669046  0.49346123  0.82731766  1
  Cr  Cr51  1  0.82907278  0.82830631  0.49433634  1
  Cr  Cr52  1  0.65967621  0.66188044  0.66398294  1
  Fe  Fe53  1  0.82857177  0.82847690  0.82696601  1
" 