6473,Fe61Cr39_4,-214.040660310041, 190.798987442223,Fe61Cr39,"# generated using pymatgen
 data_Cr16Fe11
_symmetry_space_group_name_H-M   'P 1'
_cell_length_a   7.55193182
_cell_length_b   7.55193182
_cell_length_c   10.68004440
_cell_angle_alpha   90.00000000
_cell_angle_beta   90.00000000
_cell_angle_gamma   90.00000000
_symmetry_Int_Tables_number   1
_chemical_formula_structural   Cr16Fe11
_chemical_formula_sum   'Cr32 Fe22'
_cell_volume   609.10081220
_cell_formula_units_Z   2
loop_
 _symmetry_equiv_pos_site_id
 _symmetry_equiv_pos_as_xyz
  1  'x, y, z'
loop_
 _atom_site_type_symbol
 _atom_site_label
 _atom_site_symmetry_multiplicity
 _atom_site_fract_x
 _atom_site_fract_y
 _atom_site_fract_z
 _atom_site_occupancy
  Fe  Fe0  1  -0.00444465  0.99389166  -0.00443462  1
  Fe  Fe1  1  0.16073363  0.15787220  0.16150568  1
  Fe  Fe2  1  0.99405197  0.99332861  0.32685239  1
  Cr  Cr3  1  -0.00256851  0.32786504  -0.00535521  1
  Cr  Cr4  1  0.16128967  0.49614401  0.16259513  1
  Cr  Cr5  1  -0.00492676  0.32852864  0.32935890  1
  Cr  Cr6  1  0.99246025  0.66487601  -0.00362416  1
  Fe  Fe7  1  0.16044118  0.83096247  0.16211623  1
  Cr  Cr8  1  0.99178057  0.66410818  0.32778102  1
  Cr  Cr9  1  0.32794452  -0.00348964  0.99203209  1
  Cr  Cr10  1  0.49806954  0.15873332  0.16247092  1
  Fe  Fe11  1  0.32568503  0.99286301  0.32653242  1
  Cr  Cr12  1  0.33073506  0.32589424  -0.00542640  1
  Cr  Cr13  1  0.49559026  0.49680054  0.16039201  1
  Cr  Cr14  1  0.32926182  0.32519151  0.32435358  1
  Cr  Cr15  1  0.32713839  0.66071608  0.99378699  1
  Cr  Cr16  1  0.49398090  0.82764444  0.16348616  1
  Fe  Fe17  1  0.32677659  0.66193890  0.32721565  1
  Fe  Fe18  1  0.66060730  0.99384992  -0.00540586  1
  Cr  Cr19  1  0.82896819  0.15878577  0.15941217  1
  Fe  Fe20  1  0.66364498  0.99437415  0.32807855  1
  Fe  Fe21  1  0.65949407  0.32753844  0.99347319  1
  Cr  Cr22  1  0.82639421  0.49227972  0.15926778  1
  Fe  Fe23  1  0.66242371  0.32826920  0.32773973  1
  Fe  Fe24  1  0.65966970  0.66125888  -0.00560329  1
  Fe  Fe25  1  0.82704198  0.82943698  0.16037812  1
  Cr  Cr26  1  0.66455303  0.66328744  0.32936581  1
  Cr  Cr27  1  0.15989226  0.15991403  0.49444841  1
  Cr  Cr28  1  0.99317016  0.99164816  0.66183511  1
  Cr  Cr29  1  0.15824143  0.15963354  0.82597366  1
  Cr  Cr30  1  0.16105668  0.49505874  0.49545118  1
  Fe  Fe31  1  0.99251853  0.32758328  0.66032660  1
  Cr  Cr32  1  0.16072335  0.49621030  0.82569324  1
  Cr  Cr33  1  0.16496093  0.82766513  0.49517039  1
  Cr  Cr34  1  0.99052896  0.66172788  0.65938788  1
  Fe  Fe35  1  0.16049126  0.82745481  0.82696946  1
  Cr  Cr36  1  0.49544972  0.15881036  0.49242698  1
  Fe  Fe37  1  0.32759866  0.99350264  0.66209226  1
  Fe  Fe38  1  0.49666885  0.16168313  0.82764925  1
  Cr  Cr39  1  0.49443687  0.49658226  0.49378475  1
  Cr  Cr40  1  0.33074393  0.32530872  0.66350364  1
  Fe  Fe41  1  0.49656544  0.49382768  0.82735929  1
  Cr  Cr42  1  0.49272643  0.82747362  0.49358351  1
  Fe  Fe43  1  0.32866195  0.66190113  0.66213583  1
  Cr  Cr44  1  0.49281481  0.82600143  0.82558536  1
  Cr  Cr45  1  0.82789457  0.16288931  0.49441250  1
  Cr  Cr46  1  0.65993208  0.99370443  0.66020787  1
  Cr  Cr47  1  0.82690649  0.16181767  0.82968527  1
  Fe  Fe48  1  0.82629773  0.49436109  0.49571998  1
  Fe  Fe49  1  0.66160426  0.32888279  0.66094267  1
  Cr  Cr50  1  0.82617905  0.49276340  0.82725926  1
  Fe  Fe51  1  0.82736556  0.82859578  0.49430594  1
  Fe  Fe52  1  0.66064905  0.65989928  0.66057957  1
  Cr  Cr53  1  0.82564253  0.82866795  0.83168342  1
" 