5221,Fe61Cr39_7,-214.237851329627, 191.682329633891,Fe61Cr39,"# generated using pymatgen
 data_Cr16Fe11
_symmetry_space_group_name_H-M   'P 1'
_cell_length_a   7.55199689
_cell_length_b   7.55199689
_cell_length_c   10.68013643
_cell_angle_alpha   90.00000000
_cell_angle_beta   90.00000000
_cell_angle_gamma   90.00000000
_symmetry_Int_Tables_number   1
_chemical_formula_structural   Cr16Fe11
_chemical_formula_sum   'Cr32 Fe22'
_cell_volume   609.11655813
_cell_formula_units_Z   2
loop_
 _symmetry_equiv_pos_site_id
 _symmetry_equiv_pos_as_xyz
  1  'x, y, z'
loop_
 _atom_site_type_symbol
 _atom_site_label
 _atom_site_symmetry_multiplicity
 _atom_site_fract_x
 _atom_site_fract_y
 _atom_site_fract_z
 _atom_site_occupancy
  Fe  Fe0  1  -0.00328441  -0.00277871  -0.00514183  1
  Fe  Fe1  1  0.16114986  0.16097764  0.15989269  1
  Cr  Cr2  1  -0.00409184  0.99311107  0.32544183  1
  Fe  Fe3  1  -0.00468646  0.32745274  0.99326783  1
  Cr  Cr4  1  0.16032935  0.49656420  0.16426015  1
  Fe  Fe5  1  -0.00520571  0.32581866  0.32778375  1
  Cr  Cr6  1  0.99121419  0.66343935  0.99339894  1
  Cr  Cr7  1  0.16435925  0.82735390  0.15889828  1
  Cr  Cr8  1  0.99237795  0.66563556  0.32985906  1
  Fe  Fe9  1  0.32610529  -0.00444700  0.99412640  1
  Cr  Cr10  1  0.49521648  0.15844813  0.16102446  1
  Fe  Fe11  1  0.32699842  0.99271079  0.32921867  1
  Cr  Cr12  1  0.32889918  0.32723022  0.99247565  1
  Fe  Fe13  1  0.49333311  0.49559988  0.15925281  1
  Cr  Cr14  1  0.32676482  0.32527457  0.32713210  1
  Fe  Fe15  1  0.32926275  0.65886843  0.99390196  1
  Cr  Cr16  1  0.49057616  0.82672926  0.16009773  1
  Fe  Fe17  1  0.32809747  0.66361330  0.32848666  1
  Cr  Cr18  1  0.66401452  0.99272259  -0.00470539  1
  Cr  Cr19  1  0.82927367  0.16319179  0.15994650  1
  Cr  Cr20  1  0.66334014  0.99161304  0.33073012  1
  Fe  Fe21  1  0.66138272  0.33053554  0.99345470  1
  Cr  Cr22  1  0.82897295  0.49166240  0.16088422  1
  Cr  Cr23  1  0.65707576  0.32880533  0.32434354  1
  Fe  Fe24  1  0.65904560  0.65808300  -0.00549906  1
  Fe  Fe25  1  0.82779450  0.82758768  0.15958015  1
  Cr  Cr26  1  0.66256388  0.66229511  0.32563454  1
  Fe  Fe27  1  0.16019024  0.16159988  0.49338694  1
  Cr  Cr28  1  -0.00537301  0.99288129  0.66076835  1
  Fe  Fe29  1  0.15960688  0.16081450  0.82904920  1
  Cr  Cr30  1  0.15897928  0.49602619  0.49318136  1
  Fe  Fe31  1  -0.00375143  0.32803984  0.66271394  1
  Fe  Fe32  1  0.15939666  0.49274562  0.82863980  1
  Fe  Fe33  1  0.16300329  0.82929948  0.49333483  1
  Cr  Cr34  1  0.99328359  0.66240689  0.66099868  1
  Cr  Cr35  1  0.16415950  0.82591472  0.83087092  1
  Cr  Cr36  1  0.49631303  0.15678881  0.49557179  1
  Cr  Cr37  1  0.32561262  -0.00306005  0.65915009  1
  Cr  Cr38  1  0.49691656  0.15804964  0.82673678  1
  Cr  Cr39  1  0.49295481  0.49625950  0.49161862  1
  Cr  Cr40  1  0.32579957  0.32719275  0.66369896  1
  Fe  Fe41  1  0.49543977  0.49564727  0.82972234  1
  Fe  Fe42  1  0.49333828  0.82688523  0.49425249  1
  Cr  Cr43  1  0.32696829  0.65863701  0.66146446  1
  Cr  Cr44  1  0.49179264  0.82789845  0.82758851  1
  Cr  Cr45  1  0.82776896  0.16307687  0.49649895  1
  Fe  Fe46  1  0.66135239  0.99231824  0.66021844  1
  Cr  Cr47  1  0.82853489  0.16474128  0.82668553  1
  Cr  Cr48  1  0.83081104  0.49040765  0.49458804  1
  Cr  Cr49  1  0.65773787  0.32978580  0.66353708  1
  Fe  Fe50  1  0.82771885  0.49409599  0.82910810  1
  Fe  Fe51  1  0.82685553  0.82817207  0.49537715  1
  Cr  Cr52  1  0.66300045  0.66225396  0.66119713  1
  Cr  Cr53  1  0.82699805  0.82931085  0.82858325  1
" 