6874,Fe62Cr38_0,-213.533332344478, 194.766157594891,Fe62Cr38,"# generated using pymatgen
 data_Cr11Fe7
_symmetry_space_group_name_H-M   'P 1'
_cell_length_a   7.54781321
_cell_length_b   7.54781321
_cell_length_c   10.67421981
_cell_angle_alpha   90.00000000
_cell_angle_beta   90.00000000
_cell_angle_gamma   90.00000000
_symmetry_Int_Tables_number   1
_chemical_formula_structural   Cr11Fe7
_chemical_formula_sum   'Cr33 Fe21'
_cell_volume   608.10479698
_cell_formula_units_Z   3
loop_
 _symmetry_equiv_pos_site_id
 _symmetry_equiv_pos_as_xyz
  1  'x, y, z'
loop_
 _atom_site_type_symbol
 _atom_site_label
 _atom_site_symmetry_multiplicity
 _atom_site_fract_x
 _atom_site_fract_y
 _atom_site_fract_z
 _atom_site_occupancy
  Fe  Fe0  1  0.99327075  -0.00488554  -0.00524933  1
  Fe  Fe1  1  0.16067791  0.16297843  0.16113071  1
  Cr  Cr2  1  -0.00247437  -0.00249670  0.32774354  1
  Fe  Fe3  1  -0.00385643  0.32786711  -0.00428396  1
  Cr  Cr4  1  0.16127546  0.49449675  0.16119248  1
  Fe  Fe5  1  0.99421794  0.32887666  0.32794057  1
  Fe  Fe6  1  -0.00429179  0.66060603  -0.00533867  1
  Cr  Cr7  1  0.15961794  0.82743546  0.15971834  1
  Cr  Cr8  1  -0.00466112  0.66085697  0.33054911  1
  Cr  Cr9  1  0.32501659  0.99457570  -0.00306336  1
  Cr  Cr10  1  0.49287897  0.16158258  0.16536985  1
  Fe  Fe11  1  0.32897518  0.99375349  0.32752960  1
  Fe  Fe12  1  0.32969524  0.32833883  -0.00488092  1
  Cr  Cr13  1  0.49251992  0.49236742  0.16056391  1
  Fe  Fe14  1  0.32580939  0.32943876  0.32774597  1
  Cr  Cr15  1  0.32986242  0.66332810  0.99285665  1
  Fe  Fe16  1  0.49367016  0.82915540  0.16199406  1
  Cr  Cr17  1  0.32909863  0.66470169  0.32992635  1
  Cr  Cr18  1  0.65843586  -0.00520557  0.99324666  1
  Cr  Cr19  1  0.82703041  0.15951385  0.16191531  1
  Fe  Fe20  1  0.66105634  0.99148437  0.32784802  1
  Cr  Cr21  1  0.66422646  0.32881637  0.99343874  1
  Fe  Fe22  1  0.82980248  0.49264622  0.16154403  1
  Fe  Fe23  1  0.66231007  0.32736030  0.32783536  1
  Cr  Cr24  1  0.65967585  0.65949188  -0.00329424  1
  Cr  Cr25  1  0.82831855  0.82656678  0.15950718  1
  Cr  Cr26  1  0.65941156  0.65908587  0.32399582  1
  Cr  Cr27  1  0.16470319  0.16395281  0.49160477  1
  Cr  Cr28  1  -0.00198871  -0.00378466  0.66213051  1
  Cr  Cr29  1  0.16279475  0.16344520  0.83246358  1
  Fe  Fe30  1  0.16135303  0.49542900  0.49480798  1
  Cr  Cr31  1  -0.00521584  0.32752902  0.65841428  1
  Cr  Cr32  1  0.16434024  0.49585135  0.82665286  1
  Fe  Fe33  1  0.16172502  0.82894782  0.49445598  1
  Fe  Fe34  1  -0.00390998  0.66176462  0.66008350  1
  Fe  Fe35  1  0.16065755  0.82850376  0.82929909  1
  Cr  Cr36  1  0.49477372  0.16024857  0.49387733  1
  Cr  Cr37  1  0.32636175  0.99265165  0.66076958  1
  Cr  Cr38  1  0.49233548  0.16307572  0.82496466  1
  Cr  Cr39  1  0.49165814  0.49159823  0.49513413  1
  Fe  Fe40  1  0.32698369  0.32794952  0.66104134  1
  Fe  Fe41  1  0.49443429  0.49453270  0.82832512  1
  Fe  Fe42  1  0.49632122  0.82837910  0.49399043  1
  Cr  Cr43  1  0.32758298  0.66320062  0.66034078  1
  Fe  Fe44  1  0.49403069  0.82886205  0.82776935  1
  Cr  Cr45  1  0.82509452  0.15835674  0.49514144  1
  Fe  Fe46  1  0.65925261  0.99236294  0.66191722  1
  Cr  Cr47  1  0.82755244  0.15825558  0.82617702  1
  Cr  Cr48  1  0.82800022  0.49652433  0.49300016  1
  Cr  Cr49  1  0.66285960  0.32872832  0.66322254  1
  Cr  Cr50  1  0.83183658  0.49728849  0.82965999  1
  Cr  Cr51  1  0.82784199  0.82782367  0.49732843  1
  Cr  Cr52  1  0.65836747  0.65963497  0.66345753  1
  Cr  Cr53  1  0.82976869  0.82723632  0.82757429  1
" 