1615,Fe62Cr38_4,-213.614157566379, 191.987194131788,Fe62Cr38,"# generated using pymatgen
 data_Cr11Fe7
_symmetry_space_group_name_H-M   'P 1'
_cell_length_a   7.55081865
_cell_length_b   7.55081865
_cell_length_c   10.67847014
_cell_angle_alpha   90.00000000
_cell_angle_beta   90.00000000
_cell_angle_gamma   90.00000000
_symmetry_Int_Tables_number   1
_chemical_formula_structural   Cr11Fe7
_chemical_formula_sum   'Cr33 Fe21'
_cell_volume   608.83150352
_cell_formula_units_Z   3
loop_
 _symmetry_equiv_pos_site_id
 _symmetry_equiv_pos_as_xyz
  1  'x, y, z'
loop_
 _atom_site_type_symbol
 _atom_site_label
 _atom_site_symmetry_multiplicity
 _atom_site_fract_x
 _atom_site_fract_y
 _atom_site_fract_z
 _atom_site_occupancy
  Fe  Fe0  1  0.99403549  0.99218204  -0.00512039  1
  Cr  Cr1  1  0.16399972  0.16209903  0.15792537  1
  Cr  Cr2  1  -0.00389404  -0.00520309  0.32582398  1
  Cr  Cr3  1  0.99172847  0.32479994  0.99184058  1
  Cr  Cr4  1  0.16088423  0.49624537  0.16241754  1
  Cr  Cr5  1  0.99406042  0.32632301  0.32833486  1
  Fe  Fe6  1  0.99398586  0.66056748  0.99425725  1
  Fe  Fe7  1  0.16137541  0.82671184  0.15762680  1
  Fe  Fe8  1  -0.00425424  0.66061213  0.32747464  1
  Fe  Fe9  1  0.32927028  0.99288226  -0.00480098  1
  Cr  Cr10  1  0.49328184  0.16101440  0.16437235  1
  Cr  Cr11  1  0.32519719  0.99044107  0.32584087  1
  Cr  Cr12  1  0.32953574  0.33119267  -0.00473001  1
  Fe  Fe13  1  0.49393028  0.49672984  0.15960990  1
  Fe  Fe14  1  0.32798434  0.32990358  0.32781513  1
  Fe  Fe15  1  0.33002814  0.66195217  -0.00463872  1
  Fe  Fe16  1  0.49349104  0.82633420  0.15885499  1
  Cr  Cr17  1  0.32872243  0.66100415  0.32851709  1
  Cr  Cr18  1  0.66170354  0.99425482  0.99307338  1
  Cr  Cr19  1  0.82578819  0.15968375  0.16097284  1
  Fe  Fe20  1  0.65980224  0.99320113  0.32690449  1
  Cr  Cr21  1  0.66226910  0.33137857  0.99323538  1
  Cr  Cr22  1  0.82895689  0.49808325  0.15855719  1
  Cr  Cr23  1  0.66143321  0.33098099  0.32492055  1
  Fe  Fe24  1  0.65891950  0.66186864  0.99333744  1
  Cr  Cr25  1  0.82751718  0.82516594  0.16377735  1
  Cr  Cr26  1  0.65707131  0.65954001  0.32687754  1
  Cr  Cr27  1  0.16511861  0.16519830  0.49599070  1
  Cr  Cr28  1  -0.00550778  -0.00296707  0.66230084  1
  Cr  Cr29  1  0.16425614  0.16259079  0.82912135  1
  Fe  Fe30  1  0.16292917  0.49395219  0.49517814  1
  Fe  Fe31  1  -0.00501661  0.32954966  0.66117834  1
  Cr  Cr32  1  0.16012594  0.49484737  0.82512412  1
  Cr  Cr33  1  0.15770298  0.82388291  0.49482281  1
  Fe  Fe34  1  0.99418693  0.66050646  0.66169140  1
  Cr  Cr35  1  0.16036230  0.82577340  0.83255406  1
  Cr  Cr36  1  0.49380038  0.16247240  0.49332351  1
  Cr  Cr37  1  0.32599683  0.99055007  0.66316825  1
  Cr  Cr38  1  0.49396750  0.16062954  0.82580179  1
  Fe  Fe39  1  0.49421641  0.49312179  0.49499585  1
  Fe  Fe40  1  0.32957497  0.32960448  0.66108169  1
  Fe  Fe41  1  0.49319431  0.49658153  0.82934232  1
  Cr  Cr42  1  0.49786194  0.83162507  0.49633054  1
  Cr  Cr43  1  0.32879335  0.66078742  0.66033926  1
  Fe  Fe44  1  0.49300873  0.82611761  0.82968253  1
  Cr  Cr45  1  0.82374870  0.15923590  0.49450642  1
  Fe  Fe46  1  0.66093093  0.99428803  0.66301132  1
  Fe  Fe47  1  0.82874680  0.15993645  0.82726451  1
  Cr  Cr48  1  0.83163298  0.49790313  0.49470557  1
  Cr  Cr49  1  0.66401524  0.32954511  0.66472713  1
  Fe  Fe50  1  0.82892412  0.49512279  0.82821686  1
  Cr  Cr51  1  0.82660745  0.82608518  0.49329503  1
  Cr  Cr52  1  0.65799601  0.65926203  0.66353148  1
  Cr  Cr53  1  0.82645582  0.82430217  0.82609068  1
" 