7880,Fe62Cr38_17,-213.700740731313, 191.320298467268,Fe62Cr38,"# generated using pymatgen
 data_Cr11Fe7
_symmetry_space_group_name_H-M   'P 1'
_cell_length_a   7.55997031
_cell_length_b   7.55997031
_cell_length_c   10.69141254
_cell_angle_alpha   90.00000000
_cell_angle_beta   90.00000000
_cell_angle_gamma   90.00000000
_symmetry_Int_Tables_number   1
_chemical_formula_structural   Cr11Fe7
_chemical_formula_sum   'Cr33 Fe21'
_cell_volume   611.04791540
_cell_formula_units_Z   3
loop_
 _symmetry_equiv_pos_site_id
 _symmetry_equiv_pos_as_xyz
  1  'x, y, z'
loop_
 _atom_site_type_symbol
 _atom_site_label
 _atom_site_symmetry_multiplicity
 _atom_site_fract_x
 _atom_site_fract_y
 _atom_site_fract_z
 _atom_site_occupancy
  Fe  Fe0  1  -0.00565467  0.99354211  -0.00493663  1
  Fe  Fe1  1  0.16012487  0.16012363  0.16001202  1
  Cr  Cr2  1  -0.00588627  0.99272192  0.32587164  1
  Cr  Cr3  1  -0.00577025  0.32783744  -0.00528855  1
  Fe  Fe4  1  0.16139506  0.49396046  0.16057104  1
  Cr  Cr5  1  -0.00506403  0.32685746  0.32704123  1
  Cr  Cr6  1  -0.00576504  0.66216482  0.99273563  1
  Fe  Fe7  1  0.15925507  0.82748235  0.16009379  1
  Cr  Cr8  1  0.99376346  0.66198086  0.32740929  1
  Cr  Cr9  1  0.32620424  -0.00530891  0.99334209  1
  Fe  Fe10  1  0.49394213  0.16138952  0.16057215  1
  Cr  Cr11  1  0.32587805  -0.00530959  0.32907597  1
  Cr  Cr12  1  0.32879906  0.32813141  -0.00406083  1
  Fe  Fe13  1  0.49385315  0.49386809  0.16058270  1
  Cr  Cr14  1  0.32734742  0.32717345  0.32382366  1
  Cr  Cr15  1  0.32566896  0.65873789  0.99236693  1
  Cr  Cr16  1  0.49545848  0.82529640  0.16152893  1
  Cr  Cr17  1  0.32653406  0.65969781  0.32739891  1
  Cr  Cr18  1  0.66195755  -0.00529580  -0.00587392  1
  Fe  Fe19  1  0.82749742  0.15925398  0.16009136  1
  Cr  Cr20  1  0.66156902  0.99352791  0.32712513  1
  Cr  Cr21  1  0.65853525  0.32730238  0.99189806  1
  Cr  Cr22  1  0.82640294  0.49491778  0.16157775  1
  Cr  Cr23  1  0.65928257  0.32752114  0.32670791  1
  Fe  Fe24  1  0.66042896  0.65962595  0.99378113  1
  Fe  Fe25  1  0.82758957  0.82757085  0.16010127  1
  Fe  Fe26  1  0.66053001  0.66051328  0.32644527  1
  Fe  Fe27  1  0.16012204  0.16013384  0.49433954  1
  Cr  Cr28  1  -0.00480019  0.99197040  0.65876678  1
  Cr  Cr29  1  0.15981357  0.16114327  0.82793512  1
  Cr  Cr30  1  0.15938519  0.49332685  0.49517747  1
  Fe  Fe31  1  0.99339555  0.32829290  0.66093362  1
  Fe  Fe32  1  0.16003429  0.49513176  0.82592794  1
  Fe  Fe33  1  0.16051565  0.82718190  0.49464737  1
  Fe  Fe34  1  -0.00444378  0.65981695  0.66133253  1
  Fe  Fe35  1  0.16003960  0.82608090  0.82680730  1
  Cr  Cr36  1  0.49282679  0.15954361  0.49500527  1
  Cr  Cr37  1  0.32666800  0.99280782  0.65915086  1
  Fe  Fe38  1  0.49431879  0.16163652  0.82672684  1
  Cr  Cr39  1  0.49401199  0.49583031  0.49205661  1
  Cr  Cr40  1  0.32816723  0.32802114  0.66179670  1
  Fe  Fe41  1  0.49432979  0.49334924  0.82671849  1
  Cr  Cr42  1  0.49252475  0.82619197  0.49301654  1
  Fe  Fe43  1  0.32557351  0.66068776  0.66132734  1
  Cr  Cr44  1  0.49247589  0.82594969  0.82701628  1
  Cr  Cr45  1  0.82936991  0.16232488  0.49537745  1
  Cr  Cr46  1  0.65968911  -0.00374848  0.66031921  1
  Cr  Cr47  1  0.82781109  0.16261528  0.82663456  1
  Cr  Cr48  1  0.82817014  0.49303451  0.49562476  1
  Fe  Fe49  1  0.66090384  0.32743199  0.66174912  1
  Fe  Fe50  1  0.82720106  0.49384496  0.82640885  1
  Cr  Cr51  1  0.82685530  0.82620124  0.49177639  1
  Cr  Cr52  1  0.66165721  0.65811000  0.66134103  1
  Cr  Cr53  1  0.82763853  0.82593617  0.83022403  1
" 