8562,Fe62Cr38_6,-213.618705297779, 198.024149990555,Fe62Cr38,"# generated using pymatgen
 data_Cr11Fe7
_symmetry_space_group_name_H-M   'P 1'
_cell_length_a   7.55435767
_cell_length_b   7.55435767
_cell_length_c   10.68347507
_cell_angle_alpha   90.00000000
_cell_angle_beta   90.00000000
_cell_angle_gamma   90.00000000
_symmetry_Int_Tables_number   1
_chemical_formula_structural   Cr11Fe7
_chemical_formula_sum   'Cr33 Fe21'
_cell_volume   609.68797250
_cell_formula_units_Z   3
loop_
 _symmetry_equiv_pos_site_id
 _symmetry_equiv_pos_as_xyz
  1  'x, y, z'
loop_
 _atom_site_type_symbol
 _atom_site_label
 _atom_site_symmetry_multiplicity
 _atom_site_fract_x
 _atom_site_fract_y
 _atom_site_fract_z
 _atom_site_occupancy
  Fe  Fe0  1  0.99420881  -0.00556822  0.99224672  1
  Cr  Cr1  1  0.16353223  0.15852561  0.16254921  1
  Cr  Cr2  1  0.99107799  -0.00265823  0.32906413  1
  Cr  Cr3  1  -0.00569412  0.32677819  -0.00315949  1
  Fe  Fe4  1  0.16128678  0.49428228  0.16136987  1
  Cr  Cr5  1  0.99308563  0.32601714  0.32679743  1
  Fe  Fe6  1  0.99393035  0.66050753  0.99278998  1
  Cr  Cr7  1  0.15729302  0.82977766  0.16011710  1
  Cr  Cr8  1  -0.00093309  0.65978639  0.32771362  1
  Cr  Cr9  1  0.33085646  0.98916187  -0.00533445  1
  Cr  Cr10  1  0.49281163  0.16149462  0.15957936  1
  Fe  Fe11  1  0.32721097  0.99382566  0.32755758  1
  Cr  Cr12  1  0.32409947  0.33039425  0.99336771  1
  Cr  Cr13  1  0.49689001  0.49122699  0.16274096  1
  Fe  Fe14  1  0.32653790  0.32782635  0.32747582  1
  Cr  Cr15  1  0.32458118  0.66025624  0.99414399  1
  Fe  Fe16  1  0.49471301  0.82784376  0.16120677  1
  Cr  Cr17  1  0.33113104  0.66355834  0.32537221  1
  Fe  Fe18  1  0.66354713  -0.00524374  0.99283753  1
  Fe  Fe19  1  0.82703616  0.15969884  0.16037606  1
  Cr  Cr20  1  0.65867511  0.99363916  0.32698115  1
  Cr  Cr21  1  0.66528963  0.32494593  0.99317260  1
  Cr  Cr22  1  0.82595687  0.49804492  0.16272425  1
  Fe  Fe23  1  0.66156793  0.32504603  0.32770445  1
  Cr  Cr24  1  0.65537436  0.66516578  0.99334486  1
  Cr  Cr25  1  0.82877892  0.82677644  0.15755506  1
  Fe  Fe26  1  0.66194265  0.66314599  0.32742894  1
  Cr  Cr27  1  0.16458770  0.15774538  0.49579813  1
  Fe  Fe28  1  0.99328261  0.99265370  0.66253930  1
  Cr  Cr29  1  0.16384269  0.15663157  0.82520482  1
  Cr  Cr30  1  0.16180432  0.49419098  0.49599100  1
  Cr  Cr31  1  -0.00518639  0.32561569  0.65949233  1
  Fe  Fe32  1  0.15907652  0.49319809  0.82633375  1
  Cr  Cr33  1  0.15923707  0.83097729  0.49672031  1
  Fe  Fe34  1  0.99278578  0.66193420  0.66238869  1
  Fe  Fe35  1  0.15763417  0.82553335  0.82787492  1
  Cr  Cr36  1  0.49065020  0.16170361  0.49512253  1
  Fe  Fe37  1  0.32916356  0.99225749  0.66249251  1
  Cr  Cr38  1  0.49350399  0.16104388  0.82806313  1
  Cr  Cr39  1  0.49686610  0.49160640  0.49269145  1
  Fe  Fe40  1  0.32863292  0.32771613  0.66160263  1
  Cr  Cr41  1  0.49500074  0.49132217  0.82594215  1
  Fe  Fe42  1  0.49222374  0.82849439  0.49373410  1
  Cr  Cr43  1  0.32571676  0.66235853  0.66370799  1
  Fe  Fe44  1  0.49345064  0.82815642  0.82737222  1
  Fe  Fe45  1  0.82709450  0.16034956  0.49437203  1
  Cr  Cr46  1  0.66166254  -0.00548097  0.66281666  1
  Fe  Fe47  1  0.83015405  0.16061070  0.82800845  1
  Cr  Cr48  1  0.82548536  0.49749997  0.49227782  1
  Cr  Cr49  1  0.66562890  0.32536989  0.66042704  1
  Cr  Cr50  1  0.82724038  0.50092183  0.82664751  1
  Cr  Cr51  1  0.82894994  0.82566788  0.49537590  1
  Cr  Cr52  1  0.65635143  0.66434183  0.65878982  1
  Fe  Fe53  1  0.82831721  0.83126969  0.82843486  1
" 