3641,Fe62Cr38_15,-213.571362218054, 185.712262885616,Fe62Cr38,"# generated using pymatgen
 data_Cr11Fe7
_symmetry_space_group_name_H-M   'P 1'
_cell_length_a   7.55340365
_cell_length_b   7.55340365
_cell_length_c   10.68212589
_cell_angle_alpha   90.00000000
_cell_angle_beta   90.00000000
_cell_angle_gamma   90.00000000
_symmetry_Int_Tables_number   1
_chemical_formula_structural   Cr11Fe7
_chemical_formula_sum   'Cr33 Fe21'
_cell_volume   609.45701400
_cell_formula_units_Z   3
loop_
 _symmetry_equiv_pos_site_id
 _symmetry_equiv_pos_as_xyz
  1  'x, y, z'
loop_
 _atom_site_type_symbol
 _atom_site_label
 _atom_site_symmetry_multiplicity
 _atom_site_fract_x
 _atom_site_fract_y
 _atom_site_fract_z
 _atom_site_occupancy
  Fe  Fe0  1  0.99227893  -0.00426723  0.99342814  1
  Cr  Cr1  1  0.15936709  0.16201502  0.16011635  1
  Cr  Cr2  1  -0.00329376  0.99247930  0.32909703  1
  Fe  Fe3  1  -0.00530161  0.32671103  0.99327610  1
  Fe  Fe4  1  0.16205839  0.49422244  0.16037613  1
  Cr  Cr5  1  -0.00307171  0.33150088  0.32874052  1
  Cr  Cr6  1  -0.00523868  0.65824655  -0.00431630  1
  Cr  Cr7  1  0.16125085  0.82504993  0.15841761  1
  Fe  Fe8  1  -0.00278846  0.66014193  0.32858628  1
  Cr  Cr9  1  0.32733091  -0.00412228  -0.00571616  1
  Cr  Cr10  1  0.49391886  0.16312472  0.16027111  1
  Cr  Cr11  1  0.32725696  0.99422817  0.32785209  1
  Fe  Fe12  1  0.32647813  0.32897866  0.99390346  1
  Cr  Cr13  1  0.49121648  0.49526449  0.16105755  1
  Cr  Cr14  1  0.32562985  0.32815726  0.33012611  1
  Fe  Fe15  1  0.32830293  0.65864086  0.99423716  1
  Cr  Cr16  1  0.49270961  0.82449503  0.16119279  1
  Fe  Fe17  1  0.32600947  0.65963120  0.32928155  1
  Cr  Cr18  1  0.65926466  -0.00462337  0.99321218  1
  Cr  Cr19  1  0.82934063  0.16102543  0.16092121  1
  Cr  Cr20  1  0.65890765  0.99310865  0.32821537  1
  Cr  Cr21  1  0.66187681  0.32782405  0.99282776  1
  Cr  Cr22  1  0.82866174  0.49350334  0.16119304  1
  Cr  Cr23  1  0.66023885  0.32877933  0.32552152  1
  Cr  Cr24  1  0.66391188  0.65967812  0.99175144  1
  Cr  Cr25  1  0.82919932  0.82817317  0.16378626  1
  Cr  Cr26  1  0.66251663  0.66092319  0.33052069  1
  Fe  Fe27  1  0.16012426  0.16275808  0.49666490  1
  Fe  Fe28  1  0.99334787  -0.00460585  0.66005791  1
  Cr  Cr29  1  0.15793360  0.16177306  0.82578987  1
  Fe  Fe30  1  0.16274312  0.49369924  0.49608419  1
  Fe  Fe31  1  -0.00450135  0.32675008  0.66037049  1
  Cr  Cr32  1  0.16265426  0.49325333  0.82818938  1
  Cr  Cr33  1  0.16097325  0.82629942  0.49474431  1
  Cr  Cr34  1  0.99336197  0.65919786  0.66053110  1
  Cr  Cr35  1  0.16091495  0.82768006  0.83026179  1
  Cr  Cr36  1  0.49491860  0.16296854  0.49438647  1
  Cr  Cr37  1  0.32771457  -0.00432564  0.66003249  1
  Fe  Fe38  1  0.49336762  0.16106526  0.82667986  1
  Fe  Fe39  1  0.49204926  0.49667551  0.49611423  1
  Fe  Fe40  1  0.32604685  0.32931347  0.65922240  1
  Cr  Cr41  1  0.49306158  0.49427451  0.82624399  1
  Fe  Fe42  1  0.49546668  0.82534805  0.49622489  1
  Fe  Fe43  1  0.32835838  0.65935410  0.65910055  1
  Cr  Cr44  1  0.49344009  0.82525164  0.82569625  1
  Cr  Cr45  1  0.82929510  0.15998760  0.49450138  1
  Fe  Fe46  1  0.66178162  0.99371248  0.66036874  1
  Fe  Fe47  1  0.82827896  0.16188884  0.82674258  1
  Cr  Cr48  1  0.82676443  0.49415080  0.49469571  1
  Cr  Cr49  1  0.66118108  0.32870114  0.66383566  1
  Fe  Fe50  1  0.82978530  0.49302888  0.82679465  1
  Fe  Fe51  1  0.82640355  0.82789484  0.49623373  1
  Fe  Fe52  1  0.65945243  0.66219393  0.65922862  1
  Cr  Cr53  1  0.82836577  0.83013712  0.82464311  1
" 