2838,Fe62Cr38_10,-213.451176256791, 185.160587499494,Fe62Cr38,"# generated using pymatgen
 data_Cr11Fe7
_symmetry_space_group_name_H-M   'P 1'
_cell_length_a   7.55278516
_cell_length_b   7.55278516
_cell_length_c   10.68125121
_cell_angle_alpha   90.00000000
_cell_angle_beta   90.00000000
_cell_angle_gamma   90.00000000
_symmetry_Int_Tables_number   1
_chemical_formula_structural   Cr11Fe7
_chemical_formula_sum   'Cr33 Fe21'
_cell_volume   609.30731492
_cell_formula_units_Z   3
loop_
 _symmetry_equiv_pos_site_id
 _symmetry_equiv_pos_as_xyz
  1  'x, y, z'
loop_
 _atom_site_type_symbol
 _atom_site_label
 _atom_site_symmetry_multiplicity
 _atom_site_fract_x
 _atom_site_fract_y
 _atom_site_fract_z
 _atom_site_occupancy
  Fe  Fe0  1  -0.00508117  -0.00447156  -0.00528965  1
  Fe  Fe1  1  0.15979942  0.16141947  0.16065762  1
  Cr  Cr2  1  0.99226242  -0.00326355  0.32734468  1
  Cr  Cr3  1  0.99385401  0.32652163  -0.00337681  1
  Fe  Fe4  1  0.15977971  0.49309755  0.16144255  1
  Fe  Fe5  1  -0.00559783  0.32774938  0.32600387  1
  Cr  Cr6  1  0.99274105  0.65923703  0.99403202  1
  Cr  Cr7  1  0.16136389  0.82816944  0.16062246  1
  Cr  Cr8  1  0.99419339  0.65842152  0.32765937  1
  Fe  Fe9  1  0.32746960  -0.00565831  0.99431520  1
  Cr  Cr10  1  0.49563482  0.16034992  0.16104548  1
  Cr  Cr11  1  0.33019562  -0.00548600  0.32881027  1
  Cr  Cr12  1  0.32600255  0.32731907  0.99286212  1
  Cr  Cr13  1  0.49482570  0.49441975  0.15988948  1
  Cr  Cr14  1  0.32569493  0.32747760  0.32839684  1
  Cr  Cr15  1  0.33043907  0.66176876  -0.00508123  1
  Fe  Fe16  1  0.49513717  0.82848526  0.16025822  1
  Cr  Cr17  1  0.32792924  0.66097903  0.32601627  1
  Fe  Fe18  1  0.66058415  0.99391695  -0.00537189  1
  Fe  Fe19  1  0.82805735  0.16139822  0.16058440  1
  Fe  Fe20  1  0.66048890  -0.00534803  0.32732525  1
  Fe  Fe21  1  0.66178895  0.32864369  -0.00558185  1
  Fe  Fe22  1  0.82808169  0.49311104  0.16066637  1
  Cr  Cr23  1  0.66306854  0.32554664  0.32842040  1
  Fe  Fe24  1  0.66060162  0.66041602  0.99402160  1
  Cr  Cr25  1  0.82675530  0.82898289  0.16029301  1
  Cr  Cr26  1  0.66084881  0.66292726  0.32603465  1
  Cr  Cr27  1  0.16220219  0.16113785  0.49401002  1
  Cr  Cr28  1  0.99411783  0.99392880  0.66181176  1
  Fe  Fe29  1  0.16089206  0.16092041  0.82840975  1
  Cr  Cr30  1  0.16073664  0.49526432  0.49264673  1
  Cr  Cr31  1  0.99380290  0.32898796  0.66253249  1
  Fe  Fe32  1  0.16048449  0.49383331  0.82719997  1
  Cr  Cr33  1  0.15945309  0.82656940  0.49545326  1
  Fe  Fe34  1  0.99360306  0.66026114  0.66184080  1
  Cr  Cr35  1  0.16013522  0.82850434  0.82690785  1
  Fe  Fe36  1  0.49515796  0.16101337  0.49431997  1
  Cr  Cr37  1  0.32855397  -0.00492854  0.66099441  1
  Cr  Cr38  1  0.49413420  0.16319032  0.82760279  1
  Cr  Cr39  1  0.49488070  0.49170442  0.49605800  1
  Cr  Cr40  1  0.32855236  0.32752659  0.66170774  1
  Fe  Fe41  1  0.49601820  0.49521126  0.82766739  1
  Cr  Cr42  1  0.49488190  0.82883585  0.49262587  1
  Cr  Cr43  1  0.32851394  0.66037678  0.66202726  1
  Fe  Fe44  1  0.49523002  0.82696203  0.82838277  1
  Cr  Cr45  1  0.82508213  0.16113616  0.49281107  1
  Cr  Cr46  1  0.66030129  0.99396522  0.65753183  1
  Cr  Cr47  1  0.82710436  0.16189919  0.82954713  1
  Cr  Cr48  1  0.82735492  0.49446419  0.49612027  1
  Fe  Fe49  1  0.66049035  0.32874573  0.66132055  1
  Fe  Fe50  1  0.82647150  0.49472273  0.82716466  1
  Cr  Cr51  1  0.82863898  0.82737056  0.49579392  1
  Fe  Fe52  1  0.66140892  0.65977956  0.66213629  1
  Cr  Cr53  1  0.82837990  0.82598836  0.82687674  1
" 