7295,Fe62Cr38_8,-213.543764922494, 190.210873688393,Fe62Cr38,"# generated using pymatgen
 data_Cr11Fe7
_symmetry_space_group_name_H-M   'P 1'
_cell_length_a   7.55385866
_cell_length_b   7.55385866
_cell_length_c   10.68276937
_cell_angle_alpha   90.00000000
_cell_angle_beta   90.00000000
_cell_angle_gamma   90.00000000
_symmetry_Int_Tables_number   1
_chemical_formula_structural   Cr11Fe7
_chemical_formula_sum   'Cr33 Fe21'
_cell_volume   609.56715971
_cell_formula_units_Z   3
loop_
 _symmetry_equiv_pos_site_id
 _symmetry_equiv_pos_as_xyz
  1  'x, y, z'
loop_
 _atom_site_type_symbol
 _atom_site_label
 _atom_site_symmetry_multiplicity
 _atom_site_fract_x
 _atom_site_fract_y
 _atom_site_fract_z
 _atom_site_occupancy
  Cr  Cr0  1  -0.00531875  -0.00482584  -0.00470894  1
  Fe  Fe1  1  0.16259282  0.16124799  0.15963985  1
  Cr  Cr2  1  -0.00493672  -0.00539507  0.32636362  1
  Cr  Cr3  1  -0.00402093  0.32807864  0.99105244  1
  Cr  Cr4  1  0.16337948  0.49492798  0.16029455  1
  Cr  Cr5  1  -0.00264922  0.32787707  0.32946094  1
  Cr  Cr6  1  0.99270808  0.65958187  0.99303521  1
  Cr  Cr7  1  0.16058160  0.82874763  0.15945568  1
  Fe  Fe8  1  -0.00539363  0.66091001  0.32738036  1
  Fe  Fe9  1  0.32899676  -0.00515410  -0.00516791  1
  Fe  Fe10  1  0.49228004  0.16104912  0.15990685  1
  Cr  Cr11  1  0.32833863  -0.00440056  0.32706555  1
  Fe  Fe12  1  0.32811037  0.32696691  -0.00519593  1
  Fe  Fe13  1  0.49350033  0.49478747  0.15938284  1
  Cr  Cr14  1  0.32593384  0.32660321  0.32647667  1
  Fe  Fe15  1  0.32957159  0.66094911  -0.00561414  1
  Fe  Fe16  1  0.49440651  0.82685731  0.15943185  1
  Cr  Cr17  1  0.32928835  0.66059043  0.33095031  1
  Cr  Cr18  1  0.65811757  0.99184625  0.99396180  1
  Cr  Cr19  1  0.82683106  0.16001245  0.16194730  1
  Cr  Cr20  1  0.65931835  0.99120697  0.32703720  1
  Cr  Cr21  1  0.65955979  0.32863836  0.99324667  1
  Cr  Cr22  1  0.82513772  0.49626911  0.16192342  1
  Cr  Cr23  1  0.65935139  0.32860547  0.32648472  1
  Fe  Fe24  1  0.65963874  0.66136586  -0.00529906  1
  Fe  Fe25  1  0.82693084  0.82668992  0.16064009  1
  Cr  Cr26  1  0.66059546  0.66292710  0.32381877  1
  Fe  Fe27  1  0.16082858  0.16172130  0.49447250  1
  Cr  Cr28  1  0.99333860  -0.00382862  0.66135894  1
  Cr  Cr29  1  0.16210858  0.15997573  0.83076758  1
  Fe  Fe30  1  0.16074250  0.49408693  0.49419996  1
  Cr  Cr31  1  -0.00565193  0.32872183  0.66267599  1
  Fe  Fe32  1  0.16170042  0.49476587  0.82817063  1
  Cr  Cr33  1  0.16150552  0.82611274  0.49475232  1
  Cr  Cr34  1  -0.00439455  0.65781376  0.66116796  1
  Cr  Cr35  1  0.16341846  0.82600020  0.82864033  1
  Cr  Cr36  1  0.49570022  0.16156623  0.49606159  1
  Cr  Cr37  1  0.33099332  0.99261561  0.65982837  1
  Fe  Fe38  1  0.49506333  0.15978719  0.82731963  1
  Cr  Cr39  1  0.49337295  0.49369928  0.49398859  1
  Cr  Cr40  1  0.32589458  0.32870350  0.65942987  1
  Cr  Cr41  1  0.49375906  0.49367890  0.82901170  1
  Fe  Fe42  1  0.49478601  0.82754180  0.49516050  1
  Fe  Fe43  1  0.32746670  0.66071750  0.66088499  1
  Fe  Fe44  1  0.49364693  0.82805195  0.82810268  1
  Cr  Cr45  1  0.82585295  0.16095270  0.49704349  1
  Fe  Fe46  1  0.66025078  -0.00489655  0.66204807  1
  Fe  Fe47  1  0.82549067  0.16181301  0.82676634  1
  Cr  Cr48  1  0.82717480  0.49353458  0.49312176  1
  Fe  Fe49  1  0.66130162  0.32645937  0.66264329  1
  Fe  Fe50  1  0.82747672  0.49349364  0.82749088  1
  Cr  Cr51  1  0.82875162  0.82830368  0.49146933  1
  Cr  Cr52  1  0.65874381  0.66277934  0.66181335  1
  Cr  Cr53  1  0.82753614  0.82857631  0.82834713  1
" 