7928,Fe62Cr38_1,-213.886926442472, 189.012284460008,Fe62Cr38,"# generated using pymatgen
 data_Cr11Fe7
_symmetry_space_group_name_H-M   'P 1'
_cell_length_a   7.55489070
_cell_length_b   7.55489070
_cell_length_c   10.68422889
_cell_angle_alpha   90.00000000
_cell_angle_beta   90.00000000
_cell_angle_gamma   90.00000000
_symmetry_Int_Tables_number   1
_chemical_formula_structural   Cr11Fe7
_chemical_formula_sum   'Cr33 Fe21'
_cell_volume   609.81703783
_cell_formula_units_Z   3
loop_
 _symmetry_equiv_pos_site_id
 _symmetry_equiv_pos_as_xyz
  1  'x, y, z'
loop_
 _atom_site_type_symbol
 _atom_site_label
 _atom_site_symmetry_multiplicity
 _atom_site_fract_x
 _atom_site_fract_y
 _atom_site_fract_z
 _atom_site_occupancy
  Fe  Fe0  1  -0.00494647  -0.00265999  0.99380232  1
  Cr  Cr1  1  0.15943087  0.16017163  0.15866116  1
  Fe  Fe2  1  -0.00383070  0.99413182  0.32729544  1
  Fe  Fe3  1  0.99315009  0.32459132  -0.00545132  1
  Fe  Fe4  1  0.15939837  0.49484956  0.16300579  1
  Fe  Fe5  1  0.99285505  0.32481866  0.32689185  1
  Cr  Cr6  1  -0.00307217  0.66132110  -0.00403783  1
  Fe  Fe7  1  0.16032085  0.82745120  0.16334609  1
  Fe  Fe8  1  -0.00315677  0.66219760  0.32599898  1
  Cr  Cr9  1  0.32627693  -0.00528588  -0.00560312  1
  Fe  Fe10  1  0.49465880  0.16092447  0.16188018  1
  Fe  Fe11  1  0.32510279  0.99293942  0.32604761  1
  Cr  Cr12  1  0.32478999  0.32828756  0.99338387  1
  Cr  Cr13  1  0.49576131  0.49422871  0.16049812  1
  Cr  Cr14  1  0.32660759  0.32902278  0.32480850  1
  Cr  Cr15  1  0.32359755  0.65969407  -0.00389554  1
  Cr  Cr16  1  0.49414437  0.82909631  0.15936861  1
  Fe  Fe17  1  0.32533646  0.66313168  0.32687341  1
  Cr  Cr18  1  0.66460960  -0.00366469  -0.00533255  1
  Fe  Fe19  1  0.82922308  0.16141847  0.16196495  1
  Cr  Cr20  1  0.66454365  -0.00188363  0.32701697  1
  Cr  Cr21  1  0.66184369  0.32355643  -0.00419415  1
  Cr  Cr22  1  0.82954574  0.49323107  0.16124724  1
  Fe  Fe23  1  0.66305926  0.32728653  0.32677475  1
  Fe  Fe24  1  0.66088837  0.65984339  -0.00522232  1
  Cr  Cr25  1  0.82941165  0.82789321  0.15788817  1
  Cr  Cr26  1  0.66221068  0.66302327  0.32806332  1
  Cr  Cr27  1  0.16005524  0.15842715  0.49764421  1
  Fe  Fe28  1  -0.00545317  -0.00450354  0.66125993  1
  Fe  Fe29  1  0.15544053  0.15975636  0.82713304  1
  Cr  Cr30  1  0.15753463  0.49229814  0.49225399  1
  Fe  Fe31  1  0.99253032  0.32519439  0.66128688  1
  Cr  Cr32  1  0.15687315  0.49038422  0.82808392  1
  Fe  Fe33  1  0.16005228  0.82777032  0.49320694  1
  Fe  Fe34  1  -0.00552830  0.66104547  0.66101878  1
  Cr  Cr35  1  0.15952567  0.83197388  0.82546012  1
  Cr  Cr36  1  0.49057773  0.16012390  0.49095284  1
  Fe  Fe37  1  0.32668432  0.99414399  0.66100755  1
  Cr  Cr38  1  0.49009277  0.15933525  0.82708820  1
  Cr  Cr39  1  0.49509046  0.49376611  0.49373705  1
  Cr  Cr40  1  0.32552510  0.32782053  0.66408181  1
  Cr  Cr41  1  0.49648078  0.49492452  0.82873115  1
  Cr  Cr42  1  0.49252946  0.82975648  0.49531933  1
  Cr  Cr43  1  0.32317560  0.66028988  0.65944490  1
  Cr  Cr44  1  0.49485673  0.82781483  0.82875415  1
  Fe  Fe45  1  0.83025349  0.16115912  0.49261909  1
  Cr  Cr46  1  0.66477031  -0.00369981  0.66041872  1
  Fe  Fe47  1  0.83097154  0.16129741  0.82736674  1
  Cr  Cr48  1  0.82966589  0.49353411  0.49372079  1
  Cr  Cr49  1  0.66228762  0.32426776  0.65736533  1
  Cr  Cr50  1  0.82839974  0.49363879  0.82814978  1
  Cr  Cr51  1  0.83123401  0.82688167  0.49542958  1
  Cr  Cr52  1  0.66209939  0.66184761  0.66301893  1
  Cr  Cr53  1  0.82857657  0.82719792  0.83042824  1
" 