7379,Fe62Cr38_3,-213.734956492325, 185.948874126095,Fe62Cr38,"# generated using pymatgen
 data_Cr11Fe7
_symmetry_space_group_name_H-M   'P 1'
_cell_length_a   7.55693022
_cell_length_b   7.55693022
_cell_length_c   10.68711320
_cell_angle_alpha   90.00000000
_cell_angle_beta   90.00000000
_cell_angle_gamma   90.00000000
_symmetry_Int_Tables_number   1
_chemical_formula_structural   Cr11Fe7
_chemical_formula_sum   'Cr33 Fe21'
_cell_volume   610.31105054
_cell_formula_units_Z   3
loop_
 _symmetry_equiv_pos_site_id
 _symmetry_equiv_pos_as_xyz
  1  'x, y, z'
loop_
 _atom_site_type_symbol
 _atom_site_label
 _atom_site_symmetry_multiplicity
 _atom_site_fract_x
 _atom_site_fract_y
 _atom_site_fract_z
 _atom_site_occupancy
  Cr  Cr0  1  -0.00588904  0.99344624  0.99067610  1
  Fe  Fe1  1  0.16197302  0.16063227  0.16040602  1
  Cr  Cr2  1  -0.00405020  0.99138044  0.32958168  1
  Fe  Fe3  1  -0.00506289  0.32776951  -0.00399211  1
  Fe  Fe4  1  0.16068423  0.49238864  0.16058780  1
  Fe  Fe5  1  -0.00263772  0.32795595  0.32735037  1
  Cr  Cr6  1  -0.00472222  0.66072974  -0.00375925  1
  Fe  Fe7  1  0.16217167  0.82814858  0.16065401  1
  Fe  Fe8  1  -0.00361589  0.65926472  0.32727957  1
  Fe  Fe9  1  0.32800849  0.99357974  -0.00273283  1
  Fe  Fe10  1  0.49217268  0.15999620  0.15940861  1
  Fe  Fe11  1  0.32751968  0.99327652  0.32615749  1
  Fe  Fe12  1  0.32588211  0.32735168  -0.00319640  1
  Cr  Cr13  1  0.49263445  0.49531242  0.15989974  1
  Cr  Cr14  1  0.32928752  0.32613377  0.32804875  1
  Fe  Fe15  1  0.32655711  0.66163882  -0.00335758  1
  Fe  Fe16  1  0.49074916  0.82929671  0.15975689  1
  Cr  Cr17  1  0.32466243  0.65919051  0.32767097  1
  Fe  Fe18  1  0.65921683  -0.00541253  -0.00403228  1
  Cr  Cr19  1  0.82980100  0.16230686  0.16186942  1
  Cr  Cr20  1  0.65834279  -0.00378116  0.32439168  1
  Cr  Cr21  1  0.65789000  0.32704678  0.99384786  1
  Cr  Cr22  1  0.82954346  0.49240417  0.16447123  1
  Fe  Fe23  1  0.65874991  0.32683811  0.32672414  1
  Cr  Cr24  1  0.65994435  0.66209322  -0.00522708  1
  Cr  Cr25  1  0.82684511  0.82734187  0.16201624  1
  Cr  Cr26  1  0.65956071  0.66060268  0.32574446  1
  Cr  Cr27  1  0.16184868  0.15995343  0.49314101  1
  Cr  Cr28  1  -0.00587198  0.99295812  0.66143084  1
  Cr  Cr29  1  0.16224802  0.16156842  0.83050796  1
  Fe  Fe30  1  0.16059438  0.49461171  0.49350886  1
  Cr  Cr31  1  -0.00348418  0.32801401  0.66330831  1
  Cr  Cr32  1  0.16320416  0.49394476  0.83118254  1
  Fe  Fe33  1  0.16058863  0.82513347  0.49354607  1
  Cr  Cr34  1  -0.00512201  0.66066300  0.65905872  1
  Cr  Cr35  1  0.16476698  0.82711061  0.82489651  1
  Fe  Fe36  1  0.49623951  0.16176129  0.49305112  1
  Cr  Cr37  1  0.32712611  -0.00414274  0.65695688  1
  Cr  Cr38  1  0.49202602  0.16038724  0.82872126  1
  Fe  Fe39  1  0.49465917  0.49320397  0.49419466  1
  Cr  Cr40  1  0.33019382  0.32993940  0.65886770  1
  Cr  Cr41  1  0.49251190  0.49669188  0.82451541  1
  Cr  Cr42  1  0.49119725  0.82659601  0.49408488  1
  Fe  Fe43  1  0.32705792  0.66059808  0.65804309  1
  Cr  Cr44  1  0.49201966  0.82622524  0.82964488  1
  Cr  Cr45  1  0.82754467  0.16314708  0.49347874  1
  Cr  Cr46  1  0.66048410  -0.00502446  0.66263059  1
  Cr  Cr47  1  0.82784442  0.16231954  0.82765150  1
  Cr  Cr48  1  0.82649028  0.49242123  0.49033544  1
  Fe  Fe49  1  0.66084578  0.32839142  0.65960052  1
  Cr  Cr50  1  0.82685295  0.49353075  0.82748144  1
  Cr  Cr51  1  0.82651086  0.82639398  0.49374025  1
  Fe  Fe52  1  0.65919966  0.65907172  0.65899575  1
  Cr  Cr53  1  0.82506476  0.82645867  0.82603986  1
" 