3607,Fe62Cr38_13,-213.72475957224, 185.530876481666,Fe62Cr38,"# generated using pymatgen
 data_Cr11Fe7
_symmetry_space_group_name_H-M   'P 1'
_cell_length_a   7.56562065
_cell_length_b   7.56562065
_cell_length_c   10.69940334
_cell_angle_alpha   90.00000000
_cell_angle_beta   90.00000000
_cell_angle_gamma   90.00000000
_symmetry_Int_Tables_number   1
_chemical_formula_structural   Cr11Fe7
_chemical_formula_sum   'Cr33 Fe21'
_cell_volume   612.41903751
_cell_formula_units_Z   3
loop_
 _symmetry_equiv_pos_site_id
 _symmetry_equiv_pos_as_xyz
  1  'x, y, z'
loop_
 _atom_site_type_symbol
 _atom_site_label
 _atom_site_symmetry_multiplicity
 _atom_site_fract_x
 _atom_site_fract_y
 _atom_site_fract_z
 _atom_site_occupancy
  Fe  Fe0  1  0.99313023  -0.00534489  -0.00604907  1
  Fe  Fe1  1  0.15935024  0.16014792  0.16015528  1
  Cr  Cr2  1  -0.00458432  0.99258266  0.32521895  1
  Fe  Fe3  1  -0.00649456  0.32603206  -0.00643587  1
  Fe  Fe4  1  0.16022516  0.49277977  0.16022205  1
  Cr  Cr5  1  -0.00574989  0.32625537  0.32575066  1
  Cr  Cr6  1  -0.00452638  0.65974230  -0.00562311  1
  Fe  Fe7  1  0.16022543  0.82752885  0.16005665  1
  Cr  Cr8  1  -0.00371140  0.66161792  0.32719864  1
  Cr  Cr9  1  0.32570448  0.99225020  -0.00554899  1
  Cr  Cr10  1  0.49094452  0.16062492  0.16270027  1
  Fe  Fe11  1  0.32558647  -0.00611975  0.32636304  1
  Cr  Cr12  1  0.32422110  0.32814397  -0.00559053  1
  Cr  Cr13  1  0.49262082  0.49281521  0.16189249  1
  Fe  Fe14  1  0.32595746  0.32601642  0.32604760  1
  Cr  Cr15  1  0.32481388  0.66006441  0.99295989  1
  Cr  Cr16  1  0.49263381  0.82701535  0.15937798  1
  Cr  Cr17  1  0.32400853  0.66076299  0.32587338  1
  Cr  Cr18  1  0.66250746  -0.00568379  0.99148596  1
  Fe  Fe19  1  0.82825749  0.16014184  0.15941866  1
  Cr  Cr20  1  0.66017193  -0.00453220  0.32673038  1
  Cr  Cr21  1  0.66282583  0.32491629  0.99308577  1
  Cr  Cr22  1  0.82790513  0.49335276  0.16053608  1
  Cr  Cr23  1  0.65931108  0.32538082  0.32725625  1
  Cr  Cr24  1  0.66017194  0.66122625  0.99161957  1
  Cr  Cr25  1  0.82876001  0.82734194  0.15967697  1
  Cr  Cr26  1  0.66016530  0.65960889  0.32706641  1
  Cr  Cr27  1  0.16144893  0.15842949  0.49402836  1
  Fe  Fe28  1  0.99313021  0.99326265  0.66047641  1
  Cr  Cr29  1  0.15759725  0.16071345  0.82691905  1
  Cr  Cr30  1  0.15941642  0.49361934  0.49516024  1
  Fe  Fe31  1  0.99311831  0.32719737  0.66126472  1
  Fe  Fe32  1  0.15865457  0.49341900  0.82595509  1
  Fe  Fe33  1  0.16056808  0.82723738  0.49475698  1
  Fe  Fe34  1  -0.00648342  0.65999497  0.66095382  1
  Cr  Cr35  1  0.15941725  0.82727050  0.82512034  1
  Cr  Cr36  1  0.49085700  0.15927305  0.49195817  1
  Fe  Fe37  1  0.32687609  0.99198568  0.66025247  1
  Cr  Cr38  1  0.49326998  0.15805831  0.82579569  1
  Cr  Cr39  1  0.49375118  0.49364513  0.49143043  1
  Cr  Cr40  1  0.32556987  0.32760726  0.65996407  1
  Cr  Cr41  1  0.49383537  0.49598992  0.82712785  1
  Cr  Cr42  1  0.49259411  0.82753621  0.49544439  1
  Fe  Fe43  1  0.32649984  0.66127479  0.66056493  1
  Fe  Fe44  1  0.49414178  0.82690929  0.82522995  1
  Cr  Cr45  1  0.82814905  0.15959576  0.49464800  1
  Fe  Fe46  1  0.66044622  0.99237750  0.66133164  1
  Fe  Fe47  1  0.82802403  0.15976105  0.82633558  1
  Cr  Cr48  1  0.82728523  0.49535277  0.49412029  1
  Cr  Cr49  1  0.66217226  0.32558139  0.66011452  1
  Fe  Fe50  1  0.82849860  0.49340220  0.82603237  1
  Cr  Cr51  1  0.82812461  0.82550637  0.49480364  1
  Fe  Fe52  1  0.66044046  0.66125615  0.66134027  1
  Fe  Fe53  1  0.82637993  0.82728954  0.82564034  1
" 