3472,Fe62Cr38_9,-213.418067455339, 189.964841061,Fe62Cr38,"# generated using pymatgen
 data_Cr11Fe7
_symmetry_space_group_name_H-M   'P 1'
_cell_length_a   7.54597395
_cell_length_b   7.54597395
_cell_length_c   10.67161870
_cell_angle_alpha   90.00000000
_cell_angle_beta   90.00000000
_cell_angle_gamma   90.00000000
_symmetry_Int_Tables_number   1
_chemical_formula_structural   Cr11Fe7
_chemical_formula_sum   'Cr33 Fe21'
_cell_volume   607.66035430
_cell_formula_units_Z   3
loop_
 _symmetry_equiv_pos_site_id
 _symmetry_equiv_pos_as_xyz
  1  'x, y, z'
loop_
 _atom_site_type_symbol
 _atom_site_label
 _atom_site_symmetry_multiplicity
 _atom_site_fract_x
 _atom_site_fract_y
 _atom_site_fract_z
 _atom_site_occupancy
  Cr  Cr0  1  0.99294109  -0.00311288  0.99407023  1
  Cr  Cr1  1  0.16297315  0.15994849  0.15877340  1
  Fe  Fe2  1  -0.00421180  0.99321212  0.32796069  1
  Fe  Fe3  1  -0.00451858  0.32818494  -0.00518616  1
  Fe  Fe4  1  0.16176975  0.49522327  0.16179408  1
  Cr  Cr5  1  -0.00349155  0.32986900  0.32727204  1
  Cr  Cr6  1  0.99391766  0.65938012  -0.00362589  1
  Cr  Cr7  1  0.16211157  0.82744743  0.16425114  1
  Fe  Fe8  1  -0.00427501  0.66230254  0.32798564  1
  Cr  Cr9  1  0.33031677  -0.00450987  0.99388865  1
  Fe  Fe10  1  0.49467078  0.16152606  0.16244672  1
  Fe  Fe11  1  0.32803527  0.99305031  0.32810075  1
  Cr  Cr12  1  0.32487738  0.32932047  -0.00507654  1
  Fe  Fe13  1  0.49411172  0.49517891  0.16304915  1
  Cr  Cr14  1  0.32693613  0.32993903  0.32688973  1
  Cr  Cr15  1  0.33059789  0.65950997  0.99441436  1
  Fe  Fe16  1  0.49516518  0.82759617  0.16296248  1
  Fe  Fe17  1  0.32820632  0.66238096  0.32822210  1
  Cr  Cr18  1  0.66113889  0.99138446  -0.00378181  1
  Cr  Cr19  1  0.82698496  0.16204581  0.16166263  1
  Cr  Cr20  1  0.66088469  0.99247492  0.32557636  1
  Cr  Cr21  1  0.66095075  0.32839063  -0.00464128  1
  Cr  Cr22  1  0.82677258  0.49589198  0.16194550  1
  Fe  Fe23  1  0.66051368  0.32903948  0.32694560  1
  Cr  Cr24  1  0.65985757  0.66458751  -0.00521216  1
  Fe  Fe25  1  0.82796762  0.82768027  0.16300743  1
  Fe  Fe26  1  0.66044237  0.66114469  0.32714838  1
  Cr  Cr27  1  0.16223198  0.15671947  0.49543274  1
  Fe  Fe28  1  -0.00416352  0.99362814  0.66149583  1
  Fe  Fe29  1  0.16020750  0.16144014  0.82811811  1
  Fe  Fe30  1  0.16078208  0.49702657  0.49434733  1
  Cr  Cr31  1  -0.00385561  0.32809877  0.66201772  1
  Cr  Cr32  1  0.16161406  0.49546734  0.83003782  1
  Fe  Fe33  1  0.16163334  0.82686532  0.49369302  1
  Fe  Fe34  1  -0.00401690  0.66243856  0.66054440  1
  Cr  Cr35  1  0.16188388  0.82951099  0.82612018  1
  Cr  Cr36  1  0.49539071  0.16255014  0.49324318  1
  Cr  Cr37  1  0.32814909  0.99373874  0.66123485  1
  Cr  Cr38  1  0.49398277  0.16281976  0.82720180  1
  Cr  Cr39  1  0.49630340  0.49428242  0.49483678  1
  Cr  Cr40  1  0.32630792  0.32933804  0.66247390  1
  Fe  Fe41  1  0.49533592  0.49534352  0.82754492  1
  Fe  Fe42  1  0.49367548  0.82775185  0.49323358  1
  Cr  Cr43  1  0.32830366  0.66121310  0.66087494  1
  Fe  Fe44  1  0.49478760  0.82705633  0.82811345  1
  Cr  Cr45  1  0.82663109  0.16250501  0.49584354  1
  Cr  Cr46  1  0.66191004  0.99305446  0.66249554  1
  Cr  Cr47  1  0.82876629  0.16271327  0.82678880  1
  Cr  Cr48  1  0.82661287  0.49522652  0.49564668  1
  Fe  Fe49  1  0.66051674  0.32861448  0.66200502  1
  Cr  Cr50  1  0.82626713  0.49433528  0.82682752  1
  Cr  Cr51  1  0.83240125  0.82661107  0.49423607  1
  Cr  Cr52  1  0.66056210  0.66292901  0.66401466  1
  Cr  Cr53  1  0.82972857  0.82723115  0.82833066  1
" 