779,Fe62Cr38_16,-213.61712311381, 195.752809979442,Fe62Cr38,"# generated using pymatgen
 data_Cr11Fe7
_symmetry_space_group_name_H-M   'P 1'
_cell_length_a   7.54820252
_cell_length_b   7.54820252
_cell_length_c   10.67477038
_cell_angle_alpha   90.00000000
_cell_angle_beta   90.00000000
_cell_angle_gamma   90.00000000
_symmetry_Int_Tables_number   1
_chemical_formula_structural   Cr11Fe7
_chemical_formula_sum   'Cr33 Fe21'
_cell_volume   608.19889984
_cell_formula_units_Z   3
loop_
 _symmetry_equiv_pos_site_id
 _symmetry_equiv_pos_as_xyz
  1  'x, y, z'
loop_
 _atom_site_type_symbol
 _atom_site_label
 _atom_site_symmetry_multiplicity
 _atom_site_fract_x
 _atom_site_fract_y
 _atom_site_fract_z
 _atom_site_occupancy
  Fe  Fe0  1  -0.00414196  0.99406235  -0.00521954  1
  Cr  Cr1  1  0.15745558  0.16074845  0.16023918  1
  Cr  Cr2  1  0.99110313  0.99170496  0.32633712  1
  Fe  Fe3  1  -0.00326841  0.32799162  0.99423307  1
  Fe  Fe4  1  0.16116045  0.49358066  0.16154335  1
  Fe  Fe5  1  0.99323319  0.32805983  0.32779669  1
  Cr  Cr6  1  -0.00517822  0.66288844  -0.00528916  1
  Fe  Fe7  1  0.16052219  0.82792985  0.16095144  1
  Cr  Cr8  1  -0.00164766  0.66030389  0.32806872  1
  Cr  Cr9  1  0.32691151  -0.00528265  0.98923442  1
  Cr  Cr10  1  0.49129438  0.16086771  0.16089743  1
  Cr  Cr11  1  0.32586141  0.99393498  0.32853781  1
  Cr  Cr12  1  0.32908458  0.32904788  0.99033228  1
  Cr  Cr13  1  0.49633884  0.49706072  0.16170463  1
  Cr  Cr14  1  0.32643892  0.33237288  0.32831427  1
  Cr  Cr15  1  0.32365054  0.65983487  -0.00342803  1
  Cr  Cr16  1  0.49341548  0.82726362  0.16247038  1
  Fe  Fe17  1  0.32649293  0.66241471  0.32770042  1
  Cr  Cr18  1  0.66385261  -0.00346287  -0.00379640  1
  Fe  Fe19  1  0.82787605  0.16176898  0.15954214  1
  Cr  Cr20  1  0.66408922  -0.00373612  0.32990341  1
  Fe  Fe21  1  0.66218998  0.32823515  0.99439573  1
  Cr  Cr22  1  0.82963832  0.49298716  0.15723989  1
  Cr  Cr23  1  0.66258847  0.32557578  0.32768044  1
  Fe  Fe24  1  0.66118674  0.66266606  -0.00437933  1
  Fe  Fe25  1  0.82892052  0.82814643  0.15965431  1
  Cr  Cr26  1  0.66640453  0.66207677  0.32722579  1
  Cr  Cr27  1  0.15729238  0.16138309  0.49499516  1
  Cr  Cr28  1  0.99382252  0.99043904  0.66132892  1
  Fe  Fe29  1  0.15966145  0.16224444  0.82814475  1
  Fe  Fe30  1  0.16123601  0.49459109  0.49509563  1
  Fe  Fe31  1  -0.00321601  0.32756964  0.66223343  1
  Fe  Fe32  1  0.15861461  0.49472356  0.82793001  1
  Fe  Fe33  1  0.16019999  0.82674549  0.49507882  1
  Fe  Fe34  1  -0.00526727  0.66015274  0.66126743  1
  Fe  Fe35  1  0.15877181  0.82642734  0.82799100  1
  Cr  Cr36  1  0.49001425  0.16043047  0.49466032  1
  Cr  Cr37  1  0.32730480  -0.00443930  0.66613019  1
  Fe  Fe38  1  0.49883588  0.16162739  0.82861875  1
  Cr  Cr39  1  0.49612435  0.49760143  0.49299167  1
  Cr  Cr40  1  0.32818620  0.32947069  0.66527061  1
  Cr  Cr41  1  0.49840919  0.49855194  0.82934828  1
  Cr  Cr42  1  0.49312590  0.82665546  0.49449125  1
  Cr  Cr43  1  0.32246489  0.65952118  0.66128030  1
  Cr  Cr44  1  0.49469034  0.82672486  0.82724952  1
  Fe  Fe45  1  0.82918753  0.16231454  0.49499218  1
  Cr  Cr46  1  0.66315529  -0.00413164  0.65782724  1
  Cr  Cr47  1  0.83356427  0.16281603  0.82967375  1
  Cr  Cr48  1  0.83092392  0.49379365  0.49919450  1
  Cr  Cr49  1  0.66037605  0.32624112  0.66143604  1
  Cr  Cr50  1  0.82890296  0.49502102  0.82720444  1
  Fe  Fe51  1  0.82969817  0.82620137  0.49564797  1
  Fe  Fe52  1  0.66136471  0.66224911  0.66029272  1
  Cr  Cr53  1  0.82679048  0.82574017  0.82744267  1
" 