6531,Fe62Cr38_5,-213.582907770602, 184.024336377948,Fe62Cr38,"# generated using pymatgen
 data_Cr11Fe7
_symmetry_space_group_name_H-M   'P 1'
_cell_length_a   7.55285610
_cell_length_b   7.55285610
_cell_length_c   10.68135153
_cell_angle_alpha   90.00000000
_cell_angle_beta   90.00000000
_cell_angle_gamma   90.00000000
_symmetry_Int_Tables_number   1
_chemical_formula_structural   Cr11Fe7
_chemical_formula_sum   'Cr33 Fe21'
_cell_volume   609.32448259
_cell_formula_units_Z   3
loop_
 _symmetry_equiv_pos_site_id
 _symmetry_equiv_pos_as_xyz
  1  'x, y, z'
loop_
 _atom_site_type_symbol
 _atom_site_label
 _atom_site_symmetry_multiplicity
 _atom_site_fract_x
 _atom_site_fract_y
 _atom_site_fract_z
 _atom_site_occupancy
  Fe  Fe0  1  0.99300195  -0.00553694  0.99400292  1
  Fe  Fe1  1  0.15999020  0.16156211  0.15886691  1
  Cr  Cr2  1  -0.00510404  -0.00396705  0.32653643  1
  Fe  Fe3  1  -0.00534849  0.32611622  0.99338469  1
  Cr  Cr4  1  0.15828309  0.49448518  0.16248329  1
  Cr  Cr5  1  0.99255353  0.32768596  0.32568718  1
  Cr  Cr6  1  0.99177928  0.65950543  -0.00506743  1
  Fe  Fe7  1  0.15855687  0.82810184  0.16003562  1
  Fe  Fe8  1  0.99325112  0.66276164  0.32496635  1
  Cr  Cr9  1  0.32473325  -0.00457210  -0.00353952  1
  Cr  Cr10  1  0.49603652  0.16151538  0.16069059  1
  Cr  Cr11  1  0.32596932  0.99362221  0.32598869  1
  Fe  Fe12  1  0.32555475  0.32786911  0.99390663  1
  Cr  Cr13  1  0.49445425  0.49236641  0.15814103  1
  Cr  Cr14  1  0.32619384  0.32694705  0.32750782  1
  Cr  Cr15  1  0.32859127  0.66137703  0.99324234  1
  Cr  Cr16  1  0.49740984  0.82931759  0.15988871  1
  Cr  Cr17  1  0.32762011  0.66230137  0.32712141  1
  Fe  Fe18  1  0.66396776  0.99370302  0.99353947  1
  Cr  Cr19  1  0.82672759  0.16055688  0.15908213  1
  Cr  Cr20  1  0.66286201  -0.00558481  0.32960039  1
  Fe  Fe21  1  0.66329344  0.32925839  0.99288936  1
  Fe  Fe22  1  0.82614331  0.49397236  0.15924007  1
  Cr  Cr23  1  0.66412849  0.32833422  0.33058388  1
  Fe  Fe24  1  0.66260494  0.66037057  0.99342671  1
  Fe  Fe25  1  0.82901897  0.82739680  0.15981273  1
  Cr  Cr26  1  0.66228732  0.65993794  0.32490112  1
  Cr  Cr27  1  0.16070737  0.16171868  0.49587417  1
  Fe  Fe28  1  0.99292615  -0.00536209  0.66238856  1
  Fe  Fe29  1  0.15998676  0.16063810  0.82823816  1
  Cr  Cr30  1  0.15883952  0.49580399  0.49478938  1
  Cr  Cr31  1  0.99116626  0.32545887  0.66213002  1
  Cr  Cr32  1  0.16021000  0.49275897  0.82522224  1
  Cr  Cr33  1  0.15749132  0.82546425  0.49546392  1
  Fe  Fe34  1  0.99187102  0.66059150  0.66282138  1
  Cr  Cr35  1  0.15702357  0.82776869  0.82499857  1
  Cr  Cr36  1  0.49665304  0.16191412  0.49371378  1
  Cr  Cr37  1  0.32703673  -0.00534128  0.66017807  1
  Cr  Cr38  1  0.49597553  0.16300846  0.82937369  1
  Cr  Cr39  1  0.49402774  0.49231659  0.49658946  1
  Fe  Fe40  1  0.32849880  0.32686249  0.66239300  1
  Fe  Fe41  1  0.49557899  0.49297025  0.82927976  1
  Cr  Cr42  1  0.49523332  0.82814438  0.49327230  1
  Cr  Cr43  1  0.32929619  0.66066157  0.66208723  1
  Cr  Cr44  1  0.49636879  0.82964143  0.82949587  1
  Fe  Fe45  1  0.82969329  0.16118676  0.49544790  1
  Cr  Cr46  1  0.66377477  -0.00423316  0.65973570  1
  Fe  Fe47  1  0.82916234  0.16014668  0.82982974  1
  Cr  Cr48  1  0.82992520  0.49553964  0.49309052  1
  Fe  Fe49  1  0.66135996  0.32767501  0.66243511  1
  Fe  Fe50  1  0.82630526  0.49283566  0.82907160  1
  Cr  Cr51  1  0.82999654  0.82740065  0.49503056  1
  Cr  Cr52  1  0.66175966  0.65943623  0.66486014  1
  Fe  Fe53  1  0.82782263  0.82884096  0.82852090  1
" 