5279,Fe62Cr38_18,-213.66648035732, 187.636445046658,Fe62Cr38,"# generated using pymatgen
 data_Cr11Fe7
_symmetry_space_group_name_H-M   'P 1'
_cell_length_a   7.55258023
_cell_length_b   7.55258023
_cell_length_c   10.68096139
_cell_angle_alpha   90.00000000
_cell_angle_beta   90.00000000
_cell_angle_gamma   90.00000000
_symmetry_Int_Tables_number   1
_chemical_formula_structural   Cr11Fe7
_chemical_formula_sum   'Cr33 Fe21'
_cell_volume   609.25771865
_cell_formula_units_Z   3
loop_
 _symmetry_equiv_pos_site_id
 _symmetry_equiv_pos_as_xyz
  1  'x, y, z'
loop_
 _atom_site_type_symbol
 _atom_site_label
 _atom_site_symmetry_multiplicity
 _atom_site_fract_x
 _atom_site_fract_y
 _atom_site_fract_z
 _atom_site_occupancy
  Cr  Cr0  1  -0.00237514  0.99341651  -0.00456875  1
  Fe  Fe1  1  0.16094014  0.16095366  0.16079960  1
  Fe  Fe2  1  0.99401486  0.99287869  0.32674635  1
  Cr  Cr3  1  -0.00160211  0.32816256  0.99380914  1
  Fe  Fe4  1  0.16217094  0.49509427  0.16001239  1
  Cr  Cr5  1  -0.00258394  0.32876268  0.32704701  1
  Fe  Fe6  1  -0.00287868  0.66068120  0.99416010  1
  Cr  Cr7  1  0.16105175  0.82711552  0.15920848  1
  Cr  Cr8  1  0.99242660  0.66184722  0.32873607  1
  Fe  Fe9  1  0.32657090  -0.00498557  0.99286886  1
  Cr  Cr10  1  0.49424771  0.16106645  0.16072745  1
  Cr  Cr11  1  0.32509122  -0.00398931  0.32564378  1
  Cr  Cr12  1  0.32533999  0.32599710  -0.00539898  1
  Fe  Fe13  1  0.49181163  0.49496857  0.16045610  1
  Cr  Cr14  1  0.32515114  0.32802068  0.32666280  1
  Fe  Fe15  1  0.32466942  0.66034545  0.99417336  1
  Cr  Cr16  1  0.49101045  0.82561148  0.16010519  1
  Cr  Cr17  1  0.32671186  0.65882531  0.32817121  1
  Cr  Cr18  1  0.66014771  0.99340996  0.99154611  1
  Cr  Cr19  1  0.83020153  0.16097923  0.16234538  1
  Cr  Cr20  1  0.66308332  0.99083024  0.32988420  1
  Cr  Cr21  1  0.65935036  0.32796226  0.99423324  1
  Cr  Cr22  1  0.82870911  0.49364742  0.15839337  1
  Cr  Cr23  1  0.66051896  0.33033115  0.32646089  1
  Cr  Cr24  1  0.66241341  0.66180945  -0.00229916  1
  Fe  Fe25  1  0.82869956  0.82825462  0.16083593  1
  Cr  Cr26  1  0.66348098  0.66188298  0.32779306  1
  Cr  Cr27  1  0.15839840  0.16079430  0.49246126  1
  Fe  Fe28  1  0.99401762  0.99369256  0.66153069  1
  Fe  Fe29  1  0.16155429  0.16129202  0.82662840  1
  Fe  Fe30  1  0.15963430  0.49397671  0.49701110  1
  Fe  Fe31  1  -0.00267960  0.32892314  0.66081950  1
  Fe  Fe32  1  0.16107330  0.49609221  0.82631290  1
  Cr  Cr33  1  0.16013626  0.82658281  0.49566368  1
  Fe  Fe34  1  -0.00356571  0.66019332  0.66048519  1
  Fe  Fe35  1  0.16026672  0.82564842  0.82781259  1
  Cr  Cr36  1  0.49483355  0.16133039  0.49607153  1
  Cr  Cr37  1  0.32646902  -0.00372800  0.66475788  1
  Fe  Fe38  1  0.49289278  0.16123984  0.82736791  1
  Cr  Cr39  1  0.49230303  0.49467611  0.49327206  1
  Fe  Fe40  1  0.32501230  0.32904365  0.66200105  1
  Cr  Cr41  1  0.49210673  0.49550897  0.82911260  1
  Cr  Cr42  1  0.49195254  0.82716546  0.49512689  1
  Fe  Fe43  1  0.32509390  0.65911531  0.66161218  1
  Cr  Cr44  1  0.48996036  0.82701447  0.82818517  1
  Cr  Cr45  1  0.82974472  0.16135371  0.49489823  1
  Fe  Fe46  1  0.66199604  0.99381581  0.66133999  1
  Cr  Cr47  1  0.82887822  0.16217193  0.82597049  1
  Fe  Fe48  1  0.83047324  0.49451646  0.49555990  1
  Cr  Cr49  1  0.66041687  0.32789024  0.66224235  1
  Cr  Cr50  1  0.83089280  0.49345820  0.82826642  1
  Fe  Fe51  1  0.82952810  0.82852993  0.49610098  1
  Cr  Cr52  1  0.66385008  0.66271919  0.65743337  1
  Cr  Cr53  1  0.83061275  0.82732928  0.82762874  1
" 