153,Fe62Cr38_19,-213.47046432862, 188.413254025001,Fe62Cr38,"# generated using pymatgen
 data_Cr11Fe7
_symmetry_space_group_name_H-M   'P 1'
_cell_length_a   7.55094235
_cell_length_b   7.55094235
_cell_length_c   10.67864507
_cell_angle_alpha   90.00000000
_cell_angle_beta   90.00000000
_cell_angle_gamma   90.00000000
_symmetry_Int_Tables_number   1
_chemical_formula_structural   Cr11Fe7
_chemical_formula_sum   'Cr33 Fe21'
_cell_volume   608.86142624
_cell_formula_units_Z   3
loop_
 _symmetry_equiv_pos_site_id
 _symmetry_equiv_pos_as_xyz
  1  'x, y, z'
loop_
 _atom_site_type_symbol
 _atom_site_label
 _atom_site_symmetry_multiplicity
 _atom_site_fract_x
 _atom_site_fract_y
 _atom_site_fract_z
 _atom_site_occupancy
  Fe  Fe0  1  -0.00516608  -0.00489842  -0.00395718  1
  Fe  Fe1  1  0.15936687  0.16037864  0.15963460  1
  Fe  Fe2  1  -0.00428393  -0.00353290  0.32663330  1
  Fe  Fe3  1  -0.00393599  0.32776737  -0.00361870  1
  Fe  Fe4  1  0.16173186  0.49431918  0.16029953  1
  Cr  Cr5  1  -0.00446852  0.32832837  0.32692833  1
  Cr  Cr6  1  -0.00548783  0.65837582  0.99265023  1
  Fe  Fe7  1  0.16110230  0.82831731  0.16132465  1
  Cr  Cr8  1  -0.00287912  0.65933592  0.32928588  1
  Cr  Cr9  1  0.32851994  -0.00525909  0.99299986  1
  Cr  Cr10  1  0.49271781  0.16385935  0.16120781  1
  Cr  Cr11  1  0.32757547  -0.00459882  0.32923283  1
  Fe  Fe12  1  0.32663288  0.32945192  -0.00486962  1
  Fe  Fe13  1  0.49383934  0.49421142  0.16080617  1
  Cr  Cr14  1  0.32583009  0.32822576  0.32709311  1
  Cr  Cr15  1  0.32770745  0.65964223  -0.00548848  1
  Cr  Cr16  1  0.49309135  0.82525011  0.16114189  1
  Fe  Fe17  1  0.32685113  0.65969709  0.32624027  1
  Cr  Cr18  1  0.66042884  0.99397994  -0.00541942  1
  Fe  Fe19  1  0.83003925  0.16175594  0.16038232  1
  Cr  Cr20  1  0.66075656  -0.00412604  0.32799362  1
  Cr  Cr21  1  0.66180344  0.32890296  -0.00481837  1
  Fe  Fe22  1  0.82821967  0.49381057  0.16038759  1
  Cr  Cr23  1  0.66161088  0.32648986  0.32790160  1
  Fe  Fe24  1  0.66086755  0.65987644  0.99410478  1
  Cr  Cr25  1  0.83083004  0.82838349  0.16173872  1
  Cr  Cr26  1  0.66189700  0.66053824  0.32489698  1
  Fe  Fe27  1  0.16173001  0.16163891  0.49445391  1
  Cr  Cr28  1  -0.00516211  -0.00499271  0.66006014  1
  Cr  Cr29  1  0.16090182  0.16254512  0.83003060  1
  Fe  Fe30  1  0.16195137  0.49403248  0.49395963  1
  Cr  Cr31  1  -0.00424923  0.32988352  0.66147318  1
  Fe  Fe32  1  0.16168572  0.49264079  0.82899230  1
  Cr  Cr33  1  0.16139248  0.82768634  0.49306892  1
  Cr  Cr34  1  -0.00430758  0.65850303  0.66138934  1
  Cr  Cr35  1  0.16128291  0.82867510  0.82741037  1
  Fe  Fe36  1  0.49311946  0.16122032  0.49540597  1
  Fe  Fe37  1  0.32665569  -0.00538658  0.66049711  1
  Cr  Cr38  1  0.49317283  0.16396656  0.82519361  1
  Cr  Cr39  1  0.49387329  0.49346652  0.49231395  1
  Cr  Cr40  1  0.32653003  0.32709876  0.65971854  1
  Fe  Fe41  1  0.49429824  0.49441629  0.82862026  1
  Cr  Cr42  1  0.49313397  0.82577148  0.49468648  1
  Cr  Cr43  1  0.32643485  0.66042566  0.66200368  1
  Fe  Fe44  1  0.49391787  0.82758579  0.82839238  1
  Cr  Cr45  1  0.82818809  0.16228186  0.49438834  1
  Cr  Cr46  1  0.65814837  -0.00447251  0.66045012  1
  Cr  Cr47  1  0.82914884  0.16281698  0.82907968  1
  Cr  Cr48  1  0.82620270  0.49415840  0.49624402  1
  Fe  Fe49  1  0.66077693  0.32903595  0.66164353  1
  Fe  Fe50  1  0.82753928  0.49273092  0.82870350  1
  Cr  Cr51  1  0.82875430  0.82726959  0.49339606  1
  Cr  Cr52  1  0.66120771  0.66129265  0.66540107  1
  Cr  Cr53  1  0.82849045  0.82724264  0.82832749  1
" 