1591,Fe62Cr38_14,-213.521400054721, 192.777223998884,Fe62Cr38,"# generated using pymatgen
 data_Cr11Fe7
_symmetry_space_group_name_H-M   'P 1'
_cell_length_a   7.55333131
_cell_length_b   7.55333131
_cell_length_c   10.68202357
_cell_angle_alpha   90.00000000
_cell_angle_beta   90.00000000
_cell_angle_gamma   90.00000000
_symmetry_Int_Tables_number   1
_chemical_formula_structural   Cr11Fe7
_chemical_formula_sum   'Cr33 Fe21'
_cell_volume   609.43950211
_cell_formula_units_Z   3
loop_
 _symmetry_equiv_pos_site_id
 _symmetry_equiv_pos_as_xyz
  1  'x, y, z'
loop_
 _atom_site_type_symbol
 _atom_site_label
 _atom_site_symmetry_multiplicity
 _atom_site_fract_x
 _atom_site_fract_y
 _atom_site_fract_z
 _atom_site_occupancy
  Cr  Cr0  1  -0.00563043  -0.00518970  0.99334061  1
  Cr  Cr1  1  0.16168407  0.15967058  0.16155653  1
  Cr  Cr2  1  -0.00562911  0.99339654  0.32800665  1
  Cr  Cr3  1  0.99272359  0.32705612  0.99311551  1
  Cr  Cr4  1  0.15927036  0.49628595  0.16234109  1
  Fe  Fe5  1  0.99389239  0.32796598  0.32799712  1
  Cr  Cr6  1  0.99407750  0.66100345  -0.00369173  1
  Fe  Fe7  1  0.16132822  0.82724537  0.16134222  1
  Fe  Fe8  1  0.99266390  0.66089071  0.32676387  1
  Cr  Cr9  1  0.32745208  0.99268589  -0.00371591  1
  Fe  Fe10  1  0.49421727  0.16028554  0.16087852  1
  Fe  Fe11  1  0.32809292  -0.00523784  0.32724354  1
  Cr  Cr12  1  0.32850163  0.32858836  0.99314614  1
  Cr  Cr13  1  0.49583689  0.49445430  0.15952697  1
  Cr  Cr14  1  0.32691228  0.32560192  0.33027391  1
  Fe  Fe15  1  0.32832041  0.66179890  -0.00570804  1
  Fe  Fe16  1  0.49383397  0.82809734  0.16142076  1
  Cr  Cr17  1  0.32768524  0.66176569  0.32531911  1
  Cr  Cr18  1  0.66104644  0.99404018  -0.00517943  1
  Cr  Cr19  1  0.82592276  0.16206721  0.15860782  1
  Cr  Cr20  1  0.66052166  0.99263372  0.32846971  1
  Fe  Fe21  1  0.66142508  0.32793166  0.99390190  1
  Fe  Fe22  1  0.82769587  0.49495929  0.16180620  1
  Cr  Cr23  1  0.66111892  0.32801158  0.32733065  1
  Cr  Cr24  1  0.65951431  0.65994720  -0.00520279  1
  Fe  Fe25  1  0.82770075  0.82602271  0.16164104  1
  Fe  Fe26  1  0.66248420  0.66172845  0.32684725  1
  Fe  Fe27  1  0.16101786  0.16102428  0.49342350  1
  Cr  Cr28  1  0.99332321  -0.00473229  0.66150422  1
  Fe  Fe29  1  0.16010542  0.16087053  0.82771358  1
  Cr  Cr30  1  0.15909817  0.49396901  0.49374768  1
  Cr  Cr31  1  -0.00517239  0.32622644  0.66140270  1
  Cr  Cr32  1  0.16135881  0.49535955  0.82678209  1
  Cr  Cr33  1  0.15937887  0.82780935  0.49455731  1
  Fe  Fe34  1  0.99350521  0.66094646  0.66103060  1
  Cr  Cr35  1  0.16169544  0.82693729  0.82790833  1
  Fe  Fe36  1  0.49384427  0.16064977  0.49397571  1
  Cr  Cr37  1  0.32691853  -0.00470711  0.65959153  1
  Cr  Cr38  1  0.49628855  0.16160076  0.82892775  1
  Cr  Cr39  1  0.49478669  0.49319718  0.49519685  1
  Cr  Cr40  1  0.32691221  0.32770342  0.65944770  1
  Fe  Fe41  1  0.49507468  0.49523863  0.82840837  1
  Cr  Cr42  1  0.49555117  0.82963206  0.49452765  1
  Cr  Cr43  1  0.32871237  0.65987191  0.66419995  1
  Fe  Fe44  1  0.49384056  0.82639542  0.82794051  1
  Fe  Fe45  1  0.82800188  0.16056635  0.49380424  1
  Cr  Cr46  1  0.66262663  0.99347729  0.65956476  1
  Fe  Fe47  1  0.82818339  0.16210629  0.82809504  1
  Cr  Cr48  1  0.82897833  0.49531780  0.49227780  1
  Cr  Cr49  1  0.66112879  0.32801679  0.66238370  1
  Fe  Fe50  1  0.82685245  0.49352884  0.82754421  1
  Fe  Fe51  1  0.82802072  0.82707555  0.49398771  1
  Cr  Cr52  1  0.66115042  0.66137575  0.66127756  1
  Cr  Cr53  1  0.82772645  0.82840747  0.82497157  1
" 