6818,Fe62Cr38_11,-213.578090815298, 190.488014663337,Fe62Cr38,"# generated using pymatgen
 data_Cr11Fe7
_symmetry_space_group_name_H-M   'P 1'
_cell_length_a   7.55283984
_cell_length_b   7.55283984
_cell_length_c   10.68132853
_cell_angle_alpha   90.00000000
_cell_angle_beta   90.00000000
_cell_angle_gamma   90.00000000
_symmetry_Int_Tables_number   1
_chemical_formula_structural   Cr11Fe7
_chemical_formula_sum   'Cr33 Fe21'
_cell_volume   609.32054742
_cell_formula_units_Z   3
loop_
 _symmetry_equiv_pos_site_id
 _symmetry_equiv_pos_as_xyz
  1  'x, y, z'
loop_
 _atom_site_type_symbol
 _atom_site_label
 _atom_site_symmetry_multiplicity
 _atom_site_fract_x
 _atom_site_fract_y
 _atom_site_fract_z
 _atom_site_occupancy
  Cr  Cr0  1  0.99418214  -0.00423694  0.99405488  1
  Fe  Fe1  1  0.16050125  0.16210484  0.16130974  1
  Fe  Fe2  1  -0.00526466  -0.00363835  0.32716150  1
  Cr  Cr3  1  -0.00360756  0.32932178  -0.00330119  1
  Fe  Fe4  1  0.16051035  0.49321122  0.16066774  1
  Fe  Fe5  1  -0.00526811  0.32642197  0.32644044  1
  Fe  Fe6  1  -0.00535577  0.65984868  -0.00518350  1
  Cr  Cr7  1  0.16092414  0.82729233  0.16178118  1
  Cr  Cr8  1  0.99343945  0.65894733  0.32632703  1
  Cr  Cr9  1  0.32923905  -0.00504896  -0.00470099  1
  Fe  Fe10  1  0.49391935  0.16122420  0.16050803  1
  Cr  Cr11  1  0.32705067  -0.00417122  0.32778752  1
  Fe  Fe12  1  0.32775057  0.32839236  -0.00485947  1
  Fe  Fe13  1  0.49391059  0.49409104  0.16058723  1
  Cr  Cr14  1  0.32548017  0.32659634  0.32751535  1
  Cr  Cr15  1  0.32810867  0.65951295  0.99312688  1
  Fe  Fe16  1  0.49428993  0.82764608  0.16107302  1
  Cr  Cr17  1  0.32929357  0.66053624  0.32821310  1
  Cr  Cr18  1  0.65953920  0.99305714  -0.00513921  1
  Fe  Fe19  1  0.82854252  0.16172438  0.16180006  1
  Cr  Cr20  1  0.66055907  0.99392540  0.32586997  1
  Cr  Cr21  1  0.66116927  0.32818878  -0.00557036  1
  Fe  Fe22  1  0.82854319  0.49358596  0.16097460  1
  Cr  Cr23  1  0.66213211  0.32850113  0.32867388  1
  Cr  Cr24  1  0.66036321  0.66171607  -0.00421345  1
  Cr  Cr25  1  0.82800659  0.82729896  0.16133438  1
  Cr  Cr26  1  0.66023015  0.66053488  0.32631254  1
  Fe  Fe27  1  0.16049576  0.16049655  0.49400236  1
  Fe  Fe28  1  -0.00525252  0.99392612  0.66066920  1
  Cr  Cr29  1  0.16228075  0.16141926  0.82835399  1
  Cr  Cr30  1  0.16240756  0.49495661  0.49472850  1
  Cr  Cr31  1  -0.00512443  0.32750474  0.66068303  1
  Fe  Fe32  1  0.16169880  0.49504643  0.82756924  1
  Cr  Cr33  1  0.16013672  0.82837881  0.49548765  1
  Fe  Fe34  1  -0.00436679  0.66146651  0.66129944  1
  Cr  Cr35  1  0.16041098  0.82494439  0.82568736  1
  Fe  Fe36  1  0.49391088  0.16224331  0.49480266  1
  Cr  Cr37  1  0.32697911  0.99392553  0.65987742  1
  Cr  Cr38  1  0.49490679  0.16332419  0.82835605  1
  Fe  Fe39  1  0.49440368  0.49355569  0.49512510  1
  Cr  Cr40  1  0.32766209  0.32894549  0.66059902  1
  Fe  Fe41  1  0.49310801  0.49474326  0.82725103  1
  Cr  Cr42  1  0.49256003  0.82693261  0.49347399  1
  Fe  Fe43  1  0.32765436  0.66016311  0.66180455  1
  Fe  Fe44  1  0.49398562  0.82651638  0.82717348  1
  Cr  Cr45  1  0.82752531  0.16153749  0.49492471  1
  Cr  Cr46  1  0.66106751  0.99426770  0.66222905  1
  Cr  Cr47  1  0.82577613  0.16112491  0.82642581  1
  Cr  Cr48  1  0.82608885  0.49306090  0.49399804  1
  Fe  Fe49  1  0.65965902  0.32798410  0.66056296  1
  Cr  Cr50  1  0.82767459  0.49467371  0.82719728  1
  Cr  Cr51  1  0.83026658  0.82836036  0.49472893  1
  Cr  Cr52  1  0.65963238  0.66006087  0.66085383  1
  Cr  Cr53  1  0.82957184  0.82716506  0.82689314  1
" 