97,Fe62Cr38_12,-213.590941257155, 187.915986186996,Fe62Cr38,"# generated using pymatgen
 data_Cr11Fe7
_symmetry_space_group_name_H-M   'P 1'
_cell_length_a   7.54893031
_cell_length_b   7.54893031
_cell_length_c   10.67579963
_cell_angle_alpha   90.00000000
_cell_angle_beta   90.00000000
_cell_angle_gamma   90.00000000
_symmetry_Int_Tables_number   1
_chemical_formula_structural   Cr11Fe7
_chemical_formula_sum   'Cr33 Fe21'
_cell_volume   608.37484154
_cell_formula_units_Z   3
loop_
 _symmetry_equiv_pos_site_id
 _symmetry_equiv_pos_as_xyz
  1  'x, y, z'
loop_
 _atom_site_type_symbol
 _atom_site_label
 _atom_site_symmetry_multiplicity
 _atom_site_fract_x
 _atom_site_fract_y
 _atom_site_fract_z
 _atom_site_occupancy
  Cr  Cr0  1  0.99271961  -0.00370618  -0.00294030  1
  Fe  Fe1  1  0.16212697  0.16172194  0.16166038  1
  Fe  Fe2  1  0.99433369  -0.00453852  0.32612238  1
  Cr  Cr3  1  0.99401118  0.32730151  -0.00260435  1
  Cr  Cr4  1  0.16352120  0.49336062  0.16104226  1
  Cr  Cr5  1  -0.00522349  0.32766601  0.32731994  1
  Cr  Cr6  1  0.99451236  0.66011524  0.99186101  1
  Cr  Cr7  1  0.16188812  0.83106258  0.16081111  1
  Cr  Cr8  1  -0.00542208  0.65900544  0.32925966  1
  Cr  Cr9  1  0.32995707  -0.00346963  0.99440816  1
  Fe  Fe10  1  0.49493298  0.16270058  0.16087004  1
  Cr  Cr11  1  0.33026790  -0.00379229  0.32755738  1
  Fe  Fe12  1  0.33064878  0.32668172  -0.00537414  1
  Cr  Cr13  1  0.49577007  0.49395945  0.16023888  1
  Cr  Cr14  1  0.32729350  0.32818603  0.32890811  1
  Cr  Cr15  1  0.32836493  0.65993150  0.99349666  1
  Fe  Fe16  1  0.49553018  0.82746963  0.16223149  1
  Fe  Fe17  1  0.32836710  0.66108485  0.32721958  1
  Cr  Cr18  1  0.66108132  -0.00313049  0.99450995  1
  Fe  Fe19  1  0.82686094  0.16088908  0.16257995  1
  Cr  Cr20  1  0.66130868  -0.00492936  0.32683528  1
  Fe  Fe21  1  0.65937768  0.32597900  0.99376421  1
  Cr  Cr22  1  0.82436331  0.49339408  0.16170359  1
  Fe  Fe23  1  0.66051248  0.32658045  0.32733250  1
  Cr  Cr24  1  0.66091781  0.66169495  -0.00455138  1
  Fe  Fe25  1  0.82700564  0.82802174  0.16253935  1
  Fe  Fe26  1  0.66004066  0.66066571  0.32640444  1
  Cr  Cr27  1  0.16145662  0.16144948  0.49416247  1
  Cr  Cr28  1  0.99376298  -0.00467957  0.66272884  1
  Cr  Cr29  1  0.16233507  0.16072855  0.82956763  1
  Fe  Fe30  1  0.16078930  0.49440659  0.49597093  1
  Fe  Fe31  1  -0.00483057  0.32889147  0.66134976  1
  Cr  Cr32  1  0.16212412  0.49251453  0.82678106  1
  Cr  Cr33  1  0.16136446  0.82908049  0.49600150  1
  Fe  Fe34  1  -0.00482541  0.65995676  0.66111636  1
  Fe  Fe35  1  0.16095539  0.82790944  0.82741836  1
  Fe  Fe36  1  0.49572552  0.16293949  0.49492988  1
  Cr  Cr37  1  0.33081553  -0.00356950  0.66150593  1
  Fe  Fe38  1  0.49602454  0.16594794  0.82815778  1
  Cr  Cr39  1  0.49539242  0.49295540  0.49300437  1
  Fe  Fe40  1  0.32965619  0.32738998  0.66082508  1
  Fe  Fe41  1  0.49442283  0.49072923  0.82791255  1
  Cr  Cr42  1  0.49439372  0.82696857  0.49105439  1
  Cr  Cr43  1  0.32616485  0.65907227  0.66083924  1
  Cr  Cr44  1  0.49338808  0.82794190  0.82874198  1
  Cr  Cr45  1  0.82771048  0.16277308  0.49561424  1
  Cr  Cr46  1  0.65936657  -0.00224778  0.66184827  1
  Fe  Fe47  1  0.82670404  0.16326338  0.82766073  1
  Cr  Cr48  1  0.82644380  0.49298439  0.49575462  1
  Fe  Fe49  1  0.65901085  0.32686206  0.66231681  1
  Cr  Cr50  1  0.82539844  0.49155203  0.82682974  1
  Cr  Cr51  1  0.82795055  0.82801618  0.49340735  1
  Cr  Cr52  1  0.66106984  0.66096742  0.66135882  1
  Cr  Cr53  1  0.82929414  0.82842355  0.82706811  1
" 