2638,Fe62Cr38_2,-213.721550785482, 187.127991198339,Fe62Cr38,"# generated using pymatgen
 data_Cr11Fe7
_symmetry_space_group_name_H-M   'P 1'
_cell_length_a   7.55317351
_cell_length_b   7.55317351
_cell_length_c   10.68180042
_cell_angle_alpha   90.00000000
_cell_angle_beta   90.00000000
_cell_angle_gamma   90.00000000
_symmetry_Int_Tables_number   1
_chemical_formula_structural   Cr11Fe7
_chemical_formula_sum   'Cr33 Fe21'
_cell_volume   609.40130767
_cell_formula_units_Z   3
loop_
 _symmetry_equiv_pos_site_id
 _symmetry_equiv_pos_as_xyz
  1  'x, y, z'
loop_
 _atom_site_type_symbol
 _atom_site_label
 _atom_site_symmetry_multiplicity
 _atom_site_fract_x
 _atom_site_fract_y
 _atom_site_fract_z
 _atom_site_occupancy
  Fe  Fe0  1  -0.00495748  0.99380493  -0.00435504  1
  Cr  Cr1  1  0.16221409  0.16134893  0.16132990  1
  Cr  Cr2  1  0.99285873  0.99386325  0.33118833  1
  Fe  Fe3  1  -0.00396132  0.32874297  -0.00541748  1
  Fe  Fe4  1  0.16042408  0.49411795  0.15967105  1
  Fe  Fe5  1  -0.00283199  0.32764832  0.32881082  1
  Fe  Fe6  1  -0.00247449  0.66034348  -0.00475853  1
  Fe  Fe7  1  0.16173744  0.82678613  0.15826604  1
  Cr  Cr8  1  -0.00291291  0.66006830  0.32500184  1
  Fe  Fe9  1  0.32718071  0.99262164  -0.00314912  1
  Fe  Fe10  1  0.49396358  0.16013207  0.16144834  1
  Cr  Cr11  1  0.32845636  0.99393239  0.32464447  1
  Cr  Cr12  1  0.32767335  0.32953368  -0.00537606  1
  Cr  Cr13  1  0.49406366  0.49497895  0.16377247  1
  Fe  Fe14  1  0.32444793  0.32834659  0.32813529  1
  Fe  Fe15  1  0.32640719  0.66149331  -0.00401931  1
  Fe  Fe16  1  0.49318461  0.82831403  0.16080990  1
  Cr  Cr17  1  0.32445037  0.65944320  0.32743175  1
  Cr  Cr18  1  0.66041705  -0.00382465  -0.00314315  1
  Cr  Cr19  1  0.83055533  0.16210915  0.16186226  1
  Fe  Fe20  1  0.66031101  0.99314100  0.32691926  1
  Cr  Cr21  1  0.66096350  0.32544869  0.99303179  1
  Cr  Cr22  1  0.82912351  0.49404046  0.15982887  1
  Cr  Cr23  1  0.66039764  0.32450614  0.32600022  1
  Cr  Cr24  1  0.66181987  0.66134830  0.99335702  1
  Cr  Cr25  1  0.82756938  0.82642438  0.16285342  1
  Fe  Fe26  1  0.66012573  0.66181074  0.32723409  1
  Fe  Fe27  1  0.15806834  0.16372037  0.49393421  1
  Fe  Fe28  1  -0.00537955  -0.00302488  0.65925019  1
  Cr  Cr29  1  0.15975952  0.16105996  0.82620328  1
  Fe  Fe30  1  0.16063738  0.49226098  0.49304374  1
  Fe  Fe31  1  -0.00460514  0.32716631  0.65911644  1
  Fe  Fe32  1  0.15995029  0.49404120  0.82914841  1
  Cr  Cr33  1  0.16116801  0.83102733  0.49586461  1
  Cr  Cr34  1  -0.00369208  0.66048588  0.66208350  1
  Cr  Cr35  1  0.16110262  0.82979403  0.83140413  1
  Cr  Cr36  1  0.49068065  0.16204036  0.49144760  1
  Cr  Cr37  1  0.32655281  -0.00509517  0.66158298  1
  Cr  Cr38  1  0.49051064  0.16043866  0.83073060  1
  Fe  Fe39  1  0.49435092  0.49455347  0.49315811  1
  Cr  Cr40  1  0.32636767  0.32945064  0.65784177  1
  Cr  Cr41  1  0.49431994  0.49602313  0.82421536  1
  Cr  Cr42  1  0.49563560  0.82433366  0.49430685  1
  Cr  Cr43  1  0.32477735  0.65876735  0.66084632  1
  Cr  Cr44  1  0.49293885  0.82629921  0.82663634  1
  Fe  Fe45  1  0.82900794  0.16171646  0.49454950  1
  Cr  Cr46  1  0.66321027  -0.00319336  0.66084660  1
  Cr  Cr47  1  0.83287319  0.16165769  0.82760196  1
  Cr  Cr48  1  0.82600249  0.49422390  0.49291228  1
  Cr  Cr49  1  0.66140180  0.32657055  0.66381640  1
  Cr  Cr50  1  0.82923646  0.49435412  0.82959286  1
  Cr  Cr51  1  0.82618089  0.82615352  0.49508995  1
  Fe  Fe52  1  0.66082459  0.65985170  0.66024580  1
  Cr  Cr53  1  0.82904112  0.82692810  0.82528126  1
" 