5952,Fe62Cr38_7,-213.464425383936, 187.985409712222,Fe62Cr38,"# generated using pymatgen
 data_Cr11Fe7
_symmetry_space_group_name_H-M   'P 1'
_cell_length_a   7.55463511
_cell_length_b   7.55463511
_cell_length_c   10.68386744
_cell_angle_alpha   90.00000000
_cell_angle_beta   90.00000000
_cell_angle_gamma   90.00000000
_symmetry_Int_Tables_number   1
_chemical_formula_structural   Cr11Fe7
_chemical_formula_sum   'Cr33 Fe21'
_cell_volume   609.75514935
_cell_formula_units_Z   3
loop_
 _symmetry_equiv_pos_site_id
 _symmetry_equiv_pos_as_xyz
  1  'x, y, z'
loop_
 _atom_site_type_symbol
 _atom_site_label
 _atom_site_symmetry_multiplicity
 _atom_site_fract_x
 _atom_site_fract_y
 _atom_site_fract_z
 _atom_site_occupancy
  Cr  Cr0  1  -0.00515357  -0.00360423  0.99151041  1
  Fe  Fe1  1  0.16149219  0.15900918  0.16184307  1
  Fe  Fe2  1  -0.00485956  -0.00529483  0.32877785  1
  Cr  Cr3  1  -0.00476759  0.32601413  -0.00434163  1
  Cr  Cr4  1  0.16330005  0.49468455  0.16102277  1
  Cr  Cr5  1  -0.00409840  0.32811965  0.32613376  1
  Cr  Cr6  1  0.99119183  0.66049524  0.99418457  1
  Cr  Cr7  1  0.16284642  0.82963767  0.16318756  1
  Cr  Cr8  1  0.99239382  0.66060324  0.33070312  1
  Cr  Cr9  1  0.33069656  -0.00279930  -0.00558300  1
  Fe  Fe10  1  0.49484056  0.15854505  0.16145462  1
  Fe  Fe11  1  0.32771384  -0.00573565  0.32754705  1
  Cr  Cr12  1  0.32745944  0.32273125  0.99409040  1
  Cr  Cr13  1  0.49382140  0.49486240  0.15914176  1
  Cr  Cr14  1  0.32675083  0.32270853  0.32728062  1
  Cr  Cr15  1  0.32911728  0.66275508  -0.00506213  1
  Fe  Fe16  1  0.49522241  0.82972902  0.16181298  1
  Fe  Fe17  1  0.32725963  0.66092612  0.32823878  1
  Fe  Fe18  1  0.65976372  -0.00392822  0.99406684  1
  Cr  Cr19  1  0.82690732  0.15919696  0.16050104  1
  Fe  Fe20  1  0.65969541  -0.00492846  0.32783560  1
  Fe  Fe21  1  0.65957786  0.32436070  0.99385885  1
  Cr  Cr22  1  0.82531054  0.49177758  0.15868653  1
  Cr  Cr23  1  0.65996831  0.32631204  0.32965852  1
  Fe  Fe24  1  0.66046479  0.66212570  -0.00529450  1
  Cr  Cr25  1  0.82638856  0.83184059  0.16049383  1
  Cr  Cr26  1  0.66269663  0.66371480  0.32762613  1
  Fe  Fe27  1  0.16154891  0.15866076  0.49359346  1
  Fe  Fe28  1  -0.00515306  -0.00489289  0.65998421  1
  Fe  Fe29  1  0.15971308  0.16078070  0.82701400  1
  Fe  Fe30  1  0.16095170  0.49392239  0.49362636  1
  Cr  Cr31  1  -0.00535290  0.32743929  0.66079844  1
  Cr  Cr32  1  0.16281398  0.49431465  0.82835324  1
  Fe  Fe33  1  0.15990884  0.82990097  0.49310853  1
  Cr  Cr34  1  0.99195027  0.66135148  0.65753119  1
  Cr  Cr35  1  0.16047009  0.82975262  0.82496568  1
  Fe  Fe36  1  0.49363324  0.15951393  0.49374317  1
  Cr  Cr37  1  0.32816208  -0.00256451  0.66238101  1
  Fe  Fe38  1  0.49703719  0.16141595  0.82820441  1
  Cr  Cr39  1  0.49284147  0.49254281  0.49657839  1
  Cr  Cr40  1  0.32786806  0.32324339  0.66129383  1
  Cr  Cr41  1  0.49516813  0.49211996  0.82705524  1
  Cr  Cr42  1  0.49135619  0.82833235  0.49126807  1
  Cr  Cr43  1  0.32647781  0.66177288  0.65976382  1
  Cr  Cr44  1  0.49418169  0.82680631  0.83027334  1
  Cr  Cr45  1  0.82835181  0.15909192  0.49473494  1
  Cr  Cr46  1  0.65964186  -0.00488786  0.66138914  1
  Fe  Fe47  1  0.82607121  0.16148834  0.82732103  1
  Fe  Fe48  1  0.82749308  0.49341441  0.49435300  1
  Fe  Fe49  1  0.66097400  0.32608077  0.66044253  1
  Cr  Cr50  1  0.82444899  0.49026259  0.82915129  1
  Fe  Fe51  1  0.82840618  0.82949721  0.49361650  1
  Cr  Cr52  1  0.66397177  0.66198535  0.65932348  1
  Cr  Cr53  1  0.82802940  0.83176074  0.82772165  1
" 