1916,Fe63Cr37_11,-213.099454218207, 188.844488144225,Fe63Cr37,"# generated using pymatgen
 data_Cr17Fe10
_symmetry_space_group_name_H-M   'P 1'
_cell_length_a   7.55281728
_cell_length_b   7.55281728
_cell_length_c   10.68129664
_cell_angle_alpha   90.00000000
_cell_angle_beta   90.00000000
_cell_angle_gamma   90.00000000
_symmetry_Int_Tables_number   1
_chemical_formula_structural   Cr17Fe10
_chemical_formula_sum   'Cr34 Fe20'
_cell_volume   609.31508907
_cell_formula_units_Z   2
loop_
 _symmetry_equiv_pos_site_id
 _symmetry_equiv_pos_as_xyz
  1  'x, y, z'
loop_
 _atom_site_type_symbol
 _atom_site_label
 _atom_site_symmetry_multiplicity
 _atom_site_fract_x
 _atom_site_fract_y
 _atom_site_fract_z
 _atom_site_occupancy
  Cr  Cr0  1  -0.00542634  0.99297578  0.99310511  1
  Fe  Fe1  1  0.15965542  0.16259314  0.16120639  1
  Fe  Fe2  1  -0.00430958  -0.00298353  0.32764641  1
  Fe  Fe3  1  -0.00430655  0.32517006  -0.00524311  1
  Fe  Fe4  1  0.15992137  0.49300551  0.16017455  1
  Fe  Fe5  1  -0.00451047  0.32569604  0.32782846  1
  Cr  Cr6  1  -0.00522255  0.66231699  0.99312849  1
  Cr  Cr7  1  0.16215508  0.82784540  0.16253336  1
  Cr  Cr8  1  -0.00530525  0.66185644  0.32679867  1
  Cr  Cr9  1  0.32529555  -0.00302103  0.99378424  1
  Fe  Fe10  1  0.49416165  0.16197265  0.16103753  1
  Cr  Cr11  1  0.32556519  -0.00244817  0.32671789  1
  Cr  Cr12  1  0.32573804  0.32771092  -0.00412148  1
  Cr  Cr13  1  0.49449164  0.49650276  0.15963890  1
  Cr  Cr14  1  0.32633191  0.32737913  0.32715160  1
  Fe  Fe15  1  0.32632658  0.66193146  0.99427796  1
  Cr  Cr16  1  0.49356488  0.82882275  0.16038780  1
  Cr  Cr17  1  0.32601456  0.65863647  0.32793626  1
  Cr  Cr18  1  0.66314403  0.99400929  -0.00462815  1
  Cr  Cr19  1  0.83007393  0.16222823  0.16317029  1
  Cr  Cr20  1  0.66346132  -0.00452564  0.32600858  1
  Cr  Cr21  1  0.65952275  0.32644196  0.99397993  1
  Cr  Cr22  1  0.83006811  0.49178444  0.15928088  1
  Cr  Cr23  1  0.65977182  0.32699350  0.33112510  1
  Fe  Fe24  1  0.66193320  0.66201860  0.99394573  1
  Fe  Fe25  1  0.82825718  0.82676466  0.16120227  1
  Cr  Cr26  1  0.66242743  0.66011693  0.32922694  1
  Fe  Fe27  1  0.15838492  0.16111948  0.49571413  1
  Fe  Fe28  1  -0.00347866  -0.00545028  0.66208531  1
  Fe  Fe29  1  0.16088290  0.16106771  0.82573370  1
  Cr  Cr30  1  0.15904742  0.49296739  0.49386820  1
  Fe  Fe31  1  -0.00373123  0.32604984  0.66079184  1
  Cr  Cr32  1  0.15915470  0.49357447  0.82908816  1
  Cr  Cr33  1  0.16130763  0.82999370  0.49545777  1
  Fe  Fe34  1  0.99386366  0.66207723  0.66207684  1
  Fe  Fe35  1  0.15956451  0.82880000  0.82549492  1
  Cr  Cr36  1  0.49311399  0.15921239  0.49572732  1
  Fe  Fe37  1  0.32582791  -0.00445160  0.66214976  1
  Cr  Cr38  1  0.49350966  0.15980117  0.82785450  1
  Fe  Fe39  1  0.49270422  0.49406485  0.49514808  1
  Fe  Fe40  1  0.32523582  0.32602005  0.66090911  1
  Cr  Cr41  1  0.49388288  0.49517733  0.82774942  1
  Cr  Cr42  1  0.49248022  0.82863626  0.49320625  1
  Cr  Cr43  1  0.32512009  0.65939420  0.65988395  1
  Cr  Cr44  1  0.49173072  0.82805332  0.82923674  1
  Fe  Fe45  1  0.83205126  0.15998027  0.49458493  1
  Cr  Cr46  1  0.66376269  -0.00555219  0.66152222  1
  Cr  Cr47  1  0.83040579  0.16252191  0.82629663  1
  Cr  Cr48  1  0.83038133  0.49114237  0.49529691  1
  Cr  Cr49  1  0.65943466  0.32751667  0.65831840  1
  Cr  Cr50  1  0.82922192  0.49269395  0.82856407  1
  Cr  Cr51  1  0.82986857  0.82946937  0.49296178  1
  Cr  Cr52  1  0.66247714  0.66066299  0.65972259  1
  Fe  Fe53  1  0.82838283  0.82705085  0.82664430  1
" 