5860,Fe63Cr37_19,-213.033602642483, 192.806067440282,Fe63Cr37,"# generated using pymatgen
 data_Cr17Fe10
_symmetry_space_group_name_H-M   'P 1'
_cell_length_a   7.54971174
_cell_length_b   7.54971174
_cell_length_c   10.67690473
_cell_angle_alpha   90.00000000
_cell_angle_beta   90.00000000
_cell_angle_gamma   90.00000000
_symmetry_Int_Tables_number   1
_chemical_formula_structural   Cr17Fe10
_chemical_formula_sum   'Cr34 Fe20'
_cell_volume   608.56378829
_cell_formula_units_Z   2
loop_
 _symmetry_equiv_pos_site_id
 _symmetry_equiv_pos_as_xyz
  1  'x, y, z'
loop_
 _atom_site_type_symbol
 _atom_site_label
 _atom_site_symmetry_multiplicity
 _atom_site_fract_x
 _atom_site_fract_y
 _atom_site_fract_z
 _atom_site_occupancy
  Fe  Fe0  1  0.99348798  0.99344247  0.99373346  1
  Cr  Cr1  1  0.15814633  0.15936842  0.15818333  1
  Fe  Fe2  1  0.99450459  0.99385975  0.32756804  1
  Fe  Fe3  1  -0.00388328  0.32719871  0.99418550  1
  Cr  Cr4  1  0.16219317  0.49598919  0.16161440  1
  Fe  Fe5  1  -0.00495459  0.32686382  0.32788868  1
  Fe  Fe6  1  -0.00463363  0.66263914  -0.00451110  1
  Fe  Fe7  1  0.16031241  0.82830394  0.16197762  1
  Cr  Cr8  1  0.99362915  0.66148137  0.32835139  1
  Cr  Cr9  1  0.32638399  -0.00378514  -0.00479346  1
  Fe  Fe10  1  0.49454066  0.16053540  0.16153769  1
  Cr  Cr11  1  0.32776845  0.99389145  0.32583289  1
  Fe  Fe12  1  0.32737269  0.32771155  -0.00532049  1
  Cr  Cr13  1  0.49374778  0.49431821  0.16138477  1
  Cr  Cr14  1  0.32715457  0.32481661  0.32836301  1
  Cr  Cr15  1  0.32922265  0.66448294  -0.00103858  1
  Fe  Fe16  1  0.49498403  0.82976784  0.16219187  1
  Fe  Fe17  1  0.32892818  0.66234651  0.32672619  1
  Cr  Cr18  1  0.65934680  0.99261318  0.99443890  1
  Cr  Cr19  1  0.82667637  0.15958732  0.16423070  1
  Fe  Fe20  1  0.65907367  0.99337258  0.32730042  1
  Cr  Cr21  1  0.66183053  0.32797354  -0.00286078  1
  Cr  Cr22  1  0.82851220  0.49266321  0.16076550  1
  Fe  Fe23  1  0.65949620  0.32650047  0.32745162  1
  Cr  Cr24  1  0.66318835  0.66219431  0.99376288  1
  Cr  Cr25  1  0.82988599  0.83089694  0.15998215  1
  Cr  Cr26  1  0.66154807  0.66202305  0.32613413  1
  Cr  Cr27  1  0.15931270  0.15949390  0.49545313  1
  Cr  Cr28  1  0.99384558  0.99341480  0.66186339  1
  Fe  Fe29  1  0.15995745  0.16200146  0.83027662  1
  Cr  Cr30  1  0.16243524  0.49646035  0.49459689  1
  Cr  Cr31  1  0.99447674  0.32765644  0.66092788  1
  Cr  Cr32  1  0.16243063  0.49670109  0.82811801  1
  Cr  Cr33  1  0.16177988  0.82754764  0.49166541  1
  Fe  Fe34  1  -0.00517554  0.66228506  0.66067607  1
  Cr  Cr35  1  0.16028618  0.82782192  0.82924508  1
  Fe  Fe36  1  0.49444312  0.15917199  0.49399239  1
  Cr  Cr37  1  0.32836343  -0.00490510  0.66206159  1
  Cr  Cr38  1  0.49543472  0.16076624  0.82723658  1
  Cr  Cr39  1  0.49412844  0.49545524  0.49385124  1
  Cr  Cr40  1  0.32643200  0.32513383  0.66266907  1
  Cr  Cr41  1  0.49329858  0.49519146  0.82896679  1
  Fe  Fe42  1  0.49755370  0.83042369  0.49349365  1
  Cr  Cr43  1  0.32999364  0.66366740  0.65848829  1
  Fe  Fe44  1  0.49460062  0.82819284  0.82775439  1
  Cr  Cr45  1  0.82491839  0.15749115  0.48990351  1
  Fe  Fe46  1  0.66106014  0.99419338  0.66046912  1
  Cr  Cr47  1  0.82768143  0.15847971  0.82919272  1
  Cr  Cr48  1  0.82767209  0.49340510  0.49318889  1
  Cr  Cr49  1  0.66162173  0.32824977  0.65937547  1
  Cr  Cr50  1  0.82940356  0.49483608  0.82956747  1
  Fe  Fe51  1  0.82684450  0.82783190  0.49405639  1
  Cr  Cr52  1  0.66454635  0.66425541  0.66361396  1
  Fe  Fe53  1  0.82856002  0.82808912  0.82858391  1
" 