6940,Fe63Cr37_5,-213.05688473429, 190.306023573777,Fe63Cr37,"# generated using pymatgen
 data_Cr17Fe10
_symmetry_space_group_name_H-M   'P 1'
_cell_length_a   7.55354435
_cell_length_b   7.55354435
_cell_length_c   10.68232487
_cell_angle_alpha   90.00000000
_cell_angle_beta   90.00000000
_cell_angle_gamma   90.00000000
_symmetry_Int_Tables_number   1
_chemical_formula_structural   Cr17Fe10
_chemical_formula_sum   'Cr34 Fe20'
_cell_volume   609.49107310
_cell_formula_units_Z   2
loop_
 _symmetry_equiv_pos_site_id
 _symmetry_equiv_pos_as_xyz
  1  'x, y, z'
loop_
 _atom_site_type_symbol
 _atom_site_label
 _atom_site_symmetry_multiplicity
 _atom_site_fract_x
 _atom_site_fract_y
 _atom_site_fract_z
 _atom_site_occupancy
  Fe  Fe0  1  -0.00541296  0.99304618  0.99415100  1
  Cr  Cr1  1  0.16003269  0.16134596  0.16349592  1
  Cr  Cr2  1  0.99340019  -0.00478404  0.32801968  1
  Cr  Cr3  1  -0.00488516  0.32783365  -0.00546071  1
  Cr  Cr4  1  0.15898613  0.49487247  0.16157022  1
  Fe  Fe5  1  0.99302132  0.32793611  0.32748792  1
  Fe  Fe6  1  0.99378020  0.66169628  0.99354246  1
  Cr  Cr7  1  0.16022886  0.82663386  0.15891371  1
  Cr  Cr8  1  0.99164342  0.66218417  0.32487012  1
  Cr  Cr9  1  0.32519769  -0.00363324  0.99388762  1
  Fe  Fe10  1  0.49273288  0.16152846  0.16122112  1
  Fe  Fe11  1  0.32770289  -0.00563554  0.32752499  1
  Fe  Fe12  1  0.32704813  0.32734078  -0.00566861  1
  Cr  Cr13  1  0.49353965  0.49278666  0.15989154  1
  Cr  Cr14  1  0.32554572  0.32535100  0.32877740  1
  Cr  Cr15  1  0.32593896  0.66070933  0.99268294  1
  Cr  Cr16  1  0.49339868  0.82967589  0.16358116  1
  Cr  Cr17  1  0.32880078  0.66046144  0.32841648  1
  Cr  Cr18  1  0.66209510  0.99384535  -0.00173442  1
  Cr  Cr19  1  0.82595908  0.16207599  0.16123935  1
  Fe  Fe20  1  0.66102096  0.99427267  0.32709639  1
  Fe  Fe21  1  0.66104433  0.32822293  -0.00491159  1
  Fe  Fe22  1  0.82783536  0.49466562  0.16040496  1
  Cr  Cr23  1  0.66102950  0.32825024  0.32678666  1
  Cr  Cr24  1  0.66363784  0.66086237  -0.00464211  1
  Fe  Fe25  1  0.82885940  0.82733387  0.16037749  1
  Cr  Cr26  1  0.66238789  0.66320927  0.32922739  1
  Fe  Fe27  1  0.16141012  0.15893124  0.49377822  1
  Fe  Fe28  1  -0.00240471  0.99328721  0.66092611  1
  Fe  Fe29  1  0.16052098  0.15937059  0.82779849  1
  Cr  Cr30  1  0.15965373  0.49470862  0.49107144  1
  Cr  Cr31  1  -0.00299173  0.32501696  0.65914595  1
  Fe  Fe32  1  0.15816161  0.49480703  0.82786431  1
  Cr  Cr33  1  0.16089305  0.82806406  0.49613681  1
  Fe  Fe34  1  -0.00506841  0.66055434  0.66170843  1
  Fe  Fe35  1  0.15955947  0.82863827  0.82670286  1
  Cr  Cr36  1  0.49491650  0.15921200  0.49318289  1
  Fe  Fe37  1  0.32509031  -0.00378361  0.66219091  1
  Cr  Cr38  1  0.49567927  0.16141404  0.83106800  1
  Fe  Fe39  1  0.49418109  0.49304357  0.49436362  1
  Cr  Cr40  1  0.32521866  0.32595645  0.66112771  1
  Cr  Cr41  1  0.49414044  0.49334205  0.82791512  1
  Cr  Cr42  1  0.49299057  0.82871784  0.49389788  1
  Cr  Cr43  1  0.32695893  0.65992816  0.66096360  1
  Cr  Cr44  1  0.49284882  0.82841546  0.82562884  1
  Cr  Cr45  1  0.82918090  0.16039004  0.49441685  1
  Cr  Cr46  1  0.66298580  0.99311669  0.65909711  1
  Cr  Cr47  1  0.82855032  0.16159102  0.82747163  1
  Cr  Cr48  1  0.82967161  0.49300331  0.49457410  1
  Cr  Cr49  1  0.66098291  0.32889585  0.66263816  1
  Fe  Fe50  1  0.82967363  0.49514069  0.82763066  1
  Fe  Fe51  1  0.82971381  0.82799363  0.49462337  1
  Cr  Cr52  1  0.66217625  0.66088138  0.65779248  1
  Cr  Cr53  1  0.83155557  0.82809442  0.82635439  1
" 