4656,Fe63Cr37_16,-213.02797344291, 186.785665587512,Fe63Cr37,"# generated using pymatgen
 data_Cr17Fe10
_symmetry_space_group_name_H-M   'P 1'
_cell_length_a   7.55393272
_cell_length_b   7.55393272
_cell_length_c   10.68287410
_cell_angle_alpha   90.00000000
_cell_angle_beta   90.00000000
_cell_angle_gamma   90.00000000
_symmetry_Int_Tables_number   1
_chemical_formula_structural   Cr17Fe10
_chemical_formula_sum   'Cr34 Fe20'
_cell_volume   609.58508885
_cell_formula_units_Z   2
loop_
 _symmetry_equiv_pos_site_id
 _symmetry_equiv_pos_as_xyz
  1  'x, y, z'
loop_
 _atom_site_type_symbol
 _atom_site_label
 _atom_site_symmetry_multiplicity
 _atom_site_fract_x
 _atom_site_fract_y
 _atom_site_fract_z
 _atom_site_occupancy
  Cr  Cr0  1  -0.00539964  0.99323208  0.99409585  1
  Cr  Cr1  1  0.16093529  0.16181529  0.16146893  1
  Cr  Cr2  1  0.99345251  0.99293249  0.33045317  1
  Cr  Cr3  1  0.99129842  0.33059845  -0.00166486  1
  Cr  Cr4  1  0.16227288  0.49444620  0.16175277  1
  Cr  Cr5  1  0.98920042  0.32947959  0.32505899  1
  Fe  Fe6  1  0.99318776  0.65942875  -0.00548344  1
  Cr  Cr7  1  0.16065660  0.82622348  0.16171951  1
  Cr  Cr8  1  0.99223030  0.66034331  0.32850054  1
  Cr  Cr9  1  0.32977132  0.99292218  0.99423659  1
  Cr  Cr10  1  0.49521495  0.16039029  0.16031986  1
  Cr  Cr11  1  0.32877679  0.98954916  0.32858910  1
  Cr  Cr12  1  0.33028200  0.32799302  0.98994687  1
  Cr  Cr13  1  0.49528773  0.49716471  0.16279088  1
  Cr  Cr14  1  0.32931922  0.32670275  0.32742785  1
  Cr  Cr15  1  0.32831724  0.66179664  0.99341379  1
  Cr  Cr16  1  0.49781372  0.82514224  0.16258629  1
  Fe  Fe17  1  0.32855590  0.66180441  0.32954201  1
  Fe  Fe18  1  0.65995120  -0.00501939  0.99374558  1
  Cr  Cr19  1  0.82668655  0.15830695  0.16085123  1
  Cr  Cr20  1  0.66027758  0.99393486  0.33015947  1
  Cr  Cr21  1  0.66143124  0.32921155  0.99358339  1
  Fe  Fe22  1  0.82563354  0.49753219  0.16028782  1
  Cr  Cr23  1  0.66439727  0.32937417  0.32870808  1
  Fe  Fe24  1  0.66164075  0.65966578  0.99418559  1
  Cr  Cr25  1  0.82440221  0.82631216  0.15637885  1
  Fe  Fe26  1  0.66212854  0.66163109  0.32952832  1
  Cr  Cr27  1  0.15984286  0.16168934  0.49381786  1
  Fe  Fe28  1  0.99280260  0.99237332  0.65877074  1
  Cr  Cr29  1  0.16056204  0.16244871  0.82692485  1
  Cr  Cr30  1  0.16229354  0.49402664  0.49417145  1
  Cr  Cr31  1  0.98973486  0.32908442  0.65933904  1
  Cr  Cr32  1  0.16174063  0.49349151  0.82576003  1
  Fe  Fe33  1  0.16050522  0.82644961  0.49534478  1
  Fe  Fe34  1  0.99228875  0.66284855  0.65873013  1
  Cr  Cr35  1  0.15731126  0.82677785  0.82663105  1
  Fe  Fe36  1  0.49560500  0.16118515  0.49586390  1
  Cr  Cr37  1  0.32951758  0.99300080  0.66089482  1
  Fe  Fe38  1  0.49613486  0.16146028  0.82565356  1
  Cr  Cr39  1  0.49535740  0.49574627  0.49432589  1
  Fe  Fe40  1  0.33044699  0.32700460  0.66108656  1
  Fe  Fe41  1  0.49615302  0.49367296  0.82528658  1
  Fe  Fe42  1  0.49547827  0.82703262  0.49479073  1
  Cr  Cr43  1  0.32832205  0.66273655  0.66133832  1
  Cr  Cr44  1  0.49948720  0.82688151  0.82991278  1
  Fe  Fe45  1  0.82530086  0.16063847  0.49628991  1
  Fe  Fe46  1  0.66128821  0.99420136  0.65842473  1
  Cr  Cr47  1  0.82583235  0.15792622  0.82617093  1
  Fe  Fe48  1  0.82657734  0.49586609  0.49589988  1
  Fe  Fe49  1  0.65822560  0.32713691  0.66037203  1
  Cr  Cr50  1  0.82629158  0.49739759  0.82724666  1
  Fe  Fe51  1  0.82675321  0.82641992  0.49658019  1
  Fe  Fe52  1  0.66195430  0.66135312  0.65955774  1
  Cr  Cr53  1  0.82591696  0.82768203  0.82807865  1
" 