1120,Fe63Cr37_8,-212.95677803404, 197.29891666228,Fe63Cr37,"# generated using pymatgen
 data_Cr17Fe10
_symmetry_space_group_name_H-M   'P 1'
_cell_length_a   7.54629948
_cell_length_b   7.54629948
_cell_length_c   10.67207908
_cell_angle_alpha   90.00000000
_cell_angle_beta   90.00000000
_cell_angle_gamma   90.00000000
_symmetry_Int_Tables_number   1
_chemical_formula_structural   Cr17Fe10
_chemical_formula_sum   'Cr34 Fe20'
_cell_volume   607.73900156
_cell_formula_units_Z   2
loop_
 _symmetry_equiv_pos_site_id
 _symmetry_equiv_pos_as_xyz
  1  'x, y, z'
loop_
 _atom_site_type_symbol
 _atom_site_label
 _atom_site_symmetry_multiplicity
 _atom_site_fract_x
 _atom_site_fract_y
 _atom_site_fract_z
 _atom_site_occupancy
  Fe  Fe0  1  -0.00421727  0.99403072  0.99442327  1
  Cr  Cr1  1  0.16308703  0.16096742  0.16007269  1
  Cr  Cr2  1  0.99244185  0.99363379  0.32850571  1
  Cr  Cr3  1  0.99335698  0.32769796  0.99309032  1
  Fe  Fe4  1  0.15948448  0.49522672  0.16270644  1
  Cr  Cr5  1  0.99345354  0.32864253  0.32879002  1
  Cr  Cr6  1  -0.00030938  0.65915582  -0.00350131  1
  Cr  Cr7  1  0.16051895  0.82990042  0.16400830  1
  Fe  Fe8  1  -0.00423245  0.65919199  0.32993318  1
  Cr  Cr9  1  0.33318783  0.99201576  -0.00341570  1
  Cr  Cr10  1  0.49374127  0.16323069  0.16720860  1
  Fe  Fe11  1  0.32755539  -0.00471352  0.32871264  1
  Cr  Cr12  1  0.32723655  0.33350845  -0.00277469  1
  Fe  Fe13  1  0.49653685  0.49766723  0.16239750  1
  Cr  Cr14  1  0.32809832  0.33349668  0.32693284  1
  Cr  Cr15  1  0.33058670  0.66203827  -0.00237689  1
  Fe  Fe16  1  0.49782150  0.82846079  0.16392183  1
  Cr  Cr17  1  0.32800301  0.66359635  0.32576910  1
  Cr  Cr18  1  0.66281466  0.99382341  0.99307510  1
  Cr  Cr19  1  0.82787833  0.16066216  0.16145993  1
  Fe  Fe20  1  0.65901406  0.99249955  0.32802821  1
  Cr  Cr21  1  0.66090828  0.32525730  -0.00413071  1
  Cr  Cr22  1  0.82558051  0.49663489  0.16361768  1
  Fe  Fe23  1  0.66041225  0.33088972  0.32933293  1
  Fe  Fe24  1  0.66039289  0.66028400  -0.00396518  1
  Cr  Cr25  1  0.82791666  0.82427665  0.16176387  1
  Fe  Fe26  1  0.65946724  0.65948302  0.32890195  1
  Cr  Cr27  1  0.16396101  0.15999158  0.49603003  1
  Cr  Cr28  1  0.99117118  0.99465999  0.66237470  1
  Cr  Cr29  1  0.16306913  0.16186583  0.82866115  1
  Fe  Fe30  1  0.16338911  0.49500900  0.49357852  1
  Cr  Cr31  1  0.99418114  0.32879229  0.66144992  1
  Fe  Fe32  1  0.16258614  0.49571498  0.82719582  1
  Fe  Fe33  1  0.16285750  0.82868114  0.49306015  1
  Cr  Cr34  1  -0.00153942  0.65983329  0.65508049  1
  Cr  Cr35  1  0.16134056  0.82960825  0.82719992  1
  Cr  Cr36  1  0.49090546  0.16379543  0.49340909  1
  Fe  Fe37  1  0.32642285  0.99414248  0.66098170  1
  Cr  Cr38  1  0.49027502  0.16353703  0.82407381  1
  Fe  Fe39  1  0.49576504  0.49684122  0.49453001  1
  Fe  Fe40  1  0.32659562  0.33120040  0.65946949  1
  Cr  Cr41  1  0.49673672  0.49571910  0.82715439  1
  Cr  Cr42  1  0.49470922  0.82931843  0.49592590  1
  Cr  Cr43  1  0.32926569  0.66159933  0.66126735  1
  Fe  Fe44  1  0.49528523  0.82704643  0.82729207  1
  Cr  Cr45  1  0.82594825  0.16046451  0.49245862  1
  Cr  Cr46  1  0.66042548  0.99377210  0.66406540  1
  Fe  Fe47  1  0.82743387  0.16109899  0.82851761  1
  Fe  Fe48  1  0.82592302  0.49340649  0.49235883  1
  Cr  Cr49  1  0.66214312  0.32649884  0.65852515  1
  Cr  Cr50  1  0.82692243  0.49694322  0.82710246  1
  Cr  Cr51  1  0.82843820  0.82215387  0.49204537  1
  Fe  Fe52  1  0.66305244  0.66035787  0.65979473  1
  Cr  Cr53  1  0.82844363  0.82283290  0.83035340  1
" 