2296,Fe63Cr37_0,-213.003572337689, 194.073515221674,Fe63Cr37,"# generated using pymatgen
 data_Cr17Fe10
_symmetry_space_group_name_H-M   'P 1'
_cell_length_a   7.55406728
_cell_length_b   7.55406728
_cell_length_c   10.68306439
_cell_angle_alpha   90.00000000
_cell_angle_beta   90.00000000
_cell_angle_gamma   90.00000000
_symmetry_Int_Tables_number   1
_chemical_formula_structural   Cr17Fe10
_chemical_formula_sum   'Cr34 Fe20'
_cell_volume   609.61766430
_cell_formula_units_Z   2
loop_
 _symmetry_equiv_pos_site_id
 _symmetry_equiv_pos_as_xyz
  1  'x, y, z'
loop_
 _atom_site_type_symbol
 _atom_site_label
 _atom_site_symmetry_multiplicity
 _atom_site_fract_x
 _atom_site_fract_y
 _atom_site_fract_z
 _atom_site_occupancy
  Cr  Cr0  1  0.99323574  0.99225338  0.99151323  1
  Cr  Cr1  1  0.15822652  0.15911930  0.15977992  1
  Cr  Cr2  1  0.99146808  0.98906986  0.32760435  1
  Cr  Cr3  1  -0.00369998  0.32940502  0.99170996  1
  Fe  Fe4  1  0.16089895  0.49399807  0.16105932  1
  Fe  Fe5  1  -0.00458696  0.32811948  0.32711080  1
  Cr  Cr6  1  0.99266574  0.66144296  -0.00329710  1
  Cr  Cr7  1  0.16383654  0.82837833  0.15987950  1
  Cr  Cr8  1  0.99316751  0.66182505  0.32569242  1
  Fe  Fe9  1  0.32713472  -0.00572857  0.99287403  1
  Fe  Fe10  1  0.49470532  0.15978508  0.15979301  1
  Cr  Cr11  1  0.33028018  -0.00235376  0.32777143  1
  Cr  Cr12  1  0.32648033  0.32701751  -0.00384232  1
  Cr  Cr13  1  0.49575883  0.49706933  0.15883156  1
  Cr  Cr14  1  0.32750811  0.32639188  0.32727070  1
  Fe  Fe15  1  0.32667850  0.66111607  0.99269064  1
  Cr  Cr16  1  0.49294449  0.82687269  0.15601006  1
  Cr  Cr17  1  0.32516518  0.65889574  0.32814112  1
  Cr  Cr18  1  0.66173103  0.99185458  -0.00539903  1
  Cr  Cr19  1  0.82777922  0.16195030  0.16241367  1
  Fe  Fe20  1  0.65991127  0.99314910  0.32751498  1
  Cr  Cr21  1  0.66064204  0.32738938  0.99183486  1
  Cr  Cr22  1  0.82647667  0.49142851  0.16111613  1
  Cr  Cr23  1  0.65609344  0.32483049  0.32896486  1
  Fe  Fe24  1  0.66253125  0.66172740  0.99241887  1
  Fe  Fe25  1  0.82612343  0.82806636  0.16007219  1
  Cr  Cr26  1  0.66462695  0.66469070  0.32756954  1
  Cr  Cr27  1  0.15592768  0.15954974  0.49578658  1
  Fe  Fe28  1  0.99231924  0.99419772  0.66302790  1
  Fe  Fe29  1  0.15971790  0.16197825  0.82664847  1
  Cr  Cr30  1  0.15870625  0.49520540  0.49495330  1
  Fe  Fe31  1  0.99361958  0.32749523  0.66427830  1
  Fe  Fe32  1  0.16057431  0.49498672  0.82605839  1
  Cr  Cr33  1  0.16060250  0.82790615  0.49726407  1
  Fe  Fe34  1  -0.00551014  0.66089113  0.66272795  1
  Cr  Cr35  1  0.16413290  0.82877180  0.82603956  1
  Fe  Fe36  1  0.49443764  0.16035720  0.49463465  1
  Cr  Cr37  1  0.32791544  -0.00333078  0.66153465  1
  Cr  Cr38  1  0.49474230  0.15930955  0.82946777  1
  Cr  Cr39  1  0.49555713  0.49642932  0.49601402  1
  Cr  Cr40  1  0.32654264  0.32770237  0.65965938  1
  Cr  Cr41  1  0.49554249  0.49956725  0.82833831  1
  Cr  Cr42  1  0.49281898  0.82668428  0.49576941  1
  Fe  Fe43  1  0.32731602  0.66071639  0.66245703  1
  Fe  Fe44  1  0.49470218  0.82754800  0.82863214  1
  Cr  Cr45  1  0.82865637  0.16124434  0.49372037  1
  Cr  Cr46  1  0.66281385  0.99330092  0.65876729  1
  Fe  Fe47  1  0.82994680  0.16039182  0.82617842  1
  Cr  Cr48  1  0.82838211  0.49142322  0.49501165  1
  Cr  Cr49  1  0.65988681  0.32674363  0.66259746  1
  Fe  Fe50  1  0.83025179  0.49518451  0.82701013  1
  Fe  Fe51  1  0.82905797  0.82733924  0.49534852  1
  Cr  Cr52  1  0.66519270  0.66279039  0.66270418  1
  Fe  Fe53  1  0.82733484  0.82682338  0.82724275  1
" 