397,Fe63Cr37_10,-213.039634728992, 193.895471978894,Fe63Cr37,"# generated using pymatgen
 data_Cr17Fe10
_symmetry_space_group_name_H-M   'P 1'
_cell_length_a   7.55515823
_cell_length_b   7.55515823
_cell_length_c   10.68460724
_cell_angle_alpha   90.00000000
_cell_angle_beta   90.00000000
_cell_angle_gamma   90.00000000
_symmetry_Int_Tables_number   1
_chemical_formula_structural   Cr17Fe10
_chemical_formula_sum   'Cr34 Fe20'
_cell_volume   609.88182511
_cell_formula_units_Z   2
loop_
 _symmetry_equiv_pos_site_id
 _symmetry_equiv_pos_as_xyz
  1  'x, y, z'
loop_
 _atom_site_type_symbol
 _atom_site_label
 _atom_site_symmetry_multiplicity
 _atom_site_fract_x
 _atom_site_fract_y
 _atom_site_fract_z
 _atom_site_occupancy
  Cr  Cr0  1  0.99233037  -0.00538543  -0.00273909  1
  Cr  Cr1  1  0.16381392  0.16009911  0.16115696  1
  Cr  Cr2  1  0.99081061  -0.00492693  0.32430206  1
  Fe  Fe3  1  0.99327224  0.32773394  -0.00516750  1
  Cr  Cr4  1  0.16062450  0.49487906  0.16257506  1
  Cr  Cr5  1  -0.00437008  0.32711897  0.32862848  1
  Fe  Fe6  1  0.99392542  0.66157290  -0.00519982  1
  Cr  Cr7  1  0.16135572  0.82765965  0.15958336  1
  Cr  Cr8  1  -0.00392830  0.66027507  0.32954424  1
  Fe  Fe9  1  0.32875685  0.99263018  0.99371528  1
  Cr  Cr10  1  0.49220000  0.16057531  0.16199858  1
  Fe  Fe11  1  0.32805997  0.99189882  0.32749037  1
  Cr  Cr12  1  0.32770998  0.33124712  0.99320409  1
  Cr  Cr13  1  0.49631040  0.49519788  0.16092796  1
  Fe  Fe14  1  0.32720962  0.32851468  0.32773908  1
  Cr  Cr15  1  0.32937787  0.66162284  0.99184258  1
  Fe  Fe16  1  0.49400715  0.82600201  0.16128076  1
  Fe  Fe17  1  0.32936851  0.66213047  0.32781059  1
  Cr  Cr18  1  0.66172596  0.99289845  -0.00303563  1
  Fe  Fe19  1  0.82715640  0.16297761  0.15984129  1
  Cr  Cr20  1  0.66136852  0.99085616  0.32605512  1
  Fe  Fe21  1  0.66092272  0.32786342  0.99412602  1
  Cr  Cr22  1  0.82614535  0.49758896  0.15720201  1
  Cr  Cr23  1  0.66218372  0.32632342  0.32799219  1
  Fe  Fe24  1  0.66010855  0.66180953  0.99374182  1
  Fe  Fe25  1  0.82579238  0.82545932  0.16052372  1
  Fe  Fe26  1  0.66069568  0.66164632  0.32712773  1
  Cr  Cr27  1  0.16505874  0.15906909  0.49286441  1
  Cr  Cr28  1  0.99388267  0.99350180  0.66152437  1
  Cr  Cr29  1  0.16363002  0.15716907  0.82776731  1
  Fe  Fe30  1  0.16125178  0.49521602  0.49355067  1
  Cr  Cr31  1  -0.00487081  0.32904064  0.65736876  1
  Cr  Cr32  1  0.15708261  0.49676947  0.82828843  1
  Cr  Cr33  1  0.16168961  0.82738491  0.49653677  1
  Fe  Fe34  1  -0.00556224  0.65933416  0.66005310  1
  Fe  Fe35  1  0.16150863  0.82810963  0.82797575  1
  Cr  Cr36  1  0.49117815  0.15933925  0.49449621  1
  Fe  Fe37  1  0.32842006  0.99218164  0.66151187  1
  Cr  Cr38  1  0.49256211  0.16031773  0.82614944  1
  Cr  Cr39  1  0.49514985  0.49465494  0.49059221  1
  Cr  Cr40  1  0.32689937  0.33205887  0.66039516  1
  Fe  Fe41  1  0.49579801  0.49520884  0.82866478  1
  Fe  Fe42  1  0.49249619  0.82754248  0.49269803  1
  Cr  Cr43  1  0.32719606  0.66125694  0.66314637  1
  Fe  Fe44  1  0.49344899  0.82777292  0.82831182  1
  Cr  Cr45  1  0.82621348  0.16047041  0.49572704  1
  Cr  Cr46  1  0.65979495  0.99243931  0.65978078  1
  Cr  Cr47  1  0.82641189  0.16249376  0.82872558  1
  Fe  Fe48  1  0.82828824  0.49502091  0.49418397  1
  Cr  Cr49  1  0.66045779  0.32850863  0.66189171  1
  Cr  Cr50  1  0.82576367  0.49676558  0.82889939  1
  Cr  Cr51  1  0.82744426  0.82261268  0.49465668  1
  Cr  Cr52  1  0.65704992  0.66130138  0.65992820  1
  Cr  Cr53  1  0.82993952  0.82330761  0.82716140  1
" 