851,Fe63Cr37_18,-213.153544370693, 188.811148244435,Fe63Cr37,"# generated using pymatgen
 data_Cr17Fe10
_symmetry_space_group_name_H-M   'P 1'
_cell_length_a   7.55725128
_cell_length_b   7.55725128
_cell_length_c   10.68756726
_cell_angle_alpha   90.00000000
_cell_angle_beta   90.00000000
_cell_angle_gamma   90.00000000
_symmetry_Int_Tables_number   1
_chemical_formula_structural   Cr17Fe10
_chemical_formula_sum   'Cr34 Fe20'
_cell_volume   610.38884332
_cell_formula_units_Z   2
loop_
 _symmetry_equiv_pos_site_id
 _symmetry_equiv_pos_as_xyz
  1  'x, y, z'
loop_
 _atom_site_type_symbol
 _atom_site_label
 _atom_site_symmetry_multiplicity
 _atom_site_fract_x
 _atom_site_fract_y
 _atom_site_fract_z
 _atom_site_occupancy
  Cr  Cr0  1  -0.00471892  -0.00263364  0.99275395  1
  Cr  Cr1  1  0.16242581  0.16339546  0.15831305  1
  Cr  Cr2  1  -0.00502374  0.99382557  0.32754562  1
  Fe  Fe3  1  -0.00546118  0.32770866  0.99360909  1
  Fe  Fe4  1  0.16152399  0.49317465  0.16062639  1
  Cr  Cr5  1  -0.00558340  0.32763325  0.32725895  1
  Cr  Cr6  1  0.99287435  0.65842325  -0.00488584  1
  Cr  Cr7  1  0.16092537  0.82551814  0.16285435  1
  Fe  Fe8  1  -0.00469905  0.66024020  0.32779111  1
  Cr  Cr9  1  0.32602432  -0.00519164  0.99345142  1
  Cr  Cr10  1  0.49382431  0.16251305  0.16330024  1
  Fe  Fe11  1  0.32779272  -0.00474051  0.32862222  1
  Fe  Fe12  1  0.32685969  0.32768944  -0.00554632  1
  Fe  Fe13  1  0.49362948  0.49275918  0.16018382  1
  Fe  Fe14  1  0.32819207  0.32738457  0.32820018  1
  Cr  Cr15  1  0.33013506  0.65927729  -0.00415962  1
  Cr  Cr16  1  0.49415175  0.82757871  0.15952094  1
  Cr  Cr17  1  0.32653896  0.65918305  0.32723137  1
  Cr  Cr18  1  0.66079013  -0.00588691  0.99395273  1
  Cr  Cr19  1  0.82584043  0.16220942  0.16137986  1
  Fe  Fe20  1  0.65942171  -0.00471774  0.32769218  1
  Fe  Fe21  1  0.66069661  0.32907515  0.99395016  1
  Cr  Cr22  1  0.82789792  0.49350617  0.15900145  1
  Fe  Fe23  1  0.65862891  0.32696075  0.32787064  1
  Fe  Fe24  1  0.66071077  0.65914902  -0.00595724  1
  Cr  Cr25  1  0.82701973  0.82638022  0.16257331  1
  Cr  Cr26  1  0.65939049  0.65862151  0.32571571  1
  Fe  Fe27  1  0.16268109  0.16102776  0.49352305  1
  Cr  Cr28  1  -0.00457494  -0.00424288  0.66178770  1
  Fe  Fe29  1  0.16123001  0.16192022  0.82786885  1
  Fe  Fe30  1  0.16187042  0.49370608  0.49368450  1
  Cr  Cr31  1  -0.00507717  0.32617626  0.66256506  1
  Cr  Cr32  1  0.16016148  0.49082553  0.82769595  1
  Fe  Fe33  1  0.16054602  0.82735831  0.49316427  1
  Cr  Cr34  1  -0.00572419  0.66016064  0.65842405  1
  Cr  Cr35  1  0.16104759  0.82779063  0.82665451  1
  Fe  Fe36  1  0.49338670  0.16152204  0.49319741  1
  Cr  Cr37  1  0.32651928  -0.00445640  0.66076980  1
  Cr  Cr38  1  0.49255090  0.16140815  0.82616011  1
  Fe  Fe39  1  0.49295828  0.49196326  0.49369112  1
  Fe  Fe40  1  0.32684526  0.32703599  0.65944088  1
  Cr  Cr41  1  0.49410463  0.49322040  0.82851912  1
  Cr  Cr42  1  0.49354661  0.83006271  0.49512898  1
  Cr  Cr43  1  0.32821256  0.65983706  0.65902609  1
  Cr  Cr44  1  0.49527986  0.82746776  0.82745178  1
  Cr  Cr45  1  0.82460063  0.16010616  0.49256614  1
  Fe  Fe46  1  0.66036835  -0.00560497  0.66035473  1
  Cr  Cr47  1  0.82815795  0.16229962  0.82815337  1
  Cr  Cr48  1  0.82902286  0.49427352  0.49424530  1
  Cr  Cr49  1  0.65982470  0.32787171  0.65924191  1
  Fe  Fe50  1  0.82684648  0.49366771  0.82864026  1
  Cr  Cr51  1  0.82814686  0.82771196  0.49340517  1
  Cr  Cr52  1  0.65961389  0.65933355  0.66339796  1
  Cr  Cr53  1  0.82577244  0.82624780  0.82611909  1
" 