1688,Fe63Cr37_15,-212.85164048612, 192.029290163335,Fe63Cr37,"# generated using pymatgen
 data_Cr17Fe10
_symmetry_space_group_name_H-M   'P 1'
_cell_length_a   7.55489423
_cell_length_b   7.55489423
_cell_length_c   10.68423388
_cell_angle_alpha   90.00000000
_cell_angle_beta   90.00000000
_cell_angle_gamma   90.00000000
_symmetry_Int_Tables_number   1
_chemical_formula_structural   Cr17Fe10
_chemical_formula_sum   'Cr34 Fe20'
_cell_volume   609.81789314
_cell_formula_units_Z   2
loop_
 _symmetry_equiv_pos_site_id
 _symmetry_equiv_pos_as_xyz
  1  'x, y, z'
loop_
 _atom_site_type_symbol
 _atom_site_label
 _atom_site_symmetry_multiplicity
 _atom_site_fract_x
 _atom_site_fract_y
 _atom_site_fract_z
 _atom_site_occupancy
  Cr  Cr0  1  0.99295481  -0.00272950  -0.00497528  1
  Cr  Cr1  1  0.16277508  0.16079829  0.16261098  1
  Cr  Cr2  1  0.99381770  -0.00358650  0.33086919  1
  Cr  Cr3  1  0.99291126  0.32545353  0.99174119  1
  Cr  Cr4  1  0.16068210  0.49491307  0.15989120  1
  Cr  Cr5  1  0.99382517  0.32414009  0.32908139  1
  Fe  Fe6  1  -0.00552668  0.66084785  0.99405266  1
  Cr  Cr7  1  0.15966692  0.82684904  0.15997952  1
  Cr  Cr8  1  0.99415749  0.66206981  0.32827841  1
  Cr  Cr9  1  0.32922644  0.99368488  0.99239051  1
  Cr  Cr10  1  0.49650830  0.16192799  0.16192744  1
  Cr  Cr11  1  0.32580133  0.99405867  0.32776407  1
  Cr  Cr12  1  0.32788857  0.32772867  -0.00557645  1
  Fe  Fe13  1  0.49474119  0.49348961  0.16134545  1
  Fe  Fe14  1  0.32828895  0.32760778  0.32734871  1
  Cr  Cr15  1  0.32995213  0.66108842  -0.00402248  1
  Fe  Fe16  1  0.49470002  0.82743203  0.16059377  1
  Cr  Cr17  1  0.32996555  0.65968762  0.32519793  1
  Fe  Fe18  1  0.66011513  -0.00406606  0.99368378  1
  Fe  Fe19  1  0.82657145  0.16142584  0.16044302  1
  Cr  Cr20  1  0.66303396  -0.00550418  0.32756167  1
  Fe  Fe21  1  0.66055147  0.32544717  0.99388162  1
  Cr  Cr22  1  0.82670929  0.49360101  0.15913379  1
  Fe  Fe23  1  0.66064413  0.32706401  0.32714065  1
  Cr  Cr24  1  0.65817175  0.66111343  -0.00555604  1
  Cr  Cr25  1  0.82783010  0.82813378  0.15932341  1
  Cr  Cr26  1  0.65850211  0.65975330  0.32860881  1
  Fe  Fe27  1  0.16142015  0.16124714  0.49508504  1
  Cr  Cr28  1  -0.00444936  -0.00194352  0.65686241  1
  Fe  Fe29  1  0.16126409  0.16129972  0.82605087  1
  Cr  Cr30  1  0.16131194  0.49324241  0.49605469  1
  Fe  Fe31  1  -0.00514418  0.32562762  0.66089574  1
  Cr  Cr32  1  0.15955034  0.49386295  0.82650894  1
  Fe  Fe33  1  0.16135757  0.82812052  0.49504320  1
  Cr  Cr34  1  -0.00558696  0.66081195  0.65927884  1
  Cr  Cr35  1  0.16151471  0.82761049  0.82779372  1
  Cr  Cr36  1  0.49277588  0.16159023  0.49356273  1
  Fe  Fe37  1  0.32716252  -0.00528182  0.66148169  1
  Fe  Fe38  1  0.49416268  0.15980767  0.82749392  1
  Cr  Cr39  1  0.49340269  0.49122991  0.49281296  1
  Fe  Fe40  1  0.32608878  0.32578835  0.66142147  1
  Cr  Cr41  1  0.49375269  0.49177720  0.82527866  1
  Cr  Cr42  1  0.49341556  0.82962048  0.49658649  1
  Fe  Fe43  1  0.32753776  0.66188968  0.66085619  1
  Fe  Fe44  1  0.49369792  0.82843850  0.82684508  1
  Fe  Fe45  1  0.82771462  0.16121260  0.49443071  1
  Cr  Cr46  1  0.66085527  0.99394987  0.66261381  1
  Fe  Fe47  1  0.82714471  0.16117431  0.82778891  1
  Cr  Cr48  1  0.82783333  0.49404142  0.49504841  1
  Cr  Cr49  1  0.66198508  0.32702016  0.66195727  1
  Cr  Cr50  1  0.82913850  0.49365450  0.82829500  1
  Fe  Fe51  1  0.82811174  0.82840703  0.49427511  1
  Cr  Cr52  1  0.65841966  0.66150543  0.65941929  1
  Cr  Cr53  1  0.82714666  0.82791561  0.82958998  1
" 