5037,Fe63Cr37_12,-212.808240853986, 193.122871794224,Fe63Cr37,"# generated using pymatgen
 data_Cr17Fe10
_symmetry_space_group_name_H-M   'P 1'
_cell_length_a   7.54485244
_cell_length_b   7.54485244
_cell_length_c   10.67003264
_cell_angle_alpha   90.00000000
_cell_angle_beta   90.00000000
_cell_angle_gamma   90.00000000
_symmetry_Int_Tables_number   1
_chemical_formula_structural   Cr17Fe10
_chemical_formula_sum   'Cr34 Fe20'
_cell_volume   607.38945618
_cell_formula_units_Z   2
loop_
 _symmetry_equiv_pos_site_id
 _symmetry_equiv_pos_as_xyz
  1  'x, y, z'
loop_
 _atom_site_type_symbol
 _atom_site_label
 _atom_site_symmetry_multiplicity
 _atom_site_fract_x
 _atom_site_fract_y
 _atom_site_fract_z
 _atom_site_occupancy
  Cr  Cr0  1  -0.00445829  0.99322786  0.99370923  1
  Cr  Cr1  1  0.16039070  0.16076135  0.16058929  1
  Fe  Fe2  1  -0.00486587  -0.00507712  0.32918002  1
  Cr  Cr3  1  -0.00338825  0.33095733  0.99362174  1
  Fe  Fe4  1  0.16271250  0.49507184  0.16095693  1
  Cr  Cr5  1  -0.00258971  0.32891965  0.33066031  1
  Fe  Fe6  1  0.99483663  0.66178049  0.99386633  1
  Cr  Cr7  1  0.16237902  0.82639240  0.16146592  1
  Cr  Cr8  1  0.99421695  0.66066653  0.32728383  1
  Cr  Cr9  1  0.32831999  -0.00335132  0.99344428  1
  Cr  Cr10  1  0.49671590  0.16425398  0.15914908  1
  Cr  Cr11  1  0.32904721  -0.00405468  0.32844591  1
  Fe  Fe12  1  0.32872078  0.32869836  -0.00469647  1
  Fe  Fe13  1  0.49436704  0.49538038  0.16203803  1
  Cr  Cr14  1  0.32724292  0.32954123  0.32813292  1
  Cr  Cr15  1  0.32747109  0.66007259  -0.00221747  1
  Fe  Fe16  1  0.49503661  0.82642427  0.16250283  1
  Fe  Fe17  1  0.32908426  0.66054915  0.32700740  1
  Cr  Cr18  1  0.66066195  0.99343576  0.99392858  1
  Cr  Cr19  1  0.82745966  0.16264451  0.16282490  1
  Cr  Cr20  1  0.66151772  0.99269544  0.32947593  1
  Fe  Fe21  1  0.66049061  0.32909803  0.99470201  1
  Cr  Cr22  1  0.82615451  0.49326525  0.16015001  1
  Fe  Fe23  1  0.66048356  0.32916878  0.32830807  1
  Cr  Cr24  1  0.66372639  0.66103093  0.99465519  1
  Cr  Cr25  1  0.82961578  0.82860750  0.16363172  1
  Fe  Fe26  1  0.65993744  0.66075589  0.32768047  1
  Fe  Fe27  1  0.16164218  0.16247718  0.49471943  1
  Cr  Cr28  1  -0.00452868  -0.00515498  0.66149146  1
  Fe  Fe29  1  0.16172304  0.16165382  0.82828878  1
  Fe  Fe30  1  0.16190607  0.49456417  0.49552508  1
  Fe  Fe31  1  -0.00436484  0.32794304  0.66150521  1
  Cr  Cr32  1  0.16053203  0.49664240  0.82725843  1
  Cr  Cr33  1  0.16231511  0.82734171  0.49445826  1
  Cr  Cr34  1  0.99338003  0.65984717  0.66451941  1
  Fe  Fe35  1  0.16066964  0.82826980  0.82820520  1
  Fe  Fe36  1  0.49442604  0.16201683  0.49434384  1
  Cr  Cr37  1  0.32808915  -0.00291871  0.66250172  1
  Cr  Cr38  1  0.49510784  0.16273899  0.82943664  1
  Cr  Cr39  1  0.49369677  0.49608320  0.49426378  1
  Cr  Cr40  1  0.32499470  0.32681689  0.65939229  1
  Cr  Cr41  1  0.49534826  0.49444073  0.82843759  1
  Cr  Cr42  1  0.49311194  0.82613351  0.49472432  1
  Fe  Fe43  1  0.32726073  0.66158205  0.66159325  1
  Cr  Cr44  1  0.49217710  0.82734098  0.82634903  1
  Cr  Cr45  1  0.82925071  0.16181365  0.49223822  1
  Cr  Cr46  1  0.66097311  0.99275884  0.66109720  1
  Cr  Cr47  1  0.82876503  0.16354915  0.82950658  1
  Cr  Cr48  1  0.82802502  0.49308015  0.49589306  1
  Cr  Cr49  1  0.66172108  0.32883774  0.66158634  1
  Fe  Fe50  1  0.82838400  0.49528846  0.82873447  1
  Fe  Fe51  1  0.82819093  0.82790160  0.49375549  1
  Cr  Cr52  1  0.66395385  0.66293333  0.66243273  1
  Fe  Fe53  1  0.82952978  0.82666967  0.82881291  1
" 