3974,Fe63Cr37_3,-213.017050948734, 189.110073448902,Fe63Cr37,"# generated using pymatgen
 data_Cr17Fe10
_symmetry_space_group_name_H-M   'P 1'
_cell_length_a   7.55785959
_cell_length_b   7.55785959
_cell_length_c   10.68842753
_cell_angle_alpha   90.00000000
_cell_angle_beta   90.00000000
_cell_angle_gamma   90.00000000
_symmetry_Int_Tables_number   1
_chemical_formula_structural   Cr17Fe10
_chemical_formula_sum   'Cr34 Fe20'
_cell_volume   610.53625052
_cell_formula_units_Z   2
loop_
 _symmetry_equiv_pos_site_id
 _symmetry_equiv_pos_as_xyz
  1  'x, y, z'
loop_
 _atom_site_type_symbol
 _atom_site_label
 _atom_site_symmetry_multiplicity
 _atom_site_fract_x
 _atom_site_fract_y
 _atom_site_fract_z
 _atom_site_occupancy
  Fe  Fe0  1  0.99337802  -0.00496255  0.99394618  1
  Cr  Cr1  1  0.15929872  0.16322662  0.16050024  1
  Cr  Cr2  1  -0.00402088  -0.00455618  0.33023606  1
  Fe  Fe3  1  -0.00555484  0.32674681  0.99393342  1
  Cr  Cr4  1  0.15925030  0.49513953  0.15987302  1
  Fe  Fe5  1  0.99368612  0.32976562  0.32906540  1
  Fe  Fe6  1  0.99292177  0.65980047  -0.00535673  1
  Cr  Cr7  1  0.15813328  0.82419062  0.16030571  1
  Fe  Fe8  1  -0.00594029  0.65951121  0.33054010  1
  Cr  Cr9  1  0.32494050  -0.00527654  -0.00504888  1
  Cr  Cr10  1  0.49493955  0.16360260  0.16536093  1
  Cr  Cr11  1  0.32450036  -0.00559305  0.32537463  1
  Cr  Cr12  1  0.32680897  0.32580545  0.99207882  1
  Fe  Fe13  1  0.49319064  0.49328793  0.16177958  1
  Fe  Fe14  1  0.32573514  0.32952873  0.32839022  1
  Cr  Cr15  1  0.32963653  0.66115750  0.99319190  1
  Cr  Cr16  1  0.49395924  0.82741603  0.15929170  1
  Cr  Cr17  1  0.32760932  0.66091198  0.32821355  1
  Cr  Cr18  1  0.65945693  0.99385485  0.99347300  1
  Cr  Cr19  1  0.82737861  0.16200192  0.16109676  1
  Cr  Cr20  1  0.66164858  0.99258786  0.32695624  1
  Cr  Cr21  1  0.66273333  0.32932222  -0.00316064  1
  Fe  Fe22  1  0.82939822  0.49384422  0.16180842  1
  Fe  Fe23  1  0.66209152  0.32901482  0.32816027  1
  Cr  Cr24  1  0.66133089  0.65912575  0.99372084  1
  Cr  Cr25  1  0.82990890  0.82638748  0.16065843  1
  Cr  Cr26  1  0.66194037  0.65702725  0.32689931  1
  Fe  Fe27  1  0.16118036  0.16241927  0.49392916  1
  Fe  Fe28  1  0.99391117  0.99265296  0.65874588  1
  Fe  Fe29  1  0.15901526  0.15980354  0.82779325  1
  Fe  Fe30  1  0.16142048  0.49159426  0.49264840  1
  Cr  Cr31  1  -0.00400235  0.32477187  0.66145518  1
  Cr  Cr32  1  0.16020981  0.49378191  0.82769187  1
  Fe  Fe33  1  0.16029988  0.82782239  0.49383655  1
  Cr  Cr34  1  0.99341405  0.65893855  0.65520783  1
  Cr  Cr35  1  0.15796955  0.82503703  0.82976706  1
  Cr  Cr36  1  0.49362212  0.16299656  0.49260311  1
  Cr  Cr37  1  0.32314419  -0.00472463  0.66213278  1
  Cr  Cr38  1  0.49513232  0.16059886  0.82375671  1
  Fe  Fe39  1  0.49363457  0.49358761  0.49396079  1
  Fe  Fe40  1  0.32620129  0.32793299  0.65873598  1
  Cr  Cr41  1  0.49213758  0.49284438  0.82484412  1
  Cr  Cr42  1  0.49474411  0.82886360  0.49606148  1
  Cr  Cr43  1  0.32710195  0.66110901  0.66044842  1
  Fe  Fe44  1  0.49413594  0.82809219  0.82634792  1
  Cr  Cr45  1  0.82605245  0.15950935  0.49481742  1
  Fe  Fe46  1  0.66122107  0.99374496  0.65983734  1
  Cr  Cr47  1  0.82775568  0.15919637  0.82762547  1
  Fe  Fe48  1  0.82771064  0.49261887  0.49237171  1
  Cr  Cr49  1  0.66331723  0.32996553  0.66016656  1
  Cr  Cr50  1  0.83053891  0.49420487  0.82978650  1
  Fe  Fe51  1  0.82767700  0.82656732  0.49361089  1
  Cr  Cr52  1  0.66145095  0.66022794  0.66093882  1
  Cr  Cr53  1  0.82822366  0.82855296  0.82516997  1
" 