7959,Fe63Cr37_2,-213.027432504317, 191.623255553885,Fe63Cr37,"# generated using pymatgen
 data_Cr17Fe10
_symmetry_space_group_name_H-M   'P 1'
_cell_length_a   7.55559491
_cell_length_b   7.55559491
_cell_length_c   10.68522480
_cell_angle_alpha   90.00000000
_cell_angle_beta   90.00000000
_cell_angle_gamma   90.00000000
_symmetry_Int_Tables_number   1
_chemical_formula_structural   Cr17Fe10
_chemical_formula_sum   'Cr34 Fe20'
_cell_volume   609.98758327
_cell_formula_units_Z   2
loop_
 _symmetry_equiv_pos_site_id
 _symmetry_equiv_pos_as_xyz
  1  'x, y, z'
loop_
 _atom_site_type_symbol
 _atom_site_label
 _atom_site_symmetry_multiplicity
 _atom_site_fract_x
 _atom_site_fract_y
 _atom_site_fract_z
 _atom_site_occupancy
  Cr  Cr0  1  -0.00473878  0.99279571  -0.00400709  1
  Fe  Fe1  1  0.16013362  0.16217108  0.16121470  1
  Cr  Cr2  1  0.99372159  0.99298401  0.32401472  1
  Cr  Cr3  1  -0.00515986  0.32805651  0.99316429  1
  Fe  Fe4  1  0.15960098  0.49531969  0.16256540  1
  Fe  Fe5  1  -0.00573782  0.32779154  0.32653462  1
  Cr  Cr6  1  -0.00315346  0.66142146  0.99306707  1
  Fe  Fe7  1  0.15974861  0.82489570  0.16221587  1
  Fe  Fe8  1  0.99390196  0.66071327  0.32725452  1
  Cr  Cr9  1  0.32406589  0.99355248  -0.00401658  1
  Cr  Cr10  1  0.49484024  0.16099539  0.15856174  1
  Cr  Cr11  1  0.32642240  -0.00537083  0.32726202  1
  Cr  Cr12  1  0.32772581  0.32994111  -0.00457041  1
  Cr  Cr13  1  0.49474372  0.49612400  0.15948438  1
  Cr  Cr14  1  0.32533599  0.32880258  0.32472685  1
  Cr  Cr15  1  0.32455139  0.65882447  0.99279969  1
  Cr  Cr16  1  0.49412792  0.82544400  0.16227081  1
  Fe  Fe17  1  0.32636942  0.66169696  0.32704142  1
  Cr  Cr18  1  0.66300558  -0.00442865  -0.00499540  1
  Cr  Cr19  1  0.82858245  0.16213738  0.15779432  1
  Cr  Cr20  1  0.66237263  0.99207188  0.33020532  1
  Fe  Fe21  1  0.66204697  0.32900855  0.99209175  1
  Cr  Cr22  1  0.82922401  0.49592748  0.16289210  1
  Cr  Cr23  1  0.66067354  0.32803452  0.32771101  1
  Cr  Cr24  1  0.66100782  0.65808768  0.99188779  1
  Fe  Fe25  1  0.82751142  0.82515582  0.16138556  1
  Fe  Fe26  1  0.66220867  0.66203611  0.32879070  1
  Cr  Cr27  1  0.16005387  0.16236924  0.49664423  1
  Cr  Cr28  1  0.99350470  0.99343250  0.66258321  1
  Cr  Cr29  1  0.16026245  0.16099796  0.82293838  1
  Cr  Cr30  1  0.15754376  0.49333740  0.49283433  1
  Fe  Fe31  1  0.99339190  0.32989005  0.66230137  1
  Fe  Fe32  1  0.16080568  0.49310652  0.82654257  1
  Cr  Cr33  1  0.16172262  0.82681333  0.49652321  1
  Cr  Cr34  1  0.99374669  0.65901039  0.66349343  1
  Fe  Fe35  1  0.16146487  0.82791905  0.82702272  1
  Cr  Cr36  1  0.49162422  0.15976336  0.49645739  1
  Fe  Fe37  1  0.32796032  0.99332149  0.66095939  1
  Cr  Cr38  1  0.49420240  0.16146162  0.82829146  1
  Cr  Cr39  1  0.49388189  0.49678459  0.49240252  1
  Fe  Fe40  1  0.32694351  0.32894870  0.66148560  1
  Fe  Fe41  1  0.49410094  0.49305639  0.82744380  1
  Fe  Fe42  1  0.49342738  0.82627503  0.49354106  1
  Cr  Cr43  1  0.32696243  0.65879667  0.66381158  1
  Cr  Cr44  1  0.49276964  0.82757031  0.82616932  1
  Cr  Cr45  1  0.83066538  0.16354843  0.49567954  1
  Cr  Cr46  1  0.66156782  0.99342172  0.65721267  1
  Fe  Fe47  1  0.82756863  0.16227695  0.82759829  1
  Fe  Fe48  1  0.82903841  0.49526592  0.49273713  1
  Cr  Cr49  1  0.66137734  0.32909284  0.66367335  1
  Fe  Fe50  1  0.82763463  0.49161489  0.82767168  1
  Fe  Fe51  1  0.82823383  0.82465320  0.49308995  1
  Cr  Cr52  1  0.66170545  0.65976165  0.65771048  1
  Cr  Cr53  1  0.82828177  0.82689515  0.82940942  1
" 