7308,Fe63Cr37_4,-213.023952754313, 188.953815013888,Fe63Cr37,"# generated using pymatgen
 data_Cr17Fe10
_symmetry_space_group_name_H-M   'P 1'
_cell_length_a   7.55775382
_cell_length_b   7.55775382
_cell_length_c   10.68827796
_cell_angle_alpha   90.00000000
_cell_angle_beta   90.00000000
_cell_angle_gamma   90.00000000
_symmetry_Int_Tables_number   1
_chemical_formula_structural   Cr17Fe10
_chemical_formula_sum   'Cr34 Fe20'
_cell_volume   610.51061933
_cell_formula_units_Z   2
loop_
 _symmetry_equiv_pos_site_id
 _symmetry_equiv_pos_as_xyz
  1  'x, y, z'
loop_
 _atom_site_type_symbol
 _atom_site_label
 _atom_site_symmetry_multiplicity
 _atom_site_fract_x
 _atom_site_fract_y
 _atom_site_fract_z
 _atom_site_occupancy
  Cr  Cr0  1  -0.00433583  -0.00580875  0.99166129  1
  Cr  Cr1  1  0.16268555  0.16310467  0.16506764  1
  Cr  Cr2  1  -0.00425461  -0.00235971  0.33172441  1
  Cr  Cr3  1  -0.00459489  0.32936801  -0.00434401  1
  Fe  Fe4  1  0.15982055  0.49327607  0.16199592  1
  Fe  Fe5  1  -0.00534382  0.32830310  0.32812234  1
  Fe  Fe6  1  -0.00470776  0.66017291  -0.00479872  1
  Cr  Cr7  1  0.16103286  0.82868138  0.16192809  1
  Cr  Cr8  1  -0.00455989  0.66032626  0.32611027  1
  Cr  Cr9  1  0.32591933  0.99203194  -0.00566320  1
  Cr  Cr10  1  0.49220574  0.16046269  0.15885921  1
  Fe  Fe11  1  0.32848729  -0.00522934  0.32864347  1
  Cr  Cr12  1  0.32590179  0.33112080  0.99352774  1
  Fe  Fe13  1  0.49261565  0.49102399  0.16130861  1
  Fe  Fe14  1  0.32799473  0.32669688  0.32871017  1
  Cr  Cr15  1  0.32576793  0.65931128  -0.00458087  1
  Fe  Fe16  1  0.49307202  0.82877603  0.16181814  1
  Cr  Cr17  1  0.32885674  0.65868045  0.32452084  1
  Cr  Cr18  1  0.66081714  0.99301692  0.99375557  1
  Cr  Cr19  1  0.82788719  0.16216005  0.15958671  1
  Cr  Cr20  1  0.66137676  -0.00521492  0.32842520  1
  Fe  Fe21  1  0.65944766  0.32932250  -0.00497997  1
  Fe  Fe22  1  0.82834544  0.49248852  0.16135359  1
  Cr  Cr23  1  0.66040766  0.32778699  0.32878473  1
  Cr  Cr24  1  0.65731766  0.65847041  -0.00066633  1
  Cr  Cr25  1  0.82774993  0.82568560  0.16058416  1
  Cr  Cr26  1  0.65752842  0.65910249  0.32526392  1
  Fe  Fe27  1  0.16436317  0.15989658  0.49377183  1
  Cr  Cr28  1  -0.00337172  0.99353587  0.66006268  1
  Cr  Cr29  1  0.16387786  0.16186886  0.82687629  1
  Cr  Cr30  1  0.16171045  0.49213357  0.49411253  1
  Cr  Cr31  1  -0.00497497  0.32536496  0.65987446  1
  Fe  Fe32  1  0.16023749  0.49659128  0.82516046  1
  Fe  Fe33  1  0.16207972  0.82629066  0.49407011  1
  Fe  Fe34  1  -0.00441627  0.66002428  0.66037079  1
  Fe  Fe35  1  0.16122268  0.82455261  0.82577769  1
  Fe  Fe36  1  0.49129301  0.16237955  0.49387438  1
  Fe  Fe37  1  0.32771487  -0.00556244  0.65935911  1
  Cr  Cr38  1  0.49269756  0.16144819  0.82809533  1
  Fe  Fe39  1  0.49159043  0.49285721  0.49392368  1
  Fe  Fe40  1  0.32749926  0.32632926  0.65879711  1
  Cr  Cr41  1  0.49211518  0.49332268  0.82366735  1
  Cr  Cr42  1  0.49175391  0.82876515  0.49227382  1
  Fe  Fe43  1  0.32360044  0.66172741  0.65956819  1
  Cr  Cr44  1  0.49263848  0.82742650  0.82692785  1
  Fe  Fe45  1  0.82828809  0.16170399  0.49388606  1
  Cr  Cr46  1  0.66207327  -0.00408699  0.65970301  1
  Cr  Cr47  1  0.82602730  0.16226375  0.83006464  1
  Cr  Cr48  1  0.82837237  0.49463565  0.49293730  1
  Cr  Cr49  1  0.65997638  0.32680692  0.65941744  1
  Cr  Cr50  1  0.82833774  0.49619559  0.82866454  1
  Cr  Cr51  1  0.82833282  0.82542483  0.49432979  1
  Cr  Cr52  1  0.65681612  0.65975661  0.65673971  1
  Cr  Cr53  1  0.82865611  0.82354321  0.82692792  1
" 