7225,Fe63Cr37_6,-213.121594359558, 190.067438166666,Fe63Cr37,"# generated using pymatgen
 data_Cr17Fe10
_symmetry_space_group_name_H-M   'P 1'
_cell_length_a   7.56382190
_cell_length_b   7.56382190
_cell_length_c   10.69685951
_cell_angle_alpha   90.00000000
_cell_angle_beta   90.00000000
_cell_angle_gamma   90.00000000
_symmetry_Int_Tables_number   1
_chemical_formula_structural   Cr17Fe10
_chemical_formula_sum   'Cr34 Fe20'
_cell_volume   611.98232612
_cell_formula_units_Z   2
loop_
 _symmetry_equiv_pos_site_id
 _symmetry_equiv_pos_as_xyz
  1  'x, y, z'
loop_
 _atom_site_type_symbol
 _atom_site_label
 _atom_site_symmetry_multiplicity
 _atom_site_fract_x
 _atom_site_fract_y
 _atom_site_fract_z
 _atom_site_occupancy
  Fe  Fe0  1  0.99276216  0.99281008  0.99358414  1
  Cr  Cr1  1  0.15845844  0.15960681  0.16103561  1
  Fe  Fe2  1  0.99237508  -0.00600471  0.32655801  1
  Cr  Cr3  1  0.99163098  0.32751052  0.99294696  1
  Cr  Cr4  1  0.15964050  0.49309751  0.16065053  1
  Cr  Cr5  1  0.99280037  0.32708410  0.32829402  1
  Fe  Fe6  1  0.99275802  0.66106771  0.99358073  1
  Cr  Cr7  1  0.15564437  0.82810432  0.15908033  1
  Cr  Cr8  1  0.99228268  0.65895779  0.32634886  1
  Cr  Cr9  1  0.32611373  0.99295235  0.99265880  1
  Cr  Cr10  1  0.49399230  0.16194416  0.15966944  1
  Cr  Cr11  1  0.32812924  0.99359263  0.32725972  1
  Cr  Cr12  1  0.32589874  0.32580765  -0.00492180  1
  Cr  Cr13  1  0.49483561  0.49276799  0.15929944  1
  Cr  Cr14  1  0.32561956  0.32657208  0.32718232  1
  Cr  Cr15  1  0.32526553  0.66204839  0.99181868  1
  Cr  Cr16  1  0.49647896  0.82609629  0.16097702  1
  Cr  Cr17  1  0.32729228  0.66064458  0.33012256  1
  Cr  Cr18  1  0.66157665  0.99359866  -0.00500237  1
  Fe  Fe19  1  0.82776016  0.15947409  0.16029428  1
  Cr  Cr20  1  0.66071562  0.99308517  0.32654324  1
  Cr  Cr21  1  0.66328655  0.32665978  0.99252701  1
  Fe  Fe22  1  0.82736113  0.49398778  0.15989036  1
  Cr  Cr23  1  0.66239130  0.32625501  0.32807901  1
  Cr  Cr24  1  0.66328684  0.66054941  -0.00421922  1
  Fe  Fe25  1  0.82816276  0.82734583  0.15989071  1
  Cr  Cr26  1  0.66123408  0.66146885  0.32614049  1
  Cr  Cr27  1  0.15922056  0.16000416  0.49204549  1
  Fe  Fe28  1  0.99320268  -0.00600838  0.66066486  1
  Cr  Cr29  1  0.15868430  0.15778015  0.82772187  1
  Fe  Fe30  1  0.16054884  0.49406969  0.49403117  1
  Cr  Cr31  1  0.99076508  0.32715621  0.65957513  1
  Cr  Cr32  1  0.15983965  0.49539378  0.82762051  1
  Cr  Cr33  1  0.15984109  0.82720694  0.49531483  1
  Cr  Cr34  1  -0.00516836  0.65889107  0.66152520  1
  Fe  Fe35  1  0.15998708  0.82733781  0.82650511  1
  Fe  Fe36  1  0.49479215  0.15970502  0.49479817  1
  Fe  Fe37  1  0.32722433  0.99234226  0.65986402  1
  Cr  Cr38  1  0.49520515  0.16125607  0.82593234  1
  Fe  Fe39  1  0.49353781  0.49368995  0.49441295  1
  Cr  Cr40  1  0.32708744  0.32662590  0.65855620  1
  Cr  Cr41  1  0.49491795  0.49277731  0.82745269  1
  Fe  Fe42  1  0.49315545  0.82741254  0.49481350  1
  Fe  Fe43  1  0.32684724  0.66096188  0.65946041  1
  Cr  Cr44  1  0.49312514  0.82677552  0.82461047  1
  Fe  Fe45  1  0.82624811  0.16017569  0.49439002  1
  Fe  Fe46  1  0.66038391  -0.00476174  0.65947072  1
  Fe  Fe47  1  0.82688362  0.16034106  0.82612617  1
  Fe  Fe48  1  0.82671809  0.49244914  0.49401359  1
  Fe  Fe49  1  0.66116387  0.32625868  0.65946729  1
  Fe  Fe50  1  0.82687125  0.49276541  0.82690500  1
  Cr  Cr51  1  0.82668787  0.82866908  0.49209120  1
  Cr  Cr52  1  0.65948641  0.66027335  0.65888317  1
  Cr  Cr53  1  0.82954182  0.82791879  0.82801123  1
" 