1401,Fe63Cr37_7,-213.100809976425, 192.894302890557,Fe63Cr37,"# generated using pymatgen
 data_Cr17Fe10
_symmetry_space_group_name_H-M   'P 1'
_cell_length_a   7.55120648
_cell_length_b   7.55120648
_cell_length_c   10.67901861
_cell_angle_alpha   90.00000000
_cell_angle_beta   90.00000000
_cell_angle_gamma   90.00000000
_symmetry_Int_Tables_number   1
_chemical_formula_structural   Cr17Fe10
_chemical_formula_sum   'Cr34 Fe20'
_cell_volume   608.92532247
_cell_formula_units_Z   2
loop_
 _symmetry_equiv_pos_site_id
 _symmetry_equiv_pos_as_xyz
  1  'x, y, z'
loop_
 _atom_site_type_symbol
 _atom_site_label
 _atom_site_symmetry_multiplicity
 _atom_site_fract_x
 _atom_site_fract_y
 _atom_site_fract_z
 _atom_site_occupancy
  Cr  Cr0  1  -0.00430641  -0.00402155  -0.00511813  1
  Fe  Fe1  1  0.16108376  0.16080195  0.16208484  1
  Fe  Fe2  1  -0.00538555  -0.00538995  0.32882825  1
  Cr  Cr3  1  0.99242835  0.32802447  -0.00551306  1
  Cr  Cr4  1  0.16211889  0.49362740  0.16070721  1
  Cr  Cr5  1  0.99400608  0.32668068  0.32604819  1
  Cr  Cr6  1  -0.00419494  0.65926396  0.99409705  1
  Cr  Cr7  1  0.15795554  0.82863016  0.16092233  1
  Fe  Fe8  1  0.99406928  0.66158944  0.32758852  1
  Cr  Cr9  1  0.32774478  0.98950954  0.99395605  1
  Cr  Cr10  1  0.49167358  0.16170384  0.16174632  1
  Cr  Cr11  1  0.32630796  0.99313287  0.32900879  1
  Cr  Cr12  1  0.32593224  0.32896876  -0.00267894  1
  Cr  Cr13  1  0.49450355  0.49452277  0.16118922  1
  Fe  Fe14  1  0.32646682  0.32693338  0.32781912  1
  Fe  Fe15  1  0.32876244  0.66209353  0.99351463  1
  Fe  Fe16  1  0.49528325  0.82683063  0.16118414  1
  Cr  Cr17  1  0.32900181  0.66352331  0.32912976  1
  Cr  Cr18  1  0.65980997  0.99301776  0.99237207  1
  Cr  Cr19  1  0.82815889  0.15737373  0.16055021  1
  Fe  Fe20  1  0.66119504  0.99320373  0.32828845  1
  Cr  Cr21  1  0.66480912  0.32936447  0.99381333  1
  Fe  Fe22  1  0.82737910  0.49597482  0.16166051  1
  Cr  Cr23  1  0.66351545  0.32923858  0.32769973  1
  Fe  Fe24  1  0.65971028  0.66171891  -0.00511735  1
  Cr  Cr25  1  0.82734223  0.82586538  0.16399308  1
  Fe  Fe26  1  0.66134469  0.66249499  0.32743869  1
  Fe  Fe27  1  0.15919690  0.16064975  0.49390657  1
  Cr  Cr28  1  -0.00478279  -0.00406233  0.66042239  1
  Cr  Cr29  1  0.16128007  0.16175708  0.82850698  1
  Cr  Cr30  1  0.16075208  0.49455327  0.49675300  1
  Fe  Fe31  1  -0.00544321  0.32772932  0.66113160  1
  Fe  Fe32  1  0.16060786  0.49580393  0.82723198  1
  Fe  Fe33  1  0.16046347  0.82797790  0.49377156  1
  Fe  Fe34  1  -0.00422109  0.66109713  0.66171935  1
  Fe  Fe35  1  0.16189775  0.82562830  0.82803871  1
  Cr  Cr36  1  0.49305198  0.16137761  0.49378388  1
  Cr  Cr37  1  0.32718885  0.98970383  0.66032776  1
  Cr  Cr38  1  0.49447870  0.16117993  0.82768699  1
  Cr  Cr39  1  0.49315957  0.49267358  0.49325400  1
  Cr  Cr40  1  0.32570959  0.32885423  0.65888185  1
  Cr  Cr41  1  0.49211767  0.49449737  0.82900416  1
  Fe  Fe42  1  0.49484307  0.82744805  0.49346713  1
  Cr  Cr43  1  0.32585588  0.66451933  0.66301795  1
  Fe  Fe44  1  0.49367796  0.82653952  0.82868127  1
  Fe  Fe45  1  0.82932239  0.16101231  0.49363104  1
  Cr  Cr46  1  0.66098548  -0.00469896  0.66120671  1
  Fe  Fe47  1  0.82849130  0.16156987  0.82738219  1
  Cr  Cr48  1  0.82940565  0.49795370  0.49456899  1
  Cr  Cr49  1  0.66607961  0.32657834  0.66165312  1
  Cr  Cr50  1  0.82974786  0.49614327  0.82664449  1
  Cr  Cr51  1  0.83000414  0.82837904  0.49093606  1
  Cr  Cr52  1  0.65918838  0.66147154  0.66002440  1
  Cr  Cr53  1  0.82930727  0.82806815  0.82823546  1
" 