1131,Fe63Cr37_1,-213.149629976441, 191.631616124993,Fe63Cr37,"# generated using pymatgen
 data_Cr17Fe10
_symmetry_space_group_name_H-M   'P 1'
_cell_length_a   7.55910280
_cell_length_b   7.55910280
_cell_length_c   10.69018570
_cell_angle_alpha   90.00000000
_cell_angle_beta   90.00000000
_cell_angle_gamma   90.00000000
_symmetry_Int_Tables_number   1
_chemical_formula_structural   Cr17Fe10
_chemical_formula_sum   'Cr34 Fe20'
_cell_volume   610.83758630
_cell_formula_units_Z   2
loop_
 _symmetry_equiv_pos_site_id
 _symmetry_equiv_pos_as_xyz
  1  'x, y, z'
loop_
 _atom_site_type_symbol
 _atom_site_label
 _atom_site_symmetry_multiplicity
 _atom_site_fract_x
 _atom_site_fract_y
 _atom_site_fract_z
 _atom_site_occupancy
  Cr  Cr0  1  -0.00562428  -0.00358181  -0.00560906  1
  Cr  Cr1  1  0.16243238  0.16241356  0.16201302  1
  Fe  Fe2  1  -0.00591300  0.99337611  0.32696475  1
  Cr  Cr3  1  -0.00519871  0.32837355  0.98924710  1
  Fe  Fe4  1  0.16175890  0.49342279  0.15954070  1
  Cr  Cr5  1  -0.00492739  0.32816089  0.32747888  1
  Fe  Fe6  1  -0.00503611  0.65968883  0.99345450  1
  Cr  Cr7  1  0.15863204  0.82392656  0.16121542  1
  Fe  Fe8  1  -0.00500443  0.65887557  0.32672489  1
  Cr  Cr9  1  0.32539575  -0.00602559  0.99173187  1
  Cr  Cr10  1  0.49390582  0.16469984  0.16092432  1
  Cr  Cr11  1  0.32661797  0.99276707  0.32763656  1
  Fe  Fe12  1  0.32645885  0.32909968  -0.00593619  1
  Fe  Fe13  1  0.49301126  0.49386953  0.15857773  1
  Fe  Fe14  1  0.32859408  0.32977540  0.32713308  1
  Fe  Fe15  1  0.32525765  0.65732724  -0.00554078  1
  Cr  Cr16  1  0.49392051  0.82719903  0.15584306  1
  Cr  Cr17  1  0.32907477  0.65821821  0.32759086  1
  Cr  Cr18  1  0.66189390  0.99292804  0.99250845  1
  Cr  Cr19  1  0.82528994  0.16136385  0.16344783  1
  Fe  Fe20  1  0.65926535  0.99299936  0.32672377  1
  Fe  Fe21  1  0.66123876  0.32795162  0.99354638  1
  Cr  Cr22  1  0.82770784  0.49454058  0.15846190  1
  Fe  Fe23  1  0.65893183  0.32979114  0.32706940  1
  Fe  Fe24  1  0.66136870  0.65803226  0.99377206  1
  Cr  Cr25  1  0.82903190  0.82551491  0.16276032  1
  Cr  Cr26  1  0.65890600  0.65896218  0.32786494  1
  Cr  Cr27  1  0.16091643  0.16149468  0.49339862  1
  Cr  Cr28  1  -0.00605668  -0.00244169  0.66193874  1
  Fe  Fe29  1  0.16064372  0.16262612  0.82688626  1
  Cr  Cr30  1  0.16022434  0.49526513  0.49597951  1
  Fe  Fe31  1  0.99367963  0.32841704  0.66327955  1
  Fe  Fe32  1  0.16037016  0.49413311  0.82643358  1
  Cr  Cr33  1  0.15879594  0.82491409  0.49522109  1
  Fe  Fe34  1  0.99371697  0.65900607  0.66199079  1
  Cr  Cr35  1  0.16018680  0.82392102  0.82625931  1
  Cr  Cr36  1  0.49460971  0.16310665  0.49129206  1
  Cr  Cr37  1  0.32619177  0.99378044  0.66231323  1
  Cr  Cr38  1  0.49406356  0.16236691  0.82886313  1
  Fe  Fe39  1  0.49350613  0.49337293  0.49392619  1
  Cr  Cr40  1  0.32511445  0.32864313  0.65937616  1
  Cr  Cr41  1  0.49360101  0.49322503  0.82946123  1
  Cr  Cr42  1  0.49295818  0.82779057  0.49832292  1
  Fe  Fe43  1  0.32649564  0.65868563  0.66120728  1
  Cr  Cr44  1  0.49283293  0.82565146  0.82763494  1
  Cr  Cr45  1  0.82586495  0.16130351  0.49119759  1
  Cr  Cr46  1  0.66167620  0.99332017  0.66116793  1
  Fe  Fe47  1  0.82728796  0.16210677  0.82716427  1
  Cr  Cr48  1  0.82880236  0.49397164  0.49586750  1
  Cr  Cr49  1  0.66314691  0.32915354  0.66044947  1
  Fe  Fe50  1  0.82803709  0.49399202  0.82745556  1
  Cr  Cr51  1  0.82938433  0.82645395  0.49070190  1
  Cr  Cr52  1  0.65965333  0.65918488  0.65969599  1
  Cr  Cr53  1  0.82849836  0.82407727  0.82856186  1
" 