1258,Fe63Cr37_9,-213.136630593104, 196.555461107221,Fe63Cr37,"# generated using pymatgen
 data_Cr17Fe10
_symmetry_space_group_name_H-M   'P 1'
_cell_length_a   7.55167598
_cell_length_b   7.55167598
_cell_length_c   10.67968260
_cell_angle_alpha   90.00000000
_cell_angle_beta   90.00000000
_cell_angle_gamma   90.00000000
_symmetry_Int_Tables_number   1
_chemical_formula_structural   Cr17Fe10
_chemical_formula_sum   'Cr34 Fe20'
_cell_volume   609.03891167
_cell_formula_units_Z   2
loop_
 _symmetry_equiv_pos_site_id
 _symmetry_equiv_pos_as_xyz
  1  'x, y, z'
loop_
 _atom_site_type_symbol
 _atom_site_label
 _atom_site_symmetry_multiplicity
 _atom_site_fract_x
 _atom_site_fract_y
 _atom_site_fract_z
 _atom_site_occupancy
  Cr  Cr0  1  -0.00540035  -0.00158494  0.99377334  1
  Fe  Fe1  1  0.16097007  0.16077727  0.16052504  1
  Cr  Cr2  1  -0.00330835  -0.00202131  0.32985398  1
  Cr  Cr3  1  -0.00466833  0.32934695  -0.00479062  1
  Cr  Cr4  1  0.16109313  0.49670438  0.15756222  1
  Cr  Cr5  1  0.99262644  0.33028273  0.32751912  1
  Fe  Fe6  1  0.99337984  0.66085222  0.99425587  1
  Cr  Cr7  1  0.15732304  0.82547646  0.16226566  1
  Fe  Fe8  1  -0.00502780  0.66057355  0.32879568  1
  Cr  Cr9  1  0.32836549  0.99334454  -0.00462091  1
  Cr  Cr10  1  0.49537661  0.16386083  0.16148986  1
  Cr  Cr11  1  0.32703419  0.99234520  0.33004684  1
  Fe  Fe12  1  0.32816914  0.32717602  -0.00493521  1
  Cr  Cr13  1  0.49283279  0.49145523  0.16175990  1
  Cr  Cr14  1  0.32303306  0.32632665  0.32607909  1
  Fe  Fe15  1  0.32851406  0.66162794  -0.00556111  1
  Cr  Cr16  1  0.49384419  0.82724828  0.16168738  1
  Fe  Fe17  1  0.32682933  0.66148214  0.32862907  1
  Cr  Cr18  1  0.66002633  0.99276432  0.99424356  1
  Fe  Fe19  1  0.82870473  0.16231776  0.16178635  1
  Cr  Cr20  1  0.66035205  0.99259403  0.32483726  1
  Cr  Cr21  1  0.66510724  0.32930258  -0.00431562  1
  Fe  Fe22  1  0.82779128  0.49505719  0.16170122  1
  Fe  Fe23  1  0.66352433  0.32749390  0.32755426  1
  Cr  Cr24  1  0.65986093  0.66138692  0.99277459  1
  Cr  Cr25  1  0.83179650  0.82761101  0.15980416  1
  Cr  Cr26  1  0.66159859  0.65904767  0.32837211  1
  Fe  Fe27  1  0.15966928  0.16061323  0.49549297  1
  Fe  Fe28  1  -0.00529097  -0.00480574  0.65971257  1
  Cr  Cr29  1  0.16158357  0.16068318  0.82749174  1
  Cr  Cr30  1  0.16228473  0.49749054  0.49398964  1
  Cr  Cr31  1  0.99299559  0.32654734  0.66014800  1
  Cr  Cr32  1  0.16294514  0.49613515  0.83160906  1
  Fe  Fe33  1  0.16232163  0.82713623  0.49453473  1
  Cr  Cr34  1  0.99366426  0.65823139  0.65999887  1
  Cr  Cr35  1  0.15784766  0.82606494  0.82745828  1
  Cr  Cr36  1  0.49740004  0.16370502  0.49268609  1
  Cr  Cr37  1  0.32767578  0.99143211  0.65817407  1
  Cr  Cr38  1  0.49623825  0.16374638  0.82926448  1
  Cr  Cr39  1  0.49492031  0.49194658  0.49526412  1
  Cr  Cr40  1  0.32397189  0.32720227  0.66223806  1
  Cr  Cr41  1  0.49274897  0.49261851  0.82619664  1
  Fe  Fe42  1  0.49430230  0.82543106  0.49456084  1
  Fe  Fe43  1  0.32924763  0.66243094  0.66058817  1
  Fe  Fe44  1  0.49220963  0.82546236  0.82703794  1
  Fe  Fe45  1  0.82702559  0.16219092  0.49489923  1
  Cr  Cr46  1  0.65967952  0.99145305  0.66416685  1
  Fe  Fe47  1  0.82807780  0.16224225  0.82688492  1
  Fe  Fe48  1  0.82628522  0.49298649  0.49458377  1
  Fe  Fe49  1  0.66224625  0.32758544  0.66042527  1
  Cr  Cr50  1  0.82726744  0.49603444  0.82556674  1
  Cr  Cr51  1  0.83120508  0.82928705  0.49453252  1
  Fe  Fe52  1  0.65908141  0.66072460  0.66026941  1
  Cr  Cr53  1  0.83007009  0.82999737  0.82855460  1
" 