5332,Fe63Cr37_17,-213.377746350604, 193.663060767776,Fe63Cr37,"# generated using pymatgen
 data_Cr17Fe10
_symmetry_space_group_name_H-M   'P 1'
_cell_length_a   7.56210008
_cell_length_b   7.56210008
_cell_length_c   10.69442449
_cell_angle_alpha   90.00000000
_cell_angle_beta   90.00000000
_cell_angle_gamma   90.00000000
_symmetry_Int_Tables_number   1
_chemical_formula_structural   Cr17Fe10
_chemical_formula_sum   'Cr34 Fe20'
_cell_volume   611.56448867
_cell_formula_units_Z   2
loop_
 _symmetry_equiv_pos_site_id
 _symmetry_equiv_pos_as_xyz
  1  'x, y, z'
loop_
 _atom_site_type_symbol
 _atom_site_label
 _atom_site_symmetry_multiplicity
 _atom_site_fract_x
 _atom_site_fract_y
 _atom_site_fract_z
 _atom_site_occupancy
  Cr  Cr0  1  0.99182192  0.99200135  0.99295090  1
  Cr  Cr1  1  0.15919978  0.16037719  0.15778957  1
  Cr  Cr2  1  0.99302678  0.99232307  0.32886721  1
  Fe  Fe3  1  -0.00541275  0.32724403  0.99299076  1
  Cr  Cr4  1  0.15801408  0.49339703  0.16184210  1
  Fe  Fe5  1  -0.00563271  0.32551466  0.32868215  1
  Cr  Cr6  1  0.99340706  0.66343587  0.99286135  1
  Cr  Cr7  1  0.16509097  0.82762080  0.16383849  1
  Cr  Cr8  1  -0.00467864  0.66279546  0.32967302  1
  Cr  Cr9  1  0.32722776  -0.00606224  0.99368234  1
  Cr  Cr10  1  0.49353100  0.15575137  0.16205123  1
  Fe  Fe11  1  0.32642609  -0.00614034  0.32823719  1
  Cr  Cr12  1  0.32832043  0.32807803  0.99196519  1
  Cr  Cr13  1  0.49546396  0.49804265  0.16182163  1
  Cr  Cr14  1  0.32790539  0.32780997  0.32693745  1
  Cr  Cr15  1  0.32851307  0.65887586  -0.00625897  1
  Fe  Fe16  1  0.49440032  0.82656497  0.16138501  1
  Fe  Fe17  1  0.32794132  0.66178591  0.32799826  1
  Fe  Fe18  1  0.65885413  0.99097440  0.99264898  1
  Cr  Cr19  1  0.82805392  0.16255341  0.15878886  1
  Cr  Cr20  1  0.66222574  -0.00532988  0.32710068  1
  Cr  Cr21  1  0.65662236  0.32710528  -0.00592720  1
  Cr  Cr22  1  0.82773682  0.49270422  0.16082471  1
  Cr  Cr23  1  0.65851456  0.32529719  0.32937596  1
  Fe  Fe24  1  0.65899677  0.66265648  0.99191031  1
  Cr  Cr25  1  0.82337156  0.82592411  0.15855265  1
  Fe  Fe26  1  0.66026697  0.66162127  0.32748570  1
  Fe  Fe27  1  0.16102320  0.16072123  0.49379707  1
  Cr  Cr28  1  0.99327678  0.99222414  0.65847627  1
  Fe  Fe29  1  0.15925883  0.16046234  0.82638695  1
  Fe  Fe30  1  0.16096947  0.49291481  0.49348688  1
  Fe  Fe31  1  -0.00584731  0.32604708  0.65911274  1
  Cr  Cr32  1  0.15760710  0.49199725  0.82662559  1
  Fe  Fe33  1  0.16186126  0.82747549  0.49347965  1
  Cr  Cr34  1  -0.00624474  0.66395550  0.65836536  1
  Cr  Cr35  1  0.16358999  0.82958228  0.82476097  1
  Fe  Fe36  1  0.49179086  0.15907131  0.49381562  1
  Fe  Fe37  1  0.32691655  -0.00626296  0.65909318  1
  Cr  Cr38  1  0.49281778  0.15604371  0.82477724  1
  Cr  Cr39  1  0.49429991  0.49636871  0.49397445  1
  Cr  Cr40  1  0.32782973  0.32639303  0.66186357  1
  Fe  Fe41  1  0.49452288  0.49473331  0.82747462  1
  Cr  Cr42  1  0.49052721  0.82932598  0.49213423  1
  Cr  Cr43  1  0.32601019  0.65793963  0.66144512  1
  Fe  Fe44  1  0.49563548  0.82636251  0.82760369  1
  Fe  Fe45  1  0.82825356  0.16010622  0.49382582  1
  Cr  Cr46  1  0.66321078  -0.00599441  0.65959286  1
  Cr  Cr47  1  0.82847468  0.16172089  0.82855359  1
  Cr  Cr48  1  0.82914669  0.49195470  0.49309403  1
  Cr  Cr49  1  0.65725253  0.32582474  0.65772340  1
  Cr  Cr50  1  0.82705476  0.49304747  0.82784947  1
  Fe  Fe51  1  0.82557529  0.82673494  0.49329493  1
  Cr  Cr52  1  0.66142762  0.66116337  0.66368792  1
  Fe  Fe53  1  0.82517143  0.82778581  0.82825043  1
" 