1975,Fe63Cr37_14,-213.135105326872, 191.969919923893,Fe63Cr37,"# generated using pymatgen
 data_Cr17Fe10
_symmetry_space_group_name_H-M   'P 1'
_cell_length_a   7.55389948
_cell_length_b   7.55389948
_cell_length_c   10.68282710
_cell_angle_alpha   90.00000000
_cell_angle_beta   90.00000000
_cell_angle_gamma   90.00000000
_symmetry_Int_Tables_number   1
_chemical_formula_structural   Cr17Fe10
_chemical_formula_sum   'Cr34 Fe20'
_cell_volume   609.57704263
_cell_formula_units_Z   2
loop_
 _symmetry_equiv_pos_site_id
 _symmetry_equiv_pos_as_xyz
  1  'x, y, z'
loop_
 _atom_site_type_symbol
 _atom_site_label
 _atom_site_symmetry_multiplicity
 _atom_site_fract_x
 _atom_site_fract_y
 _atom_site_fract_z
 _atom_site_occupancy
  Cr  Cr0  1  0.99304370  -0.00449956  0.99135619  1
  Cr  Cr1  1  0.16262982  0.16038889  0.15964021  1
  Cr  Cr2  1  0.99183860  -0.00362414  0.33069056  1
  Fe  Fe3  1  -0.00400317  0.32920867  0.99245008  1
  Cr  Cr4  1  0.15896846  0.49201957  0.16048275  1
  Fe  Fe5  1  0.99382316  0.32778169  0.32902006  1
  Fe  Fe6  1  -0.00382594  0.66064445  0.99308139  1
  Cr  Cr7  1  0.16210052  0.83060381  0.16340115  1
  Cr  Cr8  1  -0.00319782  0.66067813  0.32813582  1
  Fe  Fe9  1  0.32811042  0.99267392  0.99272451  1
  Cr  Cr10  1  0.49087207  0.15905805  0.15911352  1
  Fe  Fe11  1  0.32894797  0.99385946  0.32815606  1
  Fe  Fe12  1  0.32628468  0.32692004  0.99242664  1
  Cr  Cr13  1  0.49465554  0.49215803  0.16034253  1
  Cr  Cr14  1  0.32741202  0.32956310  0.32856939  1
  Cr  Cr15  1  0.32699581  0.65944047  0.99392205  1
  Fe  Fe16  1  0.49233081  0.82970858  0.16009476  1
  Cr  Cr17  1  0.32771769  0.65985434  0.32769017  1
  Fe  Fe18  1  0.65827488  -0.00561148  0.99372597  1
  Cr  Cr19  1  0.82902999  0.16267019  0.15963283  1
  Cr  Cr20  1  0.66138582  -0.00445625  0.32498101  1
  Fe  Fe21  1  0.66031929  0.32657035  0.99387242  1
  Cr  Cr22  1  0.82889256  0.49404394  0.15925383  1
  Cr  Cr23  1  0.66085679  0.32457497  0.32986522  1
  Cr  Cr24  1  0.65784469  0.66361550  -0.00416563  1
  Cr  Cr25  1  0.82852971  0.82665598  0.15928046  1
  Cr  Cr26  1  0.65831079  0.66219265  0.32499737  1
  Cr  Cr27  1  0.16407560  0.15819460  0.49225154  1
  Cr  Cr28  1  -0.00542436  -0.00492802  0.66092651  1
  Fe  Fe29  1  0.16162205  0.16138979  0.82861333  1
  Fe  Fe30  1  0.16056433  0.49463204  0.49423187  1
  Cr  Cr31  1  -0.00451698  0.32579772  0.65994956  1
  Fe  Fe32  1  0.16019561  0.49281496  0.82974048  1
  Fe  Fe33  1  0.16228880  0.82707160  0.49444142  1
  Cr  Cr34  1  -0.00113240  0.66152414  0.66283065  1
  Fe  Fe35  1  0.16342961  0.82882655  0.82852152  1
  Fe  Fe36  1  0.49477147  0.16010147  0.49527559  1
  Fe  Fe37  1  0.32597615  0.99398946  0.66176887  1
  Cr  Cr38  1  0.49037771  0.16005850  0.82755211  1
  Cr  Cr39  1  0.49611642  0.49364730  0.49737547  1
  Cr  Cr40  1  0.32705818  0.32854460  0.66149520  1
  Cr  Cr41  1  0.49645662  0.49324723  0.82544140  1
  Cr  Cr42  1  0.49191402  0.82929781  0.49491481  1
  Cr  Cr43  1  0.32661242  0.66066392  0.66203938  1
  Fe  Fe44  1  0.49358724  0.82858860  0.82712094  1
  Fe  Fe45  1  0.82626378  0.16164530  0.49487621  1
  Cr  Cr46  1  0.66168552  -0.00326758  0.66080781  1
  Cr  Cr47  1  0.82680460  0.16278208  0.82819384  1
  Cr  Cr48  1  0.82721673  0.49470507  0.49566908  1
  Fe  Fe49  1  0.66169621  0.32660452  0.66031064  1
  Cr  Cr50  1  0.82713989  0.49543722  0.82803674  1
  Cr  Cr51  1  0.82819607  0.82523214  0.49554754  1
  Fe  Fe52  1  0.66079091  0.66126103  0.66163022  1
  Cr  Cr53  1  0.82764915  0.82500885  0.82726020  1
" 