8375,Fe63Cr37_13,-213.247222246684, 191.942454085559,Fe63Cr37,"# generated using pymatgen
 data_Cr17Fe10
_symmetry_space_group_name_H-M   'P 1'
_cell_length_a   7.55692568
_cell_length_b   7.55692568
_cell_length_c   10.68710678
_cell_angle_alpha   90.00000000
_cell_angle_beta   90.00000000
_cell_angle_gamma   90.00000000
_symmetry_Int_Tables_number   1
_chemical_formula_structural   Cr17Fe10
_chemical_formula_sum   'Cr34 Fe20'
_cell_volume   610.30995036
_cell_formula_units_Z   2
loop_
 _symmetry_equiv_pos_site_id
 _symmetry_equiv_pos_as_xyz
  1  'x, y, z'
loop_
 _atom_site_type_symbol
 _atom_site_label
 _atom_site_symmetry_multiplicity
 _atom_site_fract_x
 _atom_site_fract_y
 _atom_site_fract_z
 _atom_site_occupancy
  Cr  Cr0  1  -0.00423888  -0.00536578  0.99161681  1
  Cr  Cr1  1  0.16087245  0.15971589  0.15745442  1
  Fe  Fe2  1  0.99295172  0.99250247  0.32883490  1
  Fe  Fe3  1  0.99365633  0.32784137  0.99257880  1
  Cr  Cr4  1  0.15792411  0.49490195  0.16066562  1
  Cr  Cr5  1  0.99391792  0.32592512  0.32480887  1
  Cr  Cr6  1  0.99294350  0.66296528  -0.00534288  1
  Cr  Cr7  1  0.16359732  0.82758588  0.16425646  1
  Fe  Fe8  1  -0.00521839  0.66236769  0.32822026  1
  Fe  Fe9  1  0.32745901  -0.00592574  0.99339873  1
  Cr  Cr10  1  0.49350471  0.15626684  0.16305743  1
  Fe  Fe11  1  0.32741457  0.99324588  0.32889863  1
  Cr  Cr12  1  0.32736380  0.32759499  0.99213571  1
  Fe  Fe13  1  0.49162061  0.49499919  0.16100068  1
  Cr  Cr14  1  0.32932199  0.32672544  0.32933089  1
  Fe  Fe15  1  0.32732014  0.65950734  0.99378126  1
  Cr  Cr16  1  0.49129008  0.82843750  0.15808707  1
  Fe  Fe17  1  0.32742463  0.66084110  0.32840590  1
  Cr  Cr18  1  0.66342763  0.99322889  0.99254725  1
  Cr  Cr19  1  0.82803018  0.16283290  0.15984143  1
  Fe  Fe20  1  0.66176236  -0.00538847  0.32883959  1
  Cr  Cr21  1  0.65866677  0.32953657  -0.00159756  1
  Fe  Fe22  1  0.82802976  0.49461402  0.16062884  1
  Cr  Cr23  1  0.65859344  0.32780734  0.32578334  1
  Cr  Cr24  1  0.65949517  0.65918917  -0.00479840  1
  Cr  Cr25  1  0.82750105  0.82767859  0.16189392  1
  Cr  Cr26  1  0.66122901  0.66027861  0.32365026  1
  Cr  Cr27  1  0.16010639  0.16018386  0.49270966  1
  Cr  Cr28  1  0.99162198  0.99236188  0.66110146  1
  Fe  Fe29  1  0.16016002  0.16150001  0.82850134  1
  Cr  Cr30  1  0.15822402  0.49592031  0.49509597  1
  Cr  Cr31  1  -0.00405883  0.32444184  0.66443367  1
  Fe  Fe32  1  0.16182502  0.49371360  0.82853667  1
  Fe  Fe33  1  0.15998561  0.82757008  0.49120382  1
  Cr  Cr34  1  0.99347634  0.66535733  0.65894809  1
  Cr  Cr35  1  0.16355783  0.82638294  0.82889450  1
  Fe  Fe36  1  0.49607557  0.15915441  0.49318288  1
  Cr  Cr37  1  0.32483669  -0.00446157  0.65978149  1
  Cr  Cr38  1  0.49534516  0.15813052  0.82535333  1
  Cr  Cr39  1  0.49453881  0.49564523  0.49581578  1
  Cr  Cr40  1  0.32771021  0.32706594  0.66082043  1
  Fe  Fe41  1  0.49336657  0.49396243  0.82805141  1
  Cr  Cr42  1  0.49444938  0.83079463  0.49419784  1
  Cr  Cr43  1  0.32702084  0.65961494  0.66218763  1
  Cr  Cr44  1  0.49437739  0.82780168  0.82943624  1
  Fe  Fe45  1  0.82562594  0.15822778  0.49301964  1
  Fe  Fe46  1  0.66232016  -0.00574820  0.66020118  1
  Fe  Fe47  1  0.82713936  0.15994477  0.82775473  1
  Cr  Cr48  1  0.82951813  0.49319090  0.49253425  1
  Cr  Cr49  1  0.65906078  0.32580765  0.65819492  1
  Cr  Cr50  1  0.82980628  0.49166800  0.82816895  1
  Fe  Fe51  1  0.82770717  0.82925869  0.49173098  1
  Cr  Cr52  1  0.66202741  0.66296600  0.66390125  1
  Fe  Fe53  1  0.82719112  0.82851064  0.82713996  1
" 