5611,Fe65Cr35_7,-212.877043368094, 197.023456498892,Fe65Cr35,"# generated using pymatgen
 data_Cr35Fe19
_symmetry_space_group_name_H-M   'P 1'
_cell_length_a   7.56140077
_cell_length_b   7.56140077
_cell_length_c   10.69343552
_cell_angle_alpha   90.00000000
_cell_angle_beta   90.00000000
_cell_angle_gamma   90.00000000
_symmetry_Int_Tables_number   1
_chemical_formula_structural   Cr35Fe19
_chemical_formula_sum   'Cr35 Fe19'
_cell_volume   611.39484117
_cell_formula_units_Z   1
loop_
 _symmetry_equiv_pos_site_id
 _symmetry_equiv_pos_as_xyz
  1  'x, y, z'
loop_
 _atom_site_type_symbol
 _atom_site_label
 _atom_site_symmetry_multiplicity
 _atom_site_fract_x
 _atom_site_fract_y
 _atom_site_fract_z
 _atom_site_occupancy
  Cr  Cr0  1  0.99299812  -0.00543310  0.99214736  1
  Cr  Cr1  1  0.16258028  0.16048418  0.16664059  1
  Cr  Cr2  1  -0.00595032  -0.00586454  0.32727410  1
  Cr  Cr3  1  -0.00572194  0.32538275  0.99324618  1
  Cr  Cr4  1  0.16166516  0.49429923  0.15660556  1
  Cr  Cr5  1  -0.00512653  0.32717875  0.32886347  1
  Fe  Fe6  1  0.99228450  0.66134873  0.99325704  1
  Cr  Cr7  1  0.16131553  0.82661896  0.15928898  1
  Cr  Cr8  1  0.99322751  0.66032511  0.32703872  1
  Cr  Cr9  1  0.32893969  -0.00556515  -0.00505766  1
  Fe  Fe10  1  0.49303932  0.16041252  0.16005638  1
  Fe  Fe11  1  0.32881076  0.99347837  0.32720038  1
  Fe  Fe12  1  0.32825623  0.32437540  0.99346778  1
  Cr  Cr13  1  0.49422705  0.49243477  0.15819365  1
  Fe  Fe14  1  0.32859784  0.32738799  0.32791606  1
  Fe  Fe15  1  0.32913616  0.66129471  -0.00614141  1
  Fe  Fe16  1  0.49434645  0.82653281  0.15862548  1
  Cr  Cr17  1  0.32990661  0.66130452  0.32587915  1
  Fe  Fe18  1  0.65971354  -0.00552685  0.99262449  1
  Cr  Cr19  1  0.82399326  0.16059916  0.15948428  1
  Cr  Cr20  1  0.65772914  0.99174911  0.32345810  1
  Fe  Fe21  1  0.65881221  0.32442745  0.99303597  1
  Cr  Cr22  1  0.82566661  0.49415255  0.16034469  1
  Cr  Cr23  1  0.65907597  0.32822221  0.32763743  1
  Fe  Fe24  1  0.65980054  0.66204697  0.99345594  1
  Cr  Cr25  1  0.82579804  0.82665813  0.15846455  1
  Cr  Cr26  1  0.65848914  0.66117876  0.33230507  1
  Fe  Fe27  1  0.16194019  0.16010316  0.49368036  1
  Cr  Cr28  1  0.99267817  -0.00572286  0.66202520  1
  Cr  Cr29  1  0.16229173  0.15941030  0.82239879  1
  Cr  Cr30  1  0.16137791  0.49418635  0.49364017  1
  Cr  Cr31  1  0.99362226  0.32649569  0.65972667  1
  Cr  Cr32  1  0.16126421  0.49526228  0.83103713  1
  Cr  Cr33  1  0.16229123  0.82981800  0.49503956  1
  Cr  Cr34  1  0.99236113  0.66076780  0.66092039  1
  Cr  Cr35  1  0.16070757  0.82632136  0.82699762  1
  Cr  Cr36  1  0.49264550  0.15893632  0.49392233  1
  Fe  Fe37  1  0.32865575  -0.00616506  0.66003622  1
  Fe  Fe38  1  0.49466105  0.16071921  0.82859591  1
  Fe  Fe39  1  0.49254331  0.49218981  0.49342953  1
  Cr  Cr40  1  0.32774258  0.32726275  0.66131530  1
  Cr  Cr41  1  0.49467474  0.49313700  0.82836146  1
  Fe  Fe42  1  0.49310363  0.82962085  0.49397777  1
  Cr  Cr43  1  0.32928593  0.66040532  0.66059530  1
  Cr  Cr44  1  0.49410649  0.82760096  0.82646061  1
  Cr  Cr45  1  0.82568430  0.15984875  0.49361681  1
  Cr  Cr46  1  0.66042899  0.99287861  0.66422418  1
  Fe  Fe47  1  0.82472719  0.16017963  0.82854896  1
  Fe  Fe48  1  0.82714723  0.49346242  0.49376028  1
  Cr  Cr49  1  0.65990300  0.32743555  0.66135443  1
  Cr  Cr50  1  0.82542075  0.49398279  0.82810834  1
  Fe  Fe51  1  0.82719908  0.82890509  0.49352044  1
  Cr  Cr52  1  0.65924739  0.66084116  0.65378364  1
  Fe  Fe53  1  0.82576463  0.82570010  0.82869712  1
" 