8682,Fe65Cr35_3,-212.468631997647, 196.251509231664,Fe65Cr35,"# generated using pymatgen
 data_Cr35Fe19
_symmetry_space_group_name_H-M   'P 1'
_cell_length_a   7.55448647
_cell_length_b   7.55448647
_cell_length_c   10.68365722
_cell_angle_alpha   90.00000000
_cell_angle_beta   90.00000000
_cell_angle_gamma   90.00000000
_symmetry_Int_Tables_number   1
_chemical_formula_structural   Cr35Fe19
_chemical_formula_sum   'Cr35 Fe19'
_cell_volume   609.71915781
_cell_formula_units_Z   1
loop_
 _symmetry_equiv_pos_site_id
 _symmetry_equiv_pos_as_xyz
  1  'x, y, z'
loop_
 _atom_site_type_symbol
 _atom_site_label
 _atom_site_symmetry_multiplicity
 _atom_site_fract_x
 _atom_site_fract_y
 _atom_site_fract_z
 _atom_site_occupancy
  Cr  Cr0  1  0.99166988  0.99074929  -0.00480733  1
  Cr  Cr1  1  0.16167426  0.16019097  0.16120365  1
  Cr  Cr2  1  0.99161282  0.99027151  0.32778383  1
  Fe  Fe3  1  -0.00569421  0.32800039  0.99268489  1
  Cr  Cr4  1  0.15823458  0.49166600  0.15882191  1
  Cr  Cr5  1  0.99307416  0.32810063  0.32788494  1
  Fe  Fe6  1  -0.00573383  0.66118606  0.99414977  1
  Fe  Fe7  1  0.16049594  0.82749717  0.15958873  1
  Cr  Cr8  1  -0.00270042  0.66441105  0.32775386  1
  Fe  Fe9  1  0.32832132  0.99319812  -0.00567260  1
  Cr  Cr10  1  0.49160121  0.15698357  0.16077023  1
  Cr  Cr11  1  0.32637781  0.98902513  0.32657358  1
  Cr  Cr12  1  0.33029200  0.33054289  0.99311073  1
  Cr  Cr13  1  0.49683058  0.49791001  0.16249983  1
  Cr  Cr14  1  0.32901531  0.33154069  0.32883918  1
  Cr  Cr15  1  0.32536487  0.66327539  -0.00392671  1
  Fe  Fe16  1  0.49657725  0.82796655  0.15996231  1
  Cr  Cr17  1  0.32647990  0.66174893  0.32668232  1
  Fe  Fe18  1  0.65950308  0.99243602  0.99406055  1
  Cr  Cr19  1  0.82918035  0.16001045  0.16120891  1
  Fe  Fe20  1  0.66045480  0.99120622  0.32644216  1
  Cr  Cr21  1  0.66174789  0.32434145  0.99069998  1
  Cr  Cr22  1  0.82768924  0.49834417  0.15916714  1
  Cr  Cr23  1  0.66056514  0.32581679  0.32921429  1
  Fe  Fe24  1  0.66124651  0.66350327  -0.00484638  1
  Fe  Fe25  1  0.82509774  0.82695575  0.16019458  1
  Fe  Fe26  1  0.66167416  0.66395981  0.32605963  1
  Cr  Cr27  1  0.16233219  0.16004116  0.49206391  1
  Cr  Cr28  1  0.99414515  0.99029465  0.65931237  1
  Cr  Cr29  1  0.16292051  0.15977243  0.82940949  1
  Fe  Fe30  1  0.15975953  0.49588904  0.49470992  1
  Cr  Cr31  1  0.99287458  0.32757720  0.66172276  1
  Fe  Fe32  1  0.15974417  0.49653896  0.82839103  1
  Fe  Fe33  1  0.16107671  0.82655510  0.49528351  1
  Fe  Fe34  1  -0.00472637  0.66047082  0.66089693  1
  Fe  Fe35  1  0.16034897  0.82611095  0.82780585  1
  Cr  Cr36  1  0.49081584  0.15789159  0.49486729  1
  Fe  Fe37  1  0.32666224  -0.00577276  0.66165083  1
  Fe  Fe38  1  0.49409869  0.15909443  0.82830059  1
  Cr  Cr39  1  0.49652388  0.49769326  0.49336432  1
  Cr  Cr40  1  0.32950003  0.33086481  0.66058978  1
  Cr  Cr41  1  0.49599684  0.49779676  0.82679227  1
  Cr  Cr42  1  0.49577751  0.82730128  0.49484507  1
  Cr  Cr43  1  0.32318908  0.66224699  0.65962245  1
  Cr  Cr44  1  0.49375248  0.82946785  0.82749832  1
  Cr  Cr45  1  0.82912816  0.15979442  0.49275226  1
  Cr  Cr46  1  0.66276862  -0.00271819  0.66293578  1
  Fe  Fe47  1  0.82804901  0.15955623  0.82895250  1
  Cr  Cr48  1  0.82777590  0.49817836  0.49525761  1
  Cr  Cr49  1  0.66067338  0.32557401  0.66284110  1
  Cr  Cr50  1  0.83015353  0.49739428  0.82849142  1
  Cr  Cr51  1  0.82543521  0.82427745  0.49466023  1
  Fe  Fe52  1  0.66117974  0.66094961  0.66126839  1
  Cr  Cr53  1  0.82688254  0.82381150  0.82710049  1
" 