1274,Fe65Cr35_5,-212.528779629592, 194.176672736955,Fe65Cr35,"# generated using pymatgen
 data_Cr35Fe19
_symmetry_space_group_name_H-M   'P 1'
_cell_length_a   7.55446265
_cell_length_b   7.55446265
_cell_length_c   10.68362354
_cell_angle_alpha   90.00000000
_cell_angle_beta   90.00000000
_cell_angle_gamma   90.00000000
_symmetry_Int_Tables_number   1
_chemical_formula_structural   Cr35Fe19
_chemical_formula_sum   'Cr35 Fe19'
_cell_volume   609.71339034
_cell_formula_units_Z   1
loop_
 _symmetry_equiv_pos_site_id
 _symmetry_equiv_pos_as_xyz
  1  'x, y, z'
loop_
 _atom_site_type_symbol
 _atom_site_label
 _atom_site_symmetry_multiplicity
 _atom_site_fract_x
 _atom_site_fract_y
 _atom_site_fract_z
 _atom_site_occupancy
  Fe  Fe0  1  -0.00558953  0.99342100  0.99410952  1
  Cr  Cr1  1  0.16332457  0.16045780  0.16050676  1
  Cr  Cr2  1  -0.00498498  -0.00476995  0.32919902  1
  Cr  Cr3  1  -0.00479165  0.32707698  -0.00506520  1
  Fe  Fe4  1  0.16176219  0.49441306  0.15901503  1
  Cr  Cr5  1  -0.00416009  0.32693183  0.33127080  1
  Fe  Fe6  1  0.99398679  0.66135370  -0.00537045  1
  Cr  Cr7  1  0.16109326  0.82724141  0.15744174  1
  Cr  Cr8  1  -0.00559476  0.66065571  0.32542266  1
  Cr  Cr9  1  0.32890466  -0.00496259  0.99159033  1
  Fe  Fe10  1  0.49444421  0.15942576  0.16047761  1
  Fe  Fe11  1  0.32820291  0.99332769  0.32561033  1
  Fe  Fe12  1  0.32951993  0.32764535  -0.00505477  1
  Fe  Fe13  1  0.49234884  0.49338181  0.15948427  1
  Cr  Cr14  1  0.32692572  0.32676325  0.32338959  1
  Cr  Cr15  1  0.32845480  0.65948304  0.99207534  1
  Fe  Fe16  1  0.49375389  0.82988977  0.16116214  1
  Cr  Cr17  1  0.32826751  0.66001013  0.32751710  1
  Cr  Cr18  1  0.66060093  -0.00548634  0.99366104  1
  Cr  Cr19  1  0.82657802  0.15992284  0.15963077  1
  Fe  Fe20  1  0.65950107  -0.00517114  0.32463979  1
  Cr  Cr21  1  0.65805456  0.32742540  0.99152117  1
  Cr  Cr22  1  0.82837029  0.49490670  0.16041446  1
  Cr  Cr23  1  0.66007205  0.32830144  0.32684566  1
  Cr  Cr24  1  0.65972375  0.66100689  -0.00352276  1
  Fe  Fe25  1  0.82787370  0.82929446  0.16001559  1
  Cr  Cr26  1  0.65994106  0.66223711  0.32455560  1
  Fe  Fe27  1  0.16236679  0.16092491  0.49485476  1
  Cr  Cr28  1  -0.00539408  -0.00411459  0.66248493  1
  Cr  Cr29  1  0.16105377  0.16006507  0.82954448  1
  Cr  Cr30  1  0.16144920  0.49391106  0.49524001  1
  Fe  Fe31  1  -0.00501673  0.32665030  0.66218074  1
  Cr  Cr32  1  0.16139345  0.49531295  0.82957622  1
  Cr  Cr33  1  0.16359179  0.82854985  0.49609141  1
  Cr  Cr34  1  -0.00514748  0.66235104  0.66019015  1
  Fe  Fe35  1  0.16102462  0.82694416  0.82821656  1
  Cr  Cr36  1  0.49337532  0.15927150  0.49084412  1
  Cr  Cr37  1  0.32748388  0.99358618  0.66173698  1
  Fe  Fe38  1  0.49479303  0.16216951  0.82705059  1
  Cr  Cr39  1  0.49439507  0.49411471  0.49730537  1
  Cr  Cr40  1  0.32745159  0.32703116  0.66202986  1
  Fe  Fe41  1  0.49373536  0.49372036  0.82658852  1
  Cr  Cr42  1  0.49320890  0.82885152  0.49290290  1
  Fe  Fe43  1  0.32773736  0.66157227  0.66368265  1
  Fe  Fe44  1  0.49292622  0.82644186  0.82738619  1
  Cr  Cr45  1  0.82615932  0.16197733  0.49759094  1
  Cr  Cr46  1  0.66066219  0.99410055  0.66378460  1
  Fe  Fe47  1  0.82774487  0.16160092  0.82783357  1
  Cr  Cr48  1  0.82664437  0.49312273  0.49740000  1
  Fe  Fe49  1  0.65968867  0.32529458  0.66322695  1
  Cr  Cr50  1  0.82661972  0.49287187  0.82502405  1
  Cr  Cr51  1  0.82565601  0.82794856  0.49034748  1
  Cr  Cr52  1  0.65850505  0.66156105  0.66183202  1
  Cr  Cr53  1  0.82888263  0.82756009  0.83208536  1
" 