5691,Fe65Cr35_8,-212.41150962105, 193.575945951109,Fe65Cr35,"# generated using pymatgen
 data_Cr35Fe19
_symmetry_space_group_name_H-M   'P 1'
_cell_length_a   7.56270807
_cell_length_b   7.56270807
_cell_length_c   10.69528432
_cell_angle_alpha   90.00000000
_cell_angle_beta   90.00000000
_cell_angle_gamma   90.00000000
_symmetry_Int_Tables_number   1
_chemical_formula_structural   Cr35Fe19
_chemical_formula_sum   'Cr35 Fe19'
_cell_volume   611.71200995
_cell_formula_units_Z   1
loop_
 _symmetry_equiv_pos_site_id
 _symmetry_equiv_pos_as_xyz
  1  'x, y, z'
loop_
 _atom_site_type_symbol
 _atom_site_label
 _atom_site_symmetry_multiplicity
 _atom_site_fract_x
 _atom_site_fract_y
 _atom_site_fract_z
 _atom_site_occupancy
  Fe  Fe0  1  0.99318754  -0.00601115  0.99320066  1
  Cr  Cr1  1  0.15853077  0.16140526  0.16002829  1
  Fe  Fe2  1  0.99258961  0.99327974  0.32747003  1
  Fe  Fe3  1  -0.00632228  0.32710172  -0.00628107  1
  Fe  Fe4  1  0.16023541  0.49331236  0.16045395  1
  Cr  Cr5  1  -0.00557308  0.32772734  0.32524592  1
  Cr  Cr6  1  -0.00565283  0.65922808  0.99151486  1
  Cr  Cr7  1  0.15942119  0.82815242  0.15865312  1
  Cr  Cr8  1  0.99329279  0.66091164  0.32851315  1
  Cr  Cr9  1  0.32739691  -0.00594865  0.99318327  1
  Fe  Fe10  1  0.49450671  0.16020404  0.16121279  1
  Cr  Cr11  1  0.32893665  -0.00545198  0.32810121  1
  Cr  Cr12  1  0.32651047  0.32722889  -0.00340886  1
  Cr  Cr13  1  0.49296727  0.49434385  0.16185168  1
  Fe  Fe14  1  0.32696668  0.32703914  0.32620736  1
  Cr  Cr15  1  0.32453315  0.65971432  0.99191501  1
  Cr  Cr16  1  0.49536723  0.82630917  0.16125838  1
  Cr  Cr17  1  0.32600896  0.66033996  0.32758929  1
  Cr  Cr18  1  0.66071793  -0.00486209  -0.00442588  1
  Fe  Fe19  1  0.82695938  0.15947181  0.16034673  1
  Fe  Fe20  1  0.66129701  0.99277293  0.32711399  1
  Cr  Cr21  1  0.66121988  0.32586457  0.99246166  1
  Cr  Cr22  1  0.82720309  0.49351612  0.16035174  1
  Cr  Cr23  1  0.65957127  0.32479096  0.32605505  1
  Cr  Cr24  1  0.66210818  0.66006080  0.99269437  1
  Cr  Cr25  1  0.82626946  0.82860518  0.16143450  1
  Fe  Fe26  1  0.66033131  0.66189320  0.32791549  1
  Cr  Cr27  1  0.15945880  0.15908553  0.49342921  1
  Cr  Cr28  1  -0.00590774  0.99085297  0.65912850  1
  Cr  Cr29  1  0.15828949  0.15946175  0.82757975  1
  Cr  Cr30  1  0.16176145  0.49395693  0.49239530  1
  Cr  Cr31  1  0.99220935  0.32921064  0.66123710  1
  Fe  Fe32  1  0.16054215  0.49420260  0.82686923  1
  Fe  Fe33  1  0.16038045  0.82694065  0.49354926  1
  Cr  Cr34  1  -0.00548265  0.66094126  0.66092920  1
  Fe  Fe35  1  0.15945345  0.82644695  0.82705026  1
  Cr  Cr36  1  0.49357389  0.16034767  0.49425452  1
  Cr  Cr37  1  0.32704815  0.99164872  0.65968508  1
  Cr  Cr38  1  0.49393186  0.16164912  0.82576073  1
  Cr  Cr39  1  0.49410620  0.49581223  0.49480007  1
  Cr  Cr40  1  0.32840881  0.32777484  0.66015810  1
  Fe  Fe41  1  0.49364267  0.49340078  0.82622788  1
  Fe  Fe42  1  0.49416608  0.82653790  0.49325566  1
  Fe  Fe43  1  0.32645388  0.66082302  0.66075897  1
  Cr  Cr44  1  0.49263656  0.82415983  0.82722351  1
  Cr  Cr45  1  0.82803138  0.15884757  0.49385188  1
  Cr  Cr46  1  0.65985150  -0.00603070  0.65894380  1
  Cr  Cr47  1  0.82884495  0.16128342  0.82753296  1
  Cr  Cr48  1  0.82516222  0.49481608  0.49440302  1
  Fe  Fe49  1  0.66052019  0.32774189  0.66118182  1
  Fe  Fe50  1  0.82689727  0.49362223  0.82697548  1
  Fe  Fe51  1  0.82651473  0.82734555  0.49235246  1
  Cr  Cr52  1  0.66126453  0.65961097  0.66082563  1
  Fe  Fe53  1  0.82813755  0.82698781  0.82746171  1
" 