4827,Fe65Cr35_10,-212.416552266678, 193.132968144991,Fe65Cr35,"# generated using pymatgen
 data_Cr35Fe19
_symmetry_space_group_name_H-M   'P 1'
_cell_length_a   7.55415633
_cell_length_b   7.55415633
_cell_length_c   10.68319033
_cell_angle_alpha   90.00000000
_cell_angle_beta   90.00000000
_cell_angle_gamma   90.00000000
_symmetry_Int_Tables_number   1
_chemical_formula_structural   Cr35Fe19
_chemical_formula_sum   'Cr35 Fe19'
_cell_volume   609.63922421
_cell_formula_units_Z   1
loop_
 _symmetry_equiv_pos_site_id
 _symmetry_equiv_pos_as_xyz
  1  'x, y, z'
loop_
 _atom_site_type_symbol
 _atom_site_label
 _atom_site_symmetry_multiplicity
 _atom_site_fract_x
 _atom_site_fract_y
 _atom_site_fract_z
 _atom_site_occupancy
  Fe  Fe0  1  -0.00406282  0.99346113  0.99255223  1
  Cr  Cr1  1  0.16005082  0.15981957  0.15959199  1
  Fe  Fe2  1  -0.00470795  -0.00325144  0.32842776  1
  Cr  Cr3  1  -0.00432941  0.32795541  0.99341650  1
  Fe  Fe4  1  0.16029217  0.49347841  0.15989685  1
  Cr  Cr5  1  -0.00457881  0.32786172  0.32917067  1
  Cr  Cr6  1  0.99394771  0.65892379  0.99384124  1
  Cr  Cr7  1  0.15921363  0.82899001  0.16212908  1
  Cr  Cr8  1  0.99327373  0.65683949  0.32648738  1
  Cr  Cr9  1  0.32665225  -0.00413167  0.99073617  1
  Fe  Fe10  1  0.49384486  0.16035623  0.15906614  1
  Cr  Cr11  1  0.32825933  -0.00207025  0.33020046  1
  Fe  Fe12  1  0.32756060  0.32716144  -0.00544184  1
  Cr  Cr13  1  0.49166960  0.49036680  0.15828057  1
  Cr  Cr14  1  0.32620873  0.32427431  0.32677650  1
  Cr  Cr15  1  0.32668851  0.66278635  0.99287931  1
  Cr  Cr16  1  0.49315365  0.82728861  0.16151972  1
  Cr  Cr17  1  0.32717947  0.66007833  0.32632775  1
  Cr  Cr18  1  0.65811123  0.99378051  0.99290810  1
  Cr  Cr19  1  0.82751124  0.15924862  0.15865332  1
  Cr  Cr20  1  0.65756926  -0.00402713  0.32981273  1
  Fe  Fe21  1  0.65997312  0.32768635  -0.00487766  1
  Fe  Fe22  1  0.82825411  0.49293762  0.15994054  1
  Cr  Cr23  1  0.66098155  0.32679594  0.32654872  1
  Cr  Cr24  1  0.66217672  0.66063877  -0.00507882  1
  Cr  Cr25  1  0.83024324  0.83177982  0.16325586  1
  Cr  Cr26  1  0.66214612  0.65964407  0.32624152  1
  Fe  Fe27  1  0.16198254  0.16107964  0.49624038  1
  Cr  Cr28  1  -0.00203082  -0.00301450  0.66278144  1
  Fe  Fe29  1  0.16161918  0.16171689  0.82710303  1
  Cr  Cr30  1  0.16329765  0.49405444  0.49648805  1
  Fe  Fe31  1  -0.00411767  0.32712147  0.66126597  1
  Cr  Cr32  1  0.16372492  0.49412592  0.82500441  1
  Cr  Cr33  1  0.16028115  0.82794788  0.49271937  1
  Fe  Fe34  1  -0.00417070  0.66181905  0.66138896  1
  Fe  Fe35  1  0.16247920  0.82854188  0.82610864  1
  Fe  Fe36  1  0.49296022  0.16151536  0.49779194  1
  Fe  Fe37  1  0.32859357  -0.00501733  0.66190603  1
  Cr  Cr38  1  0.49452655  0.16374263  0.82767883  1
  Cr  Cr39  1  0.49194895  0.49211567  0.49657927  1
  Fe  Fe40  1  0.32665035  0.32401752  0.66056275  1
  Cr  Cr41  1  0.49230929  0.49289159  0.82718966  1
  Cr  Cr42  1  0.49284014  0.82730652  0.49609473  1
  Fe  Fe43  1  0.32614481  0.66354386  0.66226391  1
  Fe  Fe44  1  0.49284508  0.82785984  0.82516160  1
  Cr  Cr45  1  0.82777153  0.15980142  0.49588770  1
  Fe  Fe46  1  0.65910253  -0.00439793  0.66121951  1
  Cr  Cr47  1  0.82788015  0.16088243  0.82880563  1
  Cr  Cr48  1  0.82758084  0.49281676  0.49774931  1
  Fe  Fe49  1  0.66000760  0.32475076  0.66069304  1
  Cr  Cr50  1  0.82660343  0.49142906  0.82519983  1
  Cr  Cr51  1  0.82955587  0.83023056  0.49170566  1
  Cr  Cr52  1  0.66113690  0.66289109  0.66187538  1
  Cr  Cr53  1  0.82985084  0.83021146  0.82792891  1
" 