6018,Fe65Cr35_16,-212.482427504279, 194.683383480002,Fe65Cr35,"# generated using pymatgen
 data_Cr35Fe19
_symmetry_space_group_name_H-M   'P 1'
_cell_length_a   7.55762305
_cell_length_b   7.55762305
_cell_length_c   10.68809302
_cell_angle_alpha   90.00000000
_cell_angle_beta   90.00000000
_cell_angle_gamma   90.00000000
_symmetry_Int_Tables_number   1
_chemical_formula_structural   Cr35Fe19
_chemical_formula_sum   'Cr35 Fe19'
_cell_volume   610.47892877
_cell_formula_units_Z   1
loop_
 _symmetry_equiv_pos_site_id
 _symmetry_equiv_pos_as_xyz
  1  'x, y, z'
loop_
 _atom_site_type_symbol
 _atom_site_label
 _atom_site_symmetry_multiplicity
 _atom_site_fract_x
 _atom_site_fract_y
 _atom_site_fract_z
 _atom_site_occupancy
  Cr  Cr0  1  0.98913046  0.99212287  0.99242864  1
  Cr  Cr1  1  0.15919217  0.16032566  0.16350211  1
  Fe  Fe2  1  -0.00445480  -0.00558412  0.32852339  1
  Cr  Cr3  1  0.99297602  0.33090574  0.99168721  1
  Fe  Fe4  1  0.15829307  0.49379132  0.16089011  1
  Fe  Fe5  1  -0.00467217  0.32669887  0.32739648  1
  Fe  Fe6  1  0.99222181  0.65948890  0.99283067  1
  Cr  Cr7  1  0.15931005  0.82955086  0.16044260  1
  Cr  Cr8  1  -0.00473843  0.66074326  0.32515033  1
  Cr  Cr9  1  0.33039499  -0.00578363  -0.00443119  1
  Fe  Fe10  1  0.49569902  0.16015162  0.15950213  1
  Cr  Cr11  1  0.32947590  0.99337158  0.33063740  1
  Cr  Cr12  1  0.32786044  0.32923035  -0.00316991  1
  Cr  Cr13  1  0.49627328  0.49442457  0.16057194  1
  Cr  Cr14  1  0.32825497  0.32768245  0.32502112  1
  Cr  Cr15  1  0.32304659  0.65849661  -0.00401441  1
  Cr  Cr16  1  0.49580057  0.82571946  0.15922501  1
  Cr  Cr17  1  0.32644138  0.66100962  0.32636372  1
  Fe  Fe18  1  0.66130288  -0.00520048  0.99342106  1
  Cr  Cr19  1  0.82893413  0.16090380  0.16088405  1
  Cr  Cr20  1  0.66031265  -0.00565734  0.32567615  1
  Fe  Fe21  1  0.66182707  0.32675276  0.99383523  1
  Cr  Cr22  1  0.82593664  0.49419399  0.16357557  1
  Cr  Cr23  1  0.65974892  0.32466727  0.32713460  1
  Fe  Fe24  1  0.66317914  0.66032907  0.99273974  1
  Cr  Cr25  1  0.82676589  0.82677226  0.15998206  1
  Fe  Fe26  1  0.65906007  0.66174578  0.32744608  1
  Fe  Fe27  1  0.16147376  0.15924302  0.49375855  1
  Cr  Cr28  1  0.99189133  0.99266220  0.65942631  1
  Cr  Cr29  1  0.16024780  0.15973678  0.82435596  1
  Cr  Cr30  1  0.15989638  0.49115506  0.49305127  1
  Cr  Cr31  1  0.99215402  0.32896128  0.66233308  1
  Fe  Fe32  1  0.16110647  0.49448751  0.82796826  1
  Fe  Fe33  1  0.16043446  0.82847935  0.49426914  1
  Cr  Cr34  1  0.99311711  0.66020119  0.66543558  1
  Cr  Cr35  1  0.16079128  0.82903875  0.82775009  1
  Fe  Fe36  1  0.49353405  0.16001352  0.49490410  1
  Fe  Fe37  1  0.32751087  -0.00585501  0.65799878  1
  Cr  Cr38  1  0.49348189  0.16102071  0.82994918  1
  Cr  Cr39  1  0.49681768  0.49696799  0.49490843  1
  Cr  Cr40  1  0.32798400  0.32723156  0.66015115  1
  Cr  Cr41  1  0.49667031  0.49524602  0.82663108  1
  Fe  Fe42  1  0.49411182  0.82805904  0.49472878  1
  Cr  Cr43  1  0.32609046  0.66233165  0.65886708  1
  Cr  Cr44  1  0.49491627  0.82579008  0.82662671  1
  Cr  Cr45  1  0.83241634  0.16142829  0.49153180  1
  Cr  Cr46  1  0.66030218  -0.00586272  0.66131388  1
  Fe  Fe47  1  0.82578145  0.16027464  0.82858484  1
  Cr  Cr48  1  0.82517113  0.49472308  0.49243759  1
  Cr  Cr49  1  0.66223712  0.32530235  0.66187005  1
  Fe  Fe50  1  0.82660156  0.49561137  0.82883525  1
  Cr  Cr51  1  0.82651624  0.82577593  0.49172084  1
  Fe  Fe52  1  0.66242072  0.66140241  0.66114958  1
  Fe  Fe53  1  0.82516513  0.82613538  0.82860530  1
" 