6811,Fe65Cr35_13,-212.28944268358, 194.8717672435,Fe65Cr35,"# generated using pymatgen
 data_Cr35Fe19
_symmetry_space_group_name_H-M   'P 1'
_cell_length_a   7.54500485
_cell_length_b   7.54500485
_cell_length_c   10.67024818
_cell_angle_alpha   90.00000000
_cell_angle_beta   90.00000000
_cell_angle_gamma   90.00000000
_symmetry_Int_Tables_number   1
_chemical_formula_structural   Cr35Fe19
_chemical_formula_sum   'Cr35 Fe19'
_cell_volume   607.42626523
_cell_formula_units_Z   1
loop_
 _symmetry_equiv_pos_site_id
 _symmetry_equiv_pos_as_xyz
  1  'x, y, z'
loop_
 _atom_site_type_symbol
 _atom_site_label
 _atom_site_symmetry_multiplicity
 _atom_site_fract_x
 _atom_site_fract_y
 _atom_site_fract_z
 _atom_site_occupancy
  Cr  Cr0  1  -0.00435659  -0.00406660  0.99428144  1
  Cr  Cr1  1  0.16135848  0.15963109  0.16230839  1
  Fe  Fe2  1  -0.00437717  0.99276628  0.32793009  1
  Fe  Fe3  1  0.99427734  0.32751666  0.99426264  1
  Cr  Cr4  1  0.16396823  0.49418107  0.16019985  1
  Cr  Cr5  1  0.99413677  0.33012464  0.32582930  1
  Cr  Cr6  1  0.99401725  0.65711066  -0.00502729  1
  Fe  Fe7  1  0.16067180  0.82848772  0.16123516  1
  Cr  Cr8  1  -0.00393512  0.66024504  0.32851819  1
  Cr  Cr9  1  0.33049128  -0.00419496  0.99381970  1
  Fe  Fe10  1  0.49483495  0.16263812  0.16124754  1
  Cr  Cr11  1  0.32868322  0.99377518  0.32621995  1
  Cr  Cr12  1  0.32627262  0.32580285  0.99248536  1
  Cr  Cr13  1  0.49573910  0.49396924  0.16172895  1
  Fe  Fe14  1  0.32845096  0.32795265  0.32733511  1
  Cr  Cr15  1  0.32703711  0.66294217  0.99398071  1
  Cr  Cr16  1  0.49493160  0.82601014  0.15948044  1
  Cr  Cr17  1  0.32638227  0.66412836  0.32965105  1
  Cr  Cr18  1  0.65867604  -0.00414100  0.99234887  1
  Cr  Cr19  1  0.82873145  0.16075888  0.16185245  1
  Cr  Cr20  1  0.65923611  -0.00460275  0.32922617  1
  Fe  Fe21  1  0.66201437  0.32822634  -0.00444042  1
  Fe  Fe22  1  0.82742593  0.49447206  0.15919791  1
  Cr  Cr23  1  0.66317282  0.32730036  0.32758190  1
  Fe  Fe24  1  0.66131338  0.66118115  0.99412558  1
  Cr  Cr25  1  0.82921250  0.82871563  0.15982386  1
  Cr  Cr26  1  0.66240705  0.66180045  0.32843974  1
  Cr  Cr27  1  0.16075441  0.15937804  0.49462457  1
  Fe  Fe28  1  -0.00398355  0.99317010  0.66276931  1
  Fe  Fe29  1  0.16216329  0.16333117  0.82747264  1
  Cr  Cr30  1  0.16456844  0.49432284  0.49733558  1
  Cr  Cr31  1  -0.00434894  0.33035333  0.66408490  1
  Fe  Fe32  1  0.16093498  0.49369338  0.82762022  1
  Fe  Fe33  1  0.16117771  0.82956855  0.49601694  1
  Fe  Fe34  1  -0.00494628  0.66328719  0.66255871  1
  Cr  Cr35  1  0.15933062  0.82913013  0.82802830  1
  Cr  Cr36  1  0.49347891  0.16501659  0.49475020  1
  Cr  Cr37  1  0.33012688  -0.00457894  0.66417961  1
  Fe  Fe38  1  0.49472929  0.16288905  0.82719024  1
  Cr  Cr39  1  0.49326693  0.49419070  0.49494929  1
  Fe  Fe40  1  0.32896486  0.32699091  0.66390271  1
  Cr  Cr41  1  0.49376804  0.49477080  0.82739415  1
  Fe  Fe42  1  0.49386353  0.82892637  0.49497789  1
  Cr  Cr43  1  0.32673051  0.66270542  0.66087763  1
  Fe  Fe44  1  0.49651322  0.82746930  0.82867584  1
  Cr  Cr45  1  0.83019655  0.15889063  0.49554271  1
  Cr  Cr46  1  0.65955926  -0.00470397  0.66260284  1
  Cr  Cr47  1  0.82927473  0.15970006  0.82689106  1
  Cr  Cr48  1  0.82660708  0.49500484  0.49589826  1
  Fe  Fe49  1  0.66001297  0.32773767  0.66223472  1
  Cr  Cr50  1  0.82617308  0.49560686  0.83053174  1
  Cr  Cr51  1  0.83181773  0.83063078  0.49713470  1
  Cr  Cr52  1  0.66196734  0.66352885  0.66116431  1
  Fe  Fe53  1  0.82755262  0.82728586  0.82797627  1
" 