3749,Fe65Cr35_1,-212.434038650608, 198.245401739107,Fe65Cr35,"# generated using pymatgen
 data_Cr35Fe19
_symmetry_space_group_name_H-M   'P 1'
_cell_length_a   7.55215149
_cell_length_b   7.55215149
_cell_length_c   10.68035506
_cell_angle_alpha   90.00000000
_cell_angle_beta   90.00000000
_cell_angle_gamma   90.00000000
_symmetry_Int_Tables_number   1
_chemical_formula_structural   Cr35Fe19
_chemical_formula_sum   'Cr35 Fe19'
_cell_volume   609.15396571
_cell_formula_units_Z   1
loop_
 _symmetry_equiv_pos_site_id
 _symmetry_equiv_pos_as_xyz
  1  'x, y, z'
loop_
 _atom_site_type_symbol
 _atom_site_label
 _atom_site_symmetry_multiplicity
 _atom_site_fract_x
 _atom_site_fract_y
 _atom_site_fract_z
 _atom_site_occupancy
  Fe  Fe0  1  0.99347567  0.99387073  0.99288764  1
  Cr  Cr1  1  0.16289300  0.15878118  0.16045507  1
  Fe  Fe2  1  0.99370997  -0.00527090  0.32886143  1
  Cr  Cr3  1  -0.00509580  0.32801094  0.99307454  1
  Cr  Cr4  1  0.16128549  0.49501916  0.16455010  1
  Cr  Cr5  1  -0.00295151  0.32730961  0.33022193  1
  Fe  Fe6  1  -0.00553971  0.66071829  0.99368232  1
  Cr  Cr7  1  0.15882599  0.82898425  0.16171445  1
  Fe  Fe8  1  -0.00497189  0.66248544  0.32856369  1
  Cr  Cr9  1  0.32888259  0.99242463  -0.00336728  1
  Fe  Fe10  1  0.49471246  0.16010126  0.16133585  1
  Cr  Cr11  1  0.33002160  0.99067907  0.32678359  1
  Cr  Cr12  1  0.32559487  0.32954380  -0.00548202  1
  Cr  Cr13  1  0.49525244  0.49186748  0.16057461  1
  Fe  Fe14  1  0.33025289  0.32625925  0.32821661  1
  Cr  Cr15  1  0.32614241  0.66139928  -0.00459167  1
  Fe  Fe16  1  0.49416815  0.82693391  0.16143927  1
  Fe  Fe17  1  0.32701430  0.65916911  0.32894834  1
  Cr  Cr18  1  0.66113817  0.99393640  -0.00481065  1
  Cr  Cr19  1  0.82952752  0.15976402  0.16067188  1
  Cr  Cr20  1  0.66060785  0.99358830  0.32928881  1
  Cr  Cr21  1  0.66238027  0.32663011  0.99428823  1
  Cr  Cr22  1  0.82673643  0.49640398  0.16237405  1
  Cr  Cr23  1  0.66345750  0.32487235  0.32733325  1
  Cr  Cr24  1  0.65803197  0.66309040  0.99310683  1
  Cr  Cr25  1  0.82968593  0.82687638  0.15961323  1
  Cr  Cr26  1  0.65662850  0.66387237  0.32718023  1
  Cr  Cr27  1  0.16546277  0.15999129  0.49465831  1
  Cr  Cr28  1  0.99291355  -0.00280704  0.66154473  1
  Cr  Cr29  1  0.16344817  0.15916258  0.82799068  1
  Fe  Fe30  1  0.16156328  0.49545266  0.49331114  1
  Cr  Cr31  1  -0.00313304  0.32975663  0.66034301  1
  Fe  Fe32  1  0.16103901  0.49509253  0.82691221  1
  Cr  Cr33  1  0.15982778  0.82869725  0.49391703  1
  Fe  Fe34  1  0.99330466  0.66118140  0.66159296  1
  Cr  Cr35  1  0.15797299  0.82889193  0.82789787  1
  Fe  Fe36  1  0.49458563  0.16008828  0.49491579  1
  Fe  Fe37  1  0.32810194  -0.00541592  0.65963561  1
  Cr  Cr38  1  0.49329731  0.16352097  0.82568487  1
  Cr  Cr39  1  0.49463086  0.49117031  0.49545328  1
  Fe  Fe40  1  0.32832789  0.32805682  0.66101399  1
  Fe  Fe41  1  0.49160322  0.49435619  0.82677148  1
  Fe  Fe42  1  0.49237315  0.82699127  0.49527334  1
  Cr  Cr43  1  0.32487704  0.66094757  0.66082056  1
  Cr  Cr44  1  0.49287338  0.82943117  0.82518846  1
  Fe  Fe45  1  0.82943766  0.16079151  0.49355574  1
  Cr  Cr46  1  0.66051059  0.99434896  0.65783764  1
  Fe  Fe47  1  0.82799418  0.15960803  0.82808095  1
  Cr  Cr48  1  0.82679128  0.49665291  0.49162410  1
  Cr  Cr49  1  0.66509483  0.32592258  0.66113380  1
  Cr  Cr50  1  0.82552502  0.49765246  0.82876091  1
  Cr  Cr51  1  0.82930015  0.82609297  0.49465609  1
  Cr  Cr52  1  0.65864731  0.66275701  0.66239863  1
  Fe  Fe53  1  0.82750402  0.83002858  0.82785423  1
" 