5918,Fe65Cr35_11,-212.439458404009, 197.640009557334,Fe65Cr35,"# generated using pymatgen
 data_Cr35Fe19
_symmetry_space_group_name_H-M   'P 1'
_cell_length_a   7.55381045
_cell_length_b   7.55381045
_cell_length_c   10.68270119
_cell_angle_alpha   90.00000000
_cell_angle_beta   90.00000000
_cell_angle_gamma   90.00000000
_symmetry_Int_Tables_number   1
_chemical_formula_structural   Cr35Fe19
_chemical_formula_sum   'Cr35 Fe19'
_cell_volume   609.55548947
_cell_formula_units_Z   1
loop_
 _symmetry_equiv_pos_site_id
 _symmetry_equiv_pos_as_xyz
  1  'x, y, z'
loop_
 _atom_site_type_symbol
 _atom_site_label
 _atom_site_symmetry_multiplicity
 _atom_site_fract_x
 _atom_site_fract_y
 _atom_site_fract_z
 _atom_site_occupancy
  Fe  Fe0  1  0.99377983  0.99260880  -0.00513908  1
  Cr  Cr1  1  0.16333727  0.15974387  0.15969880  1
  Cr  Cr2  1  -0.00481764  0.99415296  0.32643551  1
  Cr  Cr3  1  0.99268049  0.32765040  0.99057124  1
  Cr  Cr4  1  0.16227981  0.49593337  0.16046303  1
  Cr  Cr5  1  0.99386017  0.32857544  0.33033200  1
  Fe  Fe6  1  0.99376883  0.66245120  -0.00526584  1
  Fe  Fe7  1  0.15950008  0.82691542  0.16036340  1
  Fe  Fe8  1  0.99411024  0.66266206  0.32715237  1
  Cr  Cr9  1  0.32817277  0.99258193  -0.00365574  1
  Cr  Cr10  1  0.49337950  0.16397034  0.16145295  1
  Cr  Cr11  1  0.32838992  0.99243844  0.32760840  1
  Fe  Fe12  1  0.32870589  0.32769621  0.99414883  1
  Cr  Cr13  1  0.49436794  0.49153272  0.16222681  1
  Fe  Fe14  1  0.32828518  0.32743138  0.32766797  1
  Cr  Cr15  1  0.32910209  0.66258368  0.99277775  1
  Fe  Fe16  1  0.49475455  0.82697109  0.16140892  1
  Cr  Cr17  1  0.32935583  0.66295299  0.32937533  1
  Cr  Cr18  1  0.66050853  0.99298497  0.99385757  1
  Cr  Cr19  1  0.82602907  0.15793132  0.16018856  1
  Cr  Cr20  1  0.65920023  0.99153076  0.32721448  1
  Fe  Fe21  1  0.66087457  0.32767895  0.99351639  1
  Cr  Cr22  1  0.82617039  0.49878878  0.16278117  1
  Fe  Fe23  1  0.66011059  0.32816324  0.32754577  1
  Cr  Cr24  1  0.66061242  0.66122776  -0.00447610  1
  Fe  Fe25  1  0.82857783  0.82672647  0.16091532  1
  Fe  Fe26  1  0.66132554  0.66159570  0.32705302  1
  Cr  Cr27  1  0.16256470  0.15986036  0.49298785  1
  Cr  Cr28  1  0.99384706  -0.00268666  0.66039203  1
  Cr  Cr29  1  0.16106469  0.15993611  0.82998201  1
  Cr  Cr30  1  0.16250272  0.49689993  0.49399418  1
  Cr  Cr31  1  0.99115493  0.32758928  0.66196839  1
  Cr  Cr32  1  0.16200653  0.49624853  0.82825684  1
  Fe  Fe33  1  0.16169362  0.82670610  0.49438428  1
  Cr  Cr34  1  -0.00506935  0.65792559  0.66038357  1
  Cr  Cr35  1  0.15914842  0.82652702  0.82769267  1
  Cr  Cr36  1  0.49536060  0.16200136  0.49330530  1
  Cr  Cr37  1  0.33035684  0.98981625  0.65881690  1
  Cr  Cr38  1  0.49670444  0.16217750  0.82795427  1
  Cr  Cr39  1  0.49420500  0.49341698  0.49261472  1
  Cr  Cr40  1  0.32609019  0.32853535  0.66044969  1
  Cr  Cr41  1  0.49444004  0.49285333  0.82798666  1
  Fe  Fe42  1  0.49406960  0.82702505  0.49472201  1
  Fe  Fe43  1  0.32790638  0.66214109  0.66046272  1
  Fe  Fe44  1  0.49402824  0.82766491  0.82671873  1
  Cr  Cr45  1  0.82476380  0.15925424  0.49637436  1
  Fe  Fe46  1  0.66065691  -0.00533298  0.66147981  1
  Fe  Fe47  1  0.82663657  0.16181454  0.82761479  1
  Cr  Cr48  1  0.82595518  0.49622477  0.49220501  1
  Fe  Fe49  1  0.66176496  0.32680773  0.66180072  1
  Fe  Fe50  1  0.82697626  0.49309237  0.82806159  1
  Cr  Cr51  1  0.82842142  0.82730986  0.49223817  1
  Cr  Cr52  1  0.65760167  0.66181603  0.66174017  1
  Cr  Cr53  1  0.82860546  0.82877389  0.82907250  1
" 