751,Fe65Cr35_6,-212.582509551304, 192.654758845003,Fe65Cr35,"# generated using pymatgen
 data_Cr35Fe19
_symmetry_space_group_name_H-M   'P 1'
_cell_length_a   7.56354223
_cell_length_b   7.56354223
_cell_length_c   10.69646400
_cell_angle_alpha   90.00000000
_cell_angle_beta   90.00000000
_cell_angle_gamma   90.00000000
_symmetry_Int_Tables_number   1
_chemical_formula_structural   Cr35Fe19
_chemical_formula_sum   'Cr35 Fe19'
_cell_volume   611.91444626
_cell_formula_units_Z   1
loop_
 _symmetry_equiv_pos_site_id
 _symmetry_equiv_pos_as_xyz
  1  'x, y, z'
loop_
 _atom_site_type_symbol
 _atom_site_label
 _atom_site_symmetry_multiplicity
 _atom_site_fract_x
 _atom_site_fract_y
 _atom_site_fract_z
 _atom_site_occupancy
  Fe  Fe0  1  -0.00586765  -0.00600021  -0.00597812  1
  Fe  Fe1  1  0.15990360  0.15835246  0.16067372  1
  Fe  Fe2  1  -0.00593650  -0.00592909  0.32655375  1
  Cr  Cr3  1  0.99153092  0.32515645  -0.00536407  1
  Cr  Cr4  1  0.15890506  0.49250525  0.16171515  1
  Fe  Fe5  1  -0.00594230  0.32666404  0.32733908  1
  Cr  Cr6  1  -0.00577261  0.66259004  -0.00499056  1
  Fe  Fe7  1  0.16027809  0.82927081  0.16029900  1
  Cr  Cr8  1  0.99308501  0.66034488  0.32766902  1
  Fe  Fe9  1  0.32605101  -0.00637569  -0.00567111  1
  Cr  Cr10  1  0.49240773  0.15833194  0.16113928  1
  Fe  Fe11  1  0.32618700  0.99359408  0.32625377  1
  Cr  Cr12  1  0.32913802  0.32656701  0.99307981  1
  Cr  Cr13  1  0.49574013  0.49473799  0.15797871  1
  Cr  Cr14  1  0.32566708  0.32570062  0.32749286  1
  Cr  Cr15  1  0.32673973  0.66148153  0.99344170  1
  Cr  Cr16  1  0.49351609  0.82779015  0.16109576  1
  Cr  Cr17  1  0.32548708  0.66147402  0.32624788  1
  Fe  Fe18  1  0.66067855  -0.00599792  0.99318546  1
  Cr  Cr19  1  0.82873460  0.16025037  0.15909078  1
  Fe  Fe20  1  0.66061797  0.99238173  0.32738167  1
  Fe  Fe21  1  0.66028897  0.32708782  0.99286392  1
  Cr  Cr22  1  0.82621879  0.49363549  0.16060227  1
  Cr  Cr23  1  0.66149884  0.32549098  0.32694345  1
  Fe  Fe24  1  0.65991572  0.65977306  0.99324551  1
  Cr  Cr25  1  0.82651390  0.82697649  0.16059844  1
  Fe  Fe26  1  0.66099272  0.66098486  0.32770040  1
  Cr  Cr27  1  0.15913464  0.16083220  0.49279265  1
  Fe  Fe28  1  0.99290278  -0.00629871  0.66028336  1
  Cr  Cr29  1  0.15856931  0.15858864  0.82631588  1
  Fe  Fe30  1  0.15919432  0.49317862  0.49321173  1
  Cr  Cr31  1  0.99280986  0.32703698  0.65885821  1
  Cr  Cr32  1  0.16112004  0.49322510  0.82496588  1
  Cr  Cr33  1  0.15915038  0.82801877  0.49470332  1
  Cr  Cr34  1  0.99329259  0.66132186  0.65819207  1
  Cr  Cr35  1  0.15968945  0.82905670  0.82756335  1
  Cr  Cr36  1  0.49269852  0.15889696  0.49192048  1
  Cr  Cr37  1  0.32735256  0.99331098  0.66028276  1
  Cr  Cr38  1  0.49447461  0.16112917  0.82780862  1
  Cr  Cr39  1  0.49491055  0.49535778  0.49490281  1
  Cr  Cr40  1  0.32767253  0.32847087  0.66027613  1
  Fe  Fe41  1  0.49473305  0.49409987  0.82735798  1
  Cr  Cr42  1  0.49601803  0.82659796  0.49227638  1
  Cr  Cr43  1  0.32639184  0.65908381  0.66117431  1
  Cr  Cr44  1  0.49448589  0.82537335  0.82748663  1
  Cr  Cr45  1  0.82903303  0.15971158  0.49349286  1
  Cr  Cr46  1  0.66262709  -0.00620672  0.65948881  1
  Fe  Fe47  1  0.82703355  0.15942417  0.82772863  1
  Fe  Fe48  1  0.82734563  0.49477093  0.49322215  1
  Cr  Cr49  1  0.66037763  0.32607057  0.66260920  1
  Cr  Cr50  1  0.82413594  0.49323956  0.82848136  1
  Fe  Fe51  1  0.82649930  0.82664766  0.49322826  1
  Fe  Fe52  1  0.66061396  0.65982922  0.65991872  1
  Cr  Cr53  1  0.82669314  0.82793069  0.82640769  1
" 