3066,Fe65Cr35_15,-212.308178305307, 191.13708807216,Fe65Cr35,"# generated using pymatgen
 data_Cr35Fe19
_symmetry_space_group_name_H-M   'P 1'
_cell_length_a   7.55434045
_cell_length_b   7.55434045
_cell_length_c   10.68345072
_cell_angle_alpha   90.00000000
_cell_angle_beta   90.00000000
_cell_angle_gamma   90.00000000
_symmetry_Int_Tables_number   1
_chemical_formula_structural   Cr35Fe19
_chemical_formula_sum   'Cr35 Fe19'
_cell_volume   609.68380343
_cell_formula_units_Z   1
loop_
 _symmetry_equiv_pos_site_id
 _symmetry_equiv_pos_as_xyz
  1  'x, y, z'
loop_
 _atom_site_type_symbol
 _atom_site_label
 _atom_site_symmetry_multiplicity
 _atom_site_fract_x
 _atom_site_fract_y
 _atom_site_fract_z
 _atom_site_occupancy
  Cr  Cr0  1  -0.00467633  -0.00543527  0.99336811  1
  Fe  Fe1  1  0.16309883  0.15943789  0.16188074  1
  Fe  Fe2  1  -0.00430478  0.99355872  0.32724667  1
  Fe  Fe3  1  0.99308831  0.32698638  -0.00444838  1
  Cr  Cr4  1  0.16251190  0.49105519  0.16042020  1
  Cr  Cr5  1  -0.00533806  0.32829194  0.32695342  1
  Cr  Cr6  1  -0.00540742  0.66042938  -0.00443198  1
  Cr  Cr7  1  0.16251842  0.83079575  0.15986449  1
  Cr  Cr8  1  -0.00337850  0.66183263  0.32820031  1
  Fe  Fe9  1  0.32875128  -0.00493228  -0.00576400  1
  Fe  Fe10  1  0.49217260  0.16070727  0.16387346  1
  Fe  Fe11  1  0.32733934  0.99351319  0.32729564  1
  Cr  Cr12  1  0.33021514  0.32459310  -0.00403468  1
  Fe  Fe13  1  0.49430644  0.49220068  0.16298428  1
  Fe  Fe14  1  0.32930839  0.32834852  0.32581327  1
  Cr  Cr15  1  0.32695509  0.66162366  -0.00568076  1
  Cr  Cr16  1  0.49333211  0.82878395  0.16176199  1
  Fe  Fe17  1  0.32691008  0.66088754  0.32833552  1
  Cr  Cr18  1  0.65869807  -0.00251591  0.99287806  1
  Cr  Cr19  1  0.82926621  0.16075162  0.16343112  1
  Fe  Fe20  1  0.65956852  -0.00450791  0.32731459  1
  Cr  Cr21  1  0.66022349  0.32622648  -0.00342574  1
  Fe  Fe22  1  0.82728982  0.49314758  0.16156320  1
  Fe  Fe23  1  0.65917463  0.32762462  0.32610971  1
  Cr  Cr24  1  0.66097897  0.65913826  -0.00277004  1
  Cr  Cr25  1  0.82686385  0.82905023  0.16190109  1
  Cr  Cr26  1  0.65972826  0.65987540  0.32549409  1
  Cr  Cr27  1  0.16144260  0.16119925  0.49062069  1
  Cr  Cr28  1  -0.00483662  0.99325578  0.66036384  1
  Cr  Cr29  1  0.16097350  0.16087925  0.83100017  1
  Fe  Fe30  1  0.16148328  0.49434516  0.49221689  1
  Cr  Cr31  1  -0.00557363  0.32693928  0.66132989  1
  Cr  Cr32  1  0.16116092  0.49242203  0.82690885  1
  Fe  Fe33  1  0.16325297  0.82836900  0.49156366  1
  Cr  Cr34  1  -0.00295623  0.66232210  0.65865638  1
  Fe  Fe35  1  0.16122460  0.82688156  0.82822707  1
  Cr  Cr36  1  0.49343504  0.16025531  0.49169333  1
  Cr  Cr37  1  0.32770023  0.99354153  0.66335605  1
  Fe  Fe38  1  0.49412872  0.16143351  0.82833654  1
  Cr  Cr39  1  0.49247943  0.49585257  0.49407951  1
  Cr  Cr40  1  0.32793104  0.32672744  0.65944808  1
  Cr  Cr41  1  0.49410777  0.49577031  0.82599409  1
  Fe  Fe42  1  0.49325962  0.82863436  0.49238228  1
  Cr  Cr43  1  0.32549039  0.66267734  0.65700907  1
  Cr  Cr44  1  0.49379030  0.82706779  0.82747012  1
  Cr  Cr45  1  0.82800287  0.15944414  0.49355672  1
  Cr  Cr46  1  0.65970189  -0.00411454  0.66185925  1
  Fe  Fe47  1  0.82746225  0.16165641  0.82847899  1
  Cr  Cr48  1  0.82601958  0.49424711  0.49619744  1
  Cr  Cr49  1  0.66003855  0.32462948  0.66279851  1
  Cr  Cr50  1  0.82758427  0.49403091  0.82830569  1
  Cr  Cr51  1  0.82494676  0.82904058  0.49284126  1
  Fe  Fe52  1  0.66028038  0.66194540  0.65999399  1
  Cr  Cr53  1  0.82628112  0.82708457  0.82718356  1
" 