4074,Fe65Cr35_2,-212.813715206312, 197.323764279446,Fe65Cr35,"# generated using pymatgen
 data_Cr35Fe19
_symmetry_space_group_name_H-M   'P 1'
_cell_length_a   7.56431921
_cell_length_b   7.56431921
_cell_length_c   10.69756282
_cell_angle_alpha   90.00000000
_cell_angle_beta   90.00000000
_cell_angle_gamma   90.00000000
_symmetry_Int_Tables_number   1
_chemical_formula_structural   Cr35Fe19
_chemical_formula_sum   'Cr35 Fe19'
_cell_volume   612.10304670
_cell_formula_units_Z   1
loop_
 _symmetry_equiv_pos_site_id
 _symmetry_equiv_pos_as_xyz
  1  'x, y, z'
loop_
 _atom_site_type_symbol
 _atom_site_label
 _atom_site_symmetry_multiplicity
 _atom_site_fract_x
 _atom_site_fract_y
 _atom_site_fract_z
 _atom_site_occupancy
  Cr  Cr0  1  -0.00535950  -0.00581120  0.99212893  1
  Cr  Cr1  1  0.15791886  0.16062196  0.16059412  1
  Fe  Fe2  1  -0.00597837  -0.00509125  0.32699652  1
  Fe  Fe3  1  0.99217431  0.32639644  -0.00493998  1
  Fe  Fe4  1  0.16153982  0.49378559  0.15956405  1
  Cr  Cr5  1  -0.00436812  0.32778309  0.32578470  1
  Cr  Cr6  1  0.99131101  0.65796938  0.99354303  1
  Cr  Cr7  1  0.16151383  0.82389724  0.16091216  1
  Cr  Cr8  1  0.99159726  0.65751192  0.32709578  1
  Cr  Cr9  1  0.32642430  -0.00421834  0.99095405  1
  Cr  Cr10  1  0.49646960  0.16334972  0.15967795  1
  Cr  Cr11  1  0.32670899  -0.00268833  0.32650119  1
  Cr  Cr12  1  0.32468368  0.32558465  0.99333720  1
  Fe  Fe13  1  0.49253605  0.49307237  0.16029360  1
  Cr  Cr14  1  0.32615702  0.32773737  0.33078681  1
  Fe  Fe15  1  0.32635414  0.65967806  -0.00588840  1
  Cr  Cr16  1  0.48964103  0.82488345  0.16001667  1
  Fe  Fe17  1  0.32670853  0.65754326  0.32699524  1
  Cr  Cr18  1  0.65975910  0.99177745  -0.00598851  1
  Fe  Fe19  1  0.82720515  0.16239096  0.16000431  1
  Cr  Cr20  1  0.66019754  0.99232818  0.32555033  1
  Fe  Fe21  1  0.66181857  0.32736813  -0.00480629  1
  Fe  Fe22  1  0.82640699  0.49016855  0.15975773  1
  Fe  Fe23  1  0.66074894  0.32811191  0.32590399  1
  Cr  Cr24  1  0.66195622  0.65954292  -0.00489545  1
  Cr  Cr25  1  0.82950217  0.82856087  0.16305225  1
  Cr  Cr26  1  0.66071439  0.65860806  0.32652250  1
  Fe  Fe27  1  0.15849949  0.15886007  0.49333547  1
  Fe  Fe28  1  -0.00482813  -0.00515082  0.66052404  1
  Fe  Fe29  1  0.15895683  0.16049932  0.82682124  1
  Fe  Fe30  1  0.16159485  0.49437529  0.49375854  1
  Cr  Cr31  1  -0.00226180  0.32637352  0.66071042  1
  Cr  Cr32  1  0.16095613  0.49565979  0.82872075  1
  Cr  Cr33  1  0.16033673  0.82547355  0.49185344  1
  Cr  Cr34  1  0.99243668  0.65972802  0.66077200  1
  Fe  Fe35  1  0.16010518  0.82698344  0.82635830  1
  Cr  Cr36  1  0.49653660  0.16239485  0.49442148  1
  Cr  Cr37  1  0.32560298  -0.00316844  0.66317464  1
  Cr  Cr38  1  0.49643503  0.16221333  0.82641182  1
  Fe  Fe39  1  0.49296977  0.49438044  0.49379427  1
  Cr  Cr40  1  0.32533813  0.32563844  0.65690421  1
  Cr  Cr41  1  0.49272005  0.49279614  0.82599297  1
  Cr  Cr42  1  0.49105483  0.82572119  0.49345351  1
  Fe  Fe43  1  0.32558019  0.65948439  0.65961530  1
  Cr  Cr44  1  0.49039857  0.82562854  0.82706447  1
  Cr  Cr45  1  0.82727457  0.16050677  0.49311799  1
  Fe  Fe46  1  0.66058761  -0.00517846  0.65997516  1
  Cr  Cr47  1  0.82669455  0.16222412  0.82643584  1
  Cr  Cr48  1  0.82625654  0.49044919  0.49537872  1
  Fe  Fe49  1  0.65998021  0.32684283  0.66001551  1
  Cr  Cr50  1  0.82686914  0.48966288  0.82800522  1
  Cr  Cr51  1  0.82916454  0.82982724  0.49430889  1
  Cr  Cr52  1  0.66073782  0.66099714  0.65948910  1
  Cr  Cr53  1  0.82846116  0.82871455  0.82293202  1
" 