3089,Fe65Cr35_17,-212.598447318319, 193.772237995003,Fe65Cr35,"# generated using pymatgen
 data_Cr35Fe19
_symmetry_space_group_name_H-M   'P 1'
_cell_length_a   7.56160760
_cell_length_b   7.56160760
_cell_length_c   10.69372802
_cell_angle_alpha   90.00000000
_cell_angle_beta   90.00000000
_cell_angle_gamma   90.00000000
_symmetry_Int_Tables_number   1
_chemical_formula_structural   Cr35Fe19
_chemical_formula_sum   'Cr35 Fe19'
_cell_volume   611.44501294
_cell_formula_units_Z   1
loop_
 _symmetry_equiv_pos_site_id
 _symmetry_equiv_pos_as_xyz
  1  'x, y, z'
loop_
 _atom_site_type_symbol
 _atom_site_label
 _atom_site_symmetry_multiplicity
 _atom_site_fract_x
 _atom_site_fract_y
 _atom_site_fract_z
 _atom_site_occupancy
  Fe  Fe0  1  -0.00536906  -0.00588171  0.99148701  1
  Cr  Cr1  1  0.15964085  0.15798353  0.16004071  1
  Fe  Fe2  1  -0.00562339  -0.00543526  0.32762129  1
  Cr  Cr3  1  -0.00495262  0.32760775  0.99341891  1
  Cr  Cr4  1  0.16322753  0.49491690  0.16050470  1
  Cr  Cr5  1  -0.00474431  0.32683716  0.32514509  1
  Cr  Cr6  1  -0.00529121  0.65983422  0.99283476  1
  Cr  Cr7  1  0.16194040  0.82811936  0.15910060  1
  Cr  Cr8  1  0.99285337  0.66092769  0.32664449  1
  Fe  Fe9  1  0.32520374  0.99306721  0.99234814  1
  Cr  Cr10  1  0.49418023  0.16021690  0.15926649  1
  Cr  Cr11  1  0.32684921  -0.00558576  0.32895848  1
  Cr  Cr12  1  0.32497780  0.32651257  0.99128119  1
  Cr  Cr13  1  0.49244084  0.49404351  0.16194490  1
  Cr  Cr14  1  0.32638229  0.32374779  0.32998075  1
  Fe  Fe15  1  0.32595984  0.65961864  0.99189158  1
  Cr  Cr16  1  0.49131497  0.82674277  0.15821977  1
  Fe  Fe17  1  0.32724729  0.66067431  0.32744763  1
  Fe  Fe18  1  0.66137364  -0.00592532  0.99261541  1
  Cr  Cr19  1  0.82728493  0.15913607  0.15767041  1
  Cr  Cr20  1  0.65791075  0.99237557  0.32850509  1
  Cr  Cr21  1  0.66127748  0.32740802  0.99284445  1
  Cr  Cr22  1  0.82527342  0.49222715  0.16452225  1
  Fe  Fe23  1  0.65936375  0.32588307  0.32781953  1
  Cr  Cr24  1  0.66112473  0.66168238  -0.00542985  1
  Cr  Cr25  1  0.82770307  0.82983855  0.16130315  1
  Fe  Fe26  1  0.65835804  0.66019575  0.32738554  1
  Fe  Fe27  1  0.15971094  0.16064076  0.49448695  1
  Fe  Fe28  1  -0.00503583  -0.00525888  0.66164269  1
  Fe  Fe29  1  0.15932218  0.15789751  0.82695749  1
  Cr  Cr30  1  0.16194777  0.49419898  0.49605866  1
  Cr  Cr31  1  -0.00267851  0.32736353  0.66259692  1
  Fe  Fe32  1  0.16347453  0.49562647  0.82568949  1
  Cr  Cr33  1  0.15896540  0.82742440  0.49483253  1
  Fe  Fe34  1  -0.00367733  0.66160982  0.66162677  1
  Fe  Fe35  1  0.16097892  0.82765396  0.82653775  1
  Fe  Fe36  1  0.49328794  0.16157993  0.49434619  1
  Cr  Cr37  1  0.32627585  -0.00406265  0.65743683  1
  Cr  Cr38  1  0.49358604  0.16076536  0.82784020  1
  Cr  Cr39  1  0.49255695  0.49230424  0.49400291  1
  Fe  Fe40  1  0.32727146  0.32734943  0.66165719  1
  Fe  Fe41  1  0.49136244  0.49467429  0.82639831  1
  Cr  Cr42  1  0.49234999  0.82478071  0.49285435  1
  Fe  Fe43  1  0.32603261  0.65927049  0.66258627  1
  Cr  Cr44  1  0.49081089  0.82679496  0.82991527  1
  Cr  Cr45  1  0.82861372  0.16015277  0.49403072  1
  Cr  Cr46  1  0.65826688  0.99332272  0.66038299  1
  Fe  Fe47  1  0.82879893  0.15897801  0.82746304  1
  Cr  Cr48  1  0.82663970  0.49321680  0.49155422  1
  Cr  Cr49  1  0.65910723  0.32640231  0.66061066  1
  Cr  Cr50  1  0.82805410  0.49280793  0.82511820  1
  Cr  Cr51  1  0.82964921  0.82789745  0.49499762  1
  Cr  Cr52  1  0.66109875  0.66144341  0.66013593  1
  Cr  Cr53  1  0.82967920  0.83075400  0.82522496  1
" 