5035,Fe65Cr35_12,-212.39031119573, 193.613057885005,Fe65Cr35,"# generated using pymatgen
 data_Cr35Fe19
_symmetry_space_group_name_H-M   'P 1'
_cell_length_a   7.55406616
_cell_length_b   7.55406616
_cell_length_c   10.68306281
_cell_angle_alpha   90.00000000
_cell_angle_beta   90.00000000
_cell_angle_gamma   90.00000000
_symmetry_Int_Tables_number   1
_chemical_formula_structural   Cr35Fe19
_chemical_formula_sum   'Cr35 Fe19'
_cell_volume   609.61739339
_cell_formula_units_Z   1
loop_
 _symmetry_equiv_pos_site_id
 _symmetry_equiv_pos_as_xyz
  1  'x, y, z'
loop_
 _atom_site_type_symbol
 _atom_site_label
 _atom_site_symmetry_multiplicity
 _atom_site_fract_x
 _atom_site_fract_y
 _atom_site_fract_z
 _atom_site_occupancy
  Cr  Cr0  1  0.99400026  -0.00447185  0.99305428  1
  Cr  Cr1  1  0.16202980  0.16128684  0.15890158  1
  Cr  Cr2  1  0.99350037  -0.00472776  0.32951602  1
  Fe  Fe3  1  0.99252213  0.32816872  0.99265679  1
  Cr  Cr4  1  0.15706178  0.49403958  0.16141635  1
  Cr  Cr5  1  -0.00373380  0.32488606  0.32928676  1
  Cr  Cr6  1  0.99395591  0.66182647  0.99032163  1
  Cr  Cr7  1  0.15960556  0.82752857  0.15888135  1
  Fe  Fe8  1  -0.00545785  0.66116480  0.32722556  1
  Fe  Fe9  1  0.32823715  0.99224449  0.99408503  1
  Cr  Cr10  1  0.49290073  0.15885127  0.15835222  1
  Cr  Cr11  1  0.32617951  0.99379534  0.32554271  1
  Cr  Cr12  1  0.32710747  0.32989296  -0.00323817  1
  Cr  Cr13  1  0.49634633  0.49380427  0.16342894  1
  Cr  Cr14  1  0.32630891  0.32972466  0.33175731  1
  Cr  Cr15  1  0.32933986  0.66256180  0.99297107  1
  Fe  Fe16  1  0.49506138  0.82718671  0.16136683  1
  Cr  Cr17  1  0.33006438  0.65922840  0.32867451  1
  Cr  Cr18  1  0.66231442  0.99244785  -0.00507284  1
  Cr  Cr19  1  0.82789627  0.16277113  0.15998610  1
  Cr  Cr20  1  0.66296019  0.99188822  0.32610421  1
  Cr  Cr21  1  0.66348132  0.32853354  0.98960406  1
  Cr  Cr22  1  0.82951612  0.49730269  0.16033213  1
  Cr  Cr23  1  0.66006304  0.32834426  0.33058812  1
  Cr  Cr24  1  0.65916249  0.66163822  -0.00311063  1
  Fe  Fe25  1  0.82765636  0.82644693  0.16207769  1
  Fe  Fe26  1  0.66154239  0.66148095  0.32692595  1
  Fe  Fe27  1  0.16121639  0.16115617  0.49592278  1
  Cr  Cr28  1  0.99324480  -0.00454004  0.65994256  1
  Cr  Cr29  1  0.16347721  0.15974175  0.83178999  1
  Fe  Fe30  1  0.16182777  0.49464471  0.49651473  1
  Cr  Cr31  1  0.99341334  0.32539318  0.66138674  1
  Cr  Cr32  1  0.15772315  0.49562481  0.82748909  1
  Cr  Cr33  1  0.15968179  0.82541091  0.49825296  1
  Fe  Fe34  1  -0.00510643  0.65968138  0.66144051  1
  Fe  Fe35  1  0.16229772  0.82834147  0.82543349  1
  Cr  Cr36  1  0.49365541  0.16154962  0.49839089  1
  Fe  Fe37  1  0.32639730  -0.00532379  0.66099385  1
  Cr  Cr38  1  0.49443149  0.15951351  0.82609801  1
  Fe  Fe39  1  0.49351484  0.49539324  0.49668243  1
  Fe  Fe40  1  0.32662835  0.32858831  0.65961427  1
  Cr  Cr41  1  0.49467526  0.49208649  0.82436368  1
  Cr  Cr42  1  0.49488810  0.82926367  0.49548705  1
  Fe  Fe43  1  0.32509212  0.65978809  0.66062846  1
  Cr  Cr44  1  0.49180909  0.83118197  0.82624682  1
  Fe  Fe45  1  0.82664364  0.16065404  0.49553672  1
  Fe  Fe46  1  0.66236257  -0.00399077  0.66062609  1
  Fe  Fe47  1  0.82731575  0.16197986  0.82664510  1
  Cr  Cr48  1  0.82916756  0.49629915  0.49328534  1
  Fe  Fe49  1  0.66220372  0.32623900  0.66046963  1
  Fe  Fe50  1  0.82762433  0.49241801  0.82638011  1
  Cr  Cr51  1  0.82808984  0.82523202  0.49122507  1
  Cr  Cr52  1  0.65826075  0.65933635  0.66167513  1
  Cr  Cr53  1  0.82881701  0.82546711  0.82481831  1
" 