3478,Fe65Cr35_9,-212.525728108799, 193.371532922779,Fe65Cr35,"# generated using pymatgen
 data_Cr35Fe19
_symmetry_space_group_name_H-M   'P 1'
_cell_length_a   7.55987788
_cell_length_b   7.55987788
_cell_length_c   10.69128183
_cell_angle_alpha   90.00000000
_cell_angle_beta   90.00000000
_cell_angle_gamma   90.00000000
_symmetry_Int_Tables_number   1
_chemical_formula_structural   Cr35Fe19
_chemical_formula_sum   'Cr35 Fe19'
_cell_volume   611.02550407
_cell_formula_units_Z   1
loop_
 _symmetry_equiv_pos_site_id
 _symmetry_equiv_pos_as_xyz
  1  'x, y, z'
loop_
 _atom_site_type_symbol
 _atom_site_label
 _atom_site_symmetry_multiplicity
 _atom_site_fract_x
 _atom_site_fract_y
 _atom_site_fract_z
 _atom_site_occupancy
  Cr  Cr0  1  0.99209419  -0.00574107  0.99096558  1
  Cr  Cr1  1  0.15975421  0.15841161  0.16234240  1
  Fe  Fe2  1  -0.00566205  0.99337085  0.32671767  1
  Cr  Cr3  1  0.99306143  0.32658816  -0.00433031  1
  Cr  Cr4  1  0.15778714  0.49491915  0.16038365  1
  Fe  Fe5  1  0.99216493  0.32726968  0.32639466  1
  Cr  Cr6  1  -0.00594366  0.66073319  0.99370282  1
  Cr  Cr7  1  0.16006477  0.82825031  0.16036145  1
  Fe  Fe8  1  0.99345654  0.66093703  0.32678836  1
  Fe  Fe9  1  0.32669171  0.99257148  0.99338345  1
  Cr  Cr10  1  0.49473777  0.15988310  0.15970078  1
  Fe  Fe11  1  0.32650219  0.99297163  0.32808247  1
  Cr  Cr12  1  0.32673623  0.32773213  0.99300584  1
  Cr  Cr13  1  0.49670493  0.49344661  0.15773400  1
  Cr  Cr14  1  0.32530597  0.32617983  0.32877883  1
  Fe  Fe15  1  0.32669556  0.66183771  0.99347035  1
  Cr  Cr16  1  0.49294841  0.82825336  0.15931970  1
  Cr  Cr17  1  0.32662851  0.66187545  0.32953222  1
  Cr  Cr18  1  0.66175725  -0.00589876  0.99375844  1
  Fe  Fe19  1  0.82718644  0.16131460  0.16141017  1
  Cr  Cr20  1  0.66061534  0.99335599  0.32652939  1
  Fe  Fe21  1  0.66191643  0.32677387  -0.00574228  1
  Fe  Fe22  1  0.82718843  0.49306582  0.16133403  1
  Fe  Fe23  1  0.66203163  0.32726156  0.32639417  1
  Cr  Cr24  1  0.66062209  0.66171989  -0.00509616  1
  Fe  Fe25  1  0.82800143  0.82720351  0.16140289  1
  Cr  Cr26  1  0.66177790  0.66172020  0.32734066  1
  Cr  Cr27  1  0.16043991  0.15807525  0.49282571  1
  Fe  Fe28  1  0.99385856  0.99289061  0.66141694  1
  Cr  Cr29  1  0.15991092  0.15805328  0.82640760  1
  Cr  Cr30  1  0.15960655  0.49455663  0.49365017  1
  Cr  Cr31  1  -0.00526496  0.32548567  0.66171535  1
  Cr  Cr32  1  0.16138137  0.49532232  0.82756257  1
  Fe  Fe33  1  0.16052104  0.82801480  0.49297007  1
  Cr  Cr34  1  -0.00546195  0.66215881  0.66136317  1
  Fe  Fe35  1  0.16021492  0.82752733  0.82769274  1
  Cr  Cr36  1  0.49337447  0.16066765  0.49432404  1
  Cr  Cr37  1  0.32664684  -0.00604452  0.65819281  1
  Cr  Cr38  1  0.49486757  0.16182556  0.82755086  1
  Cr  Cr39  1  0.49533613  0.49310095  0.49675530  1
  Fe  Fe40  1  0.32807227  0.32724702  0.66051892  1
  Cr  Cr41  1  0.49453868  0.49269743  0.82709737  1
  Fe  Fe42  1  0.49268117  0.82762716  0.49344369  1
  Cr  Cr43  1  0.32696827  0.65984176  0.65942108  1
  Cr  Cr44  1  0.49305705  0.82706010  0.82991733  1
  Cr  Cr45  1  0.82776605  0.16068863  0.49446895  1
  Cr  Cr46  1  0.66236832  0.99377289  0.66130560  1
  Fe  Fe47  1  0.82669826  0.16020585  0.82670802  1
  Cr  Cr48  1  0.82663640  0.49391466  0.49209133  1
  Fe  Fe49  1  0.66004628  0.32684919  0.66092306  1
  Cr  Cr50  1  0.82566420  0.49352069  0.82632244  1
  Cr  Cr51  1  0.82923104  0.82697794  0.49409524  1
  Cr  Cr52  1  0.66007423  0.66200379  0.65933528  1
  Fe  Fe53  1  0.82839864  0.82840963  0.82671710  1
" 