3770,Fe65Cr35_0,-212.450847909122, 186.838891026114,Fe65Cr35,"# generated using pymatgen
 data_Cr35Fe19
_symmetry_space_group_name_H-M   'P 1'
_cell_length_a   7.56387476
_cell_length_b   7.56387476
_cell_length_c   10.69693427
_cell_angle_alpha   90.00000000
_cell_angle_beta   90.00000000
_cell_angle_gamma   90.00000000
_symmetry_Int_Tables_number   1
_chemical_formula_structural   Cr35Fe19
_chemical_formula_sum   'Cr35 Fe19'
_cell_volume   611.99515815
_cell_formula_units_Z   1
loop_
 _symmetry_equiv_pos_site_id
 _symmetry_equiv_pos_as_xyz
  1  'x, y, z'
loop_
 _atom_site_type_symbol
 _atom_site_label
 _atom_site_symmetry_multiplicity
 _atom_site_fract_x
 _atom_site_fract_y
 _atom_site_fract_z
 _atom_site_occupancy
  Cr  Cr0  1  0.98994507  -0.00367837  0.99324980  1
  Cr  Cr1  1  0.15936921  0.15961672  0.16031548  1
  Fe  Fe2  1  0.99355498  0.99191015  0.32801833  1
  Fe  Fe3  1  0.98993650  0.32621385  0.99286311  1
  Cr  Cr4  1  0.15755177  0.49455614  0.16017494  1
  Cr  Cr5  1  0.99320863  0.32581555  0.32541286  1
  Cr  Cr6  1  0.99113878  0.65961948  0.99098430  1
  Cr  Cr7  1  0.15840693  0.82664142  0.16087024  1
  Fe  Fe8  1  -0.00595067  0.66118496  0.32919593  1
  Cr  Cr9  1  0.32693018  0.99319703  0.99287738  1
  Cr  Cr10  1  0.49471923  0.16143814  0.15955098  1
  Cr  Cr11  1  0.32708379  0.99203207  0.32752647  1
  Cr  Cr12  1  0.32602657  0.32834324  -0.00566927  1
  Fe  Fe13  1  0.49379630  0.49321097  0.16004519  1
  Cr  Cr14  1  0.32676050  0.32985437  0.33031583  1
  Cr  Cr15  1  0.32805051  0.65925321  -0.00501757  1
  Cr  Cr16  1  0.49369848  0.82704250  0.15838394  1
  Cr  Cr17  1  0.32744125  0.65895626  0.32837520  1
  Cr  Cr18  1  0.66404092  -0.00564306  -0.00630868  1
  Fe  Fe19  1  0.82782533  0.16042796  0.15973935  1
  Cr  Cr20  1  0.66321990  0.99267095  0.32652151  1
  Fe  Fe21  1  0.66295618  0.32640951  0.99340218  1
  Cr  Cr22  1  0.82638678  0.49284089  0.15850338  1
  Cr  Cr23  1  0.66062838  0.32752757  0.32498595  1
  Cr  Cr24  1  0.66130638  0.65986893  -0.00626881  1
  Cr  Cr25  1  0.82901492  0.82522783  0.16399232  1
  Cr  Cr26  1  0.65903406  0.66078627  0.32749108  1
  Cr  Cr27  1  0.15951274  0.15818920  0.49310220  1
  Fe  Fe28  1  0.99159899  0.99152564  0.66030488  1
  Cr  Cr29  1  0.16017967  0.16006070  0.82747291  1
  Fe  Fe30  1  0.15813301  0.49538638  0.49368135  1
  Cr  Cr31  1  0.99205913  0.32667223  0.66305299  1
  Cr  Cr32  1  0.15726755  0.49419522  0.82741563  1
  Fe  Fe33  1  0.15712278  0.82570158  0.49366310  1
  Fe  Fe34  1  0.99243642  0.66233406  0.66007624  1
  Cr  Cr35  1  0.15851551  0.82660391  0.82765055  1
  Cr  Cr36  1  0.49521488  0.15988337  0.49608305  1
  Cr  Cr37  1  0.32689936  0.99200312  0.66061627  1
  Cr  Cr38  1  0.49583621  0.16070287  0.82465945  1
  Fe  Fe39  1  0.49547123  0.49462665  0.49452667  1
  Cr  Cr40  1  0.32561541  0.32918359  0.65655376  1
  Cr  Cr41  1  0.49740772  0.49252017  0.82690756  1
  Fe  Fe42  1  0.49570429  0.82643283  0.49463282  1
  Cr  Cr43  1  0.32739761  0.65967002  0.65800233  1
  Cr  Cr44  1  0.49568594  0.82751098  0.82708004  1
  Cr  Cr45  1  0.82626025  0.15962494  0.49297545  1
  Fe  Fe46  1  0.66322516  0.99209324  0.66019377  1
  Fe  Fe47  1  0.82596621  0.16102142  0.82583593  1
  Cr  Cr48  1  0.82721319  0.49681132  0.49495815  1
  Fe  Fe49  1  0.66128925  0.32783059  0.66032210  1
  Fe  Fe50  1  0.82562103  0.49303814  0.82606112  1
  Fe  Fe51  1  0.82823384  0.82747191  0.49476375  1
  Fe  Fe52  1  0.66179811  0.66110998  0.65991822  1
  Fe  Fe53  1  0.82661954  0.82683729  0.82432418  1
" 