4875,Fe65Cr35_4,-212.575219131397, 193.261555022224,Fe65Cr35,"# generated using pymatgen
 data_Cr35Fe19
_symmetry_space_group_name_H-M   'P 1'
_cell_length_a   7.56276157
_cell_length_b   7.56276157
_cell_length_c   10.69535998
_cell_angle_alpha   90.00000000
_cell_angle_beta   90.00000000
_cell_angle_gamma   90.00000000
_symmetry_Int_Tables_number   1
_chemical_formula_structural   Cr35Fe19
_chemical_formula_sum   'Cr35 Fe19'
_cell_volume   611.72499158
_cell_formula_units_Z   1
loop_
 _symmetry_equiv_pos_site_id
 _symmetry_equiv_pos_as_xyz
  1  'x, y, z'
loop_
 _atom_site_type_symbol
 _atom_site_label
 _atom_site_symmetry_multiplicity
 _atom_site_fract_x
 _atom_site_fract_y
 _atom_site_fract_z
 _atom_site_occupancy
  Fe  Fe0  1  0.99317731  0.99299207  -0.00534694  1
  Cr  Cr1  1  0.16090568  0.16045290  0.15909946  1
  Cr  Cr2  1  0.99362784  -0.00355890  0.32642010  1
  Cr  Cr3  1  0.99230754  0.32728130  -0.00472660  1
  Fe  Fe4  1  0.15923682  0.49482344  0.16033622  1
  Cr  Cr5  1  0.99277697  0.32785888  0.32605222  1
  Fe  Fe6  1  0.99298783  0.66056627  -0.00540033  1
  Cr  Cr7  1  0.15911755  0.82528183  0.16239363  1
  Fe  Fe8  1  0.99364891  0.66010266  0.32561811  1
  Cr  Cr9  1  0.32819180  0.99232365  -0.00582390  1
  Fe  Fe10  1  0.49512726  0.15983185  0.15876796  1
  Cr  Cr11  1  0.32834886  0.99229291  0.32766486  1
  Fe  Fe12  1  0.32729804  0.32643674  -0.00502455  1
  Cr  Cr13  1  0.49291666  0.49153006  0.15972032  1
  Cr  Cr14  1  0.32543048  0.32499496  0.32716287  1
  Cr  Cr15  1  0.32784329  0.66202594  -0.00590646  1
  Fe  Fe16  1  0.49396524  0.82707288  0.15956178  1
  Fe  Fe17  1  0.32648294  0.66003906  0.32531895  1
  Fe  Fe18  1  0.66091077  -0.00597159  -0.00434928  1
  Fe  Fe19  1  0.82505494  0.16085364  0.15850548  1
  Cr  Cr20  1  0.65886076  0.99347659  0.32503746  1
  Fe  Fe21  1  0.65990680  0.32619030  -0.00422809  1
  Fe  Fe22  1  0.82782185  0.49445850  0.15932266  1
  Cr  Cr23  1  0.66269453  0.32581423  0.32690041  1
  Fe  Fe24  1  0.66176701  0.66064273  -0.00514205  1
  Cr  Cr25  1  0.82764598  0.82802968  0.15897497  1
  Cr  Cr26  1  0.65987314  0.66160499  0.32629277  1
  Fe  Fe27  1  0.16120689  0.15888687  0.49451007  1
  Fe  Fe28  1  -0.00559238  -0.00606770  0.65960723  1
  Cr  Cr29  1  0.16029950  0.15846928  0.82655973  1
  Cr  Cr30  1  0.16120122  0.49547659  0.49030553  1
  Cr  Cr31  1  -0.00600437  0.32625538  0.65885955  1
  Cr  Cr32  1  0.16125220  0.49372009  0.82938849  1
  Cr  Cr33  1  0.15877305  0.82773140  0.49344793  1
  Fe  Fe34  1  -0.00546343  0.65953545  0.66018833  1
  Cr  Cr35  1  0.15687762  0.82865112  0.82568657  1
  Fe  Fe36  1  0.49254967  0.15904407  0.49466324  1
  Fe  Fe37  1  0.32762167  -0.00538485  0.65914157  1
  Cr  Cr38  1  0.49435472  0.16208559  0.82797484  1
  Cr  Cr39  1  0.49272144  0.49189367  0.49379619  1
  Cr  Cr40  1  0.32511563  0.32499779  0.66036302  1
  Cr  Cr41  1  0.49410911  0.49096823  0.82859454  1
  Cr  Cr42  1  0.49334906  0.82762164  0.49276583  1
  Cr  Cr43  1  0.32753786  0.66269177  0.66146222  1
  Cr  Cr44  1  0.49571958  0.82831853  0.82785577  1
  Cr  Cr45  1  0.82631847  0.15780799  0.49398736  1
  Fe  Fe46  1  0.65887332  -0.00525090  0.66006596  1
  Cr  Cr47  1  0.82629380  0.15765920  0.82899525  1
  Cr  Cr48  1  0.82727823  0.49555505  0.49265526  1
  Cr  Cr49  1  0.66181545  0.32677482  0.65878882  1
  Cr  Cr50  1  0.82581181  0.49471232  0.82766034  1
  Cr  Cr51  1  0.82889559  0.82792138  0.49594939  1
  Cr  Cr52  1  0.66056089  0.66207336  0.66160109  1
  Cr  Cr53  1  0.82888585  0.82869351  0.82621313  1
" 