7688,Fe65Cr35_14,-212.382645522247, 192.090923988328,Fe65Cr35,"# generated using pymatgen
 data_Cr35Fe19
_symmetry_space_group_name_H-M   'P 1'
_cell_length_a   7.55664782
_cell_length_b   7.55664782
_cell_length_c   10.68671383
_cell_angle_alpha   90.00000000
_cell_angle_beta   90.00000000
_cell_angle_gamma   90.00000000
_symmetry_Int_Tables_number   1
_chemical_formula_structural   Cr35Fe19
_chemical_formula_sum   'Cr35 Fe19'
_cell_volume   610.24263174
_cell_formula_units_Z   1
loop_
 _symmetry_equiv_pos_site_id
 _symmetry_equiv_pos_as_xyz
  1  'x, y, z'
loop_
 _atom_site_type_symbol
 _atom_site_label
 _atom_site_symmetry_multiplicity
 _atom_site_fract_x
 _atom_site_fract_y
 _atom_site_fract_z
 _atom_site_occupancy
  Cr  Cr0  1  0.99277773  -0.00487508  0.99069126  1
  Cr  Cr1  1  0.16271279  0.15791031  0.16159607  1
  Cr  Cr2  1  0.99317415  -0.00539793  0.33402691  1
  Fe  Fe3  1  0.99381546  0.32638121  0.99392403  1
  Cr  Cr4  1  0.15963098  0.49498263  0.16014866  1
  Cr  Cr5  1  -0.00445599  0.32822431  0.32867897  1
  Cr  Cr6  1  -0.00553879  0.65892354  -0.00496142  1
  Cr  Cr7  1  0.16194886  0.82923254  0.16252028  1
  Fe  Fe8  1  -0.00558694  0.66066117  0.32973099  1
  Cr  Cr9  1  0.33210691  -0.00586187  -0.00486112  1
  Fe  Fe10  1  0.49373226  0.15972087  0.16161553  1
  Fe  Fe11  1  0.32848038  0.99363614  0.32881605  1
  Cr  Cr12  1  0.32840687  0.32732127  0.99403308  1
  Cr  Cr13  1  0.49567714  0.49234326  0.16205217  1
  Cr  Cr14  1  0.32618234  0.32808764  0.32898497  1
  Cr  Cr15  1  0.33007757  0.66064175  0.99295043  1
  Fe  Fe16  1  0.49330789  0.82865084  0.16172518  1
  Cr  Cr17  1  0.32768527  0.66028692  0.32821712  1
  Cr  Cr18  1  0.65775401  -0.00569769  0.99406293  1
  Cr  Cr19  1  0.82637564  0.16185833  0.15929142  1
  Cr  Cr20  1  0.65930005  0.99314076  0.32650555  1
  Fe  Fe21  1  0.65841097  0.32652050  0.99379768  1
  Cr  Cr22  1  0.82656601  0.49351496  0.15814779  1
  Cr  Cr23  1  0.66030186  0.32655130  0.32655796  1
  Cr  Cr24  1  0.65793131  0.66277328  -0.00592725  1
  Cr  Cr25  1  0.82928392  0.82670903  0.16267824  1
  Cr  Cr26  1  0.65957102  0.66257134  0.32789260  1
  Fe  Fe27  1  0.16192902  0.16060745  0.49478440  1
  Cr  Cr28  1  0.99276215  -0.00479525  0.65809367  1
  Cr  Cr29  1  0.16276808  0.16015623  0.82736912  1
  Fe  Fe30  1  0.16287693  0.49478912  0.49501110  1
  Cr  Cr31  1  -0.00397626  0.32700008  0.65955089  1
  Cr  Cr32  1  0.16220314  0.49417631  0.82756710  1
  Fe  Fe33  1  0.16258954  0.82671785  0.49402505  1
  Cr  Cr34  1  -0.00513282  0.66019142  0.65915841  1
  Cr  Cr35  1  0.16271262  0.82780316  0.82776738  1
  Cr  Cr36  1  0.49299831  0.16192309  0.49388757  1
  Cr  Cr37  1  0.32861999  0.99385682  0.66218937  1
  Fe  Fe38  1  0.49472328  0.16191610  0.82634394  1
  Fe  Fe39  1  0.49274523  0.49550511  0.49668888  1
  Fe  Fe40  1  0.32795691  0.32801878  0.65886976  1
  Cr  Cr41  1  0.49542036  0.49298254  0.82070297  1
  Fe  Fe42  1  0.49355186  0.82615467  0.49517118  1
  Fe  Fe43  1  0.32865914  0.66078482  0.65824329  1
  Fe  Fe44  1  0.49438371  0.82674572  0.82599279  1
  Fe  Fe45  1  0.82593739  0.16108436  0.49464200  1
  Cr  Cr46  1  0.66085606  0.99276032  0.66137787  1
  Cr  Cr47  1  0.82488847  0.16315757  0.82743433  1
  Cr  Cr48  1  0.82385031  0.49528672  0.49340307  1
  Fe  Fe49  1  0.66021909  0.32696950  0.65908534  1
  Cr  Cr50  1  0.82457532  0.49284546  0.83052031  1
  Fe  Fe51  1  0.82607108  0.82720410  0.49439210  1
  Fe  Fe52  1  0.65909429  0.66118472  0.65888245  1
  Cr  Cr53  1  0.82694442  0.82601917  0.82580691  1
" 