2138,Fe65Cr35_18,-213.061430449765, 193.413760380548,Fe65Cr35,"# generated using pymatgen
 data_Cr35Fe19
_symmetry_space_group_name_H-M   'P 1'
_cell_length_a   7.56773845
_cell_length_b   7.56773845
_cell_length_c   10.70239835
_cell_angle_alpha   90.00000000
_cell_angle_beta   90.00000000
_cell_angle_gamma   90.00000000
_symmetry_Int_Tables_number   1
_chemical_formula_structural   Cr35Fe19
_chemical_formula_sum   'Cr35 Fe19'
_cell_volume   612.93347256
_cell_formula_units_Z   1
loop_
 _symmetry_equiv_pos_site_id
 _symmetry_equiv_pos_as_xyz
  1  'x, y, z'
loop_
 _atom_site_type_symbol
 _atom_site_label
 _atom_site_symmetry_multiplicity
 _atom_site_fract_x
 _atom_site_fract_y
 _atom_site_fract_z
 _atom_site_occupancy
  Cr  Cr0  1  -0.00554316  -0.00455163  -0.00588685  1
  Fe  Fe1  1  0.16202170  0.16263754  0.16034431  1
  Fe  Fe2  1  0.99231057  0.99257342  0.32639171  1
  Fe  Fe3  1  -0.00253971  0.32705111  -0.00640439  1
  Fe  Fe4  1  0.16010562  0.49107358  0.16003892  1
  Cr  Cr5  1  -0.00420380  0.32919794  0.32608143  1
  Cr  Cr6  1  -0.00468386  0.65705179  -0.00520405  1
  Cr  Cr7  1  0.15802122  0.82896275  0.16240805  1
  Fe  Fe8  1  0.99233004  0.66070958  0.32662313  1
  Cr  Cr9  1  0.32535458  -0.00454353  0.99189306  1
  Fe  Fe10  1  0.49090400  0.16020398  0.16007080  1
  Cr  Cr11  1  0.32816749  -0.00481728  0.32766286  1
  Fe  Fe12  1  0.32320412  0.32613236  -0.00610769  1
  Cr  Cr13  1  0.49173579  0.49093196  0.15903400  1
  Fe  Fe14  1  0.32643792  0.32611829  0.32628127  1
  Cr  Cr15  1  0.32349109  0.65761355  0.99282542  1
  Cr  Cr16  1  0.49118153  0.82583915  0.15765018  1
  Cr  Cr17  1  0.32340003  0.65741118  0.32670239  1
  Cr  Cr18  1  0.66022373  -0.00561598  -0.00595183  1
  Cr  Cr19  1  0.82949246  0.15964688  0.15997371  1
  Cr  Cr20  1  0.66035008  -0.00603043  0.32786607  1
  Cr  Cr21  1  0.66112511  0.32548854  -0.00476913  1
  Cr  Cr22  1  0.82658490  0.49308044  0.15975121  1
  Cr  Cr23  1  0.65898791  0.32452330  0.32671294  1
  Cr  Cr24  1  0.66097079  0.65996771  0.99289620  1
  Fe  Fe25  1  0.82734343  0.82672439  0.16099543  1
  Cr  Cr26  1  0.66132874  0.66127590  0.32710089  1
  Cr  Cr27  1  0.16069128  0.15986073  0.49343694  1
  Cr  Cr28  1  -0.00639111  -0.00556383  0.66075247  1
  Fe  Fe29  1  0.16015258  0.16411337  0.82630573  1
  Fe  Fe30  1  0.15909843  0.49243676  0.49409056  1
  Fe  Fe31  1  -0.00263275  0.32844351  0.66000569  1
  Fe  Fe32  1  0.15926304  0.49028220  0.82597904  1
  Cr  Cr33  1  0.15813966  0.82677029  0.49156708  1
  Fe  Fe34  1  0.99329816  0.65907805  0.65957731  1
  Cr  Cr35  1  0.16007348  0.82823886  0.82658633  1
  Fe  Fe36  1  0.49203035  0.16037377  0.49356333  1
  Cr  Cr37  1  0.32747106  -0.00637478  0.66012515  1
  Cr  Cr38  1  0.49165409  0.16218093  0.82704350  1
  Cr  Cr39  1  0.49249377  0.49241590  0.49349842  1
  Fe  Fe40  1  0.32463896  0.32659407  0.66003887  1
  Cr  Cr41  1  0.49350886  0.49292570  0.82746965  1
  Fe  Fe42  1  0.49393484  0.82626614  0.49364029  1
  Cr  Cr43  1  0.32424213  0.65838366  0.66000187  1
  Cr  Cr44  1  0.49230311  0.82486257  0.82646906  1
  Cr  Cr45  1  0.82884011  0.16024991  0.49354815  1
  Cr  Cr46  1  0.65911389  0.99295884  0.65782510  1
  Cr  Cr47  1  0.83016297  0.16270348  0.82666351  1
  Cr  Cr48  1  0.82733865  0.49459335  0.49550849  1
  Cr  Cr49  1  0.66083225  0.32580172  0.65824085  1
  Cr  Cr50  1  0.82719194  0.49171090  0.82483742  1
  Fe  Fe51  1  0.82728988  0.82586952  0.49373142  1
  Fe  Fe52  1  0.66031447  0.66122693  0.65894437  1
  Cr  Cr53  1  0.82760116  0.82569851  0.82632690  1
" 