5413,Fe65Cr35_19,-212.677675944858, 204.075075479443,Fe65Cr35,"# generated using pymatgen
 data_Cr35Fe19
_symmetry_space_group_name_H-M   'P 1'
_cell_length_a   7.55786471
_cell_length_b   7.55786471
_cell_length_c   10.68843477
_cell_angle_alpha   90.00000000
_cell_angle_beta   90.00000000
_cell_angle_gamma   90.00000000
_symmetry_Int_Tables_number   1
_chemical_formula_structural   Cr35Fe19
_chemical_formula_sum   'Cr35 Fe19'
_cell_volume   610.53749159
_cell_formula_units_Z   1
loop_
 _symmetry_equiv_pos_site_id
 _symmetry_equiv_pos_as_xyz
  1  'x, y, z'
loop_
 _atom_site_type_symbol
 _atom_site_label
 _atom_site_symmetry_multiplicity
 _atom_site_fract_x
 _atom_site_fract_y
 _atom_site_fract_z
 _atom_site_occupancy
  Fe  Fe0  1  -0.00532953  -0.00560718  0.99361064  1
  Cr  Cr1  1  0.16131870  0.15799860  0.16173329  1
  Cr  Cr2  1  0.98886109  -0.00502770  0.32954106  1
  Fe  Fe3  1  -0.00484557  0.32617346  0.99319988  1
  Fe  Fe4  1  0.15962381  0.49358784  0.16015143  1
  Cr  Cr5  1  -0.00339238  0.32734331  0.32761386  1
  Cr  Cr6  1  -0.00203176  0.65968728  0.99345858  1
  Cr  Cr7  1  0.16299484  0.83075468  0.16020937  1
  Cr  Cr8  1  -0.00316783  0.66110511  0.32895380  1
  Fe  Fe9  1  0.32818685  -0.00596972  -0.00589674  1
  Cr  Cr10  1  0.49118890  0.15934452  0.16038129  1
  Fe  Fe11  1  0.32642861  -0.00573058  0.32805819  1
  Cr  Cr12  1  0.32609333  0.33039038  -0.00409540  1
  Cr  Cr13  1  0.50055677  0.49450577  0.16227265  1
  Cr  Cr14  1  0.32596282  0.32982374  0.32773200  1
  Cr  Cr15  1  0.32771160  0.65742555  0.99273079  1
  Fe  Fe16  1  0.49484181  0.82707758  0.16031559  1
  Cr  Cr17  1  0.32692837  0.65741506  0.32558927  1
  Cr  Cr18  1  0.66384527  -0.00551651  0.99340037  1
  Cr  Cr19  1  0.82891739  0.16415622  0.15760381  1
  Cr  Cr20  1  0.66145017  0.99240759  0.32756537  1
  Fe  Fe21  1  0.65995155  0.32720850  0.99354833  1
  Cr  Cr22  1  0.82742190  0.49401123  0.15968874  1
  Cr  Cr23  1  0.65930943  0.32234405  0.32859219  1
  Fe  Fe24  1  0.66035157  0.66107335  0.99376379  1
  Cr  Cr25  1  0.82859435  0.82280649  0.16227412  1
  Fe  Fe26  1  0.66083493  0.65984877  0.32921976  1
  Fe  Fe27  1  0.15858806  0.16226617  0.49496112  1
  Cr  Cr28  1  0.98803701  -0.00422458  0.65958039  1
  Cr  Cr29  1  0.16042585  0.15897130  0.82692885  1
  Fe  Fe30  1  0.16024896  0.49419931  0.49448398  1
  Fe  Fe31  1  0.99266612  0.32721969  0.66000935  1
  Fe  Fe32  1  0.16001826  0.49132983  0.82732174  1
  Cr  Cr33  1  0.16107807  0.83159150  0.49560768  1
  Cr  Cr34  1  -0.00372873  0.65962109  0.66020328  1
  Cr  Cr35  1  0.16140907  0.83091168  0.82630689  1
  Cr  Cr36  1  0.48986591  0.16116054  0.49517361  1
  Fe  Fe37  1  0.32663616  -0.00543733  0.66016629  1
  Cr  Cr38  1  0.49202940  0.16225633  0.82649922  1
  Fe  Fe39  1  0.49372415  0.49483010  0.49398561  1
  Cr  Cr40  1  0.32554886  0.33011898  0.65870278  1
  Cr  Cr41  1  0.50027316  0.49240278  0.82488885  1
  Cr  Cr42  1  0.49076741  0.82731133  0.49281657  1
  Cr  Cr43  1  0.32588752  0.65660032  0.66323597  1
  Cr  Cr44  1  0.49140025  0.82880625  0.82784313  1
  Fe  Fe45  1  0.82696157  0.16248647  0.49469056  1
  Cr  Cr46  1  0.66208086  -0.00283169  0.66088206  1
  Fe  Fe47  1  0.82754827  0.16123266  0.82871772  1
  Cr  Cr48  1  0.82543857  0.49381769  0.49321814  1
  Fe  Fe49  1  0.66299239  0.32743511  0.65895796  1
  Cr  Cr50  1  0.82778414  0.49058033  0.82870139  1
  Fe  Fe51  1  0.82612127  0.82661237  0.49372811  1
  Cr  Cr52  1  0.65991948  0.66475939  0.65924212  1
  Cr  Cr53  1  0.82923253  0.82289658  0.82749220  1
" 