7328,Fe66Cr34_15,-212.543996469774, 192.644319158331,Fe66Cr34,"# generated using pymatgen
 data_Cr35Fe19
_symmetry_space_group_name_H-M   'P 1'
_cell_length_a   7.56005638
_cell_length_b   7.56005638
_cell_length_c   10.69153427
_cell_angle_alpha   90.00000000
_cell_angle_beta   90.00000000
_cell_angle_gamma   90.00000000
_symmetry_Int_Tables_number   1
_chemical_formula_structural   Cr35Fe19
_chemical_formula_sum   'Cr35 Fe19'
_cell_volume   611.06878786
_cell_formula_units_Z   1
loop_
 _symmetry_equiv_pos_site_id
 _symmetry_equiv_pos_as_xyz
  1  'x, y, z'
loop_
 _atom_site_type_symbol
 _atom_site_label
 _atom_site_symmetry_multiplicity
 _atom_site_fract_x
 _atom_site_fract_y
 _atom_site_fract_z
 _atom_site_occupancy
  Cr  Cr0  1  -0.00496221  -0.00424334  0.99209475  1
  Cr  Cr1  1  0.16166348  0.16068650  0.15934108  1
  Cr  Cr2  1  0.99359853  -0.00580701  0.32697202  1
  Fe  Fe3  1  -0.00582758  0.32751074  0.99347229  1
  Cr  Cr4  1  0.15976227  0.49528538  0.16021026  1
  Cr  Cr5  1  0.99218464  0.32808970  0.32821229  1
  Cr  Cr6  1  -0.00497304  0.66001464  -0.00526851  1
  Cr  Cr7  1  0.16038572  0.82557660  0.16168595  1
  Fe  Fe8  1  0.99353370  0.65925460  0.32758188  1
  Cr  Cr9  1  0.32536106  0.99244182  0.99301025  1
  Cr  Cr10  1  0.49452514  0.16147996  0.16382562  1
  Fe  Fe11  1  0.32834327  0.99346514  0.32751037  1
  Cr  Cr12  1  0.32613337  0.32955830  0.99294264  1
  Fe  Fe13  1  0.49461058  0.49385429  0.16060245  1
  Cr  Cr14  1  0.32779048  0.32744858  0.32704974  1
  Fe  Fe15  1  0.32765488  0.66019641  0.99268842  1
  Cr  Cr16  1  0.49313831  0.82745456  0.16154024  1
  Cr  Cr17  1  0.32747886  0.66099741  0.32632759  1
  Cr  Cr18  1  0.66114692  0.99274954  0.99348740  1
  Cr  Cr19  1  0.82535714  0.16209842  0.15989565  1
  Fe  Fe20  1  0.65965847  -0.00531518  0.32797688  1
  Cr  Cr21  1  0.66068724  0.32956151  -0.00351667  1
  Fe  Fe22  1  0.82680143  0.49347689  0.16082919  1
  Fe  Fe23  1  0.66128538  0.32720331  0.32720022  1
  Cr  Cr24  1  0.65737499  0.65923671  0.99306599  1
  Cr  Cr25  1  0.82802073  0.82554428  0.16070731  1
  Cr  Cr26  1  0.66048308  0.65958245  0.32710203  1
  Cr  Cr27  1  0.16301687  0.16116663  0.49523607  1
  Cr  Cr28  1  -0.00501779  -0.00432134  0.66247436  1
  Fe  Fe29  1  0.16075912  0.16092391  0.82679545  1
  Fe  Fe30  1  0.15976285  0.49385799  0.49376792  1
  Cr  Cr31  1  -0.00423739  0.32631559  0.65978211  1
  Fe  Fe32  1  0.16159647  0.49338458  0.82763998  1
  Cr  Cr33  1  0.16068157  0.82572660  0.49180911  1
  Cr  Cr34  1  -0.00501870  0.65954524  0.65782253  1
  Fe  Fe35  1  0.16199395  0.82724059  0.82716398  1
  Cr  Cr36  1  0.49390330  0.15973080  0.49264525  1
  Fe  Fe37  1  0.32718161  0.99381940  0.66135392  1
  Cr  Cr38  1  0.49166724  0.16113698  0.82507770  1
  Cr  Cr39  1  0.49387336  0.49198911  0.49498978  1
  Fe  Fe40  1  0.32641359  0.32720422  0.66127466  1
  Fe  Fe41  1  0.49246053  0.49461389  0.82709523  1
  Fe  Fe42  1  0.49336815  0.82840317  0.49337622  1
  Cr  Cr43  1  0.32841632  0.66017023  0.66264095  1
  Fe  Fe44  1  0.49244495  0.82640128  0.82724868  1
  Fe  Fe45  1  0.82641233  0.16128125  0.49308144  1
  Cr  Cr46  1  0.65973035  0.99269635  0.65988676  1
  Cr  Cr47  1  0.82809636  0.16067473  0.82806852  1
  Fe  Fe48  1  0.82803039  0.49299980  0.49315502  1
  Cr  Cr49  1  0.66036047  0.32789400  0.65875204  1
  Cr  Cr50  1  0.82778908  0.49427297  0.82792449  1
  Cr  Cr51  1  0.82729561  0.82574384  0.49322612  1
  Cr  Cr52  1  0.65814716  0.66095297  0.66138445  1
  Cr  Cr53  1  0.82748370  0.82660128  0.82760823  1
" 