8230,Fe66Cr34_12,-212.474038983706, 192.858898105001,Fe66Cr34,"# generated using pymatgen
 data_Cr35Fe19
_symmetry_space_group_name_H-M   'P 1'
_cell_length_a   7.55515109
_cell_length_b   7.55515109
_cell_length_c   10.68459713
_cell_angle_alpha   90.00000000
_cell_angle_beta   90.00000000
_cell_angle_gamma   90.00000000
_symmetry_Int_Tables_number   1
_chemical_formula_structural   Cr35Fe19
_chemical_formula_sum   'Cr35 Fe19'
_cell_volume   609.88009438
_cell_formula_units_Z   1
loop_
 _symmetry_equiv_pos_site_id
 _symmetry_equiv_pos_as_xyz
  1  'x, y, z'
loop_
 _atom_site_type_symbol
 _atom_site_label
 _atom_site_symmetry_multiplicity
 _atom_site_fract_x
 _atom_site_fract_y
 _atom_site_fract_z
 _atom_site_occupancy
  Cr  Cr0  1  0.99404563  0.99325416  0.99361368  1
  Cr  Cr1  1  0.16043594  0.16073909  0.15962348  1
  Cr  Cr2  1  0.99403056  0.99102783  0.32731390  1
  Cr  Cr3  1  -0.00507732  0.32851461  0.98870393  1
  Cr  Cr4  1  0.16261095  0.49650755  0.16134215  1
  Cr  Cr5  1  -0.00494927  0.32740425  0.32870675  1
  Cr  Cr6  1  0.99191264  0.66081413  -0.00511556  1
  Cr  Cr7  1  0.16084015  0.82519808  0.16284876  1
  Fe  Fe8  1  0.99404951  0.66125966  0.32750114  1
  Cr  Cr9  1  0.32932471  0.99234926  0.99240438  1
  Cr  Cr10  1  0.49743725  0.16016627  0.16166631  1
  Cr  Cr11  1  0.32852075  -0.00535175  0.33128836  1
  Cr  Cr12  1  0.32806874  0.32893156  -0.00421497  1
  Fe  Fe13  1  0.49522509  0.49575106  0.15871509  1
  Cr  Cr14  1  0.32943458  0.32643635  0.32760921  1
  Fe  Fe15  1  0.32918959  0.66141321  -0.00556491  1
  Fe  Fe16  1  0.49634541  0.82702457  0.15941891  1
  Cr  Cr17  1  0.32979197  0.66157932  0.32481050  1
  Fe  Fe18  1  0.65988191  0.99165248  -0.00545955  1
  Cr  Cr19  1  0.82458118  0.15861154  0.15932661  1
  Fe  Fe20  1  0.65923004  0.99297955  0.32739450  1
  Fe  Fe21  1  0.66051390  0.32929320  0.99416583  1
  Cr  Cr22  1  0.82729318  0.49373094  0.16120849  1
  Cr  Cr23  1  0.65798794  0.32849577  0.32908080  1
  Fe  Fe24  1  0.65856807  0.66166845  -0.00475080  1
  Fe  Fe25  1  0.82519867  0.82780923  0.16050382  1
  Cr  Cr26  1  0.66136419  0.66279085  0.32603338  1
  Fe  Fe27  1  0.16179160  0.15947386  0.49485213  1
  Cr  Cr28  1  -0.00277939  -0.00532822  0.66104762  1
  Fe  Fe29  1  0.16279553  0.16069727  0.82729486  1
  Cr  Cr30  1  0.16142231  0.49774290  0.49213407  1
  Cr  Cr31  1  -0.00482390  0.32767125  0.66523890  1
  Fe  Fe32  1  0.16169954  0.49484599  0.82734384  1
  Fe  Fe33  1  0.16156472  0.82751319  0.49482637  1
  Cr  Cr34  1  0.99225861  0.66058749  0.66003565  1
  Cr  Cr35  1  0.16464447  0.82539969  0.82496530  1
  Fe  Fe36  1  0.49323903  0.15982399  0.49460162  1
  Fe  Fe37  1  0.32653544  -0.00578420  0.66053134  1
  Cr  Cr38  1  0.49514941  0.15974623  0.82695348  1
  Cr  Cr39  1  0.49298870  0.49473568  0.49460558  1
  Cr  Cr40  1  0.32658277  0.32491704  0.65890116  1
  Cr  Cr41  1  0.49361289  0.49727806  0.82812879  1
  Cr  Cr42  1  0.49174098  0.82804216  0.49919066  1
  Fe  Fe43  1  0.32781230  0.66159511  0.66135395  1
  Fe  Fe44  1  0.49464643  0.82638821  0.82713263  1
  Cr  Cr45  1  0.82542641  0.16000713  0.49248521  1
  Cr  Cr46  1  0.65869868  0.99199114  0.65990381  1
  Cr  Cr47  1  0.82578164  0.16149818  0.83043147  1
  Cr  Cr48  1  0.82804411  0.49498370  0.49576257  1
  Cr  Cr49  1  0.66072006  0.33001913  0.65979883  1
  Fe  Fe50  1  0.82590472  0.49569734  0.82796705  1
  Cr  Cr51  1  0.82867730  0.82738673  0.49144338  1
  Fe  Fe52  1  0.65990271  0.66090313  0.66196307  1
  Cr  Cr53  1  0.82524976  0.82725939  0.82807527  1
" 