2689,Fe66Cr34_4,-212.572373611181, 194.471512885003,Fe66Cr34,"# generated using pymatgen
 data_Cr35Fe19
_symmetry_space_group_name_H-M   'P 1'
_cell_length_a   7.55792215
_cell_length_b   7.55792215
_cell_length_c   10.68851601
_cell_angle_alpha   90.00000000
_cell_angle_beta   90.00000000
_cell_angle_gamma   90.00000000
_symmetry_Int_Tables_number   1
_chemical_formula_structural   Cr35Fe19
_chemical_formula_sum   'Cr35 Fe19'
_cell_volume   610.55141371
_cell_formula_units_Z   1
loop_
 _symmetry_equiv_pos_site_id
 _symmetry_equiv_pos_as_xyz
  1  'x, y, z'
loop_
 _atom_site_type_symbol
 _atom_site_label
 _atom_site_symmetry_multiplicity
 _atom_site_fract_x
 _atom_site_fract_y
 _atom_site_fract_z
 _atom_site_occupancy
  Cr  Cr0  1  -0.00200752  0.99175719  -0.00457542  1
  Fe  Fe1  1  0.16078026  0.16074023  0.15980179  1
  Cr  Cr2  1  -0.00356764  0.99114879  0.32769056  1
  Cr  Cr3  1  0.99363130  0.32828974  0.99208696  1
  Cr  Cr4  1  0.15909080  0.49245778  0.16150869  1
  Fe  Fe5  1  -0.00551696  0.32628485  0.32717204  1
  Cr  Cr6  1  -0.00409222  0.66187442  0.99076406  1
  Fe  Fe7  1  0.16140738  0.82564439  0.16019143  1
  Fe  Fe8  1  -0.00408842  0.66175691  0.32805524  1
  Fe  Fe9  1  0.32489154  0.99262557  -0.00579229  1
  Cr  Cr10  1  0.49064592  0.15913318  0.15642935  1
  Cr  Cr11  1  0.32450548  0.99253293  0.32440825  1
  Fe  Fe12  1  0.32595340  0.32832337  -0.00586097  1
  Cr  Cr13  1  0.49231117  0.49628847  0.16240022  1
  Cr  Cr14  1  0.32896324  0.32758854  0.32762588  1
  Fe  Fe15  1  0.32522519  0.66107082  0.99368182  1
  Cr  Cr16  1  0.49346742  0.82713549  0.15818576  1
  Fe  Fe17  1  0.32678838  0.66200772  0.32807003  1
  Cr  Cr18  1  0.66142402  -0.00549508  0.99330489  1
  Cr  Cr19  1  0.82987950  0.16130056  0.16158286  1
  Cr  Cr20  1  0.66113122  0.99392649  0.32949410  1
  Cr  Cr21  1  0.65970448  0.32951720  0.99248481  1
  Cr  Cr22  1  0.83046828  0.49576284  0.16293149  1
  Cr  Cr23  1  0.65879892  0.32962105  0.32812923  1
  Cr  Cr24  1  0.66119754  0.65790877  -0.00475725  1
  Cr  Cr25  1  0.82675899  0.82497803  0.16338109  1
  Fe  Fe26  1  0.65948807  0.66176988  0.32866699  1
  Cr  Cr27  1  0.15848262  0.16303896  0.49204995  1
  Cr  Cr28  1  0.99384180  0.99232551  0.65909510  1
  Cr  Cr29  1  0.16126672  0.16268755  0.82897074  1
  Cr  Cr30  1  0.16017501  0.49520100  0.49421629  1
  Cr  Cr31  1  0.99220788  0.32754591  0.66319570  1
  Fe  Fe32  1  0.16194860  0.49588455  0.82768088  1
  Fe  Fe33  1  0.16038901  0.82523944  0.49319861  1
  Cr  Cr34  1  -0.00327914  0.66240386  0.66407781  1
  Fe  Fe35  1  0.16344390  0.82678398  0.82783173  1
  Cr  Cr36  1  0.49431936  0.15825915  0.49695421  1
  Cr  Cr37  1  0.32437857  0.99133390  0.65968050  1
  Cr  Cr38  1  0.49306324  0.15808049  0.82771313  1
  Fe  Fe39  1  0.49361229  0.49564303  0.49329417  1
  Cr  Cr40  1  0.32884199  0.33003083  0.65950995  1
  Cr  Cr41  1  0.49008617  0.49574323  0.82726521  1
  Cr  Cr42  1  0.49526310  0.82569814  0.49553273  1
  Fe  Fe43  1  0.32609986  0.66080597  0.66064825  1
  Cr  Cr44  1  0.49312154  0.82801411  0.82789504  1
  Fe  Fe45  1  0.82755794  0.16016076  0.49393000  1
  Fe  Fe46  1  0.66263505  -0.00583719  0.66031614  1
  Fe  Fe47  1  0.82691729  0.16006648  0.82714417  1
  Cr  Cr48  1  0.83052440  0.49567473  0.49002475  1
  Cr  Cr49  1  0.66085157  0.32749784  0.66119109  1
  Fe  Fe50  1  0.82750417  0.49337558  0.82716655  1
  Fe  Fe51  1  0.82874730  0.82714113  0.49381529  1
  Cr  Cr52  1  0.66050503  0.65841170  0.65959760  1
  Cr  Cr53  1  0.82561383  0.82819808  0.82630162  1
" 