5002,Fe66Cr34_19,-213.130876794128, 193.445547870554,Fe66Cr34,"# generated using pymatgen
 data_Cr35Fe19
_symmetry_space_group_name_H-M   'P 1'
_cell_length_a   7.57217771
_cell_length_b   7.57217771
_cell_length_c   10.70867641
_cell_angle_alpha   90.00000000
_cell_angle_beta   90.00000000
_cell_angle_gamma   90.00000000
_symmetry_Int_Tables_number   1
_chemical_formula_structural   Cr35Fe19
_chemical_formula_sum   'Cr35 Fe19'
_cell_volume   614.01275215
_cell_formula_units_Z   1
loop_
 _symmetry_equiv_pos_site_id
 _symmetry_equiv_pos_as_xyz
  1  'x, y, z'
loop_
 _atom_site_type_symbol
 _atom_site_label
 _atom_site_symmetry_multiplicity
 _atom_site_fract_x
 _atom_site_fract_y
 _atom_site_fract_z
 _atom_site_occupancy
  Fe  Fe0  1  0.99201071  0.99271845  -0.00592790  1
  Cr  Cr1  1  0.15816721  0.15773293  0.16088568  1
  Fe  Fe2  1  0.99229134  -0.00687336  0.32647083  1
  Fe  Fe3  1  0.99202625  0.32604427  -0.00654726  1
  Cr  Cr4  1  0.16009354  0.49584230  0.15935673  1
  Cr  Cr5  1  -0.00574713  0.32440475  0.32889313  1
  Fe  Fe6  1  -0.00611813  0.66041026  -0.00620276  1
  Fe  Fe7  1  0.15863817  0.82597870  0.15937785  1
  Cr  Cr8  1  0.99292593  0.66200418  0.32583522  1
  Cr  Cr9  1  0.32610030  -0.00679675  0.99218268  1
  Fe  Fe10  1  0.49443348  0.16052576  0.15904282  1
  Cr  Cr11  1  0.32504457  -0.00672456  0.32622462  1
  Cr  Cr12  1  0.32744910  0.32633927  -0.00658467  1
  Fe  Fe13  1  0.49265346  0.49267539  0.15931846  1
  Cr  Cr14  1  0.32637136  0.32741431  0.32731365  1
  Fe  Fe15  1  0.32571700  0.65972964  -0.00625881  1
  Cr  Cr16  1  0.49148062  0.82639433  0.16044198  1
  Fe  Fe17  1  0.32681853  0.65930933  0.32680322  1
  Fe  Fe18  1  0.66069426  -0.00585129  -0.00585098  1
  Fe  Fe19  1  0.82604323  0.15869392  0.15861805  1
  Cr  Cr20  1  0.66205907  0.99195014  0.32594074  1
  Fe  Fe21  1  0.66001708  0.32529002  -0.00584923  1
  Cr  Cr22  1  0.82601362  0.49153850  0.15718484  1
  Cr  Cr23  1  0.65854741  0.32655032  0.32395584  1
  Cr  Cr24  1  0.66109851  0.65963784  0.99296162  1
  Fe  Fe25  1  0.82788608  0.82775623  0.15897396  1
  Cr  Cr26  1  0.65905024  0.66067056  0.32854715  1
  Fe  Fe27  1  0.15861358  0.16013619  0.49265973  1
  Cr  Cr28  1  0.99275376  -0.00620842  0.65765559  1
  Cr  Cr29  1  0.15920429  0.15938201  0.82485341  1
  Fe  Fe30  1  0.16084220  0.49265561  0.49265847  1
  Cr  Cr31  1  -0.00506353  0.32608389  0.65839825  1
  Cr  Cr32  1  0.15793880  0.49414461  0.82718496  1
  Cr  Cr33  1  0.16052204  0.82673456  0.49082990  1
  Cr  Cr34  1  0.99149037  0.65930017  0.66072491  1
  Cr  Cr35  1  0.16030418  0.82564618  0.82945176  1
  Cr  Cr36  1  0.49306571  0.15901467  0.49377126  1
  Cr  Cr37  1  0.32646689  -0.00572193  0.66076323  1
  Cr  Cr38  1  0.49436158  0.15858988  0.82757205  1
  Fe  Fe39  1  0.49193489  0.49417796  0.49272083  1
  Cr  Cr40  1  0.32460025  0.32591173  0.65844357  1
  Cr  Cr41  1  0.49375806  0.49306928  0.82683640  1
  Fe  Fe42  1  0.49347411  0.82528316  0.49265111  1
  Cr  Cr43  1  0.32756024  0.65898395  0.65922834  1
  Cr  Cr44  1  0.49218364  0.82751462  0.82451661  1
  Fe  Fe45  1  0.82749715  0.15859777  0.49272293  1
  Cr  Cr46  1  0.65995345  0.99083091  0.65918744  1
  Cr  Cr47  1  0.82561005  0.16095637  0.82820687  1
  Cr  Cr48  1  0.82639573  0.49261627  0.49451661  1
  Cr  Cr49  1  0.65963732  0.32717567  0.65993948  1
  Cr  Cr50  1  0.82747986  0.49196856  0.82748181  1
  Fe  Fe51  1  0.82597530  0.82751371  0.49271935  1
  Cr  Cr52  1  0.66012495  0.66116680  0.65765384  1
  Cr  Cr53  1  0.82668850  0.82624957  0.82668302  1
" 