2566,Fe66Cr34_7,-212.545017473713, 195.015121908894,Fe66Cr34,"# generated using pymatgen
 data_Cr35Fe19
_symmetry_space_group_name_H-M   'P 1'
_cell_length_a   7.55848762
_cell_length_b   7.55848762
_cell_length_c   10.68931570
_cell_angle_alpha   90.00000000
_cell_angle_beta   90.00000000
_cell_angle_gamma   90.00000000
_symmetry_Int_Tables_number   1
_chemical_formula_structural   Cr35Fe19
_chemical_formula_sum   'Cr35 Fe19'
_cell_volume   610.68846336
_cell_formula_units_Z   1
loop_
 _symmetry_equiv_pos_site_id
 _symmetry_equiv_pos_as_xyz
  1  'x, y, z'
loop_
 _atom_site_type_symbol
 _atom_site_label
 _atom_site_symmetry_multiplicity
 _atom_site_fract_x
 _atom_site_fract_y
 _atom_site_fract_z
 _atom_site_occupancy
  Fe  Fe0  1  -0.00519631  -0.00534115  -0.00527377  1
  Fe  Fe1  1  0.16029170  0.16016114  0.16093172  1
  Cr  Cr2  1  -0.00331906  -0.00479674  0.32648038  1
  Fe  Fe3  1  0.99317578  0.32652279  -0.00527726  1
  Cr  Cr4  1  0.15845951  0.49357783  0.16196900  1
  Fe  Fe5  1  -0.00498560  0.32697757  0.32691217  1
  Cr  Cr6  1  0.99278838  0.66162519  -0.00458837  1
  Fe  Fe7  1  0.16068478  0.82889685  0.16063634  1
  Cr  Cr8  1  0.99155419  0.66075513  0.32640716  1
  Cr  Cr9  1  0.32377326  -0.00476054  -0.00426496  1
  Cr  Cr10  1  0.49349775  0.16006295  0.16118884  1
  Fe  Fe11  1  0.32656841  -0.00535863  0.32730813  1
  Cr  Cr12  1  0.32786621  0.32657448  0.99310222  1
  Cr  Cr13  1  0.49440617  0.49305856  0.16043754  1
  Fe  Fe14  1  0.32610594  0.32612687  0.32769578  1
  Cr  Cr15  1  0.32784815  0.66003977  0.99165886  1
  Cr  Cr16  1  0.49188491  0.82872747  0.16192660  1
  Cr  Cr17  1  0.32891913  0.66027483  0.32780923  1
  Cr  Cr18  1  0.66232800  -0.00521961  0.99243413  1
  Cr  Cr19  1  0.82801412  0.16304054  0.15791336  1
  Cr  Cr20  1  0.66030204  0.99194344  0.33046980  1
  Fe  Fe21  1  0.66132120  0.32814780  -0.00596942  1
  Fe  Fe22  1  0.82752800  0.49275758  0.16023647  1
  Cr  Cr23  1  0.65981877  0.32993911  0.32632890  1
  Cr  Cr24  1  0.66121903  0.65753414  -0.00405577  1
  Cr  Cr25  1  0.82852412  0.82685737  0.16018147  1
  Cr  Cr26  1  0.66138066  0.65996562  0.32738380  1
  Fe  Fe27  1  0.16052938  0.16148384  0.49326078  1
  Cr  Cr28  1  0.99289366  -0.00579436  0.66046776  1
  Cr  Cr29  1  0.15893022  0.16158156  0.82811106  1
  Cr  Cr30  1  0.16013158  0.49371773  0.49548442  1
  Fe  Fe31  1  0.99356359  0.32767969  0.66022255  1
  Cr  Cr32  1  0.16035009  0.49593790  0.82438769  1
  Cr  Cr33  1  0.16198045  0.82536617  0.49474356  1
  Fe  Fe34  1  -0.00552005  0.66021768  0.66021040  1
  Cr  Cr35  1  0.16110638  0.82434178  0.82821966  1
  Cr  Cr36  1  0.49451169  0.15902392  0.49282937  1
  Cr  Cr37  1  0.32682211  -0.00531020  0.65979022  1
  Cr  Cr38  1  0.49757081  0.16112786  0.82783574  1
  Fe  Fe39  1  0.49355936  0.49431824  0.49426460  1
  Cr  Cr40  1  0.32760034  0.32864304  0.66044763  1
  Fe  Fe41  1  0.49436364  0.49354940  0.82695235  1
  Fe  Fe42  1  0.49441519  0.82681255  0.49435222  1
  Fe  Fe43  1  0.32759847  0.66029594  0.66021609  1
  Cr  Cr44  1  0.49274965  0.82744504  0.82643713  1
  Cr  Cr45  1  0.82643433  0.16087815  0.49657104  1
  Fe  Fe46  1  0.66053185  -0.00596610  0.65982367  1
  Cr  Cr47  1  0.82534547  0.16188938  0.82736769  1
  Cr  Cr48  1  0.82956204  0.49325571  0.49340213  1
  Fe  Fe49  1  0.66061379  0.32713463  0.66052573  1
  Cr  Cr50  1  0.82845154  0.49111544  0.82822401  1
  Fe  Fe51  1  0.82653999  0.82728296  0.49473801  1
  Cr  Cr52  1  0.65997515  0.66039704  0.65852615  1
  Cr  Cr53  1  0.82799326  0.82884788  0.82596921  1
" 