7398,Fe66Cr34_2,-212.453984526715, 193.208389091667,Fe66Cr34,"# generated using pymatgen
 data_Cr35Fe19
_symmetry_space_group_name_H-M   'P 1'
_cell_length_a   7.55658490
_cell_length_b   7.55658490
_cell_length_c   10.68662485
_cell_angle_alpha   90.00000000
_cell_angle_beta   90.00000000
_cell_angle_gamma   90.00000000
_symmetry_Int_Tables_number   1
_chemical_formula_structural   Cr35Fe19
_chemical_formula_sum   'Cr35 Fe19'
_cell_volume   610.22738805
_cell_formula_units_Z   1
loop_
 _symmetry_equiv_pos_site_id
 _symmetry_equiv_pos_as_xyz
  1  'x, y, z'
loop_
 _atom_site_type_symbol
 _atom_site_label
 _atom_site_symmetry_multiplicity
 _atom_site_fract_x
 _atom_site_fract_y
 _atom_site_fract_z
 _atom_site_occupancy
  Fe  Fe0  1  -0.00449076  0.99373824  0.99257851  1
  Cr  Cr1  1  0.15884470  0.16002296  0.16274933  1
  Fe  Fe2  1  0.99348357  0.99222754  0.32891808  1
  Cr  Cr3  1  -0.00582406  0.32947842  0.99349213  1
  Fe  Fe4  1  0.15813049  0.49570418  0.16129004  1
  Fe  Fe5  1  0.99396399  0.32887514  0.32771802  1
  Fe  Fe6  1  -0.00479139  0.66052640  0.99334413  1
  Cr  Cr7  1  0.15668574  0.82791432  0.16073783  1
  Fe  Fe8  1  -0.00576162  0.66104521  0.32935945  1
  Cr  Cr9  1  0.32686647  0.99188853  -0.00472353  1
  Cr  Cr10  1  0.49305708  0.16111389  0.16282480  1
  Cr  Cr11  1  0.32798629  0.99178022  0.32840752  1
  Cr  Cr12  1  0.32514415  0.32971886  -0.00431619  1
  Cr  Cr13  1  0.49490997  0.49576126  0.15820881  1
  Cr  Cr14  1  0.32587199  0.32842353  0.32410906  1
  Cr  Cr15  1  0.32467802  0.66087507  0.99194783  1
  Cr  Cr16  1  0.49628030  0.82518271  0.15885893  1
  Cr  Cr17  1  0.32456728  0.66226338  0.32681269  1
  Cr  Cr18  1  0.66085005  -0.00556472  0.99276821  1
  Cr  Cr19  1  0.83047003  0.15854873  0.15900955  1
  Cr  Cr20  1  0.66008369  0.99349978  0.33047886  1
  Cr  Cr21  1  0.66253098  0.32721389  0.99343182  1
  Cr  Cr22  1  0.82839691  0.49751367  0.16299323  1
  Cr  Cr23  1  0.66334993  0.32701890  0.32828915  1
  Fe  Fe24  1  0.66017095  0.65993455  0.99269632  1
  Cr  Cr25  1  0.82908103  0.82598304  0.15899673  1
  Cr  Cr26  1  0.66256923  0.66166884  0.32964603  1
  Cr  Cr27  1  0.16186588  0.16022366  0.49329743  1
  Cr  Cr28  1  0.99406201  0.99229313  0.66290489  1
  Cr  Cr29  1  0.16050845  0.15992812  0.82657056  1
  Cr  Cr30  1  0.16124996  0.49372835  0.49414885  1
  Cr  Cr31  1  0.99322695  0.32923480  0.66252670  1
  Fe  Fe32  1  0.16214829  0.49576340  0.82631399  1
  Fe  Fe33  1  0.15967695  0.82694151  0.49331637  1
  Cr  Cr34  1  -0.00317358  0.66071651  0.65892747  1
  Fe  Fe35  1  0.16122251  0.82553416  0.82768070  1
  Fe  Fe36  1  0.49283657  0.16164671  0.49444380  1
  Cr  Cr37  1  0.32793437  0.98949458  0.65833202  1
  Cr  Cr38  1  0.49203706  0.16286492  0.82510073  1
  Cr  Cr39  1  0.49352458  0.49396448  0.49721929  1
  Fe  Fe40  1  0.32709831  0.32884214  0.66137416  1
  Fe  Fe41  1  0.49223157  0.49595386  0.82651847  1
  Fe  Fe42  1  0.49284042  0.82703765  0.49419310  1
  Fe  Fe43  1  0.32723029  0.66067727  0.66238453  1
  Fe  Fe44  1  0.49340104  0.82545172  0.82712012  1
  Cr  Cr45  1  0.82972517  0.15981801  0.49491075  1
  Cr  Cr46  1  0.66010907  0.99356764  0.65887283  1
  Fe  Fe47  1  0.82759891  0.16019604  0.82777704  1
  Fe  Fe48  1  0.82909540  0.49469252  0.49312936  1
  Cr  Cr49  1  0.66258281  0.32671186  0.66080795  1
  Cr  Cr50  1  0.82537102  0.49705176  0.82723547  1
  Fe  Fe51  1  0.82978966  0.82600293  0.49343100  1
  Cr  Cr52  1  0.66046515  0.66224518  0.65946558  1
  Cr  Cr53  1  0.82831562  0.82714000  0.83144895  1
" 