5137,Fe66Cr34_14,-212.411348002194, 193.246932745011,Fe66Cr34,"# generated using pymatgen
 data_Cr35Fe19
_symmetry_space_group_name_H-M   'P 1'
_cell_length_a   7.55697894
_cell_length_b   7.55697894
_cell_length_c   10.68718211
_cell_angle_alpha   90.00000000
_cell_angle_beta   90.00000000
_cell_angle_gamma   90.00000000
_symmetry_Int_Tables_number   1
_chemical_formula_structural   Cr35Fe19
_chemical_formula_sum   'Cr35 Fe19'
_cell_volume   610.32285474
_cell_formula_units_Z   1
loop_
 _symmetry_equiv_pos_site_id
 _symmetry_equiv_pos_as_xyz
  1  'x, y, z'
loop_
 _atom_site_type_symbol
 _atom_site_label
 _atom_site_symmetry_multiplicity
 _atom_site_fract_x
 _atom_site_fract_y
 _atom_site_fract_z
 _atom_site_occupancy
  Fe  Fe0  1  0.99282146  0.99109400  -0.00419895  1
  Cr  Cr1  1  0.16176125  0.15871373  0.15783781  1
  Cr  Cr2  1  0.99285646  -0.00577952  0.32478994  1
  Cr  Cr3  1  0.99271230  0.32824467  -0.00338899  1
  Fe  Fe4  1  0.16212272  0.49412593  0.15976322  1
  Cr  Cr5  1  -0.00540856  0.32829078  0.32751095  1
  Fe  Fe6  1  0.99337584  0.66153620  -0.00447566  1
  Fe  Fe7  1  0.16032843  0.82650917  0.15919266  1
  Cr  Cr8  1  -0.00237452  0.65987060  0.32424525  1
  Fe  Fe9  1  0.32841326  0.99228915  -0.00548706  1
  Cr  Cr10  1  0.49273599  0.16118073  0.15960747  1
  Cr  Cr11  1  0.32771116  0.99243649  0.32928878  1
  Fe  Fe12  1  0.32766587  0.32944249  -0.00568584  1
  Cr  Cr13  1  0.49444435  0.49396842  0.16173722  1
  Cr  Cr14  1  0.32568450  0.32969988  0.32971133  1
  Cr  Cr15  1  0.32629853  0.66112153  -0.00503301  1
  Cr  Cr16  1  0.49380413  0.82678774  0.16353298  1
  Fe  Fe17  1  0.32661654  0.65989103  0.32637651  1
  Fe  Fe18  1  0.66083649  0.99324707  -0.00510555  1
  Fe  Fe19  1  0.82603377  0.15930309  0.15828477  1
  Cr  Cr20  1  0.66148243  0.99404571  0.32783859  1
  Fe  Fe21  1  0.65946970  0.32837962  -0.00585092  1
  Cr  Cr22  1  0.82576203  0.49614994  0.16057135  1
  Cr  Cr23  1  0.66215406  0.32535894  0.32614953  1
  Cr  Cr24  1  0.65825835  0.66165708  0.99088247  1
  Fe  Fe25  1  0.82714423  0.82832101  0.15852561  1
  Fe  Fe26  1  0.66235712  0.66082383  0.32624968  1
  Cr  Cr27  1  0.16396773  0.16109755  0.49708274  1
  Cr  Cr28  1  0.99316520  -0.00496409  0.66036995  1
  Cr  Cr29  1  0.16254778  0.16027359  0.82791607  1
  Fe  Fe30  1  0.16132960  0.49664558  0.49503665  1
  Cr  Cr31  1  -0.00537027  0.32914674  0.65790033  1
  Cr  Cr32  1  0.15992168  0.49304567  0.82671620  1
  Cr  Cr33  1  0.16005470  0.82727954  0.49359535  1
  Fe  Fe34  1  -0.00439210  0.66124312  0.66047115  1
  Cr  Cr35  1  0.15943362  0.82879662  0.82916026  1
  Fe  Fe36  1  0.49488002  0.16142220  0.49447180  1
  Cr  Cr37  1  0.33021451  0.99182319  0.66078201  1
  Cr  Cr38  1  0.49162759  0.16190226  0.83065778  1
  Cr  Cr39  1  0.49545062  0.49450787  0.49216479  1
  Fe  Fe40  1  0.32931174  0.32789651  0.66025065  1
  Fe  Fe41  1  0.49277513  0.49387778  0.82781284  1
  Cr  Cr42  1  0.49514953  0.82475444  0.49165588  1
  Cr  Cr43  1  0.32844747  0.66003120  0.66222019  1
  Fe  Fe44  1  0.49381878  0.82786536  0.82829334  1
  Cr  Cr45  1  0.82837893  0.16091988  0.49297184  1
  Cr  Cr46  1  0.65923947  0.99367334  0.66041249  1
  Cr  Cr47  1  0.82796536  0.16050671  0.83115562  1
  Cr  Cr48  1  0.82631441  0.49721465  0.49543763  1
  Cr  Cr49  1  0.66001008  0.32664732  0.66215038  1
  Cr  Cr50  1  0.82613260  0.49599321  0.82489278  1
  Cr  Cr51  1  0.82723515  0.82403628  0.49497410  1
  Fe  Fe52  1  0.65828229  0.66096442  0.66204734  1
  Cr  Cr53  1  0.82772876  0.82537804  0.82521800  1
" 