2483,Fe66Cr34_6,-212.480308837242, 196.182600158331,Fe66Cr34,"# generated using pymatgen
 data_Cr35Fe19
_symmetry_space_group_name_H-M   'P 1'
_cell_length_a   7.55449652
_cell_length_b   7.55449652
_cell_length_c   10.68367143
_cell_angle_alpha   90.00000000
_cell_angle_beta   90.00000000
_cell_angle_gamma   90.00000000
_symmetry_Int_Tables_number   1
_chemical_formula_structural   Cr35Fe19
_chemical_formula_sum   'Cr35 Fe19'
_cell_volume   609.72159042
_cell_formula_units_Z   1
loop_
 _symmetry_equiv_pos_site_id
 _symmetry_equiv_pos_as_xyz
  1  'x, y, z'
loop_
 _atom_site_type_symbol
 _atom_site_label
 _atom_site_symmetry_multiplicity
 _atom_site_fract_x
 _atom_site_fract_y
 _atom_site_fract_z
 _atom_site_occupancy
  Cr  Cr0  1  0.99238823  0.99323546  0.99185276  1
  Cr  Cr1  1  0.16078559  0.15796121  0.16151587  1
  Fe  Fe2  1  0.99373346  0.99416411  0.32761718  1
  Fe  Fe3  1  0.99407552  0.32766829  -0.00508881  1
  Cr  Cr4  1  0.15989009  0.49303321  0.16073047  1
  Cr  Cr5  1  0.99227775  0.32859229  0.32874421  1
  Cr  Cr6  1  0.99347825  0.65943934  -0.00492107  1
  Fe  Fe7  1  0.16071336  0.82900691  0.16172993  1
  Cr  Cr8  1  -0.00490804  0.66061023  0.32543602  1
  Cr  Cr9  1  0.32996010  -0.00430753  -0.00453525  1
  Fe  Fe10  1  0.49461897  0.16070784  0.15957612  1
  Fe  Fe11  1  0.32735108  -0.00552450  0.32670140  1
  Fe  Fe12  1  0.32747152  0.32737567  -0.00502557  1
  Cr  Cr13  1  0.49769701  0.49406016  0.15818052  1
  Cr  Cr14  1  0.32906173  0.32755490  0.32704486  1
  Cr  Cr15  1  0.32589215  0.65997601  -0.00574571  1
  Cr  Cr16  1  0.49386489  0.82805366  0.16269260  1
  Cr  Cr17  1  0.32602167  0.66132961  0.32832792  1
  Fe  Fe18  1  0.66124606  0.99397774  -0.00562919  1
  Cr  Cr19  1  0.82832872  0.16167972  0.16089768  1
  Cr  Cr20  1  0.66050645  -0.00334223  0.33004680  1
  Fe  Fe21  1  0.66130383  0.32702464  -0.00459248  1
  Fe  Fe22  1  0.82697526  0.49370347  0.15903625  1
  Cr  Cr23  1  0.66130133  0.32536833  0.32550758  1
  Fe  Fe24  1  0.66159886  0.66167462  -0.00548283  1
  Cr  Cr25  1  0.82766927  0.82698293  0.16022220  1
  Cr  Cr26  1  0.66166635  0.66071815  0.32911644  1
  Cr  Cr27  1  0.15827545  0.16070227  0.49504029  1
  Cr  Cr28  1  0.99062934  0.99390755  0.66154659  1
  Cr  Cr29  1  0.16008889  0.16298610  0.82633218  1
  Fe  Fe30  1  0.16069928  0.49287419  0.49526303  1
  Fe  Fe31  1  0.99347837  0.32766054  0.65933393  1
  Cr  Cr32  1  0.16096811  0.49030889  0.82484097  1
  Cr  Cr33  1  0.16062894  0.83010116  0.48905643  1
  Cr  Cr34  1  0.99388558  0.66024275  0.66148273  1
  Cr  Cr35  1  0.16028660  0.82900014  0.82968402  1
  Cr  Cr36  1  0.49347847  0.16110623  0.49368340  1
  Cr  Cr37  1  0.32963234  -0.00570196  0.66182099  1
  Cr  Cr38  1  0.49419163  0.16292342  0.83035936  1
  Cr  Cr39  1  0.49549130  0.49592584  0.49784952  1
  Fe  Fe40  1  0.32723773  0.32706098  0.65988651  1
  Cr  Cr41  1  0.49628006  0.49442007  0.82628256  1
  Fe  Fe42  1  0.49528381  0.82781655  0.49449270  1
  Cr  Cr43  1  0.32669790  0.65928513  0.65934104  1
  Cr  Cr44  1  0.49830043  0.82527831  0.82691614  1
  Fe  Fe45  1  0.82788356  0.16061202  0.49490206  1
  Cr  Cr46  1  0.66227122  -0.00506925  0.66065148  1
  Cr  Cr47  1  0.82840795  0.16196658  0.82696992  1
  Cr  Cr48  1  0.82649805  0.49378395  0.49463889  1
  Fe  Fe49  1  0.66176223  0.32750262  0.66058817  1
  Cr  Cr50  1  0.82525936  0.49476957  0.82998129  1
  Fe  Fe51  1  0.82684788  0.82849287  0.49404616  1
  Fe  Fe52  1  0.66236688  0.66231286  0.66016032  1
  Fe  Fe53  1  0.82565413  0.82646137  0.82834839  1
" 