3633,Fe66Cr34_11,-212.57211547391, 194.480876026112,Fe66Cr34,"# generated using pymatgen
 data_Cr35Fe19
_symmetry_space_group_name_H-M   'P 1'
_cell_length_a   7.55662735
_cell_length_b   7.55662735
_cell_length_c   10.68668488
_cell_angle_alpha   90.00000000
_cell_angle_beta   90.00000000
_cell_angle_gamma   90.00000000
_symmetry_Int_Tables_number   1
_chemical_formula_structural   Cr35Fe19
_chemical_formula_sum   'Cr35 Fe19'
_cell_volume   610.23767249
_cell_formula_units_Z   1
loop_
 _symmetry_equiv_pos_site_id
 _symmetry_equiv_pos_as_xyz
  1  'x, y, z'
loop_
 _atom_site_type_symbol
 _atom_site_label
 _atom_site_symmetry_multiplicity
 _atom_site_fract_x
 _atom_site_fract_y
 _atom_site_fract_z
 _atom_site_occupancy
  Cr  Cr0  1  0.99184439  0.99397781  0.99362984  1
  Cr  Cr1  1  0.16232659  0.16166660  0.16155440  1
  Cr  Cr2  1  0.99377583  0.99181007  0.32661625  1
  Fe  Fe3  1  0.99297855  0.32659687  0.99405272  1
  Cr  Cr4  1  0.15868809  0.49332453  0.15827074  1
  Cr  Cr5  1  -0.00587255  0.32307691  0.32812521  1
  Cr  Cr6  1  0.99361931  0.66540819  -0.00537234  1
  Cr  Cr7  1  0.16291700  0.82702951  0.16263473  1
  Fe  Fe8  1  0.99361239  0.66079892  0.32672573  1
  Cr  Cr9  1  0.32619741  0.99269263  -0.00396012  1
  Fe  Fe10  1  0.49488181  0.15801322  0.16156488  1
  Fe  Fe11  1  0.32989714  -0.00458420  0.32737404  1
  Cr  Cr12  1  0.32937813  0.32851157  -0.00402661  1
  Cr  Cr13  1  0.49494377  0.49484714  0.16084348  1
  Cr  Cr14  1  0.33007506  0.32579943  0.32986408  1
  Fe  Fe15  1  0.32796293  0.66220111  -0.00542020  1
  Fe  Fe16  1  0.49659811  0.83008954  0.16183178  1
  Cr  Cr17  1  0.32966488  0.66017414  0.32607969  1
  Fe  Fe18  1  0.66013401  0.99317712  -0.00460841  1
  Cr  Cr19  1  0.82435032  0.16054173  0.15778817  1
  Fe  Fe20  1  0.65879135  -0.00547562  0.32624444  1
  Cr  Cr21  1  0.66051339  0.32660793  0.99253189  1
  Cr  Cr22  1  0.82859674  0.49437060  0.16322793  1
  Cr  Cr23  1  0.65781803  0.32773541  0.33033164  1
  Cr  Cr24  1  0.65931791  0.66206904  -0.00447134  1
  Fe  Fe25  1  0.82502622  0.82744102  0.16243762  1
  Fe  Fe26  1  0.66110230  0.66277926  0.32670449  1
  Fe  Fe27  1  0.16093637  0.15906616  0.49451292  1
  Cr  Cr28  1  0.99323525  -0.00504259  0.66075131  1
  Cr  Cr29  1  0.16032966  0.16283115  0.82722405  1
  Cr  Cr30  1  0.15778328  0.49386249  0.49418339  1
  Fe  Fe31  1  0.99370823  0.32660376  0.65955130  1
  Cr  Cr32  1  0.15844382  0.49291085  0.83029368  1
  Cr  Cr33  1  0.16229325  0.82831695  0.49558462  1
  Fe  Fe34  1  0.99354746  0.65976594  0.66054403  1
  Cr  Cr35  1  0.16305782  0.82698946  0.82477613  1
  Fe  Fe36  1  0.49455302  0.15867699  0.49430488  1
  Fe  Fe37  1  0.32884005  -0.00374696  0.65966914  1
  Cr  Cr38  1  0.49615728  0.15690960  0.82761816  1
  Fe  Fe39  1  0.49413694  0.49624892  0.49355026  1
  Cr  Cr40  1  0.32933373  0.32715558  0.65651274  1
  Cr  Cr41  1  0.49356978  0.49445142  0.82813146  1
  Cr  Cr42  1  0.49437746  0.83212870  0.49476907  1
  Cr  Cr43  1  0.32828581  0.65975425  0.66370289  1
  Cr  Cr44  1  0.49442115  0.83093710  0.82765724  1
  Fe  Fe45  1  0.82688370  0.15907609  0.49442382  1
  Fe  Fe46  1  0.66048734  -0.00424151  0.65935508  1
  Fe  Fe47  1  0.82728168  0.16061944  0.82721144  1
  Cr  Cr48  1  0.82828368  0.49417027  0.49267031  1
  Cr  Cr49  1  0.66051957  0.32637734  0.65876654  1
  Cr  Cr50  1  0.83027796  0.49102150  0.82664907  1
  Cr  Cr51  1  0.82571999  0.82631558  0.49163304  1
  Cr  Cr52  1  0.66002677  0.65917266  0.65972776  1
  Cr  Cr53  1  0.82429941  0.82891795  0.82558051  1
" 