8774,Fe66Cr34_9,-212.497119458435, 195.700739267221,Fe66Cr34,"# generated using pymatgen
 data_Cr35Fe19
_symmetry_space_group_name_H-M   'P 1'
_cell_length_a   7.55902513
_cell_length_b   7.55902513
_cell_length_c   10.69007586
_cell_angle_alpha   90.00000000
_cell_angle_beta   90.00000000
_cell_angle_gamma   90.00000000
_symmetry_Int_Tables_number   1
_chemical_formula_structural   Cr35Fe19
_chemical_formula_sum   'Cr35 Fe19'
_cell_volume   610.81875790
_cell_formula_units_Z   1
loop_
 _symmetry_equiv_pos_site_id
 _symmetry_equiv_pos_as_xyz
  1  'x, y, z'
loop_
 _atom_site_type_symbol
 _atom_site_label
 _atom_site_symmetry_multiplicity
 _atom_site_fract_x
 _atom_site_fract_y
 _atom_site_fract_z
 _atom_site_occupancy
  Cr  Cr0  1  -0.00391216  0.99247599  -0.00604563  1
  Fe  Fe1  1  0.16177594  0.16035232  0.16027205  1
  Cr  Cr2  1  0.99367154  0.99262816  0.32678264  1
  Fe  Fe3  1  -0.00295711  0.32517215  0.99388644  1
  Cr  Cr4  1  0.16145475  0.49227194  0.15921789  1
  Cr  Cr5  1  -0.00562535  0.32882455  0.32597634  1
  Cr  Cr6  1  0.99209894  0.66053611  0.99387181  1
  Cr  Cr7  1  0.16417820  0.82713401  0.16485539  1
  Cr  Cr8  1  0.99037964  0.66060613  0.32725693  1
  Cr  Cr9  1  0.32830113  -0.00132337  0.99361146  1
  Fe  Fe10  1  0.49491142  0.16135683  0.15961296  1
  Fe  Fe11  1  0.32850916  -0.00401869  0.32700058  1
  Fe  Fe12  1  0.32755251  0.32635801  0.99370756  1
  Cr  Cr13  1  0.49420054  0.49577018  0.15960849  1
  Cr  Cr14  1  0.32967363  0.32476392  0.32446105  1
  Cr  Cr15  1  0.32574753  0.65956366  0.99164332  1
  Cr  Cr16  1  0.49327631  0.82731796  0.16099334  1
  Fe  Fe17  1  0.32860257  0.65776259  0.32762975  1
  Fe  Fe18  1  0.65908210  -0.00360988  -0.00595692  1
  Cr  Cr19  1  0.82727094  0.16197168  0.15866132  1
  Cr  Cr20  1  0.65905191  -0.00466504  0.32800975  1
  Fe  Fe21  1  0.65707806  0.32515471  0.99375966  1
  Cr  Cr22  1  0.82517229  0.49076683  0.15783443  1
  Cr  Cr23  1  0.65760198  0.32884209  0.33108486  1
  Fe  Fe24  1  0.65947230  0.66020450  0.99370707  1
  Cr  Cr25  1  0.82331555  0.82850880  0.15931784  1
  Fe  Fe26  1  0.65996744  0.65964797  0.32862149  1
  Cr  Cr27  1  0.15837005  0.16095111  0.49324274  1
  Cr  Cr28  1  0.99369731  0.99171617  0.66113180  1
  Fe  Fe29  1  0.16030313  0.16199773  0.82753820  1
  Cr  Cr30  1  0.16273334  0.49393175  0.49521140  1
  Fe  Fe31  1  -0.00591074  0.32709922  0.66042083  1
  Cr  Cr32  1  0.16088870  0.49144062  0.82596155  1
  Cr  Cr33  1  0.16461894  0.82667803  0.49327890  1
  Cr  Cr34  1  0.99193369  0.66002257  0.66064843  1
  Cr  Cr35  1  0.16368185  0.82643056  0.82343683  1
  Fe  Fe36  1  0.49207058  0.16062829  0.49441510  1
  Cr  Cr37  1  0.32851644  -0.00174885  0.66239948  1
  Fe  Fe38  1  0.49558842  0.16276080  0.82910545  1
  Fe  Fe39  1  0.49356754  0.49322416  0.49449190  1
  Cr  Cr40  1  0.33113055  0.32649611  0.66221132  1
  Cr  Cr41  1  0.49424393  0.49468473  0.82741847  1
  Cr  Cr42  1  0.49269359  0.82547630  0.49214161  1
  Fe  Fe43  1  0.32940315  0.66036995  0.66019272  1
  Cr  Cr44  1  0.49369404  0.82741210  0.82851883  1
  Cr  Cr45  1  0.82642285  0.16309065  0.49673280  1
  Cr  Cr46  1  0.65877554  -0.00496024  0.66126929  1
  Cr  Cr47  1  0.82741427  0.16216558  0.82706072  1
  Fe  Fe48  1  0.82713409  0.49439745  0.49425205  1
  Fe  Fe49  1  0.66057092  0.32772662  0.65942700  1
  Cr  Cr50  1  0.82671288  0.48927725  0.82938219  1
  Fe  Fe51  1  0.82684151  0.82757208  0.49344938  1
  Cr  Cr52  1  0.66238272  0.65889718  0.65881706  1
  Cr  Cr53  1  0.82413546  0.82935445  0.82992857  1
" 