886,Fe66Cr34_10,-212.644658282443, 195.039653518338,Fe66Cr34,"# generated using pymatgen
 data_Cr35Fe19
_symmetry_space_group_name_H-M   'P 1'
_cell_length_a   7.56002436
_cell_length_b   7.56002436
_cell_length_c   10.69148898
_cell_angle_alpha   90.00000000
_cell_angle_beta   90.00000000
_cell_angle_gamma   90.00000000
_symmetry_Int_Tables_number   1
_chemical_formula_structural   Cr35Fe19
_chemical_formula_sum   'Cr35 Fe19'
_cell_volume   611.06102303
_cell_formula_units_Z   1
loop_
 _symmetry_equiv_pos_site_id
 _symmetry_equiv_pos_as_xyz
  1  'x, y, z'
loop_
 _atom_site_type_symbol
 _atom_site_label
 _atom_site_symmetry_multiplicity
 _atom_site_fract_x
 _atom_site_fract_y
 _atom_site_fract_z
 _atom_site_occupancy
  Fe  Fe0  1  -0.00609767  0.99293359  0.99319590  1
  Cr  Cr1  1  0.15984466  0.16056756  0.15880295  1
  Cr  Cr2  1  0.99268295  0.99125971  0.32647339  1
  Fe  Fe3  1  -0.00594398  0.32880900  0.99273057  1
  Cr  Cr4  1  0.16120474  0.49125253  0.16065685  1
  Cr  Cr5  1  0.99238427  0.32844762  0.32771306  1
  Cr  Cr6  1  -0.00494768  0.66048380  0.99221133  1
  Cr  Cr7  1  0.16157961  0.82966542  0.15946803  1
  Cr  Cr8  1  -0.00510282  0.66188494  0.32798568  1
  Fe  Fe9  1  0.32819437  -0.00610872  0.99299678  1
  Cr  Cr10  1  0.49197119  0.16072643  0.16050911  1
  Cr  Cr11  1  0.32947538  0.99328977  0.32682774  1
  Cr  Cr12  1  0.32968968  0.32844527  -0.00574717  1
  Fe  Fe13  1  0.49407098  0.49382606  0.16033109  1
  Fe  Fe14  1  0.32830556  0.32716649  0.32744509  1
  Cr  Cr15  1  0.32628947  0.66107270  0.99294623  1
  Cr  Cr16  1  0.49660537  0.82357459  0.15748164  1
  Cr  Cr17  1  0.32815309  0.65819781  0.32660512  1
  Cr  Cr18  1  0.65854201  -0.00509594  0.99252650  1
  Cr  Cr19  1  0.82937875  0.16083974  0.15885554  1
  Cr  Cr20  1  0.65968836  -0.00473963  0.32808904  1
  Cr  Cr21  1  0.65969575  0.32674155  0.99261084  1
  Cr  Cr22  1  0.82347342  0.49554089  0.15885097  1
  Cr  Cr23  1  0.65534820  0.32726073  0.32774379  1
  Fe  Fe24  1  0.66015050  0.66005309  0.99292944  1
  Fe  Fe25  1  0.82651495  0.82692891  0.15913502  1
  Fe  Fe26  1  0.65915240  0.66059266  0.32653435  1
  Cr  Cr27  1  0.16269684  0.16203643  0.49235460  1
  Cr  Cr28  1  0.99298442  0.99247986  0.65777083  1
  Cr  Cr29  1  0.16144662  0.16119306  0.83038582  1
  Cr  Cr30  1  0.16402452  0.49195698  0.49563810  1
  Cr  Cr31  1  0.99318020  0.32944859  0.66399753  1
  Fe  Fe32  1  0.16139582  0.49361393  0.82740192  1
  Cr  Cr33  1  0.16374355  0.82742187  0.49476192  1
  Cr  Cr34  1  -0.00319805  0.66014221  0.66096561  1
  Cr  Cr35  1  0.16443725  0.82924465  0.82584448  1
  Fe  Fe36  1  0.49217699  0.16095040  0.49527859  1
  Fe  Fe37  1  0.32967170  -0.00379178  0.66142252  1
  Fe  Fe38  1  0.49245241  0.15843590  0.82618858  1
  Fe  Fe39  1  0.49308217  0.49327278  0.49529655  1
  Fe  Fe40  1  0.32766765  0.32675335  0.66179819  1
  Cr  Cr41  1  0.49524135  0.49754481  0.82682505  1
  Cr  Cr42  1  0.49457049  0.82467862  0.49853854  1
  Fe  Fe43  1  0.32918471  0.65907594  0.66175635  1
  Fe  Fe44  1  0.49364755  0.82918847  0.82562679  1
  Cr  Cr45  1  0.82720596  0.16106062  0.49454290  1
  Fe  Fe46  1  0.65837804  0.99363740  0.66195565  1
  Cr  Cr47  1  0.82858018  0.16157118  0.82827546  1
  Cr  Cr48  1  0.82382200  0.49497910  0.49536510  1
  Cr  Cr49  1  0.65731388  0.32374187  0.66107033  1
  Fe  Fe50  1  0.82695057  0.49463873  0.82789192  1
  Cr  Cr51  1  0.82344944  0.82539016  0.49276045  1
  Fe  Fe52  1  0.66007017  0.65988660  0.66167573  1
  Cr  Cr53  1  0.82346128  0.82577295  0.82664284  1
" 