5895,Fe66Cr34_8,-212.626237330182, 193.719058777218,Fe66Cr34,"# generated using pymatgen
 data_Cr35Fe19
_symmetry_space_group_name_H-M   'P 1'
_cell_length_a   7.55419825
_cell_length_b   7.55419825
_cell_length_c   10.68324962
_cell_angle_alpha   90.00000000
_cell_angle_beta   90.00000000
_cell_angle_gamma   90.00000000
_symmetry_Int_Tables_number   1
_chemical_formula_structural   Cr35Fe19
_chemical_formula_sum   'Cr35 Fe19'
_cell_volume   609.64937432
_cell_formula_units_Z   1
loop_
 _symmetry_equiv_pos_site_id
 _symmetry_equiv_pos_as_xyz
  1  'x, y, z'
loop_
 _atom_site_type_symbol
 _atom_site_label
 _atom_site_symmetry_multiplicity
 _atom_site_fract_x
 _atom_site_fract_y
 _atom_site_fract_z
 _atom_site_occupancy
  Cr  Cr0  1  -0.00217914  -0.00555956  0.99352900  1
  Cr  Cr1  1  0.16032101  0.16408661  0.16156140  1
  Fe  Fe2  1  -0.00532648  0.99305248  0.32919804  1
  Cr  Cr3  1  -0.00468448  0.32825999  0.99116654  1
  Fe  Fe4  1  0.16325486  0.49325443  0.16006088  1
  Cr  Cr5  1  -0.00493631  0.32838877  0.32715819  1
  Cr  Cr6  1  0.99356135  0.65991284  -0.00562402  1
  Cr  Cr7  1  0.16032083  0.82530371  0.16164556  1
  Cr  Cr8  1  0.99338833  0.66235276  0.33011147  1
  Cr  Cr9  1  0.32874220  0.99408333  0.99178890  1
  Cr  Cr10  1  0.49593772  0.16194949  0.16314048  1
  Cr  Cr11  1  0.32750015  -0.00443367  0.33100114  1
  Fe  Fe12  1  0.32751832  0.32851321  -0.00493886  1
  Fe  Fe13  1  0.49241674  0.49492501  0.15944647  1
  Fe  Fe14  1  0.32759042  0.32828492  0.32774539  1
  Fe  Fe15  1  0.32885296  0.65923107  -0.00328066  1
  Fe  Fe16  1  0.49504088  0.82764465  0.15942028  1
  Cr  Cr17  1  0.32842083  0.66213095  0.32347724  1
  Fe  Fe18  1  0.65963375  0.99318757  -0.00500107  1
  Cr  Cr19  1  0.82665446  0.15772060  0.16151182  1
  Fe  Fe20  1  0.66021321  0.99258334  0.32891946  1
  Cr  Cr21  1  0.65985310  0.32999578  0.99208097  1
  Cr  Cr22  1  0.82801530  0.49370354  0.16054643  1
  Cr  Cr23  1  0.65847588  0.32851138  0.33095693  1
  Fe  Fe24  1  0.65904683  0.66188078  -0.00445077  1
  Cr  Cr25  1  0.82538752  0.83140035  0.16181807  1
  Cr  Cr26  1  0.66086321  0.66102788  0.32745888  1
  Fe  Fe27  1  0.16206562  0.16025459  0.49368688  1
  Cr  Cr28  1  -0.00072667  -0.00565917  0.66029110  1
  Fe  Fe29  1  0.16296044  0.16060689  0.82749431  1
  Cr  Cr30  1  0.16274052  0.49512900  0.49278477  1
  Cr  Cr31  1  0.99268703  0.32838988  0.66456388  1
  Cr  Cr32  1  0.16345385  0.49483678  0.82896530  1
  Fe  Fe33  1  0.16095841  0.82892024  0.49442706  1
  Cr  Cr34  1  0.99229674  0.66038405  0.65836253  1
  Cr  Cr35  1  0.16293334  0.82519991  0.82353034  1
  Fe  Fe36  1  0.49245938  0.16048705  0.49377066  1
  Fe  Fe37  1  0.32677446  0.99374377  0.65952515  1
  Cr  Cr38  1  0.49463189  0.16074301  0.82542367  1
  Cr  Cr39  1  0.49126857  0.49371997  0.49484695  1
  Cr  Cr40  1  0.32755600  0.32153404  0.65993424  1
  Cr  Cr41  1  0.49155041  0.49615284  0.82754561  1
  Cr  Cr42  1  0.49330388  0.82735830  0.49690113  1
  Fe  Fe43  1  0.32690934  0.66152388  0.65999031  1
  Cr  Cr44  1  0.49362367  0.82548095  0.82856385  1
  Cr  Cr45  1  0.82744203  0.15829770  0.49039257  1
  Cr  Cr46  1  0.65789906  -0.00519028  0.66040781  1
  Cr  Cr47  1  0.82753969  0.15987888  0.83080811  1
  Fe  Fe48  1  0.82780871  0.49452882  0.49379259  1
  Cr  Cr49  1  0.66234182  0.32949510  0.65975907  1
  Fe  Fe50  1  0.82653204  0.49608678  0.82825799  1
  Fe  Fe51  1  0.82806977  0.82794821  0.49341978  1
  Cr  Cr52  1  0.66316496  0.65857411  0.66088643  1
  Cr  Cr53  1  0.82638023  0.82869119  0.82972842  1
" 