1733,Fe66Cr34_13,-212.542474775627, 191.625718803892,Fe66Cr34,"# generated using pymatgen
 data_Cr35Fe19
_symmetry_space_group_name_H-M   'P 1'
_cell_length_a   7.55325986
_cell_length_b   7.55325986
_cell_length_c   10.68192254
_cell_angle_alpha   90.00000000
_cell_angle_beta   90.00000000
_cell_angle_gamma   90.00000000
_symmetry_Int_Tables_number   1
_chemical_formula_structural   Cr35Fe19
_chemical_formula_sum   'Cr35 Fe19'
_cell_volume   609.42220913
_cell_formula_units_Z   1
loop_
 _symmetry_equiv_pos_site_id
 _symmetry_equiv_pos_as_xyz
  1  'x, y, z'
loop_
 _atom_site_type_symbol
 _atom_site_label
 _atom_site_symmetry_multiplicity
 _atom_site_fract_x
 _atom_site_fract_y
 _atom_site_fract_z
 _atom_site_occupancy
  Cr  Cr0  1  0.99389138  -0.00443979  -0.00550387  1
  Cr  Cr1  1  0.16484749  0.16453289  0.16040046  1
  Cr  Cr2  1  -0.00523782  -0.00452925  0.32525102  1
  Cr  Cr3  1  0.99255900  0.32549829  0.99295085  1
  Fe  Fe4  1  0.16234807  0.49353242  0.16120092  1
  Fe  Fe5  1  -0.00346602  0.32925495  0.32774560  1
  Cr  Cr6  1  -0.00411402  0.66181909  -0.00497593  1
  Fe  Fe7  1  0.16131482  0.82716143  0.16097184  1
  Cr  Cr8  1  -0.00246774  0.66057647  0.32870700  1
  Cr  Cr9  1  0.32753137  0.99344227  0.99314794  1
  Fe  Fe10  1  0.49451853  0.16321412  0.16075034  1
  Cr  Cr11  1  0.32817002  -0.00524670  0.32860102  1
  Fe  Fe12  1  0.32978089  0.32803627  -0.00396169  1
  Fe  Fe13  1  0.49242541  0.49010818  0.16050535  1
  Fe  Fe14  1  0.32761879  0.32915077  0.32791093  1
  Cr  Cr15  1  0.32866867  0.65988251  -0.00382930  1
  Cr  Cr16  1  0.49467540  0.82882181  0.16028436  1
  Cr  Cr17  1  0.32767242  0.65842964  0.32777869  1
  Cr  Cr18  1  0.66166043  -0.00331410  0.99393265  1
  Cr  Cr19  1  0.82714389  0.16176662  0.16226441  1
  Fe  Fe20  1  0.65887529  -0.00489173  0.32769168  1
  Fe  Fe21  1  0.65907623  0.32656884  -0.00471811  1
  Cr  Cr22  1  0.82792889  0.49433367  0.16041016  1
  Cr  Cr23  1  0.65797152  0.32658044  0.32887174  1
  Cr  Cr24  1  0.65832029  0.65921921  -0.00490685  1
  Cr  Cr25  1  0.82619325  0.82673802  0.16401720  1
  Cr  Cr26  1  0.65780997  0.65862819  0.32673611  1
  Cr  Cr27  1  0.16398946  0.16260089  0.49336755  1
  Cr  Cr28  1  0.99414863  -0.00460770  0.66290436  1
  Cr  Cr29  1  0.16376936  0.16189423  0.82838621  1
  Fe  Fe30  1  0.16136457  0.49491537  0.49409595  1
  Cr  Cr31  1  0.99238845  0.32639162  0.66122781  1
  Cr  Cr32  1  0.16110570  0.49312258  0.82781617  1
  Fe  Fe33  1  0.16023815  0.82750831  0.49555778  1
  Fe  Fe34  1  -0.00449349  0.66101823  0.65967479  1
  Cr  Cr35  1  0.16309907  0.82797932  0.82577000  1
  Fe  Fe36  1  0.49564307  0.16133252  0.49497719  1
  Fe  Fe37  1  0.32917763  -0.00536977  0.66023537  1
  Cr  Cr38  1  0.49349282  0.16037082  0.82635993  1
  Fe  Fe39  1  0.49383769  0.49236554  0.49402060  1
  Cr  Cr40  1  0.32970506  0.32850936  0.65748520  1
  Cr  Cr41  1  0.49478841  0.49285825  0.83004807  1
  Cr  Cr42  1  0.49473066  0.83057652  0.49654759  1
  Cr  Cr43  1  0.32775015  0.66157192  0.65949241  1
  Fe  Fe44  1  0.49400150  0.82833292  0.82643457  1
  Cr  Cr45  1  0.82640628  0.16068788  0.49339350  1
  Fe  Fe46  1  0.65957506  -0.00368267  0.66155824  1
  Fe  Fe47  1  0.82548524  0.16170528  0.82686138  1
  Cr  Cr48  1  0.82894959  0.49516985  0.49577244  1
  Fe  Fe49  1  0.65995776  0.32575912  0.66023372  1
  Cr  Cr50  1  0.82675274  0.49368088  0.82678786  1
  Cr  Cr51  1  0.82626117  0.82684142  0.49221097  1
  Cr  Cr52  1  0.65844694  0.65925696  0.66160346  1
  Cr  Cr53  1  0.82553625  0.82616018  0.82676668  1
" 