1857,Fe66Cr34_0,-212.469904111678, 193.607189296501,Fe66Cr34,"# generated using pymatgen
 data_Cr35Fe19
_symmetry_space_group_name_H-M   'P 1'
_cell_length_a   7.55325435
_cell_length_b   7.55325435
_cell_length_c   10.68191474
_cell_angle_alpha   90.00000000
_cell_angle_beta   90.00000000
_cell_angle_gamma   90.00000000
_symmetry_Int_Tables_number   1
_chemical_formula_structural   Cr35Fe19
_chemical_formula_sum   'Cr35 Fe19'
_cell_volume   609.42087410
_cell_formula_units_Z   1
loop_
 _symmetry_equiv_pos_site_id
 _symmetry_equiv_pos_as_xyz
  1  'x, y, z'
loop_
 _atom_site_type_symbol
 _atom_site_label
 _atom_site_symmetry_multiplicity
 _atom_site_fract_x
 _atom_site_fract_y
 _atom_site_fract_z
 _atom_site_occupancy
  Cr  Cr0  1  0.99374448  -0.00429992  -0.00421759  1
  Cr  Cr1  1  0.16169260  0.16127901  0.15866690  1
  Fe  Fe2  1  0.99231430  0.99390548  0.32802107  1
  Fe  Fe3  1  -0.00525619  0.32713816  0.99389369  1
  Cr  Cr4  1  0.16152366  0.49364558  0.16031331  1
  Cr  Cr5  1  0.99267959  0.32558544  0.32875531  1
  Cr  Cr6  1  0.99297351  0.66104309  -0.00568449  1
  Cr  Cr7  1  0.16058953  0.82795795  0.16279625  1
  Cr  Cr8  1  -0.00542624  0.66373477  0.32945530  1
  Cr  Cr9  1  0.32766014  -0.00509620  0.99357053  1
  Fe  Fe10  1  0.49462324  0.16222887  0.16134200  1
  Cr  Cr11  1  0.32735834  0.99382519  0.32649749  1
  Fe  Fe12  1  0.32796122  0.32793156  -0.00523536  1
  Fe  Fe13  1  0.49422470  0.49342224  0.16104835  1
  Cr  Cr14  1  0.33031634  0.32887360  0.32624021  1
  Cr  Cr15  1  0.33059617  0.65966147  -0.00495452  1
  Cr  Cr16  1  0.49581537  0.82766175  0.16088905  1
  Fe  Fe17  1  0.32795957  0.66049686  0.32723306  1
  Cr  Cr18  1  0.66147592  0.99350193  0.99351563  1
  Cr  Cr19  1  0.82646654  0.16064970  0.16199235  1
  Fe  Fe20  1  0.66262665  -0.00483768  0.32753486  1
  Cr  Cr21  1  0.66010267  0.32908570  -0.00500082  1
  Cr  Cr22  1  0.82616664  0.49474138  0.15909825  1
  Fe  Fe23  1  0.66057338  0.32644780  0.32722609  1
  Fe  Fe24  1  0.66015705  0.66113396  -0.00570328  1
  Fe  Fe25  1  0.82738670  0.82801949  0.16127092  1
  Cr  Cr26  1  0.66015029  0.66077680  0.32581917  1
  Cr  Cr27  1  0.16142372  0.16044522  0.49538371  1
  Cr  Cr28  1  0.99307232  -0.00539703  0.65960404  1
  Cr  Cr29  1  0.16230738  0.16235612  0.82882847  1
  Cr  Cr30  1  0.16018019  0.49537807  0.49538682  1
  Cr  Cr31  1  0.99369272  0.32671199  0.66135172  1
  Cr  Cr32  1  0.16002406  0.49256108  0.82718817  1
  Cr  Cr33  1  0.16033212  0.82705823  0.49386640  1
  Fe  Fe34  1  0.99379240  0.66127641  0.66056949  1
  Cr  Cr35  1  0.16234198  0.82796641  0.82621956  1
  Cr  Cr36  1  0.49616796  0.15967955  0.49432186  1
  Fe  Fe37  1  0.32890296  -0.00520843  0.66135432  1
  Cr  Cr38  1  0.49344714  0.15942430  0.82574835  1
  Cr  Cr39  1  0.49447747  0.49322510  0.49277614  1
  Fe  Fe40  1  0.32804299  0.32721676  0.66127060  1
  Fe  Fe41  1  0.49381885  0.49474617  0.82793618  1
  Cr  Cr42  1  0.49509234  0.82997623  0.49578073  1
  Cr  Cr43  1  0.32816128  0.66124495  0.66085239  1
  Fe  Fe44  1  0.49460031  0.82715426  0.82723208  1
  Fe  Fe45  1  0.82682395  0.15937369  0.49341407  1
  Fe  Fe46  1  0.66095818  -0.00569725  0.66106049  1
  Fe  Fe47  1  0.82778501  0.16097518  0.82772552  1
  Cr  Cr48  1  0.82822180  0.49431133  0.49473741  1
  Cr  Cr49  1  0.66098338  0.32636370  0.65978540  1
  Cr  Cr50  1  0.82788886  0.49467905  0.82905277  1
  Fe  Fe51  1  0.82760897  0.82919526  0.49438992  1
  Cr  Cr52  1  0.66027295  0.66186504  0.66353781  1
  Cr  Cr53  1  0.82496634  0.82644843  0.82808571  1
" 