8531,Fe66Cr34_3,-212.621796477545, 197.514505561111,Fe66Cr34,"# generated using pymatgen
 data_Cr35Fe19
_symmetry_space_group_name_H-M   'P 1'
_cell_length_a   7.55970760
_cell_length_b   7.55970760
_cell_length_c   10.69104102
_cell_angle_alpha   90.00000000
_cell_angle_beta   90.00000000
_cell_angle_gamma   90.00000000
_symmetry_Int_Tables_number   1
_chemical_formula_structural   Cr35Fe19
_chemical_formula_sum   'Cr35 Fe19'
_cell_volume   610.98421701
_cell_formula_units_Z   1
loop_
 _symmetry_equiv_pos_site_id
 _symmetry_equiv_pos_as_xyz
  1  'x, y, z'
loop_
 _atom_site_type_symbol
 _atom_site_label
 _atom_site_symmetry_multiplicity
 _atom_site_fract_x
 _atom_site_fract_y
 _atom_site_fract_z
 _atom_site_occupancy
  Fe  Fe0  1  -0.00599776  -0.00605857  -0.00529473  1
  Fe  Fe1  1  0.15916974  0.15912356  0.16118262  1
  Fe  Fe2  1  -0.00400631  -0.00482459  0.32668016  1
  Cr  Cr3  1  -0.00473186  0.32882047  -0.00507869  1
  Fe  Fe4  1  0.15979024  0.49503705  0.16131673  1
  Cr  Cr5  1  -0.00472820  0.32889209  0.32887668  1
  Cr  Cr6  1  0.99304130  0.66119560  -0.00557838  1
  Fe  Fe7  1  0.15957612  0.82774586  0.16128774  1
  Cr  Cr8  1  -0.00570656  0.66020474  0.32704411  1
  Cr  Cr9  1  0.32730291  -0.00463001  -0.00362145  1
  Fe  Fe10  1  0.49615468  0.15889246  0.16167783  1
  Cr  Cr11  1  0.32751506  -0.00479205  0.32528618  1
  Cr  Cr12  1  0.32676538  0.32447931  -0.00292772  1
  Cr  Cr13  1  0.49474336  0.49471621  0.16152727  1
  Cr  Cr14  1  0.32676117  0.32498602  0.32570326  1
  Cr  Cr15  1  0.32602257  0.66167388  -0.00498023  1
  Cr  Cr16  1  0.49393543  0.82432641  0.16225417  1
  Fe  Fe17  1  0.32540456  0.65915125  0.32622038  1
  Cr  Cr18  1  0.65851457  0.99271441  0.98976250  1
  Cr  Cr19  1  0.82885683  0.15998659  0.16198258  1
  Fe  Fe20  1  0.66040765  -0.00524285  0.32640874  1
  Cr  Cr21  1  0.65983556  0.32648332  -0.00301224  1
  Fe  Fe22  1  0.82677866  0.49478035  0.16197140  1
  Fe  Fe23  1  0.66031713  0.32686242  0.32599835  1
  Cr  Cr24  1  0.66244030  0.66223652  0.99086109  1
  Cr  Cr25  1  0.82850912  0.82915794  0.16118565  1
  Fe  Fe26  1  0.66030675  0.65986166  0.32664269  1
  Cr  Cr27  1  0.15954202  0.16064224  0.49783650  1
  Cr  Cr28  1  0.99323476  0.99130298  0.66014456  1
  Cr  Cr29  1  0.15939713  0.16041710  0.82650642  1
  Fe  Fe30  1  0.16194241  0.49363810  0.49498749  1
  Fe  Fe31  1  0.99363340  0.32822662  0.65989101  1
  Cr  Cr32  1  0.16257920  0.49314422  0.82410717  1
  Cr  Cr33  1  0.16229000  0.82632693  0.49126282  1
  Cr  Cr34  1  0.99312162  0.65928631  0.65926339  1
  Cr  Cr35  1  0.16124741  0.82808699  0.82916659  1
  Cr  Cr36  1  0.49496379  0.16016243  0.49335555  1
  Fe  Fe37  1  0.32898684  0.99233150  0.66088231  1
  Cr  Cr38  1  0.49259953  0.16133551  0.82585186  1
  Cr  Cr39  1  0.49142391  0.49583267  0.49269561  1
  Fe  Fe40  1  0.32648424  0.32779113  0.65944510  1
  Cr  Cr41  1  0.49143036  0.49500748  0.82794527  1
  Cr  Cr42  1  0.49322979  0.82550483  0.49354019  1
  Fe  Fe43  1  0.32713715  0.66162641  0.66026792  1
  Fe  Fe44  1  0.49238660  0.82842771  0.82543936  1
  Cr  Cr45  1  0.82759499  0.15937011  0.49291445  1
  Fe  Fe46  1  0.65971409  0.99258587  0.66126886  1
  Cr  Cr47  1  0.82932771  0.15938708  0.82636170  1
  Cr  Cr48  1  0.82513290  0.49290367  0.49214888  1
  Cr  Cr49  1  0.66042999  0.32688571  0.66004806  1
  Cr  Cr50  1  0.82756640  0.49156451  0.82942251  1
  Cr  Cr51  1  0.82619539  0.82951532  0.49074470  1
  Cr  Cr52  1  0.66217448  0.66342332  0.66365497  1
  Fe  Fe53  1  0.82831413  0.82855186  0.82652872  1
" 