8838,Fe66Cr34_1,-212.469208915547, 192.567934227777,Fe66Cr34,"# generated using pymatgen
 data_Cr35Fe19
_symmetry_space_group_name_H-M   'P 1'
_cell_length_a   7.55919437
_cell_length_b   7.55919437
_cell_length_c   10.69031519
_cell_angle_alpha   90.00000000
_cell_angle_beta   90.00000000
_cell_angle_gamma   90.00000000
_symmetry_Int_Tables_number   1
_chemical_formula_structural   Cr35Fe19
_chemical_formula_sum   'Cr35 Fe19'
_cell_volume   610.85978469
_cell_formula_units_Z   1
loop_
 _symmetry_equiv_pos_site_id
 _symmetry_equiv_pos_as_xyz
  1  'x, y, z'
loop_
 _atom_site_type_symbol
 _atom_site_label
 _atom_site_symmetry_multiplicity
 _atom_site_fract_x
 _atom_site_fract_y
 _atom_site_fract_z
 _atom_site_occupancy
  Cr  Cr0  1  -0.00484861  -0.00502133  -0.00488977  1
  Fe  Fe1  1  0.15937532  0.16016308  0.16099018  1
  Fe  Fe2  1  0.99280789  -0.00479015  0.32763091  1
  Cr  Cr3  1  0.99320657  0.32510263  -0.00324132  1
  Cr  Cr4  1  0.16025154  0.49176528  0.16085625  1
  Cr  Cr5  1  0.99280955  0.32410779  0.32562587  1
  Cr  Cr6  1  0.99284108  0.66163193  0.99163003  1
  Cr  Cr7  1  0.16075497  0.82842549  0.16076658  1
  Cr  Cr8  1  0.99133649  0.66194656  0.32962557  1
  Cr  Cr9  1  0.32562021  -0.00583587  0.99171205  1
  Cr  Cr10  1  0.49449349  0.15908342  0.16071009  1
  Cr  Cr11  1  0.32629279  -0.00516552  0.32692113  1
  Cr  Cr12  1  0.32789717  0.32624966  0.99333966  1
  Cr  Cr13  1  0.49403796  0.49519402  0.16002752  1
  Cr  Cr14  1  0.32744048  0.32636546  0.32805649  1
  Cr  Cr15  1  0.32907910  0.66130050  0.99296865  1
  Cr  Cr16  1  0.49596280  0.82744075  0.16150904  1
  Cr  Cr17  1  0.32973321  0.66051056  0.32730640  1
  Cr  Cr18  1  0.66093991  0.99380445  -0.00600316  1
  Fe  Fe19  1  0.82802813  0.15977950  0.16130636  1
  Fe  Fe20  1  0.66216631  -0.00607329  0.32794989  1
  Cr  Cr21  1  0.66060905  0.32857043  0.99245343  1
  Cr  Cr22  1  0.82742841  0.49324341  0.15871182  1
  Cr  Cr23  1  0.66146431  0.32754680  0.32946206  1
  Fe  Fe24  1  0.66017485  0.66018244  0.99340254  1
  Cr  Cr25  1  0.82499833  0.82889096  0.16177547  1
  Fe  Fe26  1  0.66089848  0.66085943  0.32853367  1
  Fe  Fe27  1  0.16026626  0.16008831  0.49353388  1
  Cr  Cr28  1  0.99388451  0.99262803  0.66053043  1
  Fe  Fe29  1  0.16126647  0.15969356  0.82719531  1
  Cr  Cr30  1  0.15959058  0.49335077  0.49414614  1
  Cr  Cr31  1  0.99194313  0.32701336  0.65932662  1
  Cr  Cr32  1  0.16012523  0.49444496  0.82671172  1
  Cr  Cr33  1  0.15898027  0.82688238  0.49505531  1
  Fe  Fe34  1  0.99367614  0.66097185  0.66017863  1
  Fe  Fe35  1  0.16000087  0.82766113  0.82679808  1
  Fe  Fe36  1  0.49489581  0.16095864  0.49422501  1
  Cr  Cr37  1  0.32697759  -0.00479179  0.66308242  1
  Fe  Fe38  1  0.49397028  0.16146103  0.82650731  1
  Fe  Fe39  1  0.49540889  0.49321582  0.49383359  1
  Cr  Cr40  1  0.33036124  0.32588123  0.66031551  1
  Fe  Fe41  1  0.49488185  0.49312609  0.82729983  1
  Cr  Cr42  1  0.49648727  0.82928981  0.49106883  1
  Cr  Cr43  1  0.32700556  0.66063010  0.66144185  1
  Cr  Cr44  1  0.49377656  0.82905793  0.82913666  1
  Fe  Fe45  1  0.82655122  0.15969302  0.49399341  1
  Fe  Fe46  1  0.66046323  -0.00445364  0.65986588  1
  Cr  Cr47  1  0.82510105  0.16092305  0.82687626  1
  Fe  Fe48  1  0.82604750  0.49447480  0.49430540  1
  Fe  Fe49  1  0.65967512  0.32637996  0.65978282  1
  Cr  Cr50  1  0.82748687  0.49366625  0.82724450  1
  Fe  Fe51  1  0.82691301  0.82754046  0.49353085  1
  Cr  Cr52  1  0.66198991  0.65868108  0.65932258  1
  Cr  Cr53  1  0.82734317  0.82712279  0.82642313  1
" 