5208,Fe66Cr34_5,-212.859909539813, 191.48435347555,Fe66Cr34,"# generated using pymatgen
 data_Cr35Fe19
_symmetry_space_group_name_H-M   'P 1'
_cell_length_a   7.56614195
_cell_length_b   7.56614195
_cell_length_c   10.70014056
_cell_angle_alpha   90.00000000
_cell_angle_beta   90.00000000
_cell_angle_gamma   90.00000000
_symmetry_Int_Tables_number   1
_chemical_formula_structural   Cr35Fe19
_chemical_formula_sum   'Cr35 Fe19'
_cell_volume   612.54563957
_cell_formula_units_Z   1
loop_
 _symmetry_equiv_pos_site_id
 _symmetry_equiv_pos_as_xyz
  1  'x, y, z'
loop_
 _atom_site_type_symbol
 _atom_site_label
 _atom_site_symmetry_multiplicity
 _atom_site_fract_x
 _atom_site_fract_y
 _atom_site_fract_z
 _atom_site_occupancy
  Fe  Fe0  1  -0.00476474  0.99061572  -0.00595653  1
  Cr  Cr1  1  0.16085001  0.15852078  0.15812862  1
  Cr  Cr2  1  0.99288647  0.99079045  0.32579005  1
  Cr  Cr3  1  -0.00640730  0.32860580  0.99176969  1
  Fe  Fe4  1  0.15899710  0.49483579  0.15837591  1
  Cr  Cr5  1  0.99321680  0.32750932  0.32784110  1
  Fe  Fe6  1  -0.00570595  0.66177005  -0.00533650  1
  Fe  Fe7  1  0.15963495  0.82616259  0.15772650  1
  Cr  Cr8  1  -0.00440773  0.66061422  0.32605388  1
  Fe  Fe9  1  0.32621784  0.99168226  -0.00632697  1
  Fe  Fe10  1  0.49383542  0.15971429  0.15950179  1
  Cr  Cr11  1  0.32777627  0.99188392  0.32827554  1
  Cr  Cr12  1  0.32682114  0.32940589  -0.00561247  1
  Cr  Cr13  1  0.49347027  0.49472528  0.16019286  1
  Cr  Cr14  1  0.32788774  0.32693046  0.32425046  1
  Fe  Fe15  1  0.32542696  0.66294171  -0.00650043  1
  Cr  Cr16  1  0.49378973  0.82621082  0.15867444  1
  Cr  Cr17  1  0.32399594  0.66062276  0.32481200  1
  Cr  Cr18  1  0.66050460  0.99157662  -0.00560115  1
  Cr  Cr19  1  0.82934257  0.15904019  0.15985352  1
  Cr  Cr20  1  0.66019335  -0.00383060  0.32586024  1
  Cr  Cr21  1  0.65988301  0.32505195  0.99309438  1
  Cr  Cr22  1  0.82600555  0.49499009  0.16036888  1
  Fe  Fe23  1  0.66082756  0.32685085  0.32711549  1
  Fe  Fe24  1  0.66025840  0.65947231  -0.00583365  1
  Fe  Fe25  1  0.82841055  0.82619824  0.15822152  1
  Cr  Cr26  1  0.66097078  0.66254388  0.32639779  1
  Cr  Cr27  1  0.16040596  0.15804908  0.49537155  1
  Cr  Cr28  1  0.99256551  0.99041356  0.66021449  1
  Cr  Cr29  1  0.16031009  0.15689630  0.82719773  1
  Cr  Cr30  1  0.16022872  0.49285604  0.49298961  1
  Cr  Cr31  1  0.99254134  0.32767771  0.66041337  1
  Cr  Cr32  1  0.15962657  0.49381093  0.82812443  1
  Fe  Fe33  1  0.15994793  0.82592744  0.49424877  1
  Fe  Fe34  1  0.99282525  0.66056799  0.65965260  1
  Fe  Fe35  1  0.16001722  0.82604494  0.82846535  1
  Fe  Fe36  1  0.49364765  0.16083790  0.49361242  1
  Fe  Fe37  1  0.32626216  0.99321376  0.66043505  1
  Cr  Cr38  1  0.49058871  0.15870961  0.82743822  1
  Cr  Cr39  1  0.49527773  0.49474684  0.49186787  1
  Cr  Cr40  1  0.32761088  0.32853420  0.66142897  1
  Cr  Cr41  1  0.49497310  0.49822134  0.82770633  1
  Cr  Cr42  1  0.49304221  0.82702508  0.49582029  1
  Cr  Cr43  1  0.32473173  0.66287887  0.66124840  1
  Fe  Fe44  1  0.49142416  0.82726313  0.82791041  1
  Fe  Fe45  1  0.82594757  0.16023337  0.49294558  1
  Cr  Cr46  1  0.65909019  0.99268247  0.66092987  1
  Cr  Cr47  1  0.82942245  0.15856860  0.82789365  1
  Fe  Fe48  1  0.82677321  0.49367974  0.49363421  1
  Cr  Cr49  1  0.66070328  0.32549762  0.65908405  1
  Cr  Cr50  1  0.82568810  0.49639761  0.82475900  1
  Cr  Cr51  1  0.82663106  0.82546000  0.49264929  1
  Fe  Fe52  1  0.66071080  0.66033942  0.65967101  1
  Cr  Cr53  1  0.82546807  0.82440976  0.82952950  1
" 