5025,Fe66Cr34_17,-212.425585420206, 192.004854564998,Fe66Cr34,"# generated using pymatgen
 data_Cr35Fe19
_symmetry_space_group_name_H-M   'P 1'
_cell_length_a   7.55538110
_cell_length_b   7.55538110
_cell_length_c   10.68492242
_cell_angle_alpha   90.00000000
_cell_angle_beta   90.00000000
_cell_angle_gamma   90.00000000
_symmetry_Int_Tables_number   1
_chemical_formula_structural   Cr35Fe19
_chemical_formula_sum   'Cr35 Fe19'
_cell_volume   609.93579798
_cell_formula_units_Z   1
loop_
 _symmetry_equiv_pos_site_id
 _symmetry_equiv_pos_as_xyz
  1  'x, y, z'
loop_
 _atom_site_type_symbol
 _atom_site_label
 _atom_site_symmetry_multiplicity
 _atom_site_fract_x
 _atom_site_fract_y
 _atom_site_fract_z
 _atom_site_occupancy
  Fe  Fe0  1  -0.00468035  -0.00573538  0.99342387  1
  Cr  Cr1  1  0.15993741  0.16060922  0.15887194  1
  Fe  Fe2  1  -0.00435269  0.99288174  0.32875836  1
  Cr  Cr3  1  0.99400294  0.32923178  0.99090722  1
  Cr  Cr4  1  0.16139241  0.49251334  0.16249344  1
  Cr  Cr5  1  0.99289857  0.32711507  0.32796709  1
  Cr  Cr6  1  0.99385960  0.66086028  -0.00510574  1
  Fe  Fe7  1  0.15858822  0.82807046  0.16121277  1
  Fe  Fe8  1  -0.00533969  0.66390769  0.32767806  1
  Cr  Cr9  1  0.32638633  -0.00522733  -0.00566647  1
  Fe  Fe10  1  0.49425228  0.16114962  0.16101480  1
  Cr  Cr11  1  0.32579546  0.99330136  0.32751967  1
  Cr  Cr12  1  0.32725154  0.32660482  0.99165242  1
  Cr  Cr13  1  0.49310679  0.49421799  0.16188667  1
  Cr  Cr14  1  0.32871281  0.32540103  0.32832932  1
  Cr  Cr15  1  0.32445438  0.66086542  0.99359984  1
  Cr  Cr16  1  0.49457179  0.82701491  0.15860340  1
  Cr  Cr17  1  0.32337252  0.66349413  0.32870643  1
  Cr  Cr18  1  0.66075801  -0.00409487  -0.00567590  1
  Cr  Cr19  1  0.82986744  0.15954266  0.16169234  1
  Cr  Cr20  1  0.66090273  -0.00348847  0.32921782  1
  Cr  Cr21  1  0.66165665  0.32734938  -0.00569006  1
  Cr  Cr22  1  0.82753774  0.49420514  0.16096099  1
  Cr  Cr23  1  0.66122202  0.32520800  0.32951093  1
  Fe  Fe24  1  0.66080218  0.65863168  0.99280115  1
  Cr  Cr25  1  0.82812788  0.82896936  0.15971829  1
  Cr  Cr26  1  0.66234110  0.66084969  0.32757425  1
  Fe  Fe27  1  0.15818639  0.15903230  0.49454572  1
  Fe  Fe28  1  -0.00461204  -0.00431329  0.65959890  1
  Fe  Fe29  1  0.16059013  0.16059232  0.82673367  1
  Cr  Cr30  1  0.16113573  0.49210694  0.49422957  1
  Fe  Fe31  1  -0.00471443  0.32702447  0.66131266  1
  Fe  Fe32  1  0.15901705  0.49390588  0.82588005  1
  Fe  Fe33  1  0.15782595  0.82848806  0.49481927  1
  Fe  Fe34  1  -0.00550281  0.65987816  0.66155503  1
  Cr  Cr35  1  0.15991668  0.82957154  0.82606089  1
  Fe  Fe36  1  0.49305314  0.16214026  0.49464048  1
  Cr  Cr37  1  0.32594384  -0.00484780  0.65995664  1
  Fe  Fe38  1  0.49431498  0.16080063  0.82684543  1
  Fe  Fe39  1  0.49414809  0.49367607  0.49444660  1
  Cr  Cr40  1  0.32659105  0.32661895  0.66260700  1
  Fe  Fe41  1  0.49482893  0.49328895  0.82788005  1
  Cr  Cr42  1  0.49390997  0.82650115  0.49602785  1
  Cr  Cr43  1  0.32490816  0.66052423  0.66030579  1
  Cr  Cr44  1  0.49509896  0.82655311  0.82815995  1
  Fe  Fe45  1  0.83093233  0.16057693  0.49506847  1
  Cr  Cr46  1  0.66110870  -0.00355963  0.65897218  1
  Cr  Cr47  1  0.83120797  0.16047228  0.82575973  1
  Cr  Cr48  1  0.82948725  0.49371035  0.49451604  1
  Cr  Cr49  1  0.66235511  0.32690573  0.65889655  1
  Fe  Fe50  1  0.82827218  0.49473525  0.82667313  1
  Cr  Cr51  1  0.82941355  0.82912157  0.49563569  1
  Cr  Cr52  1  0.66254328  0.65908013  0.66338448  1
  Cr  Cr53  1  0.82694417  0.82829715  0.82785566  1
" 