2223,Fe66Cr34_16,-212.487518682594, 187.137464853877,Fe66Cr34,"# generated using pymatgen
 data_Cr35Fe19
_symmetry_space_group_name_H-M   'P 1'
_cell_length_a   7.56311045
_cell_length_b   7.56311045
_cell_length_c   10.69585338
_cell_angle_alpha   90.00000000
_cell_angle_beta   90.00000000
_cell_angle_gamma   90.00000000
_symmetry_Int_Tables_number   1
_chemical_formula_structural   Cr35Fe19
_chemical_formula_sum   'Cr35 Fe19'
_cell_volume   611.80965564
_cell_formula_units_Z   1
loop_
 _symmetry_equiv_pos_site_id
 _symmetry_equiv_pos_as_xyz
  1  'x, y, z'
loop_
 _atom_site_type_symbol
 _atom_site_label
 _atom_site_symmetry_multiplicity
 _atom_site_fract_x
 _atom_site_fract_y
 _atom_site_fract_z
 _atom_site_occupancy
  Cr  Cr0  1  0.99316077  -0.00391345  -0.00556615  1
  Cr  Cr1  1  0.16097624  0.15894157  0.16341693  1
  Fe  Fe2  1  -0.00608072  0.99359591  0.32965826  1
  Cr  Cr3  1  -0.00597934  0.32706525  0.99124182  1
  Cr  Cr4  1  0.16230674  0.49446308  0.16167427  1
  Cr  Cr5  1  -0.00427922  0.32710349  0.32703128  1
  Cr  Cr6  1  -0.00570598  0.65746244  0.99173007  1
  Cr  Cr7  1  0.16095028  0.82762491  0.16054541  1
  Cr  Cr8  1  -0.00623646  0.66005611  0.32885284  1
  Cr  Cr9  1  0.32729736  -0.00417215  0.99165122  1
  Cr  Cr10  1  0.49285717  0.16241770  0.15943036  1
  Cr  Cr11  1  0.32755764  -0.00507765  0.32958806  1
  Cr  Cr12  1  0.32615388  0.32765968  -0.00466603  1
  Fe  Fe13  1  0.49262200  0.49411623  0.16167924  1
  Fe  Fe14  1  0.32777810  0.32902581  0.32921035  1
  Cr  Cr15  1  0.32678332  0.65755379  0.99338882  1
  Cr  Cr16  1  0.49165840  0.82553580  0.15921553  1
  Fe  Fe17  1  0.32919134  0.65857320  0.32932869  1
  Cr  Cr18  1  0.66053021  -0.00424053  0.99204135  1
  Cr  Cr19  1  0.82702295  0.16118223  0.15923330  1
  Cr  Cr20  1  0.65991742  0.99264695  0.32943853  1
  Fe  Fe21  1  0.65999503  0.32713466  0.99328683  1
  Cr  Cr22  1  0.82482163  0.49313134  0.15949804  1
  Cr  Cr23  1  0.65762069  0.32828849  0.32451464  1
  Cr  Cr24  1  0.65994206  0.65886229  -0.00407955  1
  Cr  Cr25  1  0.82828394  0.82675408  0.16342353  1
  Fe  Fe26  1  0.65762127  0.65998494  0.32873368  1
  Fe  Fe27  1  0.16157592  0.16217247  0.49367154  1
  Cr  Cr28  1  -0.00590819  -0.00485263  0.65921085  1
  Fe  Fe29  1  0.15945472  0.16310159  0.82536059  1
  Fe  Fe30  1  0.16229092  0.49190561  0.49332768  1
  Fe  Fe31  1  -0.00367253  0.32602677  0.66062773  1
  Fe  Fe32  1  0.16169685  0.49053912  0.82543963  1
  Fe  Fe33  1  0.16009701  0.82695466  0.49323955  1
  Cr  Cr34  1  -0.00449054  0.65738533  0.66138792  1
  Cr  Cr35  1  0.16120076  0.82737692  0.82922625  1
  Fe  Fe36  1  0.49249090  0.16336540  0.49408575  1
  Cr  Cr37  1  0.32780941  -0.00439635  0.66002431  1
  Cr  Cr38  1  0.49421901  0.16292679  0.82553996  1
  Fe  Fe39  1  0.49174344  0.49224214  0.49294210  1
  Fe  Fe40  1  0.32545045  0.32704280  0.65886501  1
  Cr  Cr41  1  0.49464659  0.49153001  0.82667073  1
  Fe  Fe42  1  0.49301709  0.82549376  0.49267435  1
  Cr  Cr43  1  0.32608974  0.65830127  0.65988302  1
  Cr  Cr44  1  0.49232532  0.82670864  0.82739115  1
  Cr  Cr45  1  0.82758309  0.16184474  0.49430437  1
  Cr  Cr46  1  0.65907888  -0.00549868  0.65909387  1
  Fe  Fe47  1  0.82712372  0.16133089  0.82542119  1
  Cr  Cr48  1  0.82612972  0.49303155  0.49513642  1
  Fe  Fe49  1  0.65927441  0.32647644  0.65916009  1
  Cr  Cr50  1  0.82646422  0.48950654  0.82486736  1
  Fe  Fe51  1  0.82781454  0.82690758  0.49288915  1
  Cr  Cr52  1  0.65942488  0.66147979  0.65687299  1
  Cr  Cr53  1  0.82736244  0.82638015  0.82624459  1
" 