8265,Fe66Cr34_18,-212.336716668542, 197.962758291118,Fe66Cr34,"# generated using pymatgen
 data_Cr35Fe19
_symmetry_space_group_name_H-M   'P 1'
_cell_length_a   7.55267584
_cell_length_b   7.55267584
_cell_length_c   10.68109661
_cell_angle_alpha   90.00000000
_cell_angle_beta   90.00000000
_cell_angle_gamma   90.00000000
_symmetry_Int_Tables_number   1
_chemical_formula_structural   Cr35Fe19
_chemical_formula_sum   'Cr35 Fe19'
_cell_volume   609.28085797
_cell_formula_units_Z   1
loop_
 _symmetry_equiv_pos_site_id
 _symmetry_equiv_pos_as_xyz
  1  'x, y, z'
loop_
 _atom_site_type_symbol
 _atom_site_label
 _atom_site_symmetry_multiplicity
 _atom_site_fract_x
 _atom_site_fract_y
 _atom_site_fract_z
 _atom_site_occupancy
  Cr  Cr0  1  0.99127385  -0.00390634  -0.00050387  1
  Fe  Fe1  1  0.16116492  0.16308642  0.16179497  1
  Cr  Cr2  1  0.99211699  -0.00404009  0.32523891  1
  Cr  Cr3  1  -0.00438602  0.32823825  0.99402148  1
  Cr  Cr4  1  0.16198649  0.49900552  0.16013416  1
  Cr  Cr5  1  -0.00381926  0.32685518  0.33007658  1
  Fe  Fe6  1  -0.00515278  0.66038792  0.99376530  1
  Cr  Cr7  1  0.15935240  0.82804026  0.15995513  1
  Cr  Cr8  1  0.99329621  0.66118284  0.32855316  1
  Cr  Cr9  1  0.32931185  -0.00412104  -0.00368096  1
  Cr  Cr10  1  0.49354377  0.16265199  0.16166126  1
  Fe  Fe11  1  0.32569205  0.99345278  0.32808188  1
  Cr  Cr12  1  0.32705268  0.32901022  0.99315796  1
  Cr  Cr13  1  0.49664259  0.49335746  0.16374348  1
  Cr  Cr14  1  0.32475616  0.32749212  0.32679058  1
  Cr  Cr15  1  0.33167398  0.65893190  0.98933533  1
  Cr  Cr16  1  0.49046890  0.82501930  0.16348284  1
  Fe  Fe17  1  0.32576553  0.66377555  0.32973049  1
  Cr  Cr18  1  0.66086783  0.99283815  -0.00500534  1
  Cr  Cr19  1  0.82484766  0.16431319  0.16165442  1
  Cr  Cr20  1  0.65988698  0.99093413  0.32745527  1
  Fe  Fe21  1  0.66101375  0.32881022  0.99246890  1
  Cr  Cr22  1  0.82645504  0.49549578  0.16148103  1
  Fe  Fe23  1  0.66201378  0.32546380  0.32868361  1
  Cr  Cr24  1  0.66189564  0.66288416  0.99337224  1
  Fe  Fe25  1  0.82539474  0.82563547  0.16169858  1
  Fe  Fe26  1  0.66083345  0.66148945  0.32795058  1
  Cr  Cr27  1  0.16185516  0.15417470  0.49543336  1
  Fe  Fe28  1  -0.00337039  0.99042283  0.66102059  1
  Cr  Cr29  1  0.16075318  0.15581191  0.82811540  1
  Fe  Fe30  1  0.16189635  0.49453296  0.49369149  1
  Cr  Cr31  1  -0.00349347  0.32711140  0.65884583  1
  Fe  Fe32  1  0.15934411  0.49292037  0.82756788  1
  Fe  Fe33  1  0.16384327  0.82551244  0.49410891  1
  Cr  Cr34  1  -0.00446427  0.65729745  0.66107910  1
  Cr  Cr35  1  0.16219845  0.82553549  0.82822298  1
  Cr  Cr36  1  0.49438365  0.16187862  0.49609141  1
  Fe  Fe37  1  0.32952269  0.99132379  0.66105849  1
  Cr  Cr38  1  0.49560132  0.16329137  0.82585947  1
  Cr  Cr39  1  0.49432790  0.49543670  0.48918376  1
  Cr  Cr40  1  0.32548771  0.32901422  0.66246754  1
  Fe  Fe41  1  0.49770712  0.49494550  0.82630979  1
  Fe  Fe42  1  0.49348817  0.82909234  0.49310466  1
  Cr  Cr43  1  0.33003910  0.65984980  0.66029160  1
  Fe  Fe44  1  0.49564489  0.83087957  0.82628314  1
  Cr  Cr45  1  0.82547319  0.16048445  0.50007165  1
  Fe  Fe46  1  0.65885902  0.99341454  0.66117667  1
  Cr  Cr47  1  0.82600166  0.16200149  0.82198643  1
  Cr  Cr48  1  0.82502378  0.49374917  0.49314611  1
  Fe  Fe49  1  0.65927113  0.33327483  0.66110831  1
  Fe  Fe50  1  0.82747661  0.49375982  0.82735586  1
  Cr  Cr51  1  0.83088841  0.82808044  0.49478380  1
  Cr  Cr52  1  0.66008480  0.66605230  0.66116793  1
  Cr  Cr53  1  0.83209560  0.82775522  0.82925821  1
" 