1619,Fe78Cr22_9,-208.136037188408, 207.651287969447,Fe78Cr22,"# generated using pymatgen
 data_Cr7Fe2
_symmetry_space_group_name_H-M   'P 1'
_cell_length_a   7.57429339
_cell_length_b   7.57429339
_cell_length_c   10.71166843
_cell_angle_alpha   90.00000000
_cell_angle_beta   90.00000000
_cell_angle_gamma   90.00000000
_symmetry_Int_Tables_number   1
_chemical_formula_structural   Cr7Fe2
_chemical_formula_sum   'Cr42 Fe12'
_cell_volume   614.52756420
_cell_formula_units_Z   6
loop_
 _symmetry_equiv_pos_site_id
 _symmetry_equiv_pos_as_xyz
  1  'x, y, z'
loop_
 _atom_site_type_symbol
 _atom_site_label
 _atom_site_symmetry_multiplicity
 _atom_site_fract_x
 _atom_site_fract_y
 _atom_site_fract_z
 _atom_site_occupancy
  Cr  Cr0  1  0.99214618  -0.00669074  0.99202298  1
  Cr  Cr1  1  0.16042059  0.15841279  0.15976296  1
  Cr  Cr2  1  0.99083310  -0.00634934  0.32892422  1
  Cr  Cr3  1  -0.00475513  0.32635370  0.99291723  1
  Fe  Fe4  1  0.15959377  0.49070674  0.16003320  1
  Cr  Cr5  1  -0.00627466  0.32532423  0.32723039  1
  Cr  Cr6  1  -0.00642000  0.65895702  -0.00503190  1
  Cr  Cr7  1  0.16108096  0.82826062  0.16051319  1
  Cr  Cr8  1  0.99281789  0.65949933  0.32546132  1
  Cr  Cr9  1  0.32689736  -0.00548080  0.98973264  1
  Cr  Cr10  1  0.49300359  0.15993946  0.16125447  1
  Fe  Fe11  1  0.32603922  -0.00560240  0.32781503  1
  Cr  Cr12  1  0.32600006  0.32721258  0.99013209  1
  Fe  Fe13  1  0.49329512  0.49083870  0.16036131  1
  Cr  Cr14  1  0.32674480  0.32703893  0.32724641  1
  Cr  Cr15  1  0.32663313  0.65687993  -0.00320512  1
  Cr  Cr16  1  0.49115195  0.82883314  0.15982539  1
  Cr  Cr17  1  0.32656838  0.65728258  0.32196643  1
  Cr  Cr18  1  0.65973540  0.99271483  0.99092829  1
  Cr  Cr19  1  0.82550600  0.16143341  0.15971936  1
  Cr  Cr20  1  0.66075874  -0.00624024  0.32895558  1
  Cr  Cr21  1  0.65736917  0.32630225  -0.00626294  1
  Cr  Cr22  1  0.82525663  0.49028404  0.15956316  1
  Fe  Fe23  1  0.66003647  0.32634944  0.32776682  1
  Cr  Cr24  1  0.65855003  0.65994235  -0.00631355  1
  Cr  Cr25  1  0.82638932  0.82733587  0.15861990  1
  Cr  Cr26  1  0.65912296  0.66014826  0.32538415  1
  Fe  Fe27  1  0.16101325  0.15991417  0.49236821  1
  Cr  Cr28  1  0.99160117  -0.00668652  0.65794785  1
  Fe  Fe29  1  0.15935645  0.15925385  0.82588595  1
  Cr  Cr30  1  0.15867245  0.49374451  0.49451238  1
  Cr  Cr31  1  -0.00539136  0.32379448  0.65949493  1
  Cr  Cr32  1  0.15791390  0.49386760  0.82468815  1
  Cr  Cr33  1  0.16068181  0.82772200  0.49195028  1
  Fe  Fe34  1  0.99244522  0.66100278  0.65835507  1
  Cr  Cr35  1  0.16014363  0.82679251  0.82605122  1
  Fe  Fe36  1  0.49239722  0.15985857  0.49188940  1
  Cr  Cr37  1  0.32656741  -0.00408012  0.65967427  1
  Fe  Fe38  1  0.49322941  0.15992636  0.82580239  1
  Cr  Cr39  1  0.49457326  0.49227181  0.49306313  1
  Cr  Cr40  1  0.32596931  0.32540094  0.66118505  1
  Cr  Cr41  1  0.49486754  0.49310654  0.82463501  1
  Cr  Cr42  1  0.49112373  0.82747330  0.49258420  1
  Cr  Cr43  1  0.32702729  0.65866319  0.65980352  1
  Cr  Cr44  1  0.49193942  0.82645828  0.82578280  1
  Fe  Fe45  1  0.82547870  0.15986915  0.49287076  1
  Cr  Cr46  1  0.66043776  0.99197712  0.65936209  1
  Cr  Cr47  1  0.82613037  0.16146892  0.82937559  1
  Cr  Cr48  1  0.82598125  0.49143679  0.49601537  1
  Cr  Cr49  1  0.65816239  0.32336751  0.65849892  1
  Cr  Cr50  1  0.82608087  0.49247693  0.82348978  1
  Fe  Fe51  1  0.82589593  0.82418330  0.49400822  1
  Fe  Fe52  1  0.66013463  0.66039796  0.65831811  1
  Cr  Cr53  1  0.82676814  0.82435357  0.82476652  1
" 