1072,Fe78Cr22_4,-208.369075950537, 203.219608283327,Fe78Cr22,"# generated using pymatgen
 data_Cr7Fe2
_symmetry_space_group_name_H-M   'P 1'
_cell_length_a   7.57756146
_cell_length_b   7.57756146
_cell_length_c   10.71629018
_cell_angle_alpha   90.00000000
_cell_angle_beta   90.00000000
_cell_angle_gamma   90.00000000
_symmetry_Int_Tables_number   1
_chemical_formula_structural   Cr7Fe2
_chemical_formula_sum   'Cr42 Fe12'
_cell_volume   615.32335546
_cell_formula_units_Z   6
loop_
 _symmetry_equiv_pos_site_id
 _symmetry_equiv_pos_as_xyz
  1  'x, y, z'
loop_
 _atom_site_type_symbol
 _atom_site_label
 _atom_site_symmetry_multiplicity
 _atom_site_fract_x
 _atom_site_fract_y
 _atom_site_fract_z
 _atom_site_occupancy
  Cr  Cr0  1  0.99202527  -0.00655453  -0.00709062  1
  Cr  Cr1  1  0.16016209  0.15976699  0.16081456  1
  Cr  Cr2  1  0.99178874  0.99268971  0.32457285  1
  Cr  Cr3  1  0.99158151  0.32653678  0.99147988  1
  Cr  Cr4  1  0.16049680  0.49218616  0.16034580  1
  Cr  Cr5  1  0.99157038  0.32641421  0.32524566  1
  Cr  Cr6  1  0.99130248  0.65804660  -0.00594776  1
  Cr  Cr7  1  0.15828060  0.82631343  0.15827228  1
  Cr  Cr8  1  0.99012978  0.65892820  0.32484352  1
  Cr  Cr9  1  0.32653781  0.99229220  0.99233378  1
  Cr  Cr10  1  0.49257465  0.16039565  0.16098118  1
  Cr  Cr11  1  0.32905414  -0.00619190  0.32798550  1
  Cr  Cr12  1  0.32563405  0.32613205  -0.00692543  1
  Cr  Cr13  1  0.49269571  0.49167008  0.15843031  1
  Fe  Fe14  1  0.32706190  0.32649183  0.32645666  1
  Fe  Fe15  1  0.32532989  0.65867531  0.99235825  1
  Cr  Cr16  1  0.49378084  0.82630180  0.15846310  1
  Cr  Cr17  1  0.32792431  0.66070000  0.32794114  1
  Cr  Cr18  1  0.65956429  0.99258325  -0.00676928  1
  Cr  Cr19  1  0.82545339  0.15804791  0.15878406  1
  Fe  Fe20  1  0.65947740  -0.00719375  0.32682388  1
  Cr  Cr21  1  0.66102157  0.32663355  0.99187283  1
  Fe  Fe22  1  0.82629874  0.49241468  0.15941150  1
  Cr  Cr23  1  0.65919128  0.32573594  0.32608389  1
  Cr  Cr24  1  0.65999621  0.65876741  -0.00353728  1
  Fe  Fe25  1  0.82585106  0.82620637  0.15979258  1
  Cr  Cr26  1  0.66010882  0.66029340  0.32318357  1
  Cr  Cr27  1  0.15950711  0.16011165  0.48907757  1
  Cr  Cr28  1  0.99177181  -0.00467191  0.66040272  1
  Cr  Cr29  1  0.15850017  0.15934613  0.82814252  1
  Cr  Cr30  1  0.15974468  0.49184367  0.49239594  1
  Cr  Cr31  1  0.99081868  0.32470773  0.66117889  1
  Fe  Fe32  1  0.15997781  0.49316294  0.82650717  1
  Cr  Cr33  1  0.15799404  0.82641269  0.49343615  1
  Cr  Cr34  1  -0.00690838  0.65812170  0.65901144  1
  Cr  Cr35  1  0.15902140  0.82474048  0.82699399  1
  Fe  Fe36  1  0.49575311  0.15835781  0.49277216  1
  Cr  Cr37  1  0.32845433  -0.00728103  0.65776529  1
  Cr  Cr38  1  0.49569739  0.16021026  0.82543947  1
  Cr  Cr39  1  0.49345639  0.49044005  0.49255985  1
  Cr  Cr40  1  0.32637099  0.32504693  0.65853055  1
  Cr  Cr41  1  0.49255535  0.49261169  0.82740586  1
  Fe  Fe42  1  0.49417911  0.82745450  0.49252256  1
  Cr  Cr43  1  0.32699828  0.66010709  0.66043010  1
  Cr  Cr44  1  0.49343775  0.82532554  0.82663241  1
  Fe  Fe45  1  0.82376258  0.15932725  0.49298724  1
  Fe  Fe46  1  0.65935446  -0.00504814  0.65835657  1
  Fe  Fe47  1  0.82430591  0.15896112  0.82543319  1
  Cr  Cr48  1  0.82484368  0.49185198  0.49300980  1
  Fe  Fe49  1  0.65945348  0.32323048  0.65863460  1
  Cr  Cr50  1  0.82449415  0.49177953  0.82449394  1
  Cr  Cr51  1  0.82423200  0.82853356  0.49207405  1
  Cr  Cr52  1  0.65789688  0.65980999  0.65788923  1
  Cr  Cr53  1  0.82565555  0.82744539  0.82593275  1
" 