1643,Fe78Cr22_19,-208.374492179576, 203.398272244942,Fe78Cr22,"# generated using pymatgen
 data_Cr7Fe2
_symmetry_space_group_name_H-M   'P 1'
_cell_length_a   7.58315110
_cell_length_b   7.58315110
_cell_length_c   10.72419513
_cell_angle_alpha   90.00000000
_cell_angle_beta   90.00000000
_cell_angle_gamma   90.00000000
_symmetry_Int_Tables_number   1
_chemical_formula_structural   Cr7Fe2
_chemical_formula_sum   'Cr42 Fe12'
_cell_volume   616.68605274
_cell_formula_units_Z   6
loop_
 _symmetry_equiv_pos_site_id
 _symmetry_equiv_pos_as_xyz
  1  'x, y, z'
loop_
 _atom_site_type_symbol
 _atom_site_label
 _atom_site_symmetry_multiplicity
 _atom_site_fract_x
 _atom_site_fract_y
 _atom_site_fract_z
 _atom_site_occupancy
  Cr  Cr0  1  0.99092930  0.99092739  0.99168668  1
  Cr  Cr1  1  0.15941139  0.16029397  0.16027967  1
  Cr  Cr2  1  -0.00720439  0.99217483  0.32634408  1
  Cr  Cr3  1  0.99203190  0.32732452  -0.00764692  1
  Fe  Fe4  1  0.16005531  0.49199775  0.15935488  1
  Cr  Cr5  1  -0.00613417  0.32565122  0.32523896  1
  Cr  Cr6  1  0.99221827  0.65878491  -0.00760869  1
  Cr  Cr7  1  0.16070578  0.82540913  0.15967260  1
  Cr  Cr8  1  -0.00592045  0.65920870  0.32457913  1
  Cr  Cr9  1  0.32702334  -0.00764985  0.99075348  1
  Cr  Cr10  1  0.49142608  0.15948679  0.15917579  1
  Fe  Fe11  1  0.32569941  -0.00629445  0.32637398  1
  Cr  Cr12  1  0.32702142  0.32700877  -0.00703981  1
  Fe  Fe13  1  0.49165816  0.49233793  0.15896440  1
  Fe  Fe14  1  0.32603143  0.32534677  0.32602634  1
  Cr  Cr15  1  0.32541706  0.65767716  -0.00544738  1
  Cr  Cr16  1  0.49202830  0.82430627  0.15857081  1
  Cr  Cr17  1  0.32546038  0.65703882  0.32413516  1
  Cr  Cr18  1  0.65908355  -0.00746650  0.99136189  1
  Cr  Cr19  1  0.82619523  0.16000232  0.15936441  1
  Cr  Cr20  1  0.65828327  -0.00624162  0.32589468  1
  Cr  Cr21  1  0.65798142  0.32571704  0.99202290  1
  Cr  Cr22  1  0.82509876  0.49193944  0.15795007  1
  Cr  Cr23  1  0.65611857  0.32515677  0.32633527  1
  Fe  Fe24  1  0.65934628  0.65864984  0.99203542  1
  Cr  Cr25  1  0.82429968  0.82509083  0.15874028  1
  Cr  Cr26  1  0.65749180  0.65811568  0.32568160  1
  Fe  Fe27  1  0.16035325  0.15897352  0.49166096  1
  Cr  Cr28  1  0.99201430  0.99116317  0.65900598  1
  Cr  Cr29  1  0.15929178  0.15928684  0.82535757  1
  Cr  Cr30  1  0.16015365  0.49032524  0.49208429  1
  Cr  Cr31  1  0.99202190  0.32642531  0.65944954  1
  Cr  Cr32  1  0.15788377  0.49155789  0.82607686  1
  Cr  Cr33  1  0.16067176  0.82747296  0.49203475  1
  Cr  Cr34  1  0.99111765  0.65944667  0.66007121  1
  Cr  Cr35  1  0.15946691  0.82618807  0.82532189  1
  Fe  Fe36  1  0.49096892  0.15969640  0.49161902  1
  Cr  Cr37  1  0.32659100  -0.00633435  0.65883940  1
  Fe  Fe38  1  0.49227826  0.15903577  0.82570854  1
  Fe  Fe39  1  0.49238566  0.49171276  0.49239617  1
  Cr  Cr40  1  0.32768107  0.32502464  0.65774039  1
  Cr  Cr41  1  0.49468712  0.49343711  0.82532209  1
  Cr  Cr42  1  0.49202260  0.82527552  0.49234482  1
  Cr  Cr43  1  0.32608103  0.65834430  0.65834729  1
  Cr  Cr44  1  0.49390158  0.82510609  0.82611378  1
  Cr  Cr45  1  0.82624897  0.16004034  0.49076592  1
  Cr  Cr46  1  0.65843235  -0.00723687  0.65977736  1
  Cr  Cr47  1  0.82555181  0.16008129  0.82690290  1
  Cr  Cr48  1  0.82404498  0.49201707  0.49455290  1
  Cr  Cr49  1  0.65733275  0.32592055  0.65867678  1
  Fe  Fe50  1  0.82499792  0.49377565  0.82567565  1
  Cr  Cr51  1  0.82433781  0.82497686  0.49297136  1
  Fe  Fe52  1  0.65933215  0.65866650  0.65932149  1
  Fe  Fe53  1  0.82500255  0.82423688  0.82567204  1
" 