1914,Fe78Cr22_13,-208.240272558906, 205.901027204997,Fe78Cr22,"# generated using pymatgen
 data_Cr7Fe2
_symmetry_space_group_name_H-M   'P 1'
_cell_length_a   7.57343322
_cell_length_b   7.57343322
_cell_length_c   10.71045197
_cell_angle_alpha   90.00000000
_cell_angle_beta   90.00000000
_cell_angle_gamma   90.00000000
_symmetry_Int_Tables_number   1
_chemical_formula_structural   Cr7Fe2
_chemical_formula_sum   'Cr42 Fe12'
_cell_volume   614.31822334
_cell_formula_units_Z   6
loop_
 _symmetry_equiv_pos_site_id
 _symmetry_equiv_pos_as_xyz
  1  'x, y, z'
loop_
 _atom_site_type_symbol
 _atom_site_label
 _atom_site_symmetry_multiplicity
 _atom_site_fract_x
 _atom_site_fract_y
 _atom_site_fract_z
 _atom_site_occupancy
  Cr  Cr0  1  0.99279597  0.99171719  -0.00510719  1
  Cr  Cr1  1  0.15875098  0.15698227  0.16044439  1
  Cr  Cr2  1  0.99170494  0.99237638  0.32528096  1
  Cr  Cr3  1  -0.00586683  0.32532981  -0.00656414  1
  Cr  Cr4  1  0.15861029  0.48976594  0.16105814  1
  Cr  Cr5  1  0.99276738  0.32528252  0.32817581  1
  Cr  Cr6  1  -0.00418211  0.66072820  -0.00662990  1
  Fe  Fe7  1  0.16019059  0.82622549  0.16073858  1
  Cr  Cr8  1  -0.00510867  0.66059904  0.32745449  1
  Cr  Cr9  1  0.32620080  -0.00680456  -0.00692255  1
  Cr  Cr10  1  0.49077470  0.15773562  0.16158021  1
  Fe  Fe11  1  0.32585935  -0.00616418  0.32692715  1
  Cr  Cr12  1  0.32730084  0.32640288  0.99166095  1
  Cr  Cr13  1  0.49485108  0.49404219  0.15996054  1
  Cr  Cr14  1  0.32692967  0.32648092  0.32763322  1
  Cr  Cr15  1  0.32421124  0.65882888  -0.00591049  1
  Cr  Cr16  1  0.49222992  0.82749013  0.16152169  1
  Cr  Cr17  1  0.32424264  0.65904194  0.32498480  1
  Cr  Cr18  1  0.65939525  -0.00489901  0.99039254  1
  Fe  Fe19  1  0.82517240  0.15896557  0.15987212  1
  Cr  Cr20  1  0.66069662  -0.00463732  0.33056868  1
  Cr  Cr21  1  0.65745018  0.32348684  -0.00620089  1
  Cr  Cr22  1  0.82585598  0.49189134  0.15822122  1
  Cr  Cr23  1  0.65896169  0.32347447  0.32615143  1
  Cr  Cr24  1  0.65860935  0.66031870  0.99175344  1
  Cr  Cr25  1  0.82444454  0.82593072  0.15962056  1
  Cr  Cr26  1  0.66046144  0.66024393  0.32812462  1
  Cr  Cr27  1  0.15947808  0.16051838  0.49468348  1
  Cr  Cr28  1  0.99161804  0.99210449  0.65923402  1
  Cr  Cr29  1  0.16087313  0.15946905  0.82390990  1
  Fe  Fe30  1  0.16112134  0.49321900  0.49480482  1
  Fe  Fe31  1  0.99138603  0.32570702  0.65783211  1
  Cr  Cr32  1  0.15927959  0.49057614  0.82134971  1
  Cr  Cr33  1  0.16231232  0.82981027  0.49202915  1
  Cr  Cr34  1  -0.00385833  0.66025207  0.65747485  1
  Cr  Cr35  1  0.16159226  0.82851206  0.82617412  1
  Fe  Fe36  1  0.49086812  0.15986293  0.49353814  1
  Fe  Fe37  1  0.32744848  -0.00555237  0.65922377  1
  Fe  Fe38  1  0.49162150  0.15982061  0.82465344  1
  Cr  Cr39  1  0.49330508  0.49401905  0.49209172  1
  Fe  Fe40  1  0.32668483  0.32612726  0.65813204  1
  Cr  Cr41  1  0.49304095  0.49400731  0.82639003  1
  Cr  Cr42  1  0.49282079  0.82780929  0.49248441  1
  Fe  Fe43  1  0.32716515  0.65997402  0.65837597  1
  Cr  Cr44  1  0.49169630  0.82722483  0.82473671  1
  Fe  Fe45  1  0.82670534  0.15949975  0.49416835  1
  Cr  Cr46  1  0.65919816  -0.00499039  0.65863077  1
  Cr  Cr47  1  0.82915693  0.16106325  0.82738469  1
  Cr  Cr48  1  0.82696511  0.49155995  0.49340519  1
  Cr  Cr49  1  0.65662220  0.32401588  0.65978387  1
  Cr  Cr50  1  0.82643452  0.49218233  0.82764892  1
  Fe  Fe51  1  0.82745608  0.82693529  0.49339438  1
  Cr  Cr52  1  0.66065281  0.66057115  0.65884900  1
  Cr  Cr53  1  0.82577028  0.82559078  0.82555135  1
" 