1316,Fe78Cr22_14,-208.143890970171, 208.099057198335,Fe78Cr22,"# generated using pymatgen
 data_Cr7Fe2
_symmetry_space_group_name_H-M   'P 1'
_cell_length_a   7.56917050
_cell_length_b   7.56917050
_cell_length_c   10.70442358
_cell_angle_alpha   90.00000000
_cell_angle_beta   90.00000000
_cell_angle_gamma   90.00000000
_symmetry_Int_Tables_number   1
_chemical_formula_structural   Cr7Fe2
_chemical_formula_sum   'Cr42 Fe12'
_cell_volume   613.28149801
_cell_formula_units_Z   6
loop_
 _symmetry_equiv_pos_site_id
 _symmetry_equiv_pos_as_xyz
  1  'x, y, z'
loop_
 _atom_site_type_symbol
 _atom_site_label
 _atom_site_symmetry_multiplicity
 _atom_site_fract_x
 _atom_site_fract_y
 _atom_site_fract_z
 _atom_site_occupancy
  Cr  Cr0  1  -0.00537313  -0.00471400  0.99310223  1
  Cr  Cr1  1  0.16102464  0.16074754  0.15985224  1
  Fe  Fe2  1  0.99308969  0.99315511  0.32643744  1
  Cr  Cr3  1  0.99281143  0.32781876  0.99247213  1
  Cr  Cr4  1  0.16109315  0.49253922  0.15867892  1
  Cr  Cr5  1  0.99152658  0.32630042  0.32560056  1
  Fe  Fe6  1  0.99209851  0.65973432  -0.00621090  1
  Cr  Cr7  1  0.15685612  0.82656083  0.16173579  1
  Cr  Cr8  1  -0.00557364  0.65913416  0.32687393  1
  Cr  Cr9  1  0.32770924  0.99193169  0.99152367  1
  Cr  Cr10  1  0.49229655  0.16170841  0.16132124  1
  Cr  Cr11  1  0.32589306  0.99102825  0.32624048  1
  Fe  Fe12  1  0.32635876  0.32594807  0.99272919  1
  Cr  Cr13  1  0.49251105  0.49186995  0.16019557  1
  Fe  Fe14  1  0.32652100  0.32680078  0.32659048  1
  Cr  Cr15  1  0.32820465  0.66232370  0.99287899  1
  Fe  Fe16  1  0.49323582  0.82611049  0.15954425  1
  Cr  Cr17  1  0.32629835  0.66207272  0.32892868  1
  Cr  Cr18  1  0.65725168  0.99148767  -0.00644449  1
  Fe  Fe19  1  0.82717236  0.16026481  0.16020909  1
  Cr  Cr20  1  0.65924850  -0.00602846  0.32503684  1
  Cr  Cr21  1  0.66262260  0.32796068  -0.00529002  1
  Fe  Fe22  1  0.82685743  0.49332776  0.15899245  1
  Cr  Cr23  1  0.66224589  0.32672588  0.32663362  1
  Fe  Fe24  1  0.66024727  0.66032646  -0.00618784  1
  Cr  Cr25  1  0.82701143  0.82631157  0.15866247  1
  Cr  Cr26  1  0.65903664  0.65908122  0.32429739  1
  Cr  Cr27  1  0.16044244  0.15892005  0.49162031  1
  Cr  Cr28  1  -0.00433695  -0.00569113  0.65894165  1
  Fe  Fe29  1  0.16024842  0.16040339  0.82713196  1
  Cr  Cr30  1  0.16277397  0.49460524  0.49336011  1
  Cr  Cr31  1  0.99258507  0.32664494  0.66159535  1
  Cr  Cr32  1  0.16155436  0.49282496  0.82784777  1
  Fe  Fe33  1  0.16002981  0.82673497  0.49328887  1
  Cr  Cr34  1  -0.00439120  0.65883644  0.65853676  1
  Cr  Cr35  1  0.15850255  0.82606943  0.82556244  1
  Cr  Cr36  1  0.49282935  0.16206103  0.49208944  1
  Cr  Cr37  1  0.32632245  0.98995884  0.66202763  1
  Cr  Cr38  1  0.49140623  0.16074708  0.82641785  1
  Cr  Cr39  1  0.49091965  0.49179270  0.49373743  1
  Cr  Cr40  1  0.32521854  0.32663238  0.66108966  1
  Cr  Cr41  1  0.49177321  0.49325732  0.82589288  1
  Cr  Cr42  1  0.49301481  0.82584857  0.49465346  1
  Fe  Fe43  1  0.32650262  0.66072386  0.66002540  1
  Fe  Fe44  1  0.49332955  0.82544382  0.82654946  1
  Cr  Cr45  1  0.82643310  0.15689968  0.49263533  1
  Cr  Cr46  1  0.65780099  0.99300272  0.66111257  1
  Cr  Cr47  1  0.82672341  0.15769092  0.82498111  1
  Cr  Cr48  1  0.82605413  0.49464552  0.49426744  1
  Cr  Cr49  1  0.66190982  0.32692918  0.65841259  1
  Cr  Cr50  1  0.82652355  0.49622669  0.82795872  1
  Cr  Cr51  1  0.82936938  0.82817573  0.49334945  1
  Cr  Cr52  1  0.65757441  0.65984272  0.66068839  1
  Cr  Cr53  1  0.82632796  0.82596220  0.82753883  1
" 