7271,Fe78Cr22_8,-208.290467772176, 206.37241407667,Fe78Cr22,"# generated using pymatgen
 data_Cr7Fe2
_symmetry_space_group_name_H-M   'P 1'
_cell_length_a   7.57139450
_cell_length_b   7.57139450
_cell_length_c   10.70756878
_cell_angle_alpha   90.00000000
_cell_angle_beta   90.00000000
_cell_angle_gamma   90.00000000
_symmetry_Int_Tables_number   1
_chemical_formula_structural   Cr7Fe2
_chemical_formula_sum   'Cr42 Fe12'
_cell_volume   613.82224442
_cell_formula_units_Z   6
loop_
 _symmetry_equiv_pos_site_id
 _symmetry_equiv_pos_as_xyz
  1  'x, y, z'
loop_
 _atom_site_type_symbol
 _atom_site_label
 _atom_site_symmetry_multiplicity
 _atom_site_fract_x
 _atom_site_fract_y
 _atom_site_fract_z
 _atom_site_occupancy
  Cr  Cr0  1  0.99122175  0.99248115  -0.00606998  1
  Cr  Cr1  1  0.16052841  0.15828663  0.15975548  1
  Fe  Fe2  1  -0.00630276  0.99307090  0.32577332  1
  Cr  Cr3  1  -0.00661440  0.32691912  0.99126736  1
  Fe  Fe4  1  0.15877210  0.49318324  0.15980781  1
  Fe  Fe5  1  -0.00644094  0.32794409  0.32601928  1
  Cr  Cr6  1  0.99265981  0.66036767  -0.00681522  1
  Cr  Cr7  1  0.15980621  0.82775476  0.15951475  1
  Cr  Cr8  1  -0.00614420  0.65966232  0.32557549  1
  Fe  Fe9  1  0.32773530  0.99305797  -0.00586442  1
  Fe  Fe10  1  0.49333804  0.15819162  0.15959184  1
  Cr  Cr11  1  0.32904582  -0.00668722  0.32553094  1
  Cr  Cr12  1  0.32727175  0.32616554  -0.00402529  1
  Fe  Fe13  1  0.49137444  0.49332565  0.15966416  1
  Cr  Cr14  1  0.32559889  0.32766610  0.32450012  1
  Cr  Cr15  1  0.32613118  0.65892583  -0.00638151  1
  Cr  Cr16  1  0.49239996  0.82450018  0.15846443  1
  Cr  Cr17  1  0.32522977  0.65832992  0.32922382  1
  Cr  Cr18  1  0.65937052  0.99284451  -0.00657730  1
  Cr  Cr19  1  0.82847784  0.16046312  0.16305037  1
  Cr  Cr20  1  0.66108749  -0.00685201  0.32731408  1
  Cr  Cr21  1  0.65843053  0.32469394  -0.00476166  1
  Cr  Cr22  1  0.82379512  0.49449767  0.15809741  1
  Cr  Cr23  1  0.65801779  0.32519765  0.32418171  1
  Fe  Fe24  1  0.65893608  0.66017626  -0.00555840  1
  Fe  Fe25  1  0.82634933  0.82735407  0.15992243  1
  Cr  Cr26  1  0.65957637  0.66116551  0.32403341  1
  Cr  Cr27  1  0.15921407  0.15884251  0.49149958  1
  Cr  Cr28  1  0.99177749  0.99205382  0.66053671  1
  Cr  Cr29  1  0.16118486  0.15762841  0.82813034  1
  Fe  Fe30  1  0.15829259  0.49180535  0.49238997  1
  Cr  Cr31  1  -0.00590787  0.32700627  0.66042016  1
  Cr  Cr32  1  0.16086029  0.49376906  0.82532923  1
  Cr  Cr33  1  0.16095190  0.82787506  0.49169526  1
  Cr  Cr34  1  -0.00577751  0.66002628  0.66013613  1
  Cr  Cr35  1  0.16266567  0.82787814  0.82860939  1
  Cr  Cr36  1  0.49297845  0.15945753  0.49340424  1
  Cr  Cr37  1  0.32953188  0.99154838  0.66112533  1
  Cr  Cr38  1  0.49197035  0.15882644  0.82737580  1
  Cr  Cr39  1  0.49431545  0.49433076  0.49225163  1
  Cr  Cr40  1  0.32594832  0.32712656  0.65895701  1
  Cr  Cr41  1  0.49463372  0.49496097  0.82803765  1
  Fe  Fe42  1  0.49439807  0.82752316  0.49268002  1
  Cr  Cr43  1  0.32648536  0.66054589  0.65623040  1
  Fe  Fe44  1  0.49351349  0.82628387  0.82788472  1
  Cr  Cr45  1  0.82738571  0.16038644  0.49277216  1
  Fe  Fe46  1  0.65933624  0.99172338  0.65949196  1
  Cr  Cr47  1  0.82581845  0.15998177  0.82362606  1
  Cr  Cr48  1  0.82547937  0.49264939  0.49375379  1
  Cr  Cr49  1  0.65901624  0.32440528  0.66035427  1
  Cr  Cr50  1  0.82375926  0.49372225  0.82673901  1
  Cr  Cr51  1  0.82667532  0.82641393  0.49084595  1
  Cr  Cr52  1  0.65864297  0.66343826  0.66002514  1
  Cr  Cr53  1  0.82509103  0.82499802  0.82835701  1
" 