1844,Fe78Cr22_6,-208.549481863744, 206.119578424998,Fe78Cr22,"# generated using pymatgen
 data_Cr7Fe2
_symmetry_space_group_name_H-M   'P 1'
_cell_length_a   7.58339295
_cell_length_b   7.58339295
_cell_length_c   10.72453716
_cell_angle_alpha   90.00000000
_cell_angle_beta   90.00000000
_cell_angle_gamma   90.00000000
_symmetry_Int_Tables_number   1
_chemical_formula_structural   Cr7Fe2
_chemical_formula_sum   'Cr42 Fe12'
_cell_volume   616.74505955
_cell_formula_units_Z   6
loop_
 _symmetry_equiv_pos_site_id
 _symmetry_equiv_pos_as_xyz
  1  'x, y, z'
loop_
 _atom_site_type_symbol
 _atom_site_label
 _atom_site_symmetry_multiplicity
 _atom_site_fract_x
 _atom_site_fract_y
 _atom_site_fract_z
 _atom_site_occupancy
  Fe  Fe0  1  0.99168514  -0.00765647  -0.00765003  1
  Cr  Cr1  1  0.15855168  0.15914431  0.15822285  1
  Cr  Cr2  1  0.99179375  0.99175861  0.32496680  1
  Cr  Cr3  1  0.99199614  0.32607872  -0.00621770  1
  Fe  Fe4  1  0.15929783  0.49268283  0.15935267  1
  Cr  Cr5  1  0.99127901  0.32780422  0.32570154  1
  Cr  Cr6  1  0.99169740  0.65919588  -0.00706499  1
  Cr  Cr7  1  0.15832598  0.82466282  0.15935060  1
  Cr  Cr8  1  0.99210115  0.65742541  0.32573700  1
  Cr  Cr9  1  0.32732046  0.99109794  0.99096533  1
  Cr  Cr10  1  0.49328277  0.15906729  0.15936397  1
  Cr  Cr11  1  0.32841707  0.99002612  0.32702382  1
  Cr  Cr12  1  0.32558045  0.32557327  -0.00624763  1
  Cr  Cr13  1  0.49101106  0.49406368  0.15921028  1
  Cr  Cr14  1  0.32553981  0.32615530  0.32297644  1
  Cr  Cr15  1  0.32650188  0.66032166  -0.00711732  1
  Fe  Fe16  1  0.49344046  0.82536039  0.15934509  1
  Fe  Fe17  1  0.32665923  0.65929742  0.32529561  1
  Fe  Fe18  1  0.65899047  0.99089627  0.99228970  1
  Cr  Cr19  1  0.82515707  0.15577990  0.15786508  1
  Fe  Fe20  1  0.65834661  0.99095923  0.32569900  1
  Cr  Cr21  1  0.65940582  0.32526277  0.99179949  1
  Cr  Cr22  1  0.82433716  0.49428441  0.15931707  1
  Cr  Cr23  1  0.66016363  0.32584323  0.32687551  1
  Fe  Fe24  1  0.65823520  0.66036775  0.99229842  1
  Cr  Cr25  1  0.82426786  0.82692100  0.15740030  1
  Fe  Fe26  1  0.65795030  0.66005842  0.32605233  1
  Cr  Cr27  1  0.15858445  0.15896121  0.49436283  1
  Cr  Cr28  1  -0.00670628  -0.00722752  0.65940823  1
  Cr  Cr29  1  0.15830287  0.15830824  0.82440483  1
  Cr  Cr30  1  0.15940560  0.49291370  0.49246545  1
  Fe  Fe31  1  0.99194821  0.32602624  0.65863479  1
  Cr  Cr32  1  0.16025270  0.49224724  0.82485443  1
  Cr  Cr33  1  0.15951715  0.82510904  0.49254754  1
  Cr  Cr34  1  0.99135966  0.65703693  0.65830619  1
  Cr  Cr35  1  0.15812570  0.82643036  0.82509095  1
  Cr  Cr36  1  0.49296863  0.15883710  0.49172886  1
  Cr  Cr37  1  0.32699120  0.99100598  0.65899741  1
  Cr  Cr38  1  0.49256668  0.15930717  0.82589232  1
  Cr  Cr39  1  0.49296676  0.49385544  0.49143236  1
  Cr  Cr40  1  0.32521697  0.32440945  0.66025586  1
  Cr  Cr41  1  0.49256172  0.49320855  0.82635008  1
  Fe  Fe42  1  0.49265070  0.82534076  0.49126012  1
  Cr  Cr43  1  0.32617454  0.66157651  0.65948810  1
  Fe  Fe44  1  0.49305360  0.82565731  0.82638478  1
  Cr  Cr45  1  0.82543697  0.15894853  0.49242446  1
  Cr  Cr46  1  0.65669905  0.99181706  0.65863934  1
  Cr  Cr47  1  0.82611988  0.15717967  0.82670038  1
  Fe  Fe48  1  0.82570720  0.49229397  0.49232677  1
  Cr  Cr49  1  0.66123794  0.32634498  0.65830534  1
  Cr  Cr50  1  0.82417391  0.49337042  0.82397834  1
  Cr  Cr51  1  0.82449545  0.82511238  0.49061132  1
  Cr  Cr52  1  0.65945402  0.65882693  0.65912506  1
  Cr  Cr53  1  0.82516201  0.82643273  0.82897532  1
" 