1954,Fe78Cr22_17,-208.273401311454, 205.597354538336,Fe78Cr22,"# generated using pymatgen
 data_Cr7Fe2
_symmetry_space_group_name_H-M   'P 1'
_cell_length_a   7.57719707
_cell_length_b   7.57719707
_cell_length_c   10.71577487
_cell_angle_alpha   90.00000000
_cell_angle_beta   90.00000000
_cell_angle_gamma   90.00000000
_symmetry_Int_Tables_number   1
_chemical_formula_structural   Cr7Fe2
_chemical_formula_sum   'Cr42 Fe12'
_cell_volume   615.23459262
_cell_formula_units_Z   6
loop_
 _symmetry_equiv_pos_site_id
 _symmetry_equiv_pos_as_xyz
  1  'x, y, z'
loop_
 _atom_site_type_symbol
 _atom_site_label
 _atom_site_symmetry_multiplicity
 _atom_site_fract_x
 _atom_site_fract_y
 _atom_site_fract_z
 _atom_site_occupancy
  Cr  Cr0  1  -0.00663563  0.99229576  0.99228495  1
  Cr  Cr1  1  0.15913163  0.15939523  0.15865758  1
  Fe  Fe2  1  -0.00693003  -0.00681661  0.32635823  1
  Fe  Fe3  1  0.99267992  0.32601041  -0.00726437  1
  Cr  Cr4  1  0.16057650  0.49309693  0.15916110  1
  Cr  Cr5  1  -0.00544971  0.32585669  0.32533905  1
  Cr  Cr6  1  0.99222277  0.65869092  0.99192830  1
  Cr  Cr7  1  0.16220073  0.82570293  0.15950289  1
  Cr  Cr8  1  -0.00705908  0.66050196  0.32694815  1
  Fe  Fe9  1  0.32645170  0.99239288  -0.00688644  1
  Fe  Fe10  1  0.49232719  0.15975524  0.15900950  1
  Cr  Cr11  1  0.32577735  -0.00572323  0.32582426  1
  Cr  Cr12  1  0.32658953  0.32586107  -0.00659017  1
  Fe  Fe13  1  0.49233120  0.49310877  0.15907729  1
  Cr  Cr14  1  0.32641958  0.32570209  0.32628012  1
  Fe  Fe15  1  0.32760979  0.65943319  0.99268601  1
  Cr  Cr16  1  0.49099290  0.82507543  0.15840409  1
  Fe  Fe17  1  0.32649671  0.65897575  0.32572279  1
  Cr  Cr18  1  0.65770251  0.99197435  -0.00577247  1
  Cr  Cr19  1  0.82612075  0.16052920  0.15947686  1
  Cr  Cr20  1  0.65948467  0.99265836  0.32464841  1
  Cr  Cr21  1  0.65772222  0.32700236  -0.00655062  1
  Cr  Cr22  1  0.82549941  0.49115002  0.15837729  1
  Cr  Cr23  1  0.65722098  0.32569057  0.32510315  1
  Fe  Fe24  1  0.65791281  0.65864860  -0.00726382  1
  Cr  Cr25  1  0.82500563  0.82651546  0.16029937  1
  Cr  Cr26  1  0.65964472  0.65984342  0.32514766  1
  Fe  Fe27  1  0.15865038  0.15864865  0.49272135  1
  Fe  Fe28  1  -0.00681746  -0.00694958  0.65909413  1
  Cr  Cr29  1  0.15849357  0.15895796  0.82635846  1
  Cr  Cr30  1  0.16044073  0.49285593  0.49122342  1
  Cr  Cr31  1  -0.00648617  0.32546347  0.65976001  1
  Cr  Cr32  1  0.15994038  0.49279801  0.82780778  1
  Cr  Cr33  1  0.15980399  0.82705622  0.49167779  1
  Cr  Cr34  1  0.99189088  0.66054569  0.65931791  1
  Cr  Cr35  1  0.16156400  0.82643645  0.82701403  1
  Cr  Cr36  1  0.49323164  0.16007259  0.49355025  1
  Cr  Cr37  1  0.32504278  -0.00536498  0.65975929  1
  Cr  Cr38  1  0.49319136  0.15959043  0.82548981  1
  Cr  Cr39  1  0.49242168  0.49286676  0.49317909  1
  Cr  Cr40  1  0.32684189  0.32529289  0.65850336  1
  Fe  Fe41  1  0.49309575  0.49306479  0.82639621  1
  Cr  Cr42  1  0.49127515  0.82525606  0.49203748  1
  Cr  Cr43  1  0.32601051  0.65826323  0.65964181  1
  Cr  Cr44  1  0.49124323  0.82467111  0.82775792  1
  Cr  Cr45  1  0.82713669  0.15943961  0.49386439  1
  Cr  Cr46  1  0.66012956  -0.00697719  0.65931785  1
  Cr  Cr47  1  0.82650846  0.16121265  0.82484936  1
  Cr  Cr48  1  0.82533584  0.49090170  0.49350697  1
  Fe  Fe49  1  0.65896405  0.32648757  0.65978856  1
  Cr  Cr50  1  0.82474733  0.49085174  0.82631144  1
  Cr  Cr51  1  0.82711884  0.82785936  0.49236564  1
  Cr  Cr52  1  0.66029080  0.65874380  0.66076891  1
  Cr  Cr53  1  0.82538928  0.82612922  0.82552947  1
" 