8117,Fe78Cr22_7,-208.461777003644, 208.480620892222,Fe78Cr22,"# generated using pymatgen
 data_Cr7Fe2
_symmetry_space_group_name_H-M   'P 1'
_cell_length_a   7.57629023
_cell_length_b   7.57629023
_cell_length_c   10.71449239
_cell_angle_alpha   90.00000000
_cell_angle_beta   90.00000000
_cell_angle_gamma   90.00000000
_symmetry_Int_Tables_number   1
_chemical_formula_structural   Cr7Fe2
_chemical_formula_sum   'Cr42 Fe12'
_cell_volume   615.01372299
_cell_formula_units_Z   6
loop_
 _symmetry_equiv_pos_site_id
 _symmetry_equiv_pos_as_xyz
  1  'x, y, z'
loop_
 _atom_site_type_symbol
 _atom_site_label
 _atom_site_symmetry_multiplicity
 _atom_site_fract_x
 _atom_site_fract_y
 _atom_site_fract_z
 _atom_site_occupancy
  Cr  Cr0  1  -0.00705300  -0.00640858  0.99232909  1
  Cr  Cr1  1  0.15844864  0.16216814  0.16279729  1
  Fe  Fe2  1  0.99183772  -0.00715284  0.32594915  1
  Fe  Fe3  1  0.99263584  0.32604957  0.99266212  1
  Cr  Cr4  1  0.15780170  0.49243303  0.15834323  1
  Fe  Fe5  1  0.99217671  0.32650878  0.32641454  1
  Fe  Fe6  1  -0.00719547  0.65851686  0.99266713  1
  Cr  Cr7  1  0.15759638  0.82385729  0.15890214  1
  Fe  Fe8  1  -0.00714096  0.65899286  0.32661247  1
  Cr  Cr9  1  0.32340066  -0.00692885  -0.00671696  1
  Cr  Cr10  1  0.49302375  0.15932773  0.16108253  1
  Cr  Cr11  1  0.32267096  -0.00682706  0.32666677  1
  Cr  Cr12  1  0.32659166  0.32660921  -0.00613693  1
  Cr  Cr13  1  0.49153331  0.49259879  0.15893833  1
  Fe  Fe14  1  0.32583127  0.32745273  0.32607854  1
  Fe  Fe15  1  0.32589335  0.65917751  0.99243351  1
  Cr  Cr16  1  0.49403835  0.82670785  0.15767696  1
  Cr  Cr17  1  0.32564300  0.65936345  0.32522902  1
  Fe  Fe18  1  0.65932621  -0.00656580  0.99239156  1
  Cr  Cr19  1  0.82630531  0.15958396  0.15710454  1
  Cr  Cr20  1  0.66075209  -0.00684431  0.32430996  1
  Cr  Cr21  1  0.66082570  0.32646905  0.99184584  1
  Cr  Cr22  1  0.82931711  0.49316317  0.16089435  1
  Cr  Cr23  1  0.66055981  0.32794252  0.32625064  1
  Cr  Cr24  1  0.65975973  0.65687091  -0.00694458  1
  Cr  Cr25  1  0.82626926  0.82549199  0.15925736  1
  Cr  Cr26  1  0.66126332  0.65708453  0.32826498  1
  Cr  Cr27  1  0.15851601  0.16208467  0.49155741  1
  Cr  Cr28  1  -0.00645018  -0.00634151  0.65988372  1
  Cr  Cr29  1  0.15783640  0.16247623  0.82424592  1
  Cr  Cr30  1  0.15722113  0.49135388  0.49182806  1
  Fe  Fe31  1  0.99243497  0.32687645  0.65925060  1
  Cr  Cr32  1  0.15876172  0.49227393  0.82829823  1
  Cr  Cr33  1  0.15822044  0.82527927  0.49261160  1
  Cr  Cr34  1  0.99198127  0.65932067  0.65784196  1
  Cr  Cr35  1  0.15926765  0.82390314  0.82671653  1
  Cr  Cr36  1  0.49280390  0.15955600  0.49141009  1
  Cr  Cr37  1  0.32355551  -0.00708068  0.65839872  1
  Cr  Cr38  1  0.49416479  0.15877453  0.82599711  1
  Cr  Cr39  1  0.49168667  0.49193124  0.49335813  1
  Cr  Cr40  1  0.32674815  0.32666436  0.65932394  1
  Fe  Fe41  1  0.49271595  0.49301044  0.82678798  1
  Cr  Cr42  1  0.49380508  0.82707079  0.49424201  1
  Cr  Cr43  1  0.32603959  0.65860684  0.66175011  1
  Cr  Cr44  1  0.49375413  0.82574612  0.82656474  1
  Cr  Cr45  1  0.82702890  0.16053655  0.49396817  1
  Cr  Cr46  1  0.66144190  -0.00619476  0.66106531  1
  Fe  Fe47  1  0.82712600  0.16000743  0.82682418  1
  Fe  Fe48  1  0.82808574  0.49127945  0.49214256  1
  Cr  Cr49  1  0.66129079  0.32787025  0.66028129  1
  Cr  Cr50  1  0.82885356  0.49161300  0.82525329  1
  Cr  Cr51  1  0.82629750  0.82567653  0.49115399  1
  Cr  Cr52  1  0.66043101  0.65653204  0.65714118  1
  Cr  Cr53  1  0.82495567  0.82621735  0.82748628  1
" 