7566,Fe78Cr22_11,-208.354613098655, 205.455865581114,Fe78Cr22,"# generated using pymatgen
 data_Cr7Fe2
_symmetry_space_group_name_H-M   'P 1'
_cell_length_a   7.57665651
_cell_length_b   7.57665651
_cell_length_c   10.71501040
_cell_angle_alpha   90.00000000
_cell_angle_beta   90.00000000
_cell_angle_gamma   90.00000000
_symmetry_Int_Tables_number   1
_chemical_formula_structural   Cr7Fe2
_chemical_formula_sum   'Cr42 Fe12'
_cell_volume   615.10292904
_cell_formula_units_Z   6
loop_
 _symmetry_equiv_pos_site_id
 _symmetry_equiv_pos_as_xyz
  1  'x, y, z'
loop_
 _atom_site_type_symbol
 _atom_site_label
 _atom_site_symmetry_multiplicity
 _atom_site_fract_x
 _atom_site_fract_y
 _atom_site_fract_z
 _atom_site_occupancy
  Fe  Fe0  1  -0.00653613  0.99207349  -0.00649227  1
  Cr  Cr1  1  0.15973930  0.15720965  0.16013923  1
  Cr  Cr2  1  0.99235059  0.99237941  0.32549021  1
  Cr  Cr3  1  -0.00692865  0.32604009  0.99221802  1
  Cr  Cr4  1  0.15912964  0.49234805  0.16044571  1
  Fe  Fe5  1  0.99199082  0.32612644  0.32680161  1
  Cr  Cr6  1  -0.00615069  0.66245617  -0.00556280  1
  Fe  Fe7  1  0.15902166  0.82714232  0.15909590  1
  Cr  Cr8  1  -0.00637895  0.65926718  0.32423408  1
  Fe  Fe9  1  0.32577576  -0.00687390  -0.00691657  1
  Fe  Fe10  1  0.49205842  0.15880556  0.15950410  1
  Fe  Fe11  1  0.32651351  0.99236149  0.32578777  1
  Cr  Cr12  1  0.32832565  0.32463018  0.99112201  1
  Cr  Cr13  1  0.49354195  0.49285033  0.15891984  1
  Cr  Cr14  1  0.32614608  0.32526204  0.32500256  1
  Cr  Cr15  1  0.32350473  0.65979738  -0.00665898  1
  Cr  Cr16  1  0.49217237  0.82716874  0.16131757  1
  Cr  Cr17  1  0.32458814  0.66096535  0.32619510  1
  Cr  Cr18  1  0.65955251  -0.00535997  -0.00665660  1
  Cr  Cr19  1  0.82719496  0.15858216  0.16009890  1
  Cr  Cr20  1  0.65870273  -0.00606192  0.32653534  1
  Cr  Cr21  1  0.65690310  0.32336674  0.99268301  1
  Cr  Cr22  1  0.82562787  0.49315459  0.16040741  1
  Cr  Cr23  1  0.66040213  0.32399799  0.32562792  1
  Cr  Cr24  1  0.66094657  0.66029161  -0.00660983  1
  Fe  Fe25  1  0.82720315  0.82644500  0.15910069  1
  Cr  Cr26  1  0.66009215  0.66036648  0.32680933  1
  Cr  Cr27  1  0.15758960  0.15951730  0.49152679  1
  Cr  Cr28  1  0.99135866  0.99267916  0.65994239  1
  Cr  Cr29  1  0.15971178  0.15820206  0.82662749  1
  Cr  Cr30  1  0.15807839  0.49089353  0.49217759  1
  Cr  Cr31  1  0.99183172  0.32656804  0.65693090  1
  Cr  Cr32  1  0.16016759  0.49159691  0.82566855  1
  Cr  Cr33  1  0.16164747  0.82788953  0.49222482  1
  Cr  Cr34  1  0.99261094  0.65905294  0.65963993  1
  Cr  Cr35  1  0.15939439  0.82850533  0.82780762  1
  Cr  Cr36  1  0.49260195  0.15734221  0.49140715  1
  Cr  Cr37  1  0.32781927  0.99238611  0.65908074  1
  Fe  Fe38  1  0.49243294  0.15904329  0.82639987  1
  Cr  Cr39  1  0.49479150  0.49573323  0.49359282  1
  Cr  Cr40  1  0.32673720  0.32625313  0.66217326  1
  Cr  Cr41  1  0.49378105  0.49315602  0.82579033  1
  Fe  Fe42  1  0.49268042  0.82610735  0.49275058  1
  Cr  Cr43  1  0.32625395  0.65966073  0.65876300  1
  Cr  Cr44  1  0.49347726  0.82586124  0.82335550  1
  Fe  Fe45  1  0.82649271  0.16053624  0.49238265  1
  Cr  Cr46  1  0.65912156  -0.00684425  0.65842273  1
  Cr  Cr47  1  0.82699182  0.15850721  0.82601663  1
  Fe  Fe48  1  0.82613802  0.49200615  0.49274509  1
  Cr  Cr49  1  0.65972893  0.32500258  0.65998704  1
  Cr  Cr50  1  0.82434991  0.49346714  0.82504695  1
  Cr  Cr51  1  0.82325554  0.82570881  0.49441025  1
  Fe  Fe52  1  0.65943509  0.65944640  0.65870253  1
  Cr  Cr53  1  0.82543120  0.82632918  0.82718778  1
" 