471,Fe78Cr22_12,-208.540917066993, 204.58665049111,Fe78Cr22,"# generated using pymatgen
 data_Cr7Fe2
_symmetry_space_group_name_H-M   'P 1'
_cell_length_a   7.58094668
_cell_length_b   7.58094668
_cell_length_c   10.72107761
_cell_angle_alpha   90.00000000
_cell_angle_beta   90.00000000
_cell_angle_gamma   90.00000000
_symmetry_Int_Tables_number   1
_chemical_formula_structural   Cr7Fe2
_chemical_formula_sum   'Cr42 Fe12'
_cell_volume   616.14839814
_cell_formula_units_Z   6
loop_
 _symmetry_equiv_pos_site_id
 _symmetry_equiv_pos_as_xyz
  1  'x, y, z'
loop_
 _atom_site_type_symbol
 _atom_site_label
 _atom_site_symmetry_multiplicity
 _atom_site_fract_x
 _atom_site_fract_y
 _atom_site_fract_z
 _atom_site_occupancy
  Cr  Cr0  1  0.99011147  -0.00721926  0.99123031  1
  Cr  Cr1  1  0.16023704  0.15966044  0.15923367  1
  Cr  Cr2  1  -0.00656778  0.99183011  0.32506962  1
  Cr  Cr3  1  -0.00645696  0.32603672  0.99128522  1
  Fe  Fe4  1  0.15913866  0.49248266  0.15914401  1
  Cr  Cr5  1  -0.00732564  0.32766341  0.32682645  1
  Cr  Cr6  1  -0.00675240  0.65864674  -0.00729205  1
  Cr  Cr7  1  0.15816072  0.82531907  0.16133391  1
  Fe  Fe8  1  -0.00720627  0.65808792  0.32615851  1
  Cr  Cr9  1  0.32655656  -0.00693007  -0.00638499  1
  Cr  Cr10  1  0.49147072  0.15982208  0.15860416  1
  Fe  Fe11  1  0.32584402  -0.00745910  0.32581170  1
  Fe  Fe12  1  0.32508335  0.32653334  0.99247786  1
  Cr  Cr13  1  0.49193697  0.49144833  0.15742754  1
  Cr  Cr14  1  0.32501005  0.32603339  0.32435052  1
  Cr  Cr15  1  0.32492760  0.65684932  0.99215628  1
  Cr  Cr16  1  0.49251298  0.82619240  0.15923734  1
  Cr  Cr17  1  0.32397347  0.65932096  0.32581489  1
  Fe  Fe18  1  0.65987456  0.99244235  0.99181530  1
  Cr  Cr19  1  0.82575349  0.15908256  0.15821411  1
  Cr  Cr20  1  0.65843786  -0.00713784  0.32510416  1
  Cr  Cr21  1  0.65899444  0.32440361  -0.00725474  1
  Cr  Cr22  1  0.82663086  0.49352745  0.16144390  1
  Cr  Cr23  1  0.65978294  0.32604137  0.32686527  1
  Cr  Cr24  1  0.65929022  0.66027774  0.99123574  1
  Cr  Cr25  1  0.82678774  0.82485217  0.15884384  1
  Cr  Cr26  1  0.66006494  0.65855932  0.32686537  1
  Cr  Cr27  1  0.15902763  0.15919244  0.49313968  1
  Cr  Cr28  1  0.99156472  -0.00620490  0.66115811  1
  Cr  Cr29  1  0.15766292  0.16090388  0.82507982  1
  Fe  Fe30  1  0.15781716  0.49249688  0.49248930  1
  Fe  Fe31  1  0.99215713  0.32684001  0.65949379  1
  Fe  Fe32  1  0.15857906  0.49182201  0.82582729  1
  Cr  Cr33  1  0.15900943  0.82577594  0.49105857  1
  Cr  Cr34  1  -0.00738566  0.65704518  0.65939547  1
  Cr  Cr35  1  0.15763727  0.82532461  0.82507044  1
  Cr  Cr36  1  0.49142892  0.15937412  0.49168518  1
  Cr  Cr37  1  0.32559640  0.99203684  0.65686331  1
  Cr  Cr38  1  0.49301871  0.16004776  0.82716567  1
  Cr  Cr39  1  0.49398309  0.49248556  0.49316370  1
  Cr  Cr40  1  0.32400071  0.32708723  0.65945999  1
  Cr  Cr41  1  0.49245372  0.49225766  0.82686540  1
  Cr  Cr42  1  0.49143806  0.82560452  0.49252254  1
  Cr  Cr43  1  0.32501122  0.65834072  0.65949311  1
  Cr  Cr44  1  0.49407140  0.82515579  0.82570141  1
  Cr  Cr45  1  0.82700655  0.16173054  0.49341532  1
  Cr  Cr46  1  0.66030089  -0.00721663  0.66112224  1
  Fe  Fe47  1  0.82576946  0.15912589  0.82583638  1
  Fe  Fe48  1  0.82718183  0.49250306  0.49245624  1
  Cr  Cr49  1  0.66159830  0.32604231  0.65786246  1
  Fe  Fe50  1  0.82682116  0.49215399  0.82554305  1
  Cr  Cr51  1  0.82701488  0.82322944  0.49133587  1
  Cr  Cr52  1  0.65984155  0.65863833  0.65936575  1
  Fe  Fe53  1  0.82546345  0.82618123  0.82615358  1
" 