7591,Fe78Cr22_5,-208.186810367291, 204.688814496668,Fe78Cr22,"# generated using pymatgen
 data_Cr7Fe2
_symmetry_space_group_name_H-M   'P 1'
_cell_length_a   7.57704083
_cell_length_b   7.57704083
_cell_length_c   10.71555391
_cell_angle_alpha   90.00000000
_cell_angle_beta   90.00000000
_cell_angle_gamma   90.00000000
_symmetry_Int_Tables_number   1
_chemical_formula_structural   Cr7Fe2
_chemical_formula_sum   'Cr42 Fe12'
_cell_volume   615.19653524
_cell_formula_units_Z   6
loop_
 _symmetry_equiv_pos_site_id
 _symmetry_equiv_pos_as_xyz
  1  'x, y, z'
loop_
 _atom_site_type_symbol
 _atom_site_label
 _atom_site_symmetry_multiplicity
 _atom_site_fract_x
 _atom_site_fract_y
 _atom_site_fract_z
 _atom_site_occupancy
  Cr  Cr0  1  0.99062536  0.99179422  -0.00635923  1
  Cr  Cr1  1  0.16006270  0.15829714  0.16042595  1
  Cr  Cr2  1  0.99153250  0.99174391  0.32497880  1
  Cr  Cr3  1  -0.00715524  0.32684119  0.99125910  1
  Cr  Cr4  1  0.15849430  0.49301696  0.15823528  1
  Cr  Cr5  1  -0.00715790  0.32597455  0.32607096  1
  Fe  Fe6  1  0.99245332  0.65970980  -0.00697338  1
  Fe  Fe7  1  0.15912222  0.82575626  0.15910811  1
  Cr  Cr8  1  0.99260899  0.66050622  0.32566675  1
  Cr  Cr9  1  0.32701674  0.99111878  -0.00605623  1
  Cr  Cr10  1  0.49136941  0.15831739  0.15937227  1
  Cr  Cr11  1  0.32682232  0.99199084  0.32549570  1
  Cr  Cr12  1  0.32545248  0.32817028  -0.00716156  1
  Cr  Cr13  1  0.49450855  0.49458046  0.15973812  1
  Cr  Cr14  1  0.32707976  0.32729389  0.32659168  1
  Cr  Cr15  1  0.32544899  0.65893266  0.99262025  1
  Fe  Fe16  1  0.49333337  0.82546093  0.15940685  1
  Cr  Cr17  1  0.32706804  0.65893705  0.32618614  1
  Cr  Cr18  1  0.66058287  0.99179064  -0.00672626  1
  Cr  Cr19  1  0.82679257  0.15899193  0.15914620  1
  Cr  Cr20  1  0.65987277  0.99175332  0.32487674  1
  Cr  Cr21  1  0.65992984  0.32526402  0.99090418  1
  Cr  Cr22  1  0.82522239  0.49548090  0.15951719  1
  Cr  Cr23  1  0.65830117  0.32621731  0.32852856  1
  Fe  Fe24  1  0.65999020  0.66000043  -0.00671772  1
  Fe  Fe25  1  0.82576977  0.82517470  0.15910705  1
  Fe  Fe26  1  0.65909303  0.65971145  0.32582605  1
  Cr  Cr27  1  0.16111303  0.15816346  0.49198520  1
  Cr  Cr28  1  0.99149552  -0.00702332  0.65960302  1
  Cr  Cr29  1  0.15973411  0.15908282  0.82581620  1
  Cr  Cr30  1  0.15952099  0.49241106  0.49270945  1
  Cr  Cr31  1  0.99190191  0.32603776  0.66089247  1
  Fe  Fe32  1  0.15916927  0.49308403  0.82637175  1
  Cr  Cr33  1  0.16019551  0.82765280  0.49406244  1
  Cr  Cr34  1  -0.00561883  0.65920690  0.66022610  1
  Cr  Cr35  1  0.15974542  0.82618682  0.82465151  1
  Fe  Fe36  1  0.49274570  0.15998082  0.49334225  1
  Fe  Fe37  1  0.32634507  -0.00699528  0.65911661  1
  Cr  Cr38  1  0.49263357  0.15907580  0.82492927  1
  Fe  Fe39  1  0.49332912  0.49215986  0.49274561  1
  Cr  Cr40  1  0.32743136  0.32734703  0.65879080  1
  Cr  Cr41  1  0.49394413  0.49271040  0.82639842  1
  Cr  Cr42  1  0.49237543  0.82608788  0.49343739  1
  Cr  Cr43  1  0.32561209  0.65856686  0.65941984  1
  Cr  Cr44  1  0.49237542  0.82644104  0.82632695  1
  Cr  Cr45  1  0.82540337  0.16064891  0.49362688  1
  Cr  Cr46  1  0.65953823  -0.00520119  0.66007515  1
  Fe  Fe47  1  0.82573013  0.15965002  0.82578531  1
  Cr  Cr48  1  0.82383016  0.49307216  0.49179676  1
  Fe  Fe49  1  0.65915343  0.32583443  0.65912345  1
  Cr  Cr50  1  0.82611796  0.49269556  0.82691071  1
  Cr  Cr51  1  0.82565335  0.82450587  0.49185866  1
  Cr  Cr52  1  0.65823153  0.65896702  0.65813204  1
  Cr  Cr53  1  0.82610304  0.82487380  0.82684875  1
" 