1833,Fe78Cr22_1,-208.248243180766, 207.480593963327,Fe78Cr22,"# generated using pymatgen
 data_Cr7Fe2
_symmetry_space_group_name_H-M   'P 1'
_cell_length_a   7.57644646
_cell_length_b   7.57644646
_cell_length_c   10.71471333
_cell_angle_alpha   90.00000000
_cell_angle_beta   90.00000000
_cell_angle_gamma   90.00000000
_symmetry_Int_Tables_number   1
_chemical_formula_structural   Cr7Fe2
_chemical_formula_sum   'Cr42 Fe12'
_cell_volume   615.05177033
_cell_formula_units_Z   6
loop_
 _symmetry_equiv_pos_site_id
 _symmetry_equiv_pos_as_xyz
  1  'x, y, z'
loop_
 _atom_site_type_symbol
 _atom_site_label
 _atom_site_symmetry_multiplicity
 _atom_site_fract_x
 _atom_site_fract_y
 _atom_site_fract_z
 _atom_site_occupancy
  Cr  Cr0  1  0.99191285  0.99115838  0.99115892  1
  Cr  Cr1  1  0.16043155  0.15931727  0.16238774  1
  Cr  Cr2  1  0.99176336  -0.00703566  0.32631792  1
  Cr  Cr3  1  0.99210579  0.32569159  0.99265457  1
  Cr  Cr4  1  0.15842765  0.49212328  0.16085580  1
  Fe  Fe5  1  -0.00652747  0.32618299  0.32687402  1
  Cr  Cr6  1  -0.00675800  0.66148964  0.99115997  1
  Cr  Cr7  1  0.16209306  0.82689921  0.15881895  1
  Cr  Cr8  1  -0.00689499  0.66004874  0.32752212  1
  Cr  Cr9  1  0.32593203  -0.00685224  0.99268249  1
  Fe  Fe10  1  0.49277723  0.16021122  0.15947249  1
  Fe  Fe11  1  0.32619086  -0.00651987  0.32606750  1
  Cr  Cr12  1  0.32941534  0.32736062  -0.00581682  1
  Fe  Fe13  1  0.49354128  0.49202764  0.15864978  1
  Cr  Cr14  1  0.32607550  0.32699062  0.32645233  1
  Cr  Cr15  1  0.32627315  0.65783209  0.99268319  1
  Cr  Cr16  1  0.49158335  0.82657234  0.16019709  1
  Cr  Cr17  1  0.32640194  0.65638244  0.32598922  1
  Cr  Cr18  1  0.66049404  -0.00570032  -0.00614471  1
  Cr  Cr19  1  0.82550324  0.16246515  0.15890496  1
  Cr  Cr20  1  0.66050269  0.99264896  0.32613110  1
  Fe  Fe21  1  0.65866399  0.32687353  -0.00644125  1
  Cr  Cr22  1  0.82516538  0.49130436  0.15737166  1
  Cr  Cr23  1  0.65683744  0.32565831  0.32454610  1
  Fe  Fe24  1  0.65903899  0.65832620  -0.00682415  1
  Cr  Cr25  1  0.82466436  0.82457447  0.16018947  1
  Cr  Cr26  1  0.65883739  0.66003407  0.32734093  1
  Fe  Fe27  1  0.15984180  0.15980939  0.49238259  1
  Cr  Cr28  1  0.99247405  0.99159422  0.66086586  1
  Cr  Cr29  1  0.16007100  0.15752717  0.82424665  1
  Fe  Fe30  1  0.15991018  0.49159836  0.49238319  1
  Cr  Cr31  1  -0.00503773  0.32533654  0.65772127  1
  Cr  Cr32  1  0.15807111  0.49390561  0.82577917  1
  Cr  Cr33  1  0.16170876  0.82718282  0.49282856  1
  Cr  Cr34  1  -0.00619139  0.66141207  0.65966109  1
  Fe  Fe35  1  0.15985439  0.82648720  0.82571099  1
  Cr  Cr36  1  0.49036313  0.15741852  0.49373658  1
  Fe  Fe37  1  0.32534250  0.99275859  0.65949261  1
  Cr  Cr38  1  0.49244995  0.15819143  0.82569435  1
  Fe  Fe39  1  0.49201043  0.49276658  0.49281524  1
  Cr  Cr40  1  0.32626083  0.32699436  0.65771485  1
  Cr  Cr41  1  0.49477651  0.49357589  0.82723517  1
  Cr  Cr42  1  0.49185358  0.82684155  0.49323367  1
  Cr  Cr43  1  0.32541040  0.65774720  0.65966920  1
  Cr  Cr44  1  0.49044108  0.82657599  0.82490660  1
  Cr  Cr45  1  0.82791361  0.16105080  0.49253234  1
  Cr  Cr46  1  0.66078978  0.99244440  0.65835962  1
  Cr  Cr47  1  0.82582319  0.16185528  0.82689917  1
  Cr  Cr48  1  0.82758575  0.49242689  0.49253449  1
  Cr  Cr49  1  0.65712161  0.32566311  0.66007639  1
  Cr  Cr50  1  0.82549705  0.49191097  0.82842808  1
  Fe  Fe51  1  0.82607620  0.82618692  0.49277004  1
  Cr  Cr52  1  0.65912312  0.66023412  0.65714648  1
  Cr  Cr53  1  0.82614508  0.82457693  0.82611233  1
" 