1138,Fe78Cr22_3,-208.312447280741, 205.247388103335,Fe78Cr22,"# generated using pymatgen
 data_Cr7Fe2
_symmetry_space_group_name_H-M   'P 1'
_cell_length_a   7.57163082
_cell_length_b   7.57163082
_cell_length_c   10.70790299
_cell_angle_alpha   90.00000000
_cell_angle_beta   90.00000000
_cell_angle_gamma   90.00000000
_symmetry_Int_Tables_number   1
_chemical_formula_structural   Cr7Fe2
_chemical_formula_sum   'Cr42 Fe12'
_cell_volume   613.87972237
_cell_formula_units_Z   6
loop_
 _symmetry_equiv_pos_site_id
 _symmetry_equiv_pos_as_xyz
  1  'x, y, z'
loop_
 _atom_site_type_symbol
 _atom_site_label
 _atom_site_symmetry_multiplicity
 _atom_site_fract_x
 _atom_site_fract_y
 _atom_site_fract_z
 _atom_site_occupancy
  Cr  Cr0  1  -0.00654587  -0.00643449  0.99298837  1
  Cr  Cr1  1  0.16186532  0.16081453  0.15762670  1
  Cr  Cr2  1  0.99172949  0.99121760  0.32701950  1
  Fe  Fe3  1  0.99293856  0.32743711  0.99236063  1
  Cr  Cr4  1  0.15886901  0.49275833  0.16188361  1
  Cr  Cr5  1  -0.00639179  0.32451740  0.32691668  1
  Cr  Cr6  1  -0.00639307  0.66094835  -0.00530005  1
  Cr  Cr7  1  0.16164344  0.82560245  0.15938503  1
  Fe  Fe8  1  -0.00649760  0.66030929  0.32532129  1
  Fe  Fe9  1  0.32779109  -0.00667218  -0.00618665  1
  Fe  Fe10  1  0.49229866  0.16077396  0.16028175  1
  Cr  Cr11  1  0.32602856  -0.00533606  0.32531480  1
  Cr  Cr12  1  0.32778889  0.32804033  -0.00509161  1
  Fe  Fe13  1  0.49126278  0.49261687  0.16083149  1
  Fe  Fe14  1  0.32736053  0.32766867  0.32476703  1
  Cr  Cr15  1  0.32749981  0.65729516  0.99102463  1
  Cr  Cr16  1  0.49309567  0.82848658  0.15862706  1
  Fe  Fe17  1  0.32689157  0.65883345  0.32545866  1
  Cr  Cr18  1  0.66098082  -0.00658142  -0.00391317  1
  Cr  Cr19  1  0.82570471  0.16168382  0.15811670  1
  Fe  Fe20  1  0.65990102  -0.00655621  0.32480297  1
  Cr  Cr21  1  0.65766471  0.32749707  0.99278618  1
  Cr  Cr22  1  0.82752451  0.49358075  0.15982953  1
  Cr  Cr23  1  0.65614673  0.32599805  0.32503673  1
  Cr  Cr24  1  0.65807661  0.65812714  -0.00662297  1
  Fe  Fe25  1  0.82712019  0.82658499  0.16085032  1
  Cr  Cr26  1  0.65923849  0.66010429  0.32367885  1
  Cr  Cr27  1  0.16133819  0.16131018  0.49286554  1
  Cr  Cr28  1  -0.00681747  -0.00676814  0.65910013  1
  Cr  Cr29  1  0.15958307  0.16141802  0.82934921  1
  Cr  Cr30  1  0.15915090  0.49348589  0.49006802  1
  Cr  Cr31  1  -0.00599783  0.32506862  0.66240398  1
  Fe  Fe32  1  0.16006081  0.49261455  0.82739360  1
  Cr  Cr33  1  0.16174089  0.82441458  0.49222636  1
  Cr  Cr34  1  -0.00538197  0.66071806  0.65854010  1
  Cr  Cr35  1  0.16195949  0.82703000  0.82752381  1
  Cr  Cr36  1  0.49291127  0.15863733  0.49066744  1
  Cr  Cr37  1  0.32427532  -0.00640859  0.66021190  1
  Cr  Cr38  1  0.49288131  0.15769689  0.82722020  1
  Cr  Cr39  1  0.49277593  0.49377491  0.49208917  1
  Cr  Cr40  1  0.32693490  0.32841809  0.65864299  1
  Fe  Fe41  1  0.49196640  0.49196731  0.82682751  1
  Cr  Cr42  1  0.49293864  0.82697142  0.49489373  1
  Cr  Cr43  1  0.32637400  0.65713319  0.66172895  1
  Cr  Cr44  1  0.49269701  0.82767523  0.82578146  1
  Cr  Cr45  1  0.82496573  0.16160634  0.49519690  1
  Cr  Cr46  1  0.66174093  -0.00606682  0.65806733  1
  Fe  Fe47  1  0.82609317  0.15893146  0.82767766  1
  Cr  Cr48  1  0.82725468  0.49320838  0.49287592  1
  Cr  Cr49  1  0.65831392  0.32697423  0.66133566  1
  Cr  Cr50  1  0.82810458  0.49037732  0.82715269  1
  Cr  Cr51  1  0.82453839  0.82441545  0.49043295  1
  Cr  Cr52  1  0.65820862  0.65787678  0.66201421  1
  Cr  Cr53  1  0.82485854  0.82526581  0.82698081  1
" 