3458,Fe78Cr22_16,-208.444456376312, 204.18395246778,Fe78Cr22,"# generated using pymatgen
 data_Cr7Fe2
_symmetry_space_group_name_H-M   'P 1'
_cell_length_a   7.58209240
_cell_length_b   7.58209240
_cell_length_c   10.72269791
_cell_angle_alpha   90.00000000
_cell_angle_beta   90.00000000
_cell_angle_gamma   90.00000000
_symmetry_Int_Tables_number   1
_chemical_formula_structural   Cr7Fe2
_chemical_formula_sum   'Cr42 Fe12'
_cell_volume   616.42780012
_cell_formula_units_Z   6
loop_
 _symmetry_equiv_pos_site_id
 _symmetry_equiv_pos_as_xyz
  1  'x, y, z'
loop_
 _atom_site_type_symbol
 _atom_site_label
 _atom_site_symmetry_multiplicity
 _atom_site_fract_x
 _atom_site_fract_y
 _atom_site_fract_z
 _atom_site_occupancy
  Cr  Cr0  1  0.99185079  0.99184718  -0.00634002  1
  Cr  Cr1  1  0.15989319  0.16007541  0.16124732  1
  Cr  Cr2  1  -0.00706528  -0.00599630  0.32477773  1
  Cr  Cr3  1  0.99056433  0.32599595  0.99237164  1
  Cr  Cr4  1  0.15956341  0.49202946  0.15917840  1
  Fe  Fe5  1  -0.00684416  0.32642521  0.32646095  1
  Fe  Fe6  1  -0.00756868  0.65903330  -0.00754740  1
  Cr  Cr7  1  0.15714264  0.82513387  0.15742293  1
  Cr  Cr8  1  0.99183958  0.65708301  0.32619213  1
  Cr  Cr9  1  0.32630457  0.99025072  0.99174100  1
  Cr  Cr10  1  0.49197600  0.16024110  0.15890529  1
  Cr  Cr11  1  0.32561229  0.99128041  0.32634057  1
  Cr  Cr12  1  0.32646361  0.32646575  0.99201731  1
  Cr  Cr13  1  0.49196837  0.49152274  0.16000056  1
  Fe  Fe14  1  0.32466561  0.32608463  0.32612627  1
  Cr  Cr15  1  0.32564972  0.66052333  0.99174243  1
  Cr  Cr16  1  0.49421726  0.82547543  0.15980125  1
  Cr  Cr17  1  0.32722221  0.65929250  0.32620017  1
  Fe  Fe18  1  0.65867984  0.99207590  0.99209861  1
  Cr  Cr19  1  0.82537031  0.15782542  0.15854548  1
  Cr  Cr20  1  0.65868939  0.99148133  0.32553945  1
  Cr  Cr21  1  0.66021296  0.32534137  0.99205408  1
  Cr  Cr22  1  0.82571050  0.49426844  0.15962727  1
  Cr  Cr23  1  0.66091170  0.32776458  0.32507850  1
  Cr  Cr24  1  0.65861029  0.65923252  -0.00665183  1
  Cr  Cr25  1  0.82588177  0.82514795  0.15786208  1
  Fe  Fe26  1  0.65908861  0.65917627  0.32642600  1
  Cr  Cr27  1  0.15988862  0.16113015  0.49053033  1
  Cr  Cr28  1  0.99191873  0.99235668  0.65880328  1
  Cr  Cr29  1  0.16027645  0.15919599  0.82545981  1
  Fe  Fe30  1  0.15800790  0.49204104  0.49205369  1
  Cr  Cr31  1  0.99061276  0.32725560  0.65742303  1
  Cr  Cr32  1  0.15883979  0.49401319  0.82596137  1
  Cr  Cr33  1  0.15825195  0.82457870  0.49308567  1
  Fe  Fe34  1  0.99176735  0.65835069  0.65831577  1
  Cr  Cr35  1  0.15752447  0.82403197  0.82672964  1
  Cr  Cr36  1  0.49153447  0.15911804  0.49241474  1
  Cr  Cr37  1  0.32735270  0.98961629  0.65916133  1
  Cr  Cr38  1  0.49332999  0.15825369  0.82591883  1
  Cr  Cr39  1  0.49262507  0.49324965  0.49083562  1
  Cr  Cr40  1  0.32532525  0.32666216  0.65933029  1
  Cr  Cr41  1  0.49219824  0.49238040  0.82641136  1
  Fe  Fe42  1  0.49347657  0.82546447  0.49272027  1
  Cr  Cr43  1  0.32673717  0.66096248  0.65930028  1
  Fe  Fe44  1  0.49350258  0.82609078  0.82543357  1
  Cr  Cr45  1  0.82582026  0.15887198  0.49276642  1
  Fe  Fe46  1  0.65833270  0.99104004  0.65901705  1
  Cr  Cr47  1  0.82363193  0.15694654  0.82592057  1
  Fe  Fe48  1  0.82647450  0.49307714  0.49240163  1
  Cr  Cr49  1  0.66129917  0.32663670  0.66010641  1
  Cr  Cr50  1  0.82620157  0.49512631  0.82485790  1
  Cr  Cr51  1  0.82410827  0.82348203  0.49373996  1
  Fe  Fe52  1  0.65941187  0.66014328  0.65876692  1
  Cr  Cr53  1  0.82526178  0.82516942  0.82563903  1
" 