42,Fe78Cr22_15,-208.212289119241, 208.418934958844,Fe78Cr22,"# generated using pymatgen
 data_Cr7Fe2
_symmetry_space_group_name_H-M   'P 1'
_cell_length_a   7.57160872
_cell_length_b   7.57160872
_cell_length_c   10.70787174
_cell_angle_alpha   90.00000000
_cell_angle_beta   90.00000000
_cell_angle_gamma   90.00000000
_symmetry_Int_Tables_number   1
_chemical_formula_structural   Cr7Fe2
_chemical_formula_sum   'Cr42 Fe12'
_cell_volume   613.87434877
_cell_formula_units_Z   6
loop_
 _symmetry_equiv_pos_site_id
 _symmetry_equiv_pos_as_xyz
  1  'x, y, z'
loop_
 _atom_site_type_symbol
 _atom_site_label
 _atom_site_symmetry_multiplicity
 _atom_site_fract_x
 _atom_site_fract_y
 _atom_site_fract_z
 _atom_site_occupancy
  Cr  Cr0  1  0.99176341  0.99198924  0.99189332  1
  Cr  Cr1  1  0.16041013  0.15935888  0.16049064  1
  Cr  Cr2  1  -0.00645914  -0.00589606  0.32621684  1
  Fe  Fe3  1  -0.00688077  0.32579435  0.99308797  1
  Cr  Cr4  1  0.15880273  0.49330623  0.15682004  1
  Cr  Cr5  1  -0.00432181  0.32543501  0.32869096  1
  Cr  Cr6  1  0.99120637  0.66164017  -0.00592467  1
  Cr  Cr7  1  0.16115190  0.82626984  0.16108619  1
  Cr  Cr8  1  0.99145123  0.66003156  0.32271754  1
  Cr  Cr9  1  0.32579681  -0.00529173  -0.00599638  1
  Cr  Cr10  1  0.49430442  0.15975753  0.15733637  1
  Fe  Fe11  1  0.32639879  -0.00671448  0.32768924  1
  Fe  Fe12  1  0.32589701  0.32643872  -0.00689891  1
  Cr  Cr13  1  0.49417455  0.49120070  0.15815434  1
  Cr  Cr14  1  0.32681657  0.32536081  0.32733612  1
  Cr  Cr15  1  0.32692978  0.65834131  0.99185588  1
  Cr  Cr16  1  0.49107471  0.82813322  0.16240311  1
  Cr  Cr17  1  0.32887780  0.65751157  0.32809447  1
  Cr  Cr18  1  0.66161746  0.99088403  0.99196521  1
  Cr  Cr19  1  0.82475919  0.16198775  0.15941587  1
  Cr  Cr20  1  0.65957883  0.99167672  0.32526283  1
  Fe  Fe21  1  0.66028389  0.32708153  0.99288631  1
  Cr  Cr22  1  0.82645438  0.49078993  0.16023195  1
  Fe  Fe23  1  0.65887279  0.32681415  0.32674396  1
  Cr  Cr24  1  0.66095802  0.66130303  -0.00574185  1
  Fe  Fe25  1  0.82608124  0.82732101  0.15967828  1
  Cr  Cr26  1  0.65906671  0.65929047  0.32613711  1
  Fe  Fe27  1  0.16028325  0.15856996  0.49259436  1
  Cr  Cr28  1  -0.00672676  -0.00669866  0.66174933  1
  Cr  Cr29  1  0.15971573  0.16009437  0.82720269  1
  Cr  Cr30  1  0.15943730  0.49632433  0.49447995  1
  Cr  Cr31  1  -0.00425413  0.32503302  0.65769290  1
  Cr  Cr32  1  0.15937784  0.49520104  0.82789737  1
  Cr  Cr33  1  0.16303413  0.82654634  0.49325849  1
  Cr  Cr34  1  0.99258504  0.66100049  0.66282912  1
  Fe  Fe35  1  0.15981590  0.82640117  0.82641633  1
  Cr  Cr36  1  0.49398262  0.15712026  0.49116249  1
  Cr  Cr37  1  0.32591762  -0.00542587  0.65839742  1
  Cr  Cr38  1  0.49433511  0.16006201  0.83042310  1
  Fe  Fe39  1  0.49303111  0.49419259  0.49296519  1
  Cr  Cr40  1  0.32638676  0.32736834  0.65887024  1
  Cr  Cr41  1  0.49278902  0.49286957  0.82674088  1
  Fe  Fe42  1  0.49297438  0.82548039  0.49325264  1
  Fe  Fe43  1  0.32676030  0.66002898  0.65927016  1
  Cr  Cr44  1  0.49009822  0.82649479  0.82369008  1
  Cr  Cr45  1  0.82541492  0.16047449  0.49352062  1
  Cr  Cr46  1  0.66029616  0.99158503  0.66213790  1
  Cr  Cr47  1  0.82527177  0.16143942  0.82602378  1
  Cr  Cr48  1  0.82576230  0.49224478  0.49195437  1
  Cr  Cr49  1  0.65718640  0.32747623  0.65794953  1
  Cr  Cr50  1  0.82705155  0.49135714  0.82680849  1
  Cr  Cr51  1  0.82691618  0.82646198  0.49308635  1
  Cr  Cr52  1  0.65775367  0.66005351  0.65862129  1
  Fe  Fe53  1  0.82687658  0.82556882  0.82651220  1
" 