414,Fe78Cr22_10,-208.185759390473, 206.052502262221,Fe78Cr22,"# generated using pymatgen
 data_Cr7Fe2
_symmetry_space_group_name_H-M   'P 1'
_cell_length_a   7.57675290
_cell_length_b   7.57675290
_cell_length_c   10.71514672
_cell_angle_alpha   90.00000000
_cell_angle_beta   90.00000000
_cell_angle_gamma   90.00000000
_symmetry_Int_Tables_number   1
_chemical_formula_structural   Cr7Fe2
_chemical_formula_sum   'Cr42 Fe12'
_cell_volume   615.12640521
_cell_formula_units_Z   6
loop_
 _symmetry_equiv_pos_site_id
 _symmetry_equiv_pos_as_xyz
  1  'x, y, z'
loop_
 _atom_site_type_symbol
 _atom_site_label
 _atom_site_symmetry_multiplicity
 _atom_site_fract_x
 _atom_site_fract_y
 _atom_site_fract_z
 _atom_site_occupancy
  Cr  Cr0  1  0.99264539  -0.00624877  -0.00688840  1
  Cr  Cr1  1  0.15952814  0.16034499  0.15898054  1
  Cr  Cr2  1  0.99175804  -0.00553518  0.32445808  1
  Cr  Cr3  1  0.99075806  0.32577384  -0.00581147  1
  Cr  Cr4  1  0.15872613  0.49220255  0.15907463  1
  Cr  Cr5  1  0.99209012  0.32542522  0.32645708  1
  Cr  Cr6  1  0.99152509  0.65875546  -0.00692396  1
  Cr  Cr7  1  0.15871646  0.82573445  0.15934472  1
  Cr  Cr8  1  -0.00710876  0.65838867  0.32566096  1
  Cr  Cr9  1  0.32628571  -0.00702850  0.99244423  1
  Cr  Cr10  1  0.49401913  0.16033350  0.15867902  1
  Cr  Cr11  1  0.32677815  0.99255555  0.32548235  1
  Fe  Fe12  1  0.32676452  0.32602170  0.99276037  1
  Cr  Cr13  1  0.49401298  0.49141171  0.15719474  1
  Cr  Cr14  1  0.32565981  0.32654947  0.32905499  1
  Cr  Cr15  1  0.32741286  0.65953519  0.99240387  1
  Cr  Cr16  1  0.49403574  0.82653792  0.16059367  1
  Cr  Cr17  1  0.32676865  0.65917461  0.32825219  1
  Cr  Cr18  1  0.65935058  -0.00626736  -0.00613025  1
  Fe  Fe19  1  0.82534448  0.16016641  0.15944241  1
  Fe  Fe20  1  0.65979372  -0.00684836  0.32568180  1
  Fe  Fe21  1  0.65942519  0.32680717  -0.00650903  1
  Fe  Fe22  1  0.82534307  0.49202162  0.15870879  1
  Cr  Cr23  1  0.66053224  0.32541384  0.32538325  1
  Fe  Fe24  1  0.65985733  0.65841427  -0.00687076  1
  Cr  Cr25  1  0.82553142  0.82573931  0.16094676  1
  Cr  Cr26  1  0.65862186  0.65950584  0.32614733  1
  Fe  Fe27  1  0.15936555  0.15935270  0.49348263  1
  Fe  Fe28  1  -0.00687428  -0.00686150  0.65905274  1
  Cr  Cr29  1  0.16054802  0.15903955  0.82510871  1
  Fe  Fe30  1  0.16015642  0.49202749  0.49276041  1
  Cr  Cr31  1  -0.00660902  0.32439500  0.65763600  1
  Cr  Cr32  1  0.15975362  0.49215763  0.82725120  1
  Cr  Cr33  1  0.15902225  0.82623719  0.49338473  1
  Cr  Cr34  1  -0.00691408  0.66008390  0.65955155  1
  Cr  Cr35  1  0.15863070  0.82708299  0.82554026  1
  Cr  Cr36  1  0.49241709  0.15916148  0.49306799  1
  Fe  Fe37  1  0.32574564  -0.00686515  0.65905208  1
  Cr  Cr38  1  0.49231389  0.16014135  0.82653649  1
  Fe  Fe39  1  0.49210440  0.49280108  0.49275660  1
  Cr  Cr40  1  0.32570089  0.32552114  0.65727088  1
  Cr  Cr41  1  0.49342212  0.49136867  0.82868918  1
  Cr  Cr42  1  0.49353079  0.82704463  0.49227009  1
  Cr  Cr43  1  0.32681149  0.65977178  0.65762997  1
  Cr  Cr44  1  0.49344450  0.82677350  0.82541773  1
  Cr  Cr45  1  0.82603299  0.15802790  0.49311018  1
  Fe  Fe46  1  0.65940909  -0.00721895  0.65947779  1
  Cr  Cr47  1  0.82541746  0.15901621  0.82456851  1
  Cr  Cr48  1  0.82683993  0.49288916  0.49244292  1
  Cr  Cr49  1  0.65919051  0.32550824  0.65950748  1
  Cr  Cr50  1  0.82510422  0.49328739  0.82828263  1
  Cr  Cr51  1  0.82572854  0.82736442  0.49386882  1
  Cr  Cr52  1  0.65838529  0.66008931  0.65986139  1
  Cr  Cr53  1  0.82620756  0.82597943  0.82346484  1
" 