6144,Fe78Cr22_0,-208.439622665364, 207.873690759998,Fe78Cr22,"# generated using pymatgen
 data_Cr7Fe2
_symmetry_space_group_name_H-M   'P 1'
_cell_length_a   7.57738501
_cell_length_b   7.57738501
_cell_length_c   10.71604064
_cell_angle_alpha   90.00000000
_cell_angle_beta   90.00000000
_cell_angle_gamma   90.00000000
_symmetry_Int_Tables_number   1
_chemical_formula_structural   Cr7Fe2
_chemical_formula_sum   'Cr42 Fe12'
_cell_volume   615.28037162
_cell_formula_units_Z   6
loop_
 _symmetry_equiv_pos_site_id
 _symmetry_equiv_pos_as_xyz
  1  'x, y, z'
loop_
 _atom_site_type_symbol
 _atom_site_label
 _atom_site_symmetry_multiplicity
 _atom_site_fract_x
 _atom_site_fract_y
 _atom_site_fract_z
 _atom_site_occupancy
  Cr  Cr0  1  0.99183489  -0.00422856  -0.00541241  1
  Fe  Fe1  1  0.15932414  0.16002594  0.15927617  1
  Cr  Cr2  1  0.99173789  -0.00382104  0.32528988  1
  Cr  Cr3  1  -0.00616371  0.32570141  -0.00576941  1
  Fe  Fe4  1  0.16011367  0.49374961  0.15883482  1
  Cr  Cr5  1  -0.00637015  0.32451266  0.32454774  1
  Fe  Fe6  1  -0.00572671  0.65944107  -0.00637629  1
  Cr  Cr7  1  0.15880814  0.82449074  0.15958844  1
  Cr  Cr8  1  -0.00719538  0.65723326  0.32476443  1
  Cr  Cr9  1  0.32654945  0.99245779  0.99197922  1
  Cr  Cr10  1  0.49428828  0.16138340  0.15915212  1
  Cr  Cr11  1  0.32534553  -0.00630257  0.32445886  1
  Cr  Cr12  1  0.32313372  0.32766588  -0.00616126  1
  Cr  Cr13  1  0.49395824  0.49051439  0.16100258  1
  Cr  Cr14  1  0.32411000  0.32880296  0.32618958  1
  Fe  Fe15  1  0.32526862  0.65913326  -0.00701205  1
  Cr  Cr16  1  0.49118856  0.82627462  0.15884512  1
  Fe  Fe17  1  0.32553801  0.65868887  0.32595601  1
  Cr  Cr18  1  0.66007176  0.99150782  0.99128704  1
  Fe  Fe19  1  0.82499631  0.16028830  0.15911426  1
  Cr  Cr20  1  0.66122339  0.99231248  0.32524699  1
  Fe  Fe21  1  0.66024382  0.32457200  -0.00718109  1
  Cr  Cr22  1  0.82551238  0.49169647  0.15714655  1
  Fe  Fe23  1  0.66073798  0.32543476  0.32654304  1
  Cr  Cr24  1  0.65722392  0.66066338  0.99054767  1
  Cr  Cr25  1  0.82783920  0.82429560  0.15964419  1
  Cr  Cr26  1  0.65656288  0.65871182  0.32894407  1
  Cr  Cr27  1  0.16100554  0.15799291  0.49436132  1
  Cr  Cr28  1  0.99037268  -0.00483926  0.65814864  1
  Cr  Cr29  1  0.16083294  0.15857574  0.82389999  1
  Cr  Cr30  1  0.15908009  0.49394203  0.49295559  1
  Cr  Cr31  1  -0.00727513  0.32485635  0.65960490  1
  Cr  Cr32  1  0.15789238  0.49451923  0.82761921  1
  Cr  Cr33  1  0.15863941  0.82634571  0.49243106  1
  Cr  Cr34  1  0.99154966  0.65804715  0.65985278  1
  Cr  Cr35  1  0.15864605  0.82552415  0.82596740  1
  Cr  Cr36  1  0.49408327  0.16192222  0.49190211  1
  Cr  Cr37  1  0.32784700  0.99180152  0.66138398  1
  Cr  Cr38  1  0.49409008  0.16013390  0.82696156  1
  Fe  Fe39  1  0.49210375  0.49253956  0.49152818  1
  Cr  Cr40  1  0.32524823  0.32806274  0.65866174  1
  Cr  Cr41  1  0.49385440  0.48984916  0.82671518  1
  Cr  Cr42  1  0.49116053  0.82766506  0.49175257  1
  Cr  Cr43  1  0.32934993  0.65822528  0.65905902  1
  Fe  Fe44  1  0.49175583  0.82486776  0.82662374  1
  Fe  Fe45  1  0.82542257  0.15982780  0.49201073  1
  Cr  Cr46  1  0.66015632  0.99092133  0.66149414  1
  Fe  Fe47  1  0.82619950  0.16036509  0.82688778  1
  Cr  Cr48  1  0.82434880  0.49115213  0.49283645  1
  Cr  Cr49  1  0.66034809  0.32659767  0.65856108  1
  Cr  Cr50  1  0.82619533  0.49189186  0.82787594  1
  Cr  Cr51  1  0.82811893  0.82569119  0.49217660  1
  Cr  Cr52  1  0.65718377  0.66047292  0.65884210  1
  Cr  Cr53  1  0.82847718  0.82468444  0.82628192  1
" 