7336,Fe78Cr22_2,-208.733295742789, 206.956190971722,Fe78Cr22,"# generated using pymatgen
 data_Cr7Fe2
_symmetry_space_group_name_H-M   'P 1'
_cell_length_a   7.58223564
_cell_length_b   7.58223564
_cell_length_c   10.72290048
_cell_angle_alpha   90.00000000
_cell_angle_beta   90.00000000
_cell_angle_gamma   90.00000000
_symmetry_Int_Tables_number   1
_chemical_formula_structural   Cr7Fe2
_chemical_formula_sum   'Cr42 Fe12'
_cell_volume   616.46273681
_cell_formula_units_Z   6
loop_
 _symmetry_equiv_pos_site_id
 _symmetry_equiv_pos_as_xyz
  1  'x, y, z'
loop_
 _atom_site_type_symbol
 _atom_site_label
 _atom_site_symmetry_multiplicity
 _atom_site_fract_x
 _atom_site_fract_y
 _atom_site_fract_z
 _atom_site_occupancy
  Cr  Cr0  1  -0.00536297  -0.00664771  0.99119851  1
  Fe  Fe1  1  0.16046171  0.15835093  0.15911578  1
  Cr  Cr2  1  -0.00431032  0.99209581  0.32617655  1
  Cr  Cr3  1  -0.00722310  0.32552850  -0.00652391  1
  Cr  Cr4  1  0.15897880  0.49146584  0.15800878  1
  Cr  Cr5  1  0.99066541  0.32621240  0.32436342  1
  Cr  Cr6  1  -0.00702371  0.65833031  -0.00575308  1
  Fe  Fe7  1  0.15941238  0.82674816  0.15935941  1
  Cr  Cr8  1  -0.00596324  0.65890361  0.32495833  1
  Cr  Cr9  1  0.32487577  -0.00683619  -0.00584016  1
  Fe  Fe10  1  0.49104587  0.15907511  0.15906617  1
  Fe  Fe11  1  0.32504413  -0.00759540  0.32506428  1
  Fe  Fe12  1  0.32538294  0.32472095  -0.00721330  1
  Cr  Cr13  1  0.49149623  0.49116680  0.15800807  1
  Cr  Cr14  1  0.32623533  0.32379600  0.32591033  1
  Cr  Cr15  1  0.32516382  0.65989328  -0.00730007  1
  Cr  Cr16  1  0.49166666  0.82731654  0.15937041  1
  Cr  Cr17  1  0.32410188  0.66256735  0.32650441  1
  Cr  Cr18  1  0.65770121  -0.00663509  0.99193240  1
  Cr  Cr19  1  0.82596071  0.15903117  0.15983747  1
  Cr  Cr20  1  0.65665242  -0.00576821  0.32543952  1
  Cr  Cr21  1  0.65926150  0.32582082  -0.00579280  1
  Fe  Fe22  1  0.82570727  0.49243748  0.15906679  1
  Cr  Cr23  1  0.66030977  0.32544360  0.32512498  1
  Cr  Cr24  1  0.65907116  0.65802670  0.99197961  1
  Cr  Cr25  1  0.82626392  0.82565440  0.15787581  1
  Cr  Cr26  1  0.65907325  0.65753708  0.32573215  1
  Cr  Cr27  1  0.15936615  0.15861910  0.49313961  1
  Fe  Fe28  1  -0.00689505  0.99173395  0.65906632  1
  Fe  Fe29  1  0.15941627  0.15940994  0.82535434  1
  Cr  Cr30  1  0.15984312  0.49264820  0.49377618  1
  Cr  Cr31  1  -0.00715300  0.32506137  0.65937194  1
  Cr  Cr32  1  0.16091061  0.48996148  0.82543413  1
  Fe  Fe33  1  0.15872900  0.82607766  0.49279198  1
  Fe  Fe34  1  0.99204286  0.66011452  0.65873947  1
  Cr  Cr35  1  0.15694467  0.82632309  0.82513823  1
  Cr  Cr36  1  0.49123413  0.15919364  0.49057200  1
  Cr  Cr37  1  0.32385916  0.99197576  0.65834110  1
  Cr  Cr38  1  0.49016652  0.16044521  0.82680743  1
  Cr  Cr39  1  0.49106045  0.49237281  0.49421317  1
  Fe  Fe40  1  0.32542551  0.32534358  0.65936029  1
  Cr  Cr41  1  0.48999891  0.49179836  0.82499344  1
  Cr  Cr42  1  0.49233223  0.82564609  0.49164381  1
  Cr  Cr43  1  0.32522362  0.65941463  0.65800824  1
  Cr  Cr44  1  0.49443184  0.82496870  0.82619728  1
  Cr  Cr45  1  0.82661082  0.15734699  0.49269919  1
  Cr  Cr46  1  0.65973380  0.99213950  0.65983754  1
  Cr  Cr47  1  0.82766669  0.15648039  0.82467284  1
  Cr  Cr48  1  0.82630843  0.49374501  0.49185020  1
  Cr  Cr49  1  0.65915550  0.32643285  0.65787603  1
  Cr  Cr50  1  0.82630402  0.49423199  0.82586418  1
  Cr  Cr51  1  0.82688860  0.82612021  0.49527277  1
  Fe  Fe52  1  0.65973170  0.65907451  0.65906678  1
  Cr  Cr53  1  0.82583525  0.82650082  0.82406223  1
" 