8244,Fe78Cr22_18,-208.392411686568, 205.051290001669,Fe78Cr22,"# generated using pymatgen
 data_Cr7Fe2
_symmetry_space_group_name_H-M   'P 1'
_cell_length_a   7.57630176
_cell_length_b   7.57630176
_cell_length_c   10.71450870
_cell_angle_alpha   90.00000000
_cell_angle_beta   90.00000000
_cell_angle_gamma   90.00000000
_symmetry_Int_Tables_number   1
_chemical_formula_structural   Cr7Fe2
_chemical_formula_sum   'Cr42 Fe12'
_cell_volume   615.01653246
_cell_formula_units_Z   6
loop_
 _symmetry_equiv_pos_site_id
 _symmetry_equiv_pos_as_xyz
  1  'x, y, z'
loop_
 _atom_site_type_symbol
 _atom_site_label
 _atom_site_symmetry_multiplicity
 _atom_site_fract_x
 _atom_site_fract_y
 _atom_site_fract_z
 _atom_site_occupancy
  Cr  Cr0  1  -0.00622762  -0.00511948  0.99266701  1
  Fe  Fe1  1  0.15981182  0.15911591  0.15986218  1
  Cr  Cr2  1  -0.00584151  0.99270557  0.32585693  1
  Cr  Cr3  1  -0.00697184  0.32403285  0.99202590  1
  Cr  Cr4  1  0.15936993  0.49329805  0.16150396  1
  Cr  Cr5  1  0.99232440  0.32650442  0.32464333  1
  Cr  Cr6  1  0.99272304  0.65945583  -0.00541779  1
  Fe  Fe7  1  0.15911365  0.82648002  0.15981177  1
  Fe  Fe8  1  -0.00685774  0.65990579  0.32577472  1
  Cr  Cr9  1  0.32506717  0.99260375  -0.00614628  1
  Cr  Cr10  1  0.49295273  0.15937093  0.16123379  1
  Cr  Cr11  1  0.32572860  -0.00639806  0.32615605  1
  Cr  Cr12  1  0.32534898  0.32584475  0.99172293  1
  Cr  Cr13  1  0.49143311  0.49116361  0.15967826  1
  Fe  Fe14  1  0.32686791  0.32537340  0.32607776  1
  Cr  Cr15  1  0.32793207  0.65991838  -0.00720652  1
  Cr  Cr16  1  0.49219689  0.82783534  0.15719750  1
  Cr  Cr17  1  0.32543329  0.65962740  0.32463676  1
  Fe  Fe18  1  0.65943720  -0.00718305  0.99278596  1
  Cr  Cr19  1  0.82497208  0.15906749  0.15826357  1
  Cr  Cr20  1  0.65848165  -0.00563252  0.32680417  1
  Cr  Cr21  1  0.65999366  0.32690112  -0.00708616  1
  Cr  Cr22  1  0.82756476  0.49253305  0.16117444  1
  Fe  Fe23  1  0.65835866  0.32572264  0.32642793  1
  Cr  Cr24  1  0.65771654  0.65917314  0.99100472  1
  Cr  Cr25  1  0.82710474  0.82676934  0.15869459  1
  Cr  Cr26  1  0.65984073  0.65778937  0.32676574  1
  Cr  Cr27  1  0.16207998  0.16067191  0.49397001  1
  Cr  Cr28  1  -0.00643986  -0.00557235  0.65984684  1
  Fe  Fe29  1  0.15977495  0.15974852  0.82572599  1
  Cr  Cr30  1  0.15996467  0.49269659  0.49171144  1
  Cr  Cr31  1  -0.00720541  0.32501128  0.66170456  1
  Cr  Cr32  1  0.16103890  0.49119755  0.82515007  1
  Cr  Cr33  1  0.15861699  0.82500259  0.49175490  1
  Cr  Cr34  1  0.99142760  0.65892896  0.65796358  1
  Cr  Cr35  1  0.15967723  0.82635016  0.82608383  1
  Fe  Fe36  1  0.49278512  0.16086677  0.49278371  1
  Cr  Cr37  1  0.32587449  -0.00575884  0.65836612  1
  Cr  Cr38  1  0.49248538  0.16033717  0.82554072  1
  Cr  Cr39  1  0.49241098  0.48952707  0.49380687  1
  Fe  Fe40  1  0.32711221  0.32572269  0.65986059  1
  Fe  Fe41  1  0.49319432  0.49247937  0.82507238  1
  Cr  Cr42  1  0.49317255  0.82758296  0.49385510  1
  Cr  Cr43  1  0.32878426  0.65834477  0.66093776  1
  Cr  Cr44  1  0.49386346  0.82576246  0.82731062  1
  Cr  Cr45  1  0.82341029  0.15990853  0.49278044  1
  Cr  Cr46  1  0.65893519  -0.00712828  0.65802032  1
  Cr  Cr47  1  0.82589614  0.15898072  0.82732363  1
  Cr  Cr48  1  0.82599253  0.49298687  0.49201291  1
  Fe  Fe49  1  0.65806539  0.32682291  0.65950919  1
  Cr  Cr50  1  0.82530530  0.49257718  0.82518003  1
  Cr  Cr51  1  0.82657983  0.82547406  0.49354306  1
  Fe  Fe52  1  0.65914058  0.65845410  0.65979146  1
  Cr  Cr53  1  0.82482821  0.82681142  0.82612684  1
" 