7770,Fe79Cr21_16,-208.546130547492, 206.625742292223,Fe79Cr21,"# generated using pymatgen
 data_Cr7Fe2
_symmetry_space_group_name_H-M   'P 1'
_cell_length_a   7.57693871
_cell_length_b   7.57693871
_cell_length_c   10.71540949
_cell_angle_alpha   90.00000000
_cell_angle_beta   90.00000000
_cell_angle_gamma   90.00000000
_symmetry_Int_Tables_number   1
_chemical_formula_structural   Cr7Fe2
_chemical_formula_sum   'Cr42 Fe12'
_cell_volume   615.17166181
_cell_formula_units_Z   6
loop_
 _symmetry_equiv_pos_site_id
 _symmetry_equiv_pos_as_xyz
  1  'x, y, z'
loop_
 _atom_site_type_symbol
 _atom_site_label
 _atom_site_symmetry_multiplicity
 _atom_site_fract_x
 _atom_site_fract_y
 _atom_site_fract_z
 _atom_site_occupancy
  Cr  Cr0  1  -0.00628208  0.99123548  -0.00691534  1
  Cr  Cr1  1  0.15793645  0.15955969  0.16074132  1
  Fe  Fe2  1  0.99203009  0.99145815  0.32717977  1
  Cr  Cr3  1  -0.00686722  0.32734849  -0.00423580  1
  Fe  Fe4  1  0.16010455  0.49367617  0.16027980  1
  Cr  Cr5  1  -0.00635080  0.32706820  0.32296064  1
  Cr  Cr6  1  -0.00702985  0.65969176  0.99167988  1
  Cr  Cr7  1  0.16163021  0.82593759  0.16058896  1
  Cr  Cr8  1  -0.00712800  0.66081053  0.32630383  1
  Cr  Cr9  1  0.32590421  -0.00655992  0.98818391  1
  Cr  Cr10  1  0.49379149  0.15806913  0.15826911  1
  Cr  Cr11  1  0.32609879  -0.00698738  0.32708679  1
  Cr  Cr12  1  0.32665470  0.32515258  -0.00669121  1
  Cr  Cr13  1  0.49101504  0.49509077  0.16032248  1
  Cr  Cr14  1  0.32665813  0.32728320  0.32737587  1
  Cr  Cr15  1  0.32427727  0.65965862  -0.00450861  1
  Cr  Cr16  1  0.49217344  0.82522685  0.16009674  1
  Fe  Fe17  1  0.32535561  0.65865030  0.32674676  1
  Cr  Cr18  1  0.65851958  -0.00639410  0.99244800  1
  Cr  Cr19  1  0.82658824  0.15859112  0.16043846  1
  Fe  Fe20  1  0.66004664  -0.00693342  0.32705672  1
  Fe  Fe21  1  0.65840720  0.32564367  0.99233740  1
  Cr  Cr22  1  0.82564189  0.49126022  0.15585081  1
  Cr  Cr23  1  0.65795788  0.32615523  0.32778134  1
  Cr  Cr24  1  0.66080110  0.65897095  -0.00672096  1
  Cr  Cr25  1  0.82445212  0.82854567  0.16223778  1
  Cr  Cr26  1  0.65998017  0.66013416  0.32732624  1
  Cr  Cr27  1  0.15840927  0.15828123  0.49197022  1
  Cr  Cr28  1  -0.00606197  0.98838920  0.65853119  1
  Cr  Cr29  1  0.15923146  0.15909401  0.82557825  1
  Cr  Cr30  1  0.16090388  0.49398317  0.49257003  1
  Cr  Cr31  1  -0.00716344  0.32691508  0.65946823  1
  Cr  Cr32  1  0.15900425  0.49357553  0.82516902  1
  Fe  Fe33  1  0.15812517  0.82591706  0.49208779  1
  Fe  Fe34  1  -0.00622874  0.66094424  0.65876620  1
  Fe  Fe35  1  0.15853808  0.82465024  0.82566663  1
  Fe  Fe36  1  0.49292587  0.15913452  0.49219450  1
  Cr  Cr37  1  0.32618600  -0.00655227  0.66292936  1
  Fe  Fe38  1  0.49393935  0.16073755  0.82645961  1
  Fe  Fe39  1  0.49238642  0.49260914  0.49228456  1
  Cr  Cr40  1  0.32878873  0.32399615  0.65720543  1
  Cr  Cr41  1  0.49325111  0.49325333  0.82608912  1
  Cr  Cr42  1  0.49234393  0.82511219  0.48948128  1
  Cr  Cr43  1  0.32454571  0.66083511  0.65797854  1
  Cr  Cr44  1  0.49126506  0.82579972  0.82878068  1
  Cr  Cr45  1  0.82684365  0.15716973  0.48971457  1
  Cr  Cr46  1  0.65813850  -0.00677226  0.65794537  1
  Cr  Cr47  1  0.82581392  0.16089189  0.82822520  1
  Cr  Cr48  1  0.82642152  0.49321153  0.49678475  1
  Cr  Cr49  1  0.65672600  0.32537419  0.65902957  1
  Cr  Cr50  1  0.82606932  0.49197090  0.82556798  1
  Fe  Fe51  1  0.82791373  0.82655405  0.49204292  1
  Cr  Cr52  1  0.66149217  0.65969544  0.65769348  1
  Cr  Cr53  1  0.82623336  0.82529476  0.82397400  1
" 