3482,Fe79Cr21_1,-208.204652866263, 207.146798123346,Fe79Cr21,"# generated using pymatgen
 data_Cr7Fe2
_symmetry_space_group_name_H-M   'P 1'
_cell_length_a   7.57706779
_cell_length_b   7.57706779
_cell_length_c   10.71559203
_cell_angle_alpha   90.00000000
_cell_angle_beta   90.00000000
_cell_angle_gamma   90.00000000
_symmetry_Int_Tables_number   1
_chemical_formula_structural   Cr7Fe2
_chemical_formula_sum   'Cr42 Fe12'
_cell_volume   615.20310133
_cell_formula_units_Z   6
loop_
 _symmetry_equiv_pos_site_id
 _symmetry_equiv_pos_as_xyz
  1  'x, y, z'
loop_
 _atom_site_type_symbol
 _atom_site_label
 _atom_site_symmetry_multiplicity
 _atom_site_fract_x
 _atom_site_fract_y
 _atom_site_fract_z
 _atom_site_occupancy
  Cr  Cr0  1  -0.00472471  0.99214652  0.99207959  1
  Fe  Fe1  1  0.15975939  0.15973641  0.15984735  1
  Cr  Cr2  1  -0.00573934  -0.00713843  0.32522120  1
  Cr  Cr3  1  -0.00590540  0.32595322  -0.00607515  1
  Cr  Cr4  1  0.16203858  0.49135479  0.16093338  1
  Fe  Fe5  1  0.99268115  0.32600528  0.32607809  1
  Cr  Cr6  1  0.99206435  0.66011654  0.99156184  1
  Cr  Cr7  1  0.16117553  0.82592973  0.16063457  1
  Cr  Cr8  1  0.99223329  0.65800416  0.32726227  1
  Cr  Cr9  1  0.32570637  -0.00498859  0.99122414  1
  Fe  Fe10  1  0.49194811  0.16018737  0.15940314  1
  Cr  Cr11  1  0.32646300  -0.00544582  0.32537154  1
  Cr  Cr12  1  0.32687973  0.32307895  -0.00691089  1
  Fe  Fe13  1  0.49239022  0.49239530  0.15980197  1
  Cr  Cr14  1  0.32646111  0.32446311  0.32455821  1
  Cr  Cr15  1  0.32603152  0.66012601  0.99236856  1
  Cr  Cr16  1  0.49214629  0.82474173  0.16025945  1
  Fe  Fe17  1  0.32653085  0.65905669  0.32568200  1
  Cr  Cr18  1  0.65723914  -0.00700029  -0.00674869  1
  Cr  Cr19  1  0.82692486  0.15923048  0.15936710  1
  Cr  Cr20  1  0.65749276  -0.00627737  0.32608180  1
  Cr  Cr21  1  0.65724964  0.32627675  -0.00654422  1
  Cr  Cr22  1  0.82574534  0.49050825  0.15885732  1
  Cr  Cr23  1  0.65868817  0.32648914  0.32693937  1
  Cr  Cr24  1  0.66012663  0.65894349  -0.00725760  1
  Cr  Cr25  1  0.82489916  0.82847878  0.15855687  1
  Cr  Cr26  1  0.66038370  0.65801292  0.32645281  1
  Cr  Cr27  1  0.15768036  0.16020920  0.49274009  1
  Fe  Fe28  1  -0.00647338  -0.00724817  0.66018070  1
  Fe  Fe29  1  0.15973594  0.15830440  0.82562709  1
  Cr  Cr30  1  0.16020839  0.49248998  0.49121005  1
  Cr  Cr31  1  0.99265025  0.32672858  0.65821244  1
  Cr  Cr32  1  0.16130009  0.49244318  0.82607491  1
  Cr  Cr33  1  0.16055038  0.82551872  0.49269406  1
  Cr  Cr34  1  0.99180038  0.66008322  0.65939540  1
  Fe  Fe35  1  0.15975117  0.82719801  0.82568325  1
  Fe  Fe36  1  0.49264684  0.15934943  0.49273714  1
  Cr  Cr37  1  0.32574307  -0.00569178  0.66162827  1
  Fe  Fe38  1  0.49203487  0.15868231  0.82607964  1
  Cr  Cr39  1  0.49155275  0.49332732  0.49206818  1
  Cr  Cr40  1  0.32693650  0.32265257  0.66057707  1
  Cr  Cr41  1  0.49122035  0.49330475  0.82725089  1
  Cr  Cr42  1  0.49205960  0.82552941  0.49188420  1
  Cr  Cr43  1  0.32490119  0.66125719  0.66012491  1
  Fe  Fe44  1  0.49201838  0.82681597  0.82607540  1
  Cr  Cr45  1  0.82643425  0.15971603  0.49311117  1
  Cr  Cr46  1  0.65744062  -0.00653490  0.65888667  1
  Cr  Cr47  1  0.82687288  0.15793729  0.82573801  1
  Fe  Fe48  1  0.82652524  0.49239486  0.49234487  1
  Cr  Cr49  1  0.65863180  0.32586532  0.65782510  1
  Cr  Cr50  1  0.82569887  0.49158659  0.82611724  1
  Cr  Cr51  1  0.82561143  0.82806163  0.49307957  1
  Cr  Cr52  1  0.66151977  0.65889222  0.65902347  1
  Cr  Cr53  1  0.82601440  0.82869743  0.82658004  1
" 