4864,Fe79Cr21_18,-208.383324270528, 205.994402852777,Fe79Cr21,"# generated using pymatgen
 data_Cr7Fe2
_symmetry_space_group_name_H-M   'P 1'
_cell_length_a   7.57701966
_cell_length_b   7.57701966
_cell_length_c   10.71552396
_cell_angle_alpha   90.00000000
_cell_angle_beta   90.00000000
_cell_angle_gamma   90.00000000
_symmetry_Int_Tables_number   1
_chemical_formula_structural   Cr7Fe2
_chemical_formula_sum   'Cr42 Fe12'
_cell_volume   615.19137720
_cell_formula_units_Z   6
loop_
 _symmetry_equiv_pos_site_id
 _symmetry_equiv_pos_as_xyz
  1  'x, y, z'
loop_
 _atom_site_type_symbol
 _atom_site_label
 _atom_site_symmetry_multiplicity
 _atom_site_fract_x
 _atom_site_fract_y
 _atom_site_fract_z
 _atom_site_occupancy
  Cr  Cr0  1  0.99233274  -0.00554186  -0.00716368  1
  Cr  Cr1  1  0.15898202  0.15940247  0.15826230  1
  Fe  Fe2  1  0.99197866  -0.00717341  0.32607637  1
  Cr  Cr3  1  0.99156247  0.32620734  0.99212442  1
  Cr  Cr4  1  0.16198613  0.49282363  0.15980527  1
  Cr  Cr5  1  -0.00650583  0.32619035  0.32639380  1
  Cr  Cr6  1  0.99105455  0.65756258  0.99208257  1
  Cr  Cr7  1  0.15818732  0.82600545  0.16084187  1
  Cr  Cr8  1  -0.00696693  0.65896510  0.32604576  1
  Cr  Cr9  1  0.32805024  -0.00661738  0.99084217  1
  Cr  Cr10  1  0.49406176  0.16098696  0.15838973  1
  Cr  Cr11  1  0.32745212  -0.00695962  0.32717732  1
  Fe  Fe12  1  0.32675139  0.32612126  0.99273111  1
  Cr  Cr13  1  0.49154648  0.49172423  0.15839762  1
  Cr  Cr14  1  0.32554851  0.32573249  0.32675348  1
  Cr  Cr15  1  0.32772525  0.66024273  -0.00682696  1
  Cr  Cr16  1  0.49375861  0.82552078  0.15942247  1
  Fe  Fe17  1  0.32573178  0.65893535  0.32644491  1
  Fe  Fe18  1  0.65946020  -0.00660348  0.99196220  1
  Cr  Cr19  1  0.82518910  0.15719241  0.15955737  1
  Fe  Fe20  1  0.65980636  -0.00682048  0.32648689  1
  Fe  Fe21  1  0.65939776  0.32535027  0.99207410  1
  Cr  Cr22  1  0.82469572  0.49251340  0.15799299  1
  Cr  Cr23  1  0.65918258  0.32477985  0.32718200  1
  Cr  Cr24  1  0.65944943  0.65947274  0.99176009  1
  Cr  Cr25  1  0.82628717  0.82852356  0.16210602  1
  Cr  Cr26  1  0.65915644  0.66086858  0.32528237  1
  Cr  Cr27  1  0.15936473  0.15937163  0.49278103  1
  Cr  Cr28  1  -0.00700647  -0.00592548  0.66011024  1
  Cr  Cr29  1  0.15903401  0.15921791  0.82718136  1
  Fe  Fe30  1  0.15971796  0.49315421  0.49238637  1
  Cr  Cr31  1  0.99111696  0.32726642  0.65971517  1
  Cr  Cr32  1  0.15983337  0.49258418  0.82607796  1
  Cr  Cr33  1  0.15857627  0.82531387  0.49210907  1
  Cr  Cr34  1  0.99172354  0.65688781  0.66010346  1
  Cr  Cr35  1  0.15933863  0.82642910  0.82528203  1
  Fe  Fe36  1  0.49352580  0.15934256  0.49274520  1
  Cr  Cr37  1  0.32808428  -0.00702308  0.66020895  1
  Cr  Cr38  1  0.49463535  0.16078112  0.82673785  1
  Cr  Cr39  1  0.49157202  0.49132793  0.49264975  1
  Cr  Cr40  1  0.32616864  0.32457907  0.65671156  1
  Cr  Cr41  1  0.49432957  0.49150816  0.82717593  1
  Cr  Cr42  1  0.49270584  0.82594782  0.49242041  1
  Cr  Cr43  1  0.32666640  0.66066973  0.65865943  1
  Fe  Fe44  1  0.49302071  0.82643864  0.82643440  1
  Cr  Cr45  1  0.82474198  0.15825085  0.49229697  1
  Cr  Cr46  1  0.65715047  -0.00642189  0.65963301  1
  Fe  Fe47  1  0.82502875  0.16055226  0.82643036  1
  Cr  Cr48  1  0.82537244  0.49212512  0.49495755  1
  Fe  Fe49  1  0.65974687  0.32570637  0.65972090  1
  Fe  Fe50  1  0.82538427  0.49123669  0.82607536  1
  Cr  Cr51  1  0.82694951  0.82785619  0.49009176  1
  Cr  Cr52  1  0.65983871  0.65879821  0.66119037  1
  Cr  Cr53  1  0.82564227  0.82674420  0.82603387  1
" 