551,Fe79Cr21_2,-208.385779170435, 205.122218715001,Fe79Cr21,"# generated using pymatgen
 data_Cr7Fe2
_symmetry_space_group_name_H-M   'P 1'
_cell_length_a   7.57624482
_cell_length_b   7.57624482
_cell_length_c   10.71442817
_cell_angle_alpha   90.00000000
_cell_angle_beta   90.00000000
_cell_angle_gamma   90.00000000
_symmetry_Int_Tables_number   1
_chemical_formula_structural   Cr7Fe2
_chemical_formula_sum   'Cr42 Fe12'
_cell_volume   615.00266432
_cell_formula_units_Z   6
loop_
 _symmetry_equiv_pos_site_id
 _symmetry_equiv_pos_as_xyz
  1  'x, y, z'
loop_
 _atom_site_type_symbol
 _atom_site_label
 _atom_site_symmetry_multiplicity
 _atom_site_fract_x
 _atom_site_fract_y
 _atom_site_fract_z
 _atom_site_occupancy
  Cr  Cr0  1  0.99210990  -0.00659303  -0.00658479  1
  Cr  Cr1  1  0.15764473  0.15937402  0.15938192  1
  Fe  Fe2  1  0.99238024  -0.00677879  0.32577022  1
  Cr  Cr3  1  0.99226076  0.32759483  -0.00653949  1
  Fe  Fe4  1  0.15986897  0.49318709  0.15983354  1
  Cr  Cr5  1  -0.00668847  0.32646263  0.32459366  1
  Cr  Cr6  1  -0.00712464  0.65737765  0.99159830  1
  Cr  Cr7  1  0.15981095  0.82578560  0.16081286  1
  Cr  Cr8  1  -0.00607332  0.65884848  0.32533958  1
  Fe  Fe9  1  0.32606848  0.99275340  -0.00718803  1
  Cr  Cr10  1  0.49421259  0.16045902  0.15716152  1
  Cr  Cr11  1  0.32720834  0.99276171  0.32724913  1
  Cr  Cr12  1  0.32565814  0.32572004  -0.00654571  1
  Cr  Cr13  1  0.49204925  0.49291382  0.15977818  1
  Cr  Cr14  1  0.32594894  0.32785706  0.32753963  1
  Cr  Cr15  1  0.32534340  0.65954875  -0.00537566  1
  Cr  Cr16  1  0.49174054  0.82501184  0.15860147  1
  Fe  Fe17  1  0.32618641  0.65868744  0.32612096  1
  Cr  Cr18  1  0.65827619  -0.00627349  -0.00534098  1
  Fe  Fe19  1  0.82607262  0.15942427  0.15947385  1
  Cr  Cr20  1  0.66020732  -0.00663101  0.32525950  1
  Fe  Fe21  1  0.66022469  0.32619067  -0.00714840  1
  Cr  Cr22  1  0.82573670  0.49074484  0.15786261  1
  Cr  Cr23  1  0.65911931  0.32490884  0.32707162  1
  Cr  Cr24  1  0.66016256  0.65969704  0.99132203  1
  Cr  Cr25  1  0.82682934  0.82795112  0.16125015  1
  Cr  Cr26  1  0.65881274  0.66009859  0.32781107  1
  Cr  Cr27  1  0.15906811  0.15890437  0.49333761  1
  Cr  Cr28  1  0.99259193  0.99237222  0.65914668  1
  Cr  Cr29  1  0.15981533  0.15851779  0.82567034  1
  Cr  Cr30  1  0.16091638  0.49280011  0.49062092  1
  Cr  Cr31  1  0.99170861  0.32817333  0.66031804  1
  Cr  Cr32  1  0.15843938  0.49252210  0.82729079  1
  Cr  Cr33  1  0.15906822  0.82667880  0.49147629  1
  Cr  Cr34  1  0.99015129  0.65783530  0.66143555  1
  Cr  Cr35  1  0.15982273  0.82734016  0.82610257  1
  Fe  Fe36  1  0.49310699  0.16045279  0.49312967  1
  Cr  Cr37  1  0.32775641  -0.00577848  0.66074107  1
  Cr  Cr38  1  0.49288631  0.16067244  0.82693356  1
  Fe  Fe39  1  0.49386227  0.49243198  0.49313303  1
  Cr  Cr40  1  0.32755392  0.32523033  0.65737835  1
  Cr  Cr41  1  0.49612741  0.49222121  0.82552800  1
  Cr  Cr42  1  0.49301143  0.82376078  0.49243801  1
  Cr  Cr43  1  0.32724682  0.65892575  0.65850553  1
  Cr  Cr44  1  0.49257630  0.82548825  0.82735217  1
  Cr  Cr45  1  0.82599366  0.16028107  0.49125791  1
  Cr  Cr46  1  0.65803282  0.99266890  0.65845531  1
  Cr  Cr47  1  0.82567584  0.16206476  0.82730645  1
  Fe  Fe48  1  0.82478869  0.49284579  0.49342574  1
  Fe  Fe49  1  0.65946610  0.32752929  0.65868981  1
  Fe  Fe50  1  0.82504633  0.49241764  0.82583551  1
  Cr  Cr51  1  0.82630085  0.82561070  0.49243180  1
  Fe  Fe52  1  0.65980987  0.65769385  0.65909866  1
  Cr  Cr53  1  0.82597549  0.82410256  0.82469809  1
" 