6375,Fe79Cr21_12,-208.14001093465, 202.196977665557,Fe79Cr21,"# generated using pymatgen
 data_Cr7Fe2
_symmetry_space_group_name_H-M   'P 1'
_cell_length_a   7.57435550
_cell_length_b   7.57435550
_cell_length_c   10.71175628
_cell_angle_alpha   90.00000000
_cell_angle_beta   90.00000000
_cell_angle_gamma   90.00000000
_symmetry_Int_Tables_number   1
_chemical_formula_structural   Cr7Fe2
_chemical_formula_sum   'Cr42 Fe12'
_cell_volume   614.54268406
_cell_formula_units_Z   6
loop_
 _symmetry_equiv_pos_site_id
 _symmetry_equiv_pos_as_xyz
  1  'x, y, z'
loop_
 _atom_site_type_symbol
 _atom_site_label
 _atom_site_symmetry_multiplicity
 _atom_site_fract_x
 _atom_site_fract_y
 _atom_site_fract_z
 _atom_site_occupancy
  Cr  Cr0  1  -0.00695802  -0.00707278  -0.00619674  1
  Cr  Cr1  1  0.16044087  0.15995777  0.16046173  1
  Cr  Cr2  1  0.99223853  0.99078202  0.32749990  1
  Cr  Cr3  1  -0.00702383  0.32847805  0.99263477  1
  Fe  Fe4  1  0.16021940  0.49296170  0.16142139  1
  Cr  Cr5  1  0.99222464  0.32880557  0.32523702  1
  Cr  Cr6  1  -0.00647134  0.65732911  -0.00532705  1
  Cr  Cr7  1  0.16009578  0.82590260  0.16066176  1
  Cr  Cr8  1  -0.00608157  0.65887831  0.32724407  1
  Cr  Cr9  1  0.32786222  0.99280597  0.99138380  1
  Fe  Fe10  1  0.49224635  0.16011556  0.16111988  1
  Cr  Cr11  1  0.32792573  0.99089144  0.32770545  1
  Cr  Cr12  1  0.32621053  0.32704430  0.99263236  1
  Cr  Cr13  1  0.49146870  0.49240178  0.16197780  1
  Fe  Fe14  1  0.32631570  0.32677005  0.32556828  1
  Cr  Cr15  1  0.32561591  0.65859330  -0.00508880  1
  Cr  Cr16  1  0.49307731  0.82363750  0.15869703  1
  Fe  Fe17  1  0.32632788  0.65954707  0.32688846  1
  Cr  Cr18  1  0.65777751  -0.00679255  -0.00550294  1
  Cr  Cr19  1  0.82616640  0.15948204  0.16071488  1
  Cr  Cr20  1  0.65840891  0.99276372  0.32594334  1
  Cr  Cr21  1  0.65916508  0.32616109  -0.00635848  1
  Cr  Cr22  1  0.82365045  0.49356789  0.15991214  1
  Fe  Fe23  1  0.65895798  0.32684993  0.32619798  1
  Fe  Fe24  1  0.65905089  0.65798227  -0.00636283  1
  Cr  Cr25  1  0.82591773  0.82574359  0.15691552  1
  Cr  Cr26  1  0.66029707  0.66039307  0.32850680  1
  Cr  Cr27  1  0.15951828  0.15932505  0.49424876  1
  Cr  Cr28  1  0.99189323  0.99053241  0.65762198  1
  Cr  Cr29  1  0.15850303  0.15864632  0.82428143  1
  Cr  Cr30  1  0.16115622  0.49334040  0.49149443  1
  Cr  Cr31  1  0.99181326  0.32966063  0.66068740  1
  Cr  Cr32  1  0.15993739  0.49434354  0.82624540  1
  Fe  Fe33  1  0.16008135  0.82529406  0.49255265  1
  Fe  Fe34  1  0.99158758  0.66042763  0.65732301  1
  Cr  Cr35  1  0.15849118  0.82602570  0.82561938  1
  Cr  Cr36  1  0.49231852  0.16199297  0.49063250  1
  Cr  Cr37  1  0.32812998  0.99095367  0.65943063  1
  Cr  Cr38  1  0.49325435  0.16006486  0.82572771  1
  Cr  Cr39  1  0.49396125  0.49440226  0.49199043  1
  Cr  Cr40  1  0.32676394  0.32724233  0.66217779  1
  Cr  Cr41  1  0.49471946  0.49558713  0.82557839  1
  Fe  Fe42  1  0.49286166  0.82575592  0.49250531  1
  Cr  Cr43  1  0.32616744  0.66095102  0.65788894  1
  Cr  Cr44  1  0.49482902  0.82285605  0.82697749  1
  Cr  Cr45  1  0.82661625  0.15999696  0.49104469  1
  Cr  Cr46  1  0.65872240  0.99118667  0.65775510  1
  Cr  Cr47  1  0.82705674  0.15861078  0.82652660  1
  Fe  Fe48  1  0.82666740  0.49398972  0.49332499  1
  Cr  Cr49  1  0.66060295  0.32721439  0.65834199  1
  Cr  Cr50  1  0.82409694  0.49594279  0.82452385  1
  Fe  Fe51  1  0.82602092  0.82378661  0.49352386  1
  Fe  Fe52  1  0.66121427  0.66076657  0.65671313  1
  Cr  Cr53  1  0.82537206  0.82460705  0.82825850  1
" 