2895,Fe79Cr21_7,-208.237369467016, 206.67910976611,Fe79Cr21,"# generated using pymatgen
 data_Cr7Fe2
_symmetry_space_group_name_H-M   'P 1'
_cell_length_a   7.57643718
_cell_length_b   7.57643718
_cell_length_c   10.71470022
_cell_angle_alpha   90.00000000
_cell_angle_beta   90.00000000
_cell_angle_gamma   90.00000000
_symmetry_Int_Tables_number   1
_chemical_formula_structural   Cr7Fe2
_chemical_formula_sum   'Cr42 Fe12'
_cell_volume   615.04951141
_cell_formula_units_Z   6
loop_
 _symmetry_equiv_pos_site_id
 _symmetry_equiv_pos_as_xyz
  1  'x, y, z'
loop_
 _atom_site_type_symbol
 _atom_site_label
 _atom_site_symmetry_multiplicity
 _atom_site_fract_x
 _atom_site_fract_y
 _atom_site_fract_z
 _atom_site_occupancy
  Cr  Cr0  1  0.99206308  0.99207248  -0.00669422  1
  Cr  Cr1  1  0.15918646  0.16112611  0.15997626  1
  Cr  Cr2  1  0.99122464  -0.00710306  0.32779183  1
  Cr  Cr3  1  -0.00688199  0.32704953  -0.00701893  1
  Fe  Fe4  1  0.15907904  0.49312939  0.15908788  1
  Cr  Cr5  1  0.99226453  0.32596171  0.32673922  1
  Fe  Fe6  1  -0.00715956  0.65869430  0.99277125  1
  Cr  Cr7  1  0.15889043  0.82413168  0.15847622  1
  Cr  Cr8  1  0.99196968  0.65948452  0.32602427  1
  Cr  Cr9  1  0.32674669  -0.00659564  0.99155743  1
  Cr  Cr10  1  0.49371917  0.15902761  0.15883913  1
  Cr  Cr11  1  0.32606601  0.99215421  0.32607996  1
  Cr  Cr12  1  0.32643881  0.32646484  0.99269008  1
  Cr  Cr13  1  0.49192318  0.49308155  0.16134919  1
  Cr  Cr14  1  0.32577214  0.32745424  0.32357355  1
  Cr  Cr15  1  0.32539848  0.65847520  -0.00597382  1
  Cr  Cr16  1  0.49401142  0.82623248  0.16026315  1
  Cr  Cr17  1  0.32681833  0.65873565  0.32432013  1
  Fe  Fe18  1  0.65905057  -0.00682728  0.99241934  1
  Cr  Cr19  1  0.82543664  0.15903438  0.15917996  1
  Cr  Cr20  1  0.66105012  0.99185131  0.32592048  1
  Cr  Cr21  1  0.65878382  0.32570367  0.99014566  1
  Cr  Cr22  1  0.82753960  0.49337420  0.15877465  1
  Cr  Cr23  1  0.66030405  0.32671131  0.32779079  1
  Cr  Cr24  1  0.66011324  0.65952670  0.99148001  1
  Cr  Cr25  1  0.82544116  0.82593303  0.15768577  1
  Fe  Fe26  1  0.66016290  0.65944764  0.32679773  1
  Cr  Cr27  1  0.15848941  0.15907914  0.49437860  1
  Cr  Cr28  1  -0.00636658  -0.00691532  0.65725958  1
  Fe  Fe29  1  0.16043975  0.15900166  0.82576530  1
  Cr  Cr30  1  0.15819508  0.49245226  0.49158801  1
  Cr  Cr31  1  0.99155590  0.32540735  0.65862936  1
  Cr  Cr32  1  0.15843924  0.49252357  0.82720230  1
  Cr  Cr33  1  0.15923689  0.82681180  0.49483288  1
  Cr  Cr34  1  0.99126275  0.65984989  0.65945635  1
  Cr  Cr35  1  0.15948580  0.82641508  0.82502983  1
  Cr  Cr36  1  0.49333762  0.15907295  0.49330280  1
  Fe  Fe37  1  0.32612988  -0.00653358  0.66014580  1
  Fe  Fe38  1  0.49206035  0.15938957  0.82610331  1
  Cr  Cr39  1  0.49466654  0.49348941  0.49195482  1
  Cr  Cr40  1  0.32707024  0.32482496  0.66208767  1
  Fe  Fe41  1  0.49352056  0.49216926  0.82611039  1
  Cr  Cr42  1  0.49363482  0.82577989  0.49228966  1
  Cr  Cr43  1  0.32707935  0.66014626  0.66000008  1
  Cr  Cr44  1  0.49270854  0.82744472  0.82577768  1
  Fe  Fe45  1  0.82609540  0.15945516  0.49280877  1
  Cr  Cr46  1  0.65942170  -0.00692441  0.65903615  1
  Cr  Cr47  1  0.82512441  0.16044055  0.82760477  1
  Fe  Fe48  1  0.82576810  0.49312131  0.49239995  1
  Cr  Cr49  1  0.65971307  0.32719625  0.66041362  1
  Fe  Fe50  1  0.82577783  0.49322255  0.82650140  1
  Fe  Fe51  1  0.82576048  0.82576590  0.49245483  1
  Cr  Cr52  1  0.65999994  0.65807354  0.65833652  1
  Cr  Cr53  1  0.82615080  0.82507905  0.82865314  1
" 