7521,Fe79Cr21_3,-208.333981183339, 203.678045918444,Fe79Cr21,"# generated using pymatgen
 data_Cr7Fe2
_symmetry_space_group_name_H-M   'P 1'
_cell_length_a   7.58062003
_cell_length_b   7.58062003
_cell_length_c   10.72061566
_cell_angle_alpha   90.00000000
_cell_angle_beta   90.00000000
_cell_angle_gamma   90.00000000
_symmetry_Int_Tables_number   1
_chemical_formula_structural   Cr7Fe2
_chemical_formula_sum   'Cr42 Fe12'
_cell_volume   616.06875577
_cell_formula_units_Z   6
loop_
 _symmetry_equiv_pos_site_id
 _symmetry_equiv_pos_as_xyz
  1  'x, y, z'
loop_
 _atom_site_type_symbol
 _atom_site_label
 _atom_site_symmetry_multiplicity
 _atom_site_fract_x
 _atom_site_fract_y
 _atom_site_fract_z
 _atom_site_occupancy
  Cr  Cr0  1  0.99226156  -0.00715728  0.99174178  1
  Cr  Cr1  1  0.16019489  0.15711823  0.15976041  1
  Cr  Cr2  1  -0.00612299  0.99219481  0.32440106  1
  Cr  Cr3  1  0.99119625  0.32416833  0.99250102  1
  Cr  Cr4  1  0.15832740  0.49355327  0.15906171  1
  Cr  Cr5  1  0.99170639  0.32552601  0.32627107  1
  Cr  Cr6  1  0.99198396  0.66051604  -0.00611381  1
  Fe  Fe7  1  0.15954032  0.82620279  0.15948137  1
  Cr  Cr8  1  -0.00643984  0.65980456  0.32595334  1
  Cr  Cr9  1  0.32556810  0.99205962  -0.00629008  1
  Cr  Cr10  1  0.49210296  0.15849489  0.16067017  1
  Fe  Fe11  1  0.32549698  0.99215834  0.32548873  1
  Cr  Cr12  1  0.32770948  0.32601865  0.98992331  1
  Cr  Cr13  1  0.49425825  0.49246732  0.15694458  1
  Cr  Cr14  1  0.32653183  0.32522282  0.32700961  1
  Cr  Cr15  1  0.32770945  0.65944542  -0.00717789  1
  Cr  Cr16  1  0.49101851  0.82656671  0.15989775  1
  Cr  Cr17  1  0.32545232  0.66089186  0.32517675  1
  Cr  Cr18  1  0.65969461  -0.00715549  0.98929691  1
  Cr  Cr19  1  0.82522824  0.16035399  0.15879657  1
  Cr  Cr20  1  0.65820677  -0.00672564  0.32778353  1
  Fe  Fe21  1  0.65882815  0.32615988  0.99146339  1
  Cr  Cr22  1  0.82494471  0.49247492  0.15811864  1
  Cr  Cr23  1  0.65928864  0.32553437  0.32510016  1
  Fe  Fe24  1  0.65882705  0.65886902  0.99146268  1
  Cr  Cr25  1  0.82631559  0.82469927  0.15802529  1
  Cr  Cr26  1  0.65851331  0.65871758  0.32630785  1
  Cr  Cr27  1  0.16083400  0.15966104  0.49300309  1
  Cr  Cr28  1  0.99047390  -0.00654046  0.66138448  1
  Fe  Fe29  1  0.15947148  0.15955311  0.82550706  1
  Cr  Cr30  1  0.15897747  0.49185780  0.49456393  1
  Cr  Cr31  1  -0.00634547  0.32424500  0.65875720  1
  Cr  Cr32  1  0.16039708  0.49083417  0.82390150  1
  Cr  Cr33  1  0.15976387  0.82600953  0.49044394  1
  Cr  Cr34  1  0.99229382  0.65982354  0.65768645  1
  Cr  Cr35  1  0.15904983  0.82674639  0.82659027  1
  Cr  Cr36  1  0.49184019  0.15782585  0.49174715  1
  Cr  Cr37  1  0.32731539  -0.00625632  0.66019351  1
  Fe  Fe38  1  0.49279074  0.15956012  0.82550320  1
  Cr  Cr39  1  0.49186163  0.49185722  0.49331789  1
  Fe  Fe40  1  0.32615387  0.32552238  0.66022161  1
  Fe  Fe41  1  0.49281834  0.49222387  0.82617774  1
  Cr  Cr42  1  0.49291131  0.82784326  0.49222042  1
  Cr  Cr43  1  0.32734645  0.65768893  0.65952011  1
  Fe  Fe44  1  0.49386178  0.82574420  0.82585398  1
  Cr  Cr45  1  0.82485185  0.15861006  0.49253640  1
  Fe  Fe46  1  0.65920863  0.99247036  0.66056424  1
  Fe  Fe47  1  0.82526450  0.15851268  0.82584338  1
  Cr  Cr48  1  0.82668784  0.49293193  0.49106613  1
  Cr  Cr49  1  0.65760075  0.32427568  0.65933247  1
  Cr  Cr50  1  0.82444666  0.49298891  0.82833465  1
  Cr  Cr51  1  0.82485119  0.82598580  0.49452111  1
  Cr  Cr52  1  0.65788741  0.66087124  0.65978587  1
  Fe  Fe53  1  0.82453014  0.82646092  0.82585386  1
" 