513,Fe79Cr21_0,-208.35167248384, 204.88718477833,Fe79Cr21,"# generated using pymatgen
 data_Cr7Fe2
_symmetry_space_group_name_H-M   'P 1'
_cell_length_a   7.58009357
_cell_length_b   7.58009357
_cell_length_c   10.71987112
_cell_angle_alpha   90.00000000
_cell_angle_beta   90.00000000
_cell_angle_gamma   90.00000000
_symmetry_Int_Tables_number   1
_chemical_formula_structural   Cr7Fe2
_chemical_formula_sum   'Cr42 Fe12'
_cell_volume   615.94040901
_cell_formula_units_Z   6
loop_
 _symmetry_equiv_pos_site_id
 _symmetry_equiv_pos_as_xyz
  1  'x, y, z'
loop_
 _atom_site_type_symbol
 _atom_site_label
 _atom_site_symmetry_multiplicity
 _atom_site_fract_x
 _atom_site_fract_y
 _atom_site_fract_z
 _atom_site_occupancy
  Fe  Fe0  1  -0.00742493  0.99250533  -0.00745111  1
  Cr  Cr1  1  0.15961920  0.15821252  0.15824575  1
  Cr  Cr2  1  0.99157904  -0.00608629  0.32628295  1
  Cr  Cr3  1  0.99163241  0.32394904  -0.00707236  1
  Cr  Cr4  1  0.15783498  0.49258296  0.16241448  1
  Fe  Fe5  1  0.99253404  0.32652766  0.32653979  1
  Cr  Cr6  1  0.99191921  0.66083461  0.99209356  1
  Cr  Cr7  1  0.15990440  0.82683512  0.15783325  1
  Fe  Fe8  1  -0.00713255  0.65823810  0.32620446  1
  Fe  Fe9  1  0.32650161  0.99248469  -0.00745181  1
  Cr  Cr10  1  0.49241811  0.15792499  0.15738013  1
  Cr  Cr11  1  0.32624377  0.99183825  0.32419149  1
  Cr  Cr12  1  0.32770522  0.32473157  0.99047099  1
  Cr  Cr13  1  0.49390904  0.49257333  0.15861397  1
  Cr  Cr14  1  0.32388053  0.32662229  0.32699872  1
  Cr  Cr15  1  0.32743075  0.66007265  -0.00745448  1
  Fe  Fe16  1  0.49255250  0.82654751  0.15852972  1
  Cr  Cr17  1  0.32565584  0.65916825  0.32562234  1
  Fe  Fe18  1  0.65855236  -0.00680439  -0.00740731  1
  Cr  Cr19  1  0.82559245  0.15998953  0.15867442  1
  Cr  Cr20  1  0.65981084  0.99213510  0.32711232  1
  Fe  Fe21  1  0.65854066  0.32531361  0.99188166  1
  Cr  Cr22  1  0.82588324  0.49229831  0.15991768  1
  Cr  Cr23  1  0.66112767  0.32528370  0.32553909  1
  Cr  Cr24  1  0.65828026  0.65904638  -0.00671128  1
  Cr  Cr25  1  0.82559736  0.82534452  0.15825817  1
  Cr  Cr26  1  0.65905882  0.66021044  0.32415702  1
  Cr  Cr27  1  0.15865608  0.16083897  0.49149910  1
  Cr  Cr28  1  0.99057459  -0.00688788  0.65921783  1
  Cr  Cr29  1  0.16080627  0.15791657  0.82787436  1
  Fe  Fe30  1  0.15858193  0.49259074  0.49186959  1
  Cr  Cr31  1  -0.00734471  0.32490715  0.65707794  1
  Cr  Cr32  1  0.16008424  0.49265272  0.82433864  1
  Cr  Cr33  1  0.15894604  0.82454234  0.49299186  1
  Cr  Cr34  1  -0.00705079  0.65961014  0.65928781  1
  Cr  Cr35  1  0.15905216  0.82705823  0.82679867  1
  Cr  Cr36  1  0.49347566  0.15846941  0.49388615  1
  Cr  Cr37  1  0.32674429  -0.00691158  0.65938498  1
  Fe  Fe38  1  0.49322326  0.15920060  0.82654332  1
  Cr  Cr39  1  0.49184791  0.49224311  0.49325542  1
  Cr  Cr40  1  0.32645327  0.32670403  0.66016834  1
  Fe  Fe41  1  0.49289327  0.49156053  0.82622364  1
  Cr  Cr42  1  0.49317263  0.82691698  0.49246600  1
  Cr  Cr43  1  0.32618083  0.65783785  0.65946359  1
  Cr  Cr44  1  0.49276024  0.82731463  0.82528989  1
  Fe  Fe45  1  0.82582257  0.15916968  0.49254985  1
  Fe  Fe46  1  0.65922050  -0.00677744  0.65917792  1
  Cr  Cr47  1  0.82377480  0.15866779  0.82641055  1
  Cr  Cr48  1  0.82788120  0.49195260  0.49045511  1
  Cr  Cr49  1  0.65852190  0.32433798  0.66087746  1
  Cr  Cr50  1  0.82402637  0.49236360  0.82725438  1
  Cr  Cr51  1  0.82550710  0.82617050  0.49404387  1
  Cr  Cr52  1  0.65850101  0.65990872  0.66017899  1
  Cr  Cr53  1  0.82581523  0.82659693  0.82533583  1
" 