6723,Fe79Cr21_10,-208.205798389375, 207.320610588891,Fe79Cr21,"# generated using pymatgen
 data_Cr7Fe2
_symmetry_space_group_name_H-M   'P 1'
_cell_length_a   7.56987680
_cell_length_b   7.56987680
_cell_length_c   10.70542243
_cell_angle_alpha   90.00000000
_cell_angle_beta   90.00000000
_cell_angle_gamma   90.00000000
_symmetry_Int_Tables_number   1
_chemical_formula_structural   Cr7Fe2
_chemical_formula_sum   'Cr42 Fe12'
_cell_volume   613.45319379
_cell_formula_units_Z   6
loop_
 _symmetry_equiv_pos_site_id
 _symmetry_equiv_pos_as_xyz
  1  'x, y, z'
loop_
 _atom_site_type_symbol
 _atom_site_label
 _atom_site_symmetry_multiplicity
 _atom_site_fract_x
 _atom_site_fract_y
 _atom_site_fract_z
 _atom_site_occupancy
  Fe  Fe0  1  -0.00670200  0.99197889  0.99255239  1
  Cr  Cr1  1  0.15962035  0.15996068  0.15663101  1
  Cr  Cr2  1  0.99192049  -0.00593461  0.32817618  1
  Cr  Cr3  1  0.99055002  0.32665425  0.99302452  1
  Cr  Cr4  1  0.16058478  0.49100778  0.16362198  1
  Cr  Cr5  1  0.99124867  0.32591835  0.32813203  1
  Cr  Cr6  1  -0.00578021  0.66137077  0.99132732  1
  Cr  Cr7  1  0.15910847  0.82881102  0.15770928  1
  Cr  Cr8  1  -0.00503853  0.65998770  0.32699872  1
  Fe  Fe9  1  0.32667868  0.99225183  0.99241220  1
  Cr  Cr10  1  0.49298929  0.15823435  0.15888412  1
  Cr  Cr11  1  0.32821753  0.99274348  0.32744989  1
  Cr  Cr12  1  0.32910350  0.32706553  -0.00531412  1
  Fe  Fe13  1  0.49349262  0.49291477  0.15971401  1
  Cr  Cr14  1  0.32876015  0.32694543  0.32750165  1
  Cr  Cr15  1  0.32634163  0.66233833  -0.00456333  1
  Cr  Cr16  1  0.49559731  0.82741480  0.15990933  1
  Cr  Cr17  1  0.32640391  0.66019712  0.32436231  1
  Fe  Fe18  1  0.65970373  0.99286546  0.99295847  1
  Cr  Cr19  1  0.82695459  0.15708519  0.15992147  1
  Fe  Fe20  1  0.65938381  -0.00520736  0.32775353  1
  Cr  Cr21  1  0.66005172  0.32629924  -0.00628704  1
  Cr  Cr22  1  0.82640030  0.49416851  0.15866917  1
  Cr  Cr23  1  0.65968292  0.32345677  0.32526644  1
  Cr  Cr24  1  0.65926032  0.65772190  0.99225318  1
  Cr  Cr25  1  0.82486315  0.82812596  0.16113355  1
  Cr  Cr26  1  0.65833033  0.65872305  0.32454809  1
  Cr  Cr27  1  0.16109519  0.16394027  0.49434400  1
  Cr  Cr28  1  -0.00637843  0.99277973  0.66040304  1
  Cr  Cr29  1  0.16069387  0.15937060  0.82951645  1
  Fe  Fe30  1  0.16047149  0.49344044  0.49383805  1
  Cr  Cr31  1  0.99102313  0.32641007  0.65910328  1
  Cr  Cr32  1  0.16019914  0.49066527  0.82337337  1
  Cr  Cr33  1  0.15954393  0.82596759  0.49316334  1
  Cr  Cr34  1  -0.00644637  0.66041588  0.66136106  1
  Fe  Fe35  1  0.16044865  0.82770892  0.82785234  1
  Fe  Fe36  1  0.49422561  0.16025601  0.49309614  1
  Cr  Cr37  1  0.32668745  0.99293387  0.66078575  1
  Cr  Cr38  1  0.49111094  0.15947072  0.82643298  1
  Cr  Cr39  1  0.49155817  0.49283945  0.49508061  1
  Fe  Fe40  1  0.32629497  0.32590135  0.65891266  1
  Cr  Cr41  1  0.49403070  0.49374816  0.82463781  1
  Cr  Cr42  1  0.49611949  0.82644573  0.49285048  1
  Cr  Cr43  1  0.32556834  0.66148876  0.65961626  1
  Cr  Cr44  1  0.49476739  0.82663912  0.82614266  1
  Fe  Fe45  1  0.82480326  0.15977821  0.49266559  1
  Cr  Cr46  1  0.65943703  -0.00416949  0.65597481  1
  Cr  Cr47  1  0.82756319  0.15862428  0.82885043  1
  Cr  Cr48  1  0.82678897  0.49464922  0.49542152  1
  Cr  Cr49  1  0.65999104  0.32547134  0.66114736  1
  Fe  Fe50  1  0.82594449  0.49326470  0.82588394  1
  Cr  Cr51  1  0.82398142  0.82672629  0.49126270  1
  Fe  Fe52  1  0.66072875  0.65995002  0.66039603  1
  Cr  Cr53  1  0.82525271  0.82541636  0.82637302  1
" 