4653,Fe79Cr21_11,-208.318593391428, 205.16913688278,Fe79Cr21,"# generated using pymatgen
 data_Cr7Fe2
_symmetry_space_group_name_H-M   'P 1'
_cell_length_a   7.57681561
_cell_length_b   7.57681561
_cell_length_c   10.71523540
_cell_angle_alpha   90.00000000
_cell_angle_beta   90.00000000
_cell_angle_gamma   90.00000000
_symmetry_Int_Tables_number   1
_chemical_formula_structural   Cr7Fe2
_chemical_formula_sum   'Cr42 Fe12'
_cell_volume   615.14167871
_cell_formula_units_Z   6
loop_
 _symmetry_equiv_pos_site_id
 _symmetry_equiv_pos_as_xyz
  1  'x, y, z'
loop_
 _atom_site_type_symbol
 _atom_site_label
 _atom_site_symmetry_multiplicity
 _atom_site_fract_x
 _atom_site_fract_y
 _atom_site_fract_z
 _atom_site_occupancy
  Cr  Cr0  1  0.99143326  -0.00724237  0.99157897  1
  Fe  Fe1  1  0.15946216  0.15945408  0.15935463  1
  Cr  Cr2  1  -0.00657989  0.99271718  0.32502669  1
  Fe  Fe3  1  0.99273786  0.32524398  -0.00723810  1
  Cr  Cr4  1  0.15832997  0.49280699  0.15729258  1
  Cr  Cr5  1  -0.00546916  0.32526291  0.32507048  1
  Cr  Cr6  1  0.99143220  0.66039944  -0.00609735  1
  Cr  Cr7  1  0.16020691  0.82662546  0.15905878  1
  Cr  Cr8  1  0.99122943  0.66028917  0.32585193  1
  Cr  Cr9  1  0.32542117  -0.00677382  -0.00582365  1
  Cr  Cr10  1  0.49280551  0.15743732  0.16127031  1
  Fe  Fe11  1  0.32642925  -0.00689818  0.32644677  1
  Cr  Cr12  1  0.32510043  0.32652746  -0.00657411  1
  Cr  Cr13  1  0.49310343  0.49373736  0.15685754  1
  Cr  Cr14  1  0.32506616  0.32339213  0.32651733  1
  Fe  Fe15  1  0.32684457  0.65951632  -0.00723022  1
  Cr  Cr16  1  0.49262898  0.82709832  0.16015926  1
  Cr  Cr17  1  0.32679320  0.66057786  0.32731551  1
  Cr  Cr18  1  0.66141432  0.99102918  0.99197462  1
  Cr  Cr19  1  0.82636401  0.15931680  0.15945111  1
  Fe  Fe20  1  0.65872322  0.99203249  0.32608268  1
  Cr  Cr21  1  0.65953845  0.32651758  0.99122252  1
  Cr  Cr22  1  0.82683362  0.49262690  0.15966728  1
  Cr  Cr23  1  0.65867302  0.32558868  0.32695658  1
  Fe  Fe24  1  0.65938730  0.66022023  -0.00723436  1
  Fe  Fe25  1  0.82532107  0.82605845  0.15946604  1
  Cr  Cr26  1  0.66024796  0.66169885  0.32620957  1
  Fe  Fe27  1  0.15934905  0.15872516  0.49280297  1
  Fe  Fe28  1  0.99239175  -0.00688774  0.65978205  1
  Cr  Cr29  1  0.15672561  0.15840325  0.82565838  1
  Cr  Cr30  1  0.15867298  0.49323050  0.49354011  1
  Cr  Cr31  1  -0.00680455  0.32413277  0.65929822  1
  Cr  Cr32  1  0.15923039  0.49391204  0.82743589  1
  Cr  Cr33  1  0.16057449  0.82753552  0.49398314  1
  Cr  Cr34  1  0.99208385  0.66142317  0.65851396  1
  Cr  Cr35  1  0.15892864  0.82595632  0.82522300  1
  Cr  Cr36  1  0.49283924  0.15718077  0.49099364  1
  Cr  Cr37  1  0.32503537  -0.00680091  0.65760259  1
  Cr  Cr38  1  0.49491349  0.15918609  0.82600669  1
  Cr  Cr39  1  0.49315153  0.49307646  0.49363258  1
  Cr  Cr40  1  0.32581719  0.32553535  0.65832387  1
  Cr  Cr41  1  0.49301826  0.49374170  0.82778164  1
  Fe  Fe42  1  0.49282510  0.82678849  0.49203670  1
  Cr  Cr43  1  0.32644706  0.65953488  0.65907363  1
  Cr  Cr44  1  0.49253058  0.82534478  0.82712144  1
  Cr  Cr45  1  0.82597524  0.15908743  0.49394134  1
  Cr  Cr46  1  0.66114459  0.99208868  0.66091812  1
  Fe  Fe47  1  0.82682167  0.15869110  0.82610234  1
  Cr  Cr48  1  0.82644420  0.49196189  0.49196302  1
  Cr  Cr49  1  0.65925618  0.32554386  0.66009450  1
  Cr  Cr50  1  0.82601944  0.49152802  0.82663442  1
  Cr  Cr51  1  0.82612614  0.82722240  0.49240167  1
  Cr  Cr52  1  0.65973918  0.66063431  0.65929489  1
  Fe  Fe53  1  0.82610638  0.82680439  0.82604731  1
" 