7929,Fe79Cr21_19,-208.358822362368, 207.321512824436,Fe79Cr21,"# generated using pymatgen
 data_Cr7Fe2
_symmetry_space_group_name_H-M   'P 1'
_cell_length_a   7.57220823
_cell_length_b   7.57220823
_cell_length_c   10.70871958
_cell_angle_alpha   90.00000000
_cell_angle_beta   90.00000000
_cell_angle_gamma   90.00000000
_symmetry_Int_Tables_number   1
_chemical_formula_structural   Cr7Fe2
_chemical_formula_sum   'Cr42 Fe12'
_cell_volume   614.02017808
_cell_formula_units_Z   6
loop_
 _symmetry_equiv_pos_site_id
 _symmetry_equiv_pos_as_xyz
  1  'x, y, z'
loop_
 _atom_site_type_symbol
 _atom_site_label
 _atom_site_symmetry_multiplicity
 _atom_site_fract_x
 _atom_site_fract_y
 _atom_site_fract_z
 _atom_site_occupancy
  Cr  Cr0  1  0.99195203  0.99148337  0.99088048  1
  Cr  Cr1  1  0.15952825  0.16030637  0.15923708  1
  Fe  Fe2  1  0.99214051  -0.00585896  0.32717435  1
  Fe  Fe3  1  0.99254701  0.32437570  0.99212015  1
  Cr  Cr4  1  0.15932541  0.48905941  0.15891963  1
  Cr  Cr5  1  0.99106805  0.32650613  0.32546520  1
  Cr  Cr6  1  -0.00589095  0.66095257  -0.00592491  1
  Cr  Cr7  1  0.16044628  0.83023739  0.15968637  1
  Cr  Cr8  1  -0.00568508  0.66137805  0.32432642  1
  Fe  Fe9  1  0.32605918  -0.00679418  0.99151263  1
  Cr  Cr10  1  0.49185139  0.15781785  0.15902273  1
  Cr  Cr11  1  0.32758337  -0.00675880  0.32546605  1
  Cr  Cr12  1  0.32891708  0.32529407  0.99292032  1
  Cr  Cr13  1  0.49371363  0.49310445  0.16038266  1
  Cr  Cr14  1  0.32884678  0.32609495  0.32987121  1
  Cr  Cr15  1  0.32411543  0.66142119  -0.00603139  1
  Cr  Cr16  1  0.49450927  0.82786862  0.15907496  1
  Cr  Cr17  1  0.32472701  0.65976949  0.32674522  1
  Cr  Cr18  1  0.65970308  -0.00440763  0.99282695  1
  Cr  Cr19  1  0.82789386  0.15898436  0.16081831  1
  Fe  Fe20  1  0.66002093  -0.00543749  0.32784559  1
  Cr  Cr21  1  0.66057493  0.32339334  0.99123455  1
  Cr  Cr22  1  0.82640747  0.49188218  0.15625471  1
  Cr  Cr23  1  0.65933430  0.32290882  0.32865526  1
  Cr  Cr24  1  0.66066636  0.66044432  -0.00637575  1
  Cr  Cr25  1  0.82413062  0.82803877  0.16356893  1
  Cr  Cr26  1  0.66003516  0.65843784  0.32596312  1
  Cr  Cr27  1  0.15815187  0.15885750  0.49210243  1
  Fe  Fe28  1  0.99281019  -0.00513546  0.66073465  1
  Cr  Cr29  1  0.16001894  0.15898349  0.82764495  1
  Cr  Cr30  1  0.15894872  0.49092449  0.49304370  1
  Cr  Cr31  1  0.99072620  0.32462247  0.66092990  1
  Cr  Cr32  1  0.15953951  0.48933785  0.82696621  1
  Cr  Cr33  1  0.15879718  0.83023345  0.49456581  1
  Cr  Cr34  1  -0.00573219  0.66225546  0.66113443  1
  Fe  Fe35  1  0.15942477  0.82595268  0.82655616  1
  Fe  Fe36  1  0.49397576  0.15703997  0.49289870  1
  Cr  Cr37  1  0.32669038  -0.00693445  0.66360596  1
  Fe  Fe38  1  0.49323961  0.16040908  0.82659653  1
  Fe  Fe39  1  0.49439090  0.49396822  0.49361899  1
  Cr  Cr40  1  0.32901731  0.32509744  0.65557699  1
  Cr  Cr41  1  0.49402725  0.49448576  0.82378138  1
  Cr  Cr42  1  0.49513787  0.82632420  0.49284168  1
  Cr  Cr43  1  0.32479903  0.66023340  0.65844923  1
  Cr  Cr44  1  0.49351105  0.82742281  0.82792737  1
  Fe  Fe45  1  0.82689988  0.15855225  0.49232476  1
  Cr  Cr46  1  0.66089642  -0.00320991  0.65975782  1
  Fe  Fe47  1  0.82664353  0.15937903  0.82632650  1
  Cr  Cr48  1  0.82509528  0.49436846  0.49509267  1
  Cr  Cr49  1  0.65931343  0.32383102  0.65881514  1
  Cr  Cr50  1  0.82594181  0.49275594  0.82761183  1
  Cr  Cr51  1  0.82535615  0.82865731  0.49258438  1
  Fe  Fe52  1  0.65880473  0.65987465  0.65900222  1
  Cr  Cr53  1  0.82408492  0.82624259  0.82290062  1
" 