7172,Fe79Cr21_8,-208.271893355617, 206.672091572335,Fe79Cr21,"# generated using pymatgen
 data_Cr7Fe2
_symmetry_space_group_name_H-M   'P 1'
_cell_length_a   7.57491663
_cell_length_b   7.57491663
_cell_length_c   10.71254983
_cell_angle_alpha   90.00000000
_cell_angle_beta   90.00000000
_cell_angle_gamma   90.00000000
_symmetry_Int_Tables_number   1
_chemical_formula_structural   Cr7Fe2
_chemical_formula_sum   'Cr42 Fe12'
_cell_volume   614.67927313
_cell_formula_units_Z   6
loop_
 _symmetry_equiv_pos_site_id
 _symmetry_equiv_pos_as_xyz
  1  'x, y, z'
loop_
 _atom_site_type_symbol
 _atom_site_label
 _atom_site_symmetry_multiplicity
 _atom_site_fract_x
 _atom_site_fract_y
 _atom_site_fract_z
 _atom_site_occupancy
  Cr  Cr0  1  -0.00569532  -0.00493171  -0.00678967  1
  Cr  Cr1  1  0.16028264  0.16254103  0.15631749  1
  Cr  Cr2  1  -0.00654223  -0.00410190  0.32379528  1
  Fe  Fe3  1  0.99223493  0.32609567  0.99134107  1
  Cr  Cr4  1  0.15993706  0.49185556  0.15981043  1
  Cr  Cr5  1  0.99057514  0.32462276  0.32665806  1
  Cr  Cr6  1  0.99184079  0.66054562  0.99136116  1
  Cr  Cr7  1  0.15836143  0.82508451  0.15988661  1
  Cr  Cr8  1  0.99148387  0.65868755  0.32653642  1
  Cr  Cr9  1  0.32515208  -0.00664923  0.98964487  1
  Cr  Cr10  1  0.49398096  0.16048118  0.15904224  1
  Cr  Cr11  1  0.32576497  -0.00577125  0.32544506  1
  Fe  Fe12  1  0.32567160  0.32550170  0.99156442  1
  Cr  Cr13  1  0.49095579  0.49023081  0.15718165  1
  Fe  Fe14  1  0.32597525  0.32509524  0.32591746  1
  Cr  Cr15  1  0.32720193  0.66233521  0.99266438  1
  Cr  Cr16  1  0.49429835  0.82734086  0.16013510  1
  Cr  Cr17  1  0.32801625  0.66033062  0.32587408  1
  Cr  Cr18  1  0.65945281  -0.00700451  -0.00534780  1
  Fe  Fe19  1  0.82609429  0.16117385  0.15808990  1
  Fe  Fe20  1  0.65971227  -0.00636159  0.32510798  1
  Fe  Fe21  1  0.66067299  0.32471155  0.99224975  1
  Cr  Cr22  1  0.82738863  0.49211341  0.15500019  1
  Cr  Cr23  1  0.66038721  0.32591002  0.32540508  1
  Cr  Cr24  1  0.65935996  0.65746583  0.99111159  1
  Cr  Cr25  1  0.82585372  0.82823714  0.16190699  1
  Cr  Cr26  1  0.65917703  0.65675474  0.32541306  1
  Cr  Cr27  1  0.16011503  0.16009081  0.49418304  1
  Cr  Cr28  1  -0.00519691  -0.00651507  0.66204061  1
  Fe  Fe29  1  0.15946080  0.16178094  0.82730289  1
  Cr  Cr30  1  0.16003314  0.49282603  0.49089377  1
  Cr  Cr31  1  0.99158304  0.32504650  0.65959371  1
  Cr  Cr32  1  0.15888658  0.49214461  0.82717356  1
  Cr  Cr33  1  0.15815185  0.82567947  0.49229755  1
  Cr  Cr34  1  0.99180610  0.65996405  0.66116683  1
  Fe  Fe35  1  0.15854645  0.82605439  0.82681966  1
  Cr  Cr36  1  0.49438378  0.15781183  0.49337350  1
  Cr  Cr37  1  0.32568755  0.99229931  0.66367862  1
  Cr  Cr38  1  0.49372887  0.15934111  0.82572134  1
  Cr  Cr39  1  0.49124164  0.49191086  0.49195612  1
  Cr  Cr40  1  0.32632457  0.32492617  0.65741243  1
  Cr  Cr41  1  0.49155488  0.49081016  0.82832435  1
  Cr  Cr42  1  0.49569351  0.82861946  0.49379616  1
  Cr  Cr43  1  0.32735091  0.66143850  0.66016912  1
  Fe  Fe44  1  0.49489953  0.82677546  0.82661322  1
  Cr  Cr45  1  0.82408795  0.15577068  0.49302165  1
  Fe  Fe46  1  0.66025723  0.99183612  0.66200083  1
  Cr  Cr47  1  0.82572782  0.15845721  0.82733478  1
  Cr  Cr48  1  0.82712701  0.49406954  0.49585088  1
  Cr  Cr49  1  0.66047555  0.32719141  0.65929391  1
  Fe  Fe50  1  0.82614266  0.49107605  0.82754384  1
  Cr  Cr51  1  0.82517575  0.82829597  0.49289848  1
  Cr  Cr52  1  0.65920302  0.65865789  0.66293903  1
  Fe  Fe53  1  0.82546942  0.82685802  0.82678942  1
" 