391,Fe79Cr21_13,-208.24948788687, 204.960669069443,Fe79Cr21,"# generated using pymatgen
 data_Cr7Fe2
_symmetry_space_group_name_H-M   'P 1'
_cell_length_a   7.57193428
_cell_length_b   7.57193428
_cell_length_c   10.70833215
_cell_angle_alpha   90.00000000
_cell_angle_beta   90.00000000
_cell_angle_gamma   90.00000000
_symmetry_Int_Tables_number   1
_chemical_formula_structural   Cr7Fe2
_chemical_formula_sum   'Cr42 Fe12'
_cell_volume   613.95353610
_cell_formula_units_Z   6
loop_
 _symmetry_equiv_pos_site_id
 _symmetry_equiv_pos_as_xyz
  1  'x, y, z'
loop_
 _atom_site_type_symbol
 _atom_site_label
 _atom_site_symmetry_multiplicity
 _atom_site_fract_x
 _atom_site_fract_y
 _atom_site_fract_z
 _atom_site_occupancy
  Cr  Cr0  1  0.99280071  -0.00540358  -0.00687152  1
  Cr  Cr1  1  0.16328941  0.16146504  0.15908161  1
  Cr  Cr2  1  0.99113913  -0.00503927  0.32613899  1
  Cr  Cr3  1  0.99162206  0.32509333  -0.00473256  1
  Cr  Cr4  1  0.16109876  0.49133727  0.16024386  1
  Cr  Cr5  1  0.99160963  0.32463555  0.32479988  1
  Fe  Fe6  1  0.99239265  0.65932100  0.99291167  1
  Cr  Cr7  1  0.16007042  0.82626093  0.15692672  1
  Cr  Cr8  1  -0.00576870  0.65971406  0.32645687  1
  Fe  Fe9  1  0.32768035  -0.00511285  0.99280132  1
  Cr  Cr10  1  0.49166958  0.16052229  0.16060499  1
  Cr  Cr11  1  0.32650887  0.99164233  0.32638986  1
  Fe  Fe12  1  0.32840793  0.32583563  0.99236017  1
  Fe  Fe13  1  0.49232562  0.49247637  0.15910435  1
  Fe  Fe14  1  0.32725972  0.32661147  0.32581991  1
  Cr  Cr15  1  0.32869096  0.65898255  0.99274269  1
  Cr  Cr16  1  0.49458212  0.82741764  0.16065640  1
  Cr  Cr17  1  0.32717542  0.65872432  0.32862934  1
  Cr  Cr18  1  0.65941109  -0.00500937  -0.00488212  1
  Fe  Fe19  1  0.82541859  0.15922080  0.15993277  1
  Fe  Fe20  1  0.66085916  -0.00612899  0.32548524  1
  Cr  Cr21  1  0.65822560  0.32691433  0.99075353  1
  Cr  Cr22  1  0.82574908  0.49478016  0.15742456  1
  Cr  Cr23  1  0.66071512  0.32493111  0.32543033  1
  Fe  Fe24  1  0.65923913  0.65883608  0.99297746  1
  Cr  Cr25  1  0.82464048  0.82514730  0.15854437  1
  Cr  Cr26  1  0.65772344  0.65910295  0.32509634  1
  Cr  Cr27  1  0.16143506  0.16073157  0.49332690  1
  Fe  Fe28  1  -0.00677415  -0.00690112  0.66014964  1
  Cr  Cr29  1  0.16290349  0.15995928  0.82761624  1
  Cr  Cr30  1  0.15983054  0.49058885  0.49094509  1
  Cr  Cr31  1  0.99155915  0.32451561  0.65869131  1
  Cr  Cr32  1  0.15894705  0.49203660  0.82812155  1
  Cr  Cr33  1  0.15919593  0.82773993  0.49521171  1
  Cr  Cr34  1  -0.00521960  0.66010689  0.65936269  1
  Cr  Cr35  1  0.15913111  0.82718442  0.82753702  1
  Cr  Cr36  1  0.49287268  0.16006577  0.49271983  1
  Cr  Cr37  1  0.32667564  0.99215567  0.66216724  1
  Fe  Fe38  1  0.49320276  0.16114736  0.82728071  1
  Cr  Cr39  1  0.49373039  0.49057874  0.49244640  1
  Cr  Cr40  1  0.32880274  0.32740875  0.66160227  1
  Fe  Fe41  1  0.49289873  0.49191168  0.82692158  1
  Cr  Cr42  1  0.49510601  0.82842374  0.49076528  1
  Cr  Cr43  1  0.32754553  0.65985513  0.65766710  1
  Cr  Cr44  1  0.49408773  0.82794694  0.82842589  1
  Cr  Cr45  1  0.82478597  0.15953855  0.49350112  1
  Cr  Cr46  1  0.65947272  -0.00484793  0.65901749  1
  Cr  Cr47  1  0.82538009  0.16032774  0.82339270  1
  Cr  Cr48  1  0.82555797  0.49298077  0.49538183  1
  Fe  Fe49  1  0.65765933  0.32670945  0.66090075  1
  Cr  Cr50  1  0.82497633  0.49425479  0.82599972  1
  Cr  Cr51  1  0.82497788  0.82655093  0.49357055  1
  Cr  Cr52  1  0.65666317  0.65820757  0.66106050  1
  Cr  Cr53  1  0.82605455  0.82453905  0.82738506  1
" 