2114,Fe79Cr21_14,-208.445828857987, 203.219333355056,Fe79Cr21,"# generated using pymatgen
 data_Cr7Fe2
_symmetry_space_group_name_H-M   'P 1'
_cell_length_a   7.58351084
_cell_length_b   7.58351084
_cell_length_c   10.72470388
_cell_angle_alpha   90.00000000
_cell_angle_beta   90.00000000
_cell_angle_gamma   90.00000000
_symmetry_Int_Tables_number   1
_chemical_formula_structural   Cr7Fe2
_chemical_formula_sum   'Cr42 Fe12'
_cell_volume   616.77382261
_cell_formula_units_Z   6
loop_
 _symmetry_equiv_pos_site_id
 _symmetry_equiv_pos_as_xyz
  1  'x, y, z'
loop_
 _atom_site_type_symbol
 _atom_site_label
 _atom_site_symmetry_multiplicity
 _atom_site_fract_x
 _atom_site_fract_y
 _atom_site_fract_z
 _atom_site_occupancy
  Fe  Fe0  1  -0.00708780  -0.00764717  0.99166637  1
  Cr  Cr1  1  0.15902611  0.15819244  0.15819796  1
  Cr  Cr2  1  0.99098271  0.99157280  0.32568307  1
  Cr  Cr3  1  -0.00633715  0.32418551  0.99114931  1
  Cr  Cr4  1  0.15857115  0.49225217  0.15992948  1
  Cr  Cr5  1  -0.00648902  0.32576757  0.32553707  1
  Cr  Cr6  1  -0.00755630  0.66076216  -0.00676158  1
  Cr  Cr7  1  0.15902972  0.82651795  0.15790427  1
  Cr  Cr8  1  0.99127114  0.65962350  0.32460761  1
  Fe  Fe9  1  0.32437227  0.99166558  0.99165412  1
  Cr  Cr10  1  0.49166997  0.15772986  0.15915764  1
  Cr  Cr11  1  0.32661804  -0.00589757  0.32631526  1
  Cr  Cr12  1  0.32473683  0.32475233  -0.00664995  1
  Cr  Cr13  1  0.49239982  0.49299192  0.15798734  1
  Cr  Cr14  1  0.32616396  0.32531680  0.32615641  1
  Fe  Fe15  1  0.32535880  0.65991329  0.99202152  1
  Cr  Cr16  1  0.49240832  0.82624134  0.15740716  1
  Cr  Cr17  1  0.32587636  0.65754565  0.32669530  1
  Cr  Cr18  1  0.65960469  0.99126744  -0.00676913  1
  Cr  Cr19  1  0.82626691  0.15818869  0.15878091  1
  Cr  Cr20  1  0.65936384  0.99186304  0.32627447  1
  Cr  Cr21  1  0.65856653  0.32547351  0.99105470  1
  Cr  Cr22  1  0.82599141  0.49298917  0.15906226  1
  Cr  Cr23  1  0.65728767  0.32502501  0.32758554  1
  Cr  Cr24  1  0.65903802  0.66022145  -0.00540568  1
  Fe  Fe25  1  0.82598271  0.82600138  0.15864820  1
  Cr  Cr26  1  0.65981876  0.66007779  0.32373645  1
  Cr  Cr27  1  0.15894223  0.15895243  0.49064398  1
  Cr  Cr28  1  0.99222082  -0.00716900  0.66085202  1
  Fe  Fe29  1  0.15836824  0.15771205  0.82628245  1
  Cr  Cr30  1  0.15952822  0.49275891  0.49171965  1
  Cr  Cr31  1  0.99168043  0.32449343  0.66027121  1
  Cr  Cr32  1  0.15920174  0.49335384  0.82531803  1
  Cr  Cr33  1  0.15999487  0.82525207  0.49359244  1
  Cr  Cr34  1  -0.00644829  0.65963776  0.65911560  1
  Fe  Fe35  1  0.15968892  0.82624729  0.82630132  1
  Fe  Fe36  1  0.49329884  0.15995958  0.49267719  1
  Cr  Cr37  1  0.32534912  0.99226056  0.65949142  1
  Cr  Cr38  1  0.49277670  0.15835017  0.82609491  1
  Fe  Fe39  1  0.49228430  0.49171681  0.49299340  1
  Cr  Cr40  1  0.32693655  0.32611279  0.65744975  1
  Cr  Cr41  1  0.49246059  0.49307116  0.82473319  1
  Cr  Cr42  1  0.49158235  0.82599189  0.49320927  1
  Fe  Fe43  1  0.32562591  0.65902026  0.65896098  1
  Cr  Cr44  1  0.48939725  0.82554220  0.82635179  1
  Fe  Fe45  1  0.82472771  0.15926990  0.49262529  1
  Cr  Cr46  1  0.65939348  -0.00586567  0.65745714  1
  Fe  Fe47  1  0.82623941  0.15900839  0.82568757  1
  Cr  Cr48  1  0.82481709  0.49039786  0.49320189  1
  Fe  Fe49  1  0.65901437  0.32493923  0.65834208  1
  Cr  Cr50  1  0.82530096  0.48997237  0.82470010  1
  Cr  Cr51  1  0.82538781  0.82657269  0.49071054  1
  Cr  Cr52  1  0.65778074  0.65805675  0.65862308  1
  Cr  Cr53  1  0.82686355  0.82714009  0.82631706  1
" 