7193,Fe79Cr21_6,-208.210417406651, 204.416695347778,Fe79Cr21,"# generated using pymatgen
 data_Cr7Fe2
_symmetry_space_group_name_H-M   'P 1'
_cell_length_a   7.57729348
_cell_length_b   7.57729348
_cell_length_c   10.71591121
_cell_angle_alpha   90.00000000
_cell_angle_beta   90.00000000
_cell_angle_gamma   90.00000000
_symmetry_Int_Tables_number   1
_chemical_formula_structural   Cr7Fe2
_chemical_formula_sum   'Cr42 Fe12'
_cell_volume   615.25807688
_cell_formula_units_Z   6
loop_
 _symmetry_equiv_pos_site_id
 _symmetry_equiv_pos_as_xyz
  1  'x, y, z'
loop_
 _atom_site_type_symbol
 _atom_site_label
 _atom_site_symmetry_multiplicity
 _atom_site_fract_x
 _atom_site_fract_y
 _atom_site_fract_z
 _atom_site_occupancy
  Cr  Cr0  1  0.99041168  0.99241317  0.99253766  1
  Cr  Cr1  1  0.15870794  0.16004164  0.15887375  1
  Cr  Cr2  1  0.99241207  0.99146734  0.32585329  1
  Fe  Fe3  1  0.99217455  0.32604886  -0.00723369  1
  Cr  Cr4  1  0.15732926  0.49325314  0.15916895  1
  Cr  Cr5  1  0.99241729  0.32591540  0.32585272  1
  Fe  Fe6  1  0.99182925  0.65904501  0.99236054  1
  Cr  Cr7  1  0.15899030  0.82487842  0.16121439  1
  Fe  Fe8  1  -0.00664341  0.65938857  0.32608976  1
  Cr  Cr9  1  0.32568593  -0.00716476  -0.00717091  1
  Cr  Cr10  1  0.49378547  0.15811706  0.15926484  1
  Cr  Cr11  1  0.32477727  0.99189465  0.32609666  1
  Cr  Cr12  1  0.32586515  0.32702044  -0.00620572  1
  Cr  Cr13  1  0.49323525  0.49325008  0.15954721  1
  Cr  Cr14  1  0.32685674  0.32759361  0.32474492  1
  Cr  Cr15  1  0.32613031  0.65832001  -0.00720396  1
  Cr  Cr16  1  0.49349374  0.82681141  0.15888985  1
  Fe  Fe17  1  0.32541630  0.65938995  0.32600455  1
  Fe  Fe18  1  0.66025248  0.99241550  0.99240961  1
  Fe  Fe19  1  0.82607233  0.15939135  0.15878606  1
  Cr  Cr20  1  0.66098845  -0.00685820  0.32519257  1
  Cr  Cr21  1  0.65998747  0.32579700  -0.00650144  1
  Cr  Cr22  1  0.82760934  0.49296166  0.15900374  1
  Cr  Cr23  1  0.65890201  0.32633411  0.32654381  1
  Fe  Fe24  1  0.66030295  0.66036482  0.99240692  1
  Cr  Cr25  1  0.82568912  0.82542654  0.15834367  1
  Cr  Cr26  1  0.65931931  0.65870081  0.32685558  1
  Cr  Cr27  1  0.15947048  0.15908555  0.49460617  1
  Cr  Cr28  1  -0.00720745  -0.00722909  0.65978016  1
  Cr  Cr29  1  0.15838385  0.16007982  0.82469703  1
  Cr  Cr30  1  0.15808205  0.49359702  0.49265140  1
  Fe  Fe31  1  0.99231751  0.32576409  0.65967895  1
  Cr  Cr32  1  0.15698739  0.49203356  0.82635516  1
  Cr  Cr33  1  0.16071615  0.82549319  0.49195861  1
  Cr  Cr34  1  -0.00694558  0.66038455  0.65951356  1
  Cr  Cr35  1  0.15964116  0.82606256  0.82500388  1
  Cr  Cr36  1  0.49243466  0.15810428  0.49324175  1
  Fe  Fe37  1  0.32609453  0.99203114  0.65941588  1
  Cr  Cr38  1  0.49313745  0.15719294  0.82566926  1
  Cr  Cr39  1  0.49284662  0.49360376  0.49265299  1
  Cr  Cr40  1  0.32588367  0.32668569  0.65963647  1
  Cr  Cr41  1  0.49357738  0.49396452  0.82598007  1
  Cr  Cr42  1  0.49119383  0.82646950  0.49332145  1
  Fe  Fe43  1  0.32608920  0.66007668  0.65945780  1
  Cr  Cr44  1  0.49382271  0.82702097  0.82597049  1
  Cr  Cr45  1  0.82627185  0.16074376  0.49293553  1
  Cr  Cr46  1  0.66061953  0.99248838  0.66044210  1
  Fe  Fe47  1  0.82638295  0.15910218  0.82633326  1
  Cr  Cr48  1  0.82724543  0.49235396  0.49234753  1
  Cr  Cr49  1  0.65952365  0.32641248  0.65813274  1
  Cr  Cr50  1  0.82760716  0.49271431  0.82682875  1
  Cr  Cr51  1  0.82626730  0.82507717  0.49164363  1
  Cr  Cr52  1  0.65895823  0.65927456  0.66017485  1
  Fe  Fe53  1  0.82576307  0.82635824  0.82700857  1
" 