6125,Fe79Cr21_15,-208.373438307786, 206.783466851167,Fe79Cr21,"# generated using pymatgen
 data_Cr7Fe2
_symmetry_space_group_name_H-M   'P 1'
_cell_length_a   7.58179512
_cell_length_b   7.58179512
_cell_length_c   10.72227749
_cell_angle_alpha   90.00000000
_cell_angle_beta   90.00000000
_cell_angle_gamma   90.00000000
_symmetry_Int_Tables_number   1
_chemical_formula_structural   Cr7Fe2
_chemical_formula_sum   'Cr42 Fe12'
_cell_volume   616.35529494
_cell_formula_units_Z   6
loop_
 _symmetry_equiv_pos_site_id
 _symmetry_equiv_pos_as_xyz
  1  'x, y, z'
loop_
 _atom_site_type_symbol
 _atom_site_label
 _atom_site_symmetry_multiplicity
 _atom_site_fract_x
 _atom_site_fract_y
 _atom_site_fract_z
 _atom_site_occupancy
  Cr  Cr0  1  0.99235432  -0.00666861  0.99078564  1
  Cr  Cr1  1  0.16024658  0.15778159  0.16105982  1
  Fe  Fe2  1  0.99241362  0.99242239  0.32641607  1
  Cr  Cr3  1  -0.00693537  0.32576111  0.99123092  1
  Cr  Cr4  1  0.15708644  0.49282918  0.15905647  1
  Cr  Cr5  1  0.99221999  0.32485599  0.32529136  1
  Cr  Cr6  1  0.99234798  0.65820334  -0.00604302  1
  Cr  Cr7  1  0.15882000  0.82668636  0.16031050  1
  Cr  Cr8  1  0.99150587  0.65993115  0.32417066  1
  Cr  Cr9  1  0.32555028  -0.00695781  -0.00669448  1
  Cr  Cr10  1  0.49172306  0.15877532  0.15931290  1
  Fe  Fe11  1  0.32546402  0.99210583  0.32610941  1
  Cr  Cr12  1  0.32483796  0.32604769  0.99094107  1
  Cr  Cr13  1  0.49444209  0.49139557  0.15870800  1
  Cr  Cr14  1  0.32568730  0.32512914  0.32558252  1
  Cr  Cr15  1  0.32584224  0.65820741  0.99086200  1
  Cr  Cr16  1  0.49171561  0.82712726  0.15856344  1
  Cr  Cr17  1  0.32668049  0.65993975  0.32725722  1
  Cr  Cr18  1  0.65939450  0.99232739  0.99110360  1
  Cr  Cr19  1  0.82532800  0.16050705  0.15930437  1
  Cr  Cr20  1  0.65938386  0.99151754  0.32788615  1
  Cr  Cr21  1  0.65939737  0.32605278  -0.00705392  1
  Fe  Fe22  1  0.82576956  0.49241956  0.15911051  1
  Cr  Cr23  1  0.65939074  0.32612462  0.32589159  1
  Cr  Cr24  1  0.65910919  0.65891805  -0.00572854  1
  Cr  Cr25  1  0.82676137  0.82396565  0.15855582  1
  Cr  Cr26  1  0.65911112  0.65965621  0.32615944  1
  Cr  Cr27  1  0.15883128  0.15785405  0.49033060  1
  Cr  Cr28  1  0.99072663  -0.00624197  0.65921362  1
  Fe  Fe29  1  0.15842683  0.15968821  0.82573859  1
  Cr  Cr30  1  0.15964493  0.49338854  0.49404027  1
  Cr  Cr31  1  -0.00657688  0.32412644  0.66078136  1
  Fe  Fe32  1  0.16008197  0.49215256  0.82543228  1
  Cr  Cr33  1  0.15936418  0.82605635  0.49135500  1
  Cr  Cr34  1  -0.00631048  0.65941120  0.65917516  1
  Cr  Cr35  1  0.15937223  0.82485700  0.82563499  1
  Cr  Cr36  1  0.49307094  0.15886511  0.49064849  1
  Cr  Cr37  1  0.32576258  0.99150925  0.65921030  1
  Cr  Cr38  1  0.49279347  0.15995621  0.82734298  1
  Fe  Fe39  1  0.49203260  0.49335764  0.49271787  1
  Cr  Cr40  1  0.32505858  0.32837825  0.66077571  1
  Fe  Fe41  1  0.49150947  0.49282824  0.82546959  1
  Fe  Fe42  1  0.49238179  0.82510773  0.49243987  1
  Fe  Fe43  1  0.32639630  0.65846934  0.65909204  1
  Cr  Cr44  1  0.49179625  0.82528832  0.82566696  1
  Fe  Fe45  1  0.82616809  0.15815957  0.49208345  1
  Cr  Cr46  1  0.66081080  0.99177591  0.65830199  1
  Fe  Fe47  1  0.82639136  0.15903315  0.82578458  1
  Cr  Cr48  1  0.82484651  0.49239163  0.49127873  1
  Cr  Cr49  1  0.65881863  0.32540677  0.65845968  1
  Cr  Cr50  1  0.82611720  0.49150052  0.82731083  1
  Fe  Fe51  1  0.82551341  0.82675254  0.49212516  1
  Cr  Cr52  1  0.65656065  0.66011582  0.65686217  1
  Cr  Cr53  1  0.82612801  0.82611566  0.82594373  1
" 