902,Fe79Cr21_17,-208.155451965993, 202.692144292223,Fe79Cr21,"# generated using pymatgen
 data_Cr7Fe2
_symmetry_space_group_name_H-M   'P 1'
_cell_length_a   7.57757467
_cell_length_b   7.57757467
_cell_length_c   10.71630886
_cell_angle_alpha   90.00000000
_cell_angle_beta   90.00000000
_cell_angle_gamma   90.00000000
_symmetry_Int_Tables_number   1
_chemical_formula_structural   Cr7Fe2
_chemical_formula_sum   'Cr42 Fe12'
_cell_volume   615.32657396
_cell_formula_units_Z   6
loop_
 _symmetry_equiv_pos_site_id
 _symmetry_equiv_pos_as_xyz
  1  'x, y, z'
loop_
 _atom_site_type_symbol
 _atom_site_label
 _atom_site_symmetry_multiplicity
 _atom_site_fract_x
 _atom_site_fract_y
 _atom_site_fract_z
 _atom_site_occupancy
  Cr  Cr0  1  -0.00453728  0.99231654  0.99219423  1
  Cr  Cr1  1  0.15778921  0.16237023  0.15918558  1
  Cr  Cr2  1  -0.00592610  0.99180755  0.32543646  1
  Fe  Fe3  1  -0.00661417  0.32665667  0.99069182  1
  Cr  Cr4  1  0.16036904  0.49287117  0.15911193  1
  Cr  Cr5  1  0.99105770  0.32690345  0.32634694  1
  Cr  Cr6  1  -0.00718831  0.65868930  0.99098973  1
  Cr  Cr7  1  0.16040906  0.82278376  0.15912718  1
  Cr  Cr8  1  0.99019501  0.65938617  0.32813936  1
  Cr  Cr9  1  0.32464232  0.99254916  -0.00625509  1
  Cr  Cr10  1  0.49331798  0.16025604  0.16040350  1
  Cr  Cr11  1  0.32544726  -0.00666280  0.32489707  1
  Cr  Cr12  1  0.32536020  0.32521437  0.98968174  1
  Cr  Cr13  1  0.48988252  0.49464200  0.15824873  1
  Cr  Cr14  1  0.32681764  0.32370654  0.32765044  1
  Fe  Fe15  1  0.32577608  0.65933816  0.99089743  1
  Fe  Fe16  1  0.49205566  0.82463024  0.15859005  1
  Cr  Cr17  1  0.32629342  0.66114961  0.32523756  1
  Cr  Cr18  1  0.65816164  0.99235975  -0.00500920  1
  Cr  Cr19  1  0.82699532  0.15989711  0.15730106  1
  Cr  Cr20  1  0.65854918  0.99235889  0.32408284  1
  Cr  Cr21  1  0.65983633  0.32788679  0.99195291  1
  Cr  Cr22  1  0.82795220  0.49178753  0.15904480  1
  Cr  Cr23  1  0.66014891  0.32747664  0.32694761  1
  Cr  Cr24  1  0.66009303  0.65789321  0.99230396  1
  Cr  Cr25  1  0.82548019  0.82634252  0.15934041  1
  Cr  Cr26  1  0.66160021  0.65818356  0.32664195  1
  Cr  Cr27  1  0.15718424  0.16060096  0.49374229  1
  Fe  Fe28  1  -0.00669445  -0.00609793  0.66069603  1
  Fe  Fe29  1  0.15801236  0.15965310  0.82545780  1
  Cr  Cr30  1  0.15926146  0.49257898  0.49090745  1
  Fe  Fe31  1  -0.00667245  0.32708766  0.66057530  1
  Fe  Fe32  1  0.15827808  0.49207459  0.82626312  1
  Cr  Cr33  1  0.15867729  0.82512421  0.49366557  1
  Cr  Cr34  1  0.99172994  0.65857677  0.65864445  1
  Fe  Fe35  1  0.15887263  0.82630666  0.82602717  1
  Cr  Cr36  1  0.49442291  0.15868108  0.49372114  1
  Cr  Cr37  1  0.32282450  -0.00626585  0.65974605  1
  Cr  Cr38  1  0.49466394  0.15921518  0.82417318  1
  Cr  Cr39  1  0.49080124  0.49341721  0.49291807  1
  Cr  Cr40  1  0.32536573  0.32518465  0.66009132  1
  Fe  Fe41  1  0.49250383  0.49291292  0.82628568  1
  Cr  Cr42  1  0.49367924  0.82596648  0.49332888  1
  Cr  Cr43  1  0.32461439  0.65902791  0.66250303  1
  Cr  Cr44  1  0.49266852  0.82422482  0.82681082  1
  Cr  Cr45  1  0.82643178  0.15823342  0.49510212  1
  Fe  Fe46  1  0.65933718  0.99246135  0.65996108  1
  Cr  Cr47  1  0.82818642  0.15953155  0.82582640  1
  Fe  Fe48  1  0.82669585  0.49165415  0.49351960  1
  Cr  Cr49  1  0.66057732  0.32845495  0.65904701  1
  Fe  Fe50  1  0.82732776  0.49189963  0.82600672  1
  Cr  Cr51  1  0.82564940  0.82824693  0.49494928  1
  Cr  Cr52  1  0.66164236  0.65642248  0.65907197  1
  Cr  Cr53  1  0.82617031  0.82820801  0.82395350  1
" 