4063,Fe79Cr21_9,-208.203399997578, 206.959210809438,Fe79Cr21,"# generated using pymatgen
 data_Cr7Fe2
_symmetry_space_group_name_H-M   'P 1'
_cell_length_a   7.57483775
_cell_length_b   7.57483775
_cell_length_c   10.71243828
_cell_angle_alpha   90.00000000
_cell_angle_beta   90.00000000
_cell_angle_gamma   90.00000000
_symmetry_Int_Tables_number   1
_chemical_formula_structural   Cr7Fe2
_chemical_formula_sum   'Cr42 Fe12'
_cell_volume   614.66007189
_cell_formula_units_Z   6
loop_
 _symmetry_equiv_pos_site_id
 _symmetry_equiv_pos_as_xyz
  1  'x, y, z'
loop_
 _atom_site_type_symbol
 _atom_site_label
 _atom_site_symmetry_multiplicity
 _atom_site_fract_x
 _atom_site_fract_y
 _atom_site_fract_z
 _atom_site_occupancy
  Cr  Cr0  1  0.99146488  0.99262602  0.99182997  1
  Cr  Cr1  1  0.15914797  0.15730005  0.15894462  1
  Cr  Cr2  1  0.99164670  0.99138753  0.32751158  1
  Fe  Fe3  1  -0.00583097  0.32763501  -0.00649699  1
  Fe  Fe4  1  0.15810964  0.49322287  0.15989936  1
  Cr  Cr5  1  -0.00547248  0.32707211  0.32607247  1
  Cr  Cr6  1  -0.00601617  0.65782705  -0.00705502  1
  Fe  Fe7  1  0.15887704  0.82459327  0.16003757  1
  Fe  Fe8  1  -0.00631777  0.66017908  0.32520317  1
  Cr  Cr9  1  0.32751303  0.99279767  -0.00309771  1
  Fe  Fe10  1  0.49388313  0.16026297  0.16032777  1
  Cr  Cr11  1  0.32763292  0.99246189  0.32406968  1
  Cr  Cr12  1  0.32421270  0.32837936  -0.00691323  1
  Fe  Fe13  1  0.49344773  0.49251665  0.16007923  1
  Cr  Cr14  1  0.32701739  0.32729153  0.32521878  1
  Cr  Cr15  1  0.32585474  0.65720491  -0.00410439  1
  Fe  Fe16  1  0.49342493  0.82588093  0.15955683  1
  Cr  Cr17  1  0.32610624  0.65861009  0.32261938  1
  Cr  Cr18  1  0.65990758  0.99161929  0.99264521  1
  Cr  Cr19  1  0.82561834  0.16144302  0.15939812  1
  Cr  Cr20  1  0.65948812  0.99231933  0.32634914  1
  Cr  Cr21  1  0.65785164  0.32637023  -0.00419415  1
  Cr  Cr22  1  0.82513016  0.49286309  0.16179214  1
  Fe  Fe23  1  0.65755040  0.32594928  0.32479145  1
  Cr  Cr24  1  0.65908068  0.66083514  0.99151176  1
  Cr  Cr25  1  0.82796942  0.82444326  0.15924787  1
  Cr  Cr26  1  0.65900190  0.66079473  0.32710753  1
  Cr  Cr27  1  0.15998729  0.15778726  0.49449643  1
  Cr  Cr28  1  0.98951259  0.99171846  0.65889231  1
  Cr  Cr29  1  0.15953794  0.15841091  0.82579482  1
  Cr  Cr30  1  0.15876039  0.49518320  0.49301741  1
  Cr  Cr31  1  -0.00584008  0.32706184  0.66173361  1
  Fe  Fe32  1  0.15927957  0.49306370  0.82721577  1
  Cr  Cr33  1  0.16050545  0.82566670  0.49026540  1
  Cr  Cr34  1  0.99121719  0.66013357  0.65930507  1
  Cr  Cr35  1  0.16070441  0.82631652  0.82722924  1
  Cr  Cr36  1  0.49292091  0.15954456  0.49243863  1
  Cr  Cr37  1  0.32721615  0.99268328  0.65733105  1
  Cr  Cr38  1  0.49238991  0.15900952  0.82617742  1
  Cr  Cr39  1  0.49461610  0.49404825  0.49322678  1
  Cr  Cr40  1  0.32452665  0.32787367  0.66034787  1
  Cr  Cr41  1  0.49381135  0.49379781  0.82512269  1
  Fe  Fe42  1  0.49319541  0.82569183  0.49246795  1
  Cr  Cr43  1  0.32610446  0.65798793  0.65983666  1
  Cr  Cr44  1  0.49123958  0.82582265  0.82594018  1
  Cr  Cr45  1  0.82566169  0.16143664  0.49097095  1
  Cr  Cr46  1  0.66201276  0.99035830  0.65931458  1
  Cr  Cr47  1  0.82666674  0.16104310  0.82889798  1
  Cr  Cr48  1  0.82526723  0.49410543  0.48947277  1
  Cr  Cr49  1  0.66007444  0.32596943  0.65800225  1
  Cr  Cr50  1  0.82624353  0.49299765  0.82780132  1
  Fe  Fe51  1  0.82588164  0.82541725  0.49195364  1
  Cr  Cr52  1  0.66136069  0.66258791  0.65960198  1
  Fe  Fe53  1  0.82663543  0.82618555  0.82658237  1
" 