1620,Fe79Cr21_4,-208.373445491262, 210.150734027781,Fe79Cr21,"# generated using pymatgen
 data_Cr7Fe2
_symmetry_space_group_name_H-M   'P 1'
_cell_length_a   7.57341299
_cell_length_b   7.57341299
_cell_length_c   10.71042336
_cell_angle_alpha   90.00000000
_cell_angle_beta   90.00000000
_cell_angle_gamma   90.00000000
_symmetry_Int_Tables_number   1
_chemical_formula_structural   Cr7Fe2
_chemical_formula_sum   'Cr42 Fe12'
_cell_volume   614.31330003
_cell_formula_units_Z   6
loop_
 _symmetry_equiv_pos_site_id
 _symmetry_equiv_pos_as_xyz
  1  'x, y, z'
loop_
 _atom_site_type_symbol
 _atom_site_label
 _atom_site_symmetry_multiplicity
 _atom_site_fract_x
 _atom_site_fract_y
 _atom_site_fract_z
 _atom_site_occupancy
  Cr  Cr0  1  0.99056108  0.99070238  -0.00458250  1
  Cr  Cr1  1  0.15986817  0.15915566  0.16065862  1
  Cr  Cr2  1  -0.00623984  -0.00693791  0.32686816  1
  Fe  Fe3  1  0.99122483  0.32486905  0.99280182  1
  Cr  Cr4  1  0.15714592  0.49295437  0.15364314  1
  Cr  Cr5  1  -0.00487405  0.32561266  0.32716475  1
  Fe  Fe6  1  0.99135613  0.66092547  -0.00696668  1
  Cr  Cr7  1  0.16230593  0.82588980  0.15991777  1
  Cr  Cr8  1  0.99188132  0.66127425  0.32446082  1
  Cr  Cr9  1  0.32604634  -0.00528790  0.99215356  1
  Cr  Cr10  1  0.49402725  0.15771906  0.15891560  1
  Fe  Fe11  1  0.32646556  -0.00644573  0.32695192  1
  Cr  Cr12  1  0.32586835  0.32711924  0.99141788  1
  Cr  Cr13  1  0.49502086  0.49313320  0.16301391  1
  Cr  Cr14  1  0.32692753  0.32675863  0.32799757  1
  Cr  Cr15  1  0.32704670  0.65815675  -0.00694028  1
  Cr  Cr16  1  0.49286423  0.82726612  0.16230032  1
  Cr  Cr17  1  0.32642568  0.65581753  0.32746374  1
  Cr  Cr18  1  0.66229776  0.99246897  0.98842553  1
  Cr  Cr19  1  0.82554747  0.16239996  0.15991253  1
  Cr  Cr20  1  0.66401267  0.99162449  0.32452889  1
  Cr  Cr21  1  0.65715450  0.32661024  0.99231416  1
  Cr  Cr22  1  0.82675351  0.49191648  0.15980717  1
  Fe  Fe23  1  0.65981337  0.32670058  0.32732301  1
  Cr  Cr24  1  0.66177986  0.66155343  -0.00575914  1
  Fe  Fe25  1  0.82634083  0.82573114  0.15963020  1
  Fe  Fe26  1  0.66047217  0.65839924  0.32710968  1
  Fe  Fe27  1  0.16017723  0.16027358  0.49305678  1
  Cr  Cr28  1  0.99189039  0.99251012  0.65706641  1
  Cr  Cr29  1  0.15725292  0.15968314  0.82578685  1
  Cr  Cr30  1  0.15616835  0.49357073  0.49697048  1
  Fe  Fe31  1  0.99235807  0.32606805  0.65936412  1
  Cr  Cr32  1  0.15549125  0.49378107  0.82820991  1
  Cr  Cr33  1  0.16202042  0.82710327  0.49310492  1
  Fe  Fe34  1  0.99235346  0.65980993  0.66019141  1
  Cr  Cr35  1  0.15994538  0.82469590  0.82543932  1
  Cr  Cr36  1  0.49437676  0.15711647  0.49214143  1
  Cr  Cr37  1  0.32552244  -0.00475625  0.65900678  1
  Fe  Fe38  1  0.49133563  0.16139643  0.82599449  1
  Fe  Fe39  1  0.49359729  0.49227063  0.49196369  1
  Cr  Cr40  1  0.32501497  0.32753039  0.65970103  1
  Cr  Cr41  1  0.49363567  0.49476407  0.82570789  1
  Cr  Cr42  1  0.49248653  0.82636651  0.49102583  1
  Cr  Cr43  1  0.32677283  0.65723721  0.65878641  1
  Cr  Cr44  1  0.49194452  0.82844604  0.82562529  1
  Cr  Cr45  1  0.82655006  0.16205110  0.49342657  1
  Cr  Cr46  1  0.66192049  0.99261284  0.66564569  1
  Cr  Cr47  1  0.82593412  0.16222928  0.82565904  1
  Cr  Cr48  1  0.82549451  0.49138179  0.49331148  1
  Cr  Cr49  1  0.65665495  0.32676799  0.65907571  1
  Cr  Cr50  1  0.82843622  0.49251390  0.82558862  1
  Cr  Cr51  1  0.82579101  0.82501832  0.49410028  1
  Cr  Cr52  1  0.66033738  0.66008485  0.65846684  1
  Fe  Fe53  1  0.82923945  0.82418188  0.82584705  1
" 