429,Fe79Cr21_5,-208.387180786405, 207.634071190502,Fe79Cr21,"# generated using pymatgen
 data_Cr7Fe2
_symmetry_space_group_name_H-M   'P 1'
_cell_length_a   7.57834400
_cell_length_b   7.57834400
_cell_length_c   10.71739687
_cell_angle_alpha   90.00000000
_cell_angle_beta   90.00000000
_cell_angle_gamma   90.00000000
_symmetry_Int_Tables_number   1
_chemical_formula_structural   Cr7Fe2
_chemical_formula_sum   'Cr42 Fe12'
_cell_volume   615.51401139
_cell_formula_units_Z   6
loop_
 _symmetry_equiv_pos_site_id
 _symmetry_equiv_pos_as_xyz
  1  'x, y, z'
loop_
 _atom_site_type_symbol
 _atom_site_label
 _atom_site_symmetry_multiplicity
 _atom_site_fract_x
 _atom_site_fract_y
 _atom_site_fract_z
 _atom_site_occupancy
  Cr  Cr0  1  0.99157963  -0.00412484  -0.00685266  1
  Fe  Fe1  1  0.15793713  0.15905718  0.15950876  1
  Fe  Fe2  1  0.99253813  -0.00640499  0.32621027  1
  Cr  Cr3  1  0.98984629  0.32455968  -0.00604626  1
  Cr  Cr4  1  0.15897580  0.49215789  0.15926865  1
  Cr  Cr5  1  0.99113240  0.32355534  0.32408672  1
  Cr  Cr6  1  -0.00536553  0.65823768  0.99151995  1
  Cr  Cr7  1  0.15644308  0.82802189  0.16078938  1
  Cr  Cr8  1  -0.00536837  0.65827730  0.32853159  1
  Cr  Cr9  1  0.32724202  0.99056603  -0.00580454  1
  Cr  Cr10  1  0.49142232  0.15929113  0.16014124  1
  Cr  Cr11  1  0.32615522  0.99080743  0.32326035  1
  Cr  Cr12  1  0.32462853  0.32663344  -0.00700224  1
  Cr  Cr13  1  0.49452396  0.49053376  0.15850581  1
  Cr  Cr14  1  0.32476091  0.32648402  0.32546084  1
  Cr  Cr15  1  0.32876173  0.66066362  0.99256294  1
  Fe  Fe16  1  0.49384422  0.82515220  0.15895405  1
  Cr  Cr17  1  0.32632262  0.66041935  0.32604744  1
  Cr  Cr18  1  0.65832642  -0.00682454  0.99131350  1
  Fe  Fe19  1  0.82501999  0.15882245  0.15903565  1
  Cr  Cr20  1  0.66060039  -0.00575563  0.32682422  1
  Fe  Fe21  1  0.65823526  0.32511727  0.99202258  1
  Cr  Cr22  1  0.82462102  0.49478449  0.15766908  1
  Cr  Cr23  1  0.66190284  0.32435148  0.32676398  1
  Fe  Fe24  1  0.65803116  0.65993932  0.99233104  1
  Cr  Cr25  1  0.82565477  0.82571662  0.15932479  1
  Cr  Cr26  1  0.65744321  0.65991439  0.32533270  1
  Cr  Cr27  1  0.16156694  0.15779081  0.49265841  1
  Cr  Cr28  1  0.99156169  -0.00507737  0.65867430  1
  Cr  Cr29  1  0.16192008  0.15913513  0.82643712  1
  Cr  Cr30  1  0.15968124  0.49075933  0.49418367  1
  Cr  Cr31  1  0.99097579  0.32505777  0.66014488  1
  Cr  Cr32  1  0.15983480  0.49129622  0.82455326  1
  Fe  Fe33  1  0.16058040  0.82682592  0.49235176  1
  Cr  Cr34  1  -0.00607329  0.65879167  0.65793208  1
  Cr  Cr35  1  0.15712233  0.82701270  0.82470738  1
  Cr  Cr36  1  0.49131364  0.16014674  0.49397056  1
  Cr  Cr37  1  0.32708723  0.98969898  0.66044859  1
  Cr  Cr38  1  0.49201081  0.16120118  0.82383412  1
  Cr  Cr39  1  0.49254061  0.48971443  0.49323023  1
  Fe  Fe40  1  0.32628693  0.32597390  0.65993999  1
  Fe  Fe41  1  0.49274257  0.49283554  0.82657263  1
  Cr  Cr42  1  0.49453317  0.82776482  0.49155841  1
  Cr  Cr43  1  0.32671289  0.65919221  0.65920274  1
  Fe  Fe44  1  0.49272904  0.82524537  0.82646371  1
  Fe  Fe45  1  0.82711775  0.15963899  0.49224272  1
  Cr  Cr46  1  0.66023156  -0.00595894  0.65959319  1
  Fe  Fe47  1  0.82588941  0.15998327  0.82668373  1
  Cr  Cr48  1  0.82545262  0.49484112  0.49159765  1
  Cr  Cr49  1  0.66152283  0.32516299  0.65899635  1
  Cr  Cr50  1  0.82380597  0.49454470  0.82875337  1
  Cr  Cr51  1  0.82863358  0.82688842  0.49200254  1
  Cr  Cr52  1  0.65724532  0.65962414  0.66044027  1
  Cr  Cr53  1  0.82523398  0.82543103  0.82654154  1
" 