3113,Fe91Cr9_16,-203.387919911578, 212.860331670578,Fe91Cr9,"# generated using pymatgen
 data_Cr49Fe5
_symmetry_space_group_name_H-M   'P 1'
_cell_length_a   7.59256250
_cell_length_b   7.59256250
_cell_length_c   10.73750486
_cell_angle_alpha   90.00000000
_cell_angle_beta   90.00000000
_cell_angle_gamma   90.00000000
_symmetry_Int_Tables_number   1
_chemical_formula_structural   Cr49Fe5
_chemical_formula_sum   'Cr49 Fe5'
_cell_volume   618.98500009
_cell_formula_units_Z   1
loop_
 _symmetry_equiv_pos_site_id
 _symmetry_equiv_pos_as_xyz
  1  'x, y, z'
loop_
 _atom_site_type_symbol
 _atom_site_label
 _atom_site_symmetry_multiplicity
 _atom_site_fract_x
 _atom_site_fract_y
 _atom_site_fract_z
 _atom_site_occupancy
  Cr  Cr0  1  -0.00763747  0.99044259  -0.00683103  1
  Cr  Cr1  1  0.15872167  0.15748290  0.15807630  1
  Cr  Cr2  1  -0.00760702  0.99008108  0.32436692  1
  Cr  Cr3  1  0.99133593  0.32572730  0.99102278  1
  Cr  Cr4  1  0.15873090  0.49225205  0.15766717  1
  Cr  Cr5  1  0.99136634  0.32569661  0.32610361  1
  Cr  Cr6  1  -0.00763836  0.65903222  -0.00683191  1
  Fe  Fe7  1  0.15841914  0.82505252  0.15839932  1
  Cr  Cr8  1  0.99136852  0.65942364  0.32363653  1
  Cr  Cr9  1  0.32506206  0.99088881  -0.00785743  1
  Cr  Cr10  1  0.49104277  0.15849701  0.15839906  1
  Cr  Cr11  1  0.32441297  0.99153667  0.32436787  1
  Cr  Cr12  1  0.32580001  0.32499510  -0.00713157  1
  Cr  Cr13  1  0.49205886  0.49226728  0.15942986  1
  Cr  Cr14  1  0.32616165  0.32496503  0.32466762  1
  Cr  Cr15  1  0.32433227  0.65931900  0.99070434  1
  Cr  Cr16  1  0.49177081  0.82444102  0.15872296  1
  Cr  Cr17  1  0.32469769  0.65869944  0.32507398  1
  Cr  Cr18  1  0.65777856  -0.00808764  0.98964600  1
  Cr  Cr19  1  0.82543826  0.15777447  0.15766717  1
  Cr  Cr20  1  0.65839868  0.99154626  0.32613132  1
  Cr  Cr21  1  0.65806750  0.32499493  -0.00818641  1
  Cr  Cr22  1  0.82441174  0.49298270  0.15869955  1
  Cr  Cr23  1  0.65767573  0.32598942  0.32499032  1
  Cr  Cr24  1  0.65851085  0.65829504  0.99108257  1
  Cr  Cr25  1  0.82542681  0.82444814  0.15942928  1
  Fe  Fe26  1  0.65839497  0.65841067  0.32507483  1
  Cr  Cr27  1  0.15770398  0.15910181  0.49268540  1
  Cr  Cr28  1  0.99170611  -0.00791157  0.65766707  1
  Cr  Cr29  1  0.15767504  0.15913055  0.82444296  1
  Cr  Cr30  1  0.15872354  0.49125628  0.49412234  1
  Fe  Fe31  1  0.99170258  0.32505331  0.65840002  1
  Cr  Cr32  1  0.15869766  0.49162241  0.82341215  1
  Cr  Cr33  1  0.15901876  0.82484485  0.49165151  1
  Cr  Cr34  1  -0.00727926  0.65741205  0.65839916  1
  Cr  Cr35  1  0.16000641  0.82444940  0.82514886  1
  Cr  Cr36  1  0.49140417  0.15807506  0.49059821  1
  Cr  Cr37  1  0.32571980  0.99049676  0.65869627  1
  Cr  Cr38  1  0.49179638  0.15709210  0.82620553  1
  Cr  Cr39  1  0.49141195  0.49330810  0.49059058  1
  Cr  Cr40  1  0.32441600  0.32597707  0.65766717  1
  Cr  Cr41  1  0.49078293  0.49367345  0.82517734  1
  Cr  Cr42  1  0.49214154  0.82382138  0.49243853  1
  Fe  Fe43  1  0.32541604  0.65874430  0.65871296  1
  Fe  Fe44  1  0.49140659  0.82474498  0.82475273  1
  Cr  Cr45  1  0.82609433  0.15836974  0.49277194  1
  Cr  Cr46  1  0.65777609  0.99151822  0.65942875  1
  Cr  Cr47  1  0.82573118  0.15839869  0.82476568  1
  Cr  Cr48  1  0.82506744  0.49199563  0.49132997  1
  Cr  Cr49  1  0.65909065  0.32496455  0.65839905  1
  Cr  Cr50  1  0.82572352  0.49133913  0.82517355  1
  Cr  Cr51  1  0.82404127  0.82483817  0.49029805  1
  Cr  Cr52  1  0.65749680  0.65872048  0.65872471  1
  Cr  Cr53  1  0.82368169  0.82546388  0.82547348  1
" 