7971,Fe91Cr9_18,-203.271761991908, 211.444834987752,Fe91Cr9,"# generated using pymatgen
 data_Cr49Fe5
_symmetry_space_group_name_H-M   'P 1'
_cell_length_a   7.59265154
_cell_length_b   7.59265154
_cell_length_c   10.73763078
_cell_angle_alpha   90.00000000
_cell_angle_beta   90.00000000
_cell_angle_gamma   90.00000000
_symmetry_Int_Tables_number   1
_chemical_formula_structural   Cr49Fe5
_chemical_formula_sum   'Cr49 Fe5'
_cell_volume   619.00677625
_cell_formula_units_Z   1
loop_
 _symmetry_equiv_pos_site_id
 _symmetry_equiv_pos_as_xyz
  1  'x, y, z'
loop_
 _atom_site_type_symbol
 _atom_site_label
 _atom_site_symmetry_multiplicity
 _atom_site_fract_x
 _atom_site_fract_y
 _atom_site_fract_z
 _atom_site_occupancy
  Cr  Cr0  1  -0.00703410  0.99168747  0.99153256  1
  Cr  Cr1  1  0.15839320  0.15881363  0.15669503  1
  Cr  Cr2  1  0.99092937  0.99068040  0.32567478  1
  Fe  Fe3  1  -0.00795750  0.32540443  -0.00793041  1
  Fe  Fe4  1  0.15808028  0.49202770  0.15806232  1
  Cr  Cr5  1  -0.00800942  0.32505267  0.32418666  1
  Cr  Cr6  1  -0.00702850  0.65845110  -0.00665550  1
  Fe  Fe7  1  0.15870942  0.82477586  0.15806693  1
  Cr  Cr8  1  -0.00696456  0.65945628  0.32386149  1
  Fe  Fe9  1  0.32475338  0.99138090  -0.00792612  1
  Cr  Cr10  1  0.49111893  0.15670045  0.15881850  1
  Cr  Cr11  1  0.32509418  0.99143265  0.32418985  1
  Cr  Cr12  1  0.32458289  0.32476540  -0.00771123  1
  Cr  Cr13  1  0.49083808  0.49244654  0.15881221  1
  Cr  Cr14  1  0.32555817  0.32580455  0.32567128  1
  Cr  Cr15  1  0.32381851  0.65902334  -0.00665564  1
  Cr  Cr16  1  0.49083596  0.82603530  0.15839304  1
  Cr  Cr17  1  0.32375561  0.65794908  0.32386151  1
  Cr  Cr18  1  0.65811372  -0.00755232  0.99162974  1
  Cr  Cr19  1  0.82567360  0.15880130  0.15881649  1
  Fe  Fe20  1  0.65839050  0.99172017  0.32503212  1
  Cr  Cr21  1  0.65868166  0.32475693  0.99090254  1
  Cr  Cr22  1  0.82701580  0.49139389  0.15732957  1
  Cr  Cr23  1  0.65764013  0.32370047  0.32554757  1
  Cr  Cr24  1  0.65839508  0.65798118  0.99047984  1
  Cr  Cr25  1  0.82489223  0.82498931  0.15987466  1
  Cr  Cr26  1  0.65839530  0.65899591  0.32521506  1
  Cr  Cr27  1  0.15839541  0.15880563  0.49297524  1
  Cr  Cr28  1  0.99172308  0.99131149  0.65798042  1
  Cr  Cr29  1  0.15839727  0.15840139  0.82551720  1
  Cr  Cr30  1  0.15838404  0.49131140  0.49182687  1
  Cr  Cr31  1  0.99172294  0.32438280  0.65870665  1
  Cr  Cr32  1  0.15734306  0.49067250  0.82518218  1
  Cr  Cr33  1  0.15840667  0.82506856  0.49224931  1
  Cr  Cr34  1  -0.00826599  0.65949135  0.65798040  1
  Cr  Cr35  1  0.15945041  0.82611258  0.82518512  1
  Cr  Cr36  1  0.49169349  0.15773482  0.49039834  1
  Cr  Cr37  1  0.32431226  -0.00793318  0.65946157  1
  Cr  Cr38  1  0.49040646  0.15733848  0.82596938  1
  Cr  Cr39  1  0.49140020  0.49207786  0.49221986  1
  Cr  Cr40  1  0.32582280  0.32513794  0.65722480  1
  Cr  Cr41  1  0.49220436  0.49247945  0.82415380  1
  Cr  Cr42  1  0.49244680  0.82537107  0.49115666  1
  Cr  Cr43  1  0.32505650  0.65798093  0.65798022  1
  Cr  Cr44  1  0.49116255  0.82536666  0.82563560  1
  Cr  Cr45  1  0.82509516  0.15775521  0.49039616  1
  Cr  Cr46  1  0.65915038  -0.00792240  0.65800937  1
  Cr  Cr47  1  0.82638367  0.15944641  0.82596937  1
  Cr  Cr48  1  0.82540124  0.49206646  0.49222031  1
  Cr  Cr49  1  0.65764003  0.32512738  0.65873602  1
  Cr  Cr50  1  0.82563809  0.49142758  0.82563479  1
  Cr  Cr51  1  0.82433088  0.82536200  0.49115416  1
  Cr  Cr52  1  0.65839525  0.65798097  0.65949129  1
  Cr  Cr53  1  0.82457473  0.82431373  0.82415370  1
" 