5176,Fe91Cr9_8,-203.330110221932, 211.701056577141,Fe91Cr9,"# generated using pymatgen
 data_Cr49Fe5
_symmetry_space_group_name_H-M   'P 1'
_cell_length_a   7.59304190
_cell_length_b   7.59304190
_cell_length_c   10.73818283
_cell_angle_alpha   90.00000000
_cell_angle_beta   90.00000000
_cell_angle_gamma   90.00000000
_symmetry_Int_Tables_number   1
_chemical_formula_structural   Cr49Fe5
_chemical_formula_sum   'Cr49 Fe5'
_cell_volume   619.10225605
_cell_formula_units_Z   1
loop_
 _symmetry_equiv_pos_site_id
 _symmetry_equiv_pos_as_xyz
  1  'x, y, z'
loop_
 _atom_site_type_symbol
 _atom_site_label
 _atom_site_symmetry_multiplicity
 _atom_site_fract_x
 _atom_site_fract_y
 _atom_site_fract_z
 _atom_site_occupancy
  Cr  Cr0  1  -0.00796757  -0.00737455  -0.00736681  1
  Fe  Fe1  1  0.15802145  0.15804638  0.15869023  1
  Fe  Fe2  1  -0.00799402  -0.00796909  0.32471324  1
  Cr  Cr3  1  -0.00825751  0.32442243  0.99151582  1
  Cr  Cr4  1  0.15975414  0.49152571  0.15796713  1
  Cr  Cr5  1  -0.00789508  0.32405588  0.32584614  1
  Cr  Cr6  1  0.99100185  0.65806367  0.99049003  1
  Cr  Cr7  1  0.15771249  0.82561148  0.15932258  1
  Cr  Cr8  1  0.99034652  0.65838657  0.32614290  1
  Cr  Cr9  1  0.32471993  -0.00737625  0.99151558  1
  Cr  Cr10  1  0.49208372  0.16030824  0.15767152  1
  Cr  Cr11  1  0.32375928  -0.00734009  0.32448999  1
  Cr  Cr12  1  0.32529161  0.32470541  -0.00671772  1
  Fe  Fe13  1  0.49205318  0.49140189  0.15806412  1
  Cr  Cr14  1  0.32433127  0.32433509  0.32378515  1
  Cr  Cr15  1  0.32603123  0.65778172  -0.00774465  1
  Cr  Cr16  1  0.49133488  0.82402963  0.15870061  1
  Cr  Cr17  1  0.32608951  0.65811539  0.32408296  1
  Cr  Cr18  1  0.65835861  -0.00811827  0.99049010  1
  Cr  Cr19  1  0.82531823  0.15826472  0.15796987  1
  Cr  Cr20  1  0.65894757  0.99090115  0.32584454  1
  Fe  Fe21  1  0.65805620  0.32534136  -0.00796150  1
  Cr  Cr22  1  0.82373321  0.49077777  0.15764295  1
  Cr  Cr23  1  0.65867438  0.32638524  0.32514309  1
  Cr  Cr24  1  0.65807833  0.65749058  -0.00733541  1
  Cr  Cr25  1  0.82606165  0.82606525  0.15899815  1
  Cr  Cr26  1  0.65867581  0.65782658  0.32543999  1
  Cr  Cr27  1  0.15777702  0.15837032  0.49044663  1
  Cr  Cr28  1  -0.00822557  -0.00796353  0.65880235  1
  Cr  Cr29  1  0.15836738  0.15863010  0.82493492  1
  Cr  Cr30  1  0.15777644  0.49211381  0.49291454  1
  Cr  Cr31  1  0.99147790  0.32606052  0.65773911  1
  Cr  Cr32  1  0.15837742  0.49250526  0.82422870  1
  Cr  Cr33  1  0.15777879  0.82462392  0.49115422  1
  Cr  Cr34  1  0.99073498  0.65701367  0.65847382  1
  Cr  Cr35  1  0.15836738  0.82397463  0.82463895  1
  Cr  Cr36  1  0.49240934  0.15866921  0.49291458  1
  Cr  Cr37  1  0.32576028  -0.00796328  0.65909846  1
  Cr  Cr38  1  0.49306040  0.15892873  0.82452290  1
  Cr  Cr39  1  0.49196128  0.49136970  0.49106399  1
  Cr  Cr40  1  0.32430298  0.32430630  0.65804112  1
  Cr  Cr41  1  0.49159446  0.49074738  0.82669785  1
  Cr  Cr42  1  0.49166586  0.82507060  0.49218049  1
  Cr  Cr43  1  0.32504684  0.65876664  0.65877510  1
  Cr  Cr44  1  0.49130427  0.82543212  0.82422823  1
  Cr  Cr45  1  0.82492177  0.15867075  0.49115410  1
  Cr  Cr46  1  0.65757528  0.99129285  0.65877478  1
  Cr  Cr47  1  0.82368111  0.15891962  0.82599183  1
  Fe  Fe48  1  0.82504354  0.49169525  0.49167944  1
  Cr  Cr49  1  0.65932855  0.32534584  0.65771226  1
  Cr  Cr50  1  0.82513868  0.49074786  0.82528563  1
  Cr  Cr51  1  0.82566499  0.82507234  0.49042106  1
  Cr  Cr52  1  0.65932772  0.65847176  0.65700674  1
  Cr  Cr53  1  0.82543854  0.82544228  0.82569615  1
" 