4654,Fe91Cr9_14,-203.441947661974, 212.229138238827,Fe91Cr9,"# generated using pymatgen
 data_Cr49Fe5
_symmetry_space_group_name_H-M   'P 1'
_cell_length_a   7.59220351
_cell_length_b   7.59220351
_cell_length_c   10.73699717
_cell_angle_alpha   90.00000000
_cell_angle_beta   90.00000000
_cell_angle_gamma   90.00000000
_symmetry_Int_Tables_number   1
_chemical_formula_structural   Cr49Fe5
_chemical_formula_sum   'Cr49 Fe5'
_cell_volume   618.89720408
_cell_formula_units_Z   1
loop_
 _symmetry_equiv_pos_site_id
 _symmetry_equiv_pos_as_xyz
  1  'x, y, z'
loop_
 _atom_site_type_symbol
 _atom_site_label
 _atom_site_symmetry_multiplicity
 _atom_site_fract_x
 _atom_site_fract_y
 _atom_site_fract_z
 _atom_site_occupancy
  Cr  Cr0  1  0.99152780  0.99156492  -0.00823535  1
  Cr  Cr1  1  0.15959412  0.15844481  0.15891300  1
  Cr  Cr2  1  -0.00787608  -0.00786764  0.32457576  1
  Cr  Cr3  1  -0.00698785  0.32558559  0.99143529  1
  Cr  Cr4  1  0.15962941  0.49033795  0.15703126  1
  Cr  Cr5  1  0.99134584  0.32444491  0.32455556  1
  Cr  Cr6  1  -0.00686536  0.65823249  0.99154347  1
  Cr  Cr7  1  0.15958095  0.82648297  0.16116076  1
  Cr  Cr8  1  -0.00779589  0.65869133  0.32423400  1
  Cr  Cr9  1  0.32548094  0.99173253  -0.00726728  1
  Cr  Cr10  1  0.49054732  0.15825960  0.15754051  1
  Fe  Fe11  1  0.32652134  -0.00735607  0.32533880  1
  Fe  Fe12  1  0.32449828  0.32536231  0.99134164  1
  Cr  Cr13  1  0.49118602  0.49121017  0.15768929  1
  Cr  Cr14  1  0.32658854  0.32350544  0.32495965  1
  Cr  Cr15  1  0.32400942  0.65741366  0.99041451  1
  Cr  Cr16  1  0.49150179  0.82574725  0.15780177  1
  Cr  Cr17  1  0.32538330  0.65926880  0.32457007  1
  Fe  Fe18  1  0.65808659  -0.00823752  0.99168691  1
  Cr  Cr19  1  0.82506599  0.15814544  0.15658405  1
  Cr  Cr20  1  0.65685084  -0.00677467  0.32487241  1
  Cr  Cr21  1  0.65768597  0.32393895  -0.00722793  1
  Cr  Cr22  1  0.82447455  0.49137902  0.16067506  1
  Cr  Cr23  1  0.65740487  0.32353397  0.32689855  1
  Cr  Cr24  1  0.65801683  0.65891495  -0.00721221  1
  Cr  Cr25  1  0.82429406  0.82567762  0.15696037  1
  Cr  Cr26  1  0.65768825  0.65849078  0.32456064  1
  Cr  Cr27  1  0.15992229  0.15773771  0.49023184  1
  Cr  Cr28  1  -0.00789709  -0.00788957  0.65895765  1
  Cr  Cr29  1  0.15927024  0.15993486  0.82600742  1
  Cr  Cr30  1  0.15860578  0.49131732  0.49273334  1
  Cr  Cr31  1  -0.00762450  0.32500677  0.65924109  1
  Fe  Fe32  1  0.15861070  0.49102042  0.82581426  1
  Cr  Cr33  1  0.15932890  0.82622779  0.49021661  1
  Cr  Cr34  1  -0.00681256  0.65820204  0.65950122  1
  Cr  Cr35  1  0.15888076  0.82573811  0.82356699  1
  Fe  Fe36  1  0.49100499  0.15784907  0.49118523  1
  Cr  Cr37  1  0.32608875  -0.00750797  0.65560049  1
  Cr  Cr38  1  0.49132443  0.15868276  0.82642649  1
  Cr  Cr39  1  0.49159441  0.49165356  0.49175732  1
  Cr  Cr40  1  0.32562538  0.32480263  0.66000495  1
  Cr  Cr41  1  0.49064936  0.49093324  0.82607482  1
  Cr  Cr42  1  0.49071363  0.82573996  0.49126140  1
  Cr  Cr43  1  0.32456489  0.65813848  0.66028928  1
  Cr  Cr44  1  0.49251829  0.82553148  0.82594973  1
  Cr  Cr45  1  0.82583994  0.15863560  0.49278820  1
  Cr  Cr46  1  0.65720883  -0.00677990  0.65937905  1
  Cr  Cr47  1  0.82468020  0.15806730  0.82601539  1
  Cr  Cr48  1  0.82504989  0.49195149  0.49105325  1
  Cr  Cr49  1  0.65714825  0.32355494  0.65554623  1
  Cr  Cr50  1  0.82456708  0.49140613  0.82355815  1
  Cr  Cr51  1  0.82524460  0.82468327  0.49279644  1
  Cr  Cr52  1  0.65745069  0.65842962  0.65791364  1
  Cr  Cr53  1  0.82391460  0.82571394  0.82563957  1
" 