4525,Fe91Cr9_11,-203.491997162848, 212.415779626661,Fe91Cr9,"# generated using pymatgen
 data_Cr49Fe5
_symmetry_space_group_name_H-M   'P 1'
_cell_length_a   7.59352834
_cell_length_b   7.59352834
_cell_length_c   10.73887076
_cell_angle_alpha   90.00000000
_cell_angle_beta   90.00000000
_cell_angle_gamma   90.00000000
_symmetry_Int_Tables_number   1
_chemical_formula_structural   Cr49Fe5
_chemical_formula_sum   'Cr49 Fe5'
_cell_volume   619.22125001
_cell_formula_units_Z   1
loop_
 _symmetry_equiv_pos_site_id
 _symmetry_equiv_pos_as_xyz
  1  'x, y, z'
loop_
 _atom_site_type_symbol
 _atom_site_label
 _atom_site_symmetry_multiplicity
 _atom_site_fract_x
 _atom_site_fract_y
 _atom_site_fract_z
 _atom_site_occupancy
  Cr  Cr0  1  -0.00735199  -0.00752522  0.98956234  1
  Cr  Cr1  1  0.15946651  0.15746944  0.15820168  1
  Cr  Cr2  1  0.99153198  -0.00801334  0.32500514  1
  Cr  Cr3  1  -0.00686556  0.32331591  0.99090522  1
  Cr  Cr4  1  0.15721028  0.49279149  0.15914450  1
  Cr  Cr5  1  0.99155744  0.32460437  0.32500514  1
  Cr  Cr6  1  -0.00771687  0.65918039  -0.00714330  1
  Cr  Cr7  1  0.15834102  0.82476712  0.16018334  1
  Fe  Fe8  1  0.99124462  0.65842875  0.32500514  1
  Cr  Cr9  1  0.32323312  0.99166511  0.99153351  1
  Cr  Cr10  1  0.49132543  0.15776322  0.16014090  1
  Fe  Fe11  1  0.32482670  0.99166839  0.32500514  1
  Cr  Cr12  1  0.32355400  0.32495618  0.99089339  1
  Cr  Cr13  1  0.49158347  0.49057163  0.15712598  1
  Cr  Cr14  1  0.32511134  0.32523579  0.32500514  1
  Cr  Cr15  1  0.32521800  0.65836912  0.99091345  1
  Cr  Cr16  1  0.49020384  0.82672071  0.15813628  1
  Cr  Cr17  1  0.32575283  0.65811380  0.32500514  1
  Cr  Cr18  1  0.65917668  0.99081580  -0.00780430  1
  Cr  Cr19  1  0.82422551  0.15887815  0.15814109  1
  Cr  Cr20  1  0.65865728  0.99134518  0.32500514  1
  Cr  Cr21  1  0.65835076  0.32525739  -0.00656299  1
  Cr  Cr22  1  0.82616704  0.49169219  0.15911474  1
  Fe  Fe23  1  0.65834273  0.32550822  0.32500514  1
  Cr  Cr24  1  0.65751772  0.65892516  0.99150858  1
  Cr  Cr25  1  0.82644831  0.82446915  0.15815153  1
  Cr  Cr26  1  0.65803665  0.65813845  0.32500514  1
  Cr  Cr27  1  0.15946651  0.15746944  0.49180860  1
  Cr  Cr28  1  -0.00735199  -0.00752522  0.66044794  1
  Fe  Fe29  1  0.15895791  0.15747447  0.82500514  1
  Cr  Cr30  1  0.15721028  0.49279149  0.49086578  1
  Cr  Cr31  1  -0.00686556  0.32331591  0.65910506  1
  Cr  Cr32  1  0.15772621  0.49227559  0.82500514  1
  Cr  Cr33  1  0.15834102  0.82476712  0.48982695  1
  Cr  Cr34  1  -0.00771687  0.65918039  0.65715358  1
  Fe  Fe35  1  0.15835346  0.82530703  0.82500514  1
  Cr  Cr36  1  0.49132543  0.15776322  0.48986939  1
  Cr  Cr37  1  0.32323312  0.99166511  0.65847678  1
  Cr  Cr38  1  0.49123065  0.15798223  0.82500514  1
  Cr  Cr39  1  0.49158347  0.49057163  0.49288430  1
  Cr  Cr40  1  0.32355400  0.32495618  0.65911689  1
  Cr  Cr41  1  0.49157354  0.49106352  0.82500514  1
  Cr  Cr42  1  0.49020384  0.82672071  0.49187400  1
  Cr  Cr43  1  0.32521800  0.65836912  0.65909683  1
  Cr  Cr44  1  0.49064267  0.82596866  0.82500514  1
  Cr  Cr45  1  0.82422551  0.15887815  0.49186919  1
  Cr  Cr46  1  0.65917668  0.99081580  0.65781458  1
  Cr  Cr47  1  0.82481633  0.15860176  0.82500514  1
  Cr  Cr48  1  0.82616704  0.49169219  0.49089554  1
  Cr  Cr49  1  0.65835076  0.32525739  0.65657327  1
  Cr  Cr50  1  0.82571291  0.49167664  0.82500514  1
  Cr  Cr51  1  0.82644831  0.82446915  0.49185875  1
  Cr  Cr52  1  0.65751772  0.65892516  0.65850171  1
  Cr  Cr53  1  0.82602786  0.82473222  0.82500514  1
" 