7052,Fe91Cr9_2,-203.37468787454, 213.068248423307,Fe91Cr9,"# generated using pymatgen
 data_Cr49Fe5
_symmetry_space_group_name_H-M   'P 1'
_cell_length_a   7.59191897
_cell_length_b   7.59191897
_cell_length_c   10.73659477
_cell_angle_alpha   90.00000000
_cell_angle_beta   90.00000000
_cell_angle_gamma   90.00000000
_symmetry_Int_Tables_number   1
_chemical_formula_structural   Cr49Fe5
_chemical_formula_sum   'Cr49 Fe5'
_cell_volume   618.82762092
_cell_formula_units_Z   1
loop_
 _symmetry_equiv_pos_site_id
 _symmetry_equiv_pos_as_xyz
  1  'x, y, z'
loop_
 _atom_site_type_symbol
 _atom_site_label
 _atom_site_symmetry_multiplicity
 _atom_site_fract_x
 _atom_site_fract_y
 _atom_site_fract_z
 _atom_site_occupancy
  Cr  Cr0  1  0.99135084  0.99041036  0.99128632  1
  Cr  Cr1  1  0.15819411  0.15869566  0.15792106  1
  Cr  Cr2  1  -0.00695823  -0.00790020  0.32630446  1
  Cr  Cr3  1  -0.00764637  0.32503203  -0.00673189  1
  Cr  Cr4  1  0.15853440  0.49350151  0.15859405  1
  Cr  Cr5  1  -0.00715852  0.32361318  0.32529854  1
  Cr  Cr6  1  0.98985455  0.65986457  0.99101229  1
  Cr  Cr7  1  0.16025638  0.82304865  0.15932027  1
  Cr  Cr8  1  0.99065753  0.65964825  0.32410273  1
  Cr  Cr9  1  0.32466948  -0.00764356  -0.00773296  1
  Cr  Cr10  1  0.49375509  0.15671190  0.15663172  1
  Cr  Cr11  1  0.32366265  -0.00713265  0.32621244  1
  Cr  Cr12  1  0.32617967  0.32522270  0.99034323  1
  Cr  Cr13  1  0.49046442  0.49277803  0.15941498  1
  Cr  Cr14  1  0.32508894  0.32386924  0.32522545  1
  Cr  Cr15  1  0.32676257  0.65772420  -0.00802861  1
  Cr  Cr16  1  0.49078225  0.82575827  0.16009176  1
  Fe  Fe17  1  0.32498304  0.65793451  0.32520196  1
  Fe  Fe18  1  0.65858640  0.99063483  0.99121217  1
  Cr  Cr19  1  0.82337697  0.15836879  0.15727878  1
  Cr  Cr20  1  0.65871509  0.99110445  0.32418713  1
  Cr  Cr21  1  0.65686123  0.32717197  -0.00786896  1
  Cr  Cr22  1  0.82620529  0.49065577  0.15992494  1
  Cr  Cr23  1  0.65748625  0.32603937  0.32510382  1
  Cr  Cr24  1  0.65883119  0.65887467  0.98978962  1
  Cr  Cr25  1  0.82406024  0.82638143  0.15654554  1
  Cr  Cr26  1  0.65814411  0.65819170  0.32578239  1
  Fe  Fe27  1  0.15874424  0.15895350  0.49169237  1
  Cr  Cr28  1  -0.00717238  0.99142789  0.65739986  1
  Cr  Cr29  1  0.15792300  0.15869051  0.82420523  1
  Cr  Cr30  1  0.15831497  0.49301278  0.49116040  1
  Cr  Cr31  1  -0.00686336  0.32381114  0.65643442  1
  Cr  Cr32  1  0.15835290  0.49247663  0.82578414  1
  Cr  Cr33  1  0.16000217  0.82326534  0.49115224  1
  Cr  Cr34  1  0.98983336  0.66016199  0.66021656  1
  Cr  Cr35  1  0.15893971  0.82417413  0.82511096  1
  Cr  Cr36  1  0.49280507  0.15752290  0.49229439  1
  Cr  Cr37  1  0.32358284  -0.00670024  0.65650990  1
  Cr  Cr38  1  0.49361284  0.15737773  0.82626340  1
  Cr  Cr39  1  0.49067940  0.49281341  0.49197893  1
  Cr  Cr40  1  0.32572430  0.32433473  0.65966053  1
  Fe  Fe41  1  0.49180362  0.49166751  0.82520026  1
  Cr  Cr42  1  0.49042437  0.82492566  0.48999503  1
  Cr  Cr43  1  0.32698491  0.65774706  0.65942438  1
  Cr  Cr44  1  0.49211979  0.82642467  0.82536136  1
  Cr  Cr45  1  0.82460719  0.15918133  0.49162050  1
  Cr  Cr46  1  0.65905154  0.99000522  0.65925908  1
  Cr  Cr47  1  0.82370623  0.15777567  0.82635001  1
  Cr  Cr48  1  0.82622127  0.49093952  0.49129087  1
  Cr  Cr49  1  0.65662164  0.32717737  0.65832149  1
  Cr  Cr50  1  0.82604929  0.49057078  0.82410623  1
  Cr  Cr51  1  0.82477963  0.82519559  0.49321412  1
  Cr  Cr52  1  0.65857481  0.65810010  0.65994490  1
  Fe  Fe53  1  0.82478297  0.82631333  0.82553108  1
" 