3244,Fe91Cr9_12,-203.330025240083, 212.777661624427,Fe91Cr9,"# generated using pymatgen
 data_Cr49Fe5
_symmetry_space_group_name_H-M   'P 1'
_cell_length_a   7.59274201
_cell_length_b   7.59274201
_cell_length_c   10.73775873
_cell_angle_alpha   90.00000000
_cell_angle_beta   90.00000000
_cell_angle_gamma   90.00000000
_symmetry_Int_Tables_number   1
_chemical_formula_structural   Cr49Fe5
_chemical_formula_sum   'Cr49 Fe5'
_cell_volume   619.02890464
_cell_formula_units_Z   1
loop_
 _symmetry_equiv_pos_site_id
 _symmetry_equiv_pos_as_xyz
  1  'x, y, z'
loop_
 _atom_site_type_symbol
 _atom_site_label
 _atom_site_symmetry_multiplicity
 _atom_site_fract_x
 _atom_site_fract_y
 _atom_site_fract_z
 _atom_site_occupancy
  Cr  Cr0  1  0.99091462  0.99092909  0.99136199  1
  Cr  Cr1  1  0.15867146  0.15759192  0.15831134  1
  Cr  Cr2  1  0.98982067  0.99025547  0.32565470  1
  Cr  Cr3  1  -0.00826375  0.32549032  0.99056709  1
  Cr  Cr4  1  0.15834493  0.49174653  0.15907538  1
  Cr  Cr5  1  -0.00716037  0.32617269  0.32645840  1
  Cr  Cr6  1  -0.00748294  0.65874843  -0.00819282  1
  Cr  Cr7  1  0.15915260  0.82582974  0.15751648  1
  Cr  Cr8  1  -0.00747722  0.65874257  0.32633259  1
  Cr  Cr9  1  0.32610650  -0.00794504  0.99171695  1
  Fe  Fe10  1  0.49170949  0.15838637  0.15840116  1
  Cr  Cr11  1  0.32653153  -0.00751957  0.32418165  1
  Cr  Cr12  1  0.32609256  0.32517237  -0.00751815  1
  Cr  Cr13  1  0.49253046  0.49144742  0.15831168  1
  Cr  Cr14  1  0.32541622  0.32584855  0.32498342  1
  Cr  Cr15  1  0.32418644  0.65794059  -0.00784283  1
  Cr  Cr16  1  0.49092821  0.82533460  0.15831167  1
  Cr  Cr17  1  0.32350688  0.65684081  0.32486522  1
  Cr  Cr18  1  0.65814668  -0.00716410  -0.00672291  1
  Cr  Cr19  1  0.82478806  0.15919398  0.15831190  1
  Cr  Cr20  1  0.65881521  -0.00783312  0.32418056  1
  Cr  Cr21  1  0.65733864  0.32357031  -0.00751889  1
  Cr  Cr22  1  0.82429274  0.49096572  0.15751608  1
  Cr  Cr23  1  0.65691337  0.32314494  0.32341597  1
  Cr  Cr24  1  0.65846426  0.65876223  0.99059797  1
  Cr  Cr25  1  0.82508721  0.82500837  0.15907559  1
  Cr  Cr26  1  0.65914121  0.65985993  0.32642214  1
  Cr  Cr27  1  0.15830517  0.15802116  0.49284142  1
  Cr  Cr28  1  0.99091893  0.99071557  0.65815567  1
  Cr  Cr29  1  0.15827749  0.15691309  0.82400900  1
  Fe  Fe30  1  0.15843443  0.49170968  0.49173579  1
  Cr  Cr31  1  -0.00716827  0.32574306  0.65815061  1
  Cr  Cr32  1  0.15795852  0.49129151  0.82560392  1
  Cr  Cr33  1  0.15880425  0.82589569  0.49159955  1
  Cr  Cr34  1  0.99142478  0.65871451  0.65703915  1
  Cr  Cr35  1  0.15986510  0.82696273  0.82604514  1
  Cr  Cr36  1  0.49061255  0.15771149  0.49163414  1
  Fe  Fe37  1  0.32502044  -0.00826765  0.65837040  1
  Cr  Cr38  1  0.49060674  0.15770535  0.82442284  1
  Cr  Cr39  1  0.49252588  0.49315598  0.49239408  1
  Cr  Cr40  1  0.32470870  0.32542281  0.65770732  1
  Cr  Cr41  1  0.49362391  0.49319252  0.82446060  1
  Cr  Cr42  1  0.49202247  0.82429585  0.49351409  1
  Cr  Cr43  1  0.32499429  0.65791299  0.65815482  1
  Cr  Cr44  1  0.49092251  0.82426780  0.82333605  1
  Cr  Cr45  1  0.82624728  0.15852726  0.49128203  1
  Cr  Cr46  1  0.65842501  0.99042061  0.65770961  1
  Cr  Cr47  1  0.82628167  0.15961513  0.82557449  1
  Cr  Cr48  1  0.82465543  0.49266625  0.49204392  1
  Cr  Cr49  1  0.65763046  0.32491333  0.65926643  1
  Cr  Cr50  1  0.82358773  0.49160326  0.82560663  1
  Fe  Fe51  1  0.82467913  0.82475203  0.49207437  1
  Fe  Fe52  1  0.65876909  0.65869852  0.65803310  1
  Cr  Cr53  1  0.82437792  0.82394561  0.82448778  1
" 