7095,Fe91Cr9_4,-203.447286175383, 212.296200216811,Fe91Cr9,"# generated using pymatgen
 data_Cr49Fe5
_symmetry_space_group_name_H-M   'P 1'
_cell_length_a   7.59244928
_cell_length_b   7.59244928
_cell_length_c   10.73734474
_cell_angle_alpha   90.00000000
_cell_angle_beta   90.00000000
_cell_angle_gamma   90.00000000
_symmetry_Int_Tables_number   1
_chemical_formula_structural   Cr49Fe5
_chemical_formula_sum   'Cr49 Fe5'
_cell_volume   618.95730846
_cell_formula_units_Z   1
loop_
 _symmetry_equiv_pos_site_id
 _symmetry_equiv_pos_as_xyz
  1  'x, y, z'
loop_
 _atom_site_type_symbol
 _atom_site_label
 _atom_site_symmetry_multiplicity
 _atom_site_fract_x
 _atom_site_fract_y
 _atom_site_fract_z
 _atom_site_occupancy
  Fe  Fe0  1  0.99062625  -0.00812737  0.99098447  1
  Cr  Cr1  1  0.15737444  0.15806171  0.15800721  1
  Cr  Cr2  1  -0.00761217  0.99113346  0.32301904  1
  Cr  Cr3  1  0.99069139  0.32463950  0.99015466  1
  Cr  Cr4  1  0.15926054  0.49128993  0.15817830  1
  Cr  Cr5  1  0.99165835  0.32530434  0.32510604  1
  Cr  Cr6  1  0.99137035  0.65888888  0.99167670  1
  Cr  Cr7  1  0.15820071  0.82570898  0.15648606  1
  Cr  Cr8  1  0.99154698  0.65875138  0.32692622  1
  Cr  Cr9  1  0.32486512  0.99136059  -0.00725495  1
  Cr  Cr10  1  0.49183756  0.15840001  0.16033372  1
  Cr  Cr11  1  0.32587321  -0.00774295  0.32651375  1
  Cr  Cr12  1  0.32531248  0.32377709  0.99161662  1
  Cr  Cr13  1  0.49106877  0.49202802  0.15628998  1
  Cr  Cr14  1  0.32596674  0.32347916  0.32655640  1
  Fe  Fe15  1  0.32464758  0.65820549  0.99150119  1
  Cr  Cr16  1  0.49159444  0.82456858  0.15689885  1
  Cr  Cr17  1  0.32485403  0.65953199  0.32407902  1
  Cr  Cr18  1  0.65859847  -0.00754413  0.99031159  1
  Cr  Cr19  1  0.82590519  0.15747512  0.15640916  1
  Cr  Cr20  1  0.65699147  -0.00775983  0.32633880  1
  Cr  Cr21  1  0.65902236  0.32443788  0.99139179  1
  Cr  Cr22  1  0.82486268  0.49117121  0.16057409  1
  Cr  Cr23  1  0.65780792  0.32437422  0.32422934  1
  Cr  Cr24  1  0.65918803  0.65864145  -0.00720140  1
  Cr  Cr25  1  0.82510419  0.82652369  0.15920973  1
  Cr  Cr26  1  0.65880554  0.65880814  0.32394545  1
  Cr  Cr27  1  0.15791701  0.15846900  0.49072109  1
  Cr  Cr28  1  -0.00802734  -0.00818960  0.66087182  1
  Cr  Cr29  1  0.15704224  0.15774683  0.82644102  1
  Cr  Cr30  1  0.15891768  0.49099015  0.49253008  1
  Cr  Cr31  1  0.99121217  0.32502366  0.65979271  1
  Cr  Cr32  1  0.15953719  0.49155125  0.82462925  1
  Cr  Cr33  1  0.15833882  0.82577778  0.49186373  1
  Cr  Cr34  1  0.99134261  0.65865968  0.65665399  1
  Cr  Cr35  1  0.15865747  0.82555806  0.82694029  1
  Fe  Fe36  1  0.49320000  0.15853639  0.49241537  1
  Cr  Cr37  1  0.32641610  -0.00744350  0.65602996  1
  Cr  Cr38  1  0.49263118  0.15766959  0.82264670  1
  Cr  Cr39  1  0.49190019  0.49159700  0.49180044  1
  Cr  Cr40  1  0.32564259  0.32347238  0.65715760  1
  Cr  Cr41  1  0.49111827  0.49226378  0.82726143  1
  Cr  Cr42  1  0.49306828  0.82596030  0.49331671  1
  Cr  Cr43  1  0.32467926  0.65937639  0.66017616  1
  Cr  Cr44  1  0.49201727  0.82482424  0.82519385  1
  Cr  Cr45  1  0.82447135  0.15748600  0.49306629  1
  Fe  Fe46  1  0.65877606  -0.00761305  0.65855704  1
  Fe  Fe47  1  0.82468281  0.15788370  0.82511600  1
  Cr  Cr48  1  0.82439032  0.49104370  0.49066791  1
  Cr  Cr49  1  0.65831869  0.32356844  0.65952358  1
  Cr  Cr50  1  0.82452754  0.49139353  0.82392158  1
  Cr  Cr51  1  0.82418410  0.82656956  0.49202013  1
  Cr  Cr52  1  0.65912641  0.65878949  0.65854136  1
  Cr  Cr53  1  0.82454012  0.82769970  0.82391311  1
" 