2580,Fe91Cr9_1,-203.30942201041, 211.551787939072,Fe91Cr9,"# generated using pymatgen
 data_Cr49Fe5
_symmetry_space_group_name_H-M   'P 1'
_cell_length_a   7.59447095
_cell_length_b   7.59447095
_cell_length_c   10.74020381
_cell_angle_alpha   90.00000000
_cell_angle_beta   90.00000000
_cell_angle_gamma   90.00000000
_symmetry_Int_Tables_number   1
_chemical_formula_structural   Cr49Fe5
_chemical_formula_sum   'Cr49 Fe5'
_cell_volume   619.45187612
_cell_formula_units_Z   1
loop_
 _symmetry_equiv_pos_site_id
 _symmetry_equiv_pos_as_xyz
  1  'x, y, z'
loop_
 _atom_site_type_symbol
 _atom_site_label
 _atom_site_symmetry_multiplicity
 _atom_site_fract_x
 _atom_site_fract_y
 _atom_site_fract_z
 _atom_site_occupancy
  Cr  Cr0  1  0.99117958  0.99160782  0.99150525  1
  Cr  Cr1  1  0.15770002  0.15726515  0.15972035  1
  Fe  Fe2  1  -0.00807088  0.99127366  0.32525859  1
  Fe  Fe3  1  -0.00837422  0.32558104  -0.00837258  1
  Cr  Cr4  1  0.15659455  0.49196284  0.15643742  1
  Cr  Cr5  1  -0.00764549  0.32359363  0.32461892  1
  Fe  Fe6  1  -0.00838581  0.65764318  -0.00837253  1
  Cr  Cr7  1  0.15847895  0.82560252  0.15893756  1
  Cr  Cr8  1  0.99126614  0.66029754  0.32571395  1
  Cr  Cr9  1  0.32473215  -0.00838014  0.99150461  1
  Cr  Cr10  1  0.49129639  0.15725787  0.15929017  1
  Fe  Fe11  1  0.32428942  0.99159559  0.32494160  1
  Cr  Cr12  1  0.32365372  0.32534011  0.99153365  1
  Cr  Cr13  1  0.49238768  0.49196348  0.15906702  1
  Cr  Cr14  1  0.32470031  0.32436029  0.32502689  1
  Cr  Cr15  1  0.32365370  0.65787256  0.99153388  1
  Cr  Cr16  1  0.49051754  0.82560983  0.15850734  1
  Cr  Cr17  1  0.32470055  0.65843103  0.32458971  1
  Cr  Cr18  1  0.65892082  0.99160783  0.99075307  1
  Cr  Cr19  1  0.82583721  0.15913837  0.15783986  1
  Cr  Cr20  1  0.65964484  0.99094811  0.32490231  1
  Cr  Cr21  1  0.65920220  0.32455921  -0.00768485  1
  Cr  Cr22  1  0.82584866  0.49118270  0.15609545  1
  Cr  Cr23  1  0.65777682  0.32465698  0.32458993  1
  Cr  Cr24  1  0.65921434  0.65866534  -0.00768486  1
  Cr  Cr25  1  0.82583848  0.82451280  0.15859399  1
  Cr  Cr26  1  0.65886438  0.65922881  0.32568483  1
  Cr  Cr27  1  0.15796396  0.15663635  0.49028695  1
  Cr  Cr28  1  0.99051715  0.99094543  0.65686183  1
  Cr  Cr29  1  0.15768419  0.15858416  0.82482592  1
  Cr  Cr30  1  0.15795211  0.49193048  0.49247285  1
  Cr  Cr31  1  -0.00761259  0.32459206  0.65867954  1
  Cr  Cr32  1  0.15659391  0.49196322  0.82592288  1
  Cr  Cr33  1  0.15766581  0.82626399  0.49028819  1
  Cr  Cr34  1  0.99129797  0.65929467  0.65758406  1
  Cr  Cr35  1  0.15846468  0.82428489  0.82560716  1
  Cr  Cr36  1  0.49127067  0.15771282  0.49138174  1
  Cr  Cr37  1  0.32466746  -0.00796499  0.65951809  1
  Cr  Cr38  1  0.49196047  0.15750685  0.82416703  1
  Cr  Cr39  1  0.49235481  0.49193079  0.49203554  1
  Cr  Cr40  1  0.32466754  0.32537207  0.65827111  1
  Cr  Cr41  1  0.49197244  0.49196336  0.82372973  1
  Cr  Cr42  1  0.49156342  0.82518700  0.49138358  1
  Cr  Cr43  1  0.32466776  0.65742522  0.65870808  1
  Cr  Cr44  1  0.49117990  0.82536226  0.82494825  1
  Cr  Cr45  1  0.82559973  0.15742819  0.49137978  1
  Cr  Cr46  1  0.65964546  0.99094705  0.65917643  1
  Cr  Cr47  1  0.82518722  0.15937583  0.82560622  1
  Cr  Cr48  1  0.82452570  0.49222569  0.49203567  1
  Cr  Cr49  1  0.65777750  0.32459153  0.65792720  1
  Cr  Cr50  1  0.82626474  0.49118273  0.82670225  1
  Fe  Fe51  1  0.82527442  0.82529290  0.49126561  1
  Cr  Cr52  1  0.65886672  0.65929556  0.65683123  1
  Cr  Cr53  1  0.82518705  0.82427401  0.82485383  1
" 