8592,Fe91Cr9_10,-203.403308707767, 210.605278701066,Fe91Cr9,"# generated using pymatgen
 data_Cr49Fe5
_symmetry_space_group_name_H-M   'P 1'
_cell_length_a   7.59492339
_cell_length_b   7.59492339
_cell_length_c   10.74084366
_cell_angle_alpha   90.00000000
_cell_angle_beta   90.00000000
_cell_angle_gamma   90.00000000
_symmetry_Int_Tables_number   1
_chemical_formula_structural   Cr49Fe5
_chemical_formula_sum   'Cr49 Fe5'
_cell_volume   619.56259444
_cell_formula_units_Z   1
loop_
 _symmetry_equiv_pos_site_id
 _symmetry_equiv_pos_as_xyz
  1  'x, y, z'
loop_
 _atom_site_type_symbol
 _atom_site_label
 _atom_site_symmetry_multiplicity
 _atom_site_fract_x
 _atom_site_fract_y
 _atom_site_fract_z
 _atom_site_occupancy
  Cr  Cr0  1  0.99066745  0.99158047  0.99100623  1
  Cr  Cr1  1  0.15727944  0.15685430  0.15936926  1
  Fe  Fe2  1  0.99122105  0.99124081  0.32526672  1
  Cr  Cr3  1  0.99098817  0.32431402  0.99054653  1
  Cr  Cr4  1  0.15759621  0.49194263  0.15744560  1
  Cr  Cr5  1  -0.00833847  0.32392509  0.32483456  1
  Cr  Cr6  1  0.99097679  0.65884865  0.99055018  1
  Cr  Cr7  1  0.15807846  0.82594697  0.15856864  1
  Cr  Cr8  1  0.99055229  0.65992042  0.32595132  1
  Cr  Cr9  1  0.32491433  -0.00840667  -0.00753539  1
  Cr  Cr10  1  0.49187083  0.15795453  0.15824643  1
  Cr  Cr11  1  0.32384979  -0.00798530  0.32403445  1
  Cr  Cr12  1  0.32491441  0.32462484  -0.00798401  1
  Cr  Cr13  1  0.49265492  0.49194326  0.15789408  1
  Cr  Cr14  1  0.32494864  0.32423726  0.32528310  1
  Cr  Cr15  1  0.32491441  0.65852666  -0.00798418  1
  Cr  Cr16  1  0.49107209  0.82484669  0.15744568  1
  Cr  Cr17  1  0.32494867  0.65849206  0.32483429  1
  Cr  Cr18  1  0.65916659  0.99158054  0.98946163  1
  Cr  Cr19  1  0.82559237  0.15843873  0.15859692  1
  Cr  Cr20  1  0.65955869  0.99090522  0.32592156  1
  Cr  Cr21  1  0.65884164  0.32431428  -0.00785213  1
  Cr  Cr22  1  0.82449340  0.49114423  0.15824593  1
  Cr  Cr23  1  0.65813432  0.32502069  0.32403424  1
  Cr  Cr24  1  0.65885310  0.65884845  -0.00784822  1
  Cr  Cr25  1  0.82559422  0.82516352  0.15936833  1
  Cr  Cr26  1  0.65924264  0.65881726  0.32515014  1
  Cr  Cr27  1  0.15731631  0.15731130  0.49038148  1
  Cr  Cr28  1  0.98894361  0.99090349  0.65859250  1
  Cr  Cr29  1  0.15694147  0.15798899  0.82499492  1
  Cr  Cr30  1  0.15762995  0.49190858  0.49275289  1
  Cr  Cr31  1  0.99144624  0.32435078  0.65936227  1
  Cr  Cr32  1  0.15724337  0.49194358  0.82454617  1
  Cr  Cr33  1  0.15702758  0.82552519  0.49038039  1
  Cr  Cr34  1  0.99033755  0.65948757  0.65824865  1
  Cr  Cr35  1  0.15774179  0.82481242  0.82579540  1
  Cr  Cr36  1  0.49249955  0.15732549  0.49261099  1
  Cr  Cr37  1  0.32595248  -0.00798501  0.65824607  1
  Cr  Cr38  1  0.49356377  0.15689870  0.82388148  1
  Cr  Cr39  1  0.49219930  0.49190858  0.49185553  1
  Cr  Cr40  1  0.32487974  0.32465919  0.65744520  1
  Cr  Cr41  1  0.49216398  0.49194296  0.82499519  1
  Cr  Cr42  1  0.49278823  0.82551101  0.49261159  1
  Cr  Cr43  1  0.32487974  0.65806993  0.65789405  1
  Cr  Cr44  1  0.49276332  0.82590285  0.82468173  1
  Cr  Cr45  1  0.82492718  0.15672154  0.49146139  1
  Fe  Fe46  1  0.65928829  0.99123832  0.65858286  1
  Fe  Fe47  1  0.82457848  0.15723047  0.82456333  1
  Cr  Cr48  1  0.82491466  0.49219336  0.49070274  1
  Cr  Cr49  1  0.65841955  0.32327435  0.65856256  1
  Cr  Cr50  1  0.82533618  0.49113931  0.82579524  1
  Fe  Fe51  1  0.82492615  0.82560828  0.49156561  1
  Cr  Cr52  1  0.65952915  0.66057141  0.65744823  1
  Fe  Fe53  1  0.82457675  0.82591853  0.82459045  1
" 