7395,Fe91Cr9_19,-203.363491623437, 212.511654773293,Fe91Cr9,"# generated using pymatgen
 data_Cr49Fe5
_symmetry_space_group_name_H-M   'P 1'
_cell_length_a   7.59303726
_cell_length_b   7.59303726
_cell_length_c   10.73817627
_cell_angle_alpha   90.00000000
_cell_angle_beta   90.00000000
_cell_angle_gamma   90.00000000
_symmetry_Int_Tables_number   1
_chemical_formula_structural   Cr49Fe5
_chemical_formula_sum   'Cr49 Fe5'
_cell_volume   619.10112110
_cell_formula_units_Z   1
loop_
 _symmetry_equiv_pos_site_id
 _symmetry_equiv_pos_as_xyz
  1  'x, y, z'
loop_
 _atom_site_type_symbol
 _atom_site_label
 _atom_site_symmetry_multiplicity
 _atom_site_fract_x
 _atom_site_fract_y
 _atom_site_fract_z
 _atom_site_occupancy
  Cr  Cr0  1  0.99153345  0.99117235  -0.00812909  1
  Cr  Cr1  1  0.15873356  0.15833872  0.15943435  1
  Cr  Cr2  1  0.99136508  -0.00795024  0.32488546  1
  Cr  Cr3  1  -0.00716890  0.32483759  0.99013400  1
  Cr  Cr4  1  0.15732606  0.49294191  0.15813849  1
  Cr  Cr5  1  -0.00677654  0.32437170  0.32766670  1
  Fe  Fe6  1  -0.00788949  0.65827200  0.99168969  1
  Cr  Cr7  1  0.15802440  0.82376701  0.15739096  1
  Cr  Cr8  1  0.99137297  0.65870451  0.32456596  1
  Cr  Cr9  1  0.32468449  -0.00796112  0.99125665  1
  Cr  Cr10  1  0.49292416  0.15965326  0.15739193  1
  Cr  Cr11  1  0.32469023  -0.00797141  0.32448984  1
  Cr  Cr12  1  0.32603022  0.32636824  -0.00634926  1
  Fe  Fe13  1  0.49258019  0.49149848  0.15780599  1
  Cr  Cr14  1  0.32505517  0.32656484  0.32309565  1
  Cr  Cr15  1  0.32612295  0.65681533  -0.00745652  1
  Cr  Cr16  1  0.49122618  0.82533354  0.15943144  1
  Cr  Cr17  1  0.32684510  0.65656067  0.32416736  1
  Cr  Cr18  1  0.65885307  0.99081445  0.99118981  1
  Cr  Cr19  1  0.82351745  0.15993958  0.15816060  1
  Cr  Cr20  1  0.65905137  0.99020228  0.32556302  1
  Fe  Fe21  1  0.65759116  0.32550249  -0.00784674  1
  Cr  Cr22  1  0.82467177  0.49129688  0.15672166  1
  Cr  Cr23  1  0.65679891  0.32663525  0.32414995  1
  Cr  Cr24  1  0.65758340  0.65762053  -0.00745436  1
  Cr  Cr25  1  0.82592056  0.82373674  0.15802908  1
  Cr  Cr26  1  0.65692092  0.65838960  0.32524789  1
  Cr  Cr27  1  0.15986606  0.15769691  0.49142815  1
  Cr  Cr28  1  -0.00820545  -0.00778031  0.65834931  1
  Cr  Cr29  1  0.15992826  0.15761232  0.82408406  1
  Cr  Cr30  1  0.15853440  0.49308455  0.49253574  1
  Cr  Cr31  1  -0.00719061  0.32429354  0.65730854  1
  Cr  Cr32  1  0.15765813  0.49380740  0.82453163  1
  Cr  Cr33  1  0.16058335  0.82437066  0.49279007  1
  Cr  Cr34  1  0.99158170  0.65858470  0.65933573  1
  Cr  Cr35  1  0.15983451  0.82368057  0.82487487  1
  Cr  Cr36  1  0.49128170  0.15727279  0.49248244  1
  Fe  Fe37  1  0.32460630  0.99134567  0.65839870  1
  Cr  Cr38  1  0.49199760  0.15799460  0.82514829  1
  Cr  Cr39  1  0.49113270  0.49219168  0.49162294  1
  Cr  Cr40  1  0.32419901  0.32579811  0.65836251  1
  Cr  Cr41  1  0.49212740  0.49127591  0.82559028  1
  Cr  Cr42  1  0.48947756  0.82565727  0.49393741  1
  Fe  Fe43  1  0.32491233  0.65865931  0.65847718  1
  Cr  Cr44  1  0.48940783  0.82576926  0.82159452  1
  Cr  Cr45  1  0.82395530  0.15936547  0.49078959  1
  Cr  Cr46  1  0.65874423  0.99042215  0.65837142  1
  Cr  Cr47  1  0.82321257  0.16019484  0.82625236  1
  Cr  Cr48  1  0.82537697  0.49136707  0.49185214  1
  Cr  Cr49  1  0.65812196  0.32568489  0.65934593  1
  Cr  Cr50  1  0.82538585  0.49138564  0.82668378  1
  Cr  Cr51  1  0.82494509  0.82437336  0.49011597  1
  Cr  Cr52  1  0.65712207  0.65899747  0.65730808  1
  Cr  Cr53  1  0.82581007  0.82343374  0.82705263  1
" 