6933,Fe91Cr9_7,-203.394036406938, 211.70651849219,Fe91Cr9,"# generated using pymatgen
 data_Cr49Fe5
_symmetry_space_group_name_H-M   'P 1'
_cell_length_a   7.59363088
_cell_length_b   7.59363088
_cell_length_c   10.73901577
_cell_angle_alpha   90.00000000
_cell_angle_beta   90.00000000
_cell_angle_gamma   90.00000000
_symmetry_Int_Tables_number   1
_chemical_formula_structural   Cr49Fe5
_chemical_formula_sum   'Cr49 Fe5'
_cell_volume   619.24633514
_cell_formula_units_Z   1
loop_
 _symmetry_equiv_pos_site_id
 _symmetry_equiv_pos_as_xyz
  1  'x, y, z'
loop_
 _atom_site_type_symbol
 _atom_site_label
 _atom_site_symmetry_multiplicity
 _atom_site_fract_x
 _atom_site_fract_y
 _atom_site_fract_z
 _atom_site_occupancy
  Cr  Cr0  1  -0.00734830  -0.00734259  0.99166498  1
  Fe  Fe1  1  0.15830138  0.15831256  0.15834252  1
  Cr  Cr2  1  -0.00799136  -0.00670603  0.32564388  1
  Cr  Cr3  1  -0.00810292  0.32435042  -0.00727292  1
  Cr  Cr4  1  0.15860718  0.49071444  0.15867272  1
  Cr  Cr5  1  0.99125598  0.32371576  0.32458026  1
  Cr  Cr6  1  0.99160534  0.65798655  0.99090506  1
  Cr  Cr7  1  0.15828853  0.82563554  0.15867275  1
  Cr  Cr8  1  -0.00799334  0.65798641  0.32534123  1
  Cr  Cr9  1  0.32435205  -0.00810809  -0.00727171  1
  Cr  Cr10  1  0.49063896  0.15895277  0.15791677  1
  Cr  Cr11  1  0.32435476  0.99148836  0.32352071  1
  Cr  Cr12  1  0.32465470  0.32466357  -0.00769035  1
  Fe  Fe13  1  0.49168793  0.49167602  0.15833745  1
  Cr  Cr14  1  0.32465942  0.32506962  0.32393793  1
  Cr  Cr15  1  0.32571452  0.65844079  -0.00803130  1
  Cr  Cr16  1  0.49170603  0.82503940  0.15867288  1
  Cr  Cr17  1  0.32571616  0.65843872  0.32469938  1
  Cr  Cr18  1  0.65798946  0.99159883  0.99090519  1
  Cr  Cr19  1  0.82529173  0.15862946  0.15864403  1
  Cr  Cr20  1  0.65863061  -0.00775968  0.32640250  1
  Cr  Cr21  1  0.65844192  0.32571330  -0.00802949  1
  Cr  Cr22  1  0.82469413  0.49177853  0.15791684  1
  Cr  Cr23  1  0.65908046  0.32507427  0.32533481  1
  Cr  Cr24  1  0.65767591  0.65768498  0.99163574  1
  Cr  Cr25  1  0.82500153  0.82458714  0.15791655  1
  Cr  Cr26  1  0.65727256  0.65768283  0.32460865  1
  Cr  Cr27  1  0.15808336  0.15867364  0.49230128  1
  Fe  Fe28  1  0.99132019  -0.00802329  0.65800381  1
  Cr  Cr29  1  0.15909304  0.15867889  0.82477615  1
  Cr  Cr30  1  0.15866587  0.49112323  0.49272518  1
  Cr  Cr31  1  0.99163033  0.32374520  0.65769101  1
  Cr  Cr32  1  0.15863658  0.49108862  0.82359493  1
  Cr  Cr33  1  0.15730935  0.82519643  0.49196602  1
  Cr  Cr34  1  -0.00762390  0.65862330  0.65874892  1
  Cr  Cr35  1  0.15727850  0.82522706  0.82435804  1
  Cr  Cr36  1  0.49202941  0.15897334  0.49272331  1
  Cr  Cr37  1  0.32439076  -0.00814052  0.65874898  1
  Cr  Cr38  1  0.49101676  0.15897635  0.82435261  1
  Cr  Cr39  1  0.49098682  0.49036870  0.49166307  1
  Fe  Fe40  1  0.32501838  0.32500358  0.65832291  1
  Cr  Cr41  1  0.49101634  0.49033379  0.82465744  1
  Cr  Cr42  1  0.49204275  0.82565249  0.49090505  1
  Cr  Cr43  1  0.32470107  0.65803458  0.65832583  1
  Cr  Cr44  1  0.49207534  0.82568501  0.82541770  1
  Fe  Fe45  1  0.82533475  0.15802176  0.49198830  1
  Cr  Cr46  1  0.65927169  -0.00738994  0.65768772  1
  Cr  Cr47  1  0.82488714  0.15761838  0.82438531  1
  Cr  Cr48  1  0.82534369  0.49114303  0.49090512  1
  Cr  Cr49  1  0.65868090  0.32405872  0.65768941  1
  Cr  Cr50  1  0.82534393  0.49214855  0.82617370  1
  Cr  Cr51  1  0.82564229  0.82623968  0.49163297  1
  Cr  Cr52  1  0.65791808  0.65832853  0.65874910  1
  Cr  Cr53  1  0.82564035  0.82522613  0.82544814  1
" 