2262,Fe91Cr9_13,-203.399049567015, 212.286609803978,Fe91Cr9,"# generated using pymatgen
 data_Cr49Fe5
_symmetry_space_group_name_H-M   'P 1'
_cell_length_a   7.59349653
_cell_length_b   7.59349653
_cell_length_c   10.73882578
_cell_angle_alpha   90.00000000
_cell_angle_beta   90.00000000
_cell_angle_gamma   90.00000000
_symmetry_Int_Tables_number   1
_chemical_formula_structural   Cr49Fe5
_chemical_formula_sum   'Cr49 Fe5'
_cell_volume   619.21346981
_cell_formula_units_Z   1
loop_
 _symmetry_equiv_pos_site_id
 _symmetry_equiv_pos_as_xyz
  1  'x, y, z'
loop_
 _atom_site_type_symbol
 _atom_site_label
 _atom_site_symmetry_multiplicity
 _atom_site_fract_x
 _atom_site_fract_y
 _atom_site_fract_z
 _atom_site_occupancy
  Cr  Cr0  1  0.98957869  0.99077082  -0.00720685  1
  Cr  Cr1  1  0.15713774  0.15855655  0.15782058  1
  Cr  Cr2  1  0.98955726  0.99075495  0.32419063  1
  Cr  Cr3  1  0.98979880  0.32591012  0.99009574  1
  Cr  Cr4  1  0.15823199  0.49080516  0.15886226  1
  Cr  Cr5  1  0.99037563  0.32508211  0.32574622  1
  Cr  Cr6  1  0.99075621  0.65836915  -0.00811521  1
  Cr  Cr7  1  0.15768224  0.82566756  0.15781746  1
  Cr  Cr8  1  0.99128478  0.65915266  0.32400421  1
  Cr  Cr9  1  0.32649500  -0.00803031  0.99073811  1
  Fe  Fe10  1  0.49148773  0.15857762  0.15831836  1
  Cr  Cr11  1  0.32640005  -0.00811239  0.32585289  1
  Cr  Cr12  1  0.32649296  0.32469624  -0.00783231  1
  Cr  Cr13  1  0.49223842  0.49160314  0.15886351  1
  Cr  Cr14  1  0.32642694  0.32460227  0.32513720  1
  Cr  Cr15  1  0.32439900  0.65833683  -0.00815055  1
  Cr  Cr16  1  0.49298212  0.82482272  0.15781632  1
  Cr  Cr17  1  0.32441967  0.65853272  0.32536867  1
  Cr  Cr18  1  0.65888913  -0.00706292  -0.00456782  1
  Fe  Fe19  1  0.82498974  0.15811325  0.15824213  1
  Cr  Cr20  1  0.65902426  -0.00716280  0.32165151  1
  Cr  Cr21  1  0.65866392  0.32370517  -0.00736879  1
  Cr  Cr22  1  0.82455468  0.49127617  0.15785855  1
  Cr  Cr23  1  0.65813787  0.32294015  0.32327035  1
  Cr  Cr24  1  0.66001808  0.65828326  0.99010517  1
  Fe  Fe25  1  0.82506701  0.82495721  0.15824549  1
  Cr  Cr26  1  0.65935913  0.65918260  0.32568548  1
  Cr  Cr27  1  0.15714590  0.15836090  0.49290982  1
  Cr  Cr28  1  0.99143493  0.99080491  0.65781292  1
  Cr  Cr29  1  0.15736241  0.15813436  0.82430261  1
  Cr  Cr30  1  0.15802625  0.49075064  0.48902496  1
  Cr  Cr31  1  0.99070760  0.32677769  0.65926978  1
  Cr  Cr32  1  0.15777818  0.49076017  0.82711057  1
  Cr  Cr33  1  0.15805340  0.82592178  0.49113918  1
  Cr  Cr34  1  0.99076694  0.65743421  0.65927233  1
  Cr  Cr35  1  0.15826182  0.82613834  0.82607510  1
  Cr  Cr36  1  0.49228046  0.15833399  0.49120492  1
  Cr  Cr37  1  0.32547388  0.99136966  0.65851633  1
  Cr  Cr38  1  0.49204299  0.15810808  0.82598871  1
  Cr  Cr39  1  0.49343805  0.49284454  0.49139560  1
  Cr  Cr40  1  0.32545831  0.32547610  0.65780743  1
  Cr  Cr41  1  0.49426478  0.49295067  0.82462557  1
  Cr  Cr42  1  0.49342912  0.82382767  0.49353546  1
  Cr  Cr43  1  0.32456722  0.65816069  0.65781397  1
  Cr  Cr44  1  0.49325254  0.82399008  0.82359720  1
  Cr  Cr45  1  0.82561603  0.15833584  0.49121909  1
  Cr  Cr46  1  0.65812979  -0.00828410  0.65781998  1
  Cr  Cr47  1  0.82560960  0.15879232  0.82495228  1
  Cr  Cr48  1  0.82348528  0.49202358  0.49350388  1
  Cr  Cr49  1  0.65893960  0.32623105  0.65936381  1
  Fe  Fe50  1  0.82435142  0.49218201  0.82470184  1
  Cr  Cr51  1  0.82354674  0.82473661  0.49148354  1
  Fe  Fe52  1  0.65907224  0.65777332  0.65891734  1
  Cr  Cr53  1  0.82344424  0.82412369  0.82457529  1
" 