5865,Fe91Cr9_6,-203.256004946128, 211.449398192761,Fe91Cr9,"# generated using pymatgen
 data_Cr49Fe5
_symmetry_space_group_name_H-M   'P 1'
_cell_length_a   7.59373545
_cell_length_b   7.59373545
_cell_length_c   10.73916367
_cell_angle_alpha   90.00000000
_cell_angle_beta   90.00000000
_cell_angle_gamma   90.00000000
_symmetry_Int_Tables_number   1
_chemical_formula_structural   Cr49Fe5
_chemical_formula_sum   'Cr49 Fe5'
_cell_volume   619.27191948
_cell_formula_units_Z   1
loop_
 _symmetry_equiv_pos_site_id
 _symmetry_equiv_pos_as_xyz
  1  'x, y, z'
loop_
 _atom_site_type_symbol
 _atom_site_label
 _atom_site_symmetry_multiplicity
 _atom_site_fract_x
 _atom_site_fract_y
 _atom_site_fract_z
 _atom_site_occupancy
  Cr  Cr0  1  -0.00751011  0.99058935  -0.00814588  1
  Cr  Cr1  1  0.15855189  0.15768054  0.15809604  1
  Cr  Cr2  1  0.99123485  0.99082382  0.32457171  1
  Cr  Cr3  1  -0.00780267  0.32532971  0.99112295  1
  Cr  Cr4  1  0.15825189  0.49089400  0.15919245  1
  Cr  Cr5  1  -0.00800377  0.32506497  0.32454305  1
  Cr  Cr6  1  -0.00674888  0.65905719  0.99079581  1
  Cr  Cr7  1  0.15932481  0.82640118  0.15812501  1
  Cr  Cr8  1  -0.00799254  0.65908641  0.32423576  1
  Fe  Fe9  1  0.32464501  0.99133787  0.99131526  1
  Cr  Cr10  1  0.49032333  0.15766896  0.15730604  1
  Cr  Cr11  1  0.32530723  -0.00734711  0.32567377  1
  Cr  Cr12  1  0.32518723  0.32502892  -0.00814230  1
  Cr  Cr13  1  0.49214687  0.49242767  0.15840197  1
  Cr  Cr14  1  0.32606744  0.32475979  0.32564415  1
  Cr  Cr15  1  0.32335715  0.65858711  0.99003188  1
  Cr  Cr16  1  0.49108631  0.82487764  0.15733509  1
  Cr  Cr17  1  0.32422854  0.65756362  0.32533312  1
  Cr  Cr18  1  0.65806681  -0.00758114  -0.00827029  1
  Cr  Cr19  1  0.82609902  0.15874199  0.15764048  1
  Cr  Cr20  1  0.65843429  -0.00733815  0.32640537  1
  Cr  Cr21  1  0.65759264  0.32426335  -0.00750845  1
  Cr  Cr22  1  0.82457647  0.49165543  0.15873782  1
  Cr  Cr23  1  0.65691315  0.32398962  0.32488061  1
  Cr  Cr24  1  0.65836509  0.65829303  -0.00784407  1
  Cr  Cr25  1  0.82456507  0.82457807  0.15916406  1
  Cr  Cr26  1  0.65873904  0.65832500  0.32457144  1
  Cr  Cr27  1  0.15829620  0.15896593  0.49146552  1
  Cr  Cr28  1  0.99146663  0.99119790  0.65854711  1
  Cr  Cr29  1  0.15790815  0.15832422  0.82541084  1
  Cr  Cr30  1  0.15798293  0.49028225  0.49219975  1
  Fe  Fe31  1  -0.00799132  0.32530133  0.65866018  1
  Fe  Fe32  1  0.15801374  0.49194874  0.82466372  1
  Cr  Cr33  1  0.15905368  0.82572459  0.49113401  1
  Cr  Cr34  1  -0.00671323  0.65806319  0.65994757  1
  Fe  Fe35  1  0.15864774  0.82470109  0.82530803  1
  Fe  Fe36  1  0.49164391  0.15833691  0.49167846  1
  Cr  Cr37  1  0.32510511  -0.00801921  0.65820880  1
  Cr  Cr38  1  0.49038805  0.15726262  0.82574532  1
  Cr  Cr39  1  0.49174153  0.49180871  0.49116277  1
  Cr  Cr40  1  0.32481524  0.32540192  0.65747861  1
  Cr  Cr41  1  0.49117355  0.49280099  0.82540971  1
  Cr  Cr42  1  0.49173013  0.82526331  0.49158900  1
  Cr  Cr43  1  0.32297951  0.65759321  0.65961355  1
  Cr  Cr44  1  0.49010102  0.82491090  0.82605278  1
  Cr  Cr45  1  0.82571889  0.15897767  0.49298951  1
  Cr  Cr46  1  0.65840161  -0.00696266  0.65683865  1
  Cr  Cr47  1  0.82667941  0.15938686  0.82434175  1
  Cr  Cr48  1  0.82524942  0.49104408  0.49222810  1
  Cr  Cr49  1  0.65792512  0.32358255  0.65760238  1
  Cr  Cr50  1  0.82620227  0.49097768  0.82400509  1
  Cr  Cr51  1  0.82419120  0.82495255  0.49116320  1
  Cr  Cr52  1  0.65870731  0.65835711  0.65824773  1
  Cr  Cr53  1  0.82512950  0.82461023  0.82464853  1
" 