2534,Fe91Cr9_0,-203.283905396161, 211.151623013328,Fe91Cr9,"# generated using pymatgen
 data_Cr49Fe5
_symmetry_space_group_name_H-M   'P 1'
_cell_length_a   7.59255024
_cell_length_b   7.59255024
_cell_length_c   10.73748752
_cell_angle_alpha   90.00000000
_cell_angle_beta   90.00000000
_cell_angle_gamma   90.00000000
_symmetry_Int_Tables_number   1
_chemical_formula_structural   Cr49Fe5
_chemical_formula_sum   'Cr49 Fe5'
_cell_volume   618.98200169
_cell_formula_units_Z   1
loop_
 _symmetry_equiv_pos_site_id
 _symmetry_equiv_pos_as_xyz
  1  'x, y, z'
loop_
 _atom_site_type_symbol
 _atom_site_label
 _atom_site_symmetry_multiplicity
 _atom_site_fract_x
 _atom_site_fract_y
 _atom_site_fract_z
 _atom_site_occupancy
  Cr  Cr0  1  0.99107970  -0.00798035  0.99107097  1
  Cr  Cr1  1  0.15896752  0.15802110  0.15970157  1
  Cr  Cr2  1  -0.00764927  -0.00794928  0.32465128  1
  Cr  Cr3  1  0.99150069  0.32475933  -0.00795138  1
  Cr  Cr4  1  0.15896021  0.49211311  0.15801848  1
  Cr  Cr5  1  -0.00819704  0.32538610  0.32605203  1
  Cr  Cr6  1  -0.00823676  0.65842631  -0.00795149  1
  Cr  Cr7  1  0.15896668  0.82506998  0.15930909  1
  Cr  Cr8  1  0.99110639  0.65776916  0.32535362  1
  Cr  Cr9  1  0.32535636  -0.00798069  -0.00797856  1
  Cr  Cr10  1  0.49204862  0.15927446  0.15871906  1
  Fe  Fe11  1  0.32507774  -0.00825896  0.32507040  1
  Cr  Cr12  1  0.32590353  0.32572166  0.99163441  1
  Fe  Fe13  1  0.49204002  0.49142660  0.15811271  1
  Cr  Cr14  1  0.32496126  0.32440747  0.32479242  1
  Cr  Cr15  1  0.32563470  0.65746465  0.99163353  1
  Cr  Cr16  1  0.49107362  0.82479834  0.15970076  1
  Cr  Cr17  1  0.32565823  0.65874195  0.32409419  1
  Cr  Cr18  1  0.65876894  -0.00771284  0.99135047  1
  Cr  Cr19  1  0.82418978  0.15927722  0.15703654  1
  Cr  Cr20  1  0.65746216  0.99135363  0.32506882  1
  Fe  Fe21  1  0.65809407  0.32536980  -0.00795524  1
  Cr  Cr22  1  0.82391213  0.49113917  0.15810101  1
  Cr  Cr23  1  0.65843959  0.32565735  0.32510243  1
  Cr  Cr24  1  0.65780638  0.65788413  -0.00766705  1
  Cr  Cr25  1  0.82516512  0.82479051  0.15801868  1
  Cr  Cr26  1  0.65844141  0.65819594  0.32577559  1
  Cr  Cr27  1  0.15843541  0.15780089  0.49141716  1
  Fe  Fe28  1  0.99172595  -0.00825904  0.65838830  1
  Cr  Cr29  1  0.15780142  0.15804959  0.82408126  1
  Cr  Cr30  1  0.15746439  0.49174587  0.49211792  1
  Cr  Cr31  1  -0.00816659  0.32478418  0.65710594  1
  Cr  Cr32  1  0.15876869  0.49211310  0.82506817  1
  Cr  Cr33  1  0.15843515  0.82565699  0.49141728  1
  Cr  Cr34  1  0.99113682  0.65836568  0.65780407  1
  Cr  Cr35  1  0.15780294  0.82504172  0.82447376  1
  Cr  Cr36  1  0.49142455  0.15808758  0.49113505  1
  Cr  Cr37  1  0.32482072  -0.00794923  0.65842223  1
  Cr  Cr38  1  0.49264359  0.15930683  0.82535024  1
  Cr  Cr39  1  0.49267243  0.49173214  0.49183773  1
  Cr  Cr40  1  0.32440527  0.32479007  0.65878676  1
  Cr  Cr41  1  0.49195959  0.49113969  0.82632703  1
  Cr  Cr42  1  0.49141221  0.82538473  0.49113603  1
  Cr  Cr43  1  0.32510205  0.65836479  0.65948485  1
  Cr  Cr44  1  0.49167010  0.82475932  0.82436994  1
  Cr  Cr45  1  0.82534521  0.15905807  0.49240001  1
  Cr  Cr46  1  0.65897339  0.99135392  0.65878702  1
  Cr  Cr47  1  0.82476026  0.15833903  0.82575940  1
  Fe  Fe48  1  0.82506908  0.49173234  0.49172801  1
  Cr  Cr49  1  0.65896681  0.32506992  0.65777678  1
  Cr  Cr50  1  0.82447853  0.49114164  0.82537473  1
  Cr  Cr51  1  0.82535778  0.82441431  0.49239898  1
  Cr  Cr52  1  0.65896701  0.65878156  0.65710504  1
  Cr  Cr53  1  0.82573339  0.82572636  0.82477988  1
" 