75,Fe91Cr9_9,-203.322195052163, 212.771406085565,Fe91Cr9,"# generated using pymatgen
 data_Cr49Fe5
_symmetry_space_group_name_H-M   'P 1'
_cell_length_a   7.58926588
_cell_length_b   7.58926588
_cell_length_c   10.73284273
_cell_angle_alpha   90.00000000
_cell_angle_beta   90.00000000
_cell_angle_gamma   90.00000000
_symmetry_Int_Tables_number   1
_chemical_formula_structural   Cr49Fe5
_chemical_formula_sum   'Cr49 Fe5'
_cell_volume   618.17907620
_cell_formula_units_Z   1
loop_
 _symmetry_equiv_pos_site_id
 _symmetry_equiv_pos_as_xyz
  1  'x, y, z'
loop_
 _atom_site_type_symbol
 _atom_site_label
 _atom_site_symmetry_multiplicity
 _atom_site_fract_x
 _atom_site_fract_y
 _atom_site_fract_z
 _atom_site_occupancy
  Cr  Cr0  1  -0.00780256  0.99011676  -0.00677928  1
  Cr  Cr1  1  0.15885037  0.15921577  0.15928308  1
  Cr  Cr2  1  -0.00646696  0.99009794  0.32630671  1
  Cr  Cr3  1  0.99026282  0.32536893  -0.00802952  1
  Cr  Cr4  1  0.15778217  0.49247624  0.15668502  1
  Cr  Cr5  1  0.99052287  0.32477484  0.32525604  1
  Fe  Fe6  1  -0.00764796  0.65912320  -0.00748517  1
  Fe  Fe7  1  0.15804657  0.82472056  0.15813232  1
  Cr  Cr8  1  -0.00678046  0.66091218  0.32425103  1
  Cr  Cr9  1  0.32455757  0.99013905  -0.00682005  1
  Cr  Cr10  1  0.49154971  0.15694214  0.15774901  1
  Cr  Cr11  1  0.32310955  0.98930276  0.32530524  1
  Cr  Cr12  1  0.32663002  0.32585998  -0.00803089  1
  Cr  Cr13  1  0.49166791  0.49352692  0.16090122  1
  Cr  Cr14  1  0.32610367  0.32556511  0.32428720  1
  Cr  Cr15  1  0.32422214  0.65993079  -0.00773993  1
  Cr  Cr16  1  0.49367388  0.82551078  0.15861655  1
  Cr  Cr17  1  0.32456986  0.66082995  0.32525221  1
  Fe  Fe18  1  0.65850426  -0.00804315  -0.00782926  1
  Cr  Cr19  1  0.82539064  0.15691681  0.15837921  1
  Cr  Cr20  1  0.65918306  -0.00780843  0.32433622  1
  Cr  Cr21  1  0.65898157  0.32517987  0.99163064  1
  Cr  Cr22  1  0.82639390  0.49440897  0.15966377  1
  Cr  Cr23  1  0.65918784  0.32654277  0.32526621  1
  Cr  Cr24  1  0.65851935  0.65773441  0.99192054  1
  Cr  Cr25  1  0.82470503  0.82454799  0.15720969  1
  Fe  Fe26  1  0.65892250  0.65954437  0.32506568  1
  Cr  Cr27  1  0.15913866  0.15922116  0.49224495  1
  Cr  Cr28  1  -0.00740040  0.99056879  0.65629083  1
  Cr  Cr29  1  0.15886329  0.15936084  0.82430687  1
  Cr  Cr30  1  0.15852341  0.49144492  0.49292024  1
  Cr  Cr31  1  0.98998918  0.32504595  0.65862611  1
  Cr  Cr32  1  0.15777480  0.49180742  0.82624692  1
  Fe  Fe33  1  0.15853402  0.82436053  0.49184142  1
  Cr  Cr34  1  -0.00746440  0.66014314  0.65927020  1
  Cr  Cr35  1  0.15766105  0.82457857  0.82567798  1
  Cr  Cr36  1  0.49086818  0.15761243  0.49193531  1
  Cr  Cr37  1  0.32404565  0.98976432  0.65729475  1
  Cr  Cr38  1  0.49127397  0.15646421  0.82640609  1
  Cr  Cr39  1  0.49161362  0.49347607  0.49038667  1
  Cr  Cr40  1  0.32664873  0.32585517  0.65958788  1
  Cr  Cr41  1  0.49063622  0.49297647  0.82431679  1
  Cr  Cr42  1  0.49318849  0.82496537  0.49158891  1
  Cr  Cr43  1  0.32491557  0.66013516  0.65834398  1
  Cr  Cr44  1  0.49343143  0.82636577  0.82564408  1
  Cr  Cr45  1  0.82584061  0.15760408  0.49192509  1
  Cr  Cr46  1  0.65920887  -0.00764522  0.66046982  1
  Cr  Cr47  1  0.82567142  0.15643736  0.82577988  1
  Cr  Cr48  1  0.82575960  0.49401933  0.49045636  1
  Cr  Cr49  1  0.65918942  0.32585207  0.65893876  1
  Cr  Cr50  1  0.82744059  0.49402866  0.82552224  1
  Cr  Cr51  1  0.82417695  0.82441836  0.49165847  1
  Cr  Cr52  1  0.65838447  0.65759792  0.65773429  1
  Cr  Cr53  1  0.82463668  0.82529303  0.82699105  1
" 