5249,Fe91Cr9_15,-203.275340225148, 211.348766893882,Fe91Cr9,"# generated using pymatgen
 data_Cr49Fe5
_symmetry_space_group_name_H-M   'P 1'
_cell_length_a   7.59254936
_cell_length_b   7.59254936
_cell_length_c   10.73748627
_cell_angle_alpha   90.00000000
_cell_angle_beta   90.00000000
_cell_angle_gamma   90.00000000
_symmetry_Int_Tables_number   1
_chemical_formula_structural   Cr49Fe5
_chemical_formula_sum   'Cr49 Fe5'
_cell_volume   618.98178545
_cell_formula_units_Z   1
loop_
 _symmetry_equiv_pos_site_id
 _symmetry_equiv_pos_as_xyz
  1  'x, y, z'
loop_
 _atom_site_type_symbol
 _atom_site_label
 _atom_site_symmetry_multiplicity
 _atom_site_fract_x
 _atom_site_fract_y
 _atom_site_fract_z
 _atom_site_occupancy
  Cr  Cr0  1  0.99061938  -0.00819247  -0.00802674  1
  Cr  Cr1  1  0.15888412  0.15970527  0.15815826  1
  Cr  Cr2  1  0.99060729  -0.00713303  0.32453488  1
  Cr  Cr3  1  -0.00796469  0.32601949  -0.00690318  1
  Fe  Fe4  1  0.15843002  0.49177256  0.15768836  1
  Cr  Cr5  1  0.99091986  0.32498065  0.32421751  1
  Fe  Fe6  1  0.99137109  0.65807894  -0.00790826  1
  Cr  Cr7  1  0.15696077  0.82454167  0.15860991  1
  Cr  Cr8  1  -0.00634909  0.65735923  0.32458090  1
  Cr  Cr9  1  0.32550329  0.99125909  0.99084863  1
  Cr  Cr10  1  0.49092154  0.15940797  0.15815927  1
  Cr  Cr11  1  0.32550308  0.99013453  0.32566978  1
  Fe  Fe12  1  0.32472051  0.32535052  -0.00790604  1
  Cr  Cr13  1  0.49144558  0.49096741  0.15748147  1
  Cr  Cr14  1  0.32438831  0.32691238  0.32377450  1
  Cr  Cr15  1  0.32439366  0.65708718  -0.00758092  1
  Cr  Cr16  1  0.49285126  0.82482312  0.15860810  1
  Cr  Cr17  1  0.32439368  0.65816495  0.32571021  1
  Cr  Cr18  1  0.65908164  -0.00820763  -0.00757684  1
  Fe  Fe19  1  0.82504364  0.15839490  0.15837134  1
  Cr  Cr20  1  0.65909393  -0.00713396  0.32408472  1
  Cr  Cr21  1  0.65878842  0.32490356  -0.00802941  1
  Cr  Cr22  1  0.82568693  0.49289615  0.15749346  1
  Cr  Cr23  1  0.65989490  0.32386816  0.32534062  1
  Fe  Fe24  1  0.65910360  0.65840764  -0.00824434  1
  Cr  Cr25  1  0.82539310  0.82401810  0.15704305  1
  Cr  Cr26  1  0.65716477  0.65847214  0.32570055  1
  Cr  Cr27  1  0.15885740  0.15796713  0.49261792  1
  Cr  Cr28  1  0.99171803  -0.00782250  0.65868656  1
  Cr  Cr29  1  0.15995548  0.15864432  0.82443095  1
  Cr  Cr30  1  0.15803735  0.49135721  0.49104092  1
  Cr  Cr31  1  0.99093284  0.32499377  0.65788241  1
  Cr  Cr32  1  0.15804229  0.49093152  0.82668853  1
  Cr  Cr33  1  0.15802040  0.82588102  0.49181290  1
  Cr  Cr34  1  -0.00744449  0.65803387  0.65865469  1
  Cr  Cr35  1  0.15692378  0.82562622  0.82478277  1
  Cr  Cr36  1  0.49091568  0.15876932  0.49181362  1
  Cr  Cr37  1  0.32508231  0.99055491  0.65868741  1
  Cr  Cr38  1  0.48981747  0.15944698  0.82523553  1
  Cr  Cr39  1  0.49253785  0.49135755  0.49181301  1
  Cr  Cr40  1  0.32506500  0.32581461  0.65945949  1
  Cr  Cr41  1  0.49253988  0.49093864  0.82591857  1
  Cr  Cr42  1  0.49175282  0.82507877  0.49100923  1
  Cr  Cr43  1  0.32506486  0.65883669  0.65707765  1
  Cr  Cr44  1  0.49285859  0.82481534  0.82559527  1
  Cr  Cr45  1  0.82543281  0.15875253  0.49104156  1
  Cr  Cr46  1  0.65840525  -0.00782204  0.65868583  1
  Cr  Cr47  1  0.82543228  0.15833106  0.82443495  1
  Cr  Cr48  1  0.82463026  0.49219464  0.49261757  1
  Cr  Cr49  1  0.65920758  0.32497643  0.65788244  1
  Cr  Cr50  1  0.82462324  0.49397044  0.82510396  1
  Cr  Cr51  1  0.82543230  0.82425865  0.49181373  1
  Cr  Cr52  1  0.65758540  0.65805113  0.65865461  1
  Cr  Cr53  1  0.82542376  0.82290427  0.82635910  1
" 