2578,Fe91Cr9_5,-203.375605984107, 212.14199227617,Fe91Cr9,"# generated using pymatgen
 data_Cr49Fe5
_symmetry_space_group_name_H-M   'P 1'
_cell_length_a   7.59297388
_cell_length_b   7.59297388
_cell_length_c   10.73808664
_cell_angle_alpha   90.00000000
_cell_angle_beta   90.00000000
_cell_angle_gamma   90.00000000
_symmetry_Int_Tables_number   1
_chemical_formula_structural   Cr49Fe5
_chemical_formula_sum   'Cr49 Fe5'
_cell_volume   619.08561847
_cell_formula_units_Z   1
loop_
 _symmetry_equiv_pos_site_id
 _symmetry_equiv_pos_as_xyz
  1  'x, y, z'
loop_
 _atom_site_type_symbol
 _atom_site_label
 _atom_site_symmetry_multiplicity
 _atom_site_fract_x
 _atom_site_fract_y
 _atom_site_fract_z
 _atom_site_occupancy
  Cr  Cr0  1  -0.00721093  0.99170181  -0.00787801  1
  Cr  Cr1  1  0.15889350  0.15931522  0.15859504  1
  Cr  Cr2  1  -0.00724184  0.99127006  0.32455058  1
  Cr  Cr3  1  0.99129736  0.32464040  0.99021485  1
  Cr  Cr4  1  0.15993621  0.49074580  0.15933920  1
  Cr  Cr5  1  -0.00771340  0.32504109  0.32571250  1
  Cr  Cr6  1  0.99129704  0.65878109  0.99170576  1
  Cr  Cr7  1  0.15861059  0.82506326  0.15829850  1
  Cr  Cr8  1  0.99126669  0.65881169  0.32538381  1
  Cr  Cr9  1  0.32422639  -0.00829013  0.99170563  1
  Cr  Cr10  1  0.49108374  0.15959711  0.15931385  1
  Cr  Cr11  1  0.32485260  -0.00666714  0.32526214  1
  Cr  Cr12  1  0.32601457  0.32492865  -0.00727536  1
  Fe  Fe13  1  0.49137962  0.49138013  0.15870483  1
  Fe  Fe14  1  0.32568887  0.32505144  0.32504984  1
  Cr  Cr15  1  0.32600633  0.65848494  0.99129034  1
  Cr  Cr16  1  0.49211412  0.82403665  0.15755295  1
  Cr  Cr17  1  0.32560507  0.65749501  0.32463841  1
  Cr  Cr18  1  0.65810727  -0.00829026  0.99098821  1
  Cr  Cr19  1  0.82514426  0.15827064  0.15755283  1
  Cr  Cr20  1  0.65751065  -0.00769365  0.32672638  1
  Cr  Cr21  1  0.65781208  0.32641960  -0.00799333  1
  Cr  Cr22  1  0.82411954  0.49177298  0.15829851  1
  Cr  Cr23  1  0.65618903  0.32579271  0.32496143  1
  Cr  Cr24  1  0.65781904  0.65699299  -0.00650136  1
  Cr  Cr25  1  0.82439813  0.82507968  0.15871511  1
  Cr  Cr26  1  0.65825139  0.65702462  0.32317501  1
  Cr  Cr27  1  0.15951256  0.15974633  0.48991830  1
  Cr  Cr28  1  -0.00823951  0.99133118  0.65845036  1
  Cr  Cr29  1  0.15789554  0.15911881  0.82660973  1
  Cr  Cr30  1  0.15953130  0.49141020  0.49212975  1
  Cr  Cr31  1  0.99129788  0.32544231  0.65919569  1
  Cr  Cr32  1  0.15894103  0.49200891  0.82365135  1
  Cr  Cr33  1  0.15924455  0.82396665  0.49200900  1
  Cr  Cr34  1  -0.00766325  0.65835015  0.65803388  1
  Cr  Cr35  1  0.15967982  0.82399410  0.82481215  1
  Fe  Fe36  1  0.49170014  0.15837820  0.49171113  1
  Cr  Cr37  1  0.32625961  0.99132530  0.65815572  1
  Cr  Cr38  1  0.49274694  0.15733165  0.82410070  1
  Cr  Cr39  1  0.49003768  0.49113437  0.49099241  1
  Cr  Cr40  1  0.32597634  0.32470432  0.65743901  1
  Cr  Cr41  1  0.49066043  0.49275432  0.82553149  1
  Cr  Cr42  1  0.49211461  0.82603335  0.49380213  1
  Fe  Fe43  1  0.32503673  0.65834411  0.65835630  1
  Cr  Cr44  1  0.49170716  0.82503484  0.82376699  1
  Cr  Cr45  1  0.82348773  0.15766805  0.49242413  1
  Fe  Fe46  1  0.65807387  -0.00794852  0.65804924  1
  Cr  Cr47  1  0.82448327  0.15807154  0.82514876  1
  Cr  Cr48  1  0.82555360  0.49140348  0.49170587  1
  Cr  Cr49  1  0.65784818  0.32412674  0.65815517  1
  Cr  Cr50  1  0.82552226  0.49097164  0.82511880  1
  Cr  Cr51  1  0.82376648  0.82605104  0.49159044  1
  Cr  Cr52  1  0.65784570  0.65862678  0.65845031  1
  Cr  Cr53  1  0.82373780  0.82608017  0.82481993  1
" 