5811,Fe91Cr9_3,-203.412008040052, 212.835296991734,Fe91Cr9,"# generated using pymatgen
 data_Cr49Fe5
_symmetry_space_group_name_H-M   'P 1'
_cell_length_a   7.59222677
_cell_length_b   7.59222677
_cell_length_c   10.73703007
_cell_angle_alpha   90.00000000
_cell_angle_beta   90.00000000
_cell_angle_gamma   90.00000000
_symmetry_Int_Tables_number   1
_chemical_formula_structural   Cr49Fe5
_chemical_formula_sum   'Cr49 Fe5'
_cell_volume   618.90289266
_cell_formula_units_Z   1
loop_
 _symmetry_equiv_pos_site_id
 _symmetry_equiv_pos_as_xyz
  1  'x, y, z'
loop_
 _atom_site_type_symbol
 _atom_site_label
 _atom_site_symmetry_multiplicity
 _atom_site_fract_x
 _atom_site_fract_y
 _atom_site_fract_z
 _atom_site_occupancy
  Cr  Cr0  1  -0.00800848  0.99006546  0.99124294  1
  Cr  Cr1  1  0.15743815  0.15978819  0.15751055  1
  Cr  Cr2  1  0.99175019  0.99008712  0.32526746  1
  Fe  Fe3  1  -0.00802842  0.32506912  0.99173716  1
  Cr  Cr4  1  0.15801568  0.49013231  0.15812189  1
  Cr  Cr5  1  0.99172068  0.32632004  0.32364731  1
  Cr  Cr6  1  0.99123740  0.65872359  -0.00775477  1
  Cr  Cr7  1  0.15999102  0.82524263  0.16044215  1
  Cr  Cr8  1  0.99174439  0.65888257  0.32528366  1
  Cr  Cr9  1  0.32464167  -0.00793104  -0.00775647  1
  Cr  Cr10  1  0.49207527  0.15794764  0.15934543  1
  Cr  Cr11  1  0.32574959  -0.00712340  0.32390420  1
  Cr  Cr12  1  0.32562236  0.32523084  -0.00775557  1
  Cr  Cr13  1  0.49258465  0.49325329  0.15805672  1
  Cr  Cr14  1  0.32765408  0.32535601  0.32615586  1
  Cr  Cr15  1  0.32406149  0.65797130  0.99130805  1
  Cr  Cr16  1  0.49254607  0.82411777  0.15643066  1
  Cr  Cr17  1  0.32489578  0.65694499  0.32581760  1
  Cr  Cr18  1  0.65866871  0.99168948  0.99124988  1
  Cr  Cr19  1  0.82577470  0.15975785  0.15820736  1
  Cr  Cr20  1  0.65767532  -0.00703395  0.32598308  1
  Cr  Cr21  1  0.65763687  0.32583109  0.99124901  1
  Cr  Cr22  1  0.82458602  0.49078752  0.15665048  1
  Cr  Cr23  1  0.65578679  0.32529220  0.32824740  1
  Fe  Fe24  1  0.65843583  0.65843865  0.99163689  1
  Cr  Cr25  1  0.82265681  0.82467939  0.15905918  1
  Cr  Cr26  1  0.65870317  0.65702139  0.32386835  1
  Cr  Cr27  1  0.15833415  0.15883599  0.49125322  1
  Cr  Cr28  1  0.99148692  0.99034127  0.65875881  1
  Cr  Cr29  1  0.15766135  0.15986375  0.82659512  1
  Cr  Cr30  1  0.15987341  0.49177569  0.49269573  1
  Cr  Cr31  1  0.99145669  0.32604191  0.66035559  1
  Cr  Cr32  1  0.15879317  0.49094199  0.82458713  1
  Cr  Cr33  1  0.16056928  0.82474956  0.49259007  1
  Cr  Cr34  1  -0.00774683  0.65887431  0.65773477  1
  Cr  Cr35  1  0.16082828  0.82438518  0.82221225  1
  Fe  Fe36  1  0.49086433  0.15798438  0.49188110  1
  Cr  Cr37  1  0.32561544  -0.00722049  0.65924253  1
  Cr  Cr38  1  0.49176082  0.15792490  0.82463402  1
  Fe  Fe39  1  0.49136924  0.49267549  0.49213249  1
  Cr  Cr40  1  0.32761542  0.32610347  0.65687401  1
  Cr  Cr41  1  0.49166179  0.49387445  0.82455002  1
  Cr  Cr42  1  0.49109012  0.82403683  0.49243753  1
  Fe  Fe43  1  0.32622406  0.65773680  0.65794547  1
  Cr  Cr44  1  0.49175842  0.82364727  0.82629234  1
  Cr  Cr45  1  0.82521615  0.15885470  0.49194810  1
  Cr  Cr46  1  0.65804719  -0.00695067  0.65817512  1
  Cr  Cr47  1  0.82584492  0.15986973  0.82519753  1
  Cr  Cr48  1  0.82484246  0.49120492  0.49127043  1
  Cr  Cr49  1  0.65609852  0.32525455  0.65582083  1
  Cr  Cr50  1  0.82483351  0.49087854  0.82735081  1
  Cr  Cr51  1  0.82373993  0.82522914  0.49126274  1
  Cr  Cr52  1  0.65857630  0.65690292  0.65905297  1
  Cr  Cr53  1  0.82279842  0.82447064  0.82482202  1
" 