8859,Fe91Cr9_17,-203.391589488737, 211.107431282768,Fe91Cr9,"# generated using pymatgen
 data_Cr49Fe5
_symmetry_space_group_name_H-M   'P 1'
_cell_length_a   7.59484681
_cell_length_b   7.59484681
_cell_length_c   10.74073537
_cell_angle_alpha   90.00000000
_cell_angle_beta   90.00000000
_cell_angle_gamma   90.00000000
_symmetry_Int_Tables_number   1
_chemical_formula_structural   Cr49Fe5
_chemical_formula_sum   'Cr49 Fe5'
_cell_volume   619.54385535
_cell_formula_units_Z   1
loop_
 _symmetry_equiv_pos_site_id
 _symmetry_equiv_pos_as_xyz
  1  'x, y, z'
loop_
 _atom_site_type_symbol
 _atom_site_label
 _atom_site_symmetry_multiplicity
 _atom_site_fract_x
 _atom_site_fract_y
 _atom_site_fract_z
 _atom_site_occupancy
  Cr  Cr0  1  -0.00807226  -0.00793675  0.99156062  1
  Cr  Cr1  1  0.15835847  0.15769450  0.15771995  1
  Fe  Fe2  1  -0.00809020  0.99065152  0.32524244  1
  Cr  Cr3  1  -0.00808414  0.32525829  0.99041847  1
  Cr  Cr4  1  0.15836932  0.49214880  0.15772082  1
  Cr  Cr5  1  0.99151754  0.32525968  0.32484399  1
  Cr  Cr6  1  0.99117833  0.65743769  -0.00768975  1
  Cr  Cr7  1  0.15657697  0.82491674  0.16024184  1
  Fe  Fe8  1  -0.00808378  0.65918578  0.32524893  1
  Cr  Cr9  1  0.32562733  0.99101845  0.99128715  1
  Cr  Cr10  1  0.49125759  0.15873246  0.15859545  1
  Cr  Cr11  1  0.32340061  0.99105898  0.32513630  1
  Cr  Cr12  1  0.32384438  0.32450901  -0.00691129  1
  Cr  Cr13  1  0.49124519  0.49110983  0.15859555  1
  Cr  Cr14  1  0.32470363  0.32450905  0.32409409  1
  Cr  Cr15  1  0.32562888  0.65923358  0.99056347  1
  Cr  Cr16  1  0.49199475  0.82491702  0.15670292  1
  Cr  Cr17  1  0.32340513  0.65919268  0.32585997  1
  Cr  Cr18  1  0.65720316  0.99027966  0.99053573  1
  Cr  Cr19  1  0.82514277  0.15694653  0.15846919  1
  Cr  Cr20  1  0.65879547  0.99134549  0.32484427  1
  Cr  Cr21  1  0.65899912  0.32525793  -0.00766132  1
  Cr  Cr22  1  0.82514621  0.49288728  0.15847259  1
  Cr  Cr23  1  0.65853837  0.32525793  0.32526416  1
  Cr  Cr24  1  0.65795244  0.65922131  0.99128561  1
  Cr  Cr25  1  0.82618510  0.82492648  0.15951811  1
  Cr  Cr26  1  0.65954926  0.65815569  0.32409403  1
  Cr  Cr27  1  0.15795622  0.15671165  0.49128940  1
  Cr  Cr28  1  -0.00748016  0.99147112  0.65731482  1
  Cr  Cr29  1  0.15816002  0.15835365  0.82574544  1
  Cr  Cr30  1  0.15899891  0.49376025  0.49233862  1
  Cr  Cr31  1  0.99148670  0.32522696  0.65949710  1
  Cr  Cr32  1  0.15919902  0.49211809  0.82469994  1
  Fe  Fe33  1  0.15794032  0.82460479  0.49127361  1
  Cr  Cr34  1  -0.00720654  0.65806222  0.65731379  1
  Cr  Cr35  1  0.15947282  0.82428483  0.82397474  1
  Cr  Cr36  1  0.49168695  0.15876480  0.49116846  1
  Cr  Cr37  1  0.32500530  0.98939978  0.65833989  1
  Cr  Cr38  1  0.49165533  0.15733581  0.82499563  1
  Cr  Cr39  1  0.49064831  0.49170675  0.49221385  1
  Cr  Cr40  1  0.32424242  0.32549321  0.65757654  1
  Cr  Cr41  1  0.49061545  0.49314205  0.82394906  1
  Cr  Cr42  1  0.49038665  0.82428485  0.49335964  1
  Fe  Fe43  1  0.32491484  0.65889292  0.65824918  1
  Fe  Fe44  1  0.49125477  0.82459955  0.82458909  1
  Cr  Cr45  1  0.82511417  0.15697484  0.49171142  1
  Cr  Cr46  1  0.65723561  0.99071051  0.65937874  1
  Cr  Cr47  1  0.82494439  0.15760413  0.82457539  1
  Cr  Cr48  1  0.82511278  0.49245629  0.49129240  1
  Cr  Cr49  1  0.65903045  0.32522688  0.65715637  1
  Cr  Cr50  1  0.82494440  0.49182806  0.82499538  1
  Cr  Cr51  1  0.82717538  0.82532896  0.48949174  1
  Cr  Cr52  1  0.65696063  0.65882306  0.65937941  1
  Cr  Cr53  1  0.82392365  0.82532685  0.82574550  1
" 