4131,Fe92Cr8_4,-203.24210211649, 211.595500513338,Fe92Cr8,"# generated using pymatgen
 data_Cr49Fe5
_symmetry_space_group_name_H-M   'P 1'
_cell_length_a   7.59293575
_cell_length_b   7.59293575
_cell_length_c   10.73803271
_cell_angle_alpha   90.00000000
_cell_angle_beta   90.00000000
_cell_angle_gamma   90.00000000
_symmetry_Int_Tables_number   1
_chemical_formula_structural   Cr49Fe5
_chemical_formula_sum   'Cr49 Fe5'
_cell_volume   619.07629129
_cell_formula_units_Z   1
loop_
 _symmetry_equiv_pos_site_id
 _symmetry_equiv_pos_as_xyz
  1  'x, y, z'
loop_
 _atom_site_type_symbol
 _atom_site_label
 _atom_site_symmetry_multiplicity
 _atom_site_fract_x
 _atom_site_fract_y
 _atom_site_fract_z
 _atom_site_occupancy
  Cr  Cr0  1  -0.00822156  0.99137242  0.99132454  1
  Cr  Cr1  1  0.15837396  0.15837026  0.15786236  1
  Cr  Cr2  1  0.99103468  -0.00796260  0.32557414  1
  Cr  Cr3  1  0.99103399  0.32545775  -0.00719394  1
  Cr  Cr4  1  0.15838524  0.49171395  0.15786250  1
  Cr  Cr5  1  -0.00762947  0.32546309  0.32590661  1
  Cr  Cr6  1  -0.00822163  0.65830034  -0.00794942  1
  Cr  Cr7  1  0.15837408  0.82504625  0.15671388  1
  Cr  Cr8  1  0.99103345  0.65763156  0.32485158  1
  Cr  Cr9  1  0.32538957  0.99137228  -0.00794953  1
  Cr  Cr10  1  0.49201791  0.15808130  0.15853011  1
  Cr  Cr11  1  0.32613972  -0.00796405  0.32484630  1
  Cr  Cr12  1  0.32537885  0.32470279  -0.00794927  1
  Cr  Cr13  1  0.49201521  0.49201127  0.15852660  1
  Cr  Cr14  1  0.32404120  0.32470997  0.32666326  1
  Cr  Cr15  1  0.32463478  0.65905543  0.99129536  1
  Cr  Cr16  1  0.49231890  0.82503741  0.16034766  1
  Cr  Cr17  1  0.32537399  0.65838458  0.32560824  1
  Cr  Cr18  1  0.65796242  -0.00788340  -0.00797913  1
  Cr  Cr19  1  0.82473947  0.15807142  0.15852877  1
  Fe  Fe20  1  0.65838755  0.99108150  0.32506778  1
  Cr  Cr21  1  0.65871770  0.32470290  0.99054002  1
  Cr  Cr22  1  0.82472948  0.49201213  0.15852781  1
  Cr  Cr23  1  0.65871714  0.32470126  0.32455011  1
  Cr  Cr24  1  0.65871745  0.65831106  0.99126611  1
  Cr  Cr25  1  0.82443779  0.82504635  0.16034732  1
  Fe  Fe26  1  0.65838285  0.65900898  0.32506283  1
  Fe  Fe27  1  0.15804823  0.15867250  0.49202470  1
  Fe  Fe28  1  -0.00796478  -0.00796817  0.65802505  1
  Cr  Cr29  1  0.15773366  0.15732726  0.82450486  1
  Fe  Fe30  1  0.15836246  0.49109358  0.49170528  1
  Cr  Cr31  1  -0.00768909  0.32444991  0.65641407  1
  Cr  Cr32  1  0.15878744  0.49211665  0.82556400  1
  Cr  Cr33  1  0.15773570  0.82568136  0.49318538  1
  Cr  Cr34  1  -0.00798658  0.65867149  0.65822839  1
  Cr  Cr35  1  0.15773400  0.82568606  0.82523064  1
  Cr  Cr36  1  0.49104674  0.15845632  0.49107088  1
  Cr  Cr37  1  0.32414575  -0.00799125  0.65822907  1
  Cr  Cr38  1  0.49177852  0.15912516  0.82553484  1
  Cr  Cr39  1  0.49103628  0.49204228  0.49149240  1
  Cr  Cr40  1  0.32413312  0.32473792  0.65641281  1
  Cr  Cr41  1  0.49177835  0.49137244  0.82511221  1
  Cr  Cr42  1  0.49237768  0.82463073  0.49000879  1
  Cr  Cr43  1  0.32443033  0.65838407  0.65822660  1
  Cr  Cr44  1  0.49103446  0.82463290  0.82477927  1
  Cr  Cr45  1  0.82635453  0.15740698  0.49213088  1
  Cr  Cr46  1  0.65897196  -0.00828604  0.65889072  1
  Cr  Cr47  1  0.82561817  0.15807161  0.82447523  1
  Cr  Cr48  1  0.82530061  0.49204346  0.49106876  1
  Cr  Cr49  1  0.65868516  0.32473520  0.66003975  1
  Cr  Cr50  1  0.82456490  0.49137265  0.82553457  1
  Cr  Cr51  1  0.82501859  0.82567966  0.49106821  1
  Cr  Cr52  1  0.65868538  0.65868148  0.65889099  1
  Cr  Cr53  1  0.82636345  0.82568731  0.82371877  1
" 