1380,Fe92Cr8_7,-203.363586064167, 212.508435204438,Fe92Cr8,"# generated using pymatgen
 data_Cr49Fe5
_symmetry_space_group_name_H-M   'P 1'
_cell_length_a   7.59310625
_cell_length_b   7.59310625
_cell_length_c   10.73827384
_cell_angle_alpha   90.00000000
_cell_angle_beta   90.00000000
_cell_angle_gamma   90.00000000
_symmetry_Int_Tables_number   1
_chemical_formula_structural   Cr49Fe5
_chemical_formula_sum   'Cr49 Fe5'
_cell_volume   619.11799694
_cell_formula_units_Z   1
loop_
 _symmetry_equiv_pos_site_id
 _symmetry_equiv_pos_as_xyz
  1  'x, y, z'
loop_
 _atom_site_type_symbol
 _atom_site_label
 _atom_site_symmetry_multiplicity
 _atom_site_fract_x
 _atom_site_fract_y
 _atom_site_fract_z
 _atom_site_occupancy
  Cr  Cr0  1  0.99027768  -0.00691713  0.99092198  1
  Cr  Cr1  1  0.15862856  0.15801082  0.15890476  1
  Cr  Cr2  1  0.99016569  -0.00645117  0.32623608  1
  Cr  Cr3  1  0.99029585  0.32514571  -0.00696976  1
  Cr  Cr4  1  0.15711911  0.49217231  0.15748475  1
  Cr  Cr5  1  0.99017982  0.32432033  0.32412661  1
  Fe  Fe6  1  0.99119381  0.65820753  0.99166647  1
  Cr  Cr7  1  0.15671695  0.82497745  0.15756150  1
  Cr  Cr8  1  -0.00760812  0.65719360  0.32559140  1
  Cr  Cr9  1  0.32582098  0.99062923  0.99065438  1
  Cr  Cr10  1  0.49162718  0.15850860  0.15821794  1
  Cr  Cr11  1  0.32561351  0.99042815  0.32556014  1
  Cr  Cr12  1  0.32491537  0.32632565  0.99072864  1
  Cr  Cr13  1  0.49215275  0.49091237  0.15889715  1
  Cr  Cr14  1  0.32469812  0.32655449  0.32550321  1
  Cr  Cr15  1  0.32481691  0.65813091  -0.00759544  1
  Cr  Cr16  1  0.49215339  0.82567690  0.15889748  1
  Cr  Cr17  1  0.32559545  0.65812723  0.32485146  1
  Cr  Cr18  1  0.65910018  -0.00723895  -0.00690110  1
  Fe  Fe19  1  0.82563709  0.15802083  0.15826934  1
  Cr  Cr20  1  0.65940120  -0.00731485  0.32301531  1
  Cr  Cr21  1  0.65998968  0.32417821  -0.00685807  1
  Cr  Cr22  1  0.82572048  0.49272642  0.15760245  1
  Cr  Cr23  1  0.66029643  0.32427943  0.32298822  1
  Cr  Cr24  1  0.65746227  0.65811667  0.99071411  1
  Cr  Cr25  1  0.82612658  0.82444009  0.15767713  1
  Cr  Cr26  1  0.65710915  0.65811202  0.32651634  1
  Cr  Cr27  1  0.15994120  0.15886687  0.49263051  1
  Cr  Cr28  1  0.99122982  -0.00751183  0.65783173  1
  Cr  Cr29  1  0.15993371  0.15893641  0.82349056  1
  Cr  Cr30  1  0.15859155  0.49027316  0.49095020  1
  Cr  Cr31  1  0.99114076  0.32502036  0.65783706  1
  Cr  Cr32  1  0.15763824  0.49125056  0.82675715  1
  Cr  Cr33  1  0.15735578  0.82590189  0.49025037  1
  Cr  Cr34  1  -0.00794662  0.65760446  0.65880981  1
  Cr  Cr35  1  0.15641044  0.82494014  0.82744801  1
  Cr  Cr36  1  0.49101466  0.16002995  0.49326570  1
  Cr  Cr37  1  0.32522794  0.99077444  0.65888789  1
  Cr  Cr38  1  0.49103287  0.16018940  0.82346521  1
  Cr  Cr39  1  0.49326787  0.48994273  0.49385596  1
  Fe  Fe40  1  0.32519163  0.32539738  0.65837768  1
  Cr  Cr41  1  0.49316587  0.48976029  0.82227263  1
  Cr  Cr42  1  0.49326435  0.82509227  0.49102084  1
  Cr  Cr43  1  0.32620656  0.65756739  0.65783028  1
  Cr  Cr44  1  0.49317002  0.82509233  0.82526984  1
  Cr  Cr45  1  0.82410138  0.15887971  0.49097174  1
  Cr  Cr46  1  0.65862404  0.99156323  0.65888059  1
  Cr  Cr47  1  0.82409070  0.15894956  0.82516947  1
  Cr  Cr48  1  0.82324953  0.49247082  0.49344008  1
  Fe  Fe49  1  0.65809700  0.32552828  0.65838280  1
  Cr  Cr50  1  0.82419156  0.49318117  0.82424569  1
  Cr  Cr51  1  0.82454349  0.82374845  0.49268839  1
  Fe  Fe52  1  0.65832385  0.65799064  0.65846351  1
  Cr  Cr53  1  0.82548922  0.82304060  0.82499729  1
" 