6980,Fe92Cr8_14,-203.26663513918, 210.426646509416,Fe92Cr8,"# generated using pymatgen
 data_Cr49Fe5
_symmetry_space_group_name_H-M   'P 1'
_cell_length_a   7.59182704
_cell_length_b   7.59182704
_cell_length_c   10.73646476
_cell_angle_alpha   90.00000000
_cell_angle_beta   90.00000000
_cell_angle_gamma   90.00000000
_symmetry_Int_Tables_number   1
_chemical_formula_structural   Cr49Fe5
_chemical_formula_sum   'Cr49 Fe5'
_cell_volume   618.80514142
_cell_formula_units_Z   1
loop_
 _symmetry_equiv_pos_site_id
 _symmetry_equiv_pos_as_xyz
  1  'x, y, z'
loop_
 _atom_site_type_symbol
 _atom_site_label
 _atom_site_symmetry_multiplicity
 _atom_site_fract_x
 _atom_site_fract_y
 _atom_site_fract_z
 _atom_site_occupancy
  Cr  Cr0  1  -0.00699173  -0.00821801  -0.00821801  1
  Cr  Cr1  1  0.15867536  0.15848184  0.15808532  1
  Cr  Cr2  1  -0.00760858  -0.00818726  0.32544052  1
  Cr  Cr3  1  -0.00799896  0.32514087  -0.00750401  1
  Cr  Cr4  1  0.15866955  0.49238636  0.15866492  1
  Cr  Cr5  1  0.99139630  0.32530299  0.32461380  1
  Cr  Cr6  1  -0.00799896  0.65842311  0.99106799  1
  Cr  Cr7  1  0.15966085  0.82447633  0.15908752  1
  Cr  Cr8  1  -0.00761963  0.65823064  0.32532756  1
  Fe  Fe9  1  0.32510832  -0.00821801  -0.00821801  1
  Cr  Cr10  1  0.49187665  0.15776786  0.15737100  1
  Cr  Cr11  1  0.32472688  0.99082563  0.32403984  1
  Cr  Cr12  1  0.32511775  0.32414345  0.99109614  1
  Cr  Cr13  1  0.49116757  0.49238752  0.15935140  1
  Cr  Cr14  1  0.32571596  0.32628319  0.32600817  1
  Cr  Cr15  1  0.32511775  0.65942052  -0.00753216  1
  Cr  Cr16  1  0.49089116  0.82519055  0.15837323  1
  Fe  Fe17  1  0.32542184  0.65812883  0.32542991  1
  Cr  Cr18  1  0.65722948  0.99178199  -0.00821801  1
  Cr  Cr19  1  0.82479355  0.15875941  0.15877738  1
  Cr  Cr20  1  0.65822804  -0.00818725  0.32504097  1
  Cr  Cr21  1  0.65822719  0.32515065  -0.00750391  1
  Cr  Cr22  1  0.82550750  0.49140081  0.15795085  1
  Cr  Cr23  1  0.65823568  0.32629084  0.32560734  1
  Cr  Cr24  1  0.65822719  0.65841333  0.99106789  1
  Cr  Cr25  1  0.82479392  0.82518581  0.15837800  1
  Cr  Cr26  1  0.65724719  0.65724238  0.32632151  1
  Cr  Cr27  1  0.15866888  0.15963439  0.49278323  1
  Cr  Cr28  1  -0.00760858  0.99175124  0.65812346  1
  Cr  Cr29  1  0.15966085  0.15908765  0.82447646  1
  Cr  Cr30  1  0.15964488  0.49178199  0.49178199  1
  Cr  Cr31  1  -0.00761963  0.32533334  0.65823642  1
  Cr  Cr32  1  0.15866955  0.49117762  0.82489905  1
  Cr  Cr33  1  0.15866888  0.82392959  0.49078075  1
  Cr  Cr34  1  0.99139630  0.65826099  0.65895018  1
  Cr  Cr35  1  0.15867536  0.82508214  0.82547866  1
  Cr  Cr36  1  0.49185148  0.15989455  0.49278369  1
  Cr  Cr37  1  0.32472688  -0.00726165  0.65952414  1
  Cr  Cr38  1  0.49089116  0.15837343  0.82519075  1
  Fe  Fe39  1  0.49177022  0.49178199  0.49178199  1
  Fe  Fe40  1  0.32542184  0.32543515  0.65813407  1
  Cr  Cr41  1  0.49116757  0.49117646  0.82421258  1
  Cr  Cr42  1  0.49185148  0.82366943  0.49078029  1
  Cr  Cr43  1  0.32571596  0.65728079  0.65755581  1
  Cr  Cr44  1  0.49187665  0.82579612  0.82619297  1
  Cr  Cr45  1  0.82482506  0.15892122  0.49138261  1
  Cr  Cr46  1  0.65822804  0.99175123  0.65852301  1
  Cr  Cr47  1  0.82479392  0.15837817  0.82518598  1
  Fe  Fe48  1  0.82452393  0.49178199  0.49178199  1
  Cr  Cr49  1  0.65724719  0.32632160  0.65724246  1
  Cr  Cr50  1  0.82550750  0.49216317  0.82561313  1
  Cr  Cr51  1  0.82482506  0.82464276  0.49218137  1
  Cr  Cr52  1  0.65823568  0.65727314  0.65795664  1
  Cr  Cr53  1  0.82479355  0.82480457  0.82478660  1
" 