3495,Fe92Cr8_10,-203.406960946917, 213.216534517233,Fe92Cr8,"# generated using pymatgen
 data_Cr49Fe5
_symmetry_space_group_name_H-M   'P 1'
_cell_length_a   7.59454807
_cell_length_b   7.59454807
_cell_length_c   10.74031288
_cell_angle_alpha   90.00000000
_cell_angle_beta   90.00000000
_cell_angle_gamma   90.00000000
_symmetry_Int_Tables_number   1
_chemical_formula_structural   Cr49Fe5
_chemical_formula_sum   'Cr49 Fe5'
_cell_volume   619.47074765
_cell_formula_units_Z   1
loop_
 _symmetry_equiv_pos_site_id
 _symmetry_equiv_pos_as_xyz
  1  'x, y, z'
loop_
 _atom_site_type_symbol
 _atom_site_label
 _atom_site_symmetry_multiplicity
 _atom_site_fract_x
 _atom_site_fract_y
 _atom_site_fract_z
 _atom_site_occupancy
  Cr  Cr0  1  0.99160579  -0.00641987  0.98965573  1
  Cr  Cr1  1  0.15975096  0.15831787  0.15784135  1
  Cr  Cr2  1  0.99160579  -0.00785339  0.32448398  1
  Cr  Cr3  1  0.99160579  0.32323045  0.99032418  1
  Cr  Cr4  1  0.15725823  0.49267670  0.16002319  1
  Cr  Cr5  1  0.99160579  0.32437484  0.32511435  1
  Cr  Cr6  1  0.99160579  0.65798202  -0.00669827  1
  Cr  Cr7  1  0.15730887  0.82395636  0.15809636  1
  Fe  Fe8  1  0.99160579  0.65911924  0.32507029  1
  Cr  Cr9  1  0.32355875  0.99153660  -0.00772594  1
  Cr  Cr10  1  0.49160579  0.15828901  0.15935153  1
  Cr  Cr11  1  0.32479786  0.99009988  0.32570581  1
  Cr  Cr12  1  0.32406848  0.32581338  0.99092593  1
  Cr  Cr13  1  0.49160579  0.49013578  0.15601316  1
  Cr  Cr14  1  0.32442347  0.32570375  0.32449311  1
  Cr  Cr15  1  0.32617178  0.65764679  0.99070572  1
  Cr  Cr16  1  0.49160579  0.82640195  0.15768847  1
  Cr  Cr17  1  0.32610556  0.65871260  0.32548891  1
  Cr  Cr18  1  0.65965283  0.99153660  -0.00772594  1
  Cr  Cr19  1  0.82346062  0.15831787  0.15784135  1
  Cr  Cr20  1  0.65841372  0.99009988  0.32570581  1
  Cr  Cr21  1  0.65914310  0.32581338  0.99092593  1
  Cr  Cr22  1  0.82595335  0.49267670  0.16002319  1
  Cr  Cr23  1  0.65878811  0.32570375  0.32449311  1
  Cr  Cr24  1  0.65703980  0.65764679  0.99070572  1
  Cr  Cr25  1  0.82590271  0.82395636  0.15809636  1
  Cr  Cr26  1  0.65710602  0.65871260  0.32548891  1
  Cr  Cr27  1  0.15951436  0.15854204  0.49250214  1
  Cr  Cr28  1  0.99160579  -0.00647982  0.66089531  1
  Fe  Fe29  1  0.15884742  0.15810990  0.82490810  1
  Cr  Cr30  1  0.15720733  0.49237969  0.49046836  1
  Cr  Cr31  1  0.99160579  0.32304632  0.65959622  1
  Cr  Cr32  1  0.15835925  0.49190080  0.82444611  1
  Cr  Cr33  1  0.15756204  0.82410318  0.49145068  1
  Cr  Cr34  1  0.99160579  0.65825476  0.65698956  1
  Cr  Cr35  1  0.15801307  0.82483815  0.82538117  1
  Cr  Cr36  1  0.49160579  0.15754339  0.49008129  1
  Cr  Cr37  1  0.32437406  0.99071921  0.65671935  1
  Cr  Cr38  1  0.49160579  0.15884371  0.82537911  1
  Cr  Cr39  1  0.49160579  0.48973658  0.49345699  1
  Cr  Cr40  1  0.32413536  0.32553941  0.65940536  1
  Fe  Fe41  1  0.49160579  0.49167868  0.82480947  1
  Fe  Fe42  1  0.49160579  0.82438075  0.49166913  1
  Cr  Cr43  1  0.32669792  0.65839837  0.65830256  1
  Cr  Cr44  1  0.49160579  0.82645891  0.82455566  1
  Cr  Cr45  1  0.82369723  0.15854204  0.49250214  1
  Cr  Cr46  1  0.65883752  0.99071921  0.65671935  1
  Fe  Fe47  1  0.82436416  0.15810990  0.82490810  1
  Cr  Cr48  1  0.82600425  0.49237969  0.49046836  1
  Cr  Cr49  1  0.65907622  0.32553941  0.65940536  1
  Cr  Cr50  1  0.82485233  0.49190080  0.82444611  1
  Cr  Cr51  1  0.82564954  0.82410318  0.49145068  1
  Cr  Cr52  1  0.65651366  0.65839837  0.65830256  1
  Cr  Cr53  1  0.82519851  0.82483815  0.82538117  1
" 