4342,Fe92Cr8_19,-203.365459933871, 211.212156211635,Fe92Cr8,"# generated using pymatgen
 data_Cr49Fe5
_symmetry_space_group_name_H-M   'P 1'
_cell_length_a   7.59357915
_cell_length_b   7.59357915
_cell_length_c   10.73894262
_cell_angle_alpha   90.00000000
_cell_angle_beta   90.00000000
_cell_angle_gamma   90.00000000
_symmetry_Int_Tables_number   1
_chemical_formula_structural   Cr49Fe5
_chemical_formula_sum   'Cr49 Fe5'
_cell_volume   619.23368089
_cell_formula_units_Z   1
loop_
 _symmetry_equiv_pos_site_id
 _symmetry_equiv_pos_as_xyz
  1  'x, y, z'
loop_
 _atom_site_type_symbol
 _atom_site_label
 _atom_site_symmetry_multiplicity
 _atom_site_fract_x
 _atom_site_fract_y
 _atom_site_fract_z
 _atom_site_occupancy
  Cr  Cr0  1  0.99114021  0.99113211  0.99061452  1
  Cr  Cr1  1  0.15799729  0.15708150  0.16025967  1
  Fe  Fe2  1  -0.00763070  -0.00769587  0.32554577  1
  Cr  Cr3  1  0.99077429  0.32614381  -0.00798507  1
  Cr  Cr4  1  0.15825251  0.49141522  0.15677018  1
  Cr  Cr5  1  0.99158656  0.32499051  0.32569850  1
  Cr  Cr6  1  0.99109017  0.65776187  -0.00696815  1
  Cr  Cr7  1  0.15799421  0.82645241  0.15926384  1
  Cr  Cr8  1  0.99114680  0.65784918  0.32316013  1
  Cr  Cr9  1  0.32579678  0.99113447  0.99130238  1
  Cr  Cr10  1  0.49101880  0.15818008  0.15799845  1
  Fe  Fe11  1  0.32393577  -0.00775245  0.32544729  1
  Cr  Cr12  1  0.32493916  0.32492626  0.99062530  1
  Cr  Cr13  1  0.49155123  0.49117041  0.15852865  1
  Cr  Cr14  1  0.32422751  0.32378693  0.32700240  1
  Cr  Cr15  1  0.32466913  0.65895337  -0.00832658  1
  Cr  Cr16  1  0.49072593  0.82569520  0.15909390  1
  Cr  Cr17  1  0.32465219  0.65907627  0.32448661  1
  Cr  Cr18  1  0.65806761  0.99140907  0.99065214  1
  Cr  Cr19  1  0.82592683  0.15809981  0.15790363  1
  Cr  Cr20  1  0.65787571  0.99166417  0.32449661  1
  Cr  Cr21  1  0.65932662  0.32502633  -0.00585025  1
  Fe  Fe22  1  0.82531362  0.49167209  0.15863893  1
  Cr  Cr23  1  0.65928210  0.32521397  0.32306918  1
  Cr  Cr24  1  0.65926373  0.65861841  -0.00693887  1
  Cr  Cr25  1  0.82622087  0.82601271  0.15899519  1
  Cr  Cr26  1  0.65922533  0.65820225  0.32483228  1
  Fe  Fe27  1  0.15815838  0.15709569  0.49063865  1
  Cr  Cr28  1  -0.00765549  -0.00788294  0.65769108  1
  Cr  Cr29  1  0.15771896  0.15877360  0.82484310  1
  Cr  Cr30  1  0.15860177  0.49141448  0.49269646  1
  Cr  Cr31  1  -0.00743551  0.32438265  0.65763866  1
  Cr  Cr32  1  0.15860946  0.49165345  0.82550549  1
  Cr  Cr33  1  0.15762766  0.82712969  0.48860040  1
  Cr  Cr34  1  -0.00820519  0.65854507  0.65884949  1
  Cr  Cr35  1  0.15771444  0.82456373  0.82656224  1
  Cr  Cr36  1  0.49097375  0.15821124  0.49019808  1
  Cr  Cr37  1  0.32490597  -0.00794050  0.65773019  1
  Cr  Cr38  1  0.49218853  0.15941087  0.82656010  1
  Cr  Cr39  1  0.49228353  0.49227868  0.49344740  1
  Cr  Cr40  1  0.32405175  0.32380966  0.65768080  1
  Cr  Cr41  1  0.49209643  0.49185191  0.82323393  1
  Cr  Cr42  1  0.49199252  0.82440920  0.49173794  1
  Cr  Cr43  1  0.32478297  0.65917472  0.65884631  1
  Cr  Cr44  1  0.49246820  0.82367258  0.82421129  1
  Cr  Cr45  1  0.82656752  0.15730806  0.49121443  1
  Cr  Cr46  1  0.65780157  0.99106804  0.65988723  1
  Cr  Cr47  1  0.82510431  0.15851114  0.82550894  1
  Cr  Cr48  1  0.82411013  0.49227691  0.49242321  1
  Cr  Cr49  1  0.65842674  0.32402579  0.65778924  1
  Cr  Cr50  1  0.82430248  0.49185429  0.82425470  1
  Cr  Cr51  1  0.82529067  0.82529257  0.49277436  1
  Fe  Fe52  1  0.65842625  0.65843225  0.65811849  1
  Cr  Cr53  1  0.82482190  0.82455703  0.82314111  1
" 