4305,Fe92Cr8_18,-203.235521546406, 211.379863348739,Fe92Cr8,"# generated using pymatgen
 data_Cr49Fe5
_symmetry_space_group_name_H-M   'P 1'
_cell_length_a   7.59366791
_cell_length_b   7.59366791
_cell_length_c   10.73906814
_cell_angle_alpha   90.00000000
_cell_angle_beta   90.00000000
_cell_angle_gamma   90.00000000
_symmetry_Int_Tables_number   1
_chemical_formula_structural   Cr49Fe5
_chemical_formula_sum   'Cr49 Fe5'
_cell_volume   619.25539444
_cell_formula_units_Z   1
loop_
 _symmetry_equiv_pos_site_id
 _symmetry_equiv_pos_as_xyz
  1  'x, y, z'
loop_
 _atom_site_type_symbol
 _atom_site_label
 _atom_site_symmetry_multiplicity
 _atom_site_fract_x
 _atom_site_fract_y
 _atom_site_fract_z
 _atom_site_occupancy
  Cr  Cr0  1  0.99122455  -0.00763115  0.99155590  1
  Cr  Cr1  1  0.15898574  0.15722874  0.15988564  1
  Fe  Fe2  1  -0.00770473  0.99164703  0.32501108  1
  Cr  Cr3  1  -0.00798157  0.32507516  0.99158552  1
  Cr  Cr4  1  0.15899150  0.49101015  0.15845109  1
  Cr  Cr5  1  -0.00631467  0.32472148  0.32522809  1
  Cr  Cr6  1  -0.00798149  0.65754452  0.99158586  1
  Cr  Cr7  1  0.15789995  0.82674655  0.15878930  1
  Cr  Cr8  1  -0.00738896  0.65792339  0.32601106  1
  Cr  Cr9  1  0.32578713  0.99158714  0.99077344  1
  Cr  Cr10  1  0.48999118  0.15910777  0.15957167  1
  Fe  Fe11  1  0.32433219  -0.00768197  0.32501123  1
  Cr  Cr12  1  0.32421130  0.32507509  -0.00766255  1
  Cr  Cr13  1  0.49186068  0.49100150  0.15813274  1
  Fe  Fe14  1  0.32469123  0.32470475  0.32534450  1
  Cr  Cr15  1  0.32499351  0.65832621  0.99080348  1
  Cr  Cr16  1  0.49106474  0.82487937  0.15847965  1
  Cr  Cr17  1  0.32436581  0.65762969  0.32601163  1
  Cr  Cr18  1  0.65797684  0.99158642  0.99158555  1
  Cr  Cr19  1  0.82601200  0.15801891  0.15848495  1
  Cr  Cr20  1  0.65801564  0.99155398  0.32457273  1
  Cr  Cr21  1  0.65875839  0.32428098  0.99161542  1
  Cr  Cr22  1  0.82413952  0.49208471  0.15704279  1
  Cr  Cr23  1  0.65773094  0.32393254  0.32488839  1
  Cr  Cr24  1  0.65797634  0.65912046  -0.00684976  1
  Cr  Cr25  1  0.82602278  0.82488292  0.15892123  1
  Cr  Cr26  1  0.65801058  0.65950219  0.32413522  1
  Cr  Cr27  1  0.15898512  0.15785087  0.48924772  1
  Cr  Cr28  1  0.99084220  -0.00766479  0.65851468  1
  Cr  Cr29  1  0.15833241  0.15747293  0.82585707  1
  Fe  Fe30  1  0.15866580  0.49131084  0.49131764  1
  Cr  Cr31  1  0.99162315  0.32573422  0.65817432  1
  Cr  Cr32  1  0.15833247  0.49208476  0.82510483  1
  Cr  Cr33  1  0.15790012  0.82570712  0.49078129  1
  Cr  Cr34  1  -0.00728783  0.65691615  0.65738988  1
  Cr  Cr35  1  0.15832030  0.82543072  0.82541950  1
  Cr  Cr36  1  0.49069382  0.15974006  0.49144527  1
  Cr  Cr37  1  0.32616975  0.99155394  0.65929723  1
  Cr  Cr38  1  0.49197561  0.15936315  0.82397188  1
  Cr  Cr39  1  0.49148443  0.49033978  0.49209688  1
  Cr  Cr40  1  0.32459958  0.32573561  0.65742050  1
  Cr  Cr41  1  0.49276587  0.49099159  0.82475784  1
  Cr  Cr42  1  0.49068309  0.82491187  0.49143427  1
  Cr  Cr43  1  0.32430007  0.65769766  0.65817226  1
  Cr  Cr44  1  0.49089109  0.82463660  0.82507490  1
  Cr  Cr45  1  0.82530961  0.15865531  0.49253248  1
  Cr  Cr46  1  0.65797685  -0.00735282  0.65882988  1
  Cr  Cr47  1  0.82467921  0.15935237  0.82397056  1
  Cr  Cr48  1  0.82451043  0.49141966  0.49318783  1
  Fe  Fe49  1  0.65831814  0.32499879  0.65829765  1
  Cr  Cr50  1  0.82388905  0.49100215  0.82475644  1
  Cr  Cr51  1  0.82640448  0.82491538  0.49099265  1
  Cr  Cr52  1  0.65797680  0.65849026  0.65770324  1
  Cr  Cr53  1  0.82577686  0.82463692  0.82507508  1
" 