8676,Fe92Cr8_12,-203.394946256752, 212.168122744978,Fe92Cr8,"# generated using pymatgen
 data_Cr49Fe5
_symmetry_space_group_name_H-M   'P 1'
_cell_length_a   7.59502423
_cell_length_b   7.59502423
_cell_length_c   10.74098628
_cell_angle_alpha   90.00000000
_cell_angle_beta   90.00000000
_cell_angle_gamma   90.00000000
_symmetry_Int_Tables_number   1
_chemical_formula_structural   Cr49Fe5
_chemical_formula_sum   'Cr49 Fe5'
_cell_volume   619.58727441
_cell_formula_units_Z   1
loop_
 _symmetry_equiv_pos_site_id
 _symmetry_equiv_pos_as_xyz
  1  'x, y, z'
loop_
 _atom_site_type_symbol
 _atom_site_label
 _atom_site_symmetry_multiplicity
 _atom_site_fract_x
 _atom_site_fract_y
 _atom_site_fract_z
 _atom_site_occupancy
  Cr  Cr0  1  -0.00812524  0.99088640  -0.00802392  1
  Cr  Cr1  1  0.15879517  0.15730360  0.15959568  1
  Cr  Cr2  1  -0.00712028  0.99124090  0.32337360  1
  Cr  Cr3  1  -0.00812547  0.32454739  0.99127166  1
  Cr  Cr4  1  0.15879673  0.49252539  0.15754488  1
  Cr  Cr5  1  -0.00812619  0.32460907  0.32521823  1
  Cr  Cr6  1  -0.00784345  0.65929078  -0.00802426  1
  Cr  Cr7  1  0.15909291  0.82489439  0.15783702  1
  Cr  Cr8  1  0.99114474  0.65887501  0.32483503  1
  Cr  Cr9  1  0.32418171  0.99132417  -0.00805083  1
  Cr  Cr10  1  0.49135423  0.15800829  0.15886202  1
  Fe  Fe11  1  0.32522710  0.99125658  0.32522620  1
  Cr  Cr12  1  0.32562738  0.32556154  0.99124501  1
  Cr  Cr13  1  0.49133596  0.49181020  0.15681389  1
  Cr  Cr14  1  0.32524233  0.32360398  0.32483514  1
  Fe  Fe15  1  0.32491111  0.65825633  0.99157484  1
  Cr  Cr16  1  0.49033903  0.82490743  0.15854024  1
  Cr  Cr17  1  0.32552577  0.65942860  0.32588052  1
  Cr  Cr18  1  0.65866829  -0.00839748  0.99054182  1
  Cr  Cr19  1  0.82457806  0.15830693  0.15816187  1
  Cr  Cr20  1  0.65705310  0.99095595  0.32583039  1
  Cr  Cr21  1  0.65722316  0.32527643  -0.00729311  1
  Cr  Cr22  1  0.82459188  0.49150688  0.15898105  1
  Cr  Cr23  1  0.65760821  0.32533902  0.32337332  1
  Cr  Cr24  1  0.65765704  0.65784544  -0.00802408  1
  Cr  Cr25  1  0.82529373  0.82491130  0.15784031  1
  Cr  Cr26  1  0.65805446  0.65842847  0.32585446  1
  Cr  Cr27  1  0.15852817  0.15834024  0.49117359  1
  Cr  Cr28  1  0.99093519  -0.00777723  0.65937574  1
  Cr  Cr29  1  0.15755170  0.15893144  0.82395140  1
  Cr  Cr30  1  0.15752176  0.49125097  0.49261090  1
  Fe  Fe31  1  -0.00839622  0.32492494  0.65823594  1
  Cr  Cr32  1  0.15856600  0.49190976  0.82457624  1
  Cr  Cr33  1  0.15982964  0.82513361  0.49014560  1
  Cr  Cr34  1  0.99120658  0.65789699  0.65791364  1
  Cr  Cr35  1  0.15887087  0.82388551  0.82674496  1
  Cr  Cr36  1  0.49158064  0.15603323  0.49116717  1
  Cr  Cr37  1  0.32579864  -0.00834495  0.65691941  1
  Cr  Cr38  1  0.49258971  0.15762048  0.82468831  1
  Cr  Cr39  1  0.49157210  0.49253367  0.49117211  1
  Cr  Cr40  1  0.32422853  0.32460898  0.65864474  1
  Cr  Cr41  1  0.49055857  0.49220250  0.82674638  1
  Fe  Fe42  1  0.49157028  0.82553461  0.49157907  1
  Cr  Cr43  1  0.32552443  0.65845820  0.65832943  1
  Cr  Cr44  1  0.49156594  0.82490530  0.82460485  1
  Cr  Cr45  1  0.82461617  0.15834518  0.49322317  1
  Fe  Fe46  1  0.65789446  0.99123996  0.65792402  1
  Cr  Cr47  1  0.82458133  0.15792508  0.82333679  1
  Cr  Cr48  1  0.82563000  0.49123842  0.49178995  1
  Cr  Cr49  1  0.65855417  0.32434084  0.65864472  1
  Cr  Cr50  1  0.82559932  0.49088383  0.82395381  1
  Cr  Cr51  1  0.82332656  0.82514353  0.49219519  1
  Cr  Cr52  1  0.65799345  0.65946367  0.65689357  1
  Cr  Cr53  1  0.82428889  0.82591662  0.82468670  1
" 