1326,Fe92Cr8_16,-203.271550701878, 212.175858190038,Fe92Cr8,"# generated using pymatgen
 data_Cr49Fe5
_symmetry_space_group_name_H-M   'P 1'
_cell_length_a   7.59329389
_cell_length_b   7.59329389
_cell_length_c   10.73853921
_cell_angle_alpha   90.00000000
_cell_angle_beta   90.00000000
_cell_angle_gamma   90.00000000
_symmetry_Int_Tables_number   1
_chemical_formula_structural   Cr49Fe5
_chemical_formula_sum   'Cr49 Fe5'
_cell_volume   619.16389772
_cell_formula_units_Z   1
loop_
 _symmetry_equiv_pos_site_id
 _symmetry_equiv_pos_as_xyz
  1  'x, y, z'
loop_
 _atom_site_type_symbol
 _atom_site_label
 _atom_site_symmetry_multiplicity
 _atom_site_fract_x
 _atom_site_fract_y
 _atom_site_fract_z
 _atom_site_occupancy
  Cr  Cr0  1  -0.00793443  0.99097231  -0.00811659  1
  Cr  Cr1  1  0.15707717  0.15817680  0.16004978  1
  Fe  Fe2  1  -0.00798983  -0.00799735  0.32468808  1
  Cr  Cr3  1  0.99055191  0.32512625  0.99158157  1
  Cr  Cr4  1  0.15812691  0.49163859  0.15857162  1
  Fe  Fe5  1  -0.00829506  0.32438449  0.32501651  1
  Cr  Cr6  1  -0.00764211  0.65896336  0.99115766  1
  Fe  Fe7  1  0.15800844  0.82535867  0.15867796  1
  Cr  Cr8  1  -0.00767167  0.65899126  0.32437861  1
  Cr  Cr9  1  0.32506101  0.99097227  -0.00733287  1
  Cr  Cr10  1  0.49202196  0.15740111  0.15687327  1
  Cr  Cr11  1  0.32305944  0.99093920  0.32437820  1
  Cr  Cr12  1  0.32581485  0.32437164  0.99088392  1
  Cr  Cr13  1  0.49096480  0.49240423  0.15835897  1
  Cr  Cr14  1  0.32487359  0.32437214  0.32540927  1
  Cr  Cr15  1  0.32400743  0.65971929  -0.00657606  1
  Cr  Cr16  1  0.49174325  0.82525269  0.15729880  1
  Cr  Cr17  1  0.32410051  0.65975021  0.32362255  1
  Fe  Fe18  1  0.65836356  0.99168470  -0.00829428  1
  Cr  Cr19  1  0.82596410  0.15740233  0.15898863  1
  Cr  Cr20  1  0.65890501  -0.00725333  0.32546474  1
  Cr  Cr21  1  0.65869353  0.32406913  -0.00796775  1
  Cr  Cr22  1  0.82597239  0.49135960  0.15899723  1
  Cr  Cr23  1  0.65967962  0.32512651  0.32501489  1
  Cr  Cr24  1  0.65869353  0.65820153  0.99161027  1
  Cr  Cr25  1  0.82519574  0.82629640  0.15792994  1
  Cr  Cr26  1  0.65863037  0.65718792  0.32619182  1
  Cr  Cr27  1  0.15772076  0.15942103  0.49146895  1
  Cr  Cr28  1  -0.00758618  0.99157867  0.65804281  1
  Cr  Cr29  1  0.15899773  0.15982853  0.82353967  1
  Cr  Cr30  1  0.15877128  0.48998901  0.49252548  1
  Cr  Cr31  1  -0.00805512  0.32509490  0.65879701  1
  Cr  Cr32  1  0.15900580  0.49062207  0.82396334  1
  Cr  Cr33  1  0.15771320  0.82565340  0.49073508  1
  Cr  Cr34  1  0.99165872  0.65838686  0.65952341  1
  Cr  Cr35  1  0.15794714  0.82461174  0.82533194  1
  Cr  Cr36  1  0.49070183  0.15865911  0.49282875  1
  Cr  Cr37  1  0.32467782  -0.00736404  0.65801368  1
  Cr  Cr38  1  0.49134744  0.15801293  0.82536106  1
  Cr  Cr39  1  0.49069333  0.49179163  0.49240476  1
  Fe  Fe40  1  0.32501747  0.32500899  0.65834334  1
  Cr  Cr41  1  0.49028748  0.49138573  0.82429503  1
  Cr  Cr42  1  0.49251563  0.82461174  0.49209660  1
  Cr  Cr43  1  0.32467761  0.65809228  0.65801349  1
  Cr  Cr44  1  0.49316075  0.82566106  0.82567018  1
  Cr  Cr45  1  0.82663931  0.15760429  0.48964858  1
  Cr  Cr46  1  0.65796990  -0.00765673  0.65873974  1
  Cr  Cr47  1  0.82471621  0.15695268  0.82642701  1
  Cr  Cr48  1  0.82559866  0.49179612  0.49070464  1
  Cr  Cr49  1  0.65766873  0.32509531  0.65801367  1
  Cr  Cr50  1  0.82576713  0.49243589  0.82536055  1
  Cr  Cr51  1  0.82482954  0.82566013  0.49188655  1
  Cr  Cr52  1  0.65872498  0.65762229  0.65725843  1
  Cr  Cr53  1  0.82395420  0.82566978  0.82524687  1
" 