5731,Fe92Cr8_17,-203.372203873323, 211.128195120107,Fe92Cr8,"# generated using pymatgen
 data_Cr49Fe5
_symmetry_space_group_name_H-M   'P 1'
_cell_length_a   7.59439149
_cell_length_b   7.59439149
_cell_length_c   10.74009145
_cell_angle_alpha   90.00000000
_cell_angle_beta   90.00000000
_cell_angle_gamma   90.00000000
_symmetry_Int_Tables_number   1
_chemical_formula_structural   Cr49Fe5
_chemical_formula_sum   'Cr49 Fe5'
_cell_volume   619.43243476
_cell_formula_units_Z   1
loop_
 _symmetry_equiv_pos_site_id
 _symmetry_equiv_pos_as_xyz
  1  'x, y, z'
loop_
 _atom_site_type_symbol
 _atom_site_label
 _atom_site_symmetry_multiplicity
 _atom_site_fract_x
 _atom_site_fract_y
 _atom_site_fract_z
 _atom_site_occupancy
  Cr  Cr0  1  0.99130400  -0.00722381  -0.00737128  1
  Cr  Cr1  1  0.15767395  0.15870712  0.15700275  1
  Cr  Cr2  1  -0.00807915  0.99113766  0.32451236  1
  Cr  Cr3  1  0.99129294  0.32378709  -0.00737232  1
  Cr  Cr4  1  0.15796565  0.49217899  0.15915955  1
  Cr  Cr5  1  0.99085050  0.32477263  0.32343521  1
  Cr  Cr6  1  0.99161482  0.65828541  0.99076379  1
  Cr  Cr7  1  0.15796573  0.82395861  0.15990694  1
  Fe  Fe8  1  -0.00742749  0.65861329  0.32525418  1
  Cr  Cr9  1  0.32424764  0.99091819  0.99076327  1
  Cr  Cr10  1  0.49230643  0.15793375  0.15821034  1
  Cr  Cr11  1  0.32363364  0.98927603  0.32637551  1
  Cr  Cr12  1  0.32425991  0.32564415  0.99076337  1
  Cr  Cr13  1  0.49093088  0.49187206  0.15885840  1
  Cr  Cr14  1  0.32470387  0.32663403  0.32529844  1
  Cr  Cr15  1  0.32579497  0.65828543  -0.00805815  1
  Cr  Cr16  1  0.49170430  0.82504216  0.15808403  1
  Fe  Fe17  1  0.32396684  0.65861082  0.32528341  1
  Cr  Cr18  1  0.65929619  0.99124137  -0.00737078  1
  Fe  Fe19  1  0.82496138  0.15827642  0.15830280  1
  Cr  Cr20  1  0.65929502  -0.00828272  0.32420769  1
  Cr  Cr21  1  0.65929488  0.32533367  -0.00737189  1
  Cr  Cr22  1  0.82594856  0.49158040  0.15885176  1
  Cr  Cr23  1  0.65929437  0.32526994  0.32464233  1
  Cr  Cr24  1  0.65743812  0.65827328  0.99076390  1
  Cr  Cr25  1  0.82517489  0.82533861  0.15807728  1
  Cr  Cr26  1  0.65742741  0.65786214  0.32452412  1
  Cr  Cr27  1  0.15912750  0.15769724  0.49246816  1
  Cr  Cr28  1  -0.00739039  0.99043555  0.65771148  1
  Cr  Cr29  1  0.15912752  0.15870694  0.82537637  1
  Cr  Cr30  1  0.15727253  0.49382720  0.49061622  1
  Cr  Cr31  1  0.99154182  0.32547694  0.65878610  1
  Cr  Cr32  1  0.15727631  0.49150479  0.82506708  1
  Fe  Fe33  1  0.15793827  0.82395537  0.49128041  1
  Fe  Fe34  1  -0.00803772  0.65860842  0.65796347  1
  Cr  Cr35  1  0.15727491  0.82463450  0.82432051  1
  Cr  Cr36  1  0.49129575  0.15796634  0.49246849  1
  Cr  Cr37  1  0.32363669  0.99071879  0.65771288  1
  Cr  Cr38  1  0.49085159  0.15793333  0.82416886  1
  Cr  Cr39  1  0.49099644  0.49139477  0.49061367  1
  Cr  Cr40  1  0.32470306  0.32520026  0.65878587  1
  Cr  Cr41  1  0.49161349  0.49118874  0.82537670  1
  Cr  Cr42  1  0.49072600  0.82548595  0.49061289  1
  Cr  Cr43  1  0.32411873  0.65892950  0.65774099  1
  Cr  Cr44  1  0.49238679  0.82572579  0.82615082  1
  Cr  Cr45  1  0.82442412  0.15796672  0.49128873  1
  Cr  Cr46  1  0.65860233  0.99102340  0.65801135  1
  Cr  Cr47  1  0.82486875  0.15793375  0.82534836  1
  Cr  Cr48  1  0.82657695  0.49324779  0.49247363  1
  Cr  Cr49  1  0.65860274  0.32596247  0.65757786  1
  Cr  Cr50  1  0.82595989  0.49304142  0.82351709  1
  Cr  Cr51  1  0.82685766  0.82363207  0.49247347  1
  Cr  Cr52  1  0.65888196  0.65786227  0.65956023  1
  Cr  Cr53  1  0.82518603  0.82387297  0.82429126  1
" 