423,Fe92Cr8_2,-203.408286986163, 211.692816182846,Fe92Cr8,"# generated using pymatgen
 data_Cr49Fe5
_symmetry_space_group_name_H-M   'P 1'
_cell_length_a   7.59341041
_cell_length_b   7.59341041
_cell_length_c   10.73870399
_cell_angle_alpha   90.00000000
_cell_angle_beta   90.00000000
_cell_angle_gamma   90.00000000
_symmetry_Int_Tables_number   1
_chemical_formula_structural   Cr49Fe5
_chemical_formula_sum   'Cr49 Fe5'
_cell_volume   619.19240122
_cell_formula_units_Z   1
loop_
 _symmetry_equiv_pos_site_id
 _symmetry_equiv_pos_as_xyz
  1  'x, y, z'
loop_
 _atom_site_type_symbol
 _atom_site_label
 _atom_site_symmetry_multiplicity
 _atom_site_fract_x
 _atom_site_fract_y
 _atom_site_fract_z
 _atom_site_occupancy
  Cr  Cr0  1  -0.00718173  -0.00823556  -0.00765838  1
  Fe  Fe1  1  0.15910586  0.15834611  0.15979138  1
  Cr  Cr2  1  -0.00678160  -0.00801348  0.32465944  1
  Cr  Cr3  1  -0.00718173  0.32492778  -0.00765838  1
  Cr  Cr4  1  0.15921731  0.49062742  0.15826175  1
  Cr  Cr5  1  -0.00678160  0.32470570  0.32465944  1
  Cr  Cr6  1  -0.00726335  0.65834611  -0.00772552  1
  Cr  Cr7  1  0.15921731  0.82606480  0.15826175  1
  Cr  Cr8  1  -0.00786672  0.65834611  0.32501464  1
  Cr  Cr9  1  0.32482470  -0.00814690  -0.00661224  1
  Cr  Cr10  1  0.48962413  0.15834611  0.15985196  1
  Fe  Fe11  1  0.32425064  -0.00749299  0.32449557  1
  Cr  Cr12  1  0.32482470  0.32483912  -0.00661224  1
  Cr  Cr13  1  0.49145672  0.49146200  0.15965241  1
  Fe  Fe14  1  0.32425064  0.32418521  0.32449557  1
  Cr  Cr15  1  0.32501680  0.65834611  0.98932513  1
  Cr  Cr16  1  0.49145672  0.82523022  0.15965241  1
  Cr  Cr17  1  0.32525169  0.65834611  0.32597444  1
  Cr  Cr18  1  0.65730366  0.99163890  0.99017812  1
  Cr  Cr19  1  0.82489315  0.15834611  0.15685688  1
  Cr  Cr20  1  0.65745479  0.99122976  0.32602850  1
  Cr  Cr21  1  0.65730366  0.32505332  0.99017812  1
  Cr  Cr22  1  0.82443953  0.49184826  0.15894115  1
  Cr  Cr23  1  0.65745479  0.32546246  0.32602850  1
  Cr  Cr24  1  0.65725742  0.65834611  -0.00607400  1
  Cr  Cr25  1  0.82443953  0.82484396  0.15894115  1
  Fe  Fe26  1  0.65812790  0.65834611  0.32493471  1
  Cr  Cr27  1  0.15979216  0.15834611  0.48905330  1
  Cr  Cr28  1  -0.00807796  0.99141705  0.65778591  1
  Cr  Cr29  1  0.15834136  0.15834611  0.82599364  1
  Cr  Cr30  1  0.15952476  0.49174661  0.49322638  1
  Cr  Cr31  1  -0.00807796  0.32527517  0.65778591  1
  Cr  Cr32  1  0.15899643  0.49229898  0.82343526  1
  Cr  Cr33  1  0.15952476  0.82494561  0.49322638  1
  Cr  Cr34  1  -0.00736922  0.65834611  0.65777646  1
  Cr  Cr35  1  0.15899643  0.82439324  0.82343526  1
  Cr  Cr36  1  0.49029310  0.15834611  0.49075830  1
  Cr  Cr37  1  0.32554865  0.99097017  0.65781879  1
  Cr  Cr38  1  0.49124190  0.15834611  0.82501402  1
  Cr  Cr39  1  0.49074764  0.49179687  0.49079409  1
  Cr  Cr40  1  0.32554865  0.32572205  0.65781879  1
  Cr  Cr41  1  0.49060322  0.49215015  0.82453829  1
  Cr  Cr42  1  0.49074764  0.82489535  0.49079409  1
  Fe  Fe43  1  0.32601008  0.65834611  0.65796089  1
  Cr  Cr44  1  0.49060322  0.82454207  0.82453829  1
  Cr  Cr45  1  0.82499886  0.15834611  0.49389615  1
  Cr  Cr46  1  0.65755467  0.99148309  0.65880397  1
  Cr  Cr47  1  0.82546846  0.15834611  0.82430120  1
  Cr  Cr48  1  0.82483820  0.49187122  0.49018686  1
  Cr  Cr49  1  0.65755467  0.32520913  0.65880397  1
  Cr  Cr50  1  0.82553341  0.49156879  0.82604369  1
  Cr  Cr51  1  0.82483820  0.82482100  0.49018686  1
  Cr  Cr52  1  0.65726024  0.65834611  0.65682728  1
  Cr  Cr53  1  0.82553341  0.82512343  0.82604369  1
" 