3430,Fe92Cr8_9,-203.279866860217, 211.718620580567,Fe92Cr8,"# generated using pymatgen
 data_Cr49Fe5
_symmetry_space_group_name_H-M   'P 1'
_cell_length_a   7.59251191
_cell_length_b   7.59251191
_cell_length_c   10.73743332
_cell_angle_alpha   90.00000000
_cell_angle_beta   90.00000000
_cell_angle_gamma   90.00000000
_symmetry_Int_Tables_number   1
_chemical_formula_structural   Cr49Fe5
_chemical_formula_sum   'Cr49 Fe5'
_cell_volume   618.97262744
_cell_formula_units_Z   1
loop_
 _symmetry_equiv_pos_site_id
 _symmetry_equiv_pos_as_xyz
  1  'x, y, z'
loop_
 _atom_site_type_symbol
 _atom_site_label
 _atom_site_symmetry_multiplicity
 _atom_site_fract_x
 _atom_site_fract_y
 _atom_site_fract_z
 _atom_site_occupancy
  Cr  Cr0  1  -0.00782738  0.99155432  0.99086251  1
  Cr  Cr1  1  0.15963579  0.15869526  0.15876494  1
  Cr  Cr2  1  -0.00782729  -0.00801354  0.32550449  1
  Cr  Cr3  1  0.99106861  0.32549625  0.99152586  1
  Cr  Cr4  1  0.15741542  0.49345748  0.15876539  1
  Cr  Cr5  1  0.99106674  0.32549803  0.32528671  1
  Fe  Fe6  1  0.99139548  0.65803903  -0.00793246  1
  Cr  Cr7  1  0.15660636  0.82305788  0.15796403  1
  Fe  Fe8  1  0.99139367  0.65806061  0.32474816  1
  Cr  Cr9  1  0.32395135  0.99104722  0.99166278  1
  Cr  Cr10  1  0.49206345  0.15980603  0.15796483  1
  Cr  Cr11  1  0.32463318  0.99036592  0.32583046  1
  Cr  Cr12  1  0.32505741  0.32600557  -0.00766095  1
  Fe  Fe13  1  0.49239733  0.49177877  0.15841548  1
  Cr  Cr14  1  0.32462877  0.32600304  0.32403038  1
  Cr  Cr15  1  0.32556363  0.65816404  0.99153436  1
  Cr  Cr16  1  0.49206283  0.82499472  0.15873492  1
  Cr  Cr17  1  0.32624392  0.65884637  0.32595911  1
  Cr  Cr18  1  0.65908865  0.99104785  0.99121511  1
  Cr  Cr19  1  0.82351386  0.15897729  0.15876500  1
  Cr  Cr20  1  0.65840578  0.99036560  0.32627917  1
  Cr  Cr21  1  0.65908736  0.32711051  -0.00654948  1
  Fe  Fe22  1  0.82509099  0.49244387  0.15841058  1
  Cr  Cr23  1  0.65951811  0.32710971  0.32291709  1
  Cr  Cr24  1  0.65858695  0.65705786  -0.00735268  1
  Cr  Cr25  1  0.82654444  0.82276150  0.15796410  1
  Cr  Cr26  1  0.65790770  0.65773907  0.32484516  1
  Cr  Cr27  1  0.15917501  0.15879845  0.49145794  1
  Cr  Cr28  1  -0.00825395  -0.00694916  0.65884567  1
  Cr  Cr29  1  0.15920904  0.15876465  0.82498991  1
  Cr  Cr30  1  0.15805189  0.49274496  0.49193944  1
  Cr  Cr31  1  0.99173486  0.32418735  0.65839827  1
  Cr  Cr32  1  0.15808320  0.49278031  0.82451033  1
  Cr  Cr33  1  0.15836274  0.82366995  0.49033981  1
  Cr  Cr34  1  0.99173482  0.65797474  0.65884543  1
  Cr  Cr35  1  0.15728212  0.82366582  0.82691203  1
  Cr  Cr36  1  0.49209794  0.15768107  0.49181100  1
  Cr  Cr37  1  0.32502900  0.99032925  0.65771679  1
  Cr  Cr38  1  0.49209804  0.15876452  0.82543717  1
  Cr  Cr39  1  0.49129838  0.49193220  0.49228867  1
  Cr  Cr40  1  0.32391718  0.32578683  0.65884583  1
  Cr  Cr41  1  0.49129830  0.49085493  0.82495871  1
  Fe  Fe42  1  0.49174378  0.82504719  0.49171151  1
  Cr  Cr43  1  0.32663785  0.65909591  0.65771842  1
  Cr  Cr44  1  0.49209783  0.82559299  0.82422087  1
  Cr  Cr45  1  0.82394016  0.15799889  0.49225805  1
  Cr  Cr46  1  0.65843722  0.99032784  0.65771583  1
  Cr  Cr47  1  0.82390577  0.15796494  0.82418988  1
  Cr  Cr48  1  0.82586416  0.49274632  0.49116990  1
  Cr  Cr49  1  0.65956093  0.32579831  0.65884583  1
  Cr  Cr50  1  0.82583271  0.49278166  0.82528018  1
  Cr  Cr51  1  0.82474781  0.82447005  0.49114004  1
  Cr  Cr52  1  0.65683932  0.65908568  0.65771749  1
  Cr  Cr53  1  0.82583271  0.82446605  0.82611190  1
" 