326,Fe92Cr8_11,-203.328801887417, 212.040989980456,Fe92Cr8,"# generated using pymatgen
 data_Cr49Fe5
_symmetry_space_group_name_H-M   'P 1'
_cell_length_a   7.59312024
_cell_length_b   7.59312024
_cell_length_c   10.73829363
_cell_angle_alpha   90.00000000
_cell_angle_beta   90.00000000
_cell_angle_gamma   90.00000000
_symmetry_Int_Tables_number   1
_chemical_formula_structural   Cr49Fe5
_chemical_formula_sum   'Cr49 Fe5'
_cell_volume   619.12141983
_cell_formula_units_Z   1
loop_
 _symmetry_equiv_pos_site_id
 _symmetry_equiv_pos_as_xyz
  1  'x, y, z'
loop_
 _atom_site_type_symbol
 _atom_site_label
 _atom_site_symmetry_multiplicity
 _atom_site_fract_x
 _atom_site_fract_y
 _atom_site_fract_z
 _atom_site_occupancy
  Cr  Cr0  1  -0.00823808  -0.00823427  -0.00795470  1
  Cr  Cr1  1  0.15801591  0.15828965  0.15676135  1
  Cr  Cr2  1  0.99097674  0.99037212  0.32418649  1
  Cr  Cr3  1  0.99069859  0.32562350  0.99096572  1
  Cr  Cr4  1  0.15848255  0.49158430  0.15967171  1
  Cr  Cr5  1  -0.00796647  0.32701578  0.32526016  1
  Cr  Cr6  1  0.99146556  0.65770617  0.99093726  1
  Cr  Cr7  1  0.15771822  0.82522166  0.15816835  1
  Fe  Fe8  1  0.99138111  0.65803050  0.32536809  1
  Cr  Cr9  1  0.32504211  0.99101040  -0.00761701  1
  Cr  Cr10  1  0.49128145  0.15905539  0.15826464  1
  Cr  Cr11  1  0.32610178  -0.00827418  0.32526229  1
  Cr  Cr12  1  0.32503148  0.32530566  -0.00718892  1
  Cr  Cr13  1  0.49234959  0.49235349  0.15817293  1
  Cr  Cr14  1  0.32503477  0.32564741  0.32633906  1
  Cr  Cr15  1  0.32502092  0.65877895  0.99127942  1
  Cr  Cr16  1  0.49235102  0.82368473  0.15817421  1
  Cr  Cr17  1  0.32396293  0.65772221  0.32525951  1
  Cr  Cr18  1  0.65829051  -0.00822335  -0.00795506  1
  Cr  Cr19  1  0.82579718  0.15828943  0.15786488  1
  Cr  Cr20  1  0.65801831  0.99143301  0.32568913  1
  Cr  Cr21  1  0.65936609  0.32560454  0.99096359  1
  Cr  Cr22  1  0.82426005  0.49265272  0.15927197  1
  Cr  Cr23  1  0.65802702  0.32487640  0.32526230  1
  Cr  Cr24  1  0.65860997  0.65771443  0.99093515  1
  Cr  Cr25  1  0.82502445  0.82415072  0.16077662  1
  Fe  Fe26  1  0.65899271  0.65834814  0.32504912  1
  Cr  Cr27  1  0.15905129  0.15931456  0.49246056  1
  Cr  Cr28  1  0.99135320  0.99135728  0.65886326  1
  Cr  Cr29  1  0.15763833  0.15825804  0.82587288  1
  Fe  Fe30  1  0.15800308  0.49206378  0.49136855  1
  Cr  Cr31  1  0.99134599  0.32667730  0.65887038  1
  Cr  Cr32  1  0.15809558  0.49134787  0.82437043  1
  Cr  Cr33  1  0.15768551  0.82416758  0.49181752  1
  Cr  Cr34  1  -0.00788818  0.65706178  0.65847107  1
  Cr  Cr35  1  0.15839371  0.82548848  0.82510695  1
  Fe  Fe36  1  0.49173856  0.15835039  0.49169040  1
  Cr  Cr37  1  0.32610570  0.99166550  0.65744550  1
  Cr  Cr38  1  0.49165867  0.15902333  0.82437052  1
  Cr  Cr39  1  0.49132077  0.49131265  0.49105421  1
  Cr  Cr40  1  0.32503950  0.32529779  0.65594172  1
  Cr  Cr41  1  0.49274189  0.49211372  0.82587269  1
  Cr  Cr42  1  0.49237788  0.82475044  0.49181845  1
  Cr  Cr43  1  0.32396609  0.65813229  0.65855684  1
  Cr  Cr44  1  0.49166903  0.82395757  0.82510703  1
  Cr  Cr45  1  0.82473374  0.15825761  0.49212321  1
  Cr  Cr46  1  0.65763693  -0.00757002  0.65735590  1
  Cr  Cr47  1  0.82579713  0.15932846  0.82510701  1
  Cr  Cr48  1  0.82531795  0.49268054  0.49071900  1
  Cr  Cr49  1  0.65871019  0.32454037  0.65886369  1
  Fe  Fe50  1  0.82503604  0.49169719  0.82501539  1
  Cr  Cr51  1  0.82502977  0.82415499  0.48997990  1
  Cr  Cr52  1  0.65901826  0.65812383  0.65997178  1
  Cr  Cr53  1  0.82503145  0.82441171  0.82434148  1
" 