6677,Fe92Cr8_0,-203.31860384465, 211.047328230571,Fe92Cr8,"# generated using pymatgen
 data_Cr49Fe5
_symmetry_space_group_name_H-M   'P 1'
_cell_length_a   7.59342695
_cell_length_b   7.59342695
_cell_length_c   10.73872738
_cell_angle_alpha   90.00000000
_cell_angle_beta   90.00000000
_cell_angle_gamma   90.00000000
_symmetry_Int_Tables_number   1
_chemical_formula_structural   Cr49Fe5
_chemical_formula_sum   'Cr49 Fe5'
_cell_volume   619.19644794
_cell_formula_units_Z   1
loop_
 _symmetry_equiv_pos_site_id
 _symmetry_equiv_pos_as_xyz
  1  'x, y, z'
loop_
 _atom_site_type_symbol
 _atom_site_label
 _atom_site_symmetry_multiplicity
 _atom_site_fract_x
 _atom_site_fract_y
 _atom_site_fract_z
 _atom_site_occupancy
  Cr  Cr0  1  -0.00738933  0.99160077  0.99160501  1
  Cr  Cr1  1  0.15823618  0.15988881  0.15970984  1
  Cr  Cr2  1  -0.00798744  -0.00806515  0.32497868  1
  Cr  Cr3  1  -0.00783757  0.32531357  0.99157752  1
  Cr  Cr4  1  0.15926311  0.49076074  0.15867616  1
  Fe  Fe5  1  -0.00769713  0.32501674  0.32500441  1
  Cr  Cr6  1  -0.00710173  0.65812093  0.99160499  1
  Cr  Cr7  1  0.15897516  0.82438533  0.15690652  1
  Cr  Cr8  1  0.99127544  0.65775586  0.32571478  1
  Cr  Cr9  1  0.32468101  0.99160430  0.99160494  1
  Cr  Cr10  1  0.49116116  0.15886224  0.15867644  1
  Cr  Cr11  1  0.32470989  -0.00702930  0.32541447  1
  Fe  Fe12  1  0.32500390  0.32563583  0.99167207  1
  Cr  Cr13  1  0.49013428  0.49178736  0.15764276  1
  Fe  Fe14  1  0.32438885  0.32501953  0.32502138  1
  Fe  Fe15  1  0.32500671  0.65770593  -0.00830674  1
  Cr  Cr16  1  0.49145127  0.82438573  0.15731772  1
  Cr  Cr17  1  0.32470992  0.65746187  0.32470572  1
  Cr  Cr18  1  0.65774349  -0.00766220  -0.00765893  1
  Cr  Cr19  1  0.82563667  0.15857112  0.15856185  1
  Cr  Cr20  1  0.65831374  0.99165203  0.32497976  1
  Cr  Cr21  1  0.65745184  0.32531361  0.99086900  1
  Cr  Cr22  1  0.82563708  0.49104911  0.15897318  1
  Cr  Cr23  1  0.65801582  0.32534239  0.32467852  1
  Cr  Cr24  1  0.65745805  0.65738378  -0.00765892  1
  Cr  Cr25  1  0.82460904  0.82541438  0.15864953  1
  Cr  Cr26  1  0.65905076  0.65804083  0.32571584  1
  Cr  Cr27  1  0.15804249  0.15929502  0.49042667  1
  Cr  Cr28  1  -0.00796026  0.99097192  0.65844983  1
  Cr  Cr29  1  0.15823698  0.15864343  0.82489965  1
  Cr  Cr30  1  0.15804677  0.49073045  0.49042680  1
  Cr  Cr31  1  0.99159863  0.32534243  0.65877903  1
  Cr  Cr32  1  0.15926622  0.49200638  0.82593343  1
  Cr  Cr33  1  0.15774878  0.82500976  0.49249186  1
  Cr  Cr34  1  0.99130235  0.65872105  0.65771369  1
  Cr  Cr35  1  0.15897559  0.82438498  0.82563715  1
  Cr  Cr36  1  0.49135630  0.15826801  0.49145846  1
  Cr  Cr37  1  0.32468095  -0.00799484  0.65801570  1
  Cr  Cr38  1  0.49178399  0.15863862  0.82490023  1
  Cr  Cr39  1  0.49135153  0.49175785  0.49145906  1
  Cr  Cr40  1  0.32541822  0.32460519  0.65834097  1
  Cr  Cr41  1  0.49075515  0.49201068  0.82593354  1
  Cr  Cr42  1  0.49268008  0.82500972  0.49208106  1
  Cr  Cr43  1  0.32468099  0.65842478  0.65872416  1
  Cr  Cr44  1  0.49105163  0.82438549  0.82563669  1
  Cr  Cr45  1  0.82563527  0.15796749  0.49146081  1
  Cr  Cr46  1  0.65831509  -0.00829154  0.65771301  1
  Cr  Cr47  1  0.82501371  0.15834730  0.82501382  1
  Cr  Cr48  1  0.82563577  0.49205207  0.49146030  1
  Cr  Cr49  1  0.65801841  0.32534247  0.65948748  1
  Cr  Cr50  1  0.82501367  0.49127332  0.82460302  1
  Fe  Fe51  1  0.82502300  0.82501509  0.49166743  1
  Cr  Cr52  1  0.65905237  0.65798440  0.65697688  1
  Cr  Cr53  1  0.82500825  0.82541443  0.82430489  1
" 