4148,Fe92Cr8_6,-203.435503551442, 211.755191807244,Fe92Cr8,"# generated using pymatgen
 data_Cr49Fe5
_symmetry_space_group_name_H-M   'P 1'
_cell_length_a   7.59480531
_cell_length_b   7.59480531
_cell_length_c   10.74067668
_cell_angle_alpha   90.00000000
_cell_angle_beta   90.00000000
_cell_angle_gamma   90.00000000
_symmetry_Int_Tables_number   1
_chemical_formula_structural   Cr49Fe5
_chemical_formula_sum   'Cr49 Fe5'
_cell_volume   619.53369876
_cell_formula_units_Z   1
loop_
 _symmetry_equiv_pos_site_id
 _symmetry_equiv_pos_as_xyz
  1  'x, y, z'
loop_
 _atom_site_type_symbol
 _atom_site_label
 _atom_site_symmetry_multiplicity
 _atom_site_fract_x
 _atom_site_fract_y
 _atom_site_fract_z
 _atom_site_occupancy
  Cr  Cr0  1  -0.00839509  -0.00818144  -0.00716514  1
  Cr  Cr1  1  0.15803999  0.15782573  0.15754069  1
  Cr  Cr2  1  0.99076114  0.99134136  0.32492247  1
  Cr  Cr3  1  -0.00644433  0.32608912  0.99052876  1
  Cr  Cr4  1  0.15909552  0.49267320  0.15809140  1
  Cr  Cr5  1  -0.00808247  0.32561006  0.32492247  1
  Cr  Cr6  1  -0.00834025  0.65681436  0.99083563  1
  Cr  Cr7  1  0.15905834  0.82432220  0.15967818  1
  Cr  Cr8  1  0.99064398  0.65781622  0.32492247  1
  Cr  Cr9  1  0.32547580  -0.00736505  -0.00815393  1
  Cr  Cr10  1  0.49206425  0.15967041  0.15804204  1
  Cr  Cr11  1  0.32609636  -0.00817694  0.32492247  1
  Cr  Cr12  1  0.32351697  0.32528750  0.98950931  1
  Cr  Cr13  1  0.49209830  0.49191780  0.16076349  1
  Cr  Cr14  1  0.32515322  0.32534525  0.32492247  1
  Cr  Cr15  1  0.32465308  0.65681216  -0.00823081  1
  Cr  Cr16  1  0.49016192  0.82321285  0.15830638  1
  Fe  Fe17  1  0.32543657  0.65830799  0.32492247  1
  Cr  Cr18  1  0.65766329  0.99078986  0.99141576  1
  Cr  Cr19  1  0.82471166  0.15962811  0.15868693  1
  Cr  Cr20  1  0.65791404  0.99056062  0.32492247  1
  Cr  Cr21  1  0.65765568  0.32530639  -0.00699272  1
  Cr  Cr22  1  0.82359055  0.49078662  0.15932730  1
  Fe  Fe23  1  0.65840443  0.32495348  0.32492247  1
  Cr  Cr24  1  0.65846339  0.65868409  0.99134883  1
  Cr  Cr25  1  0.82554099  0.82433330  0.15700068  1
  Fe  Fe26  1  0.65794852  0.65850584  0.32492247  1
  Cr  Cr27  1  0.15803999  0.15782573  0.49230426  1
  Cr  Cr28  1  -0.00839509  -0.00818144  0.65701008  1
  Fe  Fe29  1  0.15769317  0.15791221  0.82492247  1
  Cr  Cr30  1  0.15909552  0.49267320  0.49175354  1
  Cr  Cr31  1  -0.00644433  0.32608912  0.65931618  1
  Fe  Fe32  1  0.15834696  0.49150644  0.82492247  1
  Cr  Cr33  1  0.15905834  0.82432220  0.49016677  1
  Cr  Cr34  1  -0.00834025  0.65681436  0.65900931  1
  Cr  Cr35  1  0.15835394  0.82538588  0.82492247  1
  Cr  Cr36  1  0.49206425  0.15967041  0.49180291  1
  Cr  Cr37  1  0.32547580  -0.00736505  0.65799888  1
  Cr  Cr38  1  0.49136499  0.15867567  0.82492247  1
  Cr  Cr39  1  0.49209830  0.49191780  0.48908145  1
  Cr  Cr40  1  0.32351697  0.32528750  0.66033564  1
  Cr  Cr41  1  0.49135600  0.49136212  0.82492247  1
  Cr  Cr42  1  0.49016192  0.82321285  0.49153856  1
  Cr  Cr43  1  0.32465308  0.65681216  0.65807575  1
  Cr  Cr44  1  0.49032179  0.82472965  0.82492247  1
  Cr  Cr45  1  0.82471166  0.15962811  0.49115802  1
  Cr  Cr46  1  0.65766329  0.99078986  0.65842919  1
  Cr  Cr47  1  0.82572817  0.15867900  0.82492247  1
  Cr  Cr48  1  0.82359055  0.49078662  0.49051764  1
  Cr  Cr49  1  0.65765568  0.32530639  0.65683766  1
  Cr  Cr50  1  0.82506117  0.49067877  0.82492247  1
  Cr  Cr51  1  0.82554099  0.82433330  0.49284427  1
  Cr  Cr52  1  0.65846339  0.65868409  0.65849611  1
  Cr  Cr53  1  0.82609145  0.82540544  0.82492247  1
" 