41,Fe92Cr8_5,-203.361240555423, 211.278898273305,Fe92Cr8,"# generated using pymatgen
 data_Cr49Fe5
_symmetry_space_group_name_H-M   'P 1'
_cell_length_a   7.59388417
_cell_length_b   7.59388417
_cell_length_c   10.73937398
_cell_angle_alpha   90.00000000
_cell_angle_beta   90.00000000
_cell_angle_gamma   90.00000000
_symmetry_Int_Tables_number   1
_chemical_formula_structural   Cr49Fe5
_chemical_formula_sum   'Cr49 Fe5'
_cell_volume   619.30830395
_cell_formula_units_Z   1
loop_
 _symmetry_equiv_pos_site_id
 _symmetry_equiv_pos_as_xyz
  1  'x, y, z'
loop_
 _atom_site_type_symbol
 _atom_site_label
 _atom_site_symmetry_multiplicity
 _atom_site_fract_x
 _atom_site_fract_y
 _atom_site_fract_z
 _atom_site_occupancy
  Cr  Cr0  1  -0.00797109  0.99018962  0.99119938  1
  Cr  Cr1  1  0.15690057  0.15928833  0.15902418  1
  Cr  Cr2  1  -0.00823308  0.98967331  0.32444880  1
  Cr  Cr3  1  -0.00701489  0.32698405  -0.00676563  1
  Fe  Fe4  1  0.15887216  0.49252920  0.15882121  1
  Fe  Fe5  1  -0.00797868  0.32555428  0.32450209  1
  Cr  Cr6  1  -0.00789450  0.65787337  0.99127573  1
  Cr  Cr7  1  0.16046426  0.82325487  0.15825100  1
  Cr  Cr8  1  -0.00705326  0.65691742  0.32507845  1
  Cr  Cr9  1  0.32496806  -0.00765148  0.99119667  1
  Cr  Cr10  1  0.49156802  0.15839241  0.15832030  1
  Cr  Cr11  1  0.32541528  -0.00810243  0.32545097  1
  Cr  Cr12  1  0.32481353  0.32609083  0.99135355  1
  Cr  Cr13  1  0.49036168  0.49444493  0.15702604  1
  Cr  Cr14  1  0.32431565  0.32658186  0.32404608  1
  Fe  Fe15  1  0.32452595  0.65788935  -0.00813991  1
  Cr  Cr16  1  0.49038342  0.82227276  0.15768502  1
  Fe  Fe17  1  0.32488005  0.65788249  0.32442767  1
  Cr  Cr18  1  0.65795462  0.99123926  -0.00716624  1
  Cr  Cr19  1  0.82640912  0.15951604  0.15960843  1
  Cr  Cr20  1  0.65774170  0.99129041  0.32477086  1
  Cr  Cr21  1  0.65720522  0.32567665  0.99119269  1
  Cr  Cr22  1  0.82508823  0.49094352  0.15858510  1
  Cr  Cr23  1  0.65715386  0.32547850  0.32543246  1
  Fe  Fe24  1  0.65806812  0.65790103  -0.00809351  1
  Cr  Cr25  1  0.82423213  0.82427037  0.15706090  1
  Cr  Cr26  1  0.65926744  0.65820726  0.32547927  1
  Cr  Cr27  1  0.15691369  0.15871254  0.49205660  1
  Cr  Cr28  1  -0.00832936  0.98967409  0.65928082  1
  Cr  Cr29  1  0.15745991  0.15819091  0.82422001  1
  Cr  Cr30  1  0.15850041  0.49129812  0.48955246  1
  Cr  Cr31  1  -0.00766812  0.32685512  0.65834030  1
  Cr  Cr32  1  0.15912022  0.49222305  0.82569508  1
  Cr  Cr33  1  0.15945487  0.82485429  0.49185581  1
  Cr  Cr34  1  0.99153208  0.65844339  0.65831418  1
  Cr  Cr35  1  0.15963459  0.82464046  0.82463429  1
  Cr  Cr36  1  0.49130877  0.15866238  0.49209933  1
  Cr  Cr37  1  0.32552642  -0.00792976  0.65831669  1
  Cr  Cr38  1  0.49161112  0.15831681  0.82451991  1
  Cr  Cr39  1  0.49111800  0.49282113  0.49192463  1
  Cr  Cr40  1  0.32568686  0.32522969  0.65928656  1
  Cr  Cr41  1  0.49195698  0.49386899  0.82594027  1
  Cr  Cr42  1  0.49034671  0.82349895  0.49031138  1
  Cr  Cr43  1  0.32406333  0.65761864  0.65737207  1
  Cr  Cr44  1  0.49125148  0.82277609  0.82686679  1
  Cr  Cr45  1  0.82667634  0.15947600  0.49043222  1
  Cr  Cr46  1  0.65775785  0.99130821  0.65733241  1
  Cr  Cr47  1  0.82587629  0.15897779  0.82518301  1
  Cr  Cr48  1  0.82538730  0.49023472  0.49194726  1
  Cr  Cr49  1  0.65694402  0.32537293  0.65828623  1
  Cr  Cr50  1  0.82389565  0.49177238  0.82492726  1
  Cr  Cr51  1  0.82523086  0.82511318  0.49210198  1
  Cr  Cr52  1  0.65933092  0.65827505  0.65824341  1
  Cr  Cr53  1  0.82400277  0.82416015  0.82592100  1
" 