5058,Fe92Cr8_8,-203.335048076803, 210.538810474378,Fe92Cr8,"# generated using pymatgen
 data_Cr49Fe5
_symmetry_space_group_name_H-M   'P 1'
_cell_length_a   7.59468917
_cell_length_b   7.59468917
_cell_length_c   10.74051242
_cell_angle_alpha   90.00000000
_cell_angle_beta   90.00000000
_cell_angle_gamma   90.00000000
_symmetry_Int_Tables_number   1
_chemical_formula_structural   Cr49Fe5
_chemical_formula_sum   'Cr49 Fe5'
_cell_volume   619.50527631
_cell_formula_units_Z   1
loop_
 _symmetry_equiv_pos_site_id
 _symmetry_equiv_pos_as_xyz
  1  'x, y, z'
loop_
 _atom_site_type_symbol
 _atom_site_label
 _atom_site_symmetry_multiplicity
 _atom_site_fract_x
 _atom_site_fract_y
 _atom_site_fract_z
 _atom_site_occupancy
  Cr  Cr0  1  -0.00839779  -0.00775928  0.99065279  1
  Cr  Cr1  1  0.15856249  0.15797437  0.15905802  1
  Cr  Cr2  1  -0.00775303  0.99159618  0.32493180  1
  Cr  Cr3  1  0.99088299  0.32461053  0.99108676  1
  Cr  Cr4  1  0.15884842  0.49217547  0.15732172  1
  Cr  Cr5  1  0.99152582  0.32525363  0.32449969  1
  Cr  Cr6  1  -0.00711992  0.65794053  -0.00833268  1
  Cr  Cr7  1  0.15912063  0.82463943  0.15732025  1
  Cr  Cr8  1  0.99154048  0.65794018  0.32565453  1
  Cr  Cr9  1  0.32522191  0.98995054  -0.00731729  1
  Cr  Cr10  1  0.49158997  0.15768927  0.15905772  1
  Cr  Cr11  1  0.32521661  0.99129881  0.32464336  1
  Cr  Cr12  1  0.32493395  0.32588327  -0.00830643  1
  Cr  Cr13  1  0.49130439  0.49246066  0.15732191  1
  Cr  Cr14  1  0.32493385  0.32454687  0.32562648  1
  Fe  Fe15  1  0.32523925  0.65856049  -0.00811073  1
  Fe  Fe16  1  0.49129886  0.82462126  0.15794375  1
  Cr  Cr17  1  0.32521738  0.65894513  0.32394732  1
  Cr  Cr18  1  0.65796734  -0.00804599  0.99094488  1
  Cr  Cr19  1  0.82463751  0.15795955  0.15795774  1
  Cr  Cr20  1  0.65732573  0.99131256  0.32464265  1
  Cr  Cr21  1  0.65897284  0.32461087  0.99137692  1
  Cr  Cr22  1  0.82463768  0.49190392  0.15905798  1
  Cr  Cr23  1  0.65833056  0.32525353  0.32420928  1
  Cr  Cr24  1  0.65668812  0.65822812  -0.00803974  1
  Cr  Cr25  1  0.82435258  0.82492641  0.15905797  1
  Cr  Cr26  1  0.65803346  0.65822253  0.32536647  1
  Cr  Cr27  1  0.15898169  0.15916188  0.49209812  1
  Cr  Cr28  1  -0.00839486  -0.00725203  0.65920281  1
  Cr  Cr29  1  0.15763319  0.15916045  0.82363533  1
  Cr  Cr30  1  0.15827414  0.49037302  0.49282189  1
  Fe  Fe31  1  -0.00810755  0.32462616  0.65857816  1
  Cr  Cr32  1  0.15890349  0.49101648  0.82464576  1
  Cr  Cr33  1  0.15754514  0.82525338  0.49152228  1
  Cr  Cr34  1  -0.00811134  0.65739937  0.65746903  1
  Cr  Cr35  1  0.15818756  0.82461146  0.82594397  1
  Cr  Cr36  1  0.49059696  0.15888375  0.49181430  1
  Cr  Cr37  1  0.32463813  -0.00754424  0.65746860  1
  Cr  Cr38  1  0.49193964  0.15887727  0.82392383  1
  Cr  Cr39  1  0.49130327  0.49065238  0.49253705  1
  Fe  Fe40  1  0.32432472  0.32492647  0.65828335  1
  Cr  Cr41  1  0.49067064  0.49129891  0.82493351  1
  Cr  Cr42  1  0.49231117  0.82525348  0.49123151  1
  Cr  Cr43  1  0.32463797  0.65740756  0.65856944  1
  Cr  Cr44  1  0.49166823  0.82461115  0.82623440  1
  Cr  Cr45  1  0.82521147  0.15815408  0.49177957  1
  Cr  Cr46  1  0.65854715  -0.00752844  0.65920301  1
  Fe  Fe47  1  0.82523477  0.15858365  0.82462230  1
  Cr  Cr48  1  0.82521063  0.49208942  0.49108310  1
  Cr  Cr49  1  0.65855467  0.32464498  0.65920041  1
  Cr  Cr50  1  0.82521597  0.49074936  0.82464410  1
  Cr  Cr51  1  0.82493357  0.82454700  0.49120488  1
  Cr  Cr52  1  0.65826328  0.65767575  0.65746873  1
  Cr  Cr53  1  0.82493369  0.82588792  0.82452688  1
" 