2231,Fe92Cr8_15,-203.333765731857, 212.205104733854,Fe92Cr8,"# generated using pymatgen
 data_Cr49Fe5
_symmetry_space_group_name_H-M   'P 1'
_cell_length_a   7.59320055
_cell_length_b   7.59320055
_cell_length_c   10.73840720
_cell_angle_alpha   90.00000000
_cell_angle_beta   90.00000000
_cell_angle_gamma   90.00000000
_symmetry_Int_Tables_number   1
_chemical_formula_structural   Cr49Fe5
_chemical_formula_sum   'Cr49 Fe5'
_cell_volume   619.14106402
_cell_formula_units_Z   1
loop_
 _symmetry_equiv_pos_site_id
 _symmetry_equiv_pos_as_xyz
  1  'x, y, z'
loop_
 _atom_site_type_symbol
 _atom_site_label
 _atom_site_symmetry_multiplicity
 _atom_site_fract_x
 _atom_site_fract_y
 _atom_site_fract_z
 _atom_site_occupancy
  Cr  Cr0  1  0.99076545  -0.00759369  -0.00787351  1
  Cr  Cr1  1  0.15771059  0.15835760  0.15835538  1
  Cr  Cr2  1  0.99073324  -0.00762320  0.32423290  1
  Cr  Cr3  1  0.99076532  0.32475330  -0.00710600  1
  Cr  Cr4  1  0.15803618  0.49093349  0.15880004  1
  Cr  Cr5  1  0.99073311  0.32478272  0.32346529  1
  Cr  Cr6  1  0.99077013  0.65791948  0.99097356  1
  Cr  Cr7  1  0.15803044  0.82578799  0.15880005  1
  Cr  Cr8  1  -0.00814719  0.65791945  0.32618400  1
  Cr  Cr9  1  0.32571153  0.99128803  -0.00822948  1
  Cr  Cr10  1  0.49190527  0.15836343  0.15880003  1
  Cr  Cr11  1  0.32574243  0.99125688  0.32459009  1
  Cr  Cr12  1  0.32491346  0.32507330  0.99097353  1
  Cr  Cr13  1  0.49270028  0.49204500  0.15767760  1
  Cr  Cr14  1  0.32494430  0.32510431  0.32538706  1
  Cr  Cr15  1  0.32602788  0.65871782  0.99062124  1
  Cr  Cr16  1  0.49270080  0.82467027  0.15767708  1
  Cr  Cr17  1  0.32494446  0.65871783  0.32653640  1
  Cr  Cr18  1  0.65860090  0.99129143  -0.00707745  1
  Fe  Fe19  1  0.82501232  0.15835785  0.15835147  1
  Cr  Cr20  1  0.65860262  -0.00762391  0.32423297  1
  Cr  Cr21  1  0.65939915  0.32506779  -0.00787482  1
  Cr  Cr22  1  0.82434347  0.49172730  0.15767825  1
  Cr  Cr23  1  0.65940093  0.32398540  0.32503029  1
  Fe  Fe24  1  0.65837732  0.65836511  0.99167510  1
  Cr  Cr25  1  0.82434873  0.82499377  0.15767774  1
  Cr  Cr26  1  0.65828174  0.65871765  0.32461941  1
  Cr  Cr27  1  0.15812312  0.15768289  0.49192789  1
  Fe  Fe28  1  0.99103862  0.99167004  0.65836556  1
  Cr  Cr29  1  0.15812198  0.15768186  0.82479494  1
  Cr  Cr30  1  0.15843752  0.49176716  0.49045787  1
  Cr  Cr31  1  0.99037053  0.32442048  0.65871846  1
  Cr  Cr32  1  0.15843756  0.49133488  0.82582116  1
  Cr  Cr33  1  0.15732466  0.82562904  0.49157578  1
  Cr  Cr34  1  0.99148338  0.65899531  0.65792162  1
  Cr  Cr35  1  0.15732376  0.82606242  0.82470223  1
  Cr  Cr36  1  0.49260102  0.15880032  0.49304403  1
  Cr  Cr37  1  0.32570425  0.99165811  0.65871848  1
  Cr  Cr38  1  0.49216626  0.15880034  0.82323770  1
  Cr  Cr39  1  0.49229444  0.49065985  0.49157605  1
  Cr  Cr40  1  0.32601809  0.32473487  0.65871844  1
  Cr  Cr41  1  0.49297128  0.49134023  0.82582646  1
  Cr  Cr42  1  0.49229017  0.82561940  0.49112722  1
  Cr  Cr43  1  0.32491264  0.65868599  0.65792153  1
  Cr  Cr44  1  0.49296747  0.82493853  0.82627585  1
  Cr  Cr45  1  0.82435548  0.15768710  0.49339432  1
  Fe  Fe46  1  0.65903896  -0.00763685  0.65836997  1
  Cr  Cr47  1  0.82479152  0.15768618  0.82288663  1
  Cr  Cr48  1  0.82434671  0.49145768  0.49192868  1
  Fe  Fe49  1  0.65834226  0.32438454  0.65836988  1
  Cr  Cr50  1  0.82367009  0.49213774  0.82547363  1
  Cr  Cr51  1  0.82546509  0.82593481  0.49304299  1
  Cr  Cr52  1  0.65868299  0.65867913  0.65868936  1
  Cr  Cr53  1  0.82478907  0.82525531  0.82435882  1
" 