6109,Fe92Cr8_13,-203.35650863646, 211.612042705654,Fe92Cr8,"# generated using pymatgen
 data_Cr49Fe5
_symmetry_space_group_name_H-M   'P 1'
_cell_length_a   7.59428099
_cell_length_b   7.59428099
_cell_length_c   10.73993517
_cell_angle_alpha   90.00000000
_cell_angle_beta   90.00000000
_cell_angle_gamma   90.00000000
_symmetry_Int_Tables_number   1
_chemical_formula_structural   Cr49Fe5
_chemical_formula_sum   'Cr49 Fe5'
_cell_volume   619.40539493
_cell_formula_units_Z   1
loop_
 _symmetry_equiv_pos_site_id
 _symmetry_equiv_pos_as_xyz
  1  'x, y, z'
loop_
 _atom_site_type_symbol
 _atom_site_label
 _atom_site_symmetry_multiplicity
 _atom_site_fract_x
 _atom_site_fract_y
 _atom_site_fract_z
 _atom_site_occupancy
  Cr  Cr0  1  -0.00795874  -0.00795436  0.99076937  1
  Cr  Cr1  1  0.15832219  0.15894350  0.15709282  1
  Cr  Cr2  1  -0.00798998  0.99105920  0.32572820  1
  Cr  Cr3  1  -0.00826174  0.32511687  -0.00695094  1
  Cr  Cr4  1  0.15725911  0.49293298  0.16001441  1
  Cr  Cr5  1  -0.00829516  0.32652353  0.32387754  1
  Cr  Cr6  1  0.99019962  0.65770669  -0.00774968  1
  Cr  Cr7  1  0.15832446  0.82299331  0.15924390  1
  Fe  Fe8  1  -0.00807399  0.65795864  0.32462929  1
  Cr  Cr9  1  0.32453798  -0.00795487  -0.00836912  1
  Cr  Cr10  1  0.49235989  0.15818574  0.15829352  1
  Cr  Cr11  1  0.32498003  0.99104773  0.32529770  1
  Cr  Cr12  1  0.32484102  0.32511626  0.99089150  1
  Cr  Cr13  1  0.49157384  0.49185364  0.15819774  1
  Cr  Cr14  1  0.32422221  0.32546138  0.32495857  1
  Cr  Cr15  1  0.32637976  0.65770710  0.99009384  1
  Cr  Cr16  1  0.49127765  0.82482878  0.15894052  1
  Fe  Fe17  1  0.32433036  0.65826690  0.32495309  1
  Cr  Cr18  1  0.65828958  0.99050657  -0.00726010  1
  Cr  Cr19  1  0.82418787  0.15924597  0.15752355  1
  Cr  Cr20  1  0.65787892  0.99057063  0.32495855  1
  Cr  Cr21  1  0.65828884  0.32695624  -0.00800276  1
  Fe  Fe22  1  0.82527359  0.49196526  0.15861807  1
  Cr  Cr23  1  0.65894059  0.32624363  0.32462088  1
  Cr  Cr24  1  0.65828869  0.65740893  0.99119929  1
  Cr  Cr25  1  0.82526781  0.82377197  0.15816833  1
  Cr  Cr26  1  0.65893667  0.65805611  0.32388053  1
  Cr  Cr27  1  0.15828970  0.15856533  0.49204820  1
  Cr  Cr28  1  -0.00833742  -0.00798587  0.65837139  1
  Cr  Cr29  1  0.15825775  0.15853377  0.82572831  1
  Cr  Cr30  1  0.15829516  0.49334849  0.48989176  1
  Cr  Cr31  1  0.99136083  0.32446527  0.65794079  1
  Cr  Cr32  1  0.15932110  0.49204712  0.82495826  1
  Cr  Cr33  1  0.15829651  0.82295626  0.49032323  1
  Cr  Cr34  1  0.99088243  0.65839036  0.65796982  1
  Cr  Cr35  1  0.15825801  0.82428825  0.82529771  1
  Cr  Cr36  1  0.49304467  0.15887006  0.49192761  1
  Cr  Cr37  1  0.32450633  -0.00798578  0.65794099  1
  Cr  Cr38  1  0.49263180  0.15990175  0.82464947  1
  Cr  Cr39  1  0.49120309  0.49120213  0.49279159  1
  Cr  Cr40  1  0.32587827  0.32553052  0.65902367  1
  Fe  Fe41  1  0.49196537  0.49128348  0.82463320  1
  Cr  Cr42  1  0.49089446  0.82479336  0.49019598  1
  Cr  Cr43  1  0.32635137  0.65732520  0.65905152  1
  Cr  Cr44  1  0.49154898  0.82400835  0.82572810  1
  Cr  Cr45  1  0.82353476  0.15887017  0.49346796  1
  Cr  Cr46  1  0.65870001  0.99153105  0.65717073  1
  Cr  Cr47  1  0.82397961  0.15883622  0.82388020  1
  Cr  Cr48  1  0.82537414  0.49119976  0.49131119  1
  Fe  Fe49  1  0.65795690  0.32530608  0.65861320  1
  Cr  Cr50  1  0.82369533  0.49096227  0.82461951  1
  Cr  Cr51  1  0.82567812  0.82480034  0.49174270  1
  Cr  Cr52  1  0.65763571  0.65701505  0.65979218  1
  Cr  Cr53  1  0.82506220  0.82506898  0.82495841  1
" 