2989,Fe92Cr8_1,-203.349948540499, 211.114274396672,Fe92Cr8,"# generated using pymatgen
 data_Cr49Fe5
_symmetry_space_group_name_H-M   'P 1'
_cell_length_a   7.59551327
_cell_length_b   7.59551327
_cell_length_c   10.74167789
_cell_angle_alpha   90.00000000
_cell_angle_beta   90.00000000
_cell_angle_gamma   90.00000000
_symmetry_Int_Tables_number   1
_chemical_formula_structural   Cr49Fe5
_chemical_formula_sum   'Cr49 Fe5'
_cell_volume   619.70696755
_cell_formula_units_Z   1
loop_
 _symmetry_equiv_pos_site_id
 _symmetry_equiv_pos_as_xyz
  1  'x, y, z'
loop_
 _atom_site_type_symbol
 _atom_site_label
 _atom_site_symmetry_multiplicity
 _atom_site_fract_x
 _atom_site_fract_y
 _atom_site_fract_z
 _atom_site_occupancy
  Cr  Cr0  1  -0.00679479  -0.00834417  -0.00685611  1
  Fe  Fe1  1  0.15789548  0.15871375  0.15832372  1
  Cr  Cr2  1  -0.00758301  -0.00783317  0.32407151  1
  Cr  Cr3  1  -0.00761911  0.32418175  -0.00785909  1
  Fe  Fe4  1  0.15812637  0.49137155  0.15822550  1
  Cr  Cr5  1  -0.00842065  0.32366787  0.32508454  1
  Cr  Cr6  1  -0.00714577  0.65879119  -0.00797497  1
  Fe  Fe7  1  0.15811678  0.82454680  0.15822866  1
  Cr  Cr8  1  -0.00720727  0.65877096  0.32371149  1
  Cr  Cr9  1  0.32311884  0.99116635  -0.00684139  1
  Cr  Cr10  1  0.49048302  0.15813354  0.15772871  1
  Cr  Cr11  1  0.32313916  0.99122177  0.32278731  1
  Cr  Cr12  1  0.32393879  0.32468090  -0.00783841  1
  Cr  Cr13  1  0.49095063  0.49098535  0.15870742  1
  Cr  Cr14  1  0.32395316  0.32462175  0.32379220  1
  Cr  Cr15  1  0.32417753  0.65877960  -0.00807137  1
  Cr  Cr16  1  0.49154885  0.82551326  0.15870797  1
  Cr  Cr17  1  0.32398300  0.65878815  0.32449557  1
  Cr  Cr18  1  0.65829813  -0.00837394  0.99030765  1
  Cr  Cr19  1  0.82542336  0.15813022  0.15865181  1
  Cr  Cr20  1  0.65909759  -0.00754782  0.32691410  1
  Cr  Cr21  1  0.65829485  0.32503584  0.99123535  1
  Cr  Cr22  1  0.82626062  0.49176036  0.15773579  1
  Cr  Cr23  1  0.65902316  0.32428906  0.32593862  1
  Cr  Cr24  1  0.65767943  0.65797244  0.99123173  1
  Cr  Cr25  1  0.82566956  0.82473466  0.15773112  1
  Cr  Cr26  1  0.65796511  0.65795752  0.32469488  1
  Cr  Cr27  1  0.15820554  0.15844984  0.49157915  1
  Cr  Cr28  1  0.99009855  -0.00755536  0.65738022  1
  Cr  Cr29  1  0.15845930  0.15845171  0.82530291  1
  Cr  Cr30  1  0.15785743  0.49118852  0.49226338  1
  Cr  Cr31  1  0.99001241  0.32368749  0.65743195  1
  Cr  Cr32  1  0.15762241  0.49096619  0.82367722  1
  Cr  Cr33  1  0.15787560  0.82497582  0.49159206  1
  Cr  Cr34  1  0.99109458  0.65854775  0.65869323  1
  Cr  Cr35  1  0.15763851  0.82521081  0.82435024  1
  Cr  Cr36  1  0.49166562  0.15730321  0.49188544  1
  Cr  Cr37  1  0.32515014  0.99130537  0.65868654  1
  Cr  Cr38  1  0.49120049  0.15742284  0.82513921  1
  Cr  Cr39  1  0.49073346  0.49120336  0.49054816  1
  Cr  Cr40  1  0.32556479  0.32477383  0.65869356  1
  Cr  Cr41  1  0.49095912  0.49097422  0.82537487  1
  Cr  Cr42  1  0.49184979  0.82607419  0.49183451  1
  Cr  Cr43  1  0.32557789  0.65856616  0.65802383  1
  Cr  Cr44  1  0.49200957  0.82624920  0.82416962  1
  Fe  Fe45  1  0.82479997  0.15766517  0.49188953  1
  Fe  Fe46  1  0.65872026  -0.00794682  0.65776477  1
  Cr  Cr47  1  0.82490550  0.15734653  0.82414498  1
  Cr  Cr48  1  0.82602902  0.49161937  0.49055690  1
  Cr  Cr49  1  0.65907239  0.32380524  0.65740970  1
  Cr  Cr50  1  0.82604275  0.49178310  0.82635547  1
  Cr  Cr51  1  0.82486003  0.82598560  0.49188794  1
  Cr  Cr52  1  0.65796870  0.65814298  0.65869263  1
  Cr  Cr53  1  0.82499259  0.82542736  0.82514690  1
" 