7900,Fe92Cr8_3,-203.338516420132, 211.284472793888,Fe92Cr8,"# generated using pymatgen
 data_Cr49Fe5
_symmetry_space_group_name_H-M   'P 1'
_cell_length_a   7.59322257
_cell_length_b   7.59322257
_cell_length_c   10.73843834
_cell_angle_alpha   90.00000000
_cell_angle_beta   90.00000000
_cell_angle_gamma   90.00000000
_symmetry_Int_Tables_number   1
_chemical_formula_structural   Cr49Fe5
_chemical_formula_sum   'Cr49 Fe5'
_cell_volume   619.14644996
_cell_formula_units_Z   1
loop_
 _symmetry_equiv_pos_site_id
 _symmetry_equiv_pos_as_xyz
  1  'x, y, z'
loop_
 _atom_site_type_symbol
 _atom_site_label
 _atom_site_symmetry_multiplicity
 _atom_site_fract_x
 _atom_site_fract_y
 _atom_site_fract_z
 _atom_site_occupancy
  Cr  Cr0  1  -0.00761004  -0.00819924  -0.00787138  1
  Cr  Cr1  1  0.15747487  0.15808941  0.15835814  1
  Cr  Cr2  1  -0.00757718  0.99078941  0.32385205  1
  Cr  Cr3  1  0.99034458  0.32491453  -0.00787350  1
  Cr  Cr4  1  0.15748428  0.49321049  0.15835546  1
  Cr  Cr5  1  0.99037350  0.32592856  0.32385129  1
  Cr  Cr6  1  -0.00732111  0.65836132  -0.00716719  1
  Fe  Fe7  1  0.15840086  0.82439188  0.15835386  1
  Fe  Fe8  1  0.99168755  0.65835769  0.32437203  1
  Cr  Cr9  1  0.32407169  0.98974852  -0.00775694  1
  Cr  Cr10  1  0.49267700  0.15835816  0.15877044  1
  Cr  Cr11  1  0.32410272  0.99077318  0.32521134  1
  Cr  Cr12  1  0.32509488  0.32593708  0.99080211  1
  Cr  Cr13  1  0.49163632  0.49191416  0.15732596  1
  Cr  Cr14  1  0.32512554  0.32492034  0.32665174  1
  Fe  Fe15  1  0.32469970  0.65866087  -0.00797021  1
  Cr  Cr16  1  0.49109765  0.82480071  0.15732406  1
  Cr  Cr17  1  0.32382889  0.65938251  0.32449985  1
  Cr  Cr18  1  0.65861457  -0.00791240  -0.00816254  1
  Fe  Fe19  1  0.82501909  0.15898962  0.15836226  1
  Cr  Cr20  1  0.65855151  -0.00791387  0.32488088  1
  Cr  Cr21  1  0.65963548  0.32565142  -0.00672351  1
  Fe  Fe22  1  0.82532046  0.49137926  0.15866513  1
  Cr  Cr23  1  0.65957565  0.32565556  0.32343896  1
  Cr  Cr24  1  0.65758643  0.65733777  0.99109092  1
  Cr  Cr25  1  0.82622157  0.82481529  0.15938663  1
  Cr  Cr26  1  0.65955823  0.65733410  0.32562200  1
  Cr  Cr27  1  0.15882739  0.15909578  0.49257692  1
  Cr  Cr28  1  -0.00796992  -0.00823490  0.65909593  1
  Cr  Cr29  1  0.15803625  0.15909597  0.82413941  1
  Cr  Cr30  1  0.15781197  0.49157851  0.49154766  1
  Cr  Cr31  1  -0.00798721  0.32495148  0.65909587  1
  Cr  Cr32  1  0.15905660  0.49158332  0.82517373  1
  Cr  Cr33  1  0.15707255  0.82439917  0.49009961  1
  Cr  Cr34  1  0.99129210  0.65835818  0.65764940  1
  Cr  Cr35  1  0.15832059  0.82439335  0.82662275  1
  Cr  Cr36  1  0.49129222  0.15835821  0.49142752  1
  Cr  Cr37  1  0.32469053  -0.00824324  0.65762061  1
  Cr  Cr38  1  0.49168771  0.15835839  0.82487644  1
  Cr  Cr39  1  0.49128344  0.49129208  0.49183988  1
  Cr  Cr40  1  0.32469905  0.32495146  0.65762075  1
  Cr  Cr41  1  0.49065793  0.49231352  0.82591224  1
  Cr  Cr42  1  0.49275911  0.82542460  0.49183955  1
  Cr  Cr43  1  0.32542834  0.65836676  0.65906758  1
  Cr  Cr44  1  0.49213266  0.82440218  0.82591350  1
  Cr  Cr45  1  0.82495506  0.15762037  0.49186756  1
  Cr  Cr46  1  0.65835424  0.99103599  0.65835836  1
  Cr  Cr47  1  0.82535093  0.15762038  0.82526111  1
  Cr  Cr48  1  0.82598048  0.49304661  0.49083772  1
  Cr  Cr49  1  0.65836298  0.32568907  0.65835830  1
  Cr  Cr50  1  0.82535947  0.49203008  0.82484896  1
  Cr  Cr51  1  0.82524148  0.82440920  0.49228517  1
  Cr  Cr52  1  0.65835438  0.65834963  0.65835828  1
  Cr  Cr53  1  0.82462173  0.82542430  0.82340213  1
" 