1372,Fe94Cr6_15,-202.524067054399, 211.247583631078,Fe94Cr6,"# generated using pymatgen
 data_Cr25Fe2
_symmetry_space_group_name_H-M   'P 1'
_cell_length_a   7.59487671
_cell_length_b   7.59487671
_cell_length_c   10.74077765
_cell_angle_alpha   90.00000000
_cell_angle_beta   90.00000000
_cell_angle_gamma   90.00000000
_symmetry_Int_Tables_number   1
_chemical_formula_structural   Cr25Fe2
_chemical_formula_sum   'Cr50 Fe4'
_cell_volume   619.55117136
_cell_formula_units_Z   2
loop_
 _symmetry_equiv_pos_site_id
 _symmetry_equiv_pos_as_xyz
  1  'x, y, z'
loop_
 _atom_site_type_symbol
 _atom_site_label
 _atom_site_symmetry_multiplicity
 _atom_site_fract_x
 _atom_site_fract_y
 _atom_site_fract_z
 _atom_site_occupancy
  Cr  Cr0  1  -0.00732857  0.99072362  0.99033744  1
  Cr  Cr1  1  0.15794347  0.15943781  0.15869727  1
  Cr  Cr2  1  -0.00811748  0.99149437  0.32536603  1
  Cr  Cr3  1  0.99076106  0.32602517  -0.00692282  1
  Fe  Fe4  1  0.15793067  0.49189136  0.15814170  1
  Cr  Cr5  1  0.99066886  0.32605132  0.32385960  1
  Cr  Cr6  1  -0.00826654  0.65806637  -0.00822874  1
  Cr  Cr7  1  0.15794710  0.82420447  0.15785153  1
  Cr  Cr8  1  0.99116169  0.65721839  0.32387598  1
  Cr  Cr9  1  0.32410569  0.99077573  0.99102675  1
  Cr  Cr10  1  0.49113497  0.15826107  0.15778010  1
  Cr  Cr11  1  0.32483387  0.99149159  0.32473107  1
  Cr  Cr12  1  0.32492657  0.32491009  -0.00820580  1
  Cr  Cr13  1  0.49038489  0.49213081  0.15778255  1
  Cr  Cr14  1  0.32513214  0.32502995  0.32504495  1
  Cr  Cr15  1  0.32395339  0.65919108  0.99048233  1
  Cr  Cr16  1  0.49186418  0.82436001  0.15869969  1
  Cr  Cr17  1  0.32458480  0.65827974  0.32510562  1
  Cr  Cr18  1  0.65803689  -0.00820016  0.99134098  1
  Cr  Cr19  1  0.82569087  0.15782295  0.15777886  1
  Cr  Cr20  1  0.65804339  -0.00789320  0.32558135  1
  Cr  Cr21  1  0.65904208  0.32571293  -0.00787300  1
  Fe  Fe22  1  0.82572126  0.49167927  0.15823231  1
  Cr  Cr23  1  0.65894627  0.32561903  0.32428149  1
  Cr  Cr24  1  0.65909442  0.65719507  -0.00719394  1
  Cr  Cr25  1  0.82495528  0.82456344  0.15869609  1
  Cr  Cr26  1  0.65900231  0.65698814  0.32423581  1
  Cr  Cr27  1  0.15769871  0.15899299  0.49068153  1
  Cr  Cr28  1  -0.00761630  0.99082896  0.65893178  1
  Cr  Cr29  1  0.15770740  0.15891244  0.82538740  1
  Cr  Cr30  1  0.15845817  0.49138475  0.49136934  1
  Cr  Cr31  1  0.99106368  0.32477968  0.65780522  1
  Cr  Cr32  1  0.15845369  0.49168830  0.82471433  1
  Cr  Cr33  1  0.15770355  0.82436369  0.49154698  1
  Cr  Cr34  1  -0.00792755  0.65921045  0.65899163  1
  Fe  Fe35  1  0.15816265  0.82482856  0.82493038  1
  Cr  Cr36  1  0.49192427  0.15789522  0.49193662  1
  Cr  Cr37  1  0.32468777  0.99088524  0.65888428  1
  Cr  Cr38  1  0.49202208  0.15824757  0.82515649  1
  Cr  Cr39  1  0.49082580  0.49214604  0.49249803  1
  Cr  Cr40  1  0.32535343  0.32417101  0.65780513  1
  Cr  Cr41  1  0.49105870  0.49190162  0.82447397  1
  Cr  Cr42  1  0.49259803  0.82464328  0.49095101  1
  Cr  Cr43  1  0.32438523  0.65976727  0.65894569  1
  Cr  Cr44  1  0.49241787  0.82453031  0.82522924  1
  Cr  Cr45  1  0.82510077  0.15713534  0.49286314  1
  Fe  Fe46  1  0.65775210  0.99128098  0.65836163  1
  Cr  Cr47  1  0.82498217  0.15749882  0.82422673  1
  Cr  Cr48  1  0.82546870  0.49214095  0.49163556  1
  Cr  Cr49  1  0.65833449  0.32436814  0.65843101  1
  Cr  Cr50  1  0.82522543  0.49189853  0.82531797  1
  Cr  Cr51  1  0.82441790  0.82541529  0.49187896  1
  Cr  Cr52  1  0.65833181  0.65833090  0.65780240  1
  Cr  Cr53  1  0.82481986  0.82528722  0.82430235  1
" 