2754,Fe94Cr6_3,-202.494067963113, 211.296255532778,Fe94Cr6,"# generated using pymatgen
 data_Cr25Fe2
_symmetry_space_group_name_H-M   'P 1'
_cell_length_a   7.59342273
_cell_length_b   7.59342273
_cell_length_c   10.73872141
_cell_angle_alpha   90.00000000
_cell_angle_beta   90.00000000
_cell_angle_gamma   90.00000000
_symmetry_Int_Tables_number   1
_chemical_formula_structural   Cr25Fe2
_chemical_formula_sum   'Cr50 Fe4'
_cell_volume   619.19541437
_cell_formula_units_Z   2
loop_
 _symmetry_equiv_pos_site_id
 _symmetry_equiv_pos_as_xyz
  1  'x, y, z'
loop_
 _atom_site_type_symbol
 _atom_site_label
 _atom_site_symmetry_multiplicity
 _atom_site_fract_x
 _atom_site_fract_y
 _atom_site_fract_z
 _atom_site_occupancy
  Cr  Cr0  1  0.99077223  -0.00600461  -0.00633974  1
  Cr  Cr1  1  0.15931742  0.15887752  0.15904926  1
  Cr  Cr2  1  -0.00832135  -0.00597882  0.32501198  1
  Cr  Cr3  1  0.99085231  0.32400242  0.99146711  1
  Cr  Cr4  1  0.15877626  0.49104751  0.15803458  1
  Cr  Cr5  1  0.99167865  0.32346479  0.32501198  1
  Cr  Cr6  1  0.99145156  0.65711711  -0.00777271  1
  Cr  Cr7  1  0.15766709  0.82511303  0.15745790  1
  Cr  Cr8  1  0.99167865  0.65760905  0.32501198  1
  Cr  Cr9  1  0.32551225  -0.00820023  0.99115699  1
  Cr  Cr10  1  0.49258402  0.16013250  0.15945945  1
  Cr  Cr11  1  0.32445760  -0.00716386  0.32641286  1
  Cr  Cr12  1  0.32461624  0.32522207  0.99111968  1
  Cr  Cr13  1  0.49163220  0.48882893  0.16061315  1
  Fe  Fe14  1  0.32470863  0.32422436  0.32529373  1
  Cr  Cr15  1  0.32613352  0.65801410  -0.00812898  1
  Cr  Cr16  1  0.49142585  0.82597149  0.15781762  1
  Cr  Cr17  1  0.32566833  0.65783509  0.32430481  1
  Cr  Cr18  1  0.65879089  -0.00746593  -0.00734413  1
  Fe  Fe19  1  0.82470881  0.15925672  0.15909643  1
  Cr  Cr20  1  0.65889969  -0.00716386  0.32361110  1
  Cr  Cr21  1  0.65968645  0.32446073  -0.00740763  1
  Cr  Cr22  1  0.82454998  0.49014196  0.15933401  1
  Fe  Fe23  1  0.65864866  0.32422436  0.32473023  1
  Cr  Cr24  1  0.65745536  0.65805076  0.99112684  1
  Cr  Cr25  1  0.82591077  0.82576524  0.15852882  1
  Cr  Cr26  1  0.65768896  0.65783509  0.32571915  1
  Fe  Fe27  1  0.15864848  0.15925672  0.49092753  1
  Cr  Cr28  1  -0.00741494  -0.00600461  0.65636370  1
  Cr  Cr29  1  0.15871736  0.15791749  0.82403143  1
  Cr  Cr30  1  0.15880732  0.49014196  0.49068995  1
  Cr  Cr31  1  -0.00749502  0.32400242  0.65855685  1
  Cr  Cr32  1  0.15780479  0.49177453  0.82608013  1
  Cr  Cr33  1  0.15744652  0.82576524  0.49149514  1
  Cr  Cr34  1  -0.00809426  0.65711711  0.65779666  1
  Cr  Cr35  1  0.15722192  0.82533825  0.82608328  1
  Cr  Cr36  1  0.49077328  0.16013250  0.49056451  1
  Cr  Cr37  1  0.32456641  -0.00746593  0.65736809  1
  Cr  Cr38  1  0.49167865  0.15851672  0.82501198  1
  Cr  Cr39  1  0.49172509  0.48882893  0.48941081  1
  Cr  Cr40  1  0.32367084  0.32446073  0.65743159  1
  Cr  Cr41  1  0.49167865  0.49026375  0.82501198  1
  Cr  Cr42  1  0.49193145  0.82597149  0.49220634  1
  Cr  Cr43  1  0.32590193  0.65805076  0.65889712  1
  Cr  Cr44  1  0.49167865  0.82625707  0.82501198  1
  Cr  Cr45  1  0.82403988  0.15887752  0.49097469  1
  Cr  Cr46  1  0.65784505  -0.00820023  0.65886697  1
  Cr  Cr47  1  0.82463993  0.15791749  0.82599253  1
  Cr  Cr48  1  0.82458104  0.49104751  0.49198937  1
  Cr  Cr49  1  0.65874106  0.32522207  0.65890428  1
  Cr  Cr50  1  0.82555250  0.49177453  0.82394382  1
  Cr  Cr51  1  0.82569020  0.82511303  0.49256606  1
  Cr  Cr52  1  0.65722377  0.65801410  0.65815294  1
  Cr  Cr53  1  0.82613537  0.82533825  0.82394068  1
" 