282,Fe94Cr6_7,-202.544522422551, 210.971658685673,Fe94Cr6,"# generated using pymatgen
 data_Cr25Fe2
_symmetry_space_group_name_H-M   'P 1'
_cell_length_a   7.59501928
_cell_length_b   7.59501928
_cell_length_c   10.74097927
_cell_angle_alpha   90.00000000
_cell_angle_beta   90.00000000
_cell_angle_gamma   90.00000000
_symmetry_Int_Tables_number   1
_chemical_formula_structural   Cr25Fe2
_chemical_formula_sum   'Cr50 Fe4'
_cell_volume   619.58606160
_cell_formula_units_Z   2
loop_
 _symmetry_equiv_pos_site_id
 _symmetry_equiv_pos_as_xyz
  1  'x, y, z'
loop_
 _atom_site_type_symbol
 _atom_site_label
 _atom_site_symmetry_multiplicity
 _atom_site_fract_x
 _atom_site_fract_y
 _atom_site_fract_z
 _atom_site_occupancy
  Cr  Cr0  1  0.99083489  -0.00695574  -0.00775709  1
  Cr  Cr1  1  0.15828266  0.15852662  0.15841396  1
  Cr  Cr2  1  0.99072405  -0.00735967  0.32459198  1
  Fe  Fe3  1  0.99121355  0.32473193  -0.00813024  1
  Cr  Cr4  1  0.15680611  0.49176410  0.15720875  1
  Cr  Cr5  1  0.99069878  0.32382406  0.32434762  1
  Fe  Fe6  1  0.99125042  0.65762842  -0.00830426  1
  Cr  Cr7  1  0.15711564  0.82443907  0.15751428  1
  Cr  Cr8  1  -0.00819883  0.65825067  0.32493322  1
  Cr  Cr9  1  0.32434160  0.99127605  0.99110741  1
  Cr  Cr10  1  0.49167426  0.15824030  0.15805178  1
  Cr  Cr11  1  0.32467590  0.99046442  0.32521208  1
  Cr  Cr12  1  0.32416603  0.32543777  0.99111419  1
  Cr  Cr13  1  0.49188799  0.49103138  0.15871514  1
  Cr  Cr14  1  0.32433995  0.32569906  0.32489061  1
  Cr  Cr15  1  0.32451489  0.65799232  -0.00823794  1
  Cr  Cr16  1  0.49190307  0.82545459  0.15893980  1
  Cr  Cr17  1  0.32539518  0.65853232  0.32546917  1
  Cr  Cr18  1  0.65962019  -0.00771988  -0.00767984  1
  Fe  Fe19  1  0.82566584  0.15868378  0.15769708  1
  Cr  Cr20  1  0.65941845  -0.00838284  0.32389251  1
  Cr  Cr21  1  0.66008100  0.32442366  -0.00767554  1
  Cr  Cr22  1  0.82598503  0.49199151  0.15723947  1
  Cr  Cr23  1  0.65974300  0.32455560  0.32356950  1
  Cr  Cr24  1  0.65813362  0.65800883  0.99110457  1
  Cr  Cr25  1  0.82563246  0.82411867  0.15759104  1
  Cr  Cr26  1  0.65747959  0.65860355  0.32617660  1
  Cr  Cr27  1  0.15923189  0.15800045  0.49203956  1
  Cr  Cr28  1  0.99148737  -0.00811536  0.65777815  1
  Cr  Cr29  1  0.15849677  0.15839217  0.82414818  1
  Cr  Cr30  1  0.15783056  0.49134678  0.49108563  1
  Cr  Cr31  1  0.99148160  0.32460055  0.65802520  1
  Cr  Cr32  1  0.15651035  0.49174294  0.82647796  1
  Cr  Cr33  1  0.15799412  0.82539403  0.49108520  1
  Cr  Cr34  1  -0.00787972  0.65824283  0.65866078  1
  Cr  Cr35  1  0.15674338  0.82454199  0.82624988  1
  Cr  Cr36  1  0.49136900  0.15759664  0.49203961  1
  Cr  Cr37  1  0.32455668  0.99024515  0.65851412  1
  Cr  Cr38  1  0.49136231  0.15824293  0.82463035  1
  Cr  Cr39  1  0.49214933  0.49087245  0.49108176  1
  Cr  Cr40  1  0.32432950  0.32603040  0.65873761  1
  Cr  Cr41  1  0.49213598  0.49078290  0.82492424  1
  Fe  Fe42  1  0.49165917  0.82552090  0.49155969  1
  Cr  Cr43  1  0.32531614  0.65844018  0.65757417  1
  Cr  Cr44  1  0.49214659  0.82569956  0.82467995  1
  Cr  Cr45  1  0.82413333  0.15800703  0.49115293  1
  Cr  Cr46  1  0.65864138  0.99083480  0.65846471  1
  Cr  Cr47  1  0.82493364  0.15847913  0.82513787  1
  Cr  Cr48  1  0.82476166  0.49211630  0.49204055  1
  Cr  Cr49  1  0.65890759  0.32539563  0.65873021  1
  Cr  Cr50  1  0.82599357  0.49244509  0.82545626  1
  Cr  Cr51  1  0.82435883  0.82461989  0.49203255  1
  Cr  Cr52  1  0.65725772  0.65848716  0.65753703  1
  Cr  Cr53  1  0.82577164  0.82384260  0.82522569  1
" 