7131,Fe94Cr6_14,-202.569721755986, 212.319728801066,Fe94Cr6,"# generated using pymatgen
 data_Cr25Fe2
_symmetry_space_group_name_H-M   'P 1'
_cell_length_a   7.59375352
_cell_length_b   7.59375352
_cell_length_c   10.73918922
_cell_angle_alpha   90.00000000
_cell_angle_beta   90.00000000
_cell_angle_gamma   90.00000000
_symmetry_Int_Tables_number   1
_chemical_formula_structural   Cr25Fe2
_chemical_formula_sum   'Cr50 Fe4'
_cell_volume   619.27634040
_cell_formula_units_Z   2
loop_
 _symmetry_equiv_pos_site_id
 _symmetry_equiv_pos_as_xyz
  1  'x, y, z'
loop_
 _atom_site_type_symbol
 _atom_site_label
 _atom_site_symmetry_multiplicity
 _atom_site_fract_x
 _atom_site_fract_y
 _atom_site_fract_z
 _atom_site_occupancy
  Fe  Fe0  1  0.99122180  0.99156680  -0.00802881  1
  Cr  Cr1  1  0.15876139  0.15899303  0.15599411  1
  Cr  Cr2  1  -0.00759052  -0.00771622  0.32377541  1
  Cr  Cr3  1  0.99087481  0.32396811  -0.00831435  1
  Cr  Cr4  1  0.15986739  0.49070171  0.15814112  1
  Cr  Cr5  1  0.99105750  0.32462760  0.32651517  1
  Cr  Cr6  1  0.99141132  0.65874906  -0.00832299  1
  Cr  Cr7  1  0.15755686  0.82528082  0.15752264  1
  Cr  Cr8  1  -0.00811896  0.65808612  0.32547036  1
  Cr  Cr9  1  0.32422536  -0.00826456  0.99066430  1
  Cr  Cr10  1  0.49147104  0.15890206  0.15862968  1
  Cr  Cr11  1  0.32510937  0.99142471  0.32651292  1
  Fe  Fe12  1  0.32589406  0.32569073  -0.00770086  1
  Fe  Fe13  1  0.49140493  0.49104956  0.15772872  1
  Cr  Cr14  1  0.32559381  0.32489626  0.32320770  1
  Cr  Cr15  1  0.32632183  0.65830979  -0.00680633  1
  Cr  Cr16  1  0.49272573  0.82574605  0.16008163  1
  Cr  Cr17  1  0.32552280  0.65873270  0.32423394  1
  Cr  Cr18  1  0.65800214  -0.00799057  0.99163607  1
  Cr  Cr19  1  0.82459552  0.15682987  0.15887539  1
  Fe  Fe20  1  0.65822285  -0.00823756  0.32471974  1
  Cr  Cr21  1  0.65753517  0.32582910  -0.00792170  1
  Cr  Cr22  1  0.82525827  0.49189719  0.15881523  1
  Cr  Cr23  1  0.65844716  0.32499898  0.32432449  1
  Cr  Cr24  1  0.65740492  0.65717735  -0.00798360  1
  Cr  Cr25  1  0.82459120  0.82611655  0.15813757  1
  Cr  Cr26  1  0.65760413  0.65745436  0.32330946  1
  Cr  Cr27  1  0.15894418  0.15919156  0.49163071  1
  Cr  Cr28  1  -0.00748206  -0.00771415  0.65981248  1
  Cr  Cr29  1  0.15871062  0.15928127  0.82727711  1
  Cr  Cr30  1  0.15878326  0.49156589  0.49195868  1
  Cr  Cr31  1  0.99081144  0.32399446  0.65677909  1
  Cr  Cr32  1  0.15904915  0.49094104  0.82460644  1
  Cr  Cr33  1  0.15825378  0.82421618  0.49163139  1
  Cr  Cr34  1  0.99165070  0.65869423  0.65780885  1
  Cr  Cr35  1  0.15769419  0.82480525  0.82595348  1
  Cr  Cr36  1  0.49261946  0.15772583  0.49118888  1
  Cr  Cr37  1  0.32440108  0.99143650  0.65782217  1
  Cr  Cr38  1  0.49093943  0.15905966  0.82472312  1
  Cr  Cr39  1  0.49130940  0.49156346  0.49166859  1
  Cr  Cr40  1  0.32507971  0.32382284  0.65881913  1
  Cr  Cr41  1  0.49026636  0.49083941  0.82638183  1
  Cr  Cr42  1  0.49324101  0.82563419  0.49123597  1
  Cr  Cr43  1  0.32508964  0.65970382  0.65782880  1
  Cr  Cr44  1  0.49199572  0.82508963  0.82347036  1
  Cr  Cr45  1  0.82343508  0.15725555  0.49019958  1
  Cr  Cr46  1  0.65805618  -0.00771637  0.65789949  1
  Cr  Cr47  1  0.82523477  0.15766262  0.82587661  1
  Cr  Cr48  1  0.82486001  0.49224969  0.49265696  1
  Cr  Cr49  1  0.65908216  0.32468853  0.65887125  1
  Cr  Cr50  1  0.82558322  0.49189093  0.82347168  1
  Cr  Cr51  1  0.82351428  0.82542413  0.49025903  1
  Cr  Cr52  1  0.65822498  0.65800230  0.65988818  1
  Cr  Cr53  1  0.82517062  0.82536225  0.82655343  1
" 