4048,Fe94Cr6_0,-202.491662334003, 210.74646782446,Fe94Cr6,"# generated using pymatgen
 data_Cr25Fe2
_symmetry_space_group_name_H-M   'P 1'
_cell_length_a   7.59449789
_cell_length_b   7.59449789
_cell_length_c   10.74024192
_cell_angle_alpha   90.00000000
_cell_angle_beta   90.00000000
_cell_angle_gamma   90.00000000
_symmetry_Int_Tables_number   1
_chemical_formula_structural   Cr25Fe2
_chemical_formula_sum   'Cr50 Fe4'
_cell_volume   619.45847011
_cell_formula_units_Z   2
loop_
 _symmetry_equiv_pos_site_id
 _symmetry_equiv_pos_as_xyz
  1  'x, y, z'
loop_
 _atom_site_type_symbol
 _atom_site_label
 _atom_site_symmetry_multiplicity
 _atom_site_fract_x
 _atom_site_fract_y
 _atom_site_fract_z
 _atom_site_occupancy
  Cr  Cr0  1  -0.00787367  0.99160904  -0.00743507  1
  Cr  Cr1  1  0.15872896  0.15953678  0.15927397  1
  Cr  Cr2  1  -0.00816562  0.99160904  0.32368598  1
  Cr  Cr3  1  0.99152263  0.32426623  -0.00835582  1
  Cr  Cr4  1  0.15808667  0.49160904  0.15732536  1
  Cr  Cr5  1  0.99084168  0.32524187  0.32512843  1
  Cr  Cr6  1  0.99152263  0.65895185  -0.00835582  1
  Cr  Cr7  1  0.15872896  0.82368130  0.15927397  1
  Cr  Cr8  1  0.99084168  0.65797621  0.32512843  1
  Cr  Cr9  1  0.32326819  0.99160904  0.99061479  1
  Cr  Cr10  1  0.49216362  0.15807411  0.15827189  1
  Cr  Cr11  1  0.32354703  0.99160904  0.32564774  1
  Cr  Cr12  1  0.32468547  0.32506785  0.99159291  1
  Cr  Cr13  1  0.49138727  0.49160904  0.15822906  1
  Cr  Cr14  1  0.32558418  0.32624775  0.32536201  1
  Cr  Cr15  1  0.32468547  0.65815022  0.99159291  1
  Cr  Cr16  1  0.49216362  0.82514397  0.15827189  1
  Cr  Cr17  1  0.32558418  0.65697033  0.32536201  1
  Cr  Cr18  1  0.65944530  0.99160904  0.99060740  1
  Cr  Cr19  1  0.82392527  0.15872132  0.15830035  1
  Cr  Cr20  1  0.65944184  0.99160904  0.32497845  1
  Cr  Cr21  1  0.65861654  0.32568560  0.99159708  1
  Cr  Cr22  1  0.82536145  0.49160904  0.15825723  1
  Cr  Cr23  1  0.65833903  0.32721747  0.32650946  1
  Cr  Cr24  1  0.65861654  0.65753248  0.99159708  1
  Cr  Cr25  1  0.82392527  0.82449675  0.15830035  1
  Cr  Cr26  1  0.65833903  0.65600061  0.32650946  1
  Cr  Cr27  1  0.15770832  0.15973986  0.49186913  1
  Cr  Cr28  1  -0.00816781  0.99160904  0.65856904  1
  Cr  Cr29  1  0.15764959  0.16027833  0.82364474  1
  Cr  Cr30  1  0.15627258  0.49160904  0.49307603  1
  Fe  Fe31  1  0.99099035  0.32616233  0.65761921  1
  Cr  Cr32  1  0.15665204  0.49160904  0.82440390  1
  Cr  Cr33  1  0.15770832  0.82347822  0.49186913  1
  Fe  Fe34  1  0.99099035  0.65705575  0.65761921  1
  Cr  Cr35  1  0.15764959  0.82293974  0.82364474  1
  Cr  Cr36  1  0.49194124  0.15841116  0.49130339  1
  Cr  Cr37  1  0.32401772  0.99160904  0.65857262  1
  Cr  Cr38  1  0.49215071  0.15839006  0.82522154  1
  Fe  Fe39  1  0.49162180  0.49160904  0.49184189  1
  Cr  Cr40  1  0.32543514  0.32575585  0.65811569  1
  Cr  Cr41  1  0.49135658  0.49160904  0.82590793  1
  Cr  Cr42  1  0.49194124  0.82480692  0.49130339  1
  Cr  Cr43  1  0.32543514  0.65746223  0.65811569  1
  Cr  Cr44  1  0.49215071  0.82482802  0.82522154  1
  Cr  Cr45  1  0.82524427  0.15952437  0.49192845  1
  Cr  Cr46  1  0.65894681  0.99160904  0.65923875  1
  Cr  Cr47  1  0.82501181  0.15946452  0.82462630  1
  Fe  Fe48  1  0.82578073  0.49160904  0.49242144  1
  Cr  Cr49  1  0.65893764  0.32689508  0.65677798  1
  Cr  Cr50  1  0.82695622  0.49160904  0.82337210  1
  Cr  Cr51  1  0.82524427  0.82369370  0.49192845  1
  Cr  Cr52  1  0.65893764  0.65632299  0.65677798  1
  Cr  Cr53  1  0.82501181  0.82375356  0.82462630  1
" 