5570,Fe94Cr6_8,-202.530041303666, 212.295095854506,Fe94Cr6,"# generated using pymatgen
 data_Cr25Fe2
_symmetry_space_group_name_H-M   'P 1'
_cell_length_a   7.59516161
_cell_length_b   7.59516161
_cell_length_c   10.74118055
_cell_angle_alpha   90.00000000
_cell_angle_beta   90.00000000
_cell_angle_gamma   90.00000000
_symmetry_Int_Tables_number   1
_chemical_formula_structural   Cr25Fe2
_chemical_formula_sum   'Cr50 Fe4'
_cell_volume   619.62089507
_cell_formula_units_Z   2
loop_
 _symmetry_equiv_pos_site_id
 _symmetry_equiv_pos_as_xyz
  1  'x, y, z'
loop_
 _atom_site_type_symbol
 _atom_site_label
 _atom_site_symmetry_multiplicity
 _atom_site_fract_x
 _atom_site_fract_y
 _atom_site_fract_z
 _atom_site_occupancy
  Cr  Cr0  1  0.99010711  -0.00716489  0.99091322  1
  Cr  Cr1  1  0.15876198  0.15762965  0.15916034  1
  Cr  Cr2  1  0.99068462  -0.00755818  0.32539173  1
  Cr  Cr3  1  -0.00841018  0.32355614  0.99084379  1
  Cr  Cr4  1  0.15631543  0.49235444  0.15695714  1
  Cr  Cr5  1  -0.00773559  0.32402480  0.32539507  1
  Fe  Fe6  1  0.99125408  0.65823035  0.99141433  1
  Cr  Cr7  1  0.15694059  0.82471016  0.15696863  1
  Cr  Cr8  1  -0.00791156  0.65823815  0.32543317  1
  Cr  Cr9  1  0.32511937  0.99156124  0.99111056  1
  Cr  Cr10  1  0.49134604  0.15822768  0.15852438  1
  Cr  Cr11  1  0.32490367  0.99105336  0.32531906  1
  Cr  Cr12  1  0.32435350  0.32566592  -0.00702963  1
  Cr  Cr13  1  0.49273369  0.49068579  0.15820408  1
  Cr  Cr14  1  0.32412005  0.32619788  0.32347753  1
  Cr  Cr15  1  0.32531718  0.65746403  0.99136057  1
  Cr  Cr16  1  0.49152055  0.82577854  0.15820989  1
  Cr  Cr17  1  0.32567710  0.65744956  0.32538693  1
  Cr  Cr18  1  0.65954265  -0.00823716  -0.00819763  1
  Cr  Cr19  1  0.82457748  0.15883463  0.15825973  1
  Cr  Cr20  1  0.65910612  0.99087528  0.32347769  1
  Cr  Cr21  1  0.65891113  0.32377271  0.98983402  1
  Cr  Cr22  1  0.82557381  0.49246447  0.15799832  1
  Cr  Cr23  1  0.65831332  0.32479898  0.32534955  1
  Cr  Cr24  1  0.65731955  0.65901120  -0.00799046  1
  Cr  Cr25  1  0.82617848  0.82340347  0.15798336  1
  Cr  Cr26  1  0.65693283  0.65902032  0.32540305  1
  Cr  Cr27  1  0.15977065  0.15719195  0.49137919  1
  Cr  Cr28  1  0.99047634  -0.00713121  0.65846675  1
  Cr  Cr29  1  0.15951928  0.15722243  0.82417182  1
  Cr  Cr30  1  0.15736848  0.49132053  0.49112672  1
  Cr  Cr31  1  0.99085044  0.32346357  0.65859047  1
  Cr  Cr32  1  0.15676631  0.49237785  0.82669849  1
  Cr  Cr33  1  0.15846090  0.82624812  0.49307039  1
  Cr  Cr34  1  -0.00819831  0.65823005  0.65818636  1
  Cr  Cr35  1  0.15783325  0.82520130  0.82476288  1
  Cr  Cr36  1  0.49123724  0.15813776  0.49250911  1
  Fe  Fe37  1  0.32472550  -0.00830206  0.65836910  1
  Cr  Cr38  1  0.49198425  0.15838340  0.82347730  1
  Cr  Cr39  1  0.49307705  0.48978932  0.49224193  1
  Cr  Cr40  1  0.32422560  0.32581660  0.65825428  1
  Cr  Cr41  1  0.49298628  0.49014723  0.82407416  1
  Cr  Cr42  1  0.49101629  0.82683206  0.49241479  1
  Cr  Cr43  1  0.32546519  0.65804233  0.65794044  1
  Cr  Cr44  1  0.49081059  0.82631042  0.82410087  1
  Cr  Cr45  1  0.82361098  0.15926294  0.49223722  1
  Cr  Cr46  1  0.65969717  -0.00795831  0.65953539  1
  Fe  Fe47  1  0.82462094  0.15851268  0.82437848  1
  Cr  Cr48  1  0.82427864  0.49117068  0.49193582  1
  Fe  Fe49  1  0.65900310  0.32448371  0.65878745  1
  Cr  Cr50  1  0.82479625  0.49119760  0.82461223  1
  Cr  Cr51  1  0.82521294  0.82435671  0.49016639  1
  Cr  Cr52  1  0.65745477  0.65865856  0.65730302  1
  Cr  Cr53  1  0.82596513  0.82355348  0.82661878  1
" 