4783,Fe94Cr6_9,-202.663191166749, 213.068376975617,Fe94Cr6,"# generated using pymatgen
 data_Cr25Fe2
_symmetry_space_group_name_H-M   'P 1'
_cell_length_a   7.59541652
_cell_length_b   7.59541652
_cell_length_c   10.74154105
_cell_angle_alpha   90.00000000
_cell_angle_beta   90.00000000
_cell_angle_gamma   90.00000000
_symmetry_Int_Tables_number   1
_chemical_formula_structural   Cr25Fe2
_chemical_formula_sum   'Cr50 Fe4'
_cell_volume   619.68328551
_cell_formula_units_Z   2
loop_
 _symmetry_equiv_pos_site_id
 _symmetry_equiv_pos_as_xyz
  1  'x, y, z'
loop_
 _atom_site_type_symbol
 _atom_site_label
 _atom_site_symmetry_multiplicity
 _atom_site_fract_x
 _atom_site_fract_y
 _atom_site_fract_z
 _atom_site_occupancy
  Cr  Cr0  1  -0.00702420  -0.00764194  -0.00810979  1
  Fe  Fe1  1  0.15769227  0.15822024  0.15819663  1
  Cr  Cr2  1  -0.00709672  -0.00747262  0.32511493  1
  Cr  Cr3  1  -0.00709938  0.32464866  -0.00820710  1
  Cr  Cr4  1  0.15921672  0.49273929  0.15772156  1
  Cr  Cr5  1  -0.00720306  0.32473704  0.32454141  1
  Cr  Cr6  1  0.99107303  0.65773523  -0.00844812  1
  Cr  Cr7  1  0.15818070  0.82502592  0.15867934  1
  Cr  Cr8  1  0.99109532  0.65745735  0.32535980  1
  Cr  Cr9  1  0.32574025  0.99091356  -0.00700749  1
  Cr  Cr10  1  0.49183822  0.15833055  0.15867520  1
  Cr  Cr11  1  0.32492363  -0.00828095  0.32279494  1
  Cr  Cr12  1  0.32350086  0.32376275  -0.00714602  1
  Cr  Cr13  1  0.49112053  0.49097710  0.15868367  1
  Cr  Cr14  1  0.32333152  0.32387208  0.32416005  1
  Cr  Cr15  1  0.32696372  0.66004557  0.99058672  1
  Fe  Fe16  1  0.49156988  0.82469060  0.15821761  1
  Cr  Cr17  1  0.32600673  0.65909410  0.32508288  1
  Cr  Cr18  1  0.65589093  0.98897676  0.99059566  1
  Cr  Cr19  1  0.82380481  0.15730883  0.15772525  1
  Cr  Cr20  1  0.65675872  0.98985088  0.32513347  1
  Cr  Cr21  1  0.65811040  0.32568145  0.99058822  1
  Cr  Cr22  1  0.82432161  0.49159084  0.15772219  1
  Cr  Cr23  1  0.65838776  0.32569436  0.32631489  1
  Cr  Cr24  1  0.65677288  0.65988179  -0.00775027  1
  Cr  Cr25  1  0.82554186  0.82574386  0.15867936  1
  Cr  Cr26  1  0.65758674  0.65905800  0.32352865  1
  Cr  Cr27  1  0.15913913  0.15708610  0.49063736  1
  Cr  Cr28  1  -0.00804361  -0.00794928  0.65774361  1
  Cr  Cr29  1  0.15890126  0.15731296  0.82626839  1
  Cr  Cr30  1  0.16014078  0.49368118  0.49270178  1
  Cr  Cr31  1  -0.00801986  0.32514159  0.65840056  1
  Cr  Cr32  1  0.15996635  0.49351953  0.82414102  1
  Cr  Cr33  1  0.15855906  0.82387634  0.49273589  1
  Cr  Cr34  1  0.99093117  0.65747014  0.65775054  1
  Cr  Cr35  1  0.15916224  0.82376469  0.82310858  1
  Cr  Cr36  1  0.49200785  0.15867005  0.49154520  1
  Cr  Cr37  1  0.32574162  0.99051056  0.65899791  1
  Cr  Cr38  1  0.49200224  0.15846080  0.82441399  1
  Cr  Cr39  1  0.49019810  0.49132272  0.49176748  1
  Cr  Cr40  1  0.32405574  0.32471176  0.65775063  1
  Cr  Cr41  1  0.49008958  0.49170518  0.82407178  1
  Cr  Cr42  1  0.49012347  0.82460140  0.49182700  1
  Fe  Fe43  1  0.32595316  0.65876986  0.65860330  1
  Fe  Fe44  1  0.49090415  0.82440840  0.82441581  1
  Cr  Cr45  1  0.82352975  0.15707163  0.49220000  1
  Cr  Cr46  1  0.65704299  0.98986256  0.65890077  1
  Cr  Cr47  1  0.82374477  0.15729907  0.82472763  1
  Cr  Cr48  1  0.82434515  0.49188469  0.49059257  1
  Cr  Cr49  1  0.65862888  0.32573689  0.65774317  1
  Cr  Cr50  1  0.82455016  0.49166892  0.82633570  1
  Cr  Cr51  1  0.82591586  0.82570066  0.49057996  1
  Cr  Cr52  1  0.65717706  0.65905731  0.65890294  1
  Cr  Cr53  1  0.82592453  0.82569034  0.82538013  1
" 