3593,Fe94Cr6_17,-202.525354451971, 212.256842215517,Fe94Cr6,"# generated using pymatgen
 data_Cr25Fe2
_symmetry_space_group_name_H-M   'P 1'
_cell_length_a   7.59480810
_cell_length_b   7.59480810
_cell_length_c   10.74068062
_cell_angle_alpha   90.00000000
_cell_angle_beta   90.00000000
_cell_angle_gamma   90.00000000
_symmetry_Int_Tables_number   1
_chemical_formula_structural   Cr25Fe2
_chemical_formula_sum   'Cr50 Fe4'
_cell_volume   619.53438137
_cell_formula_units_Z   2
loop_
 _symmetry_equiv_pos_site_id
 _symmetry_equiv_pos_as_xyz
  1  'x, y, z'
loop_
 _atom_site_type_symbol
 _atom_site_label
 _atom_site_symmetry_multiplicity
 _atom_site_fract_x
 _atom_site_fract_y
 _atom_site_fract_z
 _atom_site_occupancy
  Cr  Cr0  1  -0.00806160  -0.00806633  0.99115937  1
  Cr  Cr1  1  0.15930172  0.15923608  0.15685690  1
  Cr  Cr2  1  -0.00780572  -0.00796108  0.32438713  1
  Cr  Cr3  1  -0.00830453  0.32492908  0.99114341  1
  Cr  Cr4  1  0.15857015  0.49163974  0.15840238  1
  Cr  Cr5  1  0.99136127  0.32531458  0.32536394  1
  Cr  Cr6  1  -0.00806162  0.65790381  -0.00702119  1
  Cr  Cr7  1  0.15739109  0.82392884  0.15975245  1
  Fe  Fe8  1  -0.00831411  0.65815724  0.32513594  1
  Cr  Cr9  1  0.32395242  -0.00841018  -0.00790439  1
  Cr  Cr10  1  0.49064531  0.15919658  0.15758752  1
  Cr  Cr11  1  0.32420480  -0.00840164  0.32543683  1
  Fe  Fe12  1  0.32439476  0.32493161  0.99147550  1
  Cr  Cr13  1  0.49065108  0.49094058  0.15688208  1
  Cr  Cr14  1  0.32421396  0.32468034  0.32449518  1
  Cr  Cr15  1  0.32393298  0.65823662  0.99005942  1
  Cr  Cr16  1  0.49183435  0.82461749  0.15825524  1
  Cr  Cr17  1  0.32353304  0.65847293  0.32643747  1
  Cr  Cr18  1  0.65887013  -0.00807430  -0.00790846  1
  Cr  Cr19  1  0.82486511  0.15801406  0.15825489  1
  Cr  Cr20  1  0.65838774  -0.00757846  0.32442807  1
  Cr  Cr21  1  0.65930786  0.32494161  -0.00790610  1
  Cr  Cr22  1  0.82554116  0.49282288  0.15975264  1
  Cr  Cr23  1  0.65919776  0.32467784  0.32542857  1
  Cr  Cr24  1  0.65888961  0.65789940  0.99004979  1
  Cr  Cr25  1  0.82548522  0.82399068  0.15900072  1
  Cr  Cr26  1  0.65879595  0.65765198  0.32543243  1
  Cr  Cr27  1  0.15678723  0.15838049  0.49370048  1
  Fe  Fe28  1  -0.00830442  -0.00828816  0.65817055  1
  Cr  Cr29  1  0.15764449  0.15886494  0.82384085  1
  Cr  Cr30  1  0.15702666  0.49146268  0.49112764  1
  Fe  Fe31  1  -0.00807354  0.32480927  0.65826869  1
  Cr  Cr32  1  0.15844506  0.49007101  0.82547019  1
  Cr  Cr33  1  0.15651646  0.82492549  0.49109989  1
  Cr  Cr34  1  -0.00781414  0.65750801  0.65828404  1
  Cr  Cr35  1  0.15719393  0.82578667  0.82404116  1
  Cr  Cr36  1  0.49149412  0.15834472  0.49039201  1
  Cr  Cr37  1  0.32380271  0.99111467  0.65725663  1
  Cr  Cr38  1  0.49078208  0.15908443  0.82667253  1
  Cr  Cr39  1  0.49149409  0.49150377  0.49178670  1
  Cr  Cr40  1  0.32406360  0.32519451  0.65820987  1
  Cr  Cr41  1  0.49077485  0.49044785  0.82596354  1
  Cr  Cr42  1  0.49216017  0.82491844  0.49178771  1
  Cr  Cr43  1  0.32441962  0.65847568  0.65825583  1
  Cr  Cr44  1  0.49182243  0.82524514  0.82472403  1
  Cr  Cr45  1  0.82649991  0.15785048  0.49372259  1
  Cr  Cr46  1  0.65851425  -0.00808071  0.65826032  1
  Cr  Cr47  1  0.82638606  0.15794033  0.82255201  1
  Cr  Cr48  1  0.82625916  0.49199965  0.49124384  1
  Cr  Cr49  1  0.65963117  0.32519557  0.65725443  1
  Cr  Cr50  1  0.82564778  0.49103925  0.82412817  1
  Cr  Cr51  1  0.82599706  0.82492659  0.49109433  1
  Cr  Cr52  1  0.65816241  0.65766539  0.65926191  1
  Cr  Cr53  1  0.82569068  0.82572564  0.82479608  1
" 