162,Fe94Cr6_18,-202.604558282033, 213.215846239955,Fe94Cr6,"# generated using pymatgen
 data_Cr25Fe2
_symmetry_space_group_name_H-M   'P 1'
_cell_length_a   7.59578531
_cell_length_b   7.59578531
_cell_length_c   10.74206260
_cell_angle_alpha   90.00000000
_cell_angle_beta   90.00000000
_cell_angle_gamma   90.00000000
_symmetry_Int_Tables_number   1
_chemical_formula_structural   Cr25Fe2
_chemical_formula_sum   'Cr50 Fe4'
_cell_volume   619.77355377
_cell_formula_units_Z   2
loop_
 _symmetry_equiv_pos_site_id
 _symmetry_equiv_pos_as_xyz
  1  'x, y, z'
loop_
 _atom_site_type_symbol
 _atom_site_label
 _atom_site_symmetry_multiplicity
 _atom_site_fract_x
 _atom_site_fract_y
 _atom_site_fract_z
 _atom_site_occupancy
  Cr  Cr0  1  -0.00785459  0.98993219  0.98982312  1
  Cr  Cr1  1  0.15816344  0.15877593  0.15819546  1
  Cr  Cr2  1  0.99137712  0.99096737  0.32532760  1
  Cr  Cr3  1  -0.00792322  0.32639660  -0.00777557  1
  Fe  Fe4  1  0.15818495  0.49185147  0.15809864  1
  Cr  Cr5  1  -0.00802829  0.32632056  0.32393274  1
  Cr  Cr6  1  -0.00724134  0.65824273  -0.00832825  1
  Cr  Cr7  1  0.15910863  0.82610819  0.15824293  1
  Cr  Cr8  1  -0.00755521  0.65744872  0.32409407  1
  Cr  Cr9  1  0.32513670  -0.00841969  0.99102193  1
  Fe  Fe10  1  0.49154556  0.15798538  0.15815752  1
  Cr  Cr11  1  0.32684510  -0.00673541  0.32539600  1
  Cr  Cr12  1  0.32520088  0.32473656  -0.00635942  1
  Cr  Cr13  1  0.49071190  0.49234938  0.15724318  1
  Cr  Cr14  1  0.32613292  0.32409655  0.32388486  1
  Cr  Cr15  1  0.32266114  0.65825737  0.99098995  1
  Cr  Cr16  1  0.49139165  0.82426943  0.15819238  1
  Cr  Cr17  1  0.32336976  0.65734762  0.32400188  1
  Cr  Cr18  1  0.65730279  -0.00735665  -0.00706521  1
  Cr  Cr19  1  0.82622772  0.15794772  0.15723184  1
  Cr  Cr20  1  0.65653745  -0.00630185  0.32471280  1
  Cr  Cr21  1  0.65731499  0.32375129  -0.00841552  1
  Cr  Cr22  1  0.82430276  0.49116225  0.15820483  1
  Cr  Cr23  1  0.65656278  0.32298122  0.32540045  1
  Cr  Cr24  1  0.65896948  0.65818823  0.99105690  1
  Cr  Cr25  1  0.82408509  0.82542118  0.15915899  1
  Cr  Cr26  1  0.65865759  0.65787800  0.32532749  1
  Cr  Cr27  1  0.15817006  0.15819569  0.49199500  1
  Cr  Cr28  1  -0.00805577  0.98981274  0.65954901  1
  Cr  Cr29  1  0.15777059  0.15759966  0.82438793  1
  Cr  Cr30  1  0.15911324  0.49039147  0.49015163  1
  Cr  Cr31  1  0.99138010  0.32572241  0.65819264  1
  Cr  Cr32  1  0.15934741  0.49001955  0.82531568  1
  Cr  Cr33  1  0.15910055  0.82598748  0.49191670  1
  Cr  Cr34  1  -0.00760485  0.65888837  0.65871456  1
  Fe  Fe35  1  0.15838503  0.82472823  0.82497344  1
  Fe  Fe36  1  0.49133316  0.15819226  0.49153469  1
  Cr  Cr37  1  0.32529097  0.99143232  0.65838322  1
  Cr  Cr38  1  0.49062243  0.15846416  0.82533956  1
  Cr  Cr39  1  0.49115438  0.49235193  0.49295662  1
  Cr  Cr40  1  0.32594755  0.32400963  0.65693428  1
  Cr  Cr41  1  0.49140483  0.49229954  0.82438654  1
  Cr  Cr42  1  0.49116256  0.82402792  0.49102373  1
  Cr  Cr43  1  0.32311889  0.65900616  0.65947982  1
  Cr  Cr44  1  0.49069835  0.82386595  0.82534875  1
  Cr  Cr45  1  0.82648264  0.15818789  0.49198606  1
  Cr  Cr46  1  0.65735230  -0.00739480  0.65702562  1
  Cr  Cr47  1  0.82619205  0.15845574  0.82535583  1
  Cr  Cr48  1  0.82429181  0.49117770  0.49198830  1
  Cr  Cr49  1  0.65734355  0.32347948  0.65769864  1
  Cr  Cr50  1  0.82386470  0.49073731  0.82439623  1
  Cr  Cr51  1  0.82429427  0.82521132  0.49007123  1
  Cr  Cr52  1  0.65896311  0.65850597  0.65819289  1
  Cr  Cr53  1  0.82407698  0.82543023  0.82533843  1
" 