3747,Fe94Cr6_16,-202.541004590608, 211.848832387778,Fe94Cr6,"# generated using pymatgen
 data_Cr25Fe2
_symmetry_space_group_name_H-M   'P 1'
_cell_length_a   7.59450954
_cell_length_b   7.59450954
_cell_length_c   10.74025839
_cell_angle_alpha   90.00000000
_cell_angle_beta   90.00000000
_cell_angle_gamma   90.00000000
_symmetry_Int_Tables_number   1
_chemical_formula_structural   Cr25Fe2
_chemical_formula_sum   'Cr50 Fe4'
_cell_volume   619.46132002
_cell_formula_units_Z   2
loop_
 _symmetry_equiv_pos_site_id
 _symmetry_equiv_pos_as_xyz
  1  'x, y, z'
loop_
 _atom_site_type_symbol
 _atom_site_label
 _atom_site_symmetry_multiplicity
 _atom_site_fract_x
 _atom_site_fract_y
 _atom_site_fract_z
 _atom_site_occupancy
  Cr  Cr0  1  0.99093497  0.99023864  -0.00771870  1
  Cr  Cr1  1  0.15788284  0.15760236  0.15819598  1
  Cr  Cr2  1  0.99090775  0.99069182  0.32419496  1
  Cr  Cr3  1  -0.00796727  0.32564695  0.99117690  1
  Cr  Cr4  1  0.15897155  0.49293664  0.15929172  1
  Cr  Cr5  1  -0.00800045  0.32561437  0.32573179  1
  Cr  Cr6  1  0.99093642  0.65893766  -0.00772006  1
  Cr  Cr7  1  0.15788418  0.82428843  0.15850792  1
  Cr  Cr8  1  -0.00801685  0.65851695  0.32341498  1
  Cr  Cr9  1  0.32529750  -0.00789510  0.99039538  1
  Cr  Cr10  1  0.49234390  0.15838269  0.15741450  1
  Cr  Cr11  1  0.32595359  0.99040671  0.32638475  1
  Cr  Cr12  1  0.32528505  0.32486634  0.99083277  1
  Cr  Cr13  1  0.49126896  0.49216680  0.15850856  1
  Cr  Cr14  1  0.32487001  0.32590837  0.32485663  1
  Cr  Cr15  1  0.32451639  0.65785330  -0.00807021  1
  Cr  Cr16  1  0.49156771  0.82427582  0.15926057  1
  Fe  Fe17  1  0.32528730  0.65862420  0.32527722  1
  Cr  Cr18  1  0.65859137  0.99100853  -0.00693804  1
  Cr  Cr19  1  0.82459835  0.15729568  0.15863354  1
  Cr  Cr20  1  0.65796397  0.99039353  0.32450294  1
  Cr  Cr21  1  0.65750693  0.32486632  -0.00804126  1
  Cr  Cr22  1  0.82458607  0.49216031  0.15819602  1
  Cr  Cr23  1  0.65795492  0.32483318  0.32451225  1
  Cr  Cr24  1  0.65937081  0.65894844  0.99152565  1
  Fe  Fe25  1  0.82492744  0.82492361  0.15829521  1
  Cr  Cr26  1  0.65766808  0.65959790  0.32526045  1
  Cr  Cr27  1  0.15781727  0.15760264  0.49169332  1
  Cr  Cr28  1  -0.00836209  0.99135702  0.65835371  1
  Cr  Cr29  1  0.15826534  0.15756921  0.82493552  1
  Cr  Cr30  1  0.15890726  0.49252227  0.49015853  1
  Cr  Cr31  1  -0.00834958  0.32561461  0.65791601  1
  Cr  Cr32  1  0.15827767  0.49189265  0.82537295  1
  Cr  Cr33  1  0.15997745  0.82470071  0.49094125  1
  Cr  Cr34  1  0.99055979  0.65785363  0.65913556  1
  Cr  Cr35  1  0.15827790  0.82536313  0.82537295  1
  Cr  Cr36  1  0.49196124  0.15732054  0.49125585  1
  Cr  Cr37  1  0.32592308  0.99106447  0.65804310  1
  Cr  Cr38  1  0.49154639  0.15835045  0.82615482  1
  Cr  Cr39  1  0.49196025  0.49390122  0.49125498  1
  Cr  Cr40  1  0.32483734  0.32483313  0.65913581  1
  Cr  Cr41  1  0.49262344  0.49220079  0.82505898  1
  Fe  Fe42  1  0.49162046  0.82426583  0.49159779  1
  Cr  Cr43  1  0.32622136  0.65892919  0.65728839  1
  Cr  Cr44  1  0.49184367  0.82427193  0.82352346  1
  Cr  Cr45  1  0.82504613  0.15838335  0.49159985  1
  Cr  Cr46  1  0.65726447  0.98997242  0.65726198  1
  Cr  Cr47  1  0.82501350  0.15835104  0.82459113  1
  Cr  Cr48  1  0.82395686  0.49174087  0.49313374  1
  Cr  Cr49  1  0.65833723  0.32590842  0.65835368  1
  Cr  Cr50  1  0.82392235  0.49218986  0.82349364  1
  Cr  Cr51  1  0.82367231  0.82470020  0.49238051  1
  Fe  Fe52  1  0.65793091  0.65861268  0.65792906  1
  Cr  Cr53  1  0.82470384  0.82428470  0.82502835  1
" 