3598,Fe94Cr6_12,-202.602278669386, 211.80696722226,Fe94Cr6,"# generated using pymatgen
 data_Cr25Fe2
_symmetry_space_group_name_H-M   'P 1'
_cell_length_a   7.59393740
_cell_length_b   7.59393740
_cell_length_c   10.73944927
_cell_angle_alpha   90.00000000
_cell_angle_beta   90.00000000
_cell_angle_gamma   90.00000000
_symmetry_Int_Tables_number   1
_chemical_formula_structural   Cr25Fe2
_chemical_formula_sum   'Cr50 Fe4'
_cell_volume   619.32132825
_cell_formula_units_Z   2
loop_
 _symmetry_equiv_pos_site_id
 _symmetry_equiv_pos_as_xyz
  1  'x, y, z'
loop_
 _atom_site_type_symbol
 _atom_site_label
 _atom_site_symmetry_multiplicity
 _atom_site_fract_x
 _atom_site_fract_y
 _atom_site_fract_z
 _atom_site_occupancy
  Cr  Cr0  1  0.99083390  -0.00780020  -0.00710118  1
  Cr  Cr1  1  0.15802943  0.15850182  0.15831515  1
  Cr  Cr2  1  0.98995920  -0.00781758  0.32349592  1
  Cr  Cr3  1  0.99082422  0.32323835  -0.00711586  1
  Cr  Cr4  1  0.15802341  0.49067612  0.15797148  1
  Cr  Cr5  1  0.99090294  0.32356304  0.32457129  1
  Cr  Cr6  1  -0.00808147  0.65950303  0.99094600  1
  Cr  Cr7  1  0.15865288  0.82575590  0.15728181  1
  Cr  Cr8  1  -0.00783515  0.65926275  0.32601618  1
  Cr  Cr9  1  0.32559265  -0.00772501  0.98939402  1
  Cr  Cr10  1  0.49267158  0.15724464  0.15873589  1
  Cr  Cr11  1  0.32491863  0.99146679  0.32595186  1
  Cr  Cr12  1  0.32637160  0.32409781  0.99143970  1
  Cr  Cr13  1  0.49226021  0.49153738  0.15830401  1
  Cr  Cr14  1  0.32543067  0.32505846  0.32498427  1
  Cr  Cr15  1  0.32532705  0.65864424  -0.00661828  1
  Cr  Cr16  1  0.49286996  0.82610821  0.15968428  1
  Cr  Cr17  1  0.32484355  0.65843883  0.32428752  1
  Cr  Cr18  1  0.65865236  -0.00681600  -0.00732512  1
  Fe  Fe19  1  0.82401417  0.15815791  0.15879592  1
  Fe  Fe20  1  0.65852815  -0.00766975  0.32454769  1
  Cr  Cr21  1  0.65771063  0.32319209  0.99061145  1
  Cr  Cr22  1  0.82465419  0.49105836  0.15729349  1
  Cr  Cr23  1  0.65861680  0.32306080  0.32457863  1
  Cr  Cr24  1  0.65770388  0.65863576  0.99060850  1
  Cr  Cr25  1  0.82333666  0.82636828  0.15876897  1
  Cr  Cr26  1  0.65795929  0.65890652  0.32600012  1
  Cr  Cr27  1  0.15912342  0.15775751  0.49289882  1
  Cr  Cr28  1  -0.00807212  0.99145549  0.65831515  1
  Cr  Cr29  1  0.15999811  0.15777489  0.82349592  1
  Cr  Cr30  1  0.15803878  0.49045428  0.49094600  1
  Cr  Cr31  1  0.99130443  0.32420142  0.65728181  1
  Cr  Cr32  1  0.15779246  0.49069456  0.82601618  1
  Cr  Cr33  1  0.15913309  0.82671896  0.49288414  1
  Cr  Cr34  1  -0.00806610  0.65928119  0.65797148  1
  Cr  Cr35  1  0.15905437  0.82639427  0.82457129  1
  Cr  Cr36  1  0.49130495  0.15677332  0.49267488  1
  Fe  Fe37  1  0.32594314  -0.00820060  0.65879592  1
  Fe  Fe38  1  0.49142917  0.15762706  0.82454769  1
  Cr  Cr39  1  0.49225343  0.49132155  0.49060850  1
  Cr  Cr40  1  0.32662065  0.32358903  0.65876897  1
  Cr  Cr41  1  0.49199802  0.49105080  0.82600012  1
  Cr  Cr42  1  0.49224669  0.82676523  0.49061145  1
  Cr  Cr43  1  0.32530312  0.65889895  0.65729349  1
  Cr  Cr44  1  0.49134052  0.82689651  0.82457863  1
  Cr  Cr45  1  0.82436467  0.15768233  0.48939402  1
  Cr  Cr46  1  0.65728574  -0.00728733  0.65873589  1
  Cr  Cr47  1  0.82503868  0.15849052  0.82595186  1
  Cr  Cr48  1  0.82463026  0.49131307  0.49338172  1
  Cr  Cr49  1  0.65708736  0.32384911  0.65968428  1
  Cr  Cr50  1  0.82511376  0.49151849  0.82428752  1
  Cr  Cr51  1  0.82358571  0.82585950  0.49143970  1
  Cr  Cr52  1  0.65769710  0.65841993  0.65830401  1
  Cr  Cr53  1  0.82452665  0.82489885  0.82498427  1
" 