1115,Fe94Cr6_4,-202.593007563913, 212.529972913368,Fe94Cr6,"# generated using pymatgen
 data_Cr25Fe2
_symmetry_space_group_name_H-M   'P 1'
_cell_length_a   7.59333393
_cell_length_b   7.59333393
_cell_length_c   10.73859583
_cell_angle_alpha   90.00000000
_cell_angle_beta   90.00000000
_cell_angle_gamma   90.00000000
_symmetry_Int_Tables_number   1
_chemical_formula_structural   Cr25Fe2
_chemical_formula_sum   'Cr50 Fe4'
_cell_volume   619.17369178
_cell_formula_units_Z   2
loop_
 _symmetry_equiv_pos_site_id
 _symmetry_equiv_pos_as_xyz
  1  'x, y, z'
loop_
 _atom_site_type_symbol
 _atom_site_label
 _atom_site_symmetry_multiplicity
 _atom_site_fract_x
 _atom_site_fract_y
 _atom_site_fract_z
 _atom_site_occupancy
  Cr  Cr0  1  -0.00637684  0.98988582  -0.00797662  1
  Cr  Cr1  1  0.15760511  0.15833283  0.15930741  1
  Cr  Cr2  1  -0.00553364  0.99067883  0.32516952  1
  Cr  Cr3  1  -0.00760791  0.32588778  0.99065141  1
  Cr  Cr4  1  0.15932909  0.49343454  0.15698938  1
  Cr  Cr5  1  -0.00652291  0.32518958  0.32643651  1
  Cr  Cr6  1  -0.00771584  0.65936829  -0.00683658  1
  Fe  Fe7  1  0.15893870  0.82468177  0.15798304  1
  Cr  Cr8  1  0.99156699  0.65917355  0.32373792  1
  Cr  Cr9  1  0.32398083  0.99078092  -0.00689171  1
  Cr  Cr10  1  0.49237341  0.15797943  0.15835472  1
  Cr  Cr11  1  0.32341994  -0.00761260  0.32510084  1
  Cr  Cr12  1  0.32526726  0.32471853  -0.00831324  1
  Cr  Cr13  1  0.48982544  0.49240200  0.15806100  1
  Cr  Cr14  1  0.32442322  0.32348993  0.32638340  1
  Fe  Fe15  1  0.32481019  0.65898008  -0.00773594  1
  Cr  Cr16  1  0.48978947  0.82461247  0.15801347  1
  Cr  Cr17  1  0.32445607  0.65923177  0.32372161  1
  Cr  Cr18  1  0.65740413  0.99061716  0.99064905  1
  Cr  Cr19  1  0.82508518  0.15796408  0.15767079  1
  Cr  Cr20  1  0.65720698  0.99051906  0.32501383  1
  Cr  Cr21  1  0.65738998  0.32640802  0.99131624  1
  Cr  Cr22  1  0.82596411  0.49071680  0.15938805  1
  Cr  Cr23  1  0.65719404  0.32648974  0.32434166  1
  Cr  Cr24  1  0.65856865  0.65802869  -0.00831305  1
  Cr  Cr25  1  0.82573295  0.82634665  0.15937686  1
  Cr  Cr26  1  0.65897939  0.65803681  0.32569546  1
  Fe  Fe27  1  0.15818502  0.15809537  0.49168740  1
  Cr  Cr28  1  -0.00640032  0.99156418  0.65802178  1
  Cr  Cr29  1  0.15769213  0.15867657  0.82405206  1
  Cr  Cr30  1  0.15919800  0.49192077  0.49291880  1
  Cr  Cr31  1  -0.00684919  0.32501903  0.65796740  1
  Cr  Cr32  1  0.16019536  0.49351894  0.82493186  1
  Cr  Cr33  1  0.15919976  0.82425617  0.49192319  1
  Cr  Cr34  1  0.99119896  0.65842770  0.65835985  1
  Cr  Cr35  1  0.16025365  0.82280795  0.82595196  1
  Cr  Cr36  1  0.49173293  0.15777766  0.49065935  1
  Cr  Cr37  1  0.32410154  -0.00739401  0.65705876  1
  Cr  Cr38  1  0.49206783  0.15778827  0.82603905  1
  Cr  Cr39  1  0.48983198  0.49279862  0.49194609  1
  Cr  Cr40  1  0.32454880  0.32398157  0.65700815  1
  Cr  Cr41  1  0.48865224  0.49357696  0.82487868  1
  Cr  Cr42  1  0.49070377  0.82448947  0.49298564  1
  Fe  Fe43  1  0.32468833  0.65842011  0.65825143  1
  Cr  Cr44  1  0.48953544  0.82369554  0.82384013  1
  Cr  Cr45  1  0.82593301  0.15778810  0.49132733  1
  Cr  Cr46  1  0.65739491  0.99083658  0.65938656  1
  Cr  Cr47  1  0.82528453  0.15777547  0.82605994  1
  Cr  Cr48  1  0.82595844  0.49115304  0.49065666  1
  Cr  Cr49  1  0.65740267  0.32628992  0.65938906  1
  Cr  Cr50  1  0.82616514  0.49102855  0.82501234  1
  Cr  Cr51  1  0.82508419  0.82614200  0.49167805  1
  Cr  Cr52  1  0.65836115  0.65792376  0.65768807  1
  Cr  Cr53  1  0.82528311  0.82625657  0.82398275  1
" 