3376,Fe94Cr6_6,-202.562344436011, 212.098347951011,Fe94Cr6,"# generated using pymatgen
 data_Cr25Fe2
_symmetry_space_group_name_H-M   'P 1'
_cell_length_a   7.59359726
_cell_length_b   7.59359726
_cell_length_c   10.73896823
_cell_angle_alpha   90.00000000
_cell_angle_beta   90.00000000
_cell_angle_gamma   90.00000000
_symmetry_Int_Tables_number   1
_chemical_formula_structural   Cr25Fe2
_chemical_formula_sum   'Cr50 Fe4'
_cell_volume   619.23811006
_cell_formula_units_Z   2
loop_
 _symmetry_equiv_pos_site_id
 _symmetry_equiv_pos_as_xyz
  1  'x, y, z'
loop_
 _atom_site_type_symbol
 _atom_site_label
 _atom_site_symmetry_multiplicity
 _atom_site_fract_x
 _atom_site_fract_y
 _atom_site_fract_z
 _atom_site_occupancy
  Cr  Cr0  1  -0.00781351  -0.00822261  -0.00729563  1
  Cr  Cr1  1  0.15692187  0.15999625  0.15841650  1
  Cr  Cr2  1  -0.00805134  0.99115440  0.32447651  1
  Fe  Fe3  1  0.99157975  0.32508375  0.99144532  1
  Cr  Cr4  1  0.15806913  0.49006648  0.15630809  1
  Cr  Cr5  1  0.99085019  0.32603911  0.32476036  1
  Cr  Cr6  1  0.99157572  0.65812784  0.99100108  1
  Cr  Cr7  1  0.15853258  0.82491633  0.15885319  1
  Cr  Cr8  1  0.99082988  0.65778341  0.32673440  1
  Cr  Cr9  1  0.32482835  -0.00776513  0.99040530  1
  Cr  Cr10  1  0.49226604  0.15864375  0.15888421  1
  Cr  Cr11  1  0.32386438  -0.00824504  0.32518136  1
  Cr  Cr12  1  0.32508095  0.32431368  0.99043831  1
  Cr  Cr13  1  0.49139456  0.49171572  0.15885660  1
  Cr  Cr14  1  0.32476885  0.32524295  0.32553585  1
  Cr  Cr15  1  0.32461750  0.65847535  -0.00729695  1
  Cr  Cr16  1  0.49228235  0.82463914  0.15920459  1
  Cr  Cr17  1  0.32415091  0.65799032  0.32341951  1
  Cr  Cr18  1  0.65795240  -0.00772190  0.99035401  1
  Cr  Cr19  1  0.82581729  0.15911609  0.15736287  1
  Cr  Cr20  1  0.65919766  -0.00823222  0.32448002  1
  Cr  Cr21  1  0.65829958  0.32487431  0.99039316  1
  Cr  Cr22  1  0.82553014  0.49007965  0.15733408  1
  Cr  Cr23  1  0.65943697  0.32638202  0.32683885  1
  Cr  Cr24  1  0.65880159  0.65787590  -0.00729267  1
  Cr  Cr25  1  0.82417498  0.82579784  0.15780959  1
  Cr  Cr26  1  0.65999200  0.65690226  0.32466858  1
  Cr  Cr27  1  0.15787854  0.15878840  0.49062200  1
  Cr  Cr28  1  -0.00804774  0.99094213  0.65781716  1
  Cr  Cr29  1  0.15718868  0.15971717  0.82570781  1
  Cr  Cr30  1  0.15770785  0.49197333  0.49312632  1
  Cr  Cr31  1  0.99064272  0.32649462  0.65735809  1
  Cr  Cr32  1  0.15745028  0.49124411  0.82557809  1
  Cr  Cr33  1  0.15806419  0.82422363  0.49314252  1
  Fe  Fe34  1  0.99107803  0.65744518  0.65809088  1
  Cr  Cr35  1  0.15755677  0.82396080  0.82320169  1
  Cr  Cr36  1  0.49204094  0.15819816  0.49230265  1
  Cr  Cr37  1  0.32503055  -0.00708552  0.65963605  1
  Fe  Fe38  1  0.49175432  0.15872844  0.82492607  1
  Cr  Cr39  1  0.49175617  0.49217814  0.49063382  1
  Cr  Cr40  1  0.32590062  0.32408761  0.65927137  1
  Cr  Cr41  1  0.49138379  0.49156979  0.82551305  1
  Cr  Cr42  1  0.49202779  0.82463126  0.49060934  1
  Cr  Cr43  1  0.32406435  0.65800345  0.65885593  1
  Cr  Cr44  1  0.49225338  0.82482090  0.82516801  1
  Cr  Cr45  1  0.82509142  0.15851667  0.49063249  1
  Cr  Cr46  1  0.65795749  -0.00701459  0.66039161  1
  Cr  Cr47  1  0.82533268  0.15885357  0.82677006  1
  Fe  Fe48  1  0.82561473  0.49210984  0.49223268  1
  Cr  Cr49  1  0.65842265  0.32535990  0.65782832  1
  Cr  Cr50  1  0.82624058  0.49132360  0.82451573  1
  Cr  Cr51  1  0.82494368  0.82440239  0.49319540  1
  Cr  Cr52  1  0.66056803  0.65670488  0.65738874  1
  Cr  Cr53  1  0.82518337  0.82482917  0.82424371  1
" 