2410,Fe94Cr6_13,-202.581468033842, 211.991357941056,Fe94Cr6,"# generated using pymatgen
 data_Cr25Fe2
_symmetry_space_group_name_H-M   'P 1'
_cell_length_a   7.59364353
_cell_length_b   7.59364353
_cell_length_c   10.73903367
_cell_angle_alpha   90.00000000
_cell_angle_beta   90.00000000
_cell_angle_gamma   90.00000000
_symmetry_Int_Tables_number   1
_chemical_formula_structural   Cr25Fe2
_chemical_formula_sum   'Cr50 Fe4'
_cell_volume   619.24943043
_cell_formula_units_Z   2
loop_
 _symmetry_equiv_pos_site_id
 _symmetry_equiv_pos_as_xyz
  1  'x, y, z'
loop_
 _atom_site_type_symbol
 _atom_site_label
 _atom_site_symmetry_multiplicity
 _atom_site_fract_x
 _atom_site_fract_y
 _atom_site_fract_z
 _atom_site_occupancy
  Cr  Cr0  1  0.99164515  -0.00806998  0.99008586  1
  Cr  Cr1  1  0.15822348  0.15869773  0.15673961  1
  Cr  Cr2  1  0.99160704  -0.00824898  0.32500537  1
  Cr  Cr3  1  0.99010671  0.32519534  -0.00739237  1
  Cr  Cr4  1  0.15714778  0.49260905  0.15987864  1
  Cr  Cr5  1  0.99130359  0.32661418  0.32502534  1
  Cr  Cr6  1  0.99001937  0.65779208  -0.00631068  1
  Cr  Cr7  1  0.15710443  0.82376100  0.15805711  1
  Fe  Fe8  1  -0.00820971  0.65726920  0.32503071  1
  Cr  Cr9  1  0.32466355  0.99103348  -0.00812193  1
  Cr  Cr10  1  0.49227961  0.15848392  0.15987275  1
  Cr  Cr11  1  0.32500089  0.99127796  0.32427415  1
  Cr  Cr12  1  0.32492477  0.32480541  -0.00778764  1
  Cr  Cr13  1  0.49161492  0.49139621  0.15674508  1
  Cr  Cr14  1  0.32410460  0.32563795  0.32637476  1
  Cr  Cr15  1  0.32580860  0.65915435  0.99115523  1
  Cr  Cr16  1  0.49231813  0.82518208  0.15917884  1
  Cr  Cr17  1  0.32442822  0.65801027  0.32642105  1
  Cr  Cr18  1  0.65867039  0.99105350  -0.00783260  1
  Cr  Cr19  1  0.82451645  0.15803826  0.15909627  1
  Fe  Fe20  1  0.65857188  -0.00825125  0.32506144  1
  Cr  Cr21  1  0.65995793  0.32633163  -0.00740501  1
  Fe  Fe22  1  0.82554219  0.49220781  0.15904067  1
  Cr  Cr23  1  0.65950169  0.32595860  0.32373575  1
  Cr  Cr24  1  0.65906500  0.65762352  0.99152584  1
  Cr  Cr25  1  0.82569991  0.82408034  0.16057197  1
  Cr  Cr26  1  0.65938747  0.65789719  0.32369193  1
  Cr  Cr27  1  0.15797411  0.15921653  0.49217344  1
  Cr  Cr28  1  -0.00778685  -0.00806994  0.65991474  1
  Cr  Cr29  1  0.15825217  0.15926811  0.82607418  1
  Fe  Fe30  1  0.15750527  0.49215196  0.49093233  1
  Cr  Cr31  1  -0.00814991  0.32509427  0.65748914  1
  Cr  Cr32  1  0.15851610  0.49175192  0.82398504  1
  Cr  Cr33  1  0.15680161  0.82289133  0.49081732  1
  Cr  Cr34  1  -0.00807996  0.65789472  0.65640930  1
  Cr  Cr35  1  0.15760669  0.82397580  0.82607882  1
  Cr  Cr36  1  0.49290136  0.15835186  0.48999396  1
  Cr  Cr37  1  0.32438105  0.99106228  0.65886185  1
  Cr  Cr38  1  0.49175662  0.15948865  0.82499810  1
  Cr  Cr39  1  0.49098920  0.49139709  0.49323580  1
  Cr  Cr40  1  0.32403573  0.32540413  0.65636532  1
  Cr  Cr41  1  0.49110712  0.49110832  0.82499871  1
  Cr  Cr42  1  0.49294497  0.82531380  0.49068710  1
  Cr  Cr43  1  0.32492734  0.65854928  0.65741324  1
  Cr  Cr44  1  0.49175515  0.82438328  0.82499797  1
  Cr  Cr45  1  0.82414222  0.15748056  0.49183787  1
  Cr  Cr46  1  0.65841238  0.99102540  0.65711673  1
  Cr  Cr47  1  0.82498142  0.15861494  0.82392424  1
  Cr  Cr48  1  0.82641595  0.49265155  0.49077926  1
  Cr  Cr49  1  0.65904267  0.32571528  0.65884389  1
  Cr  Cr50  1  0.82537661  0.49175049  0.82598827  1
  Cr  Cr51  1  0.82527340  0.82498715  0.49039957  1
  Cr  Cr52  1  0.65815964  0.65824494  0.65992108  1
  Cr  Cr53  1  0.82562878  0.82463031  0.82391944  1
" 