5048,Fe94Cr6_10,-202.592800165366, 212.711234094361,Fe94Cr6,"# generated using pymatgen
 data_Cr25Fe2
_symmetry_space_group_name_H-M   'P 1'
_cell_length_a   7.59610039
_cell_length_b   7.59610039
_cell_length_c   10.74250819
_cell_angle_alpha   90.00000000
_cell_angle_beta   90.00000000
_cell_angle_gamma   90.00000000
_symmetry_Int_Tables_number   1
_chemical_formula_structural   Cr25Fe2
_chemical_formula_sum   'Cr50 Fe4'
_cell_volume   619.85068410
_cell_formula_units_Z   2
loop_
 _symmetry_equiv_pos_site_id
 _symmetry_equiv_pos_as_xyz
  1  'x, y, z'
loop_
 _atom_site_type_symbol
 _atom_site_label
 _atom_site_symmetry_multiplicity
 _atom_site_fract_x
 _atom_site_fract_y
 _atom_site_fract_z
 _atom_site_occupancy
  Cr  Cr0  1  0.99068417  0.99090283  -0.00653025  1
  Cr  Cr1  1  0.15873090  0.15817638  0.15837206  1
  Cr  Cr2  1  0.99093634  0.99115421  0.32337877  1
  Cr  Cr3  1  -0.00848888  0.32460119  -0.00847666  1
  Cr  Cr4  1  0.15741721  0.49127597  0.15768710  1
  Cr  Cr5  1  -0.00825075  0.32436355  0.32530918  1
  Cr  Cr6  1  -0.00766379  0.65901759  0.99055992  1
  Cr  Cr7  1  0.15873079  0.82506360  0.15768703  1
  Cr  Cr8  1  -0.00775359  0.65900359  0.32532895  1
  Cr  Cr9  1  0.32421530  0.99090476  0.99052555  1
  Cr  Cr10  1  0.49118245  0.15752871  0.15768043  1
  Cr  Cr11  1  0.32396651  0.99115596  0.32630359  1
  Cr  Cr12  1  0.32507193  0.32624298  -0.00752615  1
  Cr  Cr13  1  0.49294696  0.49239208  0.15897959  1
  Cr  Cr14  1  0.32480787  0.32597635  0.32437314  1
  Cr  Cr15  1  0.32425117  0.65736302  0.99148887  1
  Cr  Cr16  1  0.49228688  0.82460051  0.15897720  1
  Cr  Cr17  1  0.32462128  0.65737760  0.32437591  1
  Cr  Cr18  1  0.65960652  -0.00827760  0.99046981  1
  Cr  Cr19  1  0.82459892  0.15883153  0.15768716  1
  Cr  Cr20  1  0.65958381  0.99149211  0.32538448  1
  Cr  Cr21  1  0.65793577  0.32460566  0.99049674  1
  Cr  Cr22  1  0.82421100  0.49231353  0.15890709  1
  Cr  Cr23  1  0.65794145  0.32483656  0.32535747  1
  Cr  Cr24  1  0.65793556  0.65818793  0.99144880  1
  Cr  Cr25  1  0.82354785  0.82336569  0.15890946  1
  Fe  Fe26  1  0.65849923  0.65818644  0.32498659  1
  Cr  Cr27  1  0.15840988  0.15815861  0.49250302  1
  Cr  Cr28  1  0.99099847  0.99076463  0.65766777  1
  Cr  Cr29  1  0.15842021  0.15816039  0.82384516  1
  Cr  Cr30  1  0.15614691  0.49118842  0.49314811  1
  Fe  Fe31  1  0.99132745  0.32515979  0.65814941  1
  Cr  Cr32  1  0.15612122  0.49110238  0.82366233  1
  Cr  Cr33  1  0.15850584  0.82516755  0.49322497  1
  Fe  Fe34  1  0.99109092  0.65785175  0.65805219  1
  Cr  Cr35  1  0.15827321  0.82525774  0.82359107  1
  Cr  Cr36  1  0.49040075  0.15706126  0.49251583  1
  Fe  Fe37  1  0.32510703  0.99142173  0.65815241  1
  Cr  Cr38  1  0.49018449  0.15716564  0.82442544  1
  Cr  Cr39  1  0.49270160  0.49248476  0.48914921  1
  Cr  Cr40  1  0.32508587  0.32589987  0.65766071  1
  Cr  Cr41  1  0.49182984  0.49159094  0.82629527  1
  Cr  Cr42  1  0.49154417  0.82502622  0.49118280  1
  Cr  Cr43  1  0.32398287  0.65793483  0.65865520  1
  Cr  Cr44  1  0.49079140  0.82579890  0.82437738  1
  Cr  Cr45  1  0.82575762  0.15931442  0.49185735  1
  Cr  Cr46  1  0.65899937  -0.00828398  0.65865686  1
  Cr  Cr47  1  0.82596582  0.15920883  0.82508104  1
  Cr  Cr48  1  0.82563112  0.49214906  0.49243775  1
  Cr  Cr49  1  0.65819633  0.32461220  0.65865659  1
  Cr  Cr50  1  0.82644732  0.49163279  0.82307653  1
  Cr  Cr51  1  0.82446015  0.82299074  0.49038453  1
  Cr  Cr52  1  0.65794871  0.65818916  0.65773214  1
  Cr  Cr53  1  0.82540624  0.82363627  0.82500478  1
" 