676,Fe94Cr6_19,-202.575455781464, 212.987081171633,Fe94Cr6,"# generated using pymatgen
 data_Cr25Fe2
_symmetry_space_group_name_H-M   'P 1'
_cell_length_a   7.59297220
_cell_length_b   7.59297220
_cell_length_c   10.73808427
_cell_angle_alpha   90.00000000
_cell_angle_beta   90.00000000
_cell_angle_gamma   90.00000000
_symmetry_Int_Tables_number   1
_chemical_formula_structural   Cr25Fe2
_chemical_formula_sum   'Cr50 Fe4'
_cell_volume   619.08520835
_cell_formula_units_Z   2
loop_
 _symmetry_equiv_pos_site_id
 _symmetry_equiv_pos_as_xyz
  1  'x, y, z'
loop_
 _atom_site_type_symbol
 _atom_site_label
 _atom_site_symmetry_multiplicity
 _atom_site_fract_x
 _atom_site_fract_y
 _atom_site_fract_z
 _atom_site_occupancy
  Cr  Cr0  1  0.99076731  -0.00714271  -0.00725280  1
  Fe  Fe1  1  0.15821302  0.15831123  0.15841578  1
  Cr  Cr2  1  -0.00816606  -0.00767110  0.32360175  1
  Cr  Cr3  1  0.99165097  0.32326997  0.99163300  1
  Cr  Cr4  1  0.15742126  0.49038741  0.15731584  1
  Cr  Cr5  1  -0.00723487  0.32386263  0.32467125  1
  Cr  Cr6  1  -0.00733916  0.65895149  0.99065484  1
  Cr  Cr7  1  0.15785936  0.82642483  0.15731802  1
  Cr  Cr8  1  -0.00799063  0.65894606  0.32609980  1
  Cr  Cr9  1  0.32471517  0.99166628  -0.00686606  1
  Cr  Cr10  1  0.49043956  0.15830828  0.15837561  1
  Cr  Cr11  1  0.32444499  -0.00805752  0.32456089  1
  Cr  Cr12  1  0.32471621  0.32543512  -0.00583603  1
  Cr  Cr13  1  0.49313973  0.49163935  0.15869699  1
  Cr  Cr14  1  0.32444334  0.32517617  0.32355591  1
  Cr  Cr15  1  0.32504152  0.65800740  0.99102955  1
  Cr  Cr16  1  0.49274174  0.82514546  0.15873133  1
  Cr  Cr17  1  0.32585675  0.65800178  0.32504109  1
  Cr  Cr18  1  0.65966705  -0.00736066  0.99028705  1
  Cr  Cr19  1  0.82568521  0.15874543  0.15738191  1
  Cr  Cr20  1  0.65880475  0.99096734  0.32504147  1
  Cr  Cr21  1  0.65877372  0.32348561  0.98918451  1
  Cr  Cr22  1  0.82458657  0.49253414  0.15973343  1
  Cr  Cr23  1  0.65786437  0.32504764  0.32609770  1
  Cr  Cr24  1  0.65742950  0.65894797  -0.00766444  1
  Cr  Cr25  1  0.82454480  0.82381909  0.15976182  1
  Fe  Fe26  1  0.65794352  0.65843782  0.32493147  1
  Cr  Cr27  1  0.15968424  0.15742791  0.49146355  1
  Cr  Cr28  1  0.99054993  -0.00792166  0.65867734  1
  Cr  Cr29  1  0.15892815  0.15758870  0.82478274  1
  Cr  Cr30  1  0.15741229  0.49112137  0.49277174  1
  Cr  Cr31  1  0.99068234  0.32422180  0.65873389  1
  Cr  Cr32  1  0.15760579  0.49131131  0.82504094  1
  Cr  Cr33  1  0.15882706  0.82666571  0.49429980  1
  Cr  Cr34  1  -0.00752263  0.65875924  0.65837265  1
  Cr  Cr35  1  0.15884947  0.82631152  0.82367008  1
  Cr  Cr36  1  0.49034605  0.15738734  0.49318898  1
  Fe  Fe37  1  0.32505299  -0.00807410  0.65844251  1
  Cr  Cr38  1  0.49129443  0.15754740  0.82372693  1
  Cr  Cr39  1  0.49303538  0.49152563  0.49025144  1
  Cr  Cr40  1  0.32555226  0.32577984  0.65730988  1
  Cr  Cr41  1  0.49194433  0.49080971  0.82610163  1
  Cr  Cr42  1  0.49162931  0.82625638  0.49177053  1
  Cr  Cr43  1  0.32504360  0.65886614  0.65904601  1
  Cr  Cr44  1  0.49068295  0.82684575  0.82470992  1
  Cr  Cr45  1  0.82504531  0.15875650  0.49270605  1
  Cr  Cr46  1  0.65891918  -0.00737366  0.65978184  1
  Fe  Fe47  1  0.82562500  0.15815019  0.82503703  1
  Cr  Cr48  1  0.82468849  0.49242331  0.48989580  1
  Cr  Cr49  1  0.65895279  0.32367491  0.65984143  1
  Cr  Cr50  1  0.82555397  0.49076060  0.82542962  1
  Cr  Cr51  1  0.82465134  0.82391908  0.48919406  1
  Cr  Cr52  1  0.65761242  0.65875820  0.65737481  1
  Cr  Cr53  1  0.82555614  0.82543661  0.82609935  1
" 