5330,Fe94Cr6_2,-202.512365632319, 211.761484567205,Fe94Cr6,"# generated using pymatgen
 data_Cr25Fe2
_symmetry_space_group_name_H-M   'P 1'
_cell_length_a   7.59338024
_cell_length_b   7.59338024
_cell_length_c   10.73866132
_cell_angle_alpha   90.00000000
_cell_angle_beta   90.00000000
_cell_angle_gamma   90.00000000
_symmetry_Int_Tables_number   1
_chemical_formula_structural   Cr25Fe2
_chemical_formula_sum   'Cr50 Fe4'
_cell_volume   619.18502085
_cell_formula_units_Z   2
loop_
 _symmetry_equiv_pos_site_id
 _symmetry_equiv_pos_as_xyz
  1  'x, y, z'
loop_
 _atom_site_type_symbol
 _atom_site_label
 _atom_site_symmetry_multiplicity
 _atom_site_fract_x
 _atom_site_fract_y
 _atom_site_fract_z
 _atom_site_occupancy
  Cr  Cr0  1  0.99144906  -0.00778075  -0.00751446  1
  Cr  Cr1  1  0.15865529  0.15925235  0.15638962  1
  Cr  Cr2  1  0.99144497  -0.00802489  0.32502197  1
  Fe  Fe3  1  -0.00822743  0.32525361  0.99136015  1
  Cr  Cr4  1  0.15728376  0.49139078  0.15753816  1
  Cr  Cr5  1  -0.00772596  0.32388080  0.32507275  1
  Cr  Cr6  1  -0.00774171  0.65916386  -0.00784067  1
  Cr  Cr7  1  0.15903862  0.82451499  0.15882522  1
  Cr  Cr8  1  -0.00770872  0.65918340  0.32602938  1
  Cr  Cr9  1  0.32529807  0.99115679  0.99093305  1
  Cr  Cr10  1  0.49159112  0.15801844  0.15982522  1
  Cr  Cr11  1  0.32394841  -0.00780737  0.32495862  1
  Cr  Cr12  1  0.32544798  0.32603139  -0.00804761  1
  Cr  Cr13  1  0.49223483  0.49168924  0.15887000  1
  Cr  Cr14  1  0.32479996  0.32534383  0.32502191  1
  Cr  Cr15  1  0.32636828  0.65768370  0.99060479  1
  Cr  Cr16  1  0.49158553  0.82534975  0.15818199  1
  Cr  Cr17  1  0.32459093  0.65751138  0.32400381  1
  Cr  Cr18  1  0.65838043  0.99124214  -0.00804580  1
  Cr  Cr19  1  0.82475454  0.15985001  0.15643611  1
  Cr  Cr20  1  0.65964310  -0.00779892  0.32400107  1
  Cr  Cr21  1  0.65701237  0.32529525  0.99087052  1
  Cr  Cr22  1  0.82549166  0.49143920  0.15760117  1
  Cr  Cr23  1  0.65797128  0.32450411  0.32602657  1
  Cr  Cr24  1  0.65634767  0.65842124  0.98952818  1
  Cr  Cr25  1  0.82441212  0.82386865  0.15881759  1
  Cr  Cr26  1  0.65816275  0.65834414  0.32501275  1
  Cr  Cr27  1  0.16037633  0.15753186  0.49355828  1
  Cr  Cr28  1  -0.00818644  -0.00831335  0.65754726  1
  Cr  Cr29  1  0.15906244  0.15835736  0.82501075  1
  Cr  Cr30  1  0.15837192  0.49215584  0.49120576  1
  Cr  Cr31  1  -0.00797001  0.32441662  0.65850722  1
  Cr  Cr32  1  0.15746857  0.49119074  0.82628213  1
  Cr  Cr33  1  0.16011876  0.82529823  0.49249308  1
  Cr  Cr34  1  -0.00798514  0.65892454  0.65686073  1
  Cr  Cr35  1  0.16013286  0.82563127  0.82361909  1
  Cr  Cr36  1  0.49088133  0.15701587  0.49141063  1
  Fe  Fe37  1  0.32580961  0.99120367  0.65897182  1
  Cr  Cr38  1  0.49079981  0.15682826  0.82370148  1
  Cr  Cr39  1  0.49192600  0.49198332  0.49114978  1
  Cr  Cr40  1  0.32580351  0.32584121  0.65808015  1
  Fe  Fe41  1  0.49135016  0.49148013  0.82501467  1
  Cr  Cr42  1  0.49086257  0.82608028  0.49236981  1
  Cr  Cr43  1  0.32624861  0.65782385  0.66055182  1
  Fe  Fe44  1  0.49121299  0.82518791  0.82479901  1
  Cr  Cr45  1  0.82391375  0.15868499  0.49222776  1
  Cr  Cr46  1  0.65835523  0.99136081  0.65921504  1
  Cr  Cr47  1  0.82521754  0.15949993  0.82636275  1
  Cr  Cr48  1  0.82475328  0.49217009  0.49188945  1
  Cr  Cr49  1  0.65713326  0.32553117  0.65815208  1
  Cr  Cr50  1  0.82529789  0.49126495  0.82553417  1
  Cr  Cr51  1  0.82410822  0.82418743  0.49120221  1
  Cr  Cr52  1  0.65673097  0.65803790  0.66058303  1
  Cr  Cr53  1  0.82449250  0.82444343  0.82501340  1
" 