1360,Fe94Cr6_11,-202.512806542646, 212.21299866341,Fe94Cr6,"# generated using pymatgen
 data_Cr25Fe2
_symmetry_space_group_name_H-M   'P 1'
_cell_length_a   7.59490841
_cell_length_b   7.59490841
_cell_length_c   10.74082248
_cell_angle_alpha   90.00000000
_cell_angle_beta   90.00000000
_cell_angle_gamma   90.00000000
_symmetry_Int_Tables_number   1
_chemical_formula_structural   Cr25Fe2
_chemical_formula_sum   'Cr50 Fe4'
_cell_volume   619.55892909
_cell_formula_units_Z   2
loop_
 _symmetry_equiv_pos_site_id
 _symmetry_equiv_pos_as_xyz
  1  'x, y, z'
loop_
 _atom_site_type_symbol
 _atom_site_label
 _atom_site_symmetry_multiplicity
 _atom_site_fract_x
 _atom_site_fract_y
 _atom_site_fract_z
 _atom_site_occupancy
  Cr  Cr0  1  0.99134454  -0.00773747  0.99133683  1
  Cr  Cr1  1  0.15904487  0.15862424  0.15865626  1
  Cr  Cr2  1  -0.00730447  -0.00773190  0.32515914  1
  Cr  Cr3  1  0.99054741  0.32344257  0.99098534  1
  Cr  Cr4  1  0.15745325  0.49165632  0.15788888  1
  Cr  Cr5  1  -0.00809665  0.32385159  0.32596071  1
  Cr  Cr6  1  -0.00836200  0.65904058  -0.00789873  1
  Cr  Cr7  1  0.15824923  0.82446731  0.15709139  1
  Cr  Cr8  1  0.99080426  0.65862445  0.32483648  1
  Cr  Cr9  1  0.32404661  0.99115547  -0.00710101  1
  Cr  Cr10  1  0.49158651  0.15781079  0.15868662  1
  Cr  Cr11  1  0.32378258  -0.00774573  0.32516282  1
  Cr  Cr12  1  0.32595809  0.32566722  0.99097707  1
  Cr  Cr13  1  0.49156872  0.49085970  0.15791863  1
  Cr  Cr14  1  0.32459208  0.32388330  0.32596396  1
  Cr  Cr15  1  0.32597366  0.65792727  0.99053193  1
  Cr  Cr16  1  0.49158607  0.82607658  0.15868653  1
  Cr  Cr17  1  0.32571138  0.65860653  0.32483611  1
  Cr  Cr18  1  0.65936137  -0.00774998  0.99101140  1
  Cr  Cr19  1  0.82411594  0.15860697  0.15712149  1
  Cr  Cr20  1  0.65826689  0.99115524  0.32480678  1
  Cr  Cr21  1  0.65824599  0.32536682  0.99065773  1
  Cr  Cr22  1  0.82572542  0.49165534  0.15948430  1
  Cr  Cr23  1  0.65824922  0.32578099  0.32403890  1
  Cr  Cr24  1  0.65713756  0.65713373  -0.00821975  1
  Cr  Cr25  1  0.82491223  0.82448506  0.15868668  1
  Cr  Cr26  1  0.65823159  0.65781103  0.32448615  1
  Fe  Fe27  1  0.15824208  0.15823831  0.49161082  1
  Cr  Cr28  1  0.99095921  -0.00706648  0.65825593  1
  Cr  Cr29  1  0.15796462  0.15900641  0.82502401  1
  Cr  Cr30  1  0.15745374  0.49058419  0.49151290  1
  Cr  Cr31  1  0.99126166  0.32280396  0.65780431  1
  Cr  Cr32  1  0.15855507  0.49168995  0.82534552  1
  Cr  Cr33  1  0.15824972  0.82510771  0.49186276  1
  Cr  Cr34  1  0.99125671  0.65900536  0.65780957  1
  Cr  Cr35  1  0.15824940  0.82405068  0.82579268  1
  Cr  Cr36  1  0.49118583  0.15714176  0.49137957  1
  Cr  Cr37  1  0.32441404  -0.00816769  0.65669033  1
  Cr  Cr38  1  0.49332462  0.15820549  0.82467784  1
  Cr  Cr39  1  0.49118703  0.49089546  0.49183407  1
  Cr  Cr40  1  0.32524224  0.32502045  0.65780976  1
  Fe  Fe41  1  0.49157338  0.49159531  0.82489952  1
  Cr  Cr42  1  0.49229276  0.82671347  0.49218006  1
  Cr  Cr43  1  0.32635472  0.65789357  0.65937830  1
  Cr  Cr44  1  0.49222454  0.82565928  0.82387918  1
  Cr  Cr45  1  0.82449805  0.15793323  0.49294933  1
  Fe  Fe46  1  0.65857807  -0.00805230  0.65859508  1
  Fe  Fe47  1  0.82460282  0.15788322  0.82455800  1
  Cr  Cr48  1  0.82610731  0.49169053  0.49026806  1
  Cr  Cr49  1  0.65824712  0.32473181  0.66004977  1
  Cr  Cr50  1  0.82508369  0.49060082  0.82499533  1
  Cr  Cr51  1  0.82420435  0.82512482  0.49218202  1
  Cr  Cr52  1  0.65713924  0.65818712  0.65848024  1
  Cr  Cr53  1  0.82426881  0.82625272  0.82387558  1
" 