6363,Fe94Cr6_5,-202.604169690178, 212.643488942316,Fe94Cr6,"# generated using pymatgen
 data_Cr25Fe2
_symmetry_space_group_name_H-M   'P 1'
_cell_length_a   7.59385849
_cell_length_b   7.59385849
_cell_length_c   10.73933767
_cell_angle_alpha   90.00000000
_cell_angle_beta   90.00000000
_cell_angle_gamma   90.00000000
_symmetry_Int_Tables_number   1
_chemical_formula_structural   Cr25Fe2
_chemical_formula_sum   'Cr50 Fe4'
_cell_volume   619.30202222
_cell_formula_units_Z   2
loop_
 _symmetry_equiv_pos_site_id
 _symmetry_equiv_pos_as_xyz
  1  'x, y, z'
loop_
 _atom_site_type_symbol
 _atom_site_label
 _atom_site_symmetry_multiplicity
 _atom_site_fract_x
 _atom_site_fract_y
 _atom_site_fract_z
 _atom_site_occupancy
  Cr  Cr0  1  -0.00821757  0.99109831  0.99117294  1
  Cr  Cr1  1  0.15657897  0.15893151  0.15970142  1
  Cr  Cr2  1  0.99060623  0.99044971  0.32567354  1
  Cr  Cr3  1  0.99160272  0.32461926  -0.00695219  1
  Cr  Cr4  1  0.15740026  0.49075244  0.15935274  1
  Fe  Fe5  1  0.99143857  0.32561184  0.32509994  1
  Cr  Cr6  1  0.99097692  0.65921095  0.99148488  1
  Cr  Cr7  1  0.15936487  0.82535817  0.15638470  1
  Cr  Cr8  1  0.99065621  0.65941299  0.32557519  1
  Cr  Cr9  1  0.32501624  -0.00641992  0.99093285  1
  Cr  Cr10  1  0.49300921  0.15670878  0.15857999  1
  Cr  Cr11  1  0.32452530  -0.00768264  0.32450857  1
  Cr  Cr12  1  0.32654935  0.32364515  0.99097191  1
  Cr  Cr13  1  0.49200191  0.49267973  0.15833358  1
  Cr  Cr14  1  0.32538439  0.32453818  0.32516818  1
  Cr  Cr15  1  0.32474778  0.65775586  -0.00687216  1
  Cr  Cr16  1  0.49216840  0.82550739  0.15918932  1
  Cr  Cr17  1  0.32444550  0.65808465  0.32450186  1
  Cr  Cr18  1  0.65812942  -0.00699266  -0.00817665  1
  Cr  Cr19  1  0.82530565  0.15864381  0.15996643  1
  Fe  Fe20  1  0.65865494  0.99110871  0.32544652  1
  Cr  Cr21  1  0.65674309  0.32436714  0.98994134  1
  Cr  Cr22  1  0.82551539  0.48997899  0.15767419  1
  Cr  Cr23  1  0.65797736  0.32490326  0.32450675  1
  Cr  Cr24  1  0.65923215  0.65758584  -0.00783689  1
  Cr  Cr25  1  0.82328540  0.82643207  0.15856756  1
  Cr  Cr26  1  0.66002535  0.65887256  0.32575373  1
  Cr  Cr27  1  0.15693757  0.15904487  0.49088900  1
  Cr  Cr28  1  0.99100829  0.99031327  0.65799389  1
  Cr  Cr29  1  0.15755741  0.15835810  0.82448370  1
  Cr  Cr30  1  0.15774680  0.49067201  0.49124090  1
  Cr  Cr31  1  0.99130918  0.32464524  0.65736766  1
  Cr  Cr32  1  0.15800967  0.49177960  0.82448860  1
  Cr  Cr33  1  0.15950202  0.82534907  0.49311022  1
  Cr  Cr34  1  0.99025735  0.65992476  0.65774030  1
  Cr  Cr35  1  0.15941190  0.82479110  0.82545765  1
  Cr  Cr36  1  0.49281647  0.15690246  0.49178435  1
  Cr  Cr37  1  0.32509957  -0.00661555  0.65963175  1
  Fe  Fe38  1  0.49182469  0.15760259  0.82496968  1
  Cr  Cr39  1  0.49174412  0.49244464  0.49213292  1
  Cr  Cr40  1  0.32664520  0.32353609  0.65889200  1
  Cr  Cr41  1  0.49169434  0.49286265  0.82448025  1
  Cr  Cr42  1  0.49293244  0.82563129  0.49017914  1
  Cr  Cr43  1  0.32472435  0.65806183  0.65732293  1
  Cr  Cr44  1  0.49151671  0.82522326  0.82546641  1
  Cr  Cr45  1  0.82504052  0.15791432  0.48953330  1
  Cr  Cr46  1  0.65900856  -0.00787732  0.65727478  1
  Cr  Cr47  1  0.82484947  0.15852926  0.82545928  1
  Cr  Cr48  1  0.82539110  0.49007455  0.49194461  1
  Cr  Cr49  1  0.65694133  0.32428732  0.66061065  1
  Cr  Cr50  1  0.82527065  0.49100192  0.82545861  1
  Fe  Fe51  1  0.82464242  0.82565723  0.49107273  1
  Cr  Cr52  1  0.66009337  0.65843713  0.65693515  1
  Cr  Cr53  1  0.82402381  0.82540954  0.82455259  1
" 