4832,Fe94Cr6_1,-202.529521519285, 212.041445259988,Fe94Cr6,"# generated using pymatgen
 data_Cr25Fe2
_symmetry_space_group_name_H-M   'P 1'
_cell_length_a   7.59515332
_cell_length_b   7.59515332
_cell_length_c   10.74116884
_cell_angle_alpha   90.00000000
_cell_angle_beta   90.00000000
_cell_angle_gamma   90.00000000
_symmetry_Int_Tables_number   1
_chemical_formula_structural   Cr25Fe2
_chemical_formula_sum   'Cr50 Fe4'
_cell_volume   619.61886762
_cell_formula_units_Z   2
loop_
 _symmetry_equiv_pos_site_id
 _symmetry_equiv_pos_as_xyz
  1  'x, y, z'
loop_
 _atom_site_type_symbol
 _atom_site_label
 _atom_site_symmetry_multiplicity
 _atom_site_fract_x
 _atom_site_fract_y
 _atom_site_fract_z
 _atom_site_occupancy
  Cr  Cr0  1  -0.00804525  0.99089808  -0.00765761  1
  Cr  Cr1  1  0.15816704  0.15859941  0.15901904  1
  Cr  Cr2  1  -0.00797776  0.99089770  0.32413241  1
  Cr  Cr3  1  0.99118124  0.32520294  0.99156655  1
  Cr  Cr4  1  0.15847240  0.49181016  0.15671949  1
  Cr  Cr5  1  0.99125014  0.32479850  0.32447261  1
  Cr  Cr6  1  -0.00774950  0.65859944  0.99079097  1
  Cr  Cr7  1  0.15924724  0.82428906  0.15749449  1
  Cr  Cr8  1  0.99018953  0.65900290  0.32524809  1
  Cr  Cr9  1  0.32481494  0.99059840  -0.00765799  1
  Cr  Cr10  1  0.49157047  0.15780725  0.15780779  1
  Cr  Cr11  1  0.32437763  -0.00832886  0.32447292  1
  Cr  Cr12  1  0.32560676  0.32551370  0.99156642  1
  Cr  Cr13  1  0.49155166  0.49288620  0.15855350  1
  Cr  Cr14  1  0.32623181  0.32510710  0.32633769  1
  Fe  Fe15  1  0.32492499  0.65823677  -0.00842737  1
  Cr  Cr16  1  0.49156407  0.82400872  0.15780122  1
  Cr  Cr17  1  0.32651911  0.65792035  0.32559063  1
  Cr  Cr18  1  0.65793009  -0.00832927  0.99082114  1
  Cr  Cr19  1  0.82496274  0.15858028  0.15814831  1
  Cr  Cr20  1  0.65829993  0.99061946  0.32444550  1
  Cr  Cr21  1  0.65791173  0.32522173  -0.00843329  1
  Cr  Cr22  1  0.82467666  0.49180860  0.15889416  1
  Cr  Cr23  1  0.65721963  0.32694683  0.32478578  1
  Cr  Cr24  1  0.65761708  0.65780742  -0.00768690  1
  Cr  Cr25  1  0.82388691  0.82431175  0.15966778  1
  Fe  Fe26  1  0.65788000  0.65790901  0.32523772  1
  Cr  Cr27  1  0.15853585  0.15896820  0.49113128  1
  Cr  Cr28  1  0.99095527  0.99086388  0.65822561  1
  Cr  Cr29  1  0.15816630  0.15900282  0.82454986  1
  Cr  Cr30  1  0.15883993  0.49115258  0.49200175  1
  Cr  Cr31  1  0.99124953  0.32486754  0.65866045  1
  Cr  Cr32  1  0.15848003  0.49222058  0.82598438  1
  Cr  Cr33  1  0.15855382  0.82457955  0.49156671  1
  Cr  Cr34  1  0.99124929  0.65896880  0.65866061  1
  Cr  Cr35  1  0.15925438  0.82347484  0.82564564  1
  Cr  Cr36  1  0.49182128  0.15817185  0.49265117  1
  Cr  Cr37  1  0.32544299  -0.00836253  0.65788521  1
  Cr  Cr38  1  0.49264015  0.15714246  0.82422936  1
  Fe  Fe39  1  0.49191942  0.49190843  0.49123986  1
  Cr  Cr40  1  0.32622595  0.32516931  0.65680132  1
  Cr  Cr41  1  0.49048404  0.49223829  0.82567149  1
  Cr  Cr42  1  0.49287817  0.82428978  0.49156490  1
  Cr  Cr43  1  0.32545258  0.65789406  0.65832395  1
  Cr  Cr44  1  0.49156973  0.82531736  0.82532576  1
  Cr  Cr45  1  0.82434171  0.15789113  0.49265273  1
  Fe  Fe46  1  0.65820815  0.99154519  0.65821700  1
  Cr  Cr47  1  0.82389295  0.15791474  0.82388863  1
  Cr  Cr48  1  0.82405245  0.49221522  0.49047674  1
  Cr  Cr49  1  0.65722726  0.32487456  0.65835585  1
  Cr  Cr50  1  0.82573586  0.49115212  0.82532495  1
  Cr  Cr51  1  0.82326564  0.82459582  0.49156548  1
  Cr  Cr52  1  0.65799820  0.65818425  0.65683165  1
  Cr  Cr53  1  0.82387497  0.82563269  0.82345379  1
" 