4841,Fe97Cr3_11,-200.965532527944, 212.472785735623,Fe97Cr3,"# generated using pymatgen
 data_Cr26Fe
_symmetry_space_group_name_H-M   'P 1'
_cell_length_a   7.60025621
_cell_length_b   7.60025621
_cell_length_c   10.74838541
_cell_angle_alpha   90.00000000
_cell_angle_beta   90.00000000
_cell_angle_gamma   90.00000000
_symmetry_Int_Tables_number   1
_chemical_formula_structural   Cr26Fe
_chemical_formula_sum   'Cr52 Fe2'
_cell_volume   620.86859977
_cell_formula_units_Z   2
loop_
 _symmetry_equiv_pos_site_id
 _symmetry_equiv_pos_as_xyz
  1  'x, y, z'
loop_
 _atom_site_type_symbol
 _atom_site_label
 _atom_site_symmetry_multiplicity
 _atom_site_fract_x
 _atom_site_fract_y
 _atom_site_fract_z
 _atom_site_occupancy
  Cr  Cr0  1  0.99093435  -0.00846120  -0.00817937  1
  Cr  Cr1  1  0.15699684  0.15790324  0.15827978  1
  Cr  Cr2  1  0.99096147  -0.00848832  0.32367685  1
  Cr  Cr3  1  0.99093435  0.32426768  -0.00817937  1
  Cr  Cr4  1  0.15820546  0.49153880  0.15731918  1
  Cr  Cr5  1  0.99096147  0.32429480  0.32367685  1
  Cr  Cr6  1  -0.00785703  0.65790324  0.99086003  1
  Cr  Cr7  1  0.15820546  0.82426768  0.15731918  1
  Cr  Cr8  1  0.99123327  0.65790324  0.32532134  1
  Cr  Cr9  1  0.32456991  0.99033017  0.99086003  1
  Cr  Cr10  1  0.49214297  0.15790324  0.15827978  1
  Cr  Cr11  1  0.32456991  -0.00876013  0.32532134  1
  Cr  Cr12  1  0.32456991  0.32547630  0.99086003  1
  Cr  Cr13  1  0.49093435  0.49153880  0.15731918  1
  Cr  Cr14  1  0.32456991  0.32456661  0.32532134  1
  Fe  Fe15  1  0.32456991  0.65790324  -0.00875708  1
  Cr  Cr16  1  0.49093435  0.82426768  0.15731918  1
  Cr  Cr17  1  0.32456991  0.65790324  0.32427638  1
  Cr  Cr18  1  0.65820546  -0.00846120  -0.00817937  1
  Fe  Fe19  1  0.82456991  0.15790324  0.15789689  1
  Cr  Cr20  1  0.65817834  -0.00848832  0.32367685  1
  Cr  Cr21  1  0.65820546  0.32426768  -0.00817937  1
  Cr  Cr22  1  0.82456991  0.49033017  0.15827978  1
  Cr  Cr23  1  0.65817834  0.32429480  0.32367685  1
  Cr  Cr24  1  0.65699684  0.65790324  0.99086003  1
  Cr  Cr25  1  0.82456991  0.82547630  0.15827978  1
  Cr  Cr26  1  0.65790654  0.65790324  0.32532134  1
  Cr  Cr27  1  0.15826213  0.15790324  0.49161144  1
  Cr  Cr28  1  -0.00845681  0.99092996  0.65821218  1
  Cr  Cr29  1  0.15790654  0.15790324  0.82381847  1
  Cr  Cr30  1  0.15759662  0.49092996  0.49092763  1
  Cr  Cr31  1  -0.00845681  0.32487652  0.65821218  1
  Cr  Cr32  1  0.15817834  0.49151168  0.82546296  1
  Cr  Cr33  1  0.15759662  0.82487652  0.49092763  1
  Cr  Cr34  1  0.99087768  0.65790324  0.65752837  1
  Cr  Cr35  1  0.15817834  0.82429480  0.82546296  1
  Cr  Cr36  1  0.49087768  0.15790324  0.49161144  1
  Cr  Cr37  1  0.32456991  -0.00840453  0.65752837  1
  Cr  Cr38  1  0.49123327  0.15790324  0.82381847  1
  Cr  Cr39  1  0.49154319  0.49092996  0.49092763  1
  Cr  Cr40  1  0.32456991  0.32421101  0.65752837  1
  Cr  Cr41  1  0.49096147  0.49151168  0.82546296  1
  Cr  Cr42  1  0.49154319  0.82487652  0.49092763  1
  Cr  Cr43  1  0.32456991  0.65790324  0.65818952  1
  Cr  Cr44  1  0.49096147  0.82429480  0.82546296  1
  Cr  Cr45  1  0.82456991  0.15790324  0.49095029  1
  Cr  Cr46  1  0.65759662  0.99092996  0.65821218  1
  Cr  Cr47  1  0.82456991  0.15790324  0.82486343  1
  Cr  Cr48  1  0.82456991  0.49159547  0.49161144  1
  Cr  Cr49  1  0.65759662  0.32487652  0.65821218  1
  Cr  Cr50  1  0.82456991  0.49123987  0.82381847  1
  Cr  Cr51  1  0.82456991  0.82421101  0.49161144  1
  Cr  Cr52  1  0.65826213  0.65790324  0.65752837  1
  Cr  Cr53  1  0.82456991  0.82456661  0.82381847  1
" 