8160,Fe97Cr3_17,-200.918912052646, 212.333644273283,Fe97Cr3,"# generated using pymatgen
 data_Cr26Fe
_symmetry_space_group_name_H-M   'P 1'
_cell_length_a   7.59813193
_cell_length_b   7.59813193
_cell_length_c   10.74538122
_cell_angle_alpha   90.00000000
_cell_angle_beta   90.00000000
_cell_angle_gamma   90.00000000
_symmetry_Int_Tables_number   1
_chemical_formula_structural   Cr26Fe
_chemical_formula_sum   'Cr52 Fe2'
_cell_volume   620.34814516
_cell_formula_units_Z   2
loop_
 _symmetry_equiv_pos_site_id
 _symmetry_equiv_pos_as_xyz
  1  'x, y, z'
loop_
 _atom_site_type_symbol
 _atom_site_label
 _atom_site_symmetry_multiplicity
 _atom_site_fract_x
 _atom_site_fract_y
 _atom_site_fract_z
 _atom_site_occupancy
  Cr  Cr0  1  0.99137391  0.99086352  0.99095354  1
  Cr  Cr1  1  0.15772813  0.15795195  0.15757331  1
  Cr  Cr2  1  0.99137391  0.99113498  0.32468864  1
  Cr  Cr3  1  -0.00862609  0.32544298  -0.00816001  1
  Cr  Cr4  1  0.15912398  0.49080472  0.15853072  1
  Cr  Cr5  1  -0.00862609  0.32515616  0.32378110  1
  Cr  Cr6  1  0.99137391  0.65780896  -0.00815210  1
  Cr  Cr7  1  0.15852342  0.82536263  0.15852790  1
  Cr  Cr8  1  0.99137391  0.65782182  0.32442140  1
  Cr  Cr9  1  0.32501969  -0.00853746  -0.00815882  1
  Cr  Cr10  1  0.49137391  0.15855097  0.15846095  1
  Cr  Cr11  1  0.32579383  -0.00775628  0.32503718  1
  Cr  Cr12  1  0.32422440  0.32405185  0.99088659  1
  Cr  Cr13  1  0.49137391  0.49160553  0.15756659  1
  Cr  Cr14  1  0.32507791  0.32320248  0.32605691  1
  Cr  Cr15  1  0.32362384  0.65860977  0.99088377  1
  Cr  Cr16  1  0.49137391  0.82397151  0.15757450  1
  Cr  Cr17  1  0.32390687  0.65860858  0.32472672  1
  Cr  Cr18  1  0.65772813  -0.00853746  -0.00815882  1
  Cr  Cr19  1  0.82501969  0.15795195  0.15757331  1
  Cr  Cr20  1  0.65695399  -0.00775628  0.32503718  1
  Cr  Cr21  1  0.65852342  0.32405185  0.99088659  1
  Cr  Cr22  1  0.82362384  0.49080472  0.15853072  1
  Cr  Cr23  1  0.65766991  0.32320248  0.32605691  1
  Cr  Cr24  1  0.65912398  0.65860977  0.99088377  1
  Cr  Cr25  1  0.82422440  0.82536263  0.15852790  1
  Cr  Cr26  1  0.65884096  0.65860858  0.32472672  1
  Cr  Cr27  1  0.15730072  0.15730091  0.49203980  1
  Fe  Fe28  1  -0.00862609  -0.00832344  0.65792915  1
  Cr  Cr29  1  0.15695399  0.15717077  0.82437731  1
  Cr  Cr30  1  0.15860154  0.49104418  0.49090662  1
  Cr  Cr31  1  -0.00862609  0.32503525  0.65851076  1
  Cr  Cr32  1  0.15884096  0.49080591  0.82468777  1
  Cr  Cr33  1  0.15756882  0.82585341  0.49211753  1
  Cr  Cr34  1  0.99137391  0.65820257  0.65786249  1
  Cr  Cr35  1  0.15766991  0.82621201  0.82335758  1
  Fe  Fe36  1  0.49137391  0.15773793  0.49148534  1
  Cr  Cr37  1  0.32544711  -0.00788642  0.65737469  1
  Cr  Cr38  1  0.49137391  0.15827951  0.82472585  1
  Cr  Cr39  1  0.49137391  0.49121191  0.49155200  1
  Cr  Cr40  1  0.32517900  0.32356108  0.65729696  1
  Cr  Cr41  1  0.49137391  0.49159267  0.82499309  1
  Cr  Cr42  1  0.49137391  0.82437924  0.49090373  1
  Cr  Cr43  1  0.32414628  0.65837031  0.65850787  1
  Cr  Cr44  1  0.49137391  0.82425833  0.82563339  1
  Cr  Cr45  1  0.82544711  0.15730091  0.49203980  1
  Cr  Cr46  1  0.65730072  -0.00788642  0.65737469  1
  Cr  Cr47  1  0.82579383  0.15717077  0.82437731  1
  Cr  Cr48  1  0.82414628  0.49104418  0.49090662  1
  Cr  Cr49  1  0.65756882  0.32356108  0.65729696  1
  Cr  Cr50  1  0.82390687  0.49080591  0.82468777  1
  Cr  Cr51  1  0.82517900  0.82585341  0.49211753  1
  Cr  Cr52  1  0.65860154  0.65837031  0.65850787  1
  Cr  Cr53  1  0.82507791  0.82621201  0.82335758  1
" 