7010,Fe97Cr3_19,-200.918912052646, 212.333644272733,Fe97Cr3,"# generated using pymatgen
 data_Cr26Fe
_symmetry_space_group_name_H-M   'P 1'
_cell_length_a   7.59813193
_cell_length_b   7.59813193
_cell_length_c   10.74538122
_cell_angle_alpha   90.00000000
_cell_angle_beta   90.00000000
_cell_angle_gamma   90.00000000
_symmetry_Int_Tables_number   1
_chemical_formula_structural   Cr26Fe
_chemical_formula_sum   'Cr52 Fe2'
_cell_volume   620.34814516
_cell_formula_units_Z   2
loop_
 _symmetry_equiv_pos_site_id
 _symmetry_equiv_pos_as_xyz
  1  'x, y, z'
loop_
 _atom_site_type_symbol
 _atom_site_label
 _atom_site_symmetry_multiplicity
 _atom_site_fract_x
 _atom_site_fract_y
 _atom_site_fract_z
 _atom_site_occupancy
  Cr  Cr0  1  0.99089107  -0.00797070  -0.00813877  1
  Cr  Cr1  1  0.15804058  0.15780165  0.15802197  1
  Cr  Cr2  1  -0.00815433  -0.00747992  0.32545087  1
  Cr  Cr3  1  -0.00831364  0.32461862  0.99090665  1
  Cr  Cr4  1  0.15804058  0.49182282  0.15711444  1
  Cr  Cr5  1  -0.00788623  0.32396757  0.32537313  1
  Cr  Cr6  1  0.99029051  0.65747139  -0.00813595  1
  Cr  Cr7  1  0.15804058  0.82448849  0.15775473  1
  Cr  Cr8  1  0.99081295  0.65771084  0.32423995  1
  Cr  Cr9  1  0.32519009  -0.00797070  -0.00813877  1
  Cr  Cr10  1  0.49246050  0.15891038  0.15837051  1
  Cr  Cr11  1  0.32423549  -0.00747992  0.32545087  1
  Cr  Cr12  1  0.32439480  0.32461862  0.99090665  1
  Cr  Cr13  1  0.49174458  0.48986914  0.15939024  1
  Cr  Cr14  1  0.32396738  0.32396757  0.32537313  1
  Cr  Cr15  1  0.32579065  0.65747139  -0.00813595  1
  Cr  Cr16  1  0.49057353  0.82527525  0.15806005  1
  Cr  Cr17  1  0.32526821  0.65771084  0.32423995  1
  Cr  Cr18  1  0.65804058  0.99063817  0.99090783  1
  Cr  Cr19  1  0.82362066  0.15891038  0.15837051  1
  Cr  Cr20  1  0.65804058  0.99104590  0.32423706  1
  Cr  Cr21  1  0.65804058  0.32521764  -0.00820572  1
  Cr  Cr22  1  0.82433658  0.48986914  0.15939024  1
  Fe  Fe23  1  0.65804058  0.32440459  0.32481868  1
  Cr  Cr24  1  0.65804058  0.65827220  0.99089992  1
  Cr  Cr25  1  0.82550762  0.82527525  0.15806005  1
  Cr  Cr26  1  0.65804058  0.65787858  0.32488533  1
  Fe  Fe27  1  0.15804058  0.15834323  0.49126248  1
  Cr  Cr28  1  -0.00825542  -0.00712132  0.65669092  1
  Cr  Cr29  1  0.15804058  0.15753018  0.82428688  1
  Cr  Cr30  1  0.15804058  0.49170192  0.49184410  1
  Cr  Cr31  1  -0.00753950  0.32383744  0.65771064  1
  Cr  Cr32  1  0.15804058  0.49210965  0.82517333  1
  Cr  Cr33  1  0.15804058  0.82486924  0.49119582  1
  Cr  Cr34  1  0.99057353  0.65747257  0.65802110  1
  Cr  Cr35  1  0.15804058  0.82447562  0.82518123  1
  Cr  Cr36  1  0.49211377  0.15878025  0.49070802  1
  Cr  Cr37  1  0.32433658  -0.00712132  0.65669092  1
  Cr  Cr38  1  0.49168636  0.15812920  0.82517451  1
  Cr  Cr39  1  0.49184567  0.49022775  0.49063029  1
  Cr  Cr40  1  0.32362066  0.32383744  0.65771064  1
  Cr  Cr41  1  0.49089107  0.49071852  0.82421993  1
  Cr  Cr42  1  0.49081295  0.82503698  0.49184121  1
  Cr  Cr43  1  0.32550762  0.65747257  0.65802110  1
  Cr  Cr44  1  0.49029051  0.82527643  0.82421710  1
  Cr  Cr45  1  0.82396738  0.15878025  0.49070802  1
  Cr  Cr46  1  0.65804058  0.99092500  0.65896672  1
  Cr  Cr47  1  0.82439480  0.15812920  0.82517451  1
  Cr  Cr48  1  0.82423549  0.49022775  0.49063029  1
  Cr  Cr49  1  0.65804058  0.32494618  0.65805918  1
  Cr  Cr50  1  0.82519009  0.49071852  0.82421993  1
  Cr  Cr51  1  0.82526821  0.82503698  0.49184121  1
  Cr  Cr52  1  0.65804058  0.65825934  0.65832642  1
  Cr  Cr53  1  0.82579065  0.82527643  0.82421710  1
" 