5339,Fe97Cr3_18,-200.940339027535, 212.383248859378,Fe97Cr3,"# generated using pymatgen
 data_Cr26Fe
_symmetry_space_group_name_H-M   'P 1'
_cell_length_a   7.59986595
_cell_length_b   7.59986595
_cell_length_c   10.74783350
_cell_angle_alpha   90.00000000
_cell_angle_beta   90.00000000
_cell_angle_gamma   90.00000000
_symmetry_Int_Tables_number   1
_chemical_formula_structural   Cr26Fe
_chemical_formula_sum   'Cr52 Fe2'
_cell_volume   620.77296471
_cell_formula_units_Z   2
loop_
 _symmetry_equiv_pos_site_id
 _symmetry_equiv_pos_as_xyz
  1  'x, y, z'
loop_
 _atom_site_type_symbol
 _atom_site_label
 _atom_site_symmetry_multiplicity
 _atom_site_fract_x
 _atom_site_fract_y
 _atom_site_fract_z
 _atom_site_occupancy
  Cr  Cr0  1  -0.00841027  -0.00867389  -0.00801556  1
  Cr  Cr1  1  0.15755421  0.15792846  0.15753065  1
  Cr  Cr2  1  -0.00843983  -0.00864440  0.32419921  1
  Cr  Cr3  1  -0.00841027  0.32453082  -0.00801556  1
  Cr  Cr4  1  0.15854367  0.49188438  0.15854612  1
  Cr  Cr5  1  -0.00843983  0.32450133  0.32419921  1
  Cr  Cr6  1  0.99086955  0.65792846  0.99056411  1
  Cr  Cr7  1  0.15854367  0.82397255  0.15854612  1
  Cr  Cr8  1  -0.00817648  0.65792846  0.32489772  1
  Cr  Cr9  1  0.32426720  -0.00867389  0.99053916  1
  Cr  Cr10  1  0.49165076  0.15792846  0.15753048  1
  Cr  Cr11  1  0.32426745  0.99036791  0.32492154  1
  Cr  Cr12  1  0.32426720  0.32453082  0.99053916  1
  Cr  Cr13  1  0.49064113  0.49186802  0.15854814  1
  Cr  Cr14  1  0.32426745  0.32548901  0.32492154  1
  Cr  Cr15  1  0.32498737  0.65792846  -0.00804051  1
  Cr  Cr16  1  0.49064113  0.82398891  0.15854814  1
  Fe  Fe17  1  0.32458089  0.65792846  0.32460661  1
  Cr  Cr18  1  0.65792846  0.99060611  -0.00873820  1
  Cr  Cr19  1  0.82458050  0.15792846  0.15793643  1
  Cr  Cr20  1  0.65795837  0.99063610  0.32492173  1
  Cr  Cr21  1  0.65792846  0.32525082  -0.00873820  1
  Cr  Cr22  1  0.82459903  0.49087667  0.15753065  1
  Cr  Cr23  1  0.65795837  0.32522083  0.32492173  1
  Cr  Cr24  1  0.65792846  0.65792846  -0.00873820  1
  Cr  Cr25  1  0.82459903  0.82498025  0.15753065  1
  Cr  Cr26  1  0.65696629  0.65792846  0.32419918  1
  Cr  Cr27  1  0.15792846  0.15792846  0.49126180  1
  Cr  Cr28  1  -0.00841052  0.99036791  0.65760205  1
  Cr  Cr29  1  0.15830272  0.15792846  0.82499294  1
  Cr  Cr30  1  0.15792846  0.49249015  0.49126180  1
  Cr  Cr31  1  -0.00841052  0.32548901  0.65760205  1
  Cr  Cr32  1  0.15731326  0.49188438  0.82397747  1
  Cr  Cr33  1  0.15792846  0.82336677  0.49126180  1
  Fe  Fe34  1  -0.00872396  0.65792846  0.65791699  1
  Cr  Cr35  1  0.15731326  0.82397255  0.82397747  1
  Cr  Cr36  1  0.49165046  0.15792846  0.49166768  1
  Cr  Cr37  1  0.32429676  -0.00864440  0.65832438  1
  Cr  Cr38  1  0.49127642  0.15792846  0.82458716  1
  Cr  Cr39  1  0.49064493  0.49149022  0.49024797  1
  Cr  Cr40  1  0.32429676  0.32450133  0.65832438  1
  Cr  Cr41  1  0.49125790  0.49087667  0.82499295  1
  Cr  Cr42  1  0.49064493  0.82436671  0.49024797  1
  Cr  Cr43  1  0.32403340  0.65792846  0.65762588  1
  Cr  Cr44  1  0.49125790  0.82498025  0.82499295  1
  Cr  Cr45  1  0.82420647  0.15792846  0.49085592  1
  Cr  Cr46  1  0.65789856  0.99063610  0.65760187  1
  Cr  Cr47  1  0.82420617  0.15792846  0.82499311  1
  Cr  Cr48  1  0.82521200  0.49149022  0.49227563  1
  Cr  Cr49  1  0.65789856  0.32522083  0.65760187  1
  Cr  Cr50  1  0.82521579  0.49186802  0.82397546  1
  Cr  Cr51  1  0.82521200  0.82436671  0.49227563  1
  Cr  Cr52  1  0.65889063  0.65792846  0.65832441  1
  Cr  Cr53  1  0.82521579  0.82398891  0.82397546  1
" 