4970,Fe97Cr3_8,-200.973635329383, 212.591668702745,Fe97Cr3,"# generated using pymatgen
 data_Cr26Fe
_symmetry_space_group_name_H-M   'P 1'
_cell_length_a   7.60057607
_cell_length_b   7.60057607
_cell_length_c   10.74883776
_cell_angle_alpha   90.00000000
_cell_angle_beta   90.00000000
_cell_angle_gamma   90.00000000
_symmetry_Int_Tables_number   1
_chemical_formula_structural   Cr26Fe
_chemical_formula_sum   'Cr52 Fe2'
_cell_volume   620.94699240
_cell_formula_units_Z   2
loop_
 _symmetry_equiv_pos_site_id
 _symmetry_equiv_pos_as_xyz
  1  'x, y, z'
loop_
 _atom_site_type_symbol
 _atom_site_label
 _atom_site_symmetry_multiplicity
 _atom_site_fract_x
 _atom_site_fract_y
 _atom_site_fract_z
 _atom_site_occupancy
  Cr  Cr0  1  -0.00844609  0.99087788  0.99056851  1
  Cr  Cr1  1  0.15786103  0.15787840  0.15788257  1
  Cr  Cr2  1  -0.00844609  0.99087788  0.32519662  1
  Cr  Cr3  1  -0.00844636  0.32528888  -0.00871335  1
  Cr  Cr4  1  0.15790410  0.49122006  0.15788257  1
  Cr  Cr5  1  -0.00844636  0.32528888  0.32447849  1
  Cr  Cr6  1  0.99081405  0.65748071  -0.00797030  1
  Cr  Cr7  1  0.15788257  0.82454923  0.15788257  1
  Cr  Cr8  1  0.99081405  0.65748071  0.32373543  1
  Cr  Cr9  1  0.32495108  -0.00838225  -0.00797030  1
  Cr  Cr10  1  0.49123323  0.15789989  0.15788257  1
  Cr  Cr11  1  0.32495108  -0.00838225  0.32373543  1
  Cr  Cr12  1  0.32421149  0.32380959  -0.00871335  1
  Cr  Cr13  1  0.49121170  0.49122010  0.15788257  1
  Cr  Cr14  1  0.32421149  0.32380959  0.32447849  1
  Cr  Cr15  1  0.32421122  0.65822058  0.99056851  1
  Cr  Cr16  1  0.49121174  0.82452770  0.15788257  1
  Cr  Cr17  1  0.32421122  0.65822058  0.32519662  1
  Cr  Cr18  1  0.65714292  0.99087816  -0.00871335  1
  Cr  Cr19  1  0.82455343  0.15787837  0.15788257  1
  Cr  Cr20  1  0.65714292  0.99087816  0.32447849  1
  Cr  Cr21  1  0.65788257  0.32454923  0.99054413  1
  Cr  Cr22  1  0.82453190  0.49119857  0.15788257  1
  Cr  Cr23  1  0.65788257  0.32454923  0.32522100  1
  Cr  Cr24  1  0.65862221  0.65822031  -0.00871335  1
  Cr  Cr25  1  0.82455339  0.82457077  0.15788257  1
  Cr  Cr26  1  0.65862221  0.65822031  0.32447849  1
  Cr  Cr27  1  0.15684924  0.15724810  0.49144036  1
  Fe  Fe28  1  0.99120684  -0.00877505  0.65788257  1
  Cr  Cr29  1  0.15684924  0.15724810  0.82432478  1
  Cr  Cr30  1  0.15891589  0.49185037  0.49144036  1
  Cr  Cr31  1  -0.00847711  0.32428276  0.65788257  1
  Cr  Cr32  1  0.15891589  0.49185037  0.82432478  1
  Cr  Cr33  1  0.15788257  0.82454923  0.49248593  1
  Cr  Cr34  1  -0.00820400  0.65846267  0.65788257  1
  Cr  Cr35  1  0.15788257  0.82454923  0.82327920  1
  Cr  Cr36  1  0.49161439  0.15828106  0.49039836  1
  Cr  Cr37  1  0.32396913  0.99063580  0.65788257  1
  Cr  Cr38  1  0.49161439  0.15828106  0.82536677  1
  Cr  Cr39  1  0.49058269  0.49184910  0.49185694  1
  Cr  Cr40  1  0.32424224  0.32481570  0.65788257  1
  Cr  Cr41  1  0.49058269  0.49184910  0.82390819  1
  Cr  Cr42  1  0.49058143  0.82351591  0.49144036  1
  Fe  Fe43  1  0.32455829  0.65787351  0.65788257  1
  Cr  Cr44  1  0.49058143  0.82351591  0.82432478  1
  Cr  Cr45  1  0.82518244  0.15724936  0.49185694  1
  Cr  Cr46  1  0.65814903  0.99090891  0.65788257  1
  Cr  Cr47  1  0.82518244  0.15724936  0.82390819  1
  Cr  Cr48  1  0.82415074  0.49081741  0.49039836  1
  Cr  Cr49  1  0.65788257  0.32454923  0.65788257  1
  Cr  Cr50  1  0.82415074  0.49081741  0.82536677  1
  Cr  Cr51  1  0.82518370  0.82558256  0.49144036  1
  Cr  Cr52  1  0.65761610  0.65818956  0.65788257  1
  Cr  Cr53  1  0.82518370  0.82558256  0.82432478  1
" 