7700,Fe97Cr3_12,-200.975136095323, 212.705157082216,Fe97Cr3,"# generated using pymatgen
 data_Cr26Fe
_symmetry_space_group_name_H-M   'P 1'
_cell_length_a   7.60065413
_cell_length_b   7.60065413
_cell_length_c   10.74894816
_cell_angle_alpha   90.00000000
_cell_angle_beta   90.00000000
_cell_angle_gamma   90.00000000
_symmetry_Int_Tables_number   1
_chemical_formula_structural   Cr26Fe
_chemical_formula_sum   'Cr52 Fe2'
_cell_volume   620.96612543
_cell_formula_units_Z   2
loop_
 _symmetry_equiv_pos_site_id
 _symmetry_equiv_pos_as_xyz
  1  'x, y, z'
loop_
 _atom_site_type_symbol
 _atom_site_label
 _atom_site_symmetry_multiplicity
 _atom_site_fract_x
 _atom_site_fract_y
 _atom_site_fract_z
 _atom_site_occupancy
  Cr  Cr0  1  -0.00834912  0.99121085  0.99078110  1
  Cr  Cr1  1  0.15719812  0.15855692  0.15823224  1
  Cr  Cr2  1  -0.00795562  0.99121085  0.32454419  1
  Cr  Cr3  1  0.99053895  0.32521609  -0.00812489  1
  Cr  Cr4  1  0.15769886  0.49121085  0.15744987  1
  Cr  Cr5  1  0.98986975  0.32588529  0.32454419  1
  Cr  Cr6  1  0.99053895  0.65720561  -0.00812489  1
  Cr  Cr7  1  0.15719812  0.82386479  0.15823224  1
  Cr  Cr8  1  0.98986975  0.65653642  0.32454419  1
  Cr  Cr9  1  0.32454419  0.99121085  -0.00877782  1
  Cr  Cr10  1  0.49189025  0.15855692  0.15823224  1
  Cr  Cr11  1  0.32454419  0.99121085  0.32454419  1
  Cr  Cr12  1  0.32454419  0.32410416  0.99078110  1
  Cr  Cr13  1  0.49138952  0.49121085  0.15744987  1
  Cr  Cr14  1  0.32454419  0.32371066  0.32454419  1
  Cr  Cr15  1  0.32454419  0.65831755  0.99078110  1
  Cr  Cr16  1  0.49189025  0.82386479  0.15823224  1
  Cr  Cr17  1  0.32454419  0.65871105  0.32454419  1
  Cr  Cr18  1  0.65743749  0.99121085  0.99078110  1
  Cr  Cr19  1  0.82454419  0.15805618  0.15744987  1
  Cr  Cr20  1  0.65704399  0.99121085  0.32454419  1
  Cr  Cr21  1  0.65854943  0.32521609  -0.00812489  1
  Fe  Fe22  1  0.82454419  0.49121085  0.15787209  1
  Cr  Cr23  1  0.65921862  0.32588529  0.32454419  1
  Cr  Cr24  1  0.65854943  0.65720561  -0.00812489  1
  Cr  Cr25  1  0.82454419  0.82436553  0.15744987  1
  Cr  Cr26  1  0.65921862  0.65653642  0.32454419  1
  Cr  Cr27  1  0.15719812  0.15855692  0.49085613  1
  Cr  Cr28  1  -0.00834912  0.99121085  0.65830727  1
  Cr  Cr29  1  0.15716357  0.15859147  0.82454419  1
  Cr  Cr30  1  0.15769886  0.49121085  0.49163850  1
  Cr  Cr31  1  0.99053895  0.32521609  0.65721326  1
  Cr  Cr32  1  0.15871726  0.49121085  0.82454419  1
  Cr  Cr33  1  0.15719812  0.82386479  0.49085613  1
  Cr  Cr34  1  0.99053895  0.65720561  0.65721326  1
  Cr  Cr35  1  0.15716357  0.82383024  0.82454419  1
  Cr  Cr36  1  0.49189025  0.15855692  0.49085613  1
  Cr  Cr37  1  0.32454419  0.99121085  0.65786620  1
  Cr  Cr38  1  0.49192480  0.15859147  0.82454419  1
  Cr  Cr39  1  0.49138952  0.49121085  0.49163850  1
  Cr  Cr40  1  0.32454419  0.32410416  0.65830727  1
  Cr  Cr41  1  0.49037112  0.49121085  0.82454419  1
  Cr  Cr42  1  0.49189025  0.82386479  0.49085613  1
  Cr  Cr43  1  0.32454419  0.65831755  0.65830727  1
  Cr  Cr44  1  0.49192480  0.82383024  0.82454419  1
  Cr  Cr45  1  0.82454419  0.15805618  0.49163850  1
  Cr  Cr46  1  0.65743749  0.99121085  0.65830727  1
  Cr  Cr47  1  0.82454419  0.15703778  0.82454419  1
  Fe  Fe48  1  0.82454419  0.49121085  0.49121628  1
  Cr  Cr49  1  0.65854943  0.32521609  0.65721326  1
  Cr  Cr50  1  0.82454419  0.49121085  0.82454419  1
  Cr  Cr51  1  0.82454419  0.82436553  0.49163850  1
  Cr  Cr52  1  0.65854943  0.65720561  0.65721326  1
  Cr  Cr53  1  0.82454419  0.82538392  0.82454419  1
" 