2158,Fe97Cr3_2,-200.973337125031, 212.626365478833,Fe97Cr3,"# generated using pymatgen
 data_Cr26Fe
_symmetry_space_group_name_H-M   'P 1'
_cell_length_a   7.60016067
_cell_length_b   7.60016067
_cell_length_c   10.74825029
_cell_angle_alpha   90.00000000
_cell_angle_beta   90.00000000
_cell_angle_gamma   90.00000000
_symmetry_Int_Tables_number   1
_chemical_formula_structural   Cr26Fe
_chemical_formula_sum   'Cr52 Fe2'
_cell_volume   620.84518545
_cell_formula_units_Z   2
loop_
 _symmetry_equiv_pos_site_id
 _symmetry_equiv_pos_as_xyz
  1  'x, y, z'
loop_
 _atom_site_type_symbol
 _atom_site_label
 _atom_site_symmetry_multiplicity
 _atom_site_fract_x
 _atom_site_fract_y
 _atom_site_fract_z
 _atom_site_occupancy
  Fe  Fe0  1  -0.00875725  -0.00874431  0.99124275  1
  Cr  Cr1  1  0.15762060  0.15697081  0.15762051  1
  Cr  Cr2  1  0.99124275  -0.00837028  0.32388066  1
  Cr  Cr3  1  0.99124275  0.32401140  -0.00875725  1
  Cr  Cr4  1  0.15862166  0.49156806  0.15862883  1
  Cr  Cr5  1  -0.00875725  0.32496631  0.32497694  1
  Cr  Cr6  1  0.99124275  0.65846079  -0.00875725  1
  Cr  Cr7  1  0.15690524  0.82519009  0.15690293  1
  Cr  Cr8  1  0.99124275  0.65713200  0.32457420  1
  Cr  Cr9  1  0.32401512  0.99123936  0.99124275  1
  Cr  Cr10  1  0.49124275  0.15868682  0.15791129  1
  Cr  Cr11  1  0.32558025  0.99062874  0.32558257  1
  Cr  Cr12  1  0.32426657  0.32427960  -0.00875725  1
  Cr  Cr13  1  0.49124275  0.49085252  0.15750855  1
  Cr  Cr14  1  0.32386384  0.32425077  0.32385666  1
  Cr  Cr15  1  0.32428313  0.65820933  -0.00875725  1
  Cr  Cr16  1  0.49124275  0.82418910  0.15860483  1
  Cr  Cr17  1  0.32486489  0.65884802  0.32486499  1
  Cr  Cr18  1  0.65847037  0.99123936  0.99124275  1
  Cr  Cr19  1  0.82486489  0.15697081  0.15762051  1
  Cr  Cr20  1  0.65690524  0.99062874  0.32558257  1
  Cr  Cr21  1  0.65821893  0.32427960  -0.00875725  1
  Cr  Cr22  1  0.82386384  0.49156806  0.15862883  1
  Cr  Cr23  1  0.65862166  0.32425077  0.32385666  1
  Cr  Cr24  1  0.65820236  0.65820933  -0.00875725  1
  Cr  Cr25  1  0.82558025  0.82519009  0.15690293  1
  Cr  Cr26  1  0.65762060  0.65884802  0.32486499  1
  Cr  Cr27  1  0.15820236  0.15760950  0.49124275  1
  Cr  Cr28  1  0.99124275  -0.00837028  0.65860483  1
  Cr  Cr29  1  0.15762060  0.15697081  0.82486499  1
  Cr  Cr30  1  0.15821893  0.49153923  0.49124275  1
  Cr  Cr31  1  -0.00875725  0.32496631  0.65750855  1
  Cr  Cr32  1  0.15862166  0.49156806  0.82385666  1
  Cr  Cr33  1  0.15847037  0.82457947  0.49124275  1
  Cr  Cr34  1  0.99124275  0.65713200  0.65791129  1
  Cr  Cr35  1  0.15690524  0.82519009  0.82558257  1
  Cr  Cr36  1  0.49124275  0.15735804  0.49124275  1
  Cr  Cr37  1  0.32558025  0.99062874  0.65690293  1
  Cr  Cr38  1  0.49124275  0.15868682  0.82457420  1
  Cr  Cr39  1  0.49124275  0.49180743  0.49124275  1
  Cr  Cr40  1  0.32386384  0.32425077  0.65862883  1
  Cr  Cr41  1  0.49124275  0.49085252  0.82497694  1
  Fe  Fe42  1  0.49124275  0.82456313  0.49124275  1
  Cr  Cr43  1  0.32486489  0.65884802  0.65762051  1
  Cr  Cr44  1  0.49124275  0.82418910  0.82388066  1
  Cr  Cr45  1  0.82428313  0.15760950  0.49124275  1
  Cr  Cr46  1  0.65690524  0.99062874  0.65690293  1
  Cr  Cr47  1  0.82486489  0.15697081  0.82486499  1
  Cr  Cr48  1  0.82426657  0.49153923  0.49124275  1
  Cr  Cr49  1  0.65862166  0.32425077  0.65862883  1
  Cr  Cr50  1  0.82386384  0.49156806  0.82385666  1
  Cr  Cr51  1  0.82401512  0.82457947  0.49124275  1
  Cr  Cr52  1  0.65762060  0.65884802  0.65762051  1
  Cr  Cr53  1  0.82558025  0.82519009  0.82558257  1
" 