7354,Fe97Cr3_5,-200.940339027535, 212.383248863311,Fe97Cr3,"# generated using pymatgen
 data_Cr26Fe
_symmetry_space_group_name_H-M   'P 1'
_cell_length_a   7.59986595
_cell_length_b   7.59986595
_cell_length_c   10.74783350
_cell_angle_alpha   90.00000000
_cell_angle_beta   90.00000000
_cell_angle_gamma   90.00000000
_symmetry_Int_Tables_number   1
_chemical_formula_structural   Cr26Fe
_chemical_formula_sum   'Cr52 Fe2'
_cell_volume   620.77296471
_cell_formula_units_Z   2
loop_
 _symmetry_equiv_pos_site_id
 _symmetry_equiv_pos_as_xyz
  1  'x, y, z'
loop_
 _atom_site_type_symbol
 _atom_site_label
 _atom_site_symmetry_multiplicity
 _atom_site_fract_x
 _atom_site_fract_y
 _atom_site_fract_z
 _atom_site_occupancy
  Cr  Cr0  1  0.99125790  0.99087667  -0.00834039  1
  Cr  Cr1  1  0.15792846  0.15792846  0.15792846  1
  Cr  Cr2  1  0.99064113  -0.00813198  0.32521480  1
  Cr  Cr3  1  0.99125790  0.32498025  -0.00834039  1
  Cr  Cr4  1  0.15792846  0.49060611  0.15792846  1
  Cr  Cr5  1  0.99064113  0.32398891  0.32521480  1
  Cr  Cr6  1  -0.00872358  0.65792846  0.99125383  1
  Cr  Cr7  1  0.15792846  0.82525082  0.15792846  1
  Cr  Cr8  1  -0.00834924  0.65792846  0.32419715  1
  Cr  Cr9  1  0.32521579  -0.00813198  0.99064212  1
  Cr  Cr10  1  0.49086955  0.15792846  0.15723077  1
  Cr  Cr11  1  0.32459903  0.99087667  0.32419731  1
  Cr  Cr12  1  0.32521579  0.32398891  0.99064212  1
  Cr  Cr13  1  0.49158973  0.49132611  0.15865110  1
  Cr  Cr14  1  0.32459903  0.32498025  0.32419731  1
  Cr  Cr15  1  0.32420617  0.65792846  -0.00834022  1
  Cr  Cr16  1  0.49158973  0.82453082  0.15865110  1
  Cr  Cr17  1  0.32458050  0.65792846  0.32460310  1
  Cr  Cr18  1  0.65731326  -0.00811562  0.99064414  1
  Cr  Cr19  1  0.82498737  0.15792846  0.15862615  1
  Cr  Cr20  1  0.65854367  -0.00811562  0.32521279  1
  Cr  Cr21  1  0.65731326  0.32397255  0.99064414  1
  Cr  Cr22  1  0.82426720  0.49132611  0.15720582  1
  Cr  Cr23  1  0.65854367  0.32397255  0.32521279  1
  Cr  Cr24  1  0.65830272  0.65792846  -0.00834039  1
  Cr  Cr25  1  0.82426720  0.82453082  0.15720582  1
  Cr  Cr26  1  0.65755421  0.65792846  0.32419732  1
  Cr  Cr27  1  0.15696629  0.15792846  0.49086585  1
  Cr  Cr28  1  0.99064493  -0.00850978  0.65691464  1
  Cr  Cr29  1  0.15889063  0.15792846  0.82499108  1
  Cr  Cr30  1  0.15795837  0.49063610  0.49158839  1
  Cr  Cr31  1  0.99064493  0.32436671  0.65691464  1
  Cr  Cr32  1  0.15789856  0.49063610  0.82426854  1
  Cr  Cr33  1  0.15795837  0.82522083  0.49158839  1
  Cr  Cr34  1  -0.00834954  0.65792846  0.65833434  1
  Cr  Cr35  1  0.15789856  0.82522083  0.82426854  1
  Cr  Cr36  1  0.49182352  0.15792846  0.49156438  1
  Cr  Cr37  1  0.32521200  -0.00850978  0.65894229  1
  Fe  Fe38  1  0.49127604  0.15792846  0.82458365  1
  Cr  Cr39  1  0.49156017  0.49135560  0.49086588  1
  Cr  Cr40  1  0.32521200  0.32436671  0.65894229  1
  Cr  Cr41  1  0.49158948  0.49036791  0.82426872  1
  Cr  Cr42  1  0.49156017  0.82450133  0.49086588  1
  Cr  Cr43  1  0.32420647  0.65792846  0.65752258  1
  Cr  Cr44  1  0.49158948  0.82548901  0.82426872  1
  Fe  Fe45  1  0.82458089  0.15792846  0.49127328  1
  Cr  Cr46  1  0.65792846  -0.00750985  0.65792846  1
  Cr  Cr47  1  0.82403340  0.15792846  0.82429254  1
  Cr  Cr48  1  0.82426745  0.49036791  0.49158821  1
  Cr  Cr49  1  0.65792846  0.32336677  0.65792846  1
  Cr  Cr50  1  0.82429676  0.49135560  0.82499105  1
  Cr  Cr51  1  0.82426745  0.82548901  0.49158821  1
  Cr  Cr52  1  0.65792846  0.65792846  0.65792846  1
  Cr  Cr53  1  0.82429676  0.82450133  0.82499105  1
" 