4332,Fe97Cr3_0,-200.939188420221, 212.075374322895,Fe97Cr3,"# generated using pymatgen
 data_Cr26Fe
_symmetry_space_group_name_H-M   'P 1'
_cell_length_a   7.60096481
_cell_length_b   7.60096481
_cell_length_c   10.74938752
_cell_angle_alpha   90.00000000
_cell_angle_beta   90.00000000
_cell_angle_gamma   90.00000000
_symmetry_Int_Tables_number   1
_chemical_formula_structural   Cr26Fe
_chemical_formula_sum   'Cr52 Fe2'
_cell_volume   621.04227415
_cell_formula_units_Z   2
loop_
 _symmetry_equiv_pos_site_id
 _symmetry_equiv_pos_as_xyz
  1  'x, y, z'
loop_
 _atom_site_type_symbol
 _atom_site_label
 _atom_site_symmetry_multiplicity
 _atom_site_fract_x
 _atom_site_fract_y
 _atom_site_fract_z
 _atom_site_occupancy
  Cr  Cr0  1  -0.00874157  -0.00847313  0.99111888  1
  Cr  Cr1  1  0.15785744  0.15785744  0.15703945  1
  Cr  Cr2  1  0.99031008  -0.00850268  0.32452411  1
  Cr  Cr3  1  -0.00874157  0.32418801  0.99111888  1
  Cr  Cr4  1  0.15785744  0.49159101  0.15745613  1
  Cr  Cr5  1  0.99031008  0.32421756  0.32452411  1
  Cr  Cr6  1  0.99051782  0.65785744  -0.00813852  1
  Cr  Cr7  1  0.15785744  0.82412387  0.15745613  1
  Cr  Cr8  1  0.99057733  0.65785744  0.32452411  1
  Cr  Cr9  1  0.32445645  -0.00847313  0.99111888  1
  Cr  Cr10  1  0.49245073  0.15785744  0.15911562  1
  Cr  Cr11  1  0.32540481  -0.00850268  0.32452411  1
  Cr  Cr12  1  0.32445645  0.32418801  0.99111888  1
  Cr  Cr13  1  0.49142005  0.49056157  0.15807704  1
  Cr  Cr14  1  0.32540481  0.32421756  0.32452411  1
  Cr  Cr15  1  0.32519706  0.65785744  -0.00813852  1
  Cr  Cr16  1  0.49142005  0.82515331  0.15807704  1
  Cr  Cr17  1  0.32513756  0.65785744  0.32452411  1
  Cr  Cr18  1  0.65785744  0.99078680  0.99109450  1
  Cr  Cr19  1  0.82326416  0.15785744  0.15911562  1
  Fe  Fe20  1  0.65785744  -0.00821594  0.32452411  1
  Cr  Cr21  1  0.65785744  0.32492808  0.99109450  1
  Cr  Cr22  1  0.82429484  0.49056157  0.15807704  1
  Fe  Fe23  1  0.65785744  0.32393083  0.32452411  1
  Cr  Cr24  1  0.65785744  0.65785744  0.99037684  1
  Cr  Cr25  1  0.82429484  0.82515331  0.15807704  1
  Cr  Cr26  1  0.65785744  0.65785744  0.32452411  1
  Cr  Cr27  1  0.15785744  0.15785744  0.49200876  1
  Cr  Cr28  1  -0.00874157  -0.00847313  0.65792934  1
  Cr  Cr29  1  0.15785744  0.15785744  0.82452411  1
  Cr  Cr30  1  0.15785744  0.49159101  0.49159209  1
  Cr  Cr31  1  -0.00874157  0.32418801  0.65792934  1
  Cr  Cr32  1  0.15785744  0.49120424  0.82452411  1
  Cr  Cr33  1  0.15785744  0.82412387  0.49159209  1
  Cr  Cr34  1  0.99051782  0.65785744  0.65718673  1
  Cr  Cr35  1  0.15785744  0.82451065  0.82452411  1
  Cr  Cr36  1  0.49245073  0.15785744  0.48993260  1
  Cr  Cr37  1  0.32445645  -0.00847313  0.65792934  1
  Cr  Cr38  1  0.49119807  0.15785744  0.82452411  1
  Cr  Cr39  1  0.49142005  0.49056157  0.49097118  1
  Cr  Cr40  1  0.32445645  0.32418801  0.65792934  1
  Cr  Cr41  1  0.49118071  0.49118709  0.82452411  1
  Cr  Cr42  1  0.49142005  0.82515331  0.49097118  1
  Cr  Cr43  1  0.32519706  0.65785744  0.65718673  1
  Cr  Cr44  1  0.49118071  0.82452779  0.82452411  1
  Cr  Cr45  1  0.82326416  0.15785744  0.48993260  1
  Cr  Cr46  1  0.65785744  0.99078680  0.65795372  1
  Cr  Cr47  1  0.82451682  0.15785744  0.82452411  1
  Cr  Cr48  1  0.82429484  0.49056157  0.49097118  1
  Cr  Cr49  1  0.65785744  0.32492808  0.65795372  1
  Cr  Cr50  1  0.82453418  0.49118709  0.82452411  1
  Cr  Cr51  1  0.82429484  0.82515331  0.49097118  1
  Cr  Cr52  1  0.65785744  0.65785744  0.65867138  1
  Cr  Cr53  1  0.82453418  0.82452779  0.82452411  1
" 