2750,Fe97Cr3_9,-200.918912052646, 212.333644275505,Fe97Cr3,"# generated using pymatgen
 data_Cr26Fe
_symmetry_space_group_name_H-M   'P 1'
_cell_length_a   7.59813193
_cell_length_b   7.59813193
_cell_length_c   10.74538122
_cell_angle_alpha   90.00000000
_cell_angle_beta   90.00000000
_cell_angle_gamma   90.00000000
_symmetry_Int_Tables_number   1
_chemical_formula_structural   Cr26Fe
_chemical_formula_sum   'Cr52 Fe2'
_cell_volume   620.34814516
_cell_formula_units_Z   2
loop_
 _symmetry_equiv_pos_site_id
 _symmetry_equiv_pos_as_xyz
  1  'x, y, z'
loop_
 _atom_site_type_symbol
 _atom_site_label
 _atom_site_symmetry_multiplicity
 _atom_site_fract_x
 _atom_site_fract_y
 _atom_site_fract_z
 _atom_site_occupancy
  Cr  Cr0  1  -0.00825542  0.98986914  0.99002425  1
  Cr  Cr1  1  0.15804058  0.15827220  0.15851457  1
  Cr  Cr2  1  0.99089107  0.99071852  0.32519456  1
  Cr  Cr3  1  0.99057353  0.32527525  0.99135444  1
  Cr  Cr4  1  0.15804058  0.49063817  0.15850666  1
  Cr  Cr5  1  0.99029051  0.32527643  0.32519739  1
  Cr  Cr6  1  -0.00753950  0.65891038  0.99104398  1
  Cr  Cr7  1  0.15804058  0.82521764  0.15762021  1
  Cr  Cr8  1  -0.00831364  0.65812920  0.32423998  1
  Cr  Cr9  1  0.32433658  0.98986914  0.99002425  1
  Cr  Cr10  1  0.49029051  0.15747139  0.15755044  1
  Cr  Cr11  1  0.32519009  0.99071852  0.32519456  1
  Cr  Cr12  1  0.32550762  0.32527525  0.99135444  1
  Cr  Cr13  1  0.49089107  0.49202930  0.15755326  1
  Cr  Cr14  1  0.32579065  0.32527643  0.32519739  1
  Cr  Cr15  1  0.32362066  0.65891038  0.99104398  1
  Cr  Cr16  1  0.49168636  0.82461862  0.15850784  1
  Cr  Cr17  1  0.32439480  0.65812920  0.32423998  1
  Cr  Cr18  1  0.65804058  -0.00817718  -0.00769995  1
  Cr  Cr19  1  0.82579065  0.15747139  0.15755044  1
  Cr  Cr20  1  0.65804058  -0.00789035  0.32424116  1
  Cr  Cr21  1  0.65804058  0.32448849  -0.00834024  1
  Cr  Cr22  1  0.82519009  0.49202930  0.15755326  1
  Cr  Cr23  1  0.65804058  0.32447562  0.32423326  1
  Cr  Cr24  1  0.65804058  0.65780165  -0.00860748  1
  Cr  Cr25  1  0.82439480  0.82461862  0.15850784  1
  Cr  Cr26  1  0.65804058  0.65753018  0.32512761  1
  Cr  Cr27  1  0.15804058  0.15825934  0.49108806  1
  Cr  Cr28  1  -0.00815433  0.99022775  0.65878420  1
  Cr  Cr29  1  0.15804058  0.15787858  0.82452916  1
  Cr  Cr30  1  0.15804058  0.49092500  0.49044777  1
  Cr  Cr31  1  0.99081295  0.32503698  0.65757328  1
  Cr  Cr32  1  0.15804058  0.49104590  0.82517743  1
  Cr  Cr33  1  0.15804058  0.82494618  0.49135530  1
  Cr  Cr34  1  -0.00788623  0.65878025  0.65870647  1
  Fe  Fe35  1  0.15804058  0.82440459  0.82459581  1
  Cr  Cr36  1  0.49057353  0.15747257  0.49139339  1
  Cr  Cr37  1  0.32423549  0.99022775  0.65878420  1
  Cr  Cr38  1  0.49081295  0.15771084  0.82517454  1
  Cr  Cr39  1  0.49174458  0.49287868  0.49272357  1
  Cr  Cr40  1  0.32526821  0.32503698  0.65757328  1
  Cr  Cr41  1  0.49184567  0.49252008  0.82396362  1
  Cr  Cr42  1  0.49246050  0.82383744  0.49170384  1
  Cr  Cr43  1  0.32396738  0.65878025  0.65870647  1
  Cr  Cr44  1  0.49211377  0.82396757  0.82404136  1
  Cr  Cr45  1  0.82550762  0.15747257  0.49139339  1
  Cr  Cr46  1  0.65804058  -0.00829808  0.65757039  1
  Cr  Cr47  1  0.82526821  0.15771084  0.82517454  1
  Cr  Cr48  1  0.82433658  0.49287868  0.49272357  1
  Cr  Cr49  1  0.65804058  0.32486924  0.65821866  1
  Cr  Cr50  1  0.82423549  0.49252008  0.82396362  1
  Cr  Cr51  1  0.82362066  0.82383744  0.49170384  1
  Fe  Fe52  1  0.65804058  0.65834323  0.65815201  1
  Cr  Cr53  1  0.82396738  0.82396757  0.82404136  1
" 