5269,Fe97Cr3_15,-200.975136095322, 212.705157079912,Fe97Cr3,"# generated using pymatgen
 data_Cr26Fe
_symmetry_space_group_name_H-M   'P 1'
_cell_length_a   7.60065413
_cell_length_b   7.60065413
_cell_length_c   10.74894816
_cell_angle_alpha   90.00000000
_cell_angle_beta   90.00000000
_cell_angle_gamma   90.00000000
_symmetry_Int_Tables_number   1
_chemical_formula_structural   Cr26Fe
_chemical_formula_sum   'Cr52 Fe2'
_cell_volume   620.96612543
_cell_formula_units_Z   2
loop_
 _symmetry_equiv_pos_site_id
 _symmetry_equiv_pos_as_xyz
  1  'x, y, z'
loop_
 _atom_site_type_symbol
 _atom_site_label
 _atom_site_symmetry_multiplicity
 _atom_site_fract_x
 _atom_site_fract_y
 _atom_site_fract_z
 _atom_site_occupancy
  Cr  Cr0  1  -0.00861048  -0.00878915  -0.00836150  1
  Cr  Cr1  1  0.15854943  0.15720561  0.15721326  1
  Cr  Cr2  1  0.99037112  -0.00878915  0.32454419  1
  Cr  Cr3  1  -0.00810975  0.32386479  0.99085613  1
  Cr  Cr4  1  0.15743749  0.49121085  0.15830727  1
  Cr  Cr5  1  -0.00807520  0.32383024  0.32454419  1
  Cr  Cr6  1  -0.00810975  0.65855692  0.99085613  1
  Cr  Cr7  1  0.15854943  0.82521609  0.15721326  1
  Cr  Cr8  1  -0.00807520  0.65859147  0.32454419  1
  Fe  Fe9  1  0.32454419  0.99121085  -0.00878372  1
  Cr  Cr10  1  0.49053895  0.15720561  0.15721326  1
  Cr  Cr11  1  0.32454419  0.99121085  0.32454419  1
  Cr  Cr12  1  0.32454419  0.32436553  -0.00836150  1
  Cr  Cr13  1  0.49165088  0.49121085  0.15830727  1
  Cr  Cr14  1  0.32454419  0.32538392  0.32454419  1
  Cr  Cr15  1  0.32454419  0.65805618  -0.00836150  1
  Cr  Cr16  1  0.49053895  0.82521609  0.15721326  1
  Cr  Cr17  1  0.32454419  0.65703778  0.32454419  1
  Cr  Cr18  1  0.65769886  -0.00878915  -0.00836150  1
  Cr  Cr19  1  0.82454419  0.15831755  0.15830727  1
  Cr  Cr20  1  0.65871726  -0.00878915  0.32454419  1
  Cr  Cr21  1  0.65719812  0.32386479  0.99085613  1
  Cr  Cr22  1  0.82454419  0.49121085  0.15786620  1
  Cr  Cr23  1  0.65716357  0.32383024  0.32454419  1
  Cr  Cr24  1  0.65719812  0.65855692  0.99085613  1
  Cr  Cr25  1  0.82454419  0.82410416  0.15830727  1
  Cr  Cr26  1  0.65716357  0.65859147  0.32454419  1
  Cr  Cr27  1  0.15854943  0.15720561  0.49187511  1
  Cr  Cr28  1  -0.00861048  -0.00878915  0.65744987  1
  Cr  Cr29  1  0.15921862  0.15653642  0.82454419  1
  Cr  Cr30  1  0.15743749  0.49121085  0.49078110  1
  Cr  Cr31  1  -0.00810975  0.32386479  0.65823224  1
  Cr  Cr32  1  0.15704399  0.49121085  0.82454419  1
  Cr  Cr33  1  0.15854943  0.82521609  0.49187511  1
  Cr  Cr34  1  -0.00810975  0.65855692  0.65823224  1
  Cr  Cr35  1  0.15921862  0.82588529  0.82454419  1
  Cr  Cr36  1  0.49053895  0.15720561  0.49187511  1
  Fe  Fe37  1  0.32454419  0.99121085  0.65787209  1
  Cr  Cr38  1  0.48986975  0.15653642  0.82454419  1
  Cr  Cr39  1  0.49165088  0.49121085  0.49078110  1
  Cr  Cr40  1  0.32454419  0.32436553  0.65744987  1
  Cr  Cr41  1  0.49204438  0.49121085  0.82454419  1
  Cr  Cr42  1  0.49053895  0.82521609  0.49187511  1
  Cr  Cr43  1  0.32454419  0.65805618  0.65744987  1
  Cr  Cr44  1  0.48986975  0.82588529  0.82454419  1
  Cr  Cr45  1  0.82454419  0.15831755  0.49078110  1
  Cr  Cr46  1  0.65769886  -0.00878915  0.65744987  1
  Cr  Cr47  1  0.82454419  0.15871105  0.82454419  1
  Cr  Cr48  1  0.82454419  0.49121085  0.49122218  1
  Cr  Cr49  1  0.65719812  0.32386479  0.65823224  1
  Cr  Cr50  1  0.82454419  0.49121085  0.82454419  1
  Cr  Cr51  1  0.82454419  0.82410416  0.49078110  1
  Cr  Cr52  1  0.65719812  0.65855692  0.65823224  1
  Cr  Cr53  1  0.82454419  0.82371066  0.82454419  1
" 