3388,Fe97Cr3_10,-200.950915139268, 212.483457476062,Fe97Cr3,"# generated using pymatgen
 data_Cr26Fe
_symmetry_space_group_name_H-M   'P 1'
_cell_length_a   7.60084382
_cell_length_b   7.60084382
_cell_length_c   10.74921642
_cell_angle_alpha   90.00000000
_cell_angle_beta   90.00000000
_cell_angle_gamma   90.00000000
_symmetry_Int_Tables_number   1
_chemical_formula_structural   Cr26Fe
_chemical_formula_sum   'Cr52 Fe2'
_cell_volume   621.01261814
_cell_formula_units_Z   2
loop_
 _symmetry_equiv_pos_site_id
 _symmetry_equiv_pos_as_xyz
  1  'x, y, z'
loop_
 _atom_site_type_symbol
 _atom_site_label
 _atom_site_symmetry_multiplicity
 _atom_site_fract_x
 _atom_site_fract_y
 _atom_site_fract_z
 _atom_site_occupancy
  Cr  Cr0  1  -0.00850386  0.99051084  -0.00840664  1
  Cr  Cr1  1  0.15747448  0.15786919  0.15826184  1
  Cr  Cr2  1  -0.00847376  0.99048113  0.32381138  1
  Cr  Cr3  1  -0.00850397  0.32482936  0.99089668  1
  Cr  Cr4  1  0.15847762  0.49181096  0.15725005  1
  Cr  Cr5  1  -0.00847394  0.32485939  0.32450862  1
  Cr  Cr6  1  -0.00823644  0.65825531  -0.00840674  1
  Cr  Cr7  1  0.15849635  0.82391693  0.15725166  1
  Cr  Cr8  1  0.99080840  0.65825546  0.32453193  1
  Cr  Cr9  1  0.32420452  0.99096853  0.99087265  1
  Cr  Cr10  1  0.49158534  0.15784868  0.15826184  1
  Cr  Cr11  1  0.32420429  -0.00808394  0.32525247  1
  Cr  Cr12  1  0.32492198  0.32509690  -0.00840674  1
  Cr  Cr13  1  0.49058360  0.49182968  0.15725166  1
  Cr  Cr14  1  0.32492212  0.32414173  0.32453193  1
  Fe  Fe15  1  0.32452491  0.65785825  0.99119309  1
  Cr  Cr16  1  0.49058551  0.82391884  0.15725332  1
  Cr  Cr17  1  0.32420446  0.65753779  0.32455524  1
  Cr  Cr18  1  0.65789465  -0.00877202  0.99087273  1
  Cr  Cr19  1  0.82453598  0.15786931  0.15785667  1
  Cr  Cr20  1  0.65786526  -0.00880141  0.32453193  1
  Cr  Cr21  1  0.65717750  0.32482947  -0.00840664  1
  Cr  Cr22  1  0.82453586  0.49080781  0.15826184  1
  Cr  Cr23  1  0.65714780  0.32485957  0.32381138  1
  Cr  Cr24  1  0.65763520  0.65753786  0.99087265  1
  Cr  Cr25  1  0.82451534  0.82491868  0.15826184  1
  Cr  Cr26  1  0.65858273  0.65753762  0.32525247  1
  Cr  Cr27  1  0.15723417  0.15848026  0.49181220  1
  Cr  Cr28  1  -0.00847400  -0.00857134  0.65819121  1
  Cr  Cr29  1  0.15686008  0.15848340  0.82351828  1
  Cr  Cr30  1  0.15725290  0.49058623  0.49181381  1
  Fe  Fe31  1  -0.00879439  0.32453894  0.65787077  1
  Cr  Cr32  1  0.15786526  0.49119859  0.82453193  1
  Cr  Cr33  1  0.15825605  0.82452800  0.49080201  1
  Cr  Cr34  1  0.99080854  0.65730029  0.65747060  1
  Cr  Cr35  1  0.15887045  0.82391379  0.82554557  1
  Cr  Cr36  1  0.49121518  0.15747851  0.49080202  1
  Cr  Cr37  1  0.32423438  -0.00811365  0.65747050  1
  Cr  Cr38  1  0.49158553  0.15747833  0.82453193  1
  Cr  Cr39  1  0.49119467  0.49158938  0.49080201  1
  Cr  Cr40  1  0.32396696  0.32414188  0.65747060  1
  Cr  Cr41  1  0.49058045  0.49220378  0.82554557  1
  Cr  Cr42  1  0.49119455  0.82452788  0.49120719  1
  Cr  Cr43  1  0.32423450  0.65756783  0.65816718  1
  Cr  Cr44  1  0.49058213  0.82391547  0.82513852  1
  Cr  Cr45  1  0.82514502  0.15847835  0.49181053  1
  Cr  Cr46  1  0.65783587  0.99116920  0.65819113  1
  Cr  Cr47  1  0.82514839  0.15848172  0.82392534  1
  Cr  Cr48  1  0.82514693  0.49056751  0.49181220  1
  Cr  Cr49  1  0.65809533  0.32485933  0.65819121  1
  Cr  Cr50  1  0.82515007  0.49019341  0.82351828  1
  Cr  Cr51  1  0.82414518  0.82454851  0.49080202  1
  Cr  Cr52  1  0.65855302  0.65756772  0.65747050  1
  Cr  Cr53  1  0.82414499  0.82491886  0.82453193  1
" 