7312,Fe97Cr3_4,-200.959434954008, 211.931398242211,Fe97Cr3,"# generated using pymatgen
 data_Cr26Fe
_symmetry_space_group_name_H-M   'P 1'
_cell_length_a   7.60046746
_cell_length_b   7.60046746
_cell_length_c   10.74868416
_cell_angle_alpha   90.00000000
_cell_angle_beta   90.00000000
_cell_angle_gamma   90.00000000
_symmetry_Int_Tables_number   1
_chemical_formula_structural   Cr26Fe
_chemical_formula_sum   'Cr52 Fe2'
_cell_volume   620.92037319
_cell_formula_units_Z   2
loop_
 _symmetry_equiv_pos_site_id
 _symmetry_equiv_pos_as_xyz
  1  'x, y, z'
loop_
 _atom_site_type_symbol
 _atom_site_label
 _atom_site_symmetry_multiplicity
 _atom_site_fract_x
 _atom_site_fract_y
 _atom_site_fract_z
 _atom_site_occupancy
  Cr  Cr0  1  -0.00838919  -0.00876426  -0.00838623  1
  Cr  Cr1  1  0.15821265  0.15757945  0.15821162  1
  Cr  Cr2  1  -0.00838880  -0.00839248  0.32377231  1
  Cr  Cr3  1  0.99090011  0.32423345  0.99090100  1
  Cr  Cr4  1  0.15821239  0.49154572  0.15821150  1
  Cr  Cr5  1  0.99089989  0.32423322  0.32488566  1
  Cr  Cr6  1  0.99089985  0.65819972  0.99090088  1
  Cr  Cr7  1  0.15750169  0.82454343  0.15749873  1
  Cr  Cr8  1  0.99090033  0.65782795  0.32448548  1
  Cr  Cr9  1  0.32417167  0.99121956  -0.00838610  1
  Cr  Cr10  1  0.49122628  0.15827417  0.15749860  1
  Cr  Cr11  1  0.32477165  0.99061930  0.32476793  1
  Cr  Cr12  1  0.32486639  0.32423318  0.99090088  1
  Cr  Cr13  1  0.49121010  0.49083502  0.15749873  1
  Cr  Cr14  1  0.32449461  0.32423367  0.32448548  1
  Cr  Cr15  1  0.32488274  0.65821608  0.99090084  1
  Cr  Cr16  1  0.49122636  0.82455969  0.15818804  1
  Cr  Cr17  1  0.32548290  0.65881623  0.32548107  1
  Cr  Cr18  1  0.65788614  0.99121948  0.99092446  1
  Cr  Cr19  1  0.82422976  0.15756309  0.15821166  1
  Cr  Cr20  1  0.65728390  0.99061724  0.32545904  1
  Cr  Cr21  1  0.65790240  0.32494415  -0.00838623  1
  Cr  Cr22  1  0.82424611  0.49154598  0.15821162  1
  Cr  Cr23  1  0.65827419  0.32494453  0.32377231  1
  Cr  Cr24  1  0.65788622  0.65750500  -0.00838610  1
  Cr  Cr25  1  0.82494083  0.82455961  0.15749860  1
  Cr  Cr26  1  0.65728596  0.65810498  0.32476793  1
  Cr  Cr27  1  0.15818371  0.15797997  0.49083003  1
  Cr  Cr28  1  0.99067428  -0.00839247  0.65828234  1
  Cr  Cr29  1  0.15821217  0.15795122  0.82462703  1
  Cr  Cr30  1  0.15818418  0.49151751  0.49123021  1
  Cr  Cr31  1  0.99092832  0.32426165  0.65788230  1
  Cr  Cr32  1  0.15821261  0.49154594  0.82422684  1
  Cr  Cr33  1  0.15843823  0.82417164  0.49083016  1
  Cr  Cr34  1  0.99092879  0.65779920  0.65828248  1
  Cr  Cr35  1  0.15750130  0.82417164  0.82534019  1
  Cr  Cr36  1  0.49182950  0.15672723  0.49182887  1
  Cr  Cr37  1  0.32571860  0.99061634  0.65728363  1
  Cr  Cr38  1  0.49182654  0.15767419  0.82434458  1
  Cr  Cr39  1  0.49083830  0.49177156  0.49083016  1
  Cr  Cr40  1  0.32446587  0.32426212  0.65828248  1
  Cr  Cr41  1  0.49083831  0.49083464  0.82534019  1
  Fe  Fe42  1  0.49152409  0.82485743  0.49152313  1
  Cr  Cr43  1  0.32545604  0.65878937  0.65728476  1
  Cr  Cr44  1  0.49182860  0.82516193  0.82365347  1
  Cr  Cr45  1  0.82365647  0.15698980  0.49182774  1
  Fe  Fe46  1  0.65758841  0.99092174  0.65758937  1
  Cr  Cr47  1  0.82362961  0.15696294  0.82363143  1
  Cr  Cr48  1  0.82464663  0.49151705  0.49083003  1
  Cr  Cr49  1  0.65827420  0.32400761  0.65828234  1
  Cr  Cr50  1  0.82461789  0.49154550  0.82462703  1
  Cr  Cr51  1  0.82339390  0.82516283  0.49182887  1
  Cr  Cr52  1  0.65728301  0.65905194  0.65728363  1
  Cr  Cr53  1  0.82434085  0.82515987  0.82434458  1
" 