6551,Fe97Cr3_16,-200.959434954009, 211.931398243345,Fe97Cr3,"# generated using pymatgen
 data_Cr26Fe
_symmetry_space_group_name_H-M   'P 1'
_cell_length_a   7.60046746
_cell_length_b   7.60046746
_cell_length_c   10.74868416
_cell_angle_alpha   90.00000000
_cell_angle_beta   90.00000000
_cell_angle_gamma   90.00000000
_symmetry_Int_Tables_number   1
_chemical_formula_structural   Cr26Fe
_chemical_formula_sum   'Cr52 Fe2'
_cell_volume   620.92037319
_cell_formula_units_Z   2
loop_
 _symmetry_equiv_pos_site_id
 _symmetry_equiv_pos_as_xyz
  1  'x, y, z'
loop_
 _atom_site_type_symbol
 _atom_site_label
 _atom_site_symmetry_multiplicity
 _atom_site_fract_x
 _atom_site_fract_y
 _atom_site_fract_z
 _atom_site_occupancy
  Cr  Cr0  1  -0.00817050  -0.00761473  -0.00817113  1
  Fe  Fe1  1  0.15758841  0.15819076  0.15758937  1
  Cr  Cr2  1  -0.00817346  -0.00856168  0.32434458  1
  Fe  Fe3  1  -0.00847591  0.32425508  -0.00847687  1
  Cr  Cr4  1  0.15728301  0.49006057  0.15728363  1
  Cr  Cr5  1  -0.00817140  0.32395057  0.32365347  1
  Cr  Cr6  1  0.99083830  0.65734094  0.99083016  1
  Cr  Cr7  1  0.15827420  0.82510489  0.15828234  1
  Cr  Cr8  1  0.99083831  0.65827787  0.32534019  1
  Cr  Cr9  1  0.32365647  -0.00787730  -0.00817226  1
  Cr  Cr10  1  0.49067428  0.15750497  0.15828234  1
  Cr  Cr11  1  0.32362961  -0.00785044  0.32363143  1
  Cr  Cr12  1  0.32339390  0.32394967  -0.00817113  1
  Cr  Cr13  1  0.49092879  0.49131330  0.15828248  1
  Cr  Cr14  1  0.32434085  0.32395263  0.32434458  1
  Cr  Cr15  1  0.32464663  0.65759546  0.99083003  1
  Cr  Cr16  1  0.49092832  0.82485085  0.15788230  1
  Cr  Cr17  1  0.32461789  0.65756700  0.32462703  1
  Cr  Cr18  1  0.65818371  0.99113254  0.99083003  1
  Cr  Cr19  1  0.82571860  0.15849616  0.15728363  1
  Cr  Cr20  1  0.65821217  0.99116128  0.32462703  1
  Cr  Cr21  1  0.65843823  0.32494087  0.99083016  1
  Cr  Cr22  1  0.82545604  0.49032313  0.15728476  1
  Cr  Cr23  1  0.65750130  0.32494086  0.32534019  1
  Cr  Cr24  1  0.65818418  0.65759499  -0.00876979  1
  Cr  Cr25  1  0.82446587  0.82485038  0.15828248  1
  Cr  Cr26  1  0.65821261  0.65756656  0.32422684  1
  Cr  Cr27  1  0.15788614  0.15789303  0.49092446  1
  Cr  Cr28  1  -0.00877372  0.99083833  0.65749860  1
  Cr  Cr29  1  0.15728390  0.15849527  0.82545904  1
  Cr  Cr30  1  0.15788622  0.49160750  0.49161390  1
  Cr  Cr31  1  -0.00877364  0.32455281  0.65818804  1
  Cr  Cr32  1  0.15728596  0.49100752  0.82476793  1
  Cr  Cr33  1  0.15790240  0.82416836  0.49161377  1
  Cr  Cr34  1  0.99121010  0.65827748  0.65749873  1
  Cr  Cr35  1  0.15827419  0.82416797  0.82377231  1
  Cr  Cr36  1  0.49161081  0.15787677  0.49161377  1
  Cr  Cr37  1  0.32422976  -0.00845059  0.65821166  1
  Cr  Cr38  1  0.49161120  0.15750498  0.82377231  1
  Cr  Cr39  1  0.49089985  0.49091278  0.49090088  1
  Cr  Cr40  1  0.32494083  0.32455289  0.65749860  1
  Cr  Cr41  1  0.49090033  0.49128456  0.82448548  1
  Cr  Cr42  1  0.49090011  0.82487906  0.49090100  1
  Cr  Cr43  1  0.32424611  0.65756652  0.65821162  1
  Cr  Cr44  1  0.49089989  0.82487928  0.82488566  1
  Cr  Cr45  1  0.82417167  0.15789295  0.49161390  1
  Cr  Cr46  1  0.65821265  -0.00846694  0.65821162  1
  Cr  Cr47  1  0.82477165  0.15849321  0.82476793  1
  Cr  Cr48  1  0.82488274  0.49089643  0.49090084  1
  Cr  Cr49  1  0.65750169  0.32456907  0.65749873  1
  Cr  Cr50  1  0.82548290  0.49029627  0.82548107  1
  Cr  Cr51  1  0.82486639  0.82487932  0.49090088  1
  Cr  Cr52  1  0.65821239  0.65756678  0.65821150  1
  Cr  Cr53  1  0.82449461  0.82487884  0.82448548  1
" 