1054,Fe97Cr3_1,-200.918912052646, 212.333644278917,Fe97Cr3,"# generated using pymatgen
 data_Cr26Fe
_symmetry_space_group_name_H-M   'P 1'
_cell_length_a   7.59813193
_cell_length_b   7.59813193
_cell_length_c   10.74538122
_cell_angle_alpha   90.00000000
_cell_angle_beta   90.00000000
_cell_angle_gamma   90.00000000
_symmetry_Int_Tables_number   1
_chemical_formula_structural   Cr26Fe
_chemical_formula_sum   'Cr52 Fe2'
_cell_volume   620.34814516
_cell_formula_units_Z   2
loop_
 _symmetry_equiv_pos_site_id
 _symmetry_equiv_pos_as_xyz
  1  'x, y, z'
loop_
 _atom_site_type_symbol
 _atom_site_label
 _atom_site_symmetry_multiplicity
 _atom_site_fract_x
 _atom_site_fract_y
 _atom_site_fract_z
 _atom_site_occupancy
  Cr  Cr0  1  -0.00853746  0.99106147  -0.00815882  1
  Cr  Cr1  1  0.15795195  0.15835302  0.15757331  1
  Cr  Cr2  1  -0.00775628  0.99028732  0.32503718  1
  Cr  Cr3  1  0.99086352  0.32470724  0.99095354  1
  Cr  Cr4  1  0.15795195  0.49106147  0.15757331  1
  Cr  Cr5  1  0.99113498  0.32470724  0.32468864  1
  Cr  Cr6  1  -0.00853746  0.65835302  -0.00815882  1
  Cr  Cr7  1  0.15855097  0.82470724  0.15846095  1
  Cr  Cr8  1  -0.00775628  0.65912717  0.32503718  1
  Cr  Cr9  1  0.32405185  -0.00814325  0.99088659  1
  Cr  Cr10  1  0.49080472  0.15695718  0.15853072  1
  Cr  Cr11  1  0.32320248  0.99100325  0.32605691  1
  Cr  Cr12  1  0.32544298  0.32470724  -0.00816001  1
  Cr  Cr13  1  0.49080472  0.49245731  0.15853072  1
  Cr  Cr14  1  0.32515616  0.32470724  0.32378110  1
  Cr  Cr15  1  0.32405185  0.65755773  0.99088659  1
  Cr  Cr16  1  0.49160553  0.82470724  0.15756659  1
  Cr  Cr17  1  0.32320248  0.65841124  0.32605691  1
  Cr  Cr18  1  0.65860977  -0.00754269  0.99088377  1
  Cr  Cr19  1  0.82536263  0.15755773  0.15852790  1
  Cr  Cr20  1  0.65860858  -0.00782571  0.32472672  1
  Cr  Cr21  1  0.65780896  0.32470724  -0.00815210  1
  Cr  Cr22  1  0.82536263  0.49185675  0.15852790  1
  Cr  Cr23  1  0.65782182  0.32470724  0.32442140  1
  Cr  Cr24  1  0.65860977  0.65695718  0.99088377  1
  Cr  Cr25  1  0.82397151  0.82470724  0.15757450  1
  Cr  Cr26  1  0.65860858  0.65724020  0.32472672  1
  Cr  Cr27  1  0.15730091  0.15878044  0.49203980  1
  Cr  Cr28  1  -0.00788642  0.99063405  0.65737469  1
  Cr  Cr29  1  0.15717077  0.15912717  0.82437731  1
  Cr  Cr30  1  0.15730091  0.49063405  0.49203980  1
  Fe  Fe31  1  -0.00832344  0.32470724  0.65792915  1
  Cr  Cr32  1  0.15717077  0.49028732  0.82437731  1
  Fe  Fe33  1  0.15773793  0.82470724  0.49148534  1
  Cr  Cr34  1  -0.00788642  0.65878044  0.65737469  1
  Cr  Cr35  1  0.15827951  0.82470724  0.82472585  1
  Cr  Cr36  1  0.49104418  0.15747962  0.49090662  1
  Cr  Cr37  1  0.32356108  0.99090215  0.65729696  1
  Cr  Cr38  1  0.49080591  0.15724020  0.82468777  1
  Cr  Cr39  1  0.49104418  0.49193487  0.49090662  1
  Cr  Cr40  1  0.32503525  0.32470724  0.65851076  1
  Cr  Cr41  1  0.49080591  0.49217429  0.82468777  1
  Cr  Cr42  1  0.49121191  0.82470724  0.49155200  1
  Cr  Cr43  1  0.32356108  0.65851234  0.65729696  1
  Cr  Cr44  1  0.49159267  0.82470724  0.82499309  1
  Cr  Cr45  1  0.82585341  0.15851234  0.49211753  1
  Cr  Cr46  1  0.65837031  -0.00806513  0.65850787  1
  Cr  Cr47  1  0.82621201  0.15841124  0.82335758  1
  Cr  Cr48  1  0.82585341  0.49090215  0.49211753  1
  Cr  Cr49  1  0.65820257  0.32470724  0.65786249  1
  Cr  Cr50  1  0.82621201  0.49100325  0.82335758  1
  Cr  Cr51  1  0.82437924  0.82470724  0.49090373  1
  Cr  Cr52  1  0.65837031  0.65747962  0.65850787  1
  Cr  Cr53  1  0.82425833  0.82470724  0.82563339  1
" 