5338,Fe97Cr3_6,-200.950915139268, 212.483457476762,Fe97Cr3,"# generated using pymatgen
 data_Cr26Fe
_symmetry_space_group_name_H-M   'P 1'
_cell_length_a   7.60084382
_cell_length_b   7.60084382
_cell_length_c   10.74921642
_cell_angle_alpha   90.00000000
_cell_angle_beta   90.00000000
_cell_angle_gamma   90.00000000
_symmetry_Int_Tables_number   1
_chemical_formula_structural   Cr26Fe
_chemical_formula_sum   'Cr52 Fe2'
_cell_volume   621.01261814
_cell_formula_units_Z   2
loop_
 _symmetry_equiv_pos_site_id
 _symmetry_equiv_pos_as_xyz
  1  'x, y, z'
loop_
 _atom_site_type_symbol
 _atom_site_label
 _atom_site_symmetry_multiplicity
 _atom_site_fract_x
 _atom_site_fract_y
 _atom_site_fract_z
 _atom_site_occupancy
  Cr  Cr0  1  0.99116920  0.99116920  -0.00847554  1
  Cr  Cr1  1  0.15848172  0.15848172  0.15725867  1
  Cr  Cr2  1  -0.00877202  -0.00877202  0.32420606  1
  Cr  Cr3  1  -0.00857134  0.32485933  -0.00847546  1
  Cr  Cr4  1  0.15848340  0.49019341  0.15685162  1
  Cr  Cr5  1  0.99051084  0.32482947  0.32492669  1
  Cr  Cr6  1  -0.00811365  0.65756772  0.99080383  1
  Cr  Cr7  1  0.15747833  0.82491886  0.15786526  1
  Cr  Cr8  1  0.99096853  0.65753786  0.32420598  1
  Cr  Cr9  1  0.32485933  -0.00857134  -0.00847546  1
  Cr  Cr10  1  0.49019341  0.15848340  0.15685162  1
  Cr  Cr11  1  0.32482947  0.99051084  0.32492669  1
  Fe  Fe12  1  0.32453894  0.32453894  -0.00879590  1
  Cr  Cr13  1  0.49119859  0.49119859  0.15786526  1
  Cr  Cr14  1  0.32482936  0.32482936  0.32423001  1
  Cr  Cr15  1  0.32414188  0.65730029  0.99080393  1
  Cr  Cr16  1  0.49220378  0.82391379  0.15887891  1
  Cr  Cr17  1  0.32509690  0.65825531  0.32492659  1
  Cr  Cr18  1  0.65756772  -0.00811365  0.99080383  1
  Cr  Cr19  1  0.82491886  0.15747833  0.15786526  1
  Cr  Cr20  1  0.65753786  0.99096853  0.32420598  1
  Cr  Cr21  1  0.65730029  0.32414188  0.99080393  1
  Cr  Cr22  1  0.82391379  0.49220378  0.15887891  1
  Cr  Cr23  1  0.65825531  0.32509690  0.32492659  1
  Cr  Cr24  1  0.65756783  0.65756783  -0.00849949  1
  Cr  Cr25  1  0.82391547  0.82391547  0.15847185  1
  Fe  Fe26  1  0.65785825  0.65785825  0.32452642  1
  Cr  Cr27  1  0.15786931  0.15786931  0.49119000  1
  Cr  Cr28  1  0.99119859  0.99119859  0.65786526  1
  Cr  Cr29  1  0.15847835  0.15847835  0.82514387  1
  Cr  Cr30  1  0.15786919  0.49080781  0.49159518  1
  Cr  Cr31  1  0.99048113  0.32485957  0.65714472  1
  Cr  Cr32  1  0.15848026  0.49056751  0.82514553  1
  Cr  Cr33  1  0.15784868  0.82491868  0.49159517  1
  Cr  Cr34  1  -0.00808394  0.65753762  0.65858581  1
  Cr  Cr35  1  0.15747851  0.82454851  0.82413535  1
  Cr  Cr36  1  0.49080781  0.15786919  0.49159518  1
  Cr  Cr37  1  0.32485957  0.99048113  0.65714472  1
  Cr  Cr38  1  0.49056751  0.15848026  0.82514553  1
  Cr  Cr39  1  0.49181096  0.49181096  0.49058338  1
  Cr  Cr40  1  0.32485939  0.32485939  0.65784195  1
  Cr  Cr41  1  0.49058623  0.49058623  0.82514714  1
  Cr  Cr42  1  0.49182968  0.82391693  0.49058499  1
  Cr  Cr43  1  0.32414173  0.65825546  0.65786526  1
  Cr  Cr44  1  0.49158938  0.82452800  0.82413535  1
  Cr  Cr45  1  0.82491868  0.15784868  0.49159517  1
  Cr  Cr46  1  0.65753762  -0.00808394  0.65858581  1
  Cr  Cr47  1  0.82454851  0.15747851  0.82413535  1
  Cr  Cr48  1  0.82391693  0.49182968  0.49058499  1
  Cr  Cr49  1  0.65825546  0.32414173  0.65786526  1
  Cr  Cr50  1  0.82452800  0.49158938  0.82413535  1
  Cr  Cr51  1  0.82391884  0.82391884  0.49058666  1
  Cr  Cr52  1  0.65753779  0.65753779  0.65788857  1
  Cr  Cr53  1  0.82452788  0.82452788  0.82454052  1
" 