1955,Fe98Cr2_3,-200.950915139268, 212.483457473372,Fe98Cr2,"# generated using pymatgen
 data_Cr26Fe
_symmetry_space_group_name_H-M   'P 1'
_cell_length_a   7.60084382
_cell_length_b   7.60084382
_cell_length_c   10.74921642
_cell_angle_alpha   90.00000000
_cell_angle_beta   90.00000000
_cell_angle_gamma   90.00000000
_symmetry_Int_Tables_number   1
_chemical_formula_structural   Cr26Fe
_chemical_formula_sum   'Cr52 Fe2'
_cell_volume   621.01261814
_cell_formula_units_Z   2
loop_
 _symmetry_equiv_pos_site_id
 _symmetry_equiv_pos_as_xyz
  1  'x, y, z'
loop_
 _atom_site_type_symbol
 _atom_site_label
 _atom_site_symmetry_multiplicity
 _atom_site_fract_x
 _atom_site_fract_y
 _atom_site_fract_z
 _atom_site_occupancy
  Cr  Cr0  1  -0.00850397  -0.00850397  -0.00849949  1
  Cr  Cr1  1  0.15786526  0.15786526  0.15786526  1
  Fe  Fe2  1  -0.00879439  -0.00879439  0.32452642  1
  Cr  Cr3  1  -0.00823644  0.32492198  0.99080393  1
  Cr  Cr4  1  0.15887045  0.49058045  0.15685162  1
  Cr  Cr5  1  0.99080854  0.32396696  0.32492659  1
  Cr  Cr6  1  -0.00850386  0.65717750  0.99080383  1
  Cr  Cr7  1  0.15686008  0.82515007  0.15887891  1
  Cr  Cr8  1  -0.00847400  0.65809533  0.32420598  1
  Cr  Cr9  1  0.32492198  -0.00823644  0.99080393  1
  Cr  Cr10  1  0.49058045  0.15887045  0.15685162  1
  Cr  Cr11  1  0.32396696  0.99080854  0.32492659  1
  Fe  Fe12  1  0.32452491  0.32452491  -0.00879590  1
  Cr  Cr13  1  0.49058213  0.49058213  0.15725867  1
  Cr  Cr14  1  0.32423450  0.32423450  0.32423001  1
  Cr  Cr15  1  0.32420452  0.65763520  -0.00847546  1
  Cr  Cr16  1  0.49158553  0.82414499  0.15786526  1
  Cr  Cr17  1  0.32423438  0.65855302  0.32492669  1
  Cr  Cr18  1  0.65717750  -0.00850386  0.99080383  1
  Cr  Cr19  1  0.82515007  0.15686008  0.15887891  1
  Cr  Cr20  1  0.65809533  -0.00847400  0.32420598  1
  Cr  Cr21  1  0.65763520  0.32420452  -0.00847546  1
  Cr  Cr22  1  0.82414499  0.49158553  0.15786526  1
  Cr  Cr23  1  0.65855302  0.32423438  0.32492669  1
  Cr  Cr24  1  0.65789465  0.65789465  -0.00847554  1
  Cr  Cr25  1  0.82514839  0.82514839  0.15847185  1
  Cr  Cr26  1  0.65783587  0.65783587  0.32420606  1
  Cr  Cr27  1  0.15725290  0.15725290  0.49058338  1
  Cr  Cr28  1  -0.00847394  -0.00847394  0.65788857  1
  Cr  Cr29  1  0.15847762  0.15847762  0.82514714  1
  Cr  Cr30  1  0.15825605  0.49119467  0.49159518  1
  Cr  Cr31  1  0.99080840  0.32492212  0.65786526  1
  Cr  Cr32  1  0.15849635  0.49058360  0.82514553  1
  Cr  Cr33  1  0.15723417  0.82514693  0.49058499  1
  Cr  Cr34  1  -0.00847376  0.65714780  0.65858581  1
  Cr  Cr35  1  0.15747448  0.82453586  0.82413535  1
  Cr  Cr36  1  0.49119467  0.15825605  0.49159518  1
  Cr  Cr37  1  0.32492212  0.99080840  0.65786526  1
  Cr  Cr38  1  0.49058360  0.15849635  0.82514553  1
  Cr  Cr39  1  0.49119455  0.49119455  0.49119000  1
  Cr  Cr40  1  0.32420446  0.32420446  0.65784195  1
  Cr  Cr41  1  0.49058551  0.49058551  0.82514387  1
  Cr  Cr42  1  0.49121518  0.82414518  0.49159517  1
  Cr  Cr43  1  0.32420429  0.65858273  0.65714472  1
  Cr  Cr44  1  0.49158534  0.82451534  0.82413535  1
  Cr  Cr45  1  0.82514693  0.15723417  0.49058499  1
  Cr  Cr46  1  0.65714780  -0.00847376  0.65858581  1
  Cr  Cr47  1  0.82453586  0.15747448  0.82413535  1
  Cr  Cr48  1  0.82414518  0.49121518  0.49159517  1
  Cr  Cr49  1  0.65858273  0.32420429  0.65714472  1
  Cr  Cr50  1  0.82451534  0.49158534  0.82413535  1
  Cr  Cr51  1  0.82514502  0.82514502  0.49058666  1
  Cr  Cr52  1  0.65786526  0.65786526  0.65786526  1
  Cr  Cr53  1  0.82453598  0.82453598  0.82454052  1
" 