299,Fe98Cr2_17,-200.939188420222, 212.075374322284,Fe98Cr2,"# generated using pymatgen
 data_Cr26Fe
_symmetry_space_group_name_H-M   'P 1'
_cell_length_a   7.60096481
_cell_length_b   7.60096481
_cell_length_c   10.74938752
_cell_angle_alpha   90.00000000
_cell_angle_beta   90.00000000
_cell_angle_gamma   90.00000000
_symmetry_Int_Tables_number   1
_chemical_formula_structural   Cr26Fe
_chemical_formula_sum   'Cr52 Fe2'
_cell_volume   621.04227415
_cell_formula_units_Z   2
loop_
 _symmetry_equiv_pos_site_id
 _symmetry_equiv_pos_as_xyz
  1  'x, y, z'
loop_
 _atom_site_type_symbol
 _atom_site_label
 _atom_site_symmetry_multiplicity
 _atom_site_fract_x
 _atom_site_fract_y
 _atom_site_fract_z
 _atom_site_occupancy
  Cr  Cr0  1  0.99051782  -0.00880922  0.99052007  1
  Cr  Cr1  1  0.15785744  0.15784398  0.15785744  1
  Cr  Cr2  1  0.99051782  -0.00880922  0.32519482  1
  Cr  Cr3  1  -0.00874157  0.32486021  -0.00873733  1
  Cr  Cr4  1  0.15785744  0.49119078  0.15785744  1
  Cr  Cr5  1  -0.00874157  0.32486021  0.32445222  1
  Cr  Cr6  1  -0.00874157  0.65752134  -0.00873733  1
  Cr  Cr7  1  0.15785744  0.82453757  0.15785744  1
  Cr  Cr8  1  -0.00874157  0.65752134  0.32445222  1
  Cr  Cr9  1  0.32519706  -0.00880922  0.99052007  1
  Cr  Cr10  1  0.49118071  0.15786113  0.15785744  1
  Cr  Cr11  1  0.32519706  -0.00880922  0.32519482  1
  Cr  Cr12  1  0.32445645  0.32486021  -0.00873733  1
  Cr  Cr13  1  0.49119807  0.49119078  0.15785744  1
  Cr  Cr14  1  0.32445645  0.32486021  0.32445222  1
  Cr  Cr15  1  0.32445645  0.65752134  -0.00873733  1
  Cr  Cr16  1  0.49118071  0.82452043  0.15785744  1
  Cr  Cr17  1  0.32445645  0.65752134  0.32445222  1
  Cr  Cr18  1  0.65785744  0.99119078  -0.00799529  1
  Cr  Cr19  1  0.82453418  0.15786113  0.15785744  1
  Cr  Cr20  1  0.65785744  0.99119078  0.32371018  1
  Cr  Cr21  1  0.65785744  0.32412013  -0.00871294  1
  Cr  Cr22  1  0.82451682  0.49119078  0.15785744  1
  Cr  Cr23  1  0.65785744  0.32412013  0.32442783  1
  Cr  Cr24  1  0.65785744  0.65826142  -0.00871294  1
  Cr  Cr25  1  0.82453418  0.82452043  0.15785744  1
  Cr  Cr26  1  0.65785744  0.65826142  0.32442783  1
  Cr  Cr27  1  0.15785744  0.15745721  0.49078947  1
  Cr  Cr28  1  0.99057733  0.99119078  0.65785744  1
  Cr  Cr29  1  0.15785744  0.15745721  0.82492542  1
  Cr  Cr30  1  0.15785744  0.49119078  0.49037279  1
  Cr  Cr31  1  0.99031008  0.32483066  0.65785744  1
  Cr  Cr32  1  0.15785744  0.49119078  0.82534210  1
  Cr  Cr33  1  0.15785744  0.82492434  0.49078947  1
  Cr  Cr34  1  0.99031008  0.65755090  0.65785744  1
  Cr  Cr35  1  0.15785744  0.82492434  0.82492542  1
  Cr  Cr36  1  0.49142005  0.15848664  0.49141037  1
  Cr  Cr37  1  0.32513756  0.99119078  0.65785744  1
  Cr  Cr38  1  0.49142005  0.15848664  0.82430451  1
  Cr  Cr39  1  0.49245073  0.49119078  0.49244895  1
  Cr  Cr40  1  0.32540481  0.32483066  0.65785744  1
  Cr  Cr41  1  0.49245073  0.49119078  0.82326594  1
  Cr  Cr42  1  0.49142005  0.82389491  0.49141037  1
  Cr  Cr43  1  0.32540481  0.65755090  0.65785744  1
  Cr  Cr44  1  0.49142005  0.82389491  0.82430451  1
  Cr  Cr45  1  0.82429484  0.15848664  0.49141037  1
  Cr  Cr46  1  0.65785744  0.99119078  0.65785744  1
  Cr  Cr47  1  0.82429484  0.15848664  0.82430451  1
  Cr  Cr48  1  0.82326416  0.49119078  0.49244895  1
  Fe  Fe49  1  0.65785744  0.32511739  0.65785744  1
  Cr  Cr50  1  0.82326416  0.49119078  0.82326594  1
  Cr  Cr51  1  0.82429484  0.82389491  0.49141037  1
  Fe  Fe52  1  0.65785744  0.65726416  0.65785744  1
  Cr  Cr53  1  0.82429484  0.82389491  0.82430451  1
" 