5237,Fe98Cr2_0,-200.959434954008, 211.931398243345,Fe98Cr2,"# generated using pymatgen
 data_Cr26Fe
_symmetry_space_group_name_H-M   'P 1'
_cell_length_a   7.60046746
_cell_length_b   7.60046746
_cell_length_c   10.74868416
_cell_angle_alpha   90.00000000
_cell_angle_beta   90.00000000
_cell_angle_gamma   90.00000000
_symmetry_Int_Tables_number   1
_chemical_formula_structural   Cr26Fe
_chemical_formula_sum   'Cr52 Fe2'
_cell_volume   620.92037319
_cell_formula_units_Z   2
loop_
 _symmetry_equiv_pos_site_id
 _symmetry_equiv_pos_as_xyz
  1  'x, y, z'
loop_
 _atom_site_type_symbol
 _atom_site_label
 _atom_site_symmetry_multiplicity
 _atom_site_fract_x
 _atom_site_fract_y
 _atom_site_fract_z
 _atom_site_occupancy
  Cr  Cr0  1  0.99091278  -0.00845402  -0.00845505  1
  Cr  Cr1  1  0.15756700  0.15782795  0.15781881  1
  Cr  Cr2  1  -0.00868670  -0.00848295  0.32416336  1
  Cr  Cr3  1  -0.00839250  0.32455961  0.99083193  1
  Cr  Cr4  1  0.15827787  0.49160752  0.15710565  1
  Cr  Cr5  1  0.99006057  0.32516283  0.32516221  1
  Cr  Cr6  1  0.99089643  0.65756309  -0.00845501  1
  Cr  Cr7  1  0.15756656  0.82423322  0.15821899  1
  Cr  Cr8  1  0.99032313  0.65698980  0.32516107  1
  Cr  Cr9  1  0.32487906  -0.00845428  -0.00845517  1
  Cr  Cr10  1  0.49214956  0.15881623  0.15881440  1
  Cr  Cr11  1  0.32485085  -0.00848249  0.32456354  1
  Cr  Cr12  1  0.32416836  0.32454343  0.99083206  1
  Cr  Cr13  1  0.49143832  0.49061930  0.15810126  1
  Cr  Cr14  1  0.32510489  0.32417164  0.32416349  1
  Cr  Cr15  1  0.32487932  0.65757945  -0.00845505  1
  Cr  Cr16  1  0.49116128  0.82423367  0.15781881  1
  Cr  Cr17  1  0.32485038  0.65797997  0.32416336  1
  Cr  Cr18  1  0.65787677  0.99083502  0.99083206  1
  Cr  Cr19  1  0.82395263  0.15810498  0.15810126  1
  Cr  Cr20  1  0.65750497  -0.00822844  0.32416349  1
  Cr  Cr21  1  0.65789303  0.32455969  -0.00847863  1
  Cr  Cr22  1  0.82395057  0.49061724  0.15879237  1
  Fe  Fe23  1  0.65819076  0.32485743  0.32485646  1
  Cr  Cr24  1  0.65789295  0.65827417  0.99083193  1
  Cr  Cr25  1  0.82494086  0.82494453  0.15710565  1
  Cr  Cr26  1  0.65849616  0.65672723  0.32516221  1
  Cr  Cr27  1  0.15759546  0.15779920  0.49161581  1
  Cr  Cr28  1  -0.00871544  -0.00845450  0.65796036  1
  Cr  Cr29  1  0.15756652  0.15819972  0.82423422  1
  Cr  Cr30  1  0.15734094  0.49160753  0.49161568  1
  Cr  Cr31  1  0.99100752  0.32515987  0.65767791  1
  Cr  Cr32  1  0.15827748  0.49123574  0.82494711  1
  Cr  Cr33  1  0.15759499  0.82426165  0.49121563  1
  Cr  Cr34  1  0.99029627  0.65696294  0.65696477  1
  Cr  Cr35  1  0.15756678  0.82423345  0.82423433  1
  Cr  Cr36  1  0.49212270  0.15878937  0.49061810  1
  Cr  Cr37  1  0.32487928  -0.00845406  0.65756018  1
  Cr  Cr38  1  0.49154941  0.15821608  0.82423418  1
  Cr  Cr39  1  0.49238527  0.49061634  0.49061696  1
  Cr  Cr40  1  0.32416797  0.32417164  0.65867352  1
  Cr  Cr41  1  0.49083833  0.49121956  0.82494724  1
  Cr  Cr42  1  0.49113254  0.82426212  0.49161581  1
  Cr  Cr43  1  0.32487884  0.65795122  0.65796036  1
  Cr  Cr44  1  0.49153306  0.82423318  0.82423422  1
  Cr  Cr45  1  0.82394967  0.15905194  0.49061696  1
  Cr  Cr46  1  0.65750498  0.99083464  0.65867352  1
  Cr  Cr47  1  0.82455289  0.15750500  0.82494724  1
  Fe  Fe48  1  0.82425508  0.49092174  0.49092271  1
  Cr  Cr49  1  0.65849527  0.32516193  0.65698680  1
  Cr  Cr50  1  0.82455281  0.49121948  0.82425780  1
  Cr  Cr51  1  0.82494087  0.82400761  0.49161568  1
  Cr  Cr52  1  0.65849321  0.65767419  0.65767791  1
  Cr  Cr53  1  0.82456907  0.82494415  0.82494711  1
" 