6540,Fe98Cr2_12,-200.959434954009, 211.931398242695,Fe98Cr2,"# generated using pymatgen
 data_Cr26Fe
_symmetry_space_group_name_H-M   'P 1'
_cell_length_a   7.60046746
_cell_length_b   7.60046746
_cell_length_c   10.74868416
_cell_angle_alpha   90.00000000
_cell_angle_beta   90.00000000
_cell_angle_gamma   90.00000000
_symmetry_Int_Tables_number   1
_chemical_formula_structural   Cr26Fe
_chemical_formula_sum   'Cr52 Fe2'
_cell_volume   620.92037319
_cell_formula_units_Z   2
loop_
 _symmetry_equiv_pos_site_id
 _symmetry_equiv_pos_as_xyz
  1  'x, y, z'
loop_
 _atom_site_type_symbol
 _atom_site_label
 _atom_site_symmetry_multiplicity
 _atom_site_fract_x
 _atom_site_fract_y
 _atom_site_fract_z
 _atom_site_occupancy
  Cr  Cr0  1  0.99061634  0.99006057  0.99061696  1
  Cr  Cr1  1  0.15795122  0.15756700  0.15796036  1
  Cr  Cr2  1  0.99121956  -0.00839250  0.32494724  1
  Cr  Cr3  1  -0.00839247  0.32510489  -0.00838432  1
  Cr  Cr4  1  0.15696294  0.49214956  0.15696477  1
  Cr  Cr5  1  -0.00876426  0.32416836  0.32494711  1
  Fe  Fe6  1  0.99092174  0.65819076  0.99092271  1
  Cr  Cr7  1  0.15767419  0.82395263  0.15767791  1
  Cr  Cr8  1  0.99121948  0.65789303  0.32425780  1
  Cr  Cr9  1  0.32426212  -0.00868670  -0.00838419  1
  Cr  Cr10  1  0.49154594  0.15756656  0.15756018  1
  Cr  Cr11  1  0.32423318  0.99091278  0.32423422  1
  Cr  Cr12  1  0.32426165  0.32485085  0.99121563  1
  Cr  Cr13  1  0.49154550  0.49116128  0.15796036  1
  Cr  Cr14  1  0.32423345  0.32487906  0.32423433  1
  Cr  Cr15  1  0.32400761  0.65750497  -0.00838432  1
  Cr  Cr16  1  0.49083464  0.82494086  0.15867352  1
  Cr  Cr17  1  0.32494415  0.65787677  0.32494711  1
  Cr  Cr18  1  0.65878937  0.99032313  0.99061810  1
  Cr  Cr19  1  0.82417164  0.15827787  0.15867352  1
  Cr  Cr20  1  0.65821608  0.99089643  0.32423418  1
  Cr  Cr21  1  0.65779920  0.32485038  -0.00838419  1
  Cr  Cr22  1  0.82515987  0.49143832  0.15767791  1
  Cr  Cr23  1  0.65819972  0.32487932  0.32423422  1
  Cr  Cr24  1  0.65905194  0.65849616  0.99061696  1
  Cr  Cr25  1  0.82516193  0.82395057  0.15698680  1
  Cr  Cr26  1  0.65750500  0.65789295  0.32494724  1
  Cr  Cr27  1  0.15757945  0.15756652  0.49154495  1
  Cr  Cr28  1  0.99061930  0.99100752  0.65810126  1
  Cr  Cr29  1  0.15797997  0.15759546  0.82416336  1
  Cr  Cr30  1  0.15756309  0.49154941  0.49154499  1
  Cr  Cr31  1  -0.00839248  0.32416797  0.65710565  1
  Cr  Cr32  1  0.15698980  0.49212270  0.82516107  1
  Cr  Cr33  1  0.15827417  0.82455289  0.49083193  1
  Cr  Cr34  1  0.99061724  0.65849527  0.65879237  1
  Cr  Cr35  1  0.15672723  0.82394967  0.82516221  1
  Cr  Cr36  1  0.49154572  0.15756678  0.49154483  1
  Cr  Cr37  1  0.32423367  -0.00871544  0.65781881  1
  Cr  Cr38  1  0.49151751  0.15759499  0.82456354  1
  Cr  Cr39  1  0.49154598  0.49153306  0.49154495  1
  Cr  Cr40  1  0.32423322  0.32487928  0.65821899  1
  Cr  Cr41  1  0.49151705  0.49113254  0.82416336  1
  Cr  Cr42  1  0.49083502  0.82456907  0.49083206  1
  Cr  Cr43  1  0.32494453  0.65750498  0.65710565  1
  Cr  Cr44  1  0.49177156  0.82494087  0.82416349  1
  Cr  Cr45  1  0.82454343  0.15827748  0.49083206  1
  Cr  Cr46  1  0.65881623  0.99029627  0.65881440  1
  Cr  Cr47  1  0.82417164  0.15734094  0.82416349  1
  Cr  Cr48  1  0.82455961  0.49083833  0.49083193  1
  Cr  Cr49  1  0.65782795  0.32487884  0.65781881  1
  Cr  Cr50  1  0.82516283  0.49238527  0.82516221  1
  Cr  Cr51  1  0.82455969  0.82455281  0.49152137  1
  Cr  Cr52  1  0.65810498  0.65849321  0.65810126  1
  Fe  Fe53  1  0.82485743  0.82425508  0.82485646  1
" 