3050,Fe98Cr2_7,-200.944797874197, 211.594551502153,Fe98Cr2,"# generated using pymatgen
 data_Cr26Fe
_symmetry_space_group_name_H-M   'P 1'
_cell_length_a   7.59947931
_cell_length_b   7.59947931
_cell_length_c   10.74728670
_cell_angle_alpha   90.00000000
_cell_angle_beta   90.00000000
_cell_angle_gamma   90.00000000
_symmetry_Int_Tables_number   1
_chemical_formula_structural   Cr26Fe
_chemical_formula_sum   'Cr52 Fe2'
_cell_volume   620.67822311
_cell_formula_units_Z   2
loop_
 _symmetry_equiv_pos_site_id
 _symmetry_equiv_pos_as_xyz
  1  'x, y, z'
loop_
 _atom_site_type_symbol
 _atom_site_label
 _atom_site_symmetry_multiplicity
 _atom_site_fract_x
 _atom_site_fract_y
 _atom_site_fract_z
 _atom_site_occupancy
  Cr  Cr0  1  0.99103641  0.99103641  0.99103641  1
  Cr  Cr1  1  0.15820384  0.15820384  0.15820384  1
  Cr  Cr2  1  -0.00845862  -0.00845862  0.32462012  1
  Cr  Cr3  1  0.99128362  0.32462012  -0.00871162  1
  Cr  Cr4  1  0.15820384  0.49103641  0.15820384  1
  Cr  Cr5  1  -0.00821244  0.32462012  0.32462012  1
  Cr  Cr6  1  0.99103641  0.65820384  0.99103641  1
  Cr  Cr7  1  0.15795663  0.82462012  0.15795187  1
  Cr  Cr8  1  -0.00845862  0.65769887  0.32462012  1
  Cr  Cr9  1  0.32462012  0.99128362  -0.00871162  1
  Cr  Cr10  1  0.49103641  0.15820384  0.15820384  1
  Cr  Cr11  1  0.32462012  -0.00821244  0.32462012  1
  Cr  Cr12  1  0.32462012  0.32462012  -0.00845862  1
  Cr  Cr13  1  0.49103641  0.49103641  0.15820384  1
  Fe  Fe14  1  0.32462012  0.32462012  0.32462012  1
  Cr  Cr15  1  0.32462012  0.65795663  -0.00871162  1
  Cr  Cr16  1  0.49128362  0.82462012  0.15795187  1
  Cr  Cr17  1  0.32462012  0.65745269  0.32462012  1
  Cr  Cr18  1  0.65820384  0.99103641  0.99103641  1
  Cr  Cr19  1  0.82462012  0.15795663  0.15795187  1
  Cr  Cr20  1  0.65769887  -0.00845862  0.32462012  1
  Cr  Cr21  1  0.65795663  0.32462012  -0.00871162  1
  Cr  Cr22  1  0.82462012  0.49128362  0.15795187  1
  Cr  Cr23  1  0.65745269  0.32462012  0.32462012  1
  Cr  Cr24  1  0.65820384  0.65820384  0.99103641  1
  Cr  Cr25  1  0.82462012  0.82462012  0.15769887  1
  Cr  Cr26  1  0.65769887  0.65769887  0.32462012  1
  Cr  Cr27  1  0.15820384  0.15820384  0.49103641  1
  Cr  Cr28  1  0.99103641  0.99103641  0.65820384  1
  Cr  Cr29  1  0.15769887  0.15769887  0.82462012  1
  Cr  Cr30  1  0.15820384  0.49103641  0.49103641  1
  Cr  Cr31  1  0.99128362  0.32462012  0.65795187  1
  Cr  Cr32  1  0.15769887  0.49154138  0.82462012  1
  Cr  Cr33  1  0.15795663  0.82462012  0.49128838  1
  Cr  Cr34  1  0.99103641  0.65820384  0.65820384  1
  Cr  Cr35  1  0.15745269  0.82462012  0.82462012  1
  Cr  Cr36  1  0.49103641  0.15820384  0.49103641  1
  Cr  Cr37  1  0.32462012  0.99128362  0.65795187  1
  Cr  Cr38  1  0.49154138  0.15769887  0.82462012  1
  Cr  Cr39  1  0.49103641  0.49103641  0.49103641  1
  Cr  Cr40  1  0.32462012  0.32462012  0.65769887  1
  Cr  Cr41  1  0.49154138  0.49154138  0.82462012  1
  Cr  Cr42  1  0.49128362  0.82462012  0.49128838  1
  Cr  Cr43  1  0.32462012  0.65795663  0.65795187  1
  Cr  Cr44  1  0.49178756  0.82462012  0.82462012  1
  Cr  Cr45  1  0.82462012  0.15795663  0.49128838  1
  Cr  Cr46  1  0.65820384  0.99103641  0.65820384  1
  Cr  Cr47  1  0.82462012  0.15745269  0.82462012  1
  Cr  Cr48  1  0.82462012  0.49128362  0.49128838  1
  Cr  Cr49  1  0.65795663  0.32462012  0.65795187  1
  Cr  Cr50  1  0.82462012  0.49178756  0.82462012  1
  Cr  Cr51  1  0.82462012  0.82462012  0.49154138  1
  Cr  Cr52  1  0.65820384  0.65820384  0.65820384  1
  Fe  Fe53  1  0.82462012  0.82462012  0.82462012  1
" 