607,Fe98Cr2_14,-200.950915139268, 212.483457476667,Fe98Cr2,"# generated using pymatgen
 data_Cr26Fe
_symmetry_space_group_name_H-M   'P 1'
_cell_length_a   7.60084382
_cell_length_b   7.60084382
_cell_length_c   10.74921642
_cell_angle_alpha   90.00000000
_cell_angle_beta   90.00000000
_cell_angle_gamma   90.00000000
_symmetry_Int_Tables_number   1
_chemical_formula_structural   Cr26Fe
_chemical_formula_sum   'Cr52 Fe2'
_cell_volume   621.01261814
_cell_formula_units_Z   2
loop_
 _symmetry_equiv_pos_site_id
 _symmetry_equiv_pos_as_xyz
  1  'x, y, z'
loop_
 _atom_site_type_symbol
 _atom_site_label
 _atom_site_symmetry_multiplicity
 _atom_site_fract_x
 _atom_site_fract_y
 _atom_site_fract_z
 _atom_site_occupancy
  Cr  Cr0  1  0.99058623  -0.00818904  0.99058338  1
  Cr  Cr1  1  0.15825546  0.15825546  0.15786526  1
  Cr  Cr2  1  -0.00818904  0.99058623  0.32514714  1
  Cr  Cr3  1  0.99056751  0.32391693  0.99058499  1
  Cr  Cr4  1  0.15753762  0.49048113  0.15714472  1
  Cr  Cr5  1  0.99080781  0.32452800  0.32413535  1
  Cr  Cr6  1  -0.00841062  0.65786919  -0.00840482  1
  Cr  Cr7  1  0.15753779  0.82485939  0.15784195  1
  Cr  Cr8  1  -0.00817032  0.65848026  0.32514553  1
  Cr  Cr9  1  0.32452800  0.99080781  -0.00840482  1
  Cr  Cr10  1  0.49048113  0.15753762  0.15858581  1
  Cr  Cr11  1  0.32391693  0.99056751  0.32514553  1
  Cr  Cr12  1  0.32454851  0.32491868  -0.00840483  1
  Cr  Cr13  1  0.49119859  0.49119859  0.15786526  1
  Cr  Cr14  1  0.32491868  0.32454851  0.32413535  1
  Cr  Cr15  1  0.32452788  0.65786931  0.99119000  1
  Cr  Cr16  1  0.49191606  0.82485957  0.15714472  1
  Cr  Cr17  1  0.32391884  0.65847835  0.32514387  1
  Cr  Cr18  1  0.65848026  -0.00817032  0.99058499  1
  Cr  Cr19  1  0.82485939  0.15753779  0.15788857  1
  Cr  Cr20  1  0.65786919  -0.00841062  0.32413535  1
  Cr  Cr21  1  0.65847835  0.32391884  0.99058666  1
  Cr  Cr22  1  0.82485957  0.49191606  0.15858581  1
  Cr  Cr23  1  0.65786931  0.32452788  0.32454052  1
  Cr  Cr24  1  0.65747851  0.65784868  -0.00840483  1
  Cr  Cr25  1  0.82414173  0.82414173  0.15786526  1
  Cr  Cr26  1  0.65784868  0.65747851  0.32413535  1
  Cr  Cr27  1  0.15825531  0.15730029  0.49080393  1
  Cr  Cr28  1  0.99119859  0.99119859  0.65786526  1
  Cr  Cr29  1  0.15730029  0.15825531  0.82492659  1
  Cr  Cr30  1  0.15753786  0.49142866  0.49152454  1
  Cr  Cr31  1  0.99019341  0.32391379  0.65887891  1
  Cr  Cr32  1  0.15756772  0.49051084  0.82492669  1
  Fe  Fe33  1  0.15785825  0.82453894  0.49120410  1
  Cr  Cr34  1  -0.00779622  0.65848340  0.65685162  1
  Cr  Cr35  1  0.15756783  0.82482936  0.82423001  1
  Cr  Cr36  1  0.49051084  0.15756772  0.49080383  1
  Cr  Cr37  1  0.32391379  0.99019341  0.65685162  1
  Cr  Cr38  1  0.49142866  0.15753786  0.82420598  1
  Cr  Cr39  1  0.49122798  0.49116920  0.49152446  1
  Cr  Cr40  1  0.32491886  0.32491886  0.65786526  1
  Cr  Cr41  1  0.49116920  0.49122798  0.82420606  1
  Cr  Cr42  1  0.49096853  0.82485933  0.49152454  1
  Cr  Cr43  1  0.32391547  0.65848172  0.65725867  1
  Cr  Cr44  1  0.49188635  0.82482947  0.82492669  1
  Cr  Cr45  1  0.82482936  0.15756783  0.49150051  1
  Cr  Cr46  1  0.65848340  -0.00779622  0.65887891  1
  Fe  Fe47  1  0.82453894  0.15785825  0.82452642  1
  Cr  Cr48  1  0.82482947  0.49188635  0.49080383  1
  Cr  Cr49  1  0.65848172  0.32391547  0.65847185  1
  Cr  Cr50  1  0.82485933  0.49096853  0.82420598  1
  Cr  Cr51  1  0.82509690  0.82414188  0.49080393  1
  Cr  Cr52  1  0.65747833  0.65747833  0.65786526  1
  Cr  Cr53  1  0.82414188  0.82509690  0.82492659  1
" 