354,Fe98Cr2_6,-200.918912052647, 212.333644276161,Fe98Cr2,"# generated using pymatgen
 data_Cr26Fe
_symmetry_space_group_name_H-M   'P 1'
_cell_length_a   7.59813193
_cell_length_b   7.59813193
_cell_length_c   10.74538122
_cell_angle_alpha   90.00000000
_cell_angle_beta   90.00000000
_cell_angle_gamma   90.00000000
_symmetry_Int_Tables_number   1
_chemical_formula_structural   Cr26Fe
_chemical_formula_sum   'Cr52 Fe2'
_cell_volume   620.34814516
_cell_formula_units_Z   2
loop_
 _symmetry_equiv_pos_site_id
 _symmetry_equiv_pos_as_xyz
  1  'x, y, z'
loop_
 _atom_site_type_symbol
 _atom_site_label
 _atom_site_symmetry_multiplicity
 _atom_site_fract_x
 _atom_site_fract_y
 _atom_site_fract_z
 _atom_site_occupancy
  Cr  Cr0  1  0.99100325  0.98986914  -0.00727643  1
  Cr  Cr1  1  0.15747962  0.15771084  0.15757328  1
  Cr  Cr2  1  0.99090215  0.99022775  0.32396362  1
  Cr  Cr3  1  -0.00782571  0.32527525  -0.00860661  1
  Cr  Cr4  1  0.15851234  0.49252008  0.15878420  1
  Cr  Cr5  1  -0.00806513  0.32503698  0.32517454  1
  Cr  Cr6  1  0.99028732  0.65891038  -0.00829616  1
  Cr  Cr7  1  0.15878044  0.82396757  0.15870647  1
  Cr  Cr8  1  0.99063405  0.65878025  0.32404136  1
  Cr  Cr9  1  0.32470724  -0.00817718  0.99044777  1
  Cr  Cr10  1  0.49193487  0.15771084  0.15757328  1
  Cr  Cr11  1  0.32470724  -0.00829808  0.32517743  1
  Cr  Cr12  1  0.32470724  0.32448849  0.99108806  1
  Cr  Cr13  1  0.49090215  0.49252008  0.15878420  1
  Cr  Cr14  1  0.32470724  0.32486924  0.32452916  1
  Cr  Cr15  1  0.32470724  0.65780165  0.99135530  1
  Cr  Cr16  1  0.49063405  0.82396757  0.15870647  1
  Fe  Fe17  1  0.32470724  0.65834323  0.32459581  1
  Cr  Cr18  1  0.65841124  0.98986914  -0.00727643  1
  Cr  Cr19  1  0.82470724  0.15787858  0.15821866  1
  Cr  Cr20  1  0.65851234  0.99022775  0.32396362  1
  Cr  Cr21  1  0.65724020  0.32527525  -0.00860661  1
  Cr  Cr22  1  0.82470724  0.49104590  0.15757039  1
  Cr  Cr23  1  0.65747962  0.32503698  0.32517454  1
  Cr  Cr24  1  0.65912717  0.65891038  -0.00829616  1
  Fe  Fe25  1  0.82470724  0.82440459  0.15815201  1
  Cr  Cr26  1  0.65878044  0.65878025  0.32404136  1
  Cr  Cr27  1  0.15724020  0.15747257  0.49135444  1
  Cr  Cr28  1  -0.00814325  0.99071852  0.65755326  1
  Cr  Cr29  1  0.15695718  0.15747139  0.82519739  1
  Cr  Cr30  1  0.15841124  0.49287868  0.49002425  1
  Cr  Cr31  1  -0.00754269  0.32527643  0.65755044  1
  Cr  Cr32  1  0.15755773  0.49202930  0.82519456  1
  Cr  Cr33  1  0.15912717  0.82383744  0.49104398  1
  Cr  Cr34  1  0.99106147  0.65812920  0.65850784  1
  Cr  Cr35  1  0.15835302  0.82461862  0.82423998  1
  Cr  Cr36  1  0.49217429  0.15747257  0.49135444  1
  Cr  Cr37  1  0.32470724  -0.00789035  0.65850666  1
  Cr  Cr38  1  0.49245731  0.15747139  0.82519739  1
  Cr  Cr39  1  0.49100325  0.49287868  0.49002425  1
  Cr  Cr40  1  0.32470724  0.32447562  0.65851457  1
  Cr  Cr41  1  0.49185675  0.49202930  0.82519456  1
  Cr  Cr42  1  0.49028732  0.82383744  0.49104398  1
  Cr  Cr43  1  0.32470724  0.65753018  0.65762021  1
  Cr  Cr44  1  0.49106147  0.82461862  0.82423998  1
  Cr  Cr45  1  0.82470724  0.15825934  0.49165976  1
  Cr  Cr46  1  0.65755773  0.99071852  0.65755326  1
  Cr  Cr47  1  0.82470724  0.15827220  0.82423326  1
  Cr  Cr48  1  0.82470724  0.49092500  0.49230005  1
  Cr  Cr49  1  0.65695718  0.32527643  0.65755044  1
  Cr  Cr50  1  0.82470724  0.49063817  0.82424116  1
  Cr  Cr51  1  0.82470724  0.82494618  0.49139252  1
  Cr  Cr52  1  0.65835302  0.65812920  0.65850784  1
  Cr  Cr53  1  0.82470724  0.82521764  0.82512761  1
" 