3730,Fe98Cr2_4,-200.940339027535, 212.383248863861,Fe98Cr2,"# generated using pymatgen
 data_Cr26Fe
_symmetry_space_group_name_H-M   'P 1'
_cell_length_a   7.59986595
_cell_length_b   7.59986595
_cell_length_c   10.74783350
_cell_angle_alpha   90.00000000
_cell_angle_beta   90.00000000
_cell_angle_gamma   90.00000000
_symmetry_Int_Tables_number   1
_chemical_formula_structural   Cr26Fe
_chemical_formula_sum   'Cr52 Fe2'
_cell_volume   620.77296471
_cell_formula_units_Z   2
loop_
 _symmetry_equiv_pos_site_id
 _symmetry_equiv_pos_as_xyz
  1  'x, y, z'
loop_
 _atom_site_type_symbol
 _atom_site_label
 _atom_site_symmetry_multiplicity
 _atom_site_fract_x
 _atom_site_fract_y
 _atom_site_fract_z
 _atom_site_occupancy
  Cr  Cr0  1  -0.00870830  -0.00811250  0.99093520  1
  Cr  Cr1  1  0.15793236  0.15754334  0.15832628  1
  Cr  Cr2  1  0.99126180  -0.00808252  0.32459513  1
  Cr  Cr3  1  0.99029963  0.32459513  -0.00834225  1
  Cr  Cr4  1  0.15793236  0.49164692  0.15832628  1
  Cr  Cr5  1  0.99126180  0.32459513  0.32459513  1
  Cr  Cr6  1  -0.00870830  0.65730276  0.99093520  1
  Cr  Cr7  1  0.15791384  0.82459513  0.15792049  1
  Cr  Cr8  1  0.99126180  0.65727278  0.32459513  1
  Cr  Cr9  1  0.32489350  0.99116800  -0.00834228  1
  Cr  Cr10  1  0.49187700  0.15855105  0.15731081  1
  Cr  Cr11  1  0.32492306  0.99119748  0.32387249  1
  Cr  Cr12  1  0.32515686  0.32459513  0.99095921  1
  Cr  Cr13  1  0.49187700  0.49063922  0.15731081  1
  Cr  Cr14  1  0.32420289  0.32459513  0.32529282  1
  Cr  Cr15  1  0.32489350  0.65802226  -0.00834228  1
  Cr  Cr16  1  0.49088754  0.82459513  0.15832628  1
  Cr  Cr17  1  0.32492306  0.65799278  0.32387249  1
  Cr  Cr18  1  0.65760078  -0.00784432  0.99093539  1
  Cr  Cr19  1  0.82397447  0.15853468  0.15730879  1
  Cr  Cr20  1  0.65760053  0.99119748  0.32531777  1
  Fe  Fe21  1  0.65791422  0.32459513  0.99125032  1
  Cr  Cr22  1  0.82397447  0.49065558  0.15730879  1
  Cr  Cr23  1  0.65832071  0.32459513  0.32389744  1
  Cr  Cr24  1  0.65760078  0.65703458  0.99093539  1
  Cr  Cr25  1  0.82498409  0.82459513  0.15832644  1
  Cr  Cr26  1  0.65760053  0.65799278  0.32531777  1
  Cr  Cr27  1  0.15854913  0.15853468  0.49188147  1
  Cr  Cr28  1  0.99123189  -0.00811250  0.65825506  1
  Cr  Cr29  1  0.15854533  0.15815688  0.82358130  1
  Cr  Cr30  1  0.15854913  0.49065558  0.49188147  1
  Cr  Cr31  1  -0.00777603  0.32459513  0.65753251  1
  Cr  Cr32  1  0.15854533  0.49103338  0.82358130  1
  Cr  Cr33  1  0.15753950  0.82459513  0.49086382  1
  Cr  Cr34  1  0.99123189  0.65730276  0.65825506  1
  Cr  Cr35  1  0.15753980  0.82459513  0.82500101  1
  Cr  Cr36  1  0.49064659  0.15855105  0.49187945  1
  Cr  Cr37  1  0.32492281  -0.00784432  0.65825487  1
  Cr  Cr38  1  0.49126180  0.15915682  0.82459513  1
  Cr  Cr39  1  0.49064659  0.49063922  0.49187945  1
  Fe  Fe40  1  0.32460937  0.32459513  0.65793994  1
  Cr  Cr41  1  0.49126180  0.49003344  0.82459513  1
  Cr  Cr42  1  0.49163605  0.82459513  0.49086398  1
  Cr  Cr43  1  0.32492281  0.65703458  0.65825487  1
  Cr  Cr44  1  0.49126180  0.82459513  0.82459513  1
  Cr  Cr45  1  0.82459123  0.15754334  0.49086398  1
  Cr  Cr46  1  0.65763009  0.99116800  0.65753254  1
  Cr  Cr47  1  0.82397826  0.15815688  0.82560896  1
  Cr  Cr48  1  0.82459123  0.49164692  0.49086398  1
  Cr  Cr49  1  0.65736674  0.32459513  0.65823105  1
  Cr  Cr50  1  0.82397826  0.49103338  0.82560896  1
  Cr  Cr51  1  0.82460976  0.82459513  0.49126977  1
  Cr  Cr52  1  0.65763009  0.65802226  0.65753254  1
  Cr  Cr53  1  0.82498379  0.82459513  0.82418925  1
" 