6816,Fe98Cr2_9,-200.975136095322, 212.705157087239,Fe98Cr2,"# generated using pymatgen
 data_Cr26Fe
_symmetry_space_group_name_H-M   'P 1'
_cell_length_a   7.60065413
_cell_length_b   7.60065413
_cell_length_c   10.74894816
_cell_angle_alpha   90.00000000
_cell_angle_beta   90.00000000
_cell_angle_gamma   90.00000000
_symmetry_Int_Tables_number   1
_chemical_formula_structural   Cr26Fe
_chemical_formula_sum   'Cr52 Fe2'
_cell_volume   620.96612543
_cell_formula_units_Z   2
loop_
 _symmetry_equiv_pos_site_id
 _symmetry_equiv_pos_as_xyz
  1  'x, y, z'
loop_
 _atom_site_type_symbol
 _atom_site_label
 _atom_site_symmetry_multiplicity
 _atom_site_fract_x
 _atom_site_fract_y
 _atom_site_fract_z
 _atom_site_occupancy
  Cr  Cr0  1  0.99053895  -0.00811724  0.99054659  1
  Cr  Cr1  1  0.15871726  0.15787752  0.15787752  1
  Cr  Cr2  1  0.99053895  -0.00811724  0.32520845  1
  Cr  Cr3  1  0.99053895  0.32387228  0.99054659  1
  Cr  Cr4  1  0.15716357  0.49049691  0.15787752  1
  Cr  Cr5  1  0.99053895  0.32387228  0.32520845  1
  Cr  Cr6  1  -0.00834912  0.65787752  -0.00835939  1
  Cr  Cr7  1  0.15716357  0.82525813  0.15787752  1
  Cr  Cr8  1  -0.00834912  0.65787752  0.32411443  1
  Cr  Cr9  1  0.32454419  0.99077082  -0.00835939  1
  Cr  Cr10  1  0.49037112  0.15787752  0.15787752  1
  Cr  Cr11  1  0.32454419  0.99077082  0.32411443  1
  Cr  Cr12  1  0.32454419  0.32498422  -0.00835939  1
  Cr  Cr13  1  0.49192480  0.49049691  0.15787752  1
  Cr  Cr14  1  0.32454419  0.32498422  0.32411443  1
  Cr  Cr15  1  0.32454419  0.65787752  0.99119953  1
  Cr  Cr16  1  0.49192480  0.82525813  0.15787752  1
  Cr  Cr17  1  0.32454419  0.65787752  0.32455551  1
  Cr  Cr18  1  0.65854943  -0.00811724  0.99054659  1
  Cr  Cr19  1  0.82454419  0.15787752  0.15787752  1
  Cr  Cr20  1  0.65854943  -0.00811724  0.32520845  1
  Cr  Cr21  1  0.65854943  0.32387228  0.99054659  1
  Cr  Cr22  1  0.82454419  0.49205059  0.15787752  1
  Cr  Cr23  1  0.65854943  0.32387228  0.32520845  1
  Cr  Cr24  1  0.65743749  0.65787752  -0.00835939  1
  Cr  Cr25  1  0.82454419  0.82370445  0.15787752  1
  Cr  Cr26  1  0.65743749  0.65787752  0.32411443  1
  Cr  Cr27  1  0.15769886  0.15787752  0.49078321  1
  Cr  Cr28  1  0.98986975  -0.00744804  0.65787752  1
  Cr  Cr29  1  0.15769886  0.15787752  0.82497183  1
  Cr  Cr30  1  0.15719812  0.49053145  0.49156558  1
  Cr  Cr31  1  0.98986975  0.32320309  0.65787752  1
  Cr  Cr32  1  0.15719812  0.49053145  0.82418946  1
  Cr  Cr33  1  0.15719812  0.82522359  0.49156558  1
  Cr  Cr34  1  -0.00795562  0.65787752  0.65787752  1
  Cr  Cr35  1  0.15719812  0.82522359  0.82418946  1
  Cr  Cr36  1  0.49138952  0.15787752  0.49078321  1
  Cr  Cr37  1  0.32454419  0.99037733  0.65787752  1
  Cr  Cr38  1  0.49138952  0.15787752  0.82497183  1
  Cr  Cr39  1  0.49189025  0.49053145  0.49156558  1
  Cr  Cr40  1  0.32454419  0.32537771  0.65787752  1
  Cr  Cr41  1  0.49189025  0.49053145  0.82418946  1
  Cr  Cr42  1  0.49189025  0.82522359  0.49156558  1
  Cr  Cr43  1  0.32454419  0.65787752  0.65787752  1
  Cr  Cr44  1  0.49189025  0.82522359  0.82418946  1
  Fe  Fe45  1  0.82454419  0.15787752  0.49120542  1
  Cr  Cr46  1  0.65921862  -0.00744804  0.65787752  1
  Fe  Fe47  1  0.82454419  0.15787752  0.82454962  1
  Cr  Cr48  1  0.82454419  0.49103219  0.49078321  1
  Cr  Cr49  1  0.65921862  0.32320309  0.65787752  1
  Cr  Cr50  1  0.82454419  0.49103219  0.82497183  1
  Cr  Cr51  1  0.82454419  0.82472285  0.49078321  1
  Cr  Cr52  1  0.65704399  0.65787752  0.65787752  1
  Cr  Cr53  1  0.82454419  0.82472285  0.82497183  1
" 