143,Fe98Cr2_1,-200.973635329383, 212.591668703327,Fe98Cr2,"# generated using pymatgen
 data_Cr26Fe
_symmetry_space_group_name_H-M   'P 1'
_cell_length_a   7.60057607
_cell_length_b   7.60057607
_cell_length_c   10.74883776
_cell_angle_alpha   90.00000000
_cell_angle_beta   90.00000000
_cell_angle_gamma   90.00000000
_symmetry_Int_Tables_number   1
_chemical_formula_structural   Cr26Fe
_chemical_formula_sum   'Cr52 Fe2'
_cell_volume   620.94699240
_cell_formula_units_Z   2
loop_
 _symmetry_equiv_pos_site_id
 _symmetry_equiv_pos_as_xyz
  1  'x, y, z'
loop_
 _atom_site_type_symbol
 _atom_site_label
 _atom_site_symmetry_multiplicity
 _atom_site_fract_x
 _atom_site_fract_y
 _atom_site_fract_z
 _atom_site_occupancy
  Cr  Cr0  1  -0.00775078  0.99058143  0.99099144  1
  Cr  Cr1  1  0.15754482  0.15862221  0.15795331  1
  Cr  Cr2  1  -0.00876257  0.99121174  0.32454923  1
  Cr  Cr3  1  0.99018257  0.32518370  0.99099144  1
  Cr  Cr4  1  0.15828442  0.49081405  0.15869637  1
  Cr  Cr5  1  0.99119436  0.32455339  0.32454923  1
  Cr  Cr6  1  0.99121590  0.65788257  0.98994586  1
  Cr  Cr7  1  0.15754455  0.82421122  0.15723518  1
  Cr  Cr8  1  -0.00878410  0.65788257  0.32454923  1
  Cr  Cr9  1  0.32391603  0.99058269  0.99057486  1
  Cr  Cr10  1  0.49121590  0.15788257  0.15721080  1
  Cr  Cr11  1  0.32454503  0.99121170  0.32454923  1
  Cr  Cr12  1  0.32494773  0.32415074  -0.00796656  1
  Cr  Cr13  1  0.49047625  0.49155364  0.15795331  1
  Cr  Cr14  1  0.32456656  0.32453190  0.32454923  1
  Cr  Cr15  1  0.32391476  0.65891589  0.99099144  1
  Cr  Cr16  1  0.49195554  0.82421149  0.15795331  1
  Cr  Cr17  1  0.32454507  0.65790410  0.32454923  1
  Cr  Cr18  1  0.65748407  -0.00838561  -0.00796656  1
  Cr  Cr19  1  0.82488697  0.15714292  0.15795331  1
  Cr  Cr20  1  0.65786524  -0.00876677  0.32454923  1
  Cr  Cr21  1  0.65851577  0.32518244  0.99057486  1
  Cr  Cr22  1  0.82488725  0.49155391  0.15723518  1
  Cr  Cr23  1  0.65788676  0.32455343  0.32454923  1
  Cr  Cr24  1  0.65851703  0.65684924  0.99099144  1
  Cr  Cr25  1  0.82414738  0.82495108  0.15869637  1
  Cr  Cr26  1  0.65788673  0.65786103  0.32454923  1
  Cr  Cr27  1  0.15754482  0.15862221  0.49114515  1
  Cr  Cr28  1  -0.00775078  0.99058143  0.65810702  1
  Cr  Cr29  1  0.15757557  0.15761610  0.82454923  1
  Cr  Cr30  1  0.15828442  0.49081405  0.49040209  1
  Cr  Cr31  1  0.99018257  0.32518370  0.65810702  1
  Cr  Cr32  1  0.15730247  0.49179600  0.82454923  1
  Cr  Cr33  1  0.15754455  0.82421122  0.49186329  1
  Cr  Cr34  1  0.99121590  0.65788257  0.65915260  1
  Fe  Fe35  1  0.15789162  0.82455829  0.82454923  1
  Cr  Cr36  1  0.49121590  0.15788257  0.49188767  1
  Cr  Cr37  1  0.32391603  0.99058269  0.65852360  1
  Cr  Cr38  1  0.49121590  0.15788257  0.82454923  1
  Cr  Cr39  1  0.49047625  0.49155364  0.49114515  1
  Cr  Cr40  1  0.32494773  0.32415074  0.65706502  1
  Cr  Cr41  1  0.49148237  0.49152289  0.82454923  1
  Cr  Cr42  1  0.49195554  0.82421149  0.49114515  1
  Cr  Cr43  1  0.32391476  0.65891589  0.65810702  1
  Cr  Cr44  1  0.49094943  0.82424224  0.82454923  1
  Cr  Cr45  1  0.82488697  0.15714292  0.49114515  1
  Cr  Cr46  1  0.65748407  -0.00838561  0.65706502  1
  Cr  Cr47  1  0.82485622  0.15814903  0.82454923  1
  Cr  Cr48  1  0.82488725  0.49155391  0.49186329  1
  Cr  Cr49  1  0.65851577  0.32518244  0.65852360  1
  Fe  Fe50  1  0.82454018  0.49120684  0.82454923  1
  Cr  Cr51  1  0.82414738  0.82495108  0.49040209  1
  Cr  Cr52  1  0.65851703  0.65684924  0.65810702  1
  Cr  Cr53  1  0.82512933  0.82396913  0.82454923  1
" 