5494,Fe98Cr2_13,-200.973337125031, 212.626365474422,Fe98Cr2,"# generated using pymatgen
 data_Cr26Fe
_symmetry_space_group_name_H-M   'P 1'
_cell_length_a   7.60016067
_cell_length_b   7.60016067
_cell_length_c   10.74825029
_cell_angle_alpha   90.00000000
_cell_angle_beta   90.00000000
_cell_angle_gamma   90.00000000
_symmetry_Int_Tables_number   1
_chemical_formula_structural   Cr26Fe
_chemical_formula_sum   'Cr52 Fe2'
_cell_volume   620.84518545
_cell_formula_units_Z   2
loop_
 _symmetry_equiv_pos_site_id
 _symmetry_equiv_pos_as_xyz
  1  'x, y, z'
loop_
 _atom_site_type_symbol
 _atom_site_label
 _atom_site_symmetry_multiplicity
 _atom_site_fract_x
 _atom_site_fract_y
 _atom_site_fract_z
 _atom_site_occupancy
  Cr  Cr0  1  0.99053050  0.99091744  -0.00803783  1
  Cr  Cr1  1  0.15790941  0.15751918  0.15831027  1
  Cr  Cr2  1  0.99093324  0.99094627  0.32457608  1
  Cr  Cr3  1  -0.00846844  0.32551468  0.99095384  1
  Cr  Cr4  1  0.15790941  0.49085577  0.15721399  1
  Cr  Cr5  1  0.99094980  0.32487600  0.32457608  1
  Cr  Cr6  1  -0.00775308  0.65729541  0.99023626  1
  Cr  Cr7  1  0.15790941  0.82535349  0.15790754  1
  Cr  Cr8  1  0.99068179  0.65790602  0.32457608  1
  Cr  Cr9  1  0.32528832  0.99091744  -0.00803783  1
  Cr  Cr10  1  0.49053050  0.15823473  0.15719000  1
  Cr  Cr11  1  0.32488559  0.99094627  0.32457608  1
  Cr  Cr12  1  0.32428727  0.32551468  0.99095384  1
  Cr  Cr13  1  0.49224692  0.49185676  0.15891590  1
  Cr  Cr14  1  0.32486903  0.32487600  0.32457608  1
  Cr  Cr15  1  0.32357191  0.65729541  0.99023626  1
  Cr  Cr16  1  0.49153156  0.82363748  0.15819832  1
  Cr  Cr17  1  0.32513704  0.65790602  0.32457608  1
  Cr  Cr18  1  0.65790941  -0.00836702  0.99084189  1
  Cr  Cr19  1  0.82528832  0.15823473  0.15719000  1
  Cr  Cr20  1  0.65790941  0.99067806  0.32457608  1
  Cr  Cr21  1  0.65790941  0.32379867  -0.00875538  1
  Cr  Cr22  1  0.82357191  0.49185676  0.15891590  1
  Cr  Cr23  1  0.65790941  0.32512745  0.32457608  1
  Cr  Cr24  1  0.65790941  0.65829639  -0.00806183  1
  Cr  Cr25  1  0.82428727  0.82363748  0.15819832  1
  Fe  Fe26  1  0.65790941  0.65792236  0.32457608  1
  Cr  Cr27  1  0.15790941  0.15751918  0.49084189  1
  Cr  Cr28  1  0.99053050  0.99091744  0.65719000  1
  Cr  Cr29  1  0.15790941  0.15847410  0.82457608  1
  Cr  Cr30  1  0.15790941  0.49085577  0.49193817  1
  Cr  Cr31  1  -0.00846844  0.32551468  0.65819832  1
  Fe  Fe32  1  0.15790941  0.49122980  0.82457608  1
  Cr  Cr33  1  0.15790941  0.82535349  0.49124462  1
  Cr  Cr34  1  -0.00775308  0.65729541  0.65891590  1
  Cr  Cr35  1  0.15790941  0.82402471  0.82457608  1
  Cr  Cr36  1  0.49053050  0.15823473  0.49196217  1
  Cr  Cr37  1  0.32528832  0.99091744  0.65719000  1
  Cr  Cr38  1  0.49093324  0.15820589  0.82457608  1
  Cr  Cr39  1  0.49224692  0.49185676  0.49023626  1
  Cr  Cr40  1  0.32428727  0.32551468  0.65819832  1
  Cr  Cr41  1  0.49068179  0.49124614  0.82457608  1
  Cr  Cr42  1  0.49153156  0.82363748  0.49095384  1
  Cr  Cr43  1  0.32357191  0.65729541  0.65891590  1
  Cr  Cr44  1  0.49094980  0.82427616  0.82457608  1
  Cr  Cr45  1  0.82528832  0.15823473  0.49196217  1
  Cr  Cr46  1  0.65790941  -0.00836702  0.65831027  1
  Cr  Cr47  1  0.82488559  0.15820589  0.82457608  1
  Cr  Cr48  1  0.82357191  0.49185676  0.49023626  1
  Cr  Cr49  1  0.65790941  0.32379867  0.65790754  1
  Cr  Cr50  1  0.82513704  0.49124614  0.82457608  1
  Cr  Cr51  1  0.82428727  0.82363748  0.49095384  1
  Cr  Cr52  1  0.65790941  0.65829639  0.65721399  1
  Cr  Cr53  1  0.82486903  0.82427616  0.82457608  1
" 