5448,Fe98Cr2_16,-200.966809889074, 212.490906210557,Fe98Cr2,"# generated using pymatgen
 data_Cr26Fe
_symmetry_space_group_name_H-M   'P 1'
_cell_length_a   7.60042326
_cell_length_b   7.60042326
_cell_length_c   10.74862166
_cell_angle_alpha   90.00000000
_cell_angle_beta   90.00000000
_cell_angle_gamma   90.00000000
_symmetry_Int_Tables_number   1
_chemical_formula_structural   Cr26Fe
_chemical_formula_sum   'Cr52 Fe2'
_cell_volume   620.90954129
_cell_formula_units_Z   2
loop_
 _symmetry_equiv_pos_site_id
 _symmetry_equiv_pos_as_xyz
  1  'x, y, z'
loop_
 _atom_site_type_symbol
 _atom_site_label
 _atom_site_symmetry_multiplicity
 _atom_site_fract_x
 _atom_site_fract_y
 _atom_site_fract_z
 _atom_site_occupancy
  Cr  Cr0  1  0.99099163  -0.00813694  -0.00773045  1
  Cr  Cr1  1  0.15731119  0.15790902  0.15789244  1
  Cr  Cr2  1  0.99099163  -0.00813694  0.32351533  1
  Cr  Cr3  1  0.99025049  0.32358383  -0.00847534  1
  Cr  Cr4  1  0.15758519  0.49091853  0.15789244  1
  Cr  Cr5  1  0.99025049  0.32358383  0.32426022  1
  Cr  Cr6  1  -0.00871290  0.65823055  0.99047942  1
  Cr  Cr7  1  0.15758524  0.82484981  0.15789244  1
  Cr  Cr8  1  -0.00871290  0.65823055  0.32530546  1
  Cr  Cr9  1  0.32415593  0.99082597  0.99122389  1
  Cr  Cr10  1  0.49181120  0.15788816  0.15789244  1
  Cr  Cr11  1  0.32415593  0.99082597  0.32456099  1
  Cr  Cr12  1  0.32489721  0.32462044  0.99047942  1
  Cr  Cr13  1  0.49151647  0.49091857  0.15789244  1
  Cr  Cr14  1  0.32489721  0.32462044  0.32530546  1
  Cr  Cr15  1  0.32489726  0.65823059  0.99089776  1
  Cr  Cr16  1  0.49153720  0.82487053  0.15789244  1
  Cr  Cr17  1  0.32489726  0.65823059  0.32488713  1
  Cr  Cr18  1  0.65852950  -0.00813716  -0.00845092  1
  Fe  Fe19  1  0.82455519  0.15788853  0.15789244  1
  Cr  Cr20  1  0.65852950  -0.00813716  0.32423580  1
  Cr  Cr21  1  0.65852972  0.32432497  -0.00773045  1
  Cr  Cr22  1  0.82457569  0.49064452  0.15789244  1
  Cr  Cr23  1  0.65852972  0.32432497  0.32351533  1
  Cr  Cr24  1  0.65749263  0.65748926  0.99122389  1
  Cr  Cr25  1  0.82455482  0.82514453  0.15789244  1
  Cr  Cr26  1  0.65749263  0.65748926  0.32456099  1
  Cr  Cr27  1  0.15829562  0.15829225  0.49122389  1
  Cr  Cr28  1  0.99064035  -0.00876994  0.65789244  1
  Cr  Cr29  1  0.15829562  0.15829225  0.82456099  1
  Cr  Cr30  1  0.15755429  0.49088763  0.49089776  1
  Cr  Cr31  1  0.99091435  0.32424768  0.65789244  1
  Cr  Cr32  1  0.15755429  0.49088763  0.82488713  1
  Cr  Cr33  1  0.15755434  0.82449778  0.49047942  1
  Cr  Cr34  1  0.99093508  0.65819965  0.65789244  1
  Cr  Cr35  1  0.15755434  0.82449778  0.82530546  1
  Cr  Cr36  1  0.49145991  0.15725516  0.49226955  1
  Cr  Cr37  1  0.32514036  0.99120919  0.65789244  1
  Cr  Cr38  1  0.49145991  0.15725516  0.82351533  1
  Cr  Cr39  1  0.49116445  0.49088767  0.49047942  1
  Cr  Cr40  1  0.32486631  0.32426841  0.65789244  1
  Cr  Cr41  1  0.49116445  0.49088767  0.82530546  1
  Cr  Cr42  1  0.49220106  0.82553439  0.49152466  1
  Cr  Cr43  1  0.32486636  0.65819969  0.65789244  1
  Cr  Cr44  1  0.49220106  0.82553439  0.82426022  1
  Cr  Cr45  1  0.82392205  0.15725538  0.49154908  1
  Fe  Fe46  1  0.65789636  -0.00877031  0.65789244  1
  Cr  Cr47  1  0.82392205  0.15725538  0.82423580  1
  Cr  Cr48  1  0.82495892  0.49162896  0.49122389  1
  Cr  Cr49  1  0.65789672  0.32397368  0.65789244  1
  Cr  Cr50  1  0.82495892  0.49162896  0.82456099  1
  Cr  Cr51  1  0.82392183  0.82479325  0.49226955  1
  Cr  Cr52  1  0.65787586  0.65847369  0.65789244  1
  Cr  Cr53  1  0.82392183  0.82479325  0.82351533  1
" 