4579,Fe98Cr2_18,-200.959434954009, 211.931398244523,Fe98Cr2,"# generated using pymatgen
 data_Cr26Fe
_symmetry_space_group_name_H-M   'P 1'
_cell_length_a   7.60046746
_cell_length_b   7.60046746
_cell_length_c   10.74868416
_cell_angle_alpha   90.00000000
_cell_angle_beta   90.00000000
_cell_angle_gamma   90.00000000
_symmetry_Int_Tables_number   1
_chemical_formula_structural   Cr26Fe
_chemical_formula_sum   'Cr52 Fe2'
_cell_volume   620.92037319
_cell_formula_units_Z   2
loop_
 _symmetry_equiv_pos_site_id
 _symmetry_equiv_pos_as_xyz
  1  'x, y, z'
loop_
 _atom_site_type_symbol
 _atom_site_label
 _atom_site_symmetry_multiplicity
 _atom_site_fract_x
 _atom_site_fract_y
 _atom_site_fract_z
 _atom_site_occupancy
  Cr  Cr0  1  -0.00848249  0.99092832  0.99121563  1
  Cr  Cr1  1  0.15782795  0.15821217  0.15796036  1
  Cr  Cr2  1  -0.00845428  0.99090011  0.32423433  1
  Cr  Cr3  1  -0.00848295  0.32446587  -0.00838419  1
  Cr  Cr4  1  0.15810498  0.49182654  0.15767791  1
  Cr  Cr5  1  -0.00845402  0.32486639  0.32423422  1
  Cr  Cr6  1  -0.00822844  0.65827420  -0.00838432  1
  Cr  Cr7  1  0.15881623  0.82362961  0.15696477  1
  Cr  Cr8  1  0.99083502  0.65790240  0.32494711  1
  Cr  Cr9  1  0.32417164  0.99067428  -0.00838432  1
  Cr  Cr10  1  0.49160752  0.15750130  0.15867352  1
  Cr  Cr11  1  0.32454343  -0.00838919  0.32494711  1
  Cr  Cr12  1  0.32516283  0.32571860  0.99061696  1
  Cr  Cr13  1  0.49061724  0.49182860  0.15698680  1
  Cr  Cr14  1  0.32455961  0.32417167  0.32494724  1
  Fe  Fe15  1  0.32485743  0.65758841  0.99092271  1
  Cr  Cr16  1  0.49061930  0.82434085  0.15767791  1
  Cr  Cr17  1  0.32455969  0.65788614  0.32425780  1
  Cr  Cr18  1  0.65797997  0.99092879  -0.00838419  1
  Cr  Cr19  1  0.82423322  0.15821261  0.15756018  1
  Cr  Cr20  1  0.65757945  0.99089985  0.32423422  1
  Cr  Cr21  1  0.65698980  0.32545604  0.99061810  1
  Cr  Cr22  1  0.82494453  0.49083831  0.15867352  1
  Cr  Cr23  1  0.65756309  0.32488274  0.32423418  1
  Cr  Cr24  1  0.65672723  0.65728301  0.99061696  1
  Cr  Cr25  1  0.82423367  0.82461789  0.15796036  1
  Cr  Cr26  1  0.65827417  0.65788622  0.32494724  1
  Cr  Cr27  1  0.15819972  0.15821265  0.49154495  1
  Cr  Cr28  1  -0.00845406  0.99089989  0.65821899  1
  Cr  Cr29  1  0.15779920  0.15818371  0.82416336  1
  Cr  Cr30  1  0.15750500  0.49122628  0.49083193  1
  Cr  Cr31  1  -0.00845450  0.32449461  0.65781881  1
  Cr  Cr32  1  0.15905194  0.49182950  0.82516221  1
  Cr  Cr33  1  0.15821608  0.82422976  0.49154499  1
  Cr  Cr34  1  0.99083464  0.65827419  0.65710565  1
  Cr  Cr35  1  0.15878937  0.82365647  0.82516107  1
  Cr  Cr36  1  0.49123574  0.15750169  0.49083206  1
  Cr  Cr37  1  0.32417164  -0.00838880  0.65710565  1
  Cr  Cr38  1  0.49160753  0.15843823  0.82416349  1
  Cr  Cr39  1  0.49121948  0.49122636  0.49152137  1
  Cr  Cr40  1  0.32515987  0.32477165  0.65810126  1
  Fe  Fe41  1  0.49092174  0.49152409  0.82485646  1
  Cr  Cr42  1  0.49121956  0.82494083  0.49083193  1
  Cr  Cr43  1  0.32516193  0.65728390  0.65879237  1
  Cr  Cr44  1  0.49061634  0.82339390  0.82516221  1
  Cr  Cr45  1  0.82423345  0.15821239  0.49154483  1
  Cr  Cr46  1  0.65795122  0.99090033  0.65781881  1
  Cr  Cr47  1  0.82426165  0.15818418  0.82456354  1
  Cr  Cr48  1  0.82494415  0.49121010  0.49083206  1
  Cr  Cr49  1  0.65696294  0.32548290  0.65881440  1
  Cr  Cr50  1  0.82400761  0.49083830  0.82416349  1
  Cr  Cr51  1  0.82423318  0.82424611  0.49154495  1
  Cr  Cr52  1  0.65767419  0.65728596  0.65810126  1
  Cr  Cr53  1  0.82426212  0.82464663  0.82416336  1
" 