7426,Fe98Cr2_8,-200.939188420222, 212.075374323878,Fe98Cr2,"# generated using pymatgen
 data_Cr26Fe
_symmetry_space_group_name_H-M   'P 1'
_cell_length_a   7.60096481
_cell_length_b   7.60096481
_cell_length_c   10.74938752
_cell_angle_alpha   90.00000000
_cell_angle_beta   90.00000000
_cell_angle_gamma   90.00000000
_symmetry_Int_Tables_number   1
_chemical_formula_structural   Cr26Fe
_chemical_formula_sum   'Cr52 Fe2'
_cell_volume   621.04227415
_cell_formula_units_Z   2
loop_
 _symmetry_equiv_pos_site_id
 _symmetry_equiv_pos_as_xyz
  1  'x, y, z'
loop_
 _atom_site_type_symbol
 _atom_site_label
 _atom_site_symmetry_multiplicity
 _atom_site_fract_x
 _atom_site_fract_y
 _atom_site_fract_z
 _atom_site_occupancy
  Cr  Cr0  1  -0.00754927  -0.00880922  -0.00755105  1
  Fe  Fe1  1  0.15785744  0.15726416  0.15785744  1
  Cr  Cr2  1  -0.00754927  -0.00880922  0.32326594  1
  Cr  Cr3  1  -0.00857995  0.32389491  -0.00858963  1
  Cr  Cr4  1  0.15785744  0.49119078  0.15785744  1
  Cr  Cr5  1  -0.00857995  0.32389491  0.32430451  1
  Cr  Cr6  1  -0.00857995  0.65848664  -0.00858963  1
  Fe  Fe7  1  0.15785744  0.82511739  0.15785744  1
  Cr  Cr8  1  -0.00857995  0.65848664  0.32430451  1
  Cr  Cr9  1  0.32326416  -0.00880922  -0.00755105  1
  Cr  Cr10  1  0.49031008  0.15755090  0.15785744  1
  Cr  Cr11  1  0.32326416  -0.00880922  0.32326594  1
  Cr  Cr12  1  0.32429484  0.32389491  -0.00858963  1
  Cr  Cr13  1  0.49057733  0.49119078  0.15785744  1
  Cr  Cr14  1  0.32429484  0.32389491  0.32430451  1
  Cr  Cr15  1  0.32429484  0.65848664  -0.00858963  1
  Cr  Cr16  1  0.49031008  0.82483066  0.15785744  1
  Cr  Cr17  1  0.32429484  0.65848664  0.32430451  1
  Cr  Cr18  1  0.65785744  0.99119078  0.99037279  1
  Cr  Cr19  1  0.82540481  0.15755090  0.15785744  1
  Cr  Cr20  1  0.65785744  0.99119078  0.32534210  1
  Cr  Cr21  1  0.65785744  0.32492434  0.99078947  1
  Cr  Cr22  1  0.82513756  0.49119078  0.15785744  1
  Cr  Cr23  1  0.65785744  0.32492434  0.32492542  1
  Cr  Cr24  1  0.65785744  0.65745721  0.99078947  1
  Cr  Cr25  1  0.82540481  0.82483066  0.15785744  1
  Cr  Cr26  1  0.65785744  0.65745721  0.32492542  1
  Cr  Cr27  1  0.15785744  0.15826142  0.49128706  1
  Cr  Cr28  1  -0.00880193  0.99119078  0.65785744  1
  Cr  Cr29  1  0.15785744  0.15826142  0.82442783  1
  Cr  Cr30  1  0.15785744  0.49119078  0.49200471  1
  Cr  Cr31  1  0.99118071  0.32452043  0.65785744  1
  Cr  Cr32  1  0.15785744  0.49119078  0.82371018  1
  Cr  Cr33  1  0.15785744  0.82412013  0.49128706  1
  Cr  Cr34  1  0.99118071  0.65786113  0.65785744  1
  Cr  Cr35  1  0.15785744  0.82412013  0.82442783  1
  Cr  Cr36  1  0.49125843  0.15752134  0.49126267  1
  Cr  Cr37  1  0.32451682  0.99119078  0.65785744  1
  Cr  Cr38  1  0.49125843  0.15752134  0.82445222  1
  Cr  Cr39  1  0.49051782  0.49119078  0.49052007  1
  Cr  Cr40  1  0.32453418  0.32452043  0.65785744  1
  Cr  Cr41  1  0.49051782  0.49119078  0.82519482  1
  Cr  Cr42  1  0.49125843  0.82486021  0.49126267  1
  Cr  Cr43  1  0.32453418  0.65786113  0.65785744  1
  Cr  Cr44  1  0.49125843  0.82486021  0.82445222  1
  Cr  Cr45  1  0.82445645  0.15752134  0.49126267  1
  Cr  Cr46  1  0.65785744  -0.00880922  0.65785744  1
  Cr  Cr47  1  0.82445645  0.15752134  0.82445222  1
  Cr  Cr48  1  0.82519706  0.49119078  0.49052007  1
  Cr  Cr49  1  0.65785744  0.32453757  0.65785744  1
  Cr  Cr50  1  0.82519706  0.49119078  0.82519482  1
  Cr  Cr51  1  0.82445645  0.82486021  0.49126267  1
  Cr  Cr52  1  0.65785744  0.65784398  0.65785744  1
  Cr  Cr53  1  0.82445645  0.82486021  0.82445222  1
" 