1103,Fe9Cr91_17,-222.091083354094, 120.38315216724,Fe9Cr91,"# generated using pymatgen
 data_Cr2Fe25
_symmetry_space_group_name_H-M   'P 1'
_cell_length_a   7.44600408
_cell_length_b   7.44600408
_cell_length_c   10.53023996
_cell_angle_alpha   90.00000000
_cell_angle_beta   90.00000000
_cell_angle_gamma   90.00000000
_symmetry_Int_Tables_number   1
_chemical_formula_structural   Cr2Fe25
_chemical_formula_sum   'Cr4 Fe50'
_cell_volume   583.82784933
_cell_formula_units_Z   2
loop_
 _symmetry_equiv_pos_site_id
 _symmetry_equiv_pos_as_xyz
  1  'x, y, z'
loop_
 _atom_site_type_symbol
 _atom_site_label
 _atom_site_symmetry_multiplicity
 _atom_site_fract_x
 _atom_site_fract_y
 _atom_site_fract_z
 _atom_site_occupancy
  Fe  Fe0  1  1.00128051  0.00141854  0.00182968  1
  Fe  Fe1  1  0.16803005  0.16807974  0.16797368  1
  Fe  Fe2  1  1.00123033  1.00128041  0.33419286  1
  Fe  Fe3  1  1.00128051  0.33474095  0.00182968  1
  Fe  Fe4  1  0.16797207  0.50155436  0.16792511  1
  Fe  Fe5  1  1.00123033  0.33487908  0.33419286  1
  Fe  Fe6  1  1.00120973  0.66807974  0.00183437  1
  Fe  Fe7  1  0.16797207  0.83460512  0.16792511  1
  Fe  Fe8  1  1.00120415  0.66807974  0.33442180  1
  Fe  Fe9  1  0.33461600  0.00149658  1.00120791  1
  Fe  Fe10  1  0.50135405  0.16807974  0.16853287  1
  Fe  Fe11  1  0.33348587  1.00034924  0.33383708  1
  Fe  Fe12  1  0.33461600  0.33466291  1.00120791  1
  Fe  Fe13  1  0.50139543  0.50153859  0.16798023  1
  Fe  Fe14  1  0.33348587  0.33581025  0.33383708  1
  Fe  Fe15  1  0.33462125  0.66807974  0.00172642  1
  Fe  Fe16  1  0.50139543  0.83462090  0.16798023  1
  Fe  Fe17  1  0.33447926  0.66807974  0.33428212  1
  Fe  Fe18  1  0.66834569  0.00141804  0.00179147  1
  Fe  Fe19  1  0.83484776  0.16807974  0.16798598  1
  Fe  Fe20  1  0.66969434  1.00002895  0.33305800  1
  Fe  Fe21  1  0.66834569  0.33474145  0.00179147  1
  Fe  Fe22  1  0.83487302  0.50160500  0.16792312  1
  Fe  Fe23  1  0.66969434  0.33613053  0.33305800  1
  Fe  Fe24  1  0.66840673  0.66807974  1.00129843  1
  Fe  Fe25  1  0.83487302  0.83455448  0.16792312  1
  Fe  Fe26  1  0.66855084  0.66807974  0.33477383  1
  Fe  Fe27  1  0.16491930  0.16807974  0.49952608  1
  Fe  Fe28  1  0.99914582  1.00130231  0.66818670  1
  Fe  Fe29  1  0.16544607  0.16807974  0.83718175  1
  Fe  Fe30  1  0.16718869  0.50211758  0.50003363  1
  Fe  Fe31  1  0.99914582  0.33485718  0.66818670  1
  Fe  Fe32  1  0.16653278  0.50277521  0.83641345  1
  Fe  Fe33  1  0.16718869  0.83404191  0.50003363  1
  Fe  Fe34  1  0.00419003  0.66807974  0.66800534  1
  Fe  Fe35  1  0.16653278  0.83338427  0.83641345  1
  Cr  Cr36  1  0.50352673  0.16807974  0.50029465  1
  Cr  Cr37  1  0.33354791  1.00080061  0.66884222  1
  Fe  Fe38  1  0.50353100  0.16807974  0.83660632  1
  Fe  Fe39  1  0.50110037  0.50296545  0.49909671  1
  Cr  Cr40  1  0.33354791  0.33535888  0.66884222  1
  Fe  Fe41  1  0.50167047  0.50170156  0.83709676  1
  Fe  Fe42  1  0.50110037  0.83319403  0.49909671  1
  Fe  Fe43  1  0.33286283  0.66807974  0.66817120  1
  Fe  Fe44  1  0.50167047  0.83445793  0.83709676  1
  Fe  Fe45  1  0.83726186  0.16807974  0.50108118  1
  Fe  Fe46  1  0.67047849  0.00261459  0.66933442  1
  Fe  Fe47  1  0.83504702  0.16807974  0.83523367  1
  Fe  Fe48  1  0.83560168  0.49977989  0.50013412  1
  Fe  Fe49  1  0.67047849  0.33354490  0.66933442  1
  Fe  Fe50  1  0.83597361  0.50059562  0.83597274  1
  Fe  Fe51  1  0.83560168  0.83637959  0.50013412  1
  Cr  Cr52  1  0.66855123  0.66807974  0.66766394  1
  Fe  Fe53  1  0.83597361  0.83556386  0.83597274  1
" 