8744,Fe9Cr91_18,-222.057265106813, 122.886414107962,Fe9Cr91,"# generated using pymatgen
 data_Cr2Fe25
_symmetry_space_group_name_H-M   'P 1'
_cell_length_a   7.44368297
_cell_length_b   7.44368297
_cell_length_c   10.52695741
_cell_angle_alpha   90.00000000
_cell_angle_beta   90.00000000
_cell_angle_gamma   90.00000000
_symmetry_Int_Tables_number   1
_chemical_formula_structural   Cr2Fe25
_chemical_formula_sum   'Cr4 Fe50'
_cell_volume   583.28203646
_cell_formula_units_Z   2
loop_
 _symmetry_equiv_pos_site_id
 _symmetry_equiv_pos_as_xyz
  1  'x, y, z'
loop_
 _atom_site_type_symbol
 _atom_site_label
 _atom_site_symmetry_multiplicity
 _atom_site_fract_x
 _atom_site_fract_y
 _atom_site_fract_z
 _atom_site_occupancy
  Fe  Fe0  1  0.00239047  0.00239134  1.00074605  1
  Fe  Fe1  1  0.16801322  0.16798844  0.16826237  1
  Fe  Fe2  1  0.00264885  0.00212662  0.33575998  1
  Fe  Fe3  1  1.00154085  0.33492991  1.00156942  1
  Fe  Fe4  1  0.16717515  0.50097966  0.16737218  1
  Fe  Fe5  1  0.00178963  0.33515134  0.33487810  1
  Fe  Fe6  1  0.00241746  0.66738700  1.00074918  1
  Fe  Fe7  1  0.16907460  0.83574267  0.16742513  1
  Fe  Fe8  1  1.00073535  0.66742851  0.33576246  1
  Fe  Fe9  1  0.33493190  1.00151563  0.00159672  1
  Fe  Fe10  1  0.50179055  0.16798863  0.16826224  1
  Fe  Fe11  1  0.33407550  0.00403171  0.33404837  1
  Fe  Fe12  1  0.33408144  0.33410585  0.00242147  1
  Fe  Fe13  1  0.50265264  0.50100671  0.16717954  1
  Fe  Fe14  1  0.33493158  0.33324172  0.33492711  1
  Fe  Fe15  1  0.33408125  0.66908650  0.00266712  1
  Fe  Fe16  1  0.50075170  0.83571560  0.16761872  1
  Cr  Cr17  1  0.33403669  0.66795381  0.33346042  1
  Fe  Fe18  1  0.66738598  0.00239183  1.00072106  1
  Fe  Fe19  1  0.83490447  0.16988709  0.16823800  1
  Fe  Fe20  1  0.66798879  0.00299279  0.33490158  1
  Fe  Fe21  1  0.66908456  0.33408060  0.00241610  1
  Fe  Fe22  1  0.83487906  0.49994323  0.16823398  1
  Fe  Fe23  1  0.66798738  0.33515023  0.33490222  1
  Fe  Fe24  1  0.66820858  0.66823569  0.00159573  1
  Cr  Cr25  1  0.83476659  0.83476345  0.16983537  1
  Fe  Fe26  1  0.66989309  0.66656534  0.33490476  1
  Fe  Fe27  1  0.16851157  0.16798933  0.50154313  1
  Fe  Fe28  1  1.00156679  1.00154134  0.66821193  1
  Fe  Fe29  1  0.16848664  0.16848719  0.83490291  1
  Fe  Fe30  1  0.16767889  0.50098463  0.50242739  1
  Fe  Fe31  1  1.00156765  0.33493034  0.66826060  1
  Fe  Fe32  1  0.16658718  0.50156881  0.83490292  1
  Fe  Fe33  1  0.16572642  0.83573243  0.50237077  1
  Fe  Fe34  1  0.00159311  0.66823666  0.66820869  1
  Fe  Fe35  1  0.16848661  0.83465225  0.83490284  1
  Fe  Fe36  1  0.50154079  0.16992426  0.50157116  1
  Fe  Fe37  1  0.33409845  0.00237628  0.66906706  1
  Fe  Fe38  1  0.50156762  0.16656518  0.83487482  1
  Fe  Fe39  1  0.50239491  0.49907969  0.50264734  1
  Fe  Fe40  1  0.33410178  0.33409855  0.66735415  1
  Cr  Cr41  1  0.50112991  0.50170495  0.83388196  1
  Cr  Cr42  1  0.50301047  0.83518828  0.50243211  1
  Fe  Fe43  1  0.33323697  0.66823265  0.66799260  1
  Fe  Fe44  1  0.50159363  0.83655018  0.83468145  1
  Fe  Fe45  1  0.83465536  0.16796156  0.50153933  1
  Fe  Fe46  1  0.66904541  0.00240534  0.66909807  1
  Fe  Fe47  1  0.83465424  0.16846079  0.83493061  1
  Fe  Fe48  1  0.83463018  0.50186998  0.50154386  1
  Fe  Fe49  1  0.66903774  0.33407373  0.66738341  1
  Fe  Fe50  1  0.83654813  0.50159473  0.83493060  1
  Fe  Fe51  1  0.83657313  0.83487642  0.50129294  1
  Fe  Fe52  1  0.66987978  0.66822869  0.66821737  1
  Fe  Fe53  1  0.83462842  0.83465298  0.83512365  1
" 