1162,Fe9Cr91_2,-222.024100241306, 121.057413811467,Fe9Cr91,"# generated using pymatgen
 data_Cr2Fe25
_symmetry_space_group_name_H-M   'P 1'
_cell_length_a   7.44476920
_cell_length_b   7.44476920
_cell_length_c   10.52849357
_cell_angle_alpha   90.00000000
_cell_angle_beta   90.00000000
_cell_angle_gamma   90.00000000
_symmetry_Int_Tables_number   1
_chemical_formula_structural   Cr2Fe25
_chemical_formula_sum   'Cr4 Fe50'
_cell_volume   583.53742295
_cell_formula_units_Z   2
loop_
 _symmetry_equiv_pos_site_id
 _symmetry_equiv_pos_as_xyz
  1  'x, y, z'
loop_
 _atom_site_type_symbol
 _atom_site_label
 _atom_site_symmetry_multiplicity
 _atom_site_fract_x
 _atom_site_fract_y
 _atom_site_fract_z
 _atom_site_occupancy
  Fe  Fe0  1  1.00116404  0.00250629  1.00058758  1
  Fe  Fe1  1  0.16641638  0.16862311  0.16987874  1
  Fe  Fe2  1  0.99996862  0.00269842  0.33632067  1
  Fe  Fe3  1  0.99951600  0.33532143  1.00149022  1
  Fe  Fe4  1  0.16582695  0.50063553  0.17046385  1
  Fe  Fe5  1  1.00100985  0.33459792  0.33528486  1
  Fe  Fe6  1  0.99959233  0.66675587  1.00042746  1
  Cr  Cr7  1  0.16726737  0.83438038  0.16900517  1
  Fe  Fe8  1  0.99997113  0.66715440  0.33630346  1
  Fe  Fe9  1  0.33482958  0.00149625  0.00149625  1
  Fe  Fe10  1  0.50243302  0.16658932  0.16904014  1
  Fe  Fe11  1  0.33599916  0.00268453  0.33620006  1
  Cr  Cr12  1  0.33372913  0.33550181  0.00255820  1
  Fe  Fe13  1  0.50331629  0.50221414  0.17037832  1
  Fe  Fe14  1  0.33501137  0.33461371  0.33462336  1
  Cr  Cr15  1  0.33593003  0.66749069  1.00043429  1
  Fe  Fe16  1  0.50391032  0.83550903  0.16930008  1
  Fe  Fe17  1  0.33598639  0.66715545  0.33568937  1
  Fe  Fe18  1  0.66849512  1.00048620  0.00240491  1
  Fe  Fe19  1  0.83540322  0.16762845  0.16833487  1
  Fe  Fe20  1  0.66851161  0.00168167  0.33532671  1
  Fe  Fe21  1  0.67006683  0.33623662  0.00256503  1
  Fe  Fe22  1  0.83542350  0.50208764  0.16862609  1
  Fe  Fe23  1  0.66845932  0.33458457  0.33504065  1
  Fe  Fe24  1  0.67014315  0.66767107  0.00150227  1
  Fe  Fe25  1  0.83312772  0.83475981  0.16838732  1
  Fe  Fe26  1  0.66851589  0.66822831  0.33529039  1
  Fe  Fe27  1  0.16807757  0.16835827  0.50149326  1
  Fe  Fe28  1  1.00114755  1.00131082  0.66766578  1
  Fe  Fe29  1  0.16574884  0.16748346  0.83369241  1
  Fe  Fe30  1  0.16807067  0.50153153  0.50144460  1
  Fe  Fe31  1  1.00114327  0.33476418  0.66770210  1
  Fe  Fe32  1  0.16634287  0.50077835  0.83261418  1
  Fe  Fe33  1  0.16804206  0.83459694  0.50086516  1
  Fe  Fe34  1  1.00119984  0.66840792  0.66795184  1
  Fe  Fe35  1  0.16722613  0.83640317  0.83395235  1
  Fe  Fe36  1  0.50161710  0.16839555  0.50212733  1
  Fe  Fe37  1  0.33366000  1.00030796  0.66679243  1
  Cr  Cr38  1  0.50239179  0.16861212  0.83398732  1
  Fe  Fe39  1  0.50158848  0.50146096  0.50154789  1
  Fe  Fe40  1  0.33367277  0.33583704  0.66730312  1
  Fe  Fe41  1  0.50383221  0.50235696  0.83252864  1
  Fe  Fe42  1  0.50158159  0.83463422  0.50149923  1
  Fe  Fe43  1  0.33464779  0.66837878  0.66836913  1
  Fe  Fe44  1  0.50324278  0.83436938  0.83311375  1
  Fe  Fe45  1  0.83478837  0.16837011  0.50155202  1
  Fe  Fe46  1  0.66969054  1.00029407  0.66667182  1
  Fe  Fe47  1  0.83653144  0.16823268  0.83460517  1
  Fe  Fe48  1  0.83482958  0.50149625  0.50149625  1
  Fe  Fe49  1  0.66968803  0.33583809  0.66668903  1
  Fe  Fe50  1  0.83423566  0.50090485  0.83436640  1
  Fe  Fe51  1  0.83487079  0.83462238  0.50144047  1
  Fe  Fe52  1  0.66864931  0.66839457  0.66770763  1
  Fe  Fe53  1  0.83425594  0.83536405  0.83465762  1
" 