4585,Fe9Cr91_19,-222.012016784375, 122.578082865026,Fe9Cr91,"# generated using pymatgen
 data_Cr2Fe25
_symmetry_space_group_name_H-M   'P 1'
_cell_length_a   7.44595907
_cell_length_b   7.44595907
_cell_length_c   10.53017630
_cell_angle_alpha   90.00000000
_cell_angle_beta   90.00000000
_cell_angle_gamma   90.00000000
_symmetry_Int_Tables_number   1
_chemical_formula_structural   Cr2Fe25
_chemical_formula_sum   'Cr4 Fe50'
_cell_volume   583.81726224
_cell_formula_units_Z   2
loop_
 _symmetry_equiv_pos_site_id
 _symmetry_equiv_pos_as_xyz
  1  'x, y, z'
loop_
 _atom_site_type_symbol
 _atom_site_label
 _atom_site_symmetry_multiplicity
 _atom_site_fract_x
 _atom_site_fract_y
 _atom_site_fract_z
 _atom_site_occupancy
  Fe  Fe0  1  0.00279181  1.00112191  1.00000474  1
  Fe  Fe1  1  0.16842139  0.16660629  0.16955332  1
  Fe  Fe2  1  1.00135261  1.00120746  0.33483617  1
  Cr  Cr3  1  1.00122433  0.33494121  0.00141611  1
  Fe  Fe4  1  0.16858339  0.50300791  0.16908700  1
  Fe  Fe5  1  1.00057241  0.33574961  0.33347958  1
  Fe  Fe6  1  0.00273467  0.66901664  1.00025730  1
  Fe  Fe7  1  0.16986735  0.83478561  0.16827385  1
  Fe  Fe8  1  0.00222687  0.66725810  0.33568622  1
  Fe  Fe9  1  0.33420529  0.00196025  0.00141611  1
  Fe  Fe10  1  0.50194740  0.16741623  0.16822650  1
  Fe  Fe11  1  0.33595856  1.00035172  0.33407495  1
  Fe  Fe12  1  0.33504363  0.33337374  0.00282747  1
  Fe  Fe13  1  0.50197460  0.50210387  0.16759501  1
  Fe  Fe14  1  0.33599472  0.33583207  0.33375673  1
  Fe  Fe15  1  0.33324695  0.66865938  0.00233170  1
  Fe  Fe16  1  0.50018705  0.83470220  0.16793197  1
  Fe  Fe17  1  0.33511285  0.66808775  0.33492878  1
  Fe  Fe18  1  0.66750617  0.00291860  1.00050051  1
  Fe  Fe19  1  0.83364304  0.16861828  0.16924896  1
  Fe  Fe20  1  0.66704535  0.00195076  0.33560459  1
  Fe  Fe21  1  0.66714890  0.33343087  0.00257491  1
  Fe  Fe22  1  0.83343963  0.50100238  0.16926736  1
  Fe  Fe23  1  0.66773154  0.33493108  0.33489120  1
  Fe  Fe24  1  0.66849592  0.66766963  0.00141611  1
  Cr  Cr25  1  0.83504564  0.83474802  0.16780935  1
  Fe  Fe26  1  0.66698312  0.66733631  0.33587438  1
  Cr  Cr27  1  0.16798835  0.16817720  0.50141611  1
  Fe  Fe28  1  1.00033348  1.00017083  0.66907549  1
  Fe  Fe29  1  0.16955925  0.16774416  0.83327889  1
  Fe  Fe30  1  0.16807867  0.50278130  0.50147055  1
  Fe  Fe31  1  1.00041594  0.33559314  0.66935263  1
  Fe  Fe32  1  0.16754726  0.50252250  0.83358325  1
  Fe  Fe33  1  0.16802325  0.83333986  0.50136037  1
  Fe  Fe34  1  1.00123447  0.66843400  0.66794101  1
  Fe  Fe35  1  0.16874932  0.83421815  0.83460572  1
  Fe  Fe36  1  0.50282568  0.16814230  0.50147184  1
  Fe  Fe37  1  0.33581383  1.00020699  0.66875726  1
  Fe  Fe38  1  0.50137993  0.16629820  0.83455836  1
  Fe  Fe39  1  0.50084757  0.50082486  0.50199441  1
  Fe  Fe40  1  0.33495808  0.33481293  0.66799605  1
  Cr  Cr41  1  0.50141752  0.50111991  0.83502286  1
  Fe  Fe42  1  0.50086902  0.83529653  0.50141611  1
  Fe  Fe43  1  0.33421479  0.66912020  0.66722762  1
  Fe  Fe44  1  0.50146335  0.83597850  0.83490025  1
  Fe  Fe45  1  0.83338424  0.16808687  0.50136167  1
  Fe  Fe46  1  0.66807780  1.00105269  0.66790343  1
  Fe  Fe47  1  0.83315763  0.16758215  0.83374521  1
  Fe  Fe48  1  0.83534290  0.50082265  0.50141611  1
  Fe  Fe49  1  0.66890744  0.33393868  0.66714600  1
  Fe  Fe50  1  0.83516317  0.50272592  0.83356486  1
  Fe  Fe51  1  0.83534068  0.83531798  0.50083780  1
  Fe  Fe52  1  0.66882924  0.66918243  0.66695783  1
  Fe  Fe53  1  0.83406168  0.83419095  0.83523720  1
" 