3492,Fe9Cr91_7,-222.072964458695, 120.752647888921,Fe9Cr91,"# generated using pymatgen
 data_Cr2Fe25
_symmetry_space_group_name_H-M   'P 1'
_cell_length_a   7.44836897
_cell_length_b   7.44836897
_cell_length_c   10.53358441
_cell_angle_alpha   90.00000000
_cell_angle_beta   90.00000000
_cell_angle_gamma   90.00000000
_symmetry_Int_Tables_number   1
_chemical_formula_structural   Cr2Fe25
_chemical_formula_sum   'Cr4 Fe50'
_cell_volume   584.38430547
_cell_formula_units_Z   2
loop_
 _symmetry_equiv_pos_site_id
 _symmetry_equiv_pos_as_xyz
  1  'x, y, z'
loop_
 _atom_site_type_symbol
 _atom_site_label
 _atom_site_symmetry_multiplicity
 _atom_site_fract_x
 _atom_site_fract_y
 _atom_site_fract_z
 _atom_site_occupancy
  Fe  Fe0  1  0.99974933  0.00128076  0.00127876  1
  Fe  Fe1  1  0.16564495  0.16867002  0.16869681  1
  Fe  Fe2  1  0.00200433  1.00052737  0.33380956  1
  Fe  Fe3  1  0.00147803  0.33433474  0.00127870  1
  Fe  Fe4  1  0.16814796  0.50102830  0.16792318  1
  Fe  Fe5  1  0.00275719  0.33456210  0.33306109  1
  Fe  Fe6  1  0.00147875  0.66814631  0.00125520  1
  Fe  Fe7  1  0.16739356  0.83406174  0.16867372  1
  Fe  Fe8  1  0.00197983  0.66867284  0.33385893  1
  Cr  Cr9  1  0.33379491  1.00046254  1.00046233  1
  Cr  Cr10  1  0.50217574  0.16830855  0.16884492  1
  Fe  Fe11  1  0.33383434  1.00052775  0.33513912  1
  Fe  Fe12  1  0.33383767  0.33683696  1.00050420  1
  Fe  Fe13  1  0.50125185  0.50275782  0.16792251  1
  Fe  Fe14  1  0.33383438  0.33531546  0.33536294  1
  Fe  Fe15  1  0.33461354  0.66641679  0.00127883  1
  Fe  Fe16  1  0.50200426  0.83233448  0.16867213  1
  Fe  Fe17  1  0.33461312  0.66791812  0.33456239  1
  Fe  Fe18  1  0.67017244  1.00050418  1.00050337  1
  Fe  Fe19  1  0.83609334  0.16791769  0.16814697  1
  Fe  Fe20  1  0.66792267  0.99974605  0.33458612  1
  Fe  Fe21  1  0.66844766  0.33511310  1.00050272  1
  Fe  Fe22  1  0.83436171  0.50100483  0.16817111  1
  Fe  Fe23  1  0.66717040  0.33534381  0.33383786  1
  Fe  Fe24  1  0.66766951  0.66814548  0.00127877  1
  Fe  Fe25  1  0.83436220  0.83483911  0.16794784  1
  Fe  Fe26  1  0.66716930  0.66867223  0.33383601  1
  Fe  Fe27  1  0.16922320  0.16814558  0.50122788  1
  Fe  Fe28  1  0.00200239  1.00050393  0.66867199  1
  Fe  Fe29  1  0.16716856  0.16867210  0.83383518  1
  Fe  Fe30  1  0.16920144  0.50102761  0.50125246  1
  Fe  Fe31  1  0.00275618  0.33458449  0.66942158  1
  Fe  Fe32  1  0.16792305  0.50125248  0.83458594  1
  Fe  Fe33  1  0.16747057  0.83458833  0.50125230  1
  Fe  Fe34  1  0.00198070  0.66867382  0.66864861  1
  Fe  Fe35  1  0.16716808  0.83383658  0.83383464  1
  Fe  Fe36  1  0.49997155  0.16814520  0.50102826  1
  Fe  Fe37  1  0.33458792  0.00128101  0.66812105  1
  Fe  Fe38  1  0.50202942  0.16867190  0.83403556  1
  Fe  Fe39  1  0.49997583  0.50100460  0.50122816  1
  Fe  Fe40  1  0.33458788  0.33456243  0.66789651  1
  Fe  Fe41  1  0.50125242  0.50122931  0.83461078  1
  Fe  Fe42  1  0.50170448  0.83461163  0.50122793  1
  Fe  Fe43  1  0.33458802  0.66791819  0.66792051  1
  Fe  Fe44  1  0.50200664  0.83386001  0.83385975  1
  Cr  Cr45  1  0.83405363  0.16714108  0.50071789  1
  Fe  Fe46  1  0.66717070  1.00050297  0.66867276  1
  Fe  Fe47  1  0.83456332  0.16791798  0.83438614  1
  Cr  Cr48  1  0.83499022  0.50243776  0.50165623  1
  Fe  Fe49  1  0.66641742  0.33458599  0.66942195  1
  Fe  Fe50  1  0.83458614  0.50122912  0.83433726  1
  Fe  Fe51  1  0.83458658  0.83458828  0.50125277  1
  Fe  Fe52  1  0.66719341  0.66867324  0.66864802  1
  Fe  Fe53  1  0.83458652  0.83461453  0.83456103  1
" 