6729,Fe9Cr91_16,-222.043707256646, 122.083934721229,Fe9Cr91,"# generated using pymatgen
 data_Cr2Fe25
_symmetry_space_group_name_H-M   'P 1'
_cell_length_a   7.44931843
_cell_length_b   7.44931843
_cell_length_c   10.53492715
_cell_angle_alpha   90.00000000
_cell_angle_beta   90.00000000
_cell_angle_gamma   90.00000000
_symmetry_Int_Tables_number   1
_chemical_formula_structural   Cr2Fe25
_chemical_formula_sum   'Cr4 Fe50'
_cell_volume   584.60781262
_cell_formula_units_Z   2
loop_
 _symmetry_equiv_pos_site_id
 _symmetry_equiv_pos_as_xyz
  1  'x, y, z'
loop_
 _atom_site_type_symbol
 _atom_site_label
 _atom_site_symmetry_multiplicity
 _atom_site_fract_x
 _atom_site_fract_y
 _atom_site_fract_z
 _atom_site_occupancy
  Fe  Fe0  1  1.00057388  0.00231748  1.00001023  1
  Fe  Fe1  1  0.16696161  0.16872813  0.16874832  1
  Fe  Fe2  1  1.00030999  0.00204138  0.33570046  1
  Fe  Fe3  1  0.99945973  0.33452332  1.00116050  1
  Fe  Fe4  1  0.16696161  0.50031851  0.16874832  1
  Fe  Fe5  1  0.00124399  0.33452332  0.33452545  1
  Fe  Fe6  1  1.00057388  0.66672916  1.00001023  1
  Cr  Cr7  1  0.16848597  0.83452332  0.16723018  1
  Fe  Fe8  1  1.00030999  0.66700526  0.33570046  1
  Fe  Fe9  1  0.33539020  1.00031588  1.00027499  1
  Fe  Fe10  1  0.50181233  0.16669401  0.16874666  1
  Fe  Fe11  1  0.33538145  0.00209960  0.33540255  1
  Cr  Cr12  1  0.33485593  0.33452332  0.00277432  1
  Fe  Fe13  1  0.50181233  0.50235263  0.16874666  1
  Fe  Fe14  1  0.33449863  0.33452332  0.33422242  1
  Fe  Fe15  1  0.33539020  0.66873076  1.00027499  1
  Fe  Fe16  1  0.50292731  0.83452332  0.16782977  1
  Fe  Fe17  1  0.33538145  0.66694704  0.33540255  1
  Fe  Fe18  1  0.66761085  0.00143313  0.00119017  1
  Fe  Fe19  1  0.83479465  0.16761449  0.16782930  1
  Fe  Fe20  1  0.66788173  1.00116163  0.33452439  1
  Fe  Fe21  1  0.66961748  0.33452332  0.00119492  1
  Fe  Fe22  1  0.83479465  0.50143215  0.16782930  1
  Fe  Fe23  1  0.66782703  0.33452332  0.33448953  1
  Fe  Fe24  1  0.66761085  0.66761351  0.00119017  1
  Fe  Fe25  1  0.83277003  0.83452332  0.16785387  1
  Fe  Fe26  1  0.66788173  0.66788501  0.33452439  1
  Fe  Fe27  1  0.16871863  0.16872189  0.50029990  1
  Cr  Cr28  1  1.00070878  0.00161911  0.66737724  1
  Fe  Fe29  1  0.16783743  0.16783994  0.83453376  1
  Fe  Fe30  1  0.16871863  0.50032475  0.50029990  1
  Fe  Fe31  1  0.00121625  0.33452332  0.66788444  1
  Fe  Fe32  1  0.16783743  0.50120670  0.83453376  1
  Fe  Fe33  1  0.16963626  0.83452332  0.49914447  1
  Cr  Cr34  1  1.00070878  0.66742753  0.66737724  1
  Fe  Fe35  1  0.16965434  0.83452332  0.83658798  1
  Fe  Fe36  1  0.50119049  0.16783095  0.50122106  1
  Fe  Fe37  1  0.33602483  1.00094586  0.66788462  1
  Fe  Fe38  1  0.50207037  0.16695201  0.83361581  1
  Fe  Fe39  1  0.50119049  0.50121569  0.50122106  1
  Fe  Fe40  1  0.33398724  0.33452332  0.66812527  1
  Fe  Fe41  1  0.50207037  0.50209463  0.83361581  1
  Fe  Fe42  1  0.50116338  0.83452332  0.50121573  1
  Fe  Fe43  1  0.33602483  0.66810078  0.66788462  1
  Fe  Fe44  1  0.50113721  0.83452332  0.83452410  1
  Fe  Fe45  1  0.83365895  0.16875121  0.50032771  1
  Fe  Fe46  1  0.66634815  1.00091818  0.66785565  1
  Fe  Fe47  1  0.83366212  0.16877385  0.83540837  1
  Fe  Fe48  1  0.83365895  0.50029543  0.50032771  1
  Fe  Fe49  1  0.66836765  0.33452332  0.66788496  1
  Fe  Fe50  1  0.83366212  0.50027279  0.83540837  1
  Fe  Fe51  1  0.83276547  0.83452332  0.49938181  1
  Fe  Fe52  1  0.66634815  0.66812847  0.66785565  1
  Fe  Fe53  1  0.83277248  0.83452332  0.83632714  1
" 