4274,Fe9Cr91_5,-222.01361779889, 118.710706321322,Fe9Cr91,"# generated using pymatgen
 data_Cr2Fe25
_symmetry_space_group_name_H-M   'P 1'
_cell_length_a   7.44823737
_cell_length_b   7.44823737
_cell_length_c   10.53339830
_cell_angle_alpha   90.00000000
_cell_angle_beta   90.00000000
_cell_angle_gamma   90.00000000
_symmetry_Int_Tables_number   1
_chemical_formula_structural   Cr2Fe25
_chemical_formula_sum   'Cr4 Fe50'
_cell_volume   584.35333133
_cell_formula_units_Z   2
loop_
 _symmetry_equiv_pos_site_id
 _symmetry_equiv_pos_as_xyz
  1  'x, y, z'
loop_
 _atom_site_type_symbol
 _atom_site_label
 _atom_site_symmetry_multiplicity
 _atom_site_fract_x
 _atom_site_fract_y
 _atom_site_fract_z
 _atom_site_occupancy
  Fe  Fe0  1  0.00126370  1.00125894  0.00126448  1
  Fe  Fe1  1  0.16795908  0.16790212  0.16799039  1
  Fe  Fe2  1  0.00151765  0.00274084  0.33285939  1
  Fe  Fe3  1  0.00126375  0.33459708  0.00126459  1
  Fe  Fe4  1  0.16704875  0.50040913  0.16708107  1
  Fe  Fe5  1  0.00152409  0.33485604  0.33465509  1
  Fe  Fe6  1  0.00129040  0.66793216  0.00129315  1
  Fe  Fe7  1  0.16704830  0.83547692  0.16736832  1
  Fe  Fe8  1  0.99950113  0.66619191  0.33285889  1
  Fe  Fe9  1  0.33459606  1.00123233  0.00129305  1
  Fe  Fe10  1  0.50123305  0.16790212  0.16799039  1
  Fe  Fe11  1  0.33459606  0.00475874  0.33285759  1
  Fe  Fe12  1  0.33459606  0.33462383  0.00129338  1
  Fe  Fe13  1  0.50214338  0.50040913  0.16708107  1
  Fe  Fe14  1  0.33459606  0.33283416  0.33465471  1
  Fe  Fe15  1  0.33459606  0.66793209  0.00152564  1
  Fe  Fe16  1  0.50214383  0.83547692  0.16736832  1
  Cr  Cr17  1  0.33459606  0.66667639  0.33334506  1
  Fe  Fe18  1  0.66792843  1.00125894  0.00126448  1
  Fe  Fe19  1  0.83459606  0.16790105  0.16796419  1
  Fe  Fe20  1  0.66767448  0.00274084  0.33285939  1
  Fe  Fe21  1  0.66792838  0.33459708  0.00126459  1
  Fe  Fe22  1  0.83459606  0.50132005  0.16798972  1
  Fe  Fe23  1  0.66766804  0.33485604  0.33465509  1
  Fe  Fe24  1  0.66790173  0.66793216  0.00129315  1
  Fe  Fe25  1  0.83459606  0.83456703  0.16827854  1
  Fe  Fe26  1  0.66969100  0.66619191  0.33285889  1
  Fe  Fe27  1  0.16795814  0.16918594  0.50123464  1
  Fe  Fe28  1  1.00125472  0.00299911  0.66966367  1
  Fe  Fe29  1  0.16793043  0.16790087  0.83456293  1
  Fe  Fe30  1  0.16704886  0.49913079  0.50214225  1
  Fe  Fe31  1  0.00126322  0.33459631  0.66786853  1
  Fe  Fe32  1  0.16793028  0.50129201  0.83456312  1
  Cr  Cr33  1  0.16698545  0.83552959  0.50219624  1
  Fe  Fe34  1  0.00128309  0.66619239  0.66963586  1
  Fe  Fe35  1  0.16793023  0.83459528  0.83427499  1
  Fe  Fe36  1  0.50123399  0.16918594  0.50123464  1
  Fe  Fe37  1  0.33459606  0.00297948  0.66964240  1
  Fe  Fe38  1  0.50126170  0.16790087  0.83456293  1
  Fe  Fe39  1  0.50214327  0.49913079  0.50214225  1
  Fe  Fe40  1  0.33459606  0.33462277  0.66784033  1
  Fe  Fe41  1  0.50126185  0.50129201  0.83456312  1
  Cr  Cr42  1  0.50220668  0.83552959  0.50219624  1
  Fe  Fe43  1  0.33459606  0.66618691  0.66940973  1
  Fe  Fe44  1  0.50126190  0.83459528  0.83427499  1
  Fe  Fe45  1  0.83459606  0.16917162  0.50126128  1
  Fe  Fe46  1  0.66793741  0.00299911  0.66966367  1
  Fe  Fe47  1  0.83459606  0.16790092  0.83456291  1
  Fe  Fe48  1  0.83459606  0.50004488  0.50123534  1
  Fe  Fe49  1  0.66792891  0.33459631  0.66786853  1
  Fe  Fe50  1  0.83459606  0.50129220  0.83456310  1
  Cr  Cr51  1  0.83459606  0.83397305  0.50064094  1
  Fe  Fe52  1  0.66790904  0.66619239  0.66963586  1
  Fe  Fe53  1  0.83459606  0.83459508  0.83427434  1
" 