2494,Fe9Cr91_1,-222.067749791195, 120.532721855463,Fe9Cr91,"# generated using pymatgen
 data_Cr2Fe25
_symmetry_space_group_name_H-M   'P 1'
_cell_length_a   7.44876639
_cell_length_b   7.44876639
_cell_length_c   10.53414646
_cell_angle_alpha   90.00000000
_cell_angle_beta   90.00000000
_cell_angle_gamma   90.00000000
_symmetry_Int_Tables_number   1
_chemical_formula_structural   Cr2Fe25
_chemical_formula_sum   'Cr4 Fe50'
_cell_volume   584.47785432
_cell_formula_units_Z   2
loop_
 _symmetry_equiv_pos_site_id
 _symmetry_equiv_pos_as_xyz
  1  'x, y, z'
loop_
 _atom_site_type_symbol
 _atom_site_label
 _atom_site_symmetry_multiplicity
 _atom_site_fract_x
 _atom_site_fract_y
 _atom_site_fract_z
 _atom_site_occupancy
  Cr  Cr0  1  1.00109245  1.00081055  0.00136554  1
  Fe  Fe1  1  0.16868884  0.16866380  0.16874115  1
  Fe  Fe2  1  0.00256835  0.00148560  0.33435125  1
  Fe  Fe3  1  1.00120231  0.33609963  0.00125477  1
  Fe  Fe4  1  0.16786718  0.50119977  0.16789643  1
  Fe  Fe5  1  0.00256349  0.33427728  0.33455933  1
  Fe  Fe6  1  1.00122578  0.66635098  0.00122981  1
  Fe  Fe7  1  0.16866549  0.83381700  0.16869230  1
  Fe  Fe8  1  1.00076200  0.66791833  0.33453505  1
  Fe  Fe9  1  0.33612724  0.00122828  0.00125509  1
  Fe  Fe10  1  0.49965954  0.16786856  0.16653574  1
  Fe  Fe11  1  0.33242080  1.00067753  0.33375231  1
  Fe  Fe12  1  0.33435144  0.33432434  0.00125529  1
  Fe  Fe13  1  0.50046971  0.50198742  0.16716121  1
  Fe  Fe14  1  0.33244322  0.33510971  0.33377780  1
  Fe  Fe15  1  0.33432774  0.66812889  0.00123019  1
  Fe  Fe16  1  0.50046808  0.83382612  0.16713553  1
  Fe  Fe17  1  0.33505131  0.66789412  0.33458412  1
  Fe  Fe18  1  0.66635076  0.00125176  0.00148640  1
  Fe  Fe19  1  0.83533382  0.16866920  0.16712399  1
  Cr  Cr20  1  0.66927185  0.99958092  0.33318013  1
  Fe  Fe21  1  0.66812754  0.33430119  0.00148670  1
  Fe  Fe22  1  0.83534420  0.50201147  0.16711146  1
  Cr  Cr23  1  0.66830223  0.33662685  0.33415150  1
  Fe  Fe24  1  0.66812787  0.66812864  0.00128102  1
  Fe  Fe25  1  0.83454900  0.83300062  0.16790473  1
  Fe  Fe26  1  0.66786772  0.66789423  0.33458470  1
  Fe  Fe27  1  0.16632472  0.16789316  0.50117604  1
  Fe  Fe28  1  1.00120262  0.00125438  0.66807598  1
  Fe  Fe29  1  0.16868830  0.16866330  0.83376415  1
  Fe  Fe30  1  0.16812536  0.50096703  0.50120012  1
  Fe  Fe31  1  1.00120260  0.33450830  0.66786737  1
  Fe  Fe32  1  0.16786721  0.50122534  0.83458484  1
  Fe  Fe33  1  0.16812535  0.83482118  0.50120020  1
  Fe  Fe34  1  1.00122540  0.66791872  0.66791650  1
  Fe  Fe35  1  0.16866486  0.83379207  0.83378931  1
  Cr  Cr36  1  0.49957157  0.16789153  0.50288021  1
  Fe  Fe37  1  0.33377572  1.00044322  0.66867724  1
  Fe  Fe38  1  0.50122852  0.16786638  0.83435221  1
  Fe  Fe39  1  0.50047092  0.50357512  0.50198464  1
  Fe  Fe40  1  0.33379978  0.33534352  0.66865145  1
  Fe  Fe41  1  0.50122882  0.50120152  0.83453462  1
  Fe  Fe42  1  0.50047281  0.83221504  0.50198284  1
  Fe  Fe43  1  0.33458784  0.66789475  0.66786705  1
  Fe  Fe44  1  0.50122880  0.83461351  0.83455920  1
  Fe  Fe45  1  0.83768537  0.16789339  0.50278930  1
  Fe  Fe46  1  0.66870222  1.00046754  0.66844501  1
  Fe  Fe47  1  0.83376447  0.16866356  0.83376394  1
  Fe  Fe48  1  0.83508659  0.50177995  0.50198536  1
  Fe  Fe49  1  0.66867819  0.33531925  0.66841892  1
  Fe  Fe50  1  0.83458536  0.50122560  0.83458488  1
  Fe  Fe51  1  0.83508595  0.83400864  0.50198512  1
  Fe  Fe52  1  0.66786814  0.66789468  0.66781596  1
  Fe  Fe53  1  0.83378757  0.83379157  0.83378900  1
" 