7433,Fe9Cr91_10,-222.037185520514, 122.588122539098,Fe9Cr91,"# generated using pymatgen
 data_Cr2Fe25
_symmetry_space_group_name_H-M   'P 1'
_cell_length_a   7.44552169
_cell_length_b   7.44552169
_cell_length_c   10.52955776
_cell_angle_alpha   90.00000000
_cell_angle_beta   90.00000000
_cell_angle_gamma   90.00000000
_symmetry_Int_Tables_number   1
_chemical_formula_structural   Cr2Fe25
_chemical_formula_sum   'Cr4 Fe50'
_cell_volume   583.71438761
_cell_formula_units_Z   2
loop_
 _symmetry_equiv_pos_site_id
 _symmetry_equiv_pos_as_xyz
  1  'x, y, z'
loop_
 _atom_site_type_symbol
 _atom_site_label
 _atom_site_symmetry_multiplicity
 _atom_site_fract_x
 _atom_site_fract_y
 _atom_site_fract_z
 _atom_site_occupancy
  Fe  Fe0  1  1.00139396  1.00144325  0.00144613  1
  Fe  Fe1  1  0.16787956  0.16832414  0.16813873  1
  Fe  Fe2  1  1.00064439  0.00221737  0.33398200  1
  Fe  Fe3  1  0.00302081  0.33322797  1.00142142  1
  Fe  Fe4  1  0.16963322  0.50146725  0.16811232  1
  Fe  Fe5  1  0.00226689  0.33400499  0.33560213  1
  Fe  Fe6  1  0.00299100  0.66966105  1.00144525  1
  Fe  Fe7  1  0.16788012  0.83454568  0.16834875  1
  Fe  Fe8  1  0.00144607  0.66811612  0.33478166  1
  Fe  Fe9  1  0.33477769  0.00146743  1.00141979  1
  Fe  Fe10  1  0.50167988  0.16834900  0.16811271  1
  Fe  Fe11  1  0.33555752  0.00224719  0.33402413  1
  Fe  Fe12  1  0.33477806  0.33482988  1.00121005  1
  Fe  Fe13  1  0.49991957  0.50144296  0.16808633  1
  Fe  Fe14  1  0.33475404  0.33480533  0.33501447  1
  Fe  Fe15  1  0.33477800  0.66803958  1.00142071  1
  Fe  Fe16  1  0.50165522  0.83454494  0.16813874  1
  Fe  Fe17  1  0.33555432  0.66728750  0.33400566  1
  Fe  Fe18  1  0.66816509  1.00144338  0.00144609  1
  Fe  Fe19  1  0.83477749  0.16658848  0.16808633  1
  Fe  Fe20  1  0.66813998  1.00141880  0.33477843  1
  Fe  Fe21  1  0.66653495  0.33322470  1.00142140  1
  Cr  Cr22  1  0.83436144  0.50102682  0.16796930  1
  Fe  Fe23  1  0.66731371  0.33400356  0.33558292  1
  Fe  Fe24  1  0.66656491  0.66966410  1.00144518  1
  Fe  Fe25  1  0.83480175  0.83629860  0.16811232  1
  Fe  Fe26  1  0.66733967  0.66891270  0.33557661  1
  Fe  Fe27  1  0.16733571  0.16888772  0.50066658  1
  Fe  Fe28  1  1.00087554  0.00245755  0.66891293  1
  Fe  Fe29  1  0.16710104  0.16754359  0.83552951  1
  Fe  Fe30  1  0.16728455  0.50068189  0.50066409  1
  Fe  Fe31  1  1.00069194  0.33399740  0.66730680  1
  Fe  Fe32  1  0.16885774  0.50225016  0.83556028  1
  Cr  Cr33  1  0.16949370  0.83561347  0.50199093  1
  Fe  Fe34  1  0.00168064  0.66787924  0.66810984  1
  Fe  Fe35  1  0.16790476  0.83454699  0.83451773  1
  Fe  Fe36  1  0.50198338  0.16709762  0.50067078  1
  Fe  Fe37  1  0.33556408  1.00067965  0.66889878  1
  Fe  Fe38  1  0.50245655  0.16757078  0.83555320  1
  Fe  Fe39  1  0.50203557  0.50245834  0.50066830  1
  Cr  Cr40  1  0.33423256  0.33532637  0.66811214  1
  Fe  Fe41  1  0.50069308  0.50222350  0.83558388  1
  Fe  Fe42  1  0.50297674  0.83478185  0.50146941  1
  Fe  Fe43  1  0.33556075  0.66886420  0.66891667  1
  Fe  Fe44  1  0.50163060  0.83454625  0.83472857  1
  Fe  Fe45  1  0.83501319  0.16794875  0.50146934  1
  Fe  Fe46  1  0.66790445  0.00165423  0.66811217  1
  Fe  Fe47  1  0.83477743  0.16660425  0.83478097  1
  Fe  Fe48  1  0.83501178  0.50165398  0.50146952  1
  Fe  Fe49  1  0.66888049  0.33399594  0.66732645  1
  Cr  Cr50  1  0.83436146  0.50048135  0.83437697  1
  Fe  Fe51  1  0.83324072  0.83473294  0.50144786  1
  Fe  Fe52  1  0.66710069  0.66868062  0.66731054  1
  Fe  Fe53  1  0.83480186  0.83629891  0.83477651  1
" 