1862,Fe9Cr91_6,-222.049079009808, 122.144585137758,Fe9Cr91,"# generated using pymatgen
 data_Cr2Fe25
_symmetry_space_group_name_H-M   'P 1'
_cell_length_a   7.44806154
_cell_length_b   7.44806154
_cell_length_c   10.53314964
_cell_angle_alpha   90.00000000
_cell_angle_beta   90.00000000
_cell_angle_gamma   90.00000000
_symmetry_Int_Tables_number   1
_chemical_formula_structural   Cr2Fe25
_chemical_formula_sum   'Cr4 Fe50'
_cell_volume   584.31194770
_cell_formula_units_Z   2
loop_
 _symmetry_equiv_pos_site_id
 _symmetry_equiv_pos_as_xyz
  1  'x, y, z'
loop_
 _atom_site_type_symbol
 _atom_site_label
 _atom_site_symmetry_multiplicity
 _atom_site_fract_x
 _atom_site_fract_y
 _atom_site_fract_z
 _atom_site_occupancy
  Fe  Fe0  1  1.00127095  1.00127192  1.00127189  1
  Cr  Cr1  1  0.16847837  0.16875892  0.16847711  1
  Fe  Fe2  1  1.00074087  1.00025957  0.33539068  1
  Fe  Fe3  1  1.00048949  0.33536600  1.00049246  1
  Fe  Fe4  1  0.16716829  0.50202530  0.16716890  1
  Fe  Fe5  1  1.00073982  0.33559992  0.33537144  1
  Fe  Fe6  1  0.00207758  0.66718706  0.00207806  1
  Fe  Fe7  1  0.16716916  0.83386442  0.16716980  1
  Fe  Fe8  1  0.99976280  0.66796720  0.33460808  1
  Fe  Fe9  1  0.33536734  1.00046708  1.00051839  1
  Fe  Fe10  1  0.50276985  0.16791959  0.16798995  1
  Fe  Fe11  1  0.33461366  0.00279563  0.33461258  1
  Fe  Fe12  1  0.33536956  0.33539170  1.00053831  1
  Fe  Fe13  1  0.50181254  0.50029781  0.16719861  1
  Fe  Fe14  1  0.33539860  0.33383920  0.33539668  1
  Fe  Fe15  1  0.33458416  0.66796755  0.00150502  1
  Fe  Fe16  1  0.50183666  0.83560477  0.16737770  1
  Cr  Cr17  1  0.33327630  0.66714812  0.33327849  1
  Fe  Fe18  1  0.66718435  0.00205625  0.00205479  1
  Fe  Fe19  1  0.83309438  0.16791901  0.16791786  1
  Fe  Fe20  1  0.66847835  0.00183429  0.33382037  1
  Fe  Fe21  1  0.66796652  0.33458175  0.00127464  1
  Fe  Fe22  1  0.83483889  0.50109206  0.16793997  1
  Fe  Fe23  1  0.66768843  0.33481087  0.33460744  1
  Fe  Fe24  1  0.66715907  0.66718441  0.00205971  1
  Fe  Fe25  1  0.83481399  0.83481204  0.16776023  1
  Fe  Fe26  1  0.67022581  0.66718058  0.33384392  1
  Fe  Fe27  1  0.16819532  0.16771429  0.50101994  1
  Fe  Fe28  1  0.00203401  0.00201066  0.66715843  1
  Fe  Fe29  1  0.16771174  0.16771217  0.83483852  1
  Fe  Fe30  1  0.16740468  0.50071321  0.50201425  1
  Fe  Fe31  1  1.00124913  0.33460629  0.66796345  1
  Fe  Fe32  1  0.16771124  0.50148200  0.83463339  1
  Fe  Fe33  1  0.16563803  0.83539277  0.50203748  1
  Fe  Fe34  1  0.00205924  0.66720588  0.66713176  1
  Fe  Fe35  1  0.16947436  0.83462985  0.83460770  1
  Fe  Fe36  1  0.50122596  0.16946989  0.50122554  1
  Fe  Fe37  1  0.33383914  0.00199475  0.66870744  1
  Fe  Fe38  1  0.50148089  0.16768732  0.83460784  1
  Fe  Fe39  1  0.50203520  0.49898816  0.50203519  1
  Fe  Fe40  1  0.33463230  0.33462962  0.66789364  1
  Fe  Fe41  1  0.50150493  0.50153033  0.83458255  1
  Cr  Cr42  1  0.50301469  0.83499471  0.50301529  1
  Fe  Fe43  1  0.33383866  0.66719896  0.66850359  1
  Fe  Fe44  1  0.49975322  0.83460619  0.83437713  1
  Fe  Fe45  1  0.83440157  0.16768831  0.50127241  1
  Fe  Fe46  1  0.66795140  0.00281444  0.66795073  1
  Fe  Fe47  1  0.83463163  0.16945417  0.83463341  1
  Fe  Fe48  1  0.83437843  0.50155351  0.50127592  1
  Fe  Fe49  1  0.66794228  0.33460588  0.66794148  1
  Fe  Fe50  1  0.83460794  0.49975807  0.83460812  1
  Fe  Fe51  1  0.83614390  0.83458171  0.50148188  1
  Fe  Fe52  1  0.66792659  0.66640201  0.66792426  1
  Cr  Cr53  1  0.83366421  0.83419829  0.83366211  1
" 