8491,Fe9Cr91_11,-222.077661278209, 122.301527198509,Fe9Cr91,"# generated using pymatgen
 data_Cr2Fe25
_symmetry_space_group_name_H-M   'P 1'
_cell_length_a   7.44355807
_cell_length_b   7.44355807
_cell_length_c   10.52678077
_cell_angle_alpha   90.00000000
_cell_angle_beta   90.00000000
_cell_angle_gamma   90.00000000
_symmetry_Int_Tables_number   1
_chemical_formula_structural   Cr2Fe25
_chemical_formula_sum   'Cr4 Fe50'
_cell_volume   583.25267596
_cell_formula_units_Z   2
loop_
 _symmetry_equiv_pos_site_id
 _symmetry_equiv_pos_as_xyz
  1  'x, y, z'
loop_
 _atom_site_type_symbol
 _atom_site_label
 _atom_site_symmetry_multiplicity
 _atom_site_fract_x
 _atom_site_fract_y
 _atom_site_fract_z
 _atom_site_occupancy
  Fe  Fe0  1  1.00153282  0.99844873  0.00164759  1
  Cr  Cr1  1  0.16842922  0.16766933  0.16837130  1
  Fe  Fe2  1  1.00045720  1.00054480  0.33599278  1
  Cr  Cr3  1  1.00153584  0.33692555  1.00115722  1
  Fe  Fe4  1  0.16933410  0.50422332  0.16942277  1
  Fe  Fe5  1  1.00052165  0.33577087  0.33544525  1
  Fe  Fe6  1  0.00158238  0.67045995  1.00112500  1
  Fe  Fe7  1  0.16845831  0.83282040  0.16849559  1
  Fe  Fe8  1  1.00144862  0.66837931  0.33550626  1
  Fe  Fe9  1  0.33585728  1.00084669  1.00073832  1
  Fe  Fe10  1  0.50311155  0.16813693  0.16847414  1
  Fe  Fe11  1  0.33628526  1.00055695  0.33594369  1
  Fe  Fe12  1  0.33759909  0.33579316  1.00087049  1
  Fe  Fe13  1  0.50104264  0.50150091  0.16851464  1
  Fe  Fe14  1  0.33619085  0.33572300  0.33583536  1
  Fe  Fe15  1  0.33473140  0.66785884  1.00147817  1
  Fe  Fe16  1  0.50103424  0.83511649  0.16831232  1
  Fe  Fe17  1  0.33531912  0.66842242  0.33507225  1
  Fe  Fe18  1  0.66744864  1.00096552  0.00256987  1
  Fe  Fe19  1  0.83249466  0.16746551  0.16867260  1
  Fe  Fe20  1  0.66795805  1.00150497  0.33502946  1
  Fe  Fe21  1  0.66570150  0.33568140  0.00243184  1
  Fe  Fe22  1  0.83418809  0.50248585  0.16946836  1
  Fe  Fe23  1  0.66798983  0.33482263  0.33498579  1
  Fe  Fe24  1  0.66841288  0.66785854  0.00187747  1
  Fe  Fe25  1  0.83522599  0.83509948  0.16846900  1
  Fe  Fe26  1  0.66797224  0.66840420  0.33487457  1
  Fe  Fe27  1  0.16843938  0.16829157  0.50094745  1
  Fe  Fe28  1  0.00295568  0.00192167  0.66679712  1
  Fe  Fe29  1  0.17116156  0.16730247  0.83443103  1
  Fe  Fe30  1  0.16921350  0.50095015  0.50067200  1
  Fe  Fe31  1  0.00289048  0.33400431  0.66739054  1
  Fe  Fe32  1  0.17065509  0.50136876  0.83473631  1
  Fe  Fe33  1  0.16914726  0.83541692  0.50077449  1
  Cr  Cr34  1  1.00124490  0.66793637  0.66898625  1
  Fe  Fe35  1  0.16912843  0.83631400  0.83581222  1
  Fe  Fe36  1  0.50158132  0.16826157  0.50166099  1
  Fe  Fe37  1  0.33467905  1.00098815  0.66798496  1
  Fe  Fe38  1  0.50017934  0.16814015  0.83461527  1
  Fe  Fe39  1  0.50158308  0.50177239  0.50146252  1
  Fe  Fe40  1  0.33461782  0.33535415  0.66803343  1
  Fe  Fe41  1  0.50210421  0.50139062  0.83474975  1
  Fe  Fe42  1  0.50158291  0.83470026  0.50146092  1
  Fe  Fe43  1  0.33664021  0.66839362  0.66817926  1
  Fe  Fe44  1  0.50211220  0.83522413  0.83495067  1
  Fe  Fe45  1  0.83471989  0.16829181  0.50199560  1
  Fe  Fe46  1  0.66733998  0.99993196  0.66701076  1
  Cr  Cr47  1  0.83489174  0.16749488  0.83424210  1
  Fe  Fe48  1  0.83383448  0.50086349  0.50065811  1
  Fe  Fe49  1  0.66746617  0.33636123  0.66712487  1
  Fe  Fe50  1  0.83193339  0.50314844  0.83499411  1
  Fe  Fe51  1  0.83390250  0.83550156  0.50077415  1
  Fe  Fe52  1  0.66604336  0.66841295  0.66799229  1
  Fe  Fe53  1  0.83329213  0.83398023  0.83598427  1
" 