8583,Fe9Cr91_0,-222.076599769507, 120.779571901042,Fe9Cr91,"# generated using pymatgen
 data_Cr2Fe25
_symmetry_space_group_name_H-M   'P 1'
_cell_length_a   7.44782385
_cell_length_b   7.44782385
_cell_length_c   10.53281350
_cell_angle_alpha   90.00000000
_cell_angle_beta   90.00000000
_cell_angle_gamma   90.00000000
_symmetry_Int_Tables_number   1
_chemical_formula_structural   Cr2Fe25
_chemical_formula_sum   'Cr4 Fe50'
_cell_volume   584.25600893
_cell_formula_units_Z   2
loop_
 _symmetry_equiv_pos_site_id
 _symmetry_equiv_pos_as_xyz
  1  'x, y, z'
loop_
 _atom_site_type_symbol
 _atom_site_label
 _atom_site_symmetry_multiplicity
 _atom_site_fract_x
 _atom_site_fract_y
 _atom_site_fract_z
 _atom_site_occupancy
  Fe  Fe0  1  0.00129056  0.00451770  0.00129056  1
  Fe  Fe1  1  0.16768901  0.16769207  0.16790482  1
  Fe  Fe2  1  0.00209524  0.00206861  0.33540099  1
  Fe  Fe3  1  0.00129056  0.33300255  0.00129056  1
  Fe  Fe4  1  0.16855258  0.50074643  0.16876763  1
  Fe  Fe5  1  1.00126356  0.33467765  0.33459598  1
  Cr  Cr6  1  0.00129056  0.66625500  0.00129056  1
  Fe  Fe7  1  0.17037623  0.83543113  0.16852587  1
  Fe  Fe8  1  0.00209470  0.66712647  0.33521246  1
  Fe  Fe9  1  0.33519103  0.00182766  0.00212159  1
  Fe  Fe10  1  0.50153117  0.16774056  0.16798243  1
  Fe  Fe11  1  0.33465070  1.00126111  0.33462256  1
  Fe  Fe12  1  0.33435573  0.33486457  1.00126529  1
  Fe  Fe13  1  0.50153020  0.50156022  0.16817248  1
  Fe  Fe14  1  0.33382536  0.33382832  0.33382501  1
  Fe  Fe15  1  0.33704677  0.66718181  0.00211995  1
  Fe  Fe16  1  0.49965786  0.83457055  0.16793075  1
  Fe  Fe17  1  0.33380189  0.66878101  0.33377455  1
  Fe  Fe18  1  0.66739009  0.00182766  1.00045953  1
  Fe  Fe19  1  0.83465147  0.16956887  0.16793123  1
  Fe  Fe20  1  0.66712666  0.00209249  0.33545184  1
  Fe  Fe21  1  0.66822540  0.33486457  0.00131584  1
  Fe  Fe22  1  0.83378992  0.49887634  0.16879302  1
  Fe  Fe23  1  0.66878262  0.33382760  0.33379986  1
  Fe  Fe24  1  0.66553436  0.66718181  1.00046118  1
  Cr  Cr25  1  0.83477111  0.83590853  0.16780737  1
  Fe  Fe26  1  0.66797598  0.66795143  0.33460294  1
  Fe  Fe27  1  0.16819830  0.16817332  0.50131700  1
  Fe  Fe28  1  1.00048588  0.00206861  0.66718013  1
  Fe  Fe29  1  0.16792965  0.16956887  0.83464990  1
  Fe  Fe30  1  0.16636242  0.50131781  0.50131673  1
  Fe  Fe31  1  0.00131756  0.33467765  0.66798514  1
  Fe  Fe32  1  0.16879121  0.49887634  0.83378811  1
  Fe  Fe33  1  0.16817307  0.83438083  0.50150433  1
  Fe  Fe34  1  1.00048643  0.66712647  0.66736867  1
  Cr  Cr35  1  0.16781001  0.83590853  0.83477375  1
  Fe  Fe36  1  0.50129056  0.16635996  0.50129056  1
  Fe  Fe37  1  0.33545446  0.00209249  0.66712929  1
  Fe  Fe38  1  0.50104995  0.16774056  0.83459869  1
  Cr  Cr39  1  0.50129056  0.50043038  0.50129056  1
  Fe  Fe40  1  0.33379851  0.33382760  0.66878126  1
  Fe  Fe41  1  0.50105093  0.50156022  0.83440865  1
  Fe  Fe42  1  0.50129056  0.83621400  0.50129056  1
  Fe  Fe43  1  0.33460514  0.66795143  0.66797819  1
  Fe  Fe44  1  0.50292327  0.83457055  0.83465037  1
  Fe  Fe45  1  0.83438282  0.16817332  0.50126413  1
  Fe  Fe46  1  0.66793042  1.00126111  0.66795857  1
  Fe  Fe47  1  0.83489212  0.16769207  0.83467630  1
  Fe  Fe48  1  0.83621871  0.50131781  0.50126439  1
  Fe  Fe49  1  0.66875577  0.33382832  0.66875611  1
  Fe  Fe50  1  0.83402855  0.50074643  0.83381349  1
  Fe  Fe51  1  0.83440805  0.83438083  0.50107680  1
  Fe  Fe52  1  0.66877924  0.66878101  0.66880657  1
  Fe  Fe53  1  0.83220489  0.83543113  0.83405526  1
" 