3285,Fe9Cr91_14,-222.069177006872, 122.201509702775,Fe9Cr91,"# generated using pymatgen
 data_Cr2Fe25
_symmetry_space_group_name_H-M   'P 1'
_cell_length_a   7.44350140
_cell_length_b   7.44350140
_cell_length_c   10.52670064
_cell_angle_alpha   90.00000000
_cell_angle_beta   90.00000000
_cell_angle_gamma   90.00000000
_symmetry_Int_Tables_number   1
_chemical_formula_structural   Cr2Fe25
_chemical_formula_sum   'Cr4 Fe50'
_cell_volume   583.23935580
_cell_formula_units_Z   2
loop_
 _symmetry_equiv_pos_site_id
 _symmetry_equiv_pos_as_xyz
  1  'x, y, z'
loop_
 _atom_site_type_symbol
 _atom_site_label
 _atom_site_symmetry_multiplicity
 _atom_site_fract_x
 _atom_site_fract_y
 _atom_site_fract_z
 _atom_site_occupancy
  Fe  Fe0  1  1.00132677  1.00134848  1.00155093  1
  Fe  Fe1  1  0.16826986  0.16827311  0.16824572  1
  Fe  Fe2  1  1.00132443  0.00184525  0.33491642  1
  Fe  Fe3  1  1.00130082  0.33517265  1.00155737  1
  Fe  Fe4  1  0.16826902  0.50158390  0.16822361  1
  Fe  Fe5  1  0.00328578  0.33491258  0.33491666  1
  Fe  Fe6  1  0.00330374  0.66822347  1.00155124  1
  Fe  Fe7  1  0.16824254  0.83488803  0.16822891  1
  Fe  Fe8  1  1.00129690  0.66798694  0.33488758  1
  Fe  Fe9  1  0.33433121  1.00045687  0.00241841  1
  Fe  Fe10  1  0.50075305  0.16741643  0.16708238  1
  Fe  Fe11  1  0.33517500  0.00184550  0.33491651  1
  Fe  Fe12  1  0.33346502  0.33516810  0.00333541  1
  Fe  Fe13  1  0.49985089  0.50154813  0.16797331  1
  Fe  Fe14  1  0.33321379  0.33491259  0.33491668  1
  Fe  Fe15  1  0.33235775  0.66911396  0.00241809  1
  Fe  Fe16  1  0.50074310  0.83578165  0.16908548  1
  Fe  Fe17  1  0.33520246  0.66798669  0.33488778  1
  Fe  Fe18  1  0.66909173  0.00245940  0.00245271  1
  Fe  Fe19  1  0.83572324  0.16738887  0.16734397  1
  Fe  Fe20  1  0.66824568  0.99986266  0.33488776  1
  Fe  Fe21  1  0.66997696  0.33319843  0.00356989  1
  Fe  Fe22  1  0.83662449  0.50157714  0.16823113  1
  Cr  Cr23  1  0.66824913  0.33551171  0.33431426  1
  Cr  Cr24  1  0.66854607  0.66854916  0.00248023  1
  Fe  Fe25  1  0.83575783  0.83578020  0.16914163  1
  Fe  Fe26  1  0.66824566  0.66995461  0.33465542  1
  Fe  Fe27  1  0.16826970  0.16827319  0.50158101  1
  Fe  Fe28  1  0.00158639  0.00160924  0.66827754  1
  Fe  Fe29  1  0.16678926  0.16850723  0.83491784  1
  Fe  Fe30  1  0.16827002  0.50155805  0.50158126  1
  Fe  Fe31  1  1.00156031  0.33491218  0.66827079  1
  Fe  Fe32  1  0.16676984  0.50135011  0.83494085  1
  Fe  Fe33  1  0.16824340  0.83491369  0.50157561  1
  Fe  Fe34  1  1.00156025  0.66822350  0.66830601  1
  Fe  Fe35  1  0.16876151  0.83488850  0.83494056  1
  Fe  Fe36  1  0.50073403  0.16742336  0.50271656  1
  Fe  Fe37  1  0.33407801  1.00072342  0.66741589  1
  Cr  Cr38  1  0.50218136  0.16736399  0.83551373  1
  Fe  Fe39  1  0.50073131  0.50241107  0.50271975  1
  Fe  Fe40  1  0.33320866  0.33489903  0.66649483  1
  Cr  Cr41  1  0.50068176  0.50155926  0.83401653  1
  Fe  Fe42  1  0.50161096  0.83491304  0.50161037  1
  Fe  Fe43  1  0.33409280  0.66912138  0.66743249  1
  Fe  Fe44  1  0.50072150  0.83577325  0.83405264  1
  Fe  Fe45  1  0.83574210  0.16739569  0.50245582  1
  Fe  Fe46  1  0.66908293  1.00072055  0.66741255  1
  Fe  Fe47  1  0.83635765  0.16850597  0.83494001  1
  Fe  Fe48  1  0.83574463  0.50243854  0.50245924  1
  Fe  Fe49  1  0.66997589  0.33493057  0.66628965  1
  Fe  Fe50  1  0.83723904  0.50046370  0.83405513  1
  Fe  Fe51  1  0.83489061  0.83491314  0.50155253  1
  Fe  Fe52  1  0.66909037  0.66909267  0.66763692  1
  Fe  Fe53  1  0.83526250  0.83577889  0.83405410  1
" 