3839,Fe9Cr91_13,-222.060846886839, 121.289531253666,Fe9Cr91,"# generated using pymatgen
 data_Cr2Fe25
_symmetry_space_group_name_H-M   'P 1'
_cell_length_a   7.44783078
_cell_length_b   7.44783078
_cell_length_c   10.53282331
_cell_angle_alpha   90.00000000
_cell_angle_beta   90.00000000
_cell_angle_gamma   90.00000000
_symmetry_Int_Tables_number   1
_chemical_formula_structural   Cr2Fe25
_chemical_formula_sum   'Cr4 Fe50'
_cell_volume   584.25764048
_cell_formula_units_Z   2
loop_
 _symmetry_equiv_pos_site_id
 _symmetry_equiv_pos_as_xyz
  1  'x, y, z'
loop_
 _atom_site_type_symbol
 _atom_site_label
 _atom_site_symmetry_multiplicity
 _atom_site_fract_x
 _atom_site_fract_y
 _atom_site_fract_z
 _atom_site_occupancy
  Fe  Fe0  1  0.00309243  1.00125183  0.00134313  1
  Fe  Fe1  1  0.16855802  0.16796878  0.16796289  1
  Fe  Fe2  1  1.00126351  1.00125454  0.33457352  1
  Fe  Fe3  1  1.00097897  0.33431959  0.00131055  1
  Fe  Fe4  1  0.16648541  0.50158303  0.16793653  1
  Fe  Fe5  1  0.00131944  0.33465983  0.33464293  1
  Fe  Fe6  1  1.00095238  0.66829635  0.00131332  1
  Fe  Fe7  1  0.16638222  0.83432689  0.16796047  1
  Fe  Fe8  1  0.00129328  0.66795563  0.33463866  1
  Fe  Fe9  1  0.33196696  0.00218992  1.00037179  1
  Fe  Fe10  1  0.50031159  0.16882491  0.16893446  1
  Fe  Fe11  1  0.33363604  0.00225573  0.33560181  1
  Fe  Fe12  1  0.33395742  0.33336811  1.00002160  1
  Cr  Cr13  1  0.50185679  0.50053134  0.16737607  1
  Fe  Fe14  1  0.33367684  0.33375906  0.33588719  1
  Fe  Fe15  1  0.33302325  0.66826894  0.99941953  1
  Cr  Cr16  1  0.50032554  0.83441741  0.16890597  1
  Fe  Fe17  1  0.33271208  0.66785038  0.33651517  1
  Cr  Cr18  1  0.66881681  0.00160283  0.00155077  1
  Fe  Fe19  1  0.83502208  0.16896494  0.16894065  1
  Fe  Fe20  1  0.66896118  0.00220940  0.33523548  1
  Fe  Fe21  1  0.66898089  0.33546435  1.00027876  1
  Fe  Fe22  1  0.83620841  0.50158098  0.16796221  1
  Fe  Fe23  1  0.66890422  0.33369966  0.33556464  1
  Fe  Fe24  1  0.66989147  0.66627295  0.99944300  1
  Fe  Fe25  1  0.83704766  0.83336190  0.16891956  1
  Fe  Fe26  1  0.66988185  0.66795209  0.33645510  1
  Fe  Fe27  1  0.16691577  0.16699372  0.50041006  1
  Fe  Fe28  1  0.00160211  0.00158798  0.66795349  1
  Fe  Fe29  1  0.16695487  0.16704618  0.83545379  1
  Fe  Fe30  1  0.16692219  0.50222464  0.50035861  1
  Fe  Fe31  1  0.99950175  0.33466868  0.66791873  1
  Fe  Fe32  1  0.16696245  0.50218743  0.83554073  1
  Fe  Fe33  1  0.16790461  0.83466837  0.50132424  1
  Fe  Fe34  1  0.00163607  0.66761085  0.66791978  1
  Fe  Fe35  1  0.16789779  0.83465897  0.83457956  1
  Fe  Fe36  1  0.50223845  0.16700531  0.50035808  1
  Fe  Fe37  1  0.33462939  0.99953218  0.66795405  1
  Fe  Fe38  1  0.50127179  0.16797641  0.83459893  1
  Fe  Fe39  1  0.50224746  0.50223275  0.50003440  1
  Cr  Cr40  1  0.33408733  0.33520300  0.66740164  1
  Fe  Fe41  1  0.50219344  0.50218552  0.83583727  1
  Fe  Fe42  1  0.50130266  0.83464391  0.50097412  1
  Fe  Fe43  1  0.33460440  0.66974714  0.66791916  1
  Fe  Fe44  1  0.50037463  0.83371142  0.83401075  1
  Fe  Fe45  1  0.83469326  0.16794342  0.50135776  1
  Fe  Fe46  1  0.66764376  0.00157643  0.66826111  1
  Fe  Fe47  1  0.83562576  0.16887980  0.83363612  1
  Fe  Fe48  1  0.83467228  0.50125031  0.50132655  1
  Fe  Fe49  1  0.66968892  0.33464270  0.66795483  1
  Fe  Fe50  1  0.83468340  0.50124899  0.83457848  1
  Fe  Fe51  1  0.83466393  0.83467597  0.50135248  1
  Fe  Fe52  1  0.66763211  0.66764402  0.66795300  1
  Fe  Fe53  1  0.83560785  0.83372768  0.83363163  1
" 