2015,Fe9Cr91_4,-222.0556442021, 122.615578760101,Fe9Cr91,"# generated using pymatgen
 data_Cr2Fe25
_symmetry_space_group_name_H-M   'P 1'
_cell_length_a   7.44386222
_cell_length_b   7.44386222
_cell_length_c   10.52721091
_cell_angle_alpha   90.00000000
_cell_angle_beta   90.00000000
_cell_angle_gamma   90.00000000
_symmetry_Int_Tables_number   1
_chemical_formula_structural   Cr2Fe25
_chemical_formula_sum   'Cr4 Fe50'
_cell_volume   583.32417591
_cell_formula_units_Z   2
loop_
 _symmetry_equiv_pos_site_id
 _symmetry_equiv_pos_as_xyz
  1  'x, y, z'
loop_
 _atom_site_type_symbol
 _atom_site_label
 _atom_site_symmetry_multiplicity
 _atom_site_fract_x
 _atom_site_fract_y
 _atom_site_fract_z
 _atom_site_occupancy
  Fe  Fe0  1  1.00131831  1.00134185  0.00158416  1
  Fe  Fe1  1  0.16904110  0.16743237  0.16745673  1
  Fe  Fe2  1  0.00155994  0.99998761  0.33491517  1
  Fe  Fe3  1  1.00129336  0.33512912  0.00177008  1
  Fe  Fe4  1  0.16901258  0.50237346  0.16740975  1
  Cr  Cr5  1  1.00142675  0.33390862  0.33642910  1
  Fe  Fe6  1  0.00314051  0.66820088  0.00158413  1
  Fe  Fe7  1  0.16819652  0.83486309  0.16822394  1
  Fe  Fe8  1  1.00153417  0.66980817  0.33486588  1
  Fe  Fe9  1  0.33513194  1.00131650  0.00155745  1
  Fe  Fe10  1  0.50158521  0.16825122  0.16846400  1
  Fe  Fe11  1  0.33384345  1.00099067  0.33408590  1
  Fe  Fe12  1  0.33513185  0.33512965  0.00155741  1
  Fe  Fe13  1  0.50076667  0.50071435  0.16906675  1
  Fe  Fe14  1  0.33569691  0.33569734  0.33411001  1
  Fe  Fe15  1  0.33330382  0.66822589  0.00155755  1
  Fe  Fe16  1  0.50076704  0.83570671  0.16904389  1
  Fe  Fe17  1  0.33470127  0.66798686  0.33488910  1
  Fe  Fe18  1  0.66822198  0.00316589  1.00153056  1
  Fe  Fe19  1  0.83404588  0.16743201  0.16743265  1
  Fe  Fe20  1  0.66926759  1.00099140  0.33408676  1
  Fe  Fe21  1  0.66824714  0.33330345  1.00134415  1
  Fe  Fe22  1  0.83489163  0.50155695  0.16822435  1
  Fe  Fe23  1  0.66743729  0.33572169  0.33429648  1
  Cr  Cr24  1  0.66779848  0.66809295  1.00057511  1
  Fe  Fe25  1  0.83570717  0.83567992  0.16903838  1
  Fe  Fe26  1  0.66843637  0.66796198  0.33470239  1
  Fe  Fe27  1  0.16742317  0.16744589  0.50238638  1
  Fe  Fe28  1  1.00132063  0.00184720  0.66817269  1
  Fe  Fe29  1  0.16824651  0.16825167  0.83484087  1
  Fe  Fe30  1  0.16926170  0.50209359  0.50238104  1
  Fe  Fe31  1  0.00316506  0.33486368  0.66795784  1
  Fe  Fe32  1  0.16822137  0.50155762  0.83489125  1
  Fe  Fe33  1  0.16843614  0.83512816  0.50153379  1
  Fe  Fe34  1  1.00129382  0.66796049  0.66822185  1
  Fe  Fe35  1  0.16822218  0.83486276  0.83491416  1
  Cr  Cr36  1  0.50072864  0.16795279  0.50017189  1
  Fe  Fe37  1  0.33432888  1.00099529  0.66902273  1
  Fe  Fe38  1  0.50078398  0.16742438  0.83547715  1
  Fe  Fe39  1  0.50075967  0.50392944  0.50073337  1
  Fe  Fe40  1  0.33247607  0.33568710  0.66899500  1
  Fe  Fe41  1  0.49995263  0.50153711  0.83486934  1
  Fe  Fe42  1  0.50158503  0.83328998  0.50158061  1
  Fe  Fe43  1  0.33518122  0.66798731  0.66822569  1
  Fe  Fe44  1  0.50078620  0.83571244  0.83404196  1
  Fe  Fe45  1  0.83648131  0.16661691  0.50156303  1
  Fe  Fe46  1  0.66901837  0.99914421  0.66904723  1
  Fe  Fe47  1  0.83564390  0.16742161  0.83569256  1
  Fe  Fe48  1  0.83465573  0.50292909  0.50155300  1
  Cr  Cr49  1  0.66960985  0.33627669  0.66905363  1
  Fe  Fe50  1  0.83649950  0.50156673  0.83490071  1
  Fe  Fe51  1  0.83465128  0.83512666  0.50155682  1
  Fe  Fe52  1  0.66819642  0.66983174  0.66844015  1
  Fe  Fe53  1  0.83566267  0.83568574  0.83407025  1
" 