2267,Fe9Cr91_8,-222.079936193875, 122.078992634772,Fe9Cr91,"# generated using pymatgen
 data_Cr2Fe25
_symmetry_space_group_name_H-M   'P 1'
_cell_length_a   7.44864292
_cell_length_b   7.44864292
_cell_length_c   10.53397183
_cell_angle_alpha   90.00000000
_cell_angle_beta   90.00000000
_cell_angle_gamma   90.00000000
_symmetry_Int_Tables_number   1
_chemical_formula_structural   Cr2Fe25
_chemical_formula_sum   'Cr4 Fe50'
_cell_volume   584.44878843
_cell_formula_units_Z   2
loop_
 _symmetry_equiv_pos_site_id
 _symmetry_equiv_pos_as_xyz
  1  'x, y, z'
loop_
 _atom_site_type_symbol
 _atom_site_label
 _atom_site_symmetry_multiplicity
 _atom_site_fract_x
 _atom_site_fract_y
 _atom_site_fract_z
 _atom_site_occupancy
  Fe  Fe0  1  0.00205538  0.00208303  1.00044486  1
  Fe  Fe1  1  0.16601378  0.16765391  0.16815103  1
  Fe  Fe2  1  1.00123365  0.00126146  0.33454126  1
  Fe  Fe3  1  1.00120806  0.33454072  0.00128979  1
  Fe  Fe4  1  0.16792739  0.50121015  0.16795794  1
  Fe  Fe5  1  1.00038933  0.33538669  0.33372520  1
  Fe  Fe6  1  0.00205573  0.66708182  1.00041878  1
  Fe  Fe7  1  0.16978508  0.83484222  0.16793109  1
  Fe  Fe8  1  0.00208001  0.66705754  0.33543652  1
  Fe  Fe9  1  0.33375206  1.00039151  1.00044678  1
  Cr  Cr10  1  0.50036103  0.16877652  0.16907528  1
  Fe  Fe11  1  0.33459423  0.99956535  0.33457091  1
  Fe  Fe12  1  0.33375062  0.33538692  1.00041937  1
  Fe  Fe13  1  0.50148364  0.50312376  0.16815103  1
  Fe  Fe14  1  0.33374391  0.33539363  0.33375311  1
  Fe  Fe15  1  0.33459682  0.66792948  0.00128979  1
  Fe  Fe16  1  0.49960257  0.83290952  0.16793081  1
  Fe  Fe17  1  0.33375085  0.66874821  0.33372520  1
  Fe  Fe18  1  0.66789805  0.00123950  0.99960444  1
  Fe  Fe19  1  0.83622803  0.16953498  0.16793081  1
  Fe  Fe20  1  0.66787851  0.00125904  0.33625463  1
  Fe  Fe21  1  0.66874603  0.33538548  1.00044678  1
  Fe  Fe22  1  0.83429532  0.49935247  0.16793109  1
  Fe  Fe23  1  0.66957220  0.33454332  0.33457091  1
  Fe  Fe24  1  0.66705452  0.66708216  1.00044486  1
  Cr  Cr25  1  0.83485993  0.83427761  0.16702071  1
  Fe  Fe26  1  0.66787608  0.66790389  0.33454126  1
  Cr  Cr27  1  0.16863757  0.16805369  0.50108946  1
  Fe  Fe28  1  1.00041771  1.00041870  0.66871664  1
  Fe  Fe29  1  0.16792796  0.16790186  0.83434814  1
  Fe  Fe30  1  0.16626617  0.50287138  0.50123358  1
  Fe  Fe31  1  1.00041706  0.33541302  0.66869101  1
  Fe  Fe32  1  0.16792797  0.50120958  0.83451478  1
  Fe  Fe33  1  0.16812491  0.83268600  0.50120649  1
  Fe  Fe34  1  0.00126300  0.66787455  0.66784771  1
  Fe  Fe35  1  0.16787731  0.83459487  0.83456885  1
  Fe  Fe36  1  0.50287358  0.16626396  0.50098663  1
  Fe  Fe37  1  0.33541574  1.00041689  0.66869229  1
  Fe  Fe38  1  0.50120995  0.16792759  0.83476200  1
  Cr  Cr39  1  0.50108386  0.50049997  0.50108946  1
  Fe  Fe40  1  0.33456949  0.33456806  0.66953694  1
  Fe  Fe41  1  0.50123569  0.50120959  0.83434814  1
  Fe  Fe42  1  0.50101258  0.83647521  0.50117990  1
  Fe  Fe43  1  0.33372453  0.66872049  0.66869101  1
  Fe  Fe44  1  0.50126066  0.83456916  0.83459562  1
  Fe  Fe45  1  0.83266233  0.16812497  0.50117990  1
  Fe  Fe46  1  0.66787369  0.00126386  0.66784787  1
  Fe  Fe47  1  0.83456839  0.16787689  0.83459562  1
  Fe  Fe48  1  0.83645155  0.50101263  0.50120649  1
  Fe  Fe49  1  0.66872065  0.33372181  0.66869229  1
  Fe  Fe50  1  0.83454268  0.50126023  0.83456885  1
  Fe  Fe51  1  0.83456871  0.83456883  0.50098617  1
  Fe  Fe52  1  0.66871884  0.66871984  0.66871664  1
  Fe  Fe53  1  0.83456835  0.83456919  0.83481699  1
" 