5766,Fe9Cr91_3,-222.088255664251, 120.377872180258,Fe9Cr91,"# generated using pymatgen
 data_Cr2Fe25
_symmetry_space_group_name_H-M   'P 1'
_cell_length_a   7.44914618
_cell_length_b   7.44914618
_cell_length_c   10.53468356
_cell_angle_alpha   90.00000000
_cell_angle_beta   90.00000000
_cell_angle_gamma   90.00000000
_symmetry_Int_Tables_number   1
_chemical_formula_structural   Cr2Fe25
_chemical_formula_sum   'Cr4 Fe50'
_cell_volume   584.56726062
_cell_formula_units_Z   2
loop_
 _symmetry_equiv_pos_site_id
 _symmetry_equiv_pos_as_xyz
  1  'x, y, z'
loop_
 _atom_site_type_symbol
 _atom_site_label
 _atom_site_symmetry_multiplicity
 _atom_site_fract_x
 _atom_site_fract_y
 _atom_site_fract_z
 _atom_site_occupancy
  Fe  Fe0  1  0.00168003  1.00120078  1.00120012  1
  Fe  Fe1  1  0.16709343  0.16704018  0.16867088  1
  Fe  Fe2  1  1.00041453  0.00199017  0.33374389  1
  Fe  Fe3  1  0.99983467  0.33480059  1.00117590  1
  Fe  Fe4  1  0.16628951  0.50122691  0.16947031  1
  Fe  Fe5  1  0.00125538  0.33453631  0.33453243  1
  Fe  Fe6  1  0.99983446  0.66760334  1.00117592  1
  Fe  Fe7  1  0.16709348  0.83533745  0.16888517  1
  Fe  Fe8  1  1.00043930  0.66707892  0.33371878  1
  Fe  Fe9  1  0.33456133  1.00120095  1.00117587  1
  Fe  Fe10  1  0.50197556  0.16708955  0.16861811  1
  Fe  Fe11  1  0.33532361  0.00198954  0.33369236  1
  Cr  Cr12  1  0.33368565  0.33284586  0.00204973  1
  Fe  Fe13  1  0.50280326  0.50120239  0.16923148  1
  Fe  Fe14  1  0.33450765  0.33456025  0.33429425  1
  Cr  Cr15  1  0.33368891  0.66955508  0.00204900  1
  Fe  Fe16  1  0.50195117  0.83531274  0.16864432  1
  Fe  Fe17  1  0.33532265  0.66705572  0.33348134  1
  Fe  Fe18  1  0.66736375  1.00120075  1.00117595  1
  Fe  Fe19  1  0.83453538  0.16789560  0.16784065  1
  Fe  Fe20  1  0.66786580  1.00117351  0.33455827  1
  Fe  Fe21  1  0.67003333  0.33397160  0.00200288  1
  Fe  Fe22  1  0.83451127  0.50120256  0.16779004  1
  Fe  Fe23  1  0.66784173  0.33453631  0.33450741  1
  Fe  Fe24  1  0.67003275  0.66843177  0.00200222  1
  Fe  Fe25  1  0.83455982  0.83450656  0.16786687  1
  Fe  Fe26  1  0.66784191  0.66789490  0.33453245  1
  Fe  Fe27  1  0.16787064  0.16944654  0.50120303  1
  Fe  Fe28  1  1.00041557  0.00198901  0.66865939  1
  Fe  Fe29  1  0.16733186  0.16727840  0.83373206  1
  Fe  Fe30  1  0.16789463  0.49962738  0.50122877  1
  Fe  Fe31  1  0.00125402  0.33456221  0.66789626  1
  Fe  Fe32  1  0.16467256  0.50122654  0.83291007  1
  Cr  Cr33  1  0.16743912  0.83496509  0.50077391  1
  Fe  Fe34  1  1.00043918  0.66705435  0.66870839  1
  Fe  Fe35  1  0.16733146  0.83509979  0.83351839  1
  Fe  Fe36  1  0.50095851  0.16765293  0.50122922  1
  Fe  Fe37  1  0.33534826  0.00198869  0.66873468  1
  Fe  Fe38  1  0.50197346  0.16546428  0.83375969  1
  Fe  Fe39  1  0.50095925  0.50144245  0.50144127  1
  Fe  Fe40  1  0.33370570  0.33375708  0.66730660  1
  Cr  Cr41  1  0.50332858  0.50077279  0.83326746  1
  Fe  Fe42  1  0.50277410  0.83450916  0.50122889  1
  Fe  Fe43  1  0.33451979  0.66785912  0.66811868  1
  Fe  Fe44  1  0.50194921  0.83693561  0.83373387  1
  Fe  Fe45  1  0.83477571  0.16762844  0.50120327  1
  Fe  Fe46  1  0.66783996  1.00117390  0.66787054  1
  Fe  Fe47  1  0.83429721  0.16813409  0.83456076  1
  Fe  Fe48  1  0.83475099  0.50144298  0.50122934  1
  Fe  Fe49  1  0.66864668  0.33373187  0.66709234  1
  Fe  Fe50  1  0.83614266  0.50120235  0.83458561  1
  Fe  Fe51  1  0.83295744  0.83453320  0.50120309  1
  Fe  Fe52  1  0.66864635  0.66869815  0.66706812  1
  Fe  Fe53  1  0.83432187  0.83426841  0.83453479  1
" 