3958,Fe9Cr91_12,-222.013733125166, 121.166726377881,Fe9Cr91,"# generated using pymatgen
 data_Cr2Fe25
_symmetry_space_group_name_H-M   'P 1'
_cell_length_a   7.44970990
_cell_length_b   7.44970990
_cell_length_c   10.53548077
_cell_angle_alpha   90.00000000
_cell_angle_beta   90.00000000
_cell_angle_gamma   90.00000000
_symmetry_Int_Tables_number   1
_chemical_formula_structural   Cr2Fe25
_chemical_formula_sum   'Cr4 Fe50'
_cell_volume   584.69998269
_cell_formula_units_Z   2
loop_
 _symmetry_equiv_pos_site_id
 _symmetry_equiv_pos_as_xyz
  1  'x, y, z'
loop_
 _atom_site_type_symbol
 _atom_site_label
 _atom_site_symmetry_multiplicity
 _atom_site_fract_x
 _atom_site_fract_y
 _atom_site_fract_z
 _atom_site_occupancy
  Fe  Fe0  1  1.00113430  0.00119050  0.00116371  1
  Fe  Fe1  1  0.16619280  0.16782981  0.16783147  1
  Fe  Fe2  1  0.00198539  0.00198563  0.33367571  1
  Fe  Fe3  1  0.00197888  0.33365254  0.00200598  1
  Fe  Fe4  1  0.16805336  0.50091589  0.16780480  1
  Fe  Fe5  1  1.00113449  0.33446931  0.33449849  1
  Fe  Fe6  1  0.00197971  0.66864890  0.00198139  1
  Fe  Fe7  1  0.16807869  0.83474537  0.16788548  1
  Fe  Fe8  1  0.00198687  0.66703439  0.33369962  1
  Fe  Fe9  1  0.33368092  1.00034507  1.00034591  1
  Cr  Cr10  1  0.50027729  0.16724447  0.16841922  1
  Fe  Fe11  1  0.33284866  1.00114363  0.33451575  1
  Fe  Fe12  1  0.33368175  0.33534143  1.00032132  1
  Fe  Fe13  1  0.50119007  0.50282199  0.16783158  1
  Fe  Fe14  1  0.33370777  0.33531621  0.33534282  1
  Fe  Fe15  1  0.33452634  0.66780346  1.00116359  1
  Fe  Fe16  1  0.50118983  0.83286011  0.16810497  1
  Fe  Fe17  1  0.33370001  0.66703196  0.33367238  1
  Fe  Fe18  1  0.66867428  1.00034642  1.00032160  1
  Fe  Fe19  1  0.83612773  0.16783015  0.16783107  1
  Fe  Fe20  1  0.66865557  0.00199278  0.33366934  1
  Fe  Fe21  1  0.66783032  0.33449698  0.00116365  1
  Fe  Fe22  1  0.83424784  0.50094157  0.16761044  1
  Fe  Fe23  1  0.66864726  0.33531495  0.33536703  1
  Fe  Fe24  1  0.66698635  0.66864755  0.00200570  1
  Fe  Fe25  1  0.83422278  0.83471936  0.16807768  1
  Fe  Fe26  1  0.66780423  0.66618242  0.33282550  1
  Fe  Fe27  1  0.16785587  0.16733565  0.50113692  1
  Fe  Fe28  1  0.00196063  0.00196201  0.66865492  1
  Fe  Fe29  1  0.16760727  0.16807807  0.83452250  1
  Fe  Fe30  1  0.16780476  0.50165831  0.50119038  1
  Fe  Fe31  1  0.00195287  0.33367775  0.66698448  1
  Fe  Fe32  1  0.16946784  0.50116416  0.83449583  1
  Fe  Fe33  1  0.16783032  0.83449698  0.50116365  1
  Fe  Fe34  1  0.00281198  0.66785033  0.66781155  1
  Fe  Fe35  1  0.16758194  0.83424859  0.83444182  1
  Fe  Fe36  1  0.50141133  0.16923704  0.50091599  1
  Fe  Fe37  1  0.33367377  0.00195958  0.66862768  1
  Fe  Fe38  1  0.50141279  0.16805240  0.83471686  1
  Fe  Fe39  1  0.50143694  0.49973888  0.50116325  1
  Fe  Fe40  1  0.33452614  0.33452466  0.66782881  1
  Fe  Fe41  1  0.49953290  0.50116382  0.83449623  1
  Cr  Cr42  1  0.49986567  0.83552655  0.50013204  1
  Fe  Fe43  1  0.33367524  0.66700833  0.66865159  1
  Fe  Fe44  1  0.50143785  0.83427461  0.83424962  1
  Fe  Fe45  1  0.83422370  0.16925509  0.50116405  1
  Fe  Fe46  1  0.66785640  0.00281154  0.66950180  1
  Fe  Fe47  1  0.83447056  0.16617197  0.83449572  1
  Fe  Fe48  1  0.83424931  0.49975693  0.50141131  1
  Fe  Fe49  1  0.66701337  0.33367901  0.66696027  1
  Cr  Cr50  1  0.83538334  0.50174950  0.83390808  1
  Cr  Cr51  1  0.83579496  0.83346742  0.50219526  1
  Fe  Fe52  1  0.66700506  0.66700119  0.66865796  1
  Fe  Fe53  1  0.83447081  0.83613386  0.83422233  1
" 