4408,Fe9Cr91_9,-222.0381853172, 122.819466382195,Fe9Cr91,"# generated using pymatgen
 data_Cr2Fe25
_symmetry_space_group_name_H-M   'P 1'
_cell_length_a   7.44225776
_cell_length_b   7.44225776
_cell_length_c   10.52494185
_cell_angle_alpha   90.00000000
_cell_angle_beta   90.00000000
_cell_angle_gamma   90.00000000
_symmetry_Int_Tables_number   1
_chemical_formula_structural   Cr2Fe25
_chemical_formula_sum   'Cr4 Fe50'
_cell_volume   582.94706488
_cell_formula_units_Z   2
loop_
 _symmetry_equiv_pos_site_id
 _symmetry_equiv_pos_as_xyz
  1  'x, y, z'
loop_
 _atom_site_type_symbol
 _atom_site_label
 _atom_site_symmetry_multiplicity
 _atom_site_fract_x
 _atom_site_fract_y
 _atom_site_fract_z
 _atom_site_occupancy
  Fe  Fe0  1  0.99985814  0.00167175  0.00166791  1
  Fe  Fe1  1  0.16745721  0.16923328  0.16953508  1
  Fe  Fe2  1  1.00077597  1.00078592  0.33408453  1
  Fe  Fe3  1  0.00193836  0.33471756  0.00166777  1
  Fe  Fe4  1  0.16835897  0.50164619  0.16833055  1
  Fe  Fe5  1  1.00074696  0.33588192  0.33411552  1
  Fe  Fe6  1  0.00196743  0.66860718  1.00163711  1
  Fe  Fe7  1  0.16742455  0.83411306  0.16926280  1
  Fe  Fe8  1  0.00171582  0.66832885  0.33505997  1
  Cr  Cr9  1  0.33499881  1.00103795  1.00103415  1
  Fe  Fe10  1  0.50254041  0.16923328  0.16953508  1
  Fe  Fe11  1  0.33499881  0.99981491  0.33292986  1
  Fe  Fe12  1  0.33499881  0.33681966  1.00163741  1
  Fe  Fe13  1  0.50163865  0.50164619  0.16833055  1
  Fe  Fe14  1  0.33499881  0.33682532  0.33317608  1
  Fe  Fe15  1  0.33499881  0.66651935  1.00139122  1
  Fe  Fe16  1  0.50257308  0.83411306  0.16926280  1
  Fe  Fe17  1  0.33499881  0.66835795  0.33529939  1
  Fe  Fe18  1  0.67013948  0.00167175  0.00166791  1
  Fe  Fe19  1  0.83499881  0.16830316  0.16836210  1
  Fe  Fe20  1  0.66922165  1.00078592  0.33408453  1
  Fe  Fe21  1  0.66805927  0.33471756  0.00166777  1
  Fe  Fe22  1  0.83499881  0.50167371  0.16832398  1
  Fe  Fe23  1  0.66925066  0.33588192  0.33411552  1
  Fe  Fe24  1  0.66803019  0.66860718  1.00163711  1
  Fe  Fe25  1  0.83499881  0.83501962  0.16830013  1
  Fe  Fe26  1  0.66828181  0.66832885  0.33505997  1
  Cr  Cr27  1  0.16803314  0.16833219  0.50229427  1
  Fe  Fe28  1  1.00104406  1.00050138  0.66925073  1
  Fe  Fe29  1  0.16747573  0.16924015  0.83376254  1
  Fe  Fe30  1  0.16768758  0.50230886  0.50074913  1
  Fe  Fe31  1  1.00101424  0.33616629  0.66921990  1
  Fe  Fe32  1  0.16745001  0.50073702  0.83590637  1
  Fe  Fe33  1  0.16768433  0.83436040  0.50074494  1
  Fe  Fe34  1  0.99987423  0.66832881  0.66829940  1
  Fe  Fe35  1  0.16649888  0.83501790  0.83497140  1
  Cr  Cr36  1  0.50196448  0.16833219  0.50229427  1
  Fe  Fe37  1  0.33499881  1.00165575  0.67045021  1
  Fe  Fe38  1  0.50252189  0.16924015  0.83376254  1
  Fe  Fe39  1  0.50231004  0.50230886  0.50074913  1
  Fe  Fe40  1  0.33499881  0.33499922  0.67020316  1
  Fe  Fe41  1  0.50254762  0.50073702  0.83590637  1
  Fe  Fe42  1  0.50231330  0.83436040  0.50074494  1
  Cr  Cr43  1  0.33499881  0.66895901  0.66770544  1
  Fe  Fe44  1  0.50349875  0.83501790  0.83497140  1
  Fe  Fe45  1  0.83499881  0.16833090  0.50166847  1
  Fe  Fe46  1  0.66895357  1.00050138  0.66925073  1
  Fe  Fe47  1  0.83499881  0.16830320  0.83496487  1
  Fe  Fe48  1  0.83499881  0.50114917  0.50169286  1
  Fe  Fe49  1  0.66898338  0.33616629  0.66921990  1
  Fe  Fe50  1  0.83499881  0.50170098  0.83497995  1
  Fe  Fe51  1  0.83499881  0.83551634  0.50169291  1
  Fe  Fe52  1  0.67012340  0.66832881  0.66829940  1
  Fe  Fe53  1  0.83499881  0.83499225  0.83500386  1
" 