321,Fe9Cr91_15,-222.102728137048, 122.767843815079,Fe9Cr91,"# generated using pymatgen
 data_Cr2Fe25
_symmetry_space_group_name_H-M   'P 1'
_cell_length_a   7.44425564
_cell_length_b   7.44425564
_cell_length_c   10.52776729
_cell_angle_alpha   90.00000000
_cell_angle_beta   90.00000000
_cell_angle_gamma   90.00000000
_symmetry_Int_Tables_number   1
_chemical_formula_structural   Cr2Fe25
_chemical_formula_sum   'Cr4 Fe50'
_cell_volume   583.41667015
_cell_formula_units_Z   2
loop_
 _symmetry_equiv_pos_site_id
 _symmetry_equiv_pos_as_xyz
  1  'x, y, z'
loop_
 _atom_site_type_symbol
 _atom_site_label
 _atom_site_symmetry_multiplicity
 _atom_site_fract_x
 _atom_site_fract_y
 _atom_site_fract_z
 _atom_site_occupancy
  Fe  Fe0  1  0.00209124  0.00256902  0.00232750  1
  Fe  Fe1  1  0.16740077  0.16742824  0.16737673  1
  Fe  Fe2  1  0.00177130  0.00177002  0.33486397  1
  Fe  Fe3  1  0.00313750  0.33489044  1.00150715  1
  Fe  Fe4  1  0.16742612  0.50229923  0.16735001  1
  Fe  Fe5  1  0.99992061  0.33486513  0.33483723  1
  Fe  Fe6  1  0.00209154  0.66713461  0.00230297  1
  Fe  Fe7  1  0.16819957  0.83486494  0.16819393  1
  Fe  Fe8  1  0.00177127  0.66795737  0.33486402  1
  Fe  Fe9  1  0.33512887  0.00176719  1.00150673  1
  Fe  Fe10  1  0.50152197  0.16661639  0.16817882  1
  Fe  Fe11  1  0.33486448  0.99994116  0.33486426  1
  Fe  Fe12  1  0.33246220  0.33406402  0.00257061  1
  Fe  Fe13  1  0.50152219  0.50313458  0.16796520  1
  Cr  Cr14  1  0.33542141  0.33486292  0.33430248  1
  Fe  Fe15  1  0.33429861  0.66876404  0.00233387  1
  Fe  Fe16  1  0.50155392  0.83484045  0.16814491  1
  Fe  Fe17  1  0.33486452  0.66978620  0.33486426  1
  Fe  Fe18  1  0.66737038  1.00072121  0.00230589  1
  Fe  Fe19  1  0.83567196  0.16739291  0.16900234  1
  Fe  Fe20  1  0.66795657  0.00179537  0.33483726  1
  Cr  Cr21  1  0.66903401  0.33402961  0.00236546  1
  Fe  Fe22  1  0.83564608  0.50233315  0.16897504  1
  Fe  Fe23  1  0.66978916  0.33486513  0.33462419  1
  Fe  Fe24  1  0.66819632  0.66980020  0.00312846  1
  Fe  Fe25  1  0.83483897  0.83486573  0.16793289  1
  Fe  Fe26  1  0.66795652  0.66793203  0.33483741  1
  Fe  Fe27  1  0.16740503  0.16740607  0.50232311  1
  Fe  Fe28  1  0.00232720  0.00232562  0.66740442  1
  Fe  Fe29  1  0.16819773  0.16822455  0.83488957  1
  Fe  Fe30  1  0.16743043  0.50232147  0.50235003  1
  Fe  Fe31  1  1.00150552  0.33489042  0.66824773  1
  Fe  Fe32  1  0.16635355  0.50174331  0.83488970  1
  Fe  Fe33  1  0.16819978  0.83486488  0.50153232  1
  Fe  Fe34  1  0.00232690  0.66737768  0.66742885  1
  Fe  Fe35  1  0.17002863  0.83462440  0.83486606  1
  Fe  Fe36  1  0.50232506  0.16742970  0.50235174  1
  Fe  Fe37  1  0.33488984  1.00152784  0.66822152  1
  Fe  Fe38  1  0.50096826  0.16555849  0.83406245  1
  Fe  Fe39  1  0.50232446  0.50232261  0.50256511  1
  Fe  Fe40  1  0.33408394  0.33405967  0.66718095  1
  Cr  Cr41  1  0.50041679  0.50208945  0.83402896  1
  Fe  Fe42  1  0.50152868  0.83483979  0.50155883  1
  Fe  Fe43  1  0.33405837  0.66900495  0.66739225  1
  Fe  Fe44  1  0.49996291  0.83646612  0.83488917  1
  Fe  Fe45  1  0.83486372  0.16820078  0.50153225  1
  Fe  Fe46  1  0.66737517  0.00235113  0.66745381  1
  Fe  Fe47  1  0.83543156  0.16922723  0.83405855  1
  Fe  Fe48  1  0.83483873  0.50152664  0.50155872  1
  Fe  Fe49  1  0.66900164  0.33406103  0.66763320  1
  Fe  Fe50  1  0.83726211  0.50074005  0.83406118  1
  Fe  Fe51  1  0.83486405  0.83486512  0.50177001  1
  Fe  Fe52  1  0.66820511  0.66818119  0.66662756  1
  Cr  Cr53  1  0.83458229  0.83514401  0.83542387  1
" 