4927,Ni10Fe35Cr53_10,-216.88684156576, 184.687293480166,Ni10Fe35Cr53,"# generated using pymatgen
 data_Cr30Fe19Ni5
_symmetry_space_group_name_H-M   'P 1'
_cell_length_a   7.53272924
_cell_length_b   7.53272924
_cell_length_c   10.65288786
_cell_angle_alpha   90.00000000
_cell_angle_beta   90.00000000
_cell_angle_gamma   90.00000000
_symmetry_Int_Tables_number   1
_chemical_formula_structural   Cr30Fe19Ni5
_chemical_formula_sum   'Cr30 Fe19 Ni5'
_cell_volume   604.46626751
_cell_formula_units_Z   1
loop_
 _symmetry_equiv_pos_site_id
 _symmetry_equiv_pos_as_xyz
  1  'x, y, z'
loop_
 _atom_site_type_symbol
 _atom_site_label
 _atom_site_symmetry_multiplicity
 _atom_site_fract_x
 _atom_site_fract_y
 _atom_site_fract_z
 _atom_site_occupancy
  Fe  Fe0  1  0.99498698  0.00078190  -0.00424590  1
  Fe  Fe1  1  0.15852913  0.16380056  0.16201765  1
  Cr  Cr2  1  0.99491942  0.99522924  0.32811733  1
  Ni  Ni3  1  0.99422731  0.32480713  0.99522452  1
  Cr  Cr4  1  0.16064841  0.49312942  0.16431725  1
  Fe  Fe5  1  -0.00422472  0.32638606  0.32904875  1
  Cr  Cr6  1  0.99200981  0.66421601  0.99483596  1
  Cr  Cr7  1  0.16297403  0.82807011  0.16082619  1
  Cr  Cr8  1  0.99207058  0.66465511  0.33294915  1
  Cr  Cr9  1  0.32663461  -0.00183890  -0.00254640  1
  Fe  Fe10  1  0.49727933  0.16258481  0.16336562  1
  Cr  Cr11  1  0.32941104  -0.00066031  0.32780175  1
  Cr  Cr12  1  0.32894436  0.32647867  -0.00363618  1
  Fe  Fe13  1  0.49697911  0.49577658  0.16182801  1
  Cr  Cr14  1  0.33027335  0.32521853  0.32899363  1
  Cr  Cr15  1  0.33241750  0.66198825  -0.00366964  1
  Fe  Fe16  1  0.49843567  0.82859926  0.16268890  1
  Cr  Cr17  1  0.33060055  0.66209529  0.32852241  1
  Cr  Cr18  1  0.66378202  0.99519415  0.00041224  1
  Fe  Fe19  1  0.83113938  0.16241441  0.16127244  1
  Fe  Fe20  1  0.66141470  -0.00405744  0.32855650  1
  Cr  Cr21  1  0.66254207  0.33004364  0.99145159  1
  Cr  Cr22  1  0.83059205  0.49170143  0.16138995  1
  Cr  Cr23  1  0.65991164  0.32780557  0.33163167  1
  Fe  Fe24  1  0.66213411  0.66116658  -0.00369277  1
  Fe  Fe25  1  0.82789107  0.83000417  0.16205997  1
  Cr  Cr26  1  0.66450121  0.66374347  0.32876373  1
  Ni  Ni27  1  0.16287155  0.16265008  0.49626877  1
  Fe  Fe28  1  0.99346313  -0.00090639  0.66211996  1
  Fe  Fe29  1  0.15854118  0.16112052  0.82888207  1
  Cr  Cr30  1  0.16105674  0.49448650  0.49193692  1
  Cr  Cr31  1  0.99494637  0.32760739  0.66298283  1
  Cr  Cr32  1  0.16187465  0.49526942  0.83081545  1
  Cr  Cr33  1  0.16410619  0.82930195  0.50025581  1
  Cr  Cr34  1  0.99311955  0.66415360  0.65920719  1
  Cr  Cr35  1  0.16404549  0.83019135  0.82533221  1
  Ni  Ni36  1  0.49665990  0.16030710  0.49587030  1
  Fe  Fe37  1  0.32958028  -0.00169886  0.66033698  1
  Cr  Cr38  1  0.49957864  0.15942665  0.82525731  1
  Fe  Fe39  1  0.49528822  0.49347002  0.49625985  1
  Cr  Cr40  1  0.33018447  0.32624452  0.66109502  1
  Fe  Fe41  1  0.49703392  0.49633948  0.82890079  1
  Cr  Cr42  1  0.49692504  0.83238370  0.49786764  1
  Fe  Fe43  1  0.33114707  0.66088000  0.66221303  1
  Cr  Cr44  1  0.49535164  0.82924434  0.82753677  1
  Cr  Cr45  1  0.82624543  0.16215678  0.49487623  1
  Ni  Ni46  1  0.66296834  -0.00391173  0.65958206  1
  Ni  Ni47  1  0.83076099  0.16307183  0.83042377  1
  Fe  Fe48  1  0.82773001  0.49412875  0.49516230  1
  Cr  Cr49  1  0.66168312  0.32879373  0.66336844  1
  Fe  Fe50  1  0.82892253  0.49348100  0.83054313  1
  Fe  Fe51  1  0.82752677  0.83271462  0.49705598  1
  Cr  Cr52  1  0.66442238  0.66047027  0.66287233  1
  Cr  Cr53  1  0.82751516  0.83386319  0.82926601  1
" 