7543,Ni10Fe70Cr18_4,-224.815062796997, 157.904081828145,Ni10Fe70Cr18,"# generated using pymatgen
 data_Cr11Fe38Ni5
_symmetry_space_group_name_H-M   'P 1'
_cell_length_a   7.46161507
_cell_length_b   7.46161507
_cell_length_c   10.55231723
_cell_angle_alpha   90.00000000
_cell_angle_beta   90.00000000
_cell_angle_gamma   90.00000000
_symmetry_Int_Tables_number   1
_chemical_formula_structural   Cr11Fe38Ni5
_chemical_formula_sum   'Cr11 Fe38 Ni5'
_cell_volume   587.50764188
_cell_formula_units_Z   1
loop_
 _symmetry_equiv_pos_site_id
 _symmetry_equiv_pos_as_xyz
  1  'x, y, z'
loop_
 _atom_site_type_symbol
 _atom_site_label
 _atom_site_symmetry_multiplicity
 _atom_site_fract_x
 _atom_site_fract_y
 _atom_site_fract_z
 _atom_site_occupancy
  Fe  Fe0  1  0.00098219  0.00188186  0.99970663  1
  Fe  Fe1  1  0.16547338  0.16522716  0.16772858  1
  Fe  Fe2  1  0.99992947  0.00152209  0.33429786  1
  Fe  Fe3  1  0.99845158  0.33278647  1.00031423  1
  Fe  Fe4  1  0.16414852  0.50164347  0.16664790  1
  Fe  Fe5  1  0.99951634  0.33421779  0.33385893  1
  Fe  Fe6  1  0.00167235  0.66672521  0.99929960  1
  Fe  Fe7  1  0.16790214  0.83369163  0.16819363  1
  Fe  Fe8  1  0.00054111  0.66566505  0.33471045  1
  Cr  Cr9  1  0.33402930  0.99899852  0.00204647  1
  Ni  Ni10  1  0.50093381  0.16626711  0.16746112  1
  Fe  Fe11  1  0.33453740  0.99797152  0.33312908  1
  Cr  Cr12  1  0.33260350  0.33269960  0.99889230  1
  Cr  Cr13  1  0.49977705  0.50208170  0.16593296  1
  Cr  Cr14  1  0.33064608  0.33230263  0.33385596  1
  Fe  Fe15  1  0.33335155  0.66845120  0.99936905  1
  Ni  Ni16  1  0.49941482  0.83259638  0.16951553  1
  Fe  Fe17  1  0.33352899  0.66912345  0.33413512  1
  Cr  Cr18  1  0.66641535  1.00019345  0.00197881  1
  Ni  Ni19  1  0.83709351  0.16726030  0.16645970  1
  Fe  Fe20  1  0.66659028  0.99979441  0.33222619  1
  Fe  Fe21  1  0.66889884  0.33301698  0.00072306  1
  Fe  Fe22  1  0.83458373  0.50054813  0.16610251  1
  Cr  Cr23  1  0.66962587  0.33335128  0.33133071  1
  Fe  Fe24  1  0.66608333  0.66685595  0.99986044  1
  Cr  Cr25  1  0.83537654  0.83346756  0.16664209  1
  Ni  Ni26  1  0.66847000  0.66947124  0.33436265  1
  Fe  Fe27  1  0.16613468  0.16428775  0.50097314  1
  Fe  Fe28  1  0.00131543  0.99847327  0.66695229  1
  Fe  Fe29  1  0.16628226  0.16537601  0.83215441  1
  Fe  Fe30  1  0.16521986  0.50159911  0.49950109  1
  Cr  Cr31  1  0.99981905  0.33487489  0.66480101  1
  Fe  Fe32  1  0.16543533  0.50121037  0.83419992  1
  Fe  Fe33  1  0.16716603  0.83543870  0.50004561  1
  Fe  Fe34  1  0.99948185  0.66961282  0.66698485  1
  Fe  Fe35  1  0.16560874  0.83467075  0.83352915  1
  Cr  Cr36  1  0.50023637  0.16598910  0.50202761  1
  Ni  Ni37  1  0.33384263  0.99977183  0.66760254  1
  Fe  Fe38  1  0.50075667  0.16679261  0.83172231  1
  Cr  Cr39  1  0.50037565  0.50060140  0.50172413  1
  Fe  Fe40  1  0.33296282  0.33212401  0.66923911  1
  Fe  Fe41  1  0.50232719  0.50053936  0.83348127  1
  Fe  Fe42  1  0.50099319  0.83471081  0.49922668  1
  Cr  Cr43  1  0.33286228  0.66831661  0.66753159  1
  Fe  Fe44  1  0.50105166  0.83362388  0.83353277  1
  Fe  Fe45  1  0.83464452  0.16514038  0.49945270  1
  Fe  Fe46  1  0.66766016  0.99905763  0.66849629  1
  Fe  Fe47  1  0.83417175  0.16712562  0.83419641  1
  Fe  Fe48  1  0.83395265  0.50256909  0.49973725  1
  Fe  Fe49  1  0.66678689  0.33324808  0.66889030  1
  Fe  Fe50  1  0.83314133  0.50112720  0.83424870  1
  Fe  Fe51  1  0.83303856  0.83378131  0.49988555  1
  Fe  Fe52  1  0.66930336  0.66877655  0.66714772  1
  Fe  Fe53  1  0.83450982  0.83300651  0.83359183  1
" 