1434,Ni10Fe35Cr53_18,-216.854507357585, 180.262548267805,Ni10Fe35Cr53,"# generated using pymatgen
 data_Cr30Fe19Ni5
_symmetry_space_group_name_H-M   'P 1'
_cell_length_a   7.53481941
_cell_length_b   7.53481941
_cell_length_c   10.65584380
_cell_angle_alpha   90.00000000
_cell_angle_beta   90.00000000
_cell_angle_gamma   90.00000000
_symmetry_Int_Tables_number   1
_chemical_formula_structural   Cr30Fe19Ni5
_chemical_formula_sum   'Cr30 Fe19 Ni5'
_cell_volume   604.96958603
_cell_formula_units_Z   1
loop_
 _symmetry_equiv_pos_site_id
 _symmetry_equiv_pos_as_xyz
  1  'x, y, z'
loop_
 _atom_site_type_symbol
 _atom_site_label
 _atom_site_symmetry_multiplicity
 _atom_site_fract_x
 _atom_site_fract_y
 _atom_site_fract_z
 _atom_site_occupancy
  Fe  Fe0  1  0.99524790  0.99265987  0.99393793  1
  Cr  Cr1  1  0.16311154  0.16161096  0.16050990  1
  Cr  Cr2  1  -0.00300630  -0.00271587  0.32965940  1
  Cr  Cr3  1  -0.00321135  0.32885794  0.99430320  1
  Cr  Cr4  1  0.16200298  0.49560267  0.16067892  1
  Cr  Cr5  1  -0.00254864  0.32679435  0.33102875  1
  Ni  Ni6  1  -0.00210397  0.66370788  0.99132075  1
  Cr  Cr7  1  0.16017229  0.82837732  0.16077432  1
  Cr  Cr8  1  -0.00252434  0.66235143  0.33130211  1
  Fe  Fe9  1  0.32709622  0.99427519  0.99455473  1
  Cr  Cr10  1  0.49365045  0.16336801  0.16180056  1
  Cr  Cr11  1  0.32588179  0.99543527  0.33452022  1
  Fe  Fe12  1  0.32790808  0.32974313  0.99406567  1
  Fe  Fe13  1  0.49350545  0.49443446  0.16327428  1
  Fe  Fe14  1  0.32825716  0.32899926  0.32984050  1
  Cr  Cr15  1  0.32742562  0.66033079  0.99444250  1
  Cr  Cr16  1  0.49394994  0.82919118  0.16352625  1
  Fe  Fe17  1  0.32624204  0.66214392  0.33046399  1
  Cr  Cr18  1  0.66439770  -0.00442583  0.99499312  1
  Fe  Fe19  1  0.83024697  0.16178931  0.16178709  1
  Cr  Cr20  1  0.66335927  -0.00390034  0.32753174  1
  Cr  Cr21  1  0.66301315  0.32839384  0.99513353  1
  Cr  Cr22  1  0.83020502  0.49709887  0.16397507  1
  Fe  Fe23  1  0.66233384  0.32821933  0.32798625  1
  Cr  Cr24  1  0.66349830  0.66326008  0.99548746  1
  Fe  Fe25  1  0.83186826  0.82904750  0.16062318  1
  Cr  Cr26  1  0.66053157  0.66154923  0.32766982  1
  Ni  Ni27  1  0.16155318  0.16209201  0.49895636  1
  Fe  Fe28  1  -0.00106372  0.99419486  0.66161593  1
  Cr  Cr29  1  0.16271061  0.16061670  0.82916432  1
  Cr  Cr30  1  0.16117175  0.49608106  0.49665573  1
  Fe  Fe31  1  -0.00134325  0.32905020  0.66231400  1
  Ni  Ni32  1  0.16005380  0.49613732  0.82782614  1
  Ni  Ni33  1  0.16119726  0.82947970  0.49958684  1
  Fe  Fe34  1  -0.00139443  0.66402809  0.66325242  1
  Fe  Fe35  1  0.16075773  0.82582091  0.82670345  1
  Cr  Cr36  1  0.49405112  0.16349119  0.49810939  1
  Fe  Fe37  1  0.32455914  0.99366191  0.66080224  1
  Cr  Cr38  1  0.49401306  0.16177635  0.82709273  1
  Cr  Cr39  1  0.49681451  0.49465645  0.49374602  1
  Fe  Fe40  1  0.32583441  0.33110812  0.66251056  1
  Cr  Cr41  1  0.49328745  0.49461152  0.82890577  1
  Cr  Cr42  1  0.49315606  0.82826191  0.49663276  1
  Ni  Ni43  1  0.32397053  0.66102100  0.66174503  1
  Cr  Cr44  1  0.49320684  0.83015296  0.82698080  1
  Cr  Cr45  1  0.82925834  0.16465706  0.49727499  1
  Cr  Cr46  1  0.66372515  -0.00372431  0.66343655  1
  Fe  Fe47  1  0.83128617  0.16257968  0.82675789  1
  Fe  Fe48  1  0.82989179  0.49481555  0.49764973  1
  Fe  Fe49  1  0.66208760  0.33024194  0.66278031  1
  Cr  Cr50  1  0.83219998  0.49704734  0.82455317  1
  Cr  Cr51  1  0.83109129  0.82688609  0.49567819  1
  Cr  Cr52  1  0.66056961  0.66240691  0.66292195  1
  Fe  Fe53  1  0.83399200  0.82979669  0.82830449  1
" 