7663,Ni10Fe30Cr59_12,-214.643029631873, 180.321478150614,Ni10Fe30Cr59,"# generated using pymatgen
 data_Cr33Fe16Ni5
_symmetry_space_group_name_H-M   'P 1'
_cell_length_a   7.54107439
_cell_length_b   7.54107439
_cell_length_c   10.66468968
_cell_angle_alpha   90.00000000
_cell_angle_beta   90.00000000
_cell_angle_gamma   90.00000000
_symmetry_Int_Tables_number   1
_chemical_formula_structural   Cr33Fe16Ni5
_chemical_formula_sum   'Cr33 Fe16 Ni5'
_cell_volume   606.47747090
_cell_formula_units_Z   1
loop_
 _symmetry_equiv_pos_site_id
 _symmetry_equiv_pos_as_xyz
  1  'x, y, z'
loop_
 _atom_site_type_symbol
 _atom_site_label
 _atom_site_symmetry_multiplicity
 _atom_site_fract_x
 _atom_site_fract_y
 _atom_site_fract_z
 _atom_site_occupancy
  Cr  Cr0  1  0.99349618  0.99495216  -0.00341354  1
  Cr  Cr1  1  0.16347212  0.16192080  0.16293633  1
  Cr  Cr2  1  0.99260718  -0.00403759  0.32809824  1
  Cr  Cr3  1  -0.00335889  0.32949546  -0.00435149  1
  Fe  Fe4  1  0.16370990  0.49583420  0.16244684  1
  Cr  Cr5  1  -0.00420336  0.32788686  0.32667727  1
  Fe  Fe6  1  -0.00412019  0.66122337  0.99383920  1
  Cr  Cr7  1  0.16244204  0.82834871  0.16098084  1
  Cr  Cr8  1  -0.00279558  0.66149551  0.32716460  1
  Fe  Fe9  1  0.33117999  -0.00470031  0.99206593  1
  Cr  Cr10  1  0.49401522  0.16215658  0.15971040  1
  Cr  Cr11  1  0.33016419  0.99370215  0.33293745  1
  Cr  Cr12  1  0.32795238  0.33060248  -0.00485431  1
  Fe  Fe13  1  0.49314826  0.49590286  0.16342647  1
  Fe  Fe14  1  0.32896358  0.32971602  0.32770695  1
  Cr  Cr15  1  0.32656666  0.66124072  0.99464955  1
  Cr  Cr16  1  0.49504446  0.82801976  0.16156362  1
  Fe  Fe17  1  0.33024202  0.66012759  0.32774606  1
  Ni  Ni18  1  0.65961239  -0.00489883  0.99473829  1
  Fe  Fe19  1  0.82719051  0.16051888  0.16058127  1
  Cr  Cr20  1  0.66262585  0.99476030  0.32880608  1
  Cr  Cr21  1  0.66085054  0.32513210  -0.00460355  1
  Cr  Cr22  1  0.82739828  0.49605332  0.16074118  1
  Cr  Cr23  1  0.66036571  0.32779142  0.32720751  1
  Cr  Cr24  1  0.65933607  0.66398308  0.99487677  1
  Cr  Cr25  1  0.82780558  0.82834663  0.16033889  1
  Fe  Fe26  1  0.66026323  0.66172220  0.32824162  1
  Cr  Cr27  1  0.16427498  0.16196428  0.49569247  1
  Cr  Cr28  1  -0.00405846  0.99507341  0.66050998  1
  Fe  Fe29  1  0.16384697  0.16108198  0.82755434  1
  Cr  Cr30  1  0.16130973  0.49423654  0.49415461  1
  Ni  Ni31  1  -0.00398898  0.33074666  0.66304661  1
  Fe  Fe32  1  0.16065165  0.49555818  0.82681262  1
  Cr  Cr33  1  0.16297392  0.82905669  0.49533831  1
  Ni  Ni34  1  -0.00344706  0.65953428  0.66438950  1
  Fe  Fe35  1  0.16347677  0.82878421  0.82803328  1
  Fe  Fe36  1  0.49482166  0.16164829  0.49631437  1
  Fe  Fe37  1  0.32874063  0.99509086  0.66365250  1
  Ni  Ni38  1  0.49142550  0.15757327  0.82823376  1
  Cr  Cr39  1  0.49686196  0.49539634  0.49254760  1
  Cr  Cr40  1  0.32864350  0.32736658  0.66292281  1
  Cr  Cr41  1  0.49729091  0.49408359  0.82811118  1
  Fe  Fe42  1  0.49522604  0.82796011  0.49584242  1
  Cr  Cr43  1  0.32865716  0.66389361  0.66285631  1
  Ni  Ni44  1  0.49204192  0.83289138  0.82844436  1
  Cr  Cr45  1  0.82886626  0.16422395  0.49562500  1
  Cr  Cr46  1  0.65808084  0.99506856  0.66080478  1
  Cr  Cr47  1  0.82725696  0.16361138  0.82921888  1
  Cr  Cr48  1  0.82743026  0.49625425  0.50143937  1
  Fe  Fe49  1  0.66221950  0.32799738  0.66242066  1
  Cr  Cr50  1  0.83029582  0.49610679  0.82316548  1
  Cr  Cr51  1  0.82756451  0.82468012  0.49520310  1
  Fe  Fe52  1  0.66203945  0.66229388  0.66268574  1
  Cr  Cr53  1  0.82847838  0.82548214  0.82967661  1
" 