3703,Ni10Fe35Cr53_15,-216.511513760904, 179.28075201183,Ni10Fe35Cr53,"# generated using pymatgen
 data_Cr30Fe19Ni5
_symmetry_space_group_name_H-M   'P 1'
_cell_length_a   7.53403524
_cell_length_b   7.53403524
_cell_length_c   10.65473482
_cell_angle_alpha   90.00000000
_cell_angle_beta   90.00000000
_cell_angle_gamma   90.00000000
_symmetry_Int_Tables_number   1
_chemical_formula_structural   Cr30Fe19Ni5
_chemical_formula_sum   'Cr30 Fe19 Ni5'
_cell_volume   604.78072253
_cell_formula_units_Z   1
loop_
 _symmetry_equiv_pos_site_id
 _symmetry_equiv_pos_as_xyz
  1  'x, y, z'
loop_
 _atom_site_type_symbol
 _atom_site_label
 _atom_site_symmetry_multiplicity
 _atom_site_fract_x
 _atom_site_fract_y
 _atom_site_fract_z
 _atom_site_occupancy
  Cr  Cr0  1  0.99337993  0.99444211  0.99480166  1
  Cr  Cr1  1  0.16018255  0.16114273  0.16078715  1
  Cr  Cr2  1  0.99427642  0.99180196  0.32768413  1
  Ni  Ni3  1  0.99441250  0.32796956  0.99074839  1
  Cr  Cr4  1  0.16271070  0.49753890  0.16222449  1
  Cr  Cr5  1  -0.00315560  0.32950794  0.32932903  1
  Cr  Cr6  1  0.99436620  0.66345481  -0.00342689  1
  Fe  Fe7  1  0.16421152  0.82667517  0.16260989  1
  Cr  Cr8  1  0.99383192  0.66538117  0.32900061  1
  Cr  Cr9  1  0.32871926  -0.00308529  -0.00185197  1
  Fe  Fe10  1  0.49612168  0.16093296  0.16255785  1
  Fe  Fe11  1  0.33138780  0.99376711  0.32941562  1
  Cr  Cr12  1  0.32928878  0.32873658  0.99436701  1
  Cr  Cr13  1  0.49497690  0.50017408  0.16114357  1
  Cr  Cr14  1  0.33148524  0.32626048  0.33031076  1
  Ni  Ni15  1  0.32858498  0.66161203  0.99383256  1
  Cr  Cr16  1  0.49353197  0.82859932  0.16202854  1
  Ni  Ni17  1  0.33021148  0.66540473  0.33038646  1
  Fe  Fe18  1  0.66398173  -0.00423096  0.99472771  1
  Cr  Cr19  1  0.82847114  0.16266313  0.16038254  1
  Fe  Fe20  1  0.65957020  0.99279390  0.33007723  1
  Cr  Cr21  1  0.66168348  0.32805957  0.99477636  1
  Cr  Cr22  1  0.82896686  0.49363180  0.16295478  1
  Cr  Cr23  1  0.65844962  0.32646522  0.32839644  1
  Cr  Cr24  1  0.66437408  0.66291303  0.99345387  1
  Fe  Fe25  1  0.82719552  0.82909635  0.16253419  1
  Fe  Fe26  1  0.66047090  0.66578274  0.32992828  1
  Cr  Cr27  1  0.15893833  0.16215842  0.49771719  1
  Fe  Fe28  1  0.99318202  -0.00378280  0.66458969  1
  Fe  Fe29  1  0.15858817  0.16376981  0.82851421  1
  Fe  Fe30  1  0.16350957  0.49697882  0.49478607  1
  Fe  Fe31  1  0.99496495  0.32895333  0.66575113  1
  Fe  Fe32  1  0.16073952  0.49335562  0.83058787  1
  Cr  Cr33  1  0.16634672  0.82859378  0.49413738  1
  Cr  Cr34  1  0.99338808  0.66384183  0.66151427  1
  Cr  Cr35  1  0.16456900  0.82869200  0.83059718  1
  Fe  Fe36  1  0.49713640  0.15881286  0.49579951  1
  Cr  Cr37  1  0.32969604  -0.00238728  0.65985625  1
  Cr  Cr38  1  0.49998294  0.16022274  0.82877952  1
  Cr  Cr39  1  0.49624592  0.49990210  0.49503762  1
  Cr  Cr40  1  0.32996385  0.32825708  0.66239330  1
  Fe  Fe41  1  0.49579798  0.49510270  0.82925434  1
  Ni  Ni42  1  0.49686617  0.83000420  0.49338617  1
  Cr  Cr43  1  0.32903170  0.66033006  0.66320104  1
  Cr  Cr44  1  0.49473447  0.82666174  0.82984477  1
  Cr  Cr45  1  0.82869252  0.16252088  0.49901612  1
  Fe  Fe46  1  0.66351861  0.99532362  0.66192957  1
  Ni  Ni47  1  0.83164101  0.16484753  0.82698452  1
  Cr  Cr48  1  0.82932844  0.49297555  0.49430688  1
  Fe  Fe49  1  0.66351269  0.32822638  0.66406693  1
  Fe  Fe50  1  0.83001212  0.49235709  0.82857266  1
  Fe  Fe51  1  0.82533060  0.83030295  0.49551007  1
  Cr  Cr52  1  0.66427338  0.66331487  0.66260276  1
  Fe  Fe53  1  0.82825497  0.83310693  0.82801664  1
" 