5649,Ni10Fe30Cr59_3,-214.476432130056, 183.037286972666,Ni10Fe30Cr59,"# generated using pymatgen
 data_Cr33Fe16Ni5
_symmetry_space_group_name_H-M   'P 1'
_cell_length_a   7.53559672
_cell_length_b   7.53559672
_cell_length_c   10.65694308
_cell_angle_alpha   90.00000000
_cell_angle_beta   90.00000000
_cell_angle_gamma   90.00000000
_symmetry_Int_Tables_number   1
_chemical_formula_structural   Cr33Fe16Ni5
_chemical_formula_sum   'Cr33 Fe16 Ni5'
_cell_volume   605.15683497
_cell_formula_units_Z   1
loop_
 _symmetry_equiv_pos_site_id
 _symmetry_equiv_pos_as_xyz
  1  'x, y, z'
loop_
 _atom_site_type_symbol
 _atom_site_label
 _atom_site_symmetry_multiplicity
 _atom_site_fract_x
 _atom_site_fract_y
 _atom_site_fract_z
 _atom_site_occupancy
  Fe  Fe0  1  -0.00389973  0.99301790  0.99455829  1
  Cr  Cr1  1  0.16094528  0.16232350  0.16093091  1
  Fe  Fe2  1  0.99399428  -0.00281825  0.33087209  1
  Fe  Fe3  1  -0.00328892  0.33281359  -0.00402606  1
  Fe  Fe4  1  0.16142008  0.49527054  0.16199776  1
  Cr  Cr5  1  -0.00447987  0.32867690  0.33005594  1
  Ni  Ni6  1  -0.00375695  0.65813751  -0.00417138  1
  Cr  Cr7  1  0.16064604  0.83004093  0.16251257  1
  Cr  Cr8  1  -0.00291426  0.66056680  0.32916408  1
  Cr  Cr9  1  0.33072214  0.99409588  0.99067813  1
  Cr  Cr10  1  0.49445753  0.16396393  0.16249188  1
  Cr  Cr11  1  0.32831813  -0.00415585  0.33106043  1
  Cr  Cr12  1  0.32771586  0.32941706  0.99442635  1
  Fe  Fe13  1  0.49376422  0.49468107  0.16319118  1
  Fe  Fe14  1  0.32804148  0.32973914  0.32899961  1
  Cr  Cr15  1  0.32631693  0.66300156  -0.00257622  1
  Cr  Cr16  1  0.49499796  0.82764225  0.16419629  1
  Fe  Fe17  1  0.32787650  0.65902759  0.32787467  1
  Cr  Cr18  1  0.65885192  0.99511517  0.99370562  1
  Cr  Cr19  1  0.83105686  0.16117817  0.16025455  1
  Fe  Fe20  1  0.66397555  -0.00320756  0.32997442  1
  Cr  Cr21  1  0.66341647  0.32879260  -0.00416100  1
  Fe  Fe22  1  0.83114913  0.49570499  0.16048062  1
  Cr  Cr23  1  0.66382735  0.32714815  0.32914676  1
  Cr  Cr24  1  0.66243254  0.66233741  0.99515996  1
  Cr  Cr25  1  0.83062641  0.83056948  0.16146797  1
  Cr  Cr26  1  0.66306984  0.66126102  0.32721393  1
  Fe  Fe27  1  0.16372575  0.16127578  0.49781160  1
  Ni  Ni28  1  -0.00281746  -0.00359056  0.65967644  1
  Cr  Cr29  1  0.16215493  0.16343499  0.82811744  1
  Cr  Cr30  1  0.16518721  0.49365860  0.49740045  1
  Cr  Cr31  1  -0.00328253  0.32893327  0.66154937  1
  Fe  Fe32  1  0.16160050  0.49626147  0.82837276  1
  Cr  Cr33  1  0.16143408  0.83127760  0.49609922  1
  Fe  Fe34  1  -0.00306564  0.66412283  0.66296008  1
  Cr  Cr35  1  0.16032985  0.83054205  0.82799368  1
  Fe  Fe36  1  0.49254937  0.16183600  0.49632012  1
  Ni  Ni37  1  0.32826733  -0.00233242  0.66292948  1
  Fe  Fe38  1  0.49404880  0.16108573  0.82615390  1
  Cr  Cr39  1  0.49420236  0.49349970  0.49479860  1
  Ni  Ni40  1  0.32833082  0.32474368  0.66069058  1
  Cr  Cr41  1  0.49448409  0.49426788  0.82599866  1
  Cr  Cr42  1  0.49530617  0.82751041  0.49504447  1
  Cr  Cr43  1  0.32723541  0.66443005  0.66382904  1
  Ni  Ni44  1  0.49453209  0.82840004  0.82659093  1
  Fe  Fe45  1  0.83007498  0.16013965  0.49556974  1
  Cr  Cr46  1  0.65985197  -0.00400677  0.66274181  1
  Cr  Cr47  1  0.83202556  0.16202314  0.83176704  1
  Cr  Cr48  1  0.82703079  0.49716648  0.50002879  1
  Cr  Cr49  1  0.66188587  0.32626567  0.66178940  1
  Cr  Cr50  1  0.82997869  0.49654612  0.82734736  1
  Cr  Cr51  1  0.82954421  0.83006073  0.49698940  1
  Fe  Fe52  1  0.66051262  0.66425725  0.66297930  1
  Cr  Cr53  1  0.82997833  0.82823804  0.82735990  1
" 