3054,Ni10Fe61Cr28_5,-223.432364167242, 167.528737420853,Ni10Fe61Cr28,"# generated using pymatgen
 data_Cr16Fe33Ni5
_symmetry_space_group_name_H-M   'P 1'
_cell_length_a   7.49090358
_cell_length_b   7.49090358
_cell_length_c   10.59373744
_cell_angle_alpha   90.00000000
_cell_angle_beta   90.00000000
_cell_angle_gamma   90.00000000
_symmetry_Int_Tables_number   1
_chemical_formula_structural   Cr16Fe33Ni5
_chemical_formula_sum   'Cr16 Fe33 Ni5'
_cell_volume   594.45313215
_cell_formula_units_Z   1
loop_
 _symmetry_equiv_pos_site_id
 _symmetry_equiv_pos_as_xyz
  1  'x, y, z'
loop_
 _atom_site_type_symbol
 _atom_site_label
 _atom_site_symmetry_multiplicity
 _atom_site_fract_x
 _atom_site_fract_y
 _atom_site_fract_z
 _atom_site_occupancy
  Fe  Fe0  1  0.99671863  -0.00138039  0.00040381  1
  Fe  Fe1  1  0.16361679  0.16518835  0.16609860  1
  Ni  Ni2  1  -0.00012052  0.99782065  0.32954607  1
  Fe  Fe3  1  -0.00089366  0.33216400  -0.00084041  1
  Fe  Fe4  1  0.16471786  0.49845445  0.16459855  1
  Fe  Fe5  1  0.99837255  0.33058095  0.32973923  1
  Cr  Cr6  1  -0.00004619  0.66445035  -0.00084936  1
  Ni  Ni7  1  0.16602639  0.83426460  0.16622640  1
  Cr  Cr8  1  -0.00087926  0.66650587  0.33137139  1
  Cr  Cr9  1  0.33355599  0.99803880  0.00080343  1
  Fe  Fe10  1  0.49787528  0.16455009  0.16565333  1
  Fe  Fe11  1  0.32979506  0.99729959  0.33063242  1
  Fe  Fe12  1  0.33063318  0.33403280  0.99812243  1
  Cr  Cr13  1  0.49902879  0.50002401  0.16680386  1
  Fe  Fe14  1  0.33123776  0.33108527  0.33206432  1
  Ni  Ni15  1  0.33064020  0.66417853  0.99839264  1
  Fe  Fe16  1  0.49718813  0.83128460  0.16519106  1
  Fe  Fe17  1  0.33154643  0.66684255  0.33134358  1
  Fe  Fe18  1  0.66575870  0.99772273  -0.00158553  1
  Fe  Fe19  1  0.83373310  0.16507667  0.16563511  1
  Cr  Cr20  1  0.66460894  -0.00133002  0.33022757  1
  Cr  Cr21  1  0.66520375  0.32925001  0.99717719  1
  Ni  Ni22  1  0.83170133  0.49619409  0.16663020  1
  Fe  Fe23  1  0.66561313  0.33232800  0.33075784  1
  Cr  Cr24  1  0.66502183  0.66690376  -0.00114896  1
  Fe  Fe25  1  0.83278499  0.83237732  0.16551491  1
  Fe  Fe26  1  0.66491376  0.66519973  0.33119684  1
  Cr  Cr27  1  0.16571290  0.16263916  0.49627777  1
  Cr  Cr28  1  0.99705317  0.99413684  0.66397593  1
  Cr  Cr29  1  0.16428238  0.16561447  0.83354395  1
  Fe  Fe30  1  0.16634868  0.50036502  0.49836534  1
  Cr  Cr31  1  -0.00137592  0.33563656  0.66677921  1
  Fe  Fe32  1  0.16571137  0.49976542  0.83226509  1
  Fe  Fe33  1  0.16509010  0.83055974  0.49801759  1
  Ni  Ni34  1  -0.00143926  0.66630440  0.66491089  1
  Cr  Cr35  1  0.16634316  0.83045034  0.82998092  1
  Fe  Fe36  1  0.49798362  0.16470422  0.49787312  1
  Fe  Fe37  1  0.33419105  0.99647593  0.66463274  1
  Fe  Fe38  1  0.49947532  0.16371533  0.83169687  1
  Fe  Fe39  1  0.49718968  0.49919043  0.49703181  1
  Cr  Cr40  1  0.33395756  0.33229043  0.66592293  1
  Fe  Fe41  1  0.49644977  0.49994500  0.83234147  1
  Fe  Fe42  1  0.49804107  0.83132648  0.49905506  1
  Fe  Fe43  1  0.33131554  0.66548567  0.66506674  1
  Fe  Fe44  1  0.49906332  0.83155557  0.83098128  1
  Cr  Cr45  1  0.83221860  0.16500315  0.49737453  1
  Fe  Fe46  1  0.66381145  0.99642379  0.66557800  1
  Fe  Fe47  1  0.83067144  0.16367907  0.83276653  1
  Cr  Cr48  1  0.82973086  0.49970379  0.49735458  1
  Cr  Cr49  1  0.66263959  0.33036432  0.66589465  1
  Fe  Fe50  1  0.83306005  0.49935256  0.83111934  1
  Fe  Fe51  1  0.83209174  0.83135627  0.49908120  1
  Fe  Fe52  1  0.66554736  0.66667705  0.66580252  1
  Fe  Fe53  1  0.83049666  0.83218583  0.83061761  1
" 