5160,Ni10Fe70Cr18_17,-225.157771269653, 162.889169022328,Ni10Fe70Cr18,"# generated using pymatgen
 data_Cr11Fe38Ni5
_symmetry_space_group_name_H-M   'P 1'
_cell_length_a   7.46432037
_cell_length_b   7.46432037
_cell_length_c   10.55614310
_cell_angle_alpha   90.00000000
_cell_angle_beta   90.00000000
_cell_angle_gamma   90.00000000
_symmetry_Int_Tables_number   1
_chemical_formula_structural   Cr11Fe38Ni5
_chemical_formula_sum   'Cr11 Fe38 Ni5'
_cell_volume   588.14689895
_cell_formula_units_Z   1
loop_
 _symmetry_equiv_pos_site_id
 _symmetry_equiv_pos_as_xyz
  1  'x, y, z'
loop_
 _atom_site_type_symbol
 _atom_site_label
 _atom_site_symmetry_multiplicity
 _atom_site_fract_x
 _atom_site_fract_y
 _atom_site_fract_z
 _atom_site_occupancy
  Cr  Cr0  1  0.00077060  0.00083647  0.99963973  1
  Fe  Fe1  1  0.16761254  0.16821119  0.16679102  1
  Cr  Cr2  1  0.00074591  0.99901181  0.33437624  1
  Fe  Fe3  1  1.00002397  0.33296128  0.00065214  1
  Fe  Fe4  1  0.16647311  0.49931150  0.16739970  1
  Fe  Fe5  1  0.00075111  0.33361076  0.33278375  1
  Cr  Cr6  1  0.00125303  0.66660533  0.00130106  1
  Fe  Fe7  1  0.16819150  0.83302523  0.16669038  1
  Fe  Fe8  1  0.99984147  0.66600799  0.33311485  1
  Fe  Fe9  1  0.33380616  0.99947238  0.99963313  1
  Fe  Fe10  1  0.49957203  0.16615074  0.16625773  1
  Fe  Fe11  1  0.33317216  0.00127395  0.33311520  1
  Fe  Fe12  1  0.33304414  0.33287659  0.00034862  1
  Cr  Cr13  1  0.49881461  0.50133997  0.16719242  1
  Ni  Ni14  1  0.33321870  0.33320236  0.33382411  1
  Ni  Ni15  1  0.33444435  0.66766687  0.99930923  1
  Fe  Fe16  1  0.49996105  0.83412913  0.16626253  1
  Fe  Fe17  1  0.33316565  0.66695661  0.33266183  1
  Fe  Fe18  1  0.66545323  0.00037135  0.00114149  1
  Ni  Ni19  1  0.83391305  0.16736345  0.16535702  1
  Cr  Cr20  1  0.66681559  0.00076900  0.33229383  1
  Fe  Fe21  1  0.66748123  0.33324664  1.00009754  1
  Fe  Fe22  1  0.83445920  0.49969857  0.16685670  1
  Cr  Cr23  1  0.66578029  0.33351659  0.33496423  1
  Fe  Fe24  1  0.66553917  0.66693232  0.00018989  1
  Fe  Fe25  1  0.83239815  0.83298637  0.16681312  1
  Fe  Fe26  1  0.66754004  0.66657504  0.33359796  1
  Fe  Fe27  1  0.16771517  0.16654580  0.50078760  1
  Fe  Fe28  1  0.00115136  0.00155951  0.66686386  1
  Ni  Ni29  1  0.16721181  0.16668803  0.83276709  1
  Cr  Cr30  1  0.16771267  0.49885859  0.49848976  1
  Fe  Fe31  1  0.99941856  0.33141644  0.66710646  1
  Cr  Cr32  1  0.16806688  0.49895450  0.83466843  1
  Fe  Fe33  1  0.16680990  0.83439930  0.50058268  1
  Cr  Cr34  1  0.00053962  0.66865025  0.66690996  1
  Ni  Ni35  1  0.16977931  0.83515093  0.83232265  1
  Fe  Fe36  1  0.49887191  0.16814865  0.50083482  1
  Fe  Fe37  1  0.33239167  0.00049679  0.66779408  1
  Fe  Fe38  1  0.49929268  0.16644367  0.83345689  1
  Fe  Fe39  1  0.50039008  0.49949424  0.50027423  1
  Fe  Fe40  1  0.33410749  0.33245312  0.66660224  1
  Fe  Fe41  1  0.50019904  0.50060525  0.83387529  1
  Cr  Cr42  1  0.50047813  0.83285069  0.50008913  1
  Fe  Fe43  1  0.33468310  0.66759492  0.66796463  1
  Fe  Fe44  1  0.49799550  0.83349979  0.83364948  1
  Fe  Fe45  1  0.83396054  0.16725976  0.50119587  1
  Fe  Fe46  1  0.66700727  0.00098267  0.66661877  1
  Fe  Fe47  1  0.83411148  0.16798407  0.83344935  1
  Fe  Fe48  1  0.83246325  0.50040433  0.50024078  1
  Fe  Fe49  1  0.66702418  0.33370380  0.66669738  1
  Fe  Fe50  1  0.83247284  0.49833234  0.83345718  1
  Fe  Fe51  1  0.83406105  0.83288650  0.50076220  1
  Fe  Fe52  1  0.66596564  0.66586208  0.66675979  1
  Cr  Cr53  1  0.83174178  0.83452946  0.83297893  1
" 