5980,Ni10Fe70Cr18_0,-224.580941555954, 153.924985549777,Ni10Fe70Cr18,"# generated using pymatgen
 data_Cr11Fe38Ni5
_symmetry_space_group_name_H-M   'P 1'
_cell_length_a   7.47011428
_cell_length_b   7.47011428
_cell_length_c   10.56433692
_cell_angle_alpha   90.00000000
_cell_angle_beta   90.00000000
_cell_angle_gamma   90.00000000
_symmetry_Int_Tables_number   1
_chemical_formula_structural   Cr11Fe38Ni5
_chemical_formula_sum   'Cr11 Fe38 Ni5'
_cell_volume   589.51754460
_cell_formula_units_Z   1
loop_
 _symmetry_equiv_pos_site_id
 _symmetry_equiv_pos_as_xyz
  1  'x, y, z'
loop_
 _atom_site_type_symbol
 _atom_site_label
 _atom_site_symmetry_multiplicity
 _atom_site_fract_x
 _atom_site_fract_y
 _atom_site_fract_z
 _atom_site_occupancy
  Cr  Cr0  1  0.00030984  0.99952165  0.00174719  1
  Fe  Fe1  1  0.16760446  0.17193063  0.16666028  1
  Cr  Cr2  1  0.00113182  0.00015476  0.32975783  1
  Cr  Cr3  1  0.00041728  0.33421328  0.99660569  1
  Fe  Fe4  1  0.16634399  0.50019412  0.16762349  1
  Fe  Fe5  1  0.00049268  0.33549503  0.33236816  1
  Fe  Fe6  1  0.99876369  0.66698371  0.99702093  1
  Fe  Fe7  1  0.16550766  0.82702628  0.16599277  1
  Fe  Fe8  1  0.00014451  0.66544826  0.33480582  1
  Cr  Cr9  1  0.33227056  0.99944049  0.00226713  1
  Fe  Fe10  1  0.50093864  0.17040512  0.16656954  1
  Cr  Cr11  1  0.33225813  0.99855800  0.33135671  1
  Fe  Fe12  1  0.33442628  0.33243201  0.99920395  1
  Fe  Fe13  1  0.50058421  0.49937347  0.16730146  1
  Fe  Fe14  1  0.33260812  0.33412725  0.33381118  1
  Cr  Cr15  1  0.33316254  0.66424231  0.99796546  1
  Fe  Fe16  1  0.50199142  0.82897739  0.16579957  1
  Fe  Fe17  1  0.33289018  0.66545126  0.33338125  1
  Cr  Cr18  1  0.66719663  0.99949197  0.99758098  1
  Fe  Fe19  1  0.83092011  0.17041953  0.16686590  1
  Cr  Cr20  1  0.66581959  0.99899851  0.33506020  1
  Fe  Fe21  1  0.66472334  0.33511102  0.99766890  1
  Fe  Fe22  1  0.83242015  0.50109528  0.16553113  1
  Fe  Fe23  1  0.66617012  0.33528117  0.33390969  1
  Fe  Fe24  1  0.66821881  0.66525534  0.99692768  1
  Fe  Fe25  1  0.83199145  0.82827395  0.16654389  1
  Fe  Fe26  1  0.66648365  0.66505217  0.33462425  1
  Fe  Fe27  1  0.16748063  0.16716814  0.50201391  1
  Ni  Ni28  1  0.00248487  0.99912965  0.66760918  1
  Fe  Fe29  1  0.16764291  0.16547847  0.83038437  1
  Fe  Fe30  1  0.16548561  0.50013961  0.50050689  1
  Fe  Fe31  1  0.00060129  0.33561323  0.66887520  1
  Fe  Fe32  1  0.16653778  0.50230604  0.83060737  1
  Fe  Fe33  1  0.16512755  0.83248337  0.50270373  1
  Ni  Ni34  1  0.00092996  0.66651568  0.66777536  1
  Ni  Ni35  1  0.16706185  0.83372967  0.83238716  1
  Fe  Fe36  1  0.49696643  0.16754851  0.50149198  1
  Fe  Fe37  1  0.33287039  0.99803450  0.66705922  1
  Fe  Fe38  1  0.49743630  0.16626553  0.83194953  1
  Fe  Fe39  1  0.49773122  0.49943586  0.49820594  1
  Fe  Fe40  1  0.32958557  0.33476398  0.66632904  1
  Fe  Fe41  1  0.49855383  0.50100005  0.83364536  1
  Fe  Fe42  1  0.49827642  0.83242514  0.50202084  1
  Fe  Fe43  1  0.33083271  0.66700225  0.66742932  1
  Ni  Ni44  1  0.49818623  0.83405533  0.83180357  1
  Cr  Cr45  1  0.83485945  0.16808571  0.50184086  1
  Fe  Fe46  1  0.66791338  0.99788395  0.66761545  1
  Fe  Fe47  1  0.83451722  0.16388666  0.83010603  1
  Fe  Fe48  1  0.83597279  0.50194731  0.50042348  1
  Cr  Cr49  1  0.66462697  0.33454430  0.66791079  1
  Ni  Ni50  1  0.83375860  0.49864874  0.83370582  1
  Fe  Fe51  1  0.83664694  0.83189363  0.50168228  1
  Cr  Cr52  1  0.66561454  0.66511599  0.66681934  1
  Fe  Fe53  1  0.83542452  0.83086060  0.83106277  1
" 