6815,Ni10Fe61Cr28_19,-223.388100381762, 164.5827581624,Ni10Fe61Cr28,"# generated using pymatgen
 data_Cr16Fe33Ni5
_symmetry_space_group_name_H-M   'P 1'
_cell_length_a   7.48327674
_cell_length_b   7.48327674
_cell_length_c   10.58295146
_cell_angle_alpha   90.00000000
_cell_angle_beta   90.00000000
_cell_angle_gamma   90.00000000
_symmetry_Int_Tables_number   1
_chemical_formula_structural   Cr16Fe33Ni5
_chemical_formula_sum   'Cr16 Fe33 Ni5'
_cell_volume   592.63925730
_cell_formula_units_Z   1
loop_
 _symmetry_equiv_pos_site_id
 _symmetry_equiv_pos_as_xyz
  1  'x, y, z'
loop_
 _atom_site_type_symbol
 _atom_site_label
 _atom_site_symmetry_multiplicity
 _atom_site_fract_x
 _atom_site_fract_y
 _atom_site_fract_z
 _atom_site_occupancy
  Fe  Fe0  1  0.00148326  0.00175977  0.99851774  1
  Ni  Ni1  1  0.16789458  0.16587728  0.16362436  1
  Cr  Cr2  1  0.99699421  -0.00076211  0.33165245  1
  Fe  Fe3  1  0.00209382  0.32995417  0.99813884  1
  Fe  Fe4  1  0.16568939  0.49526101  0.16693256  1
  Fe  Fe5  1  0.00025800  0.33265379  0.33307845  1
  Cr  Cr6  1  0.00055918  0.66682405  -0.00004440  1
  Cr  Cr7  1  0.16728183  0.83501123  0.16652912  1
  Fe  Fe8  1  0.99883278  0.66244168  0.33307487  1
  Fe  Fe9  1  0.33241758  0.00145359  0.99763740  1
  Fe  Fe10  1  0.49721535  0.16483671  0.16712400  1
  Fe  Fe11  1  0.33513163  0.00234515  0.33152845  1
  Fe  Fe12  1  0.33024182  0.32915669  -0.00012991  1
  Cr  Cr13  1  0.50010318  0.49872253  0.16465353  1
  Ni  Ni14  1  0.33267827  0.33209343  0.33048555  1
  Cr  Cr15  1  0.33316443  0.66628921  0.99720621  1
  Fe  Fe16  1  0.50100338  0.83542960  0.16637564  1
  Fe  Fe17  1  0.33274244  0.66424665  0.33270476  1
  Fe  Fe18  1  0.66337394  0.99708826  -0.00095114  1
  Cr  Cr19  1  0.83240465  0.16630956  0.16441236  1
  Fe  Fe20  1  0.66270543  0.00048913  0.33305655  1
  Cr  Cr21  1  0.66404104  0.32958916  0.99516043  1
  Cr  Cr22  1  0.83039529  0.49894753  0.16624735  1
  Ni  Ni23  1  0.66460472  0.33074992  0.33528367  1
  Fe  Fe24  1  0.66443964  0.66834974  0.99850849  1
  Fe  Fe25  1  0.82935967  0.83300773  0.16530076  1
  Fe  Fe26  1  0.66566304  0.66633894  0.33381782  1
  Cr  Cr27  1  0.16755969  0.16515744  0.49966452  1
  Fe  Fe28  1  0.99796681  -0.00022784  0.66622100  1
  Fe  Fe29  1  0.16431590  0.16422369  0.83184772  1
  Fe  Fe30  1  0.16431299  0.49710288  0.49877757  1
  Ni  Ni31  1  0.99742595  0.32873184  0.66433280  1
  Cr  Cr32  1  0.16537852  0.49724033  0.83074815  1
  Cr  Cr33  1  0.16586487  0.83259728  0.50117792  1
  Fe  Fe34  1  0.99825584  0.66433817  0.66538049  1
  Ni  Ni35  1  0.16664540  0.83742955  0.83028199  1
  Fe  Fe36  1  0.49958722  0.16396595  0.49804974  1
  Fe  Fe37  1  0.33376972  0.00148628  0.66761424  1
  Fe  Fe38  1  0.49713731  0.16384701  0.83087163  1
  Cr  Cr39  1  0.49977360  0.49642470  0.49960245  1
  Fe  Fe40  1  0.33260693  0.33020278  0.66561384  1
  Fe  Fe41  1  0.49746005  0.49762128  0.83192123  1
  Fe  Fe42  1  0.49978612  0.83507502  0.49781213  1
  Cr  Cr43  1  0.33181542  0.66704777  0.66713643  1
  Fe  Fe44  1  0.49798453  0.83550222  0.83295871  1
  Fe  Fe45  1  0.83033368  0.16677217  0.49946711  1
  Fe  Fe46  1  0.66551681  0.00180771  0.66495238  1
  Fe  Fe47  1  0.83501445  0.16429064  0.83084658  1
  Fe  Fe48  1  0.83508626  0.49732845  0.49874283  1
  Fe  Fe49  1  0.66600996  0.32878373  0.66506182  1
  Cr  Cr50  1  0.83015647  0.49712525  0.83180526  1
  Fe  Fe51  1  0.83040730  0.83228731  0.49925909  1
  Cr  Cr52  1  0.66426049  0.66651118  0.66730048  1
  Cr  Cr53  1  0.83423977  0.83430738  0.83407055  1
" 