2005,Ni10Fe70Cr18_13,-224.849287913106, 163.847652862305,Ni10Fe70Cr18,"# generated using pymatgen
 data_Cr11Fe38Ni5
_symmetry_space_group_name_H-M   'P 1'
_cell_length_a   7.45663820
_cell_length_b   7.45663820
_cell_length_c   10.54527887
_cell_angle_alpha   90.00000000
_cell_angle_beta   90.00000000
_cell_angle_gamma   90.00000000
_symmetry_Int_Tables_number   1
_chemical_formula_structural   Cr11Fe38Ni5
_chemical_formula_sum   'Cr11 Fe38 Ni5'
_cell_volume   586.33283051
_cell_formula_units_Z   1
loop_
 _symmetry_equiv_pos_site_id
 _symmetry_equiv_pos_as_xyz
  1  'x, y, z'
loop_
 _atom_site_type_symbol
 _atom_site_label
 _atom_site_symmetry_multiplicity
 _atom_site_fract_x
 _atom_site_fract_y
 _atom_site_fract_z
 _atom_site_occupancy
  Cr  Cr0  1  0.00096520  0.00121384  0.00155052  1
  Fe  Fe1  1  0.16846516  0.16775810  0.16800771  1
  Fe  Fe2  1  0.00142562  1.00005747  0.33454150  1
  Fe  Fe3  1  1.00060154  0.33569650  0.99932046  1
  Cr  Cr4  1  0.16455086  0.50070284  0.16925053  1
  Fe  Fe5  1  0.99892390  0.33107103  0.33439105  1
  Fe  Fe6  1  0.99920319  0.66625981  0.99988048  1
  Ni  Ni7  1  0.16450096  0.83378560  0.16737393  1
  Fe  Fe8  1  0.99929903  0.67104322  0.33419491  1
  Fe  Fe9  1  0.33396447  0.00248041  0.00268094  1
  Ni  Ni10  1  0.50286888  0.16676444  0.16418944  1
  Cr  Cr11  1  0.33270046  0.99966958  0.33300268  1
  Fe  Fe12  1  0.33297164  0.33169213  0.99932760  1
  Cr  Cr13  1  0.50139428  0.49874107  0.16877245  1
  Fe  Fe14  1  0.33487901  0.33180991  0.33395929  1
  Cr  Cr15  1  0.33311947  0.66594061  0.00140874  1
  Fe  Fe16  1  0.50030486  0.83463747  0.16588639  1
  Fe  Fe17  1  0.33427087  0.66927714  0.33426499  1
  Fe  Fe18  1  0.66688196  0.00158857  0.00165236  1
  Fe  Fe19  1  0.83472129  0.16953639  0.16706193  1
  Cr  Cr20  1  0.66913691  1.00064057  0.33352306  1
  Fe  Fe21  1  0.66829167  0.33336640  1.00003855  1
  Fe  Fe22  1  0.83391265  0.50064366  0.16752119  1
  Fe  Fe23  1  0.66845948  0.33406293  0.33396456  1
  Fe  Fe24  1  0.67046131  0.66712656  0.00080890  1
  Fe  Fe25  1  0.83385074  0.83195614  0.16710433  1
  Fe  Fe26  1  0.66810013  0.66679425  0.33527312  1
  Ni  Ni27  1  0.16664057  0.16764201  0.50006852  1
  Cr  Cr28  1  0.00152496  0.00145770  0.66547700  1
  Fe  Fe29  1  0.16879658  0.16874510  0.83303042  1
  Cr  Cr30  1  0.16666373  0.50070557  0.49925238  1
  Fe  Fe31  1  1.00022477  0.33477768  0.66805393  1
  Ni  Ni32  1  0.16513640  0.49990766  0.83341709  1
  Ni  Ni33  1  0.16623015  0.83294797  0.50175178  1
  Fe  Fe34  1  1.00013063  0.66649569  0.66824896  1
  Fe  Fe35  1  0.16646541  0.83253124  0.83331523  1
  Cr  Cr36  1  0.50110113  0.16842148  0.50246573  1
  Fe  Fe37  1  0.33234018  1.00060877  0.66651579  1
  Fe  Fe38  1  0.49953237  0.17049129  0.83502357  1
  Fe  Fe39  1  0.50061731  0.50237386  0.50037281  1
  Fe  Fe40  1  0.33249175  0.33390272  0.66896680  1
  Fe  Fe41  1  0.50012887  0.49920694  0.83350762  1
  Fe  Fe42  1  0.49796467  0.83122664  0.50174935  1
  Fe  Fe43  1  0.33301569  0.66746538  0.66829745  1
  Cr  Cr44  1  0.50178544  0.83720484  0.83461750  1
  Fe  Fe45  1  0.83764086  0.16994900  0.49949995  1
  Cr  Cr46  1  0.66985721  0.00125885  0.66669801  1
  Fe  Fe47  1  0.83399254  0.16977247  0.83467956  1
  Fe  Fe48  1  0.83364599  0.50025473  0.50047064  1
  Fe  Fe49  1  0.66890855  0.33663513  0.66838377  1
  Fe  Fe50  1  0.83408616  0.50102195  0.83405616  1
  Fe  Fe51  1  0.83612759  0.83172056  0.49976333  1
  Fe  Fe52  1  0.66844922  0.66524525  0.66661828  1
  Fe  Fe53  1  0.83596751  0.83140465  0.83443858  1
" 