1292,Ni10Fe70Cr18_19,-224.68077788176, 161.132287409439,Ni10Fe70Cr18,"# generated using pymatgen
 data_Cr11Fe38Ni5
_symmetry_space_group_name_H-M   'P 1'
_cell_length_a   7.45688633
_cell_length_b   7.45688633
_cell_length_c   10.54562977
_cell_angle_alpha   90.00000000
_cell_angle_beta   90.00000000
_cell_angle_gamma   90.00000000
_symmetry_Int_Tables_number   1
_chemical_formula_structural   Cr11Fe38Ni5
_chemical_formula_sum   'Cr11 Fe38 Ni5'
_cell_volume   586.39136420
_cell_formula_units_Z   1
loop_
 _symmetry_equiv_pos_site_id
 _symmetry_equiv_pos_as_xyz
  1  'x, y, z'
loop_
 _atom_site_type_symbol
 _atom_site_label
 _atom_site_symmetry_multiplicity
 _atom_site_fract_x
 _atom_site_fract_y
 _atom_site_fract_z
 _atom_site_occupancy
  Cr  Cr0  1  0.00234357  1.00023834  0.00077203  1
  Fe  Fe1  1  0.16958646  0.16861184  0.16712006  1
  Cr  Cr2  1  0.00124021  0.00135147  0.33315560  1
  Fe  Fe3  1  0.00398364  0.33357075  0.99935238  1
  Fe  Fe4  1  0.17056052  0.50079506  0.16742500  1
  Fe  Fe5  1  0.00352861  0.33499857  0.33407695  1
  Fe  Fe6  1  0.00250116  0.66741718  0.99806701  1
  Fe  Fe7  1  0.16944304  0.83240228  0.16785342  1
  Fe  Fe8  1  0.00426128  0.66569113  0.33396848  1
  Ni  Ni9  1  0.33196298  1.00039387  1.00008565  1
  Ni  Ni10  1  0.49706079  0.16831358  0.16826093  1
  Fe  Fe11  1  0.33558638  1.00059632  0.33407580  1
  Fe  Fe12  1  0.33263292  0.33188912  1.00063612  1
  Fe  Fe13  1  0.49788626  0.49976188  0.16770911  1
  Fe  Fe14  1  0.33392801  0.33426376  0.33410504  1
  Fe  Fe15  1  0.33310090  0.66714115  1.00023661  1
  Cr  Cr16  1  0.49877267  0.83624425  0.16600772  1
  Ni  Ni17  1  0.33351887  0.66566698  0.33422832  1
  Cr  Cr18  1  0.66792386  0.00225725  0.99998545  1
  Fe  Fe19  1  0.83214745  0.16821632  0.16883678  1
  Fe  Fe20  1  0.66407874  0.00224954  0.33533503  1
  Cr  Cr21  1  0.66627862  0.33529207  1.00067258  1
  Cr  Cr22  1  0.83657406  0.50050713  0.16593728  1
  Fe  Fe23  1  0.66519684  0.33165209  0.33381766  1
  Fe  Fe24  1  0.66635976  0.66887811  0.99791535  1
  Cr  Cr25  1  0.83402227  0.83143828  0.16877009  1
  Cr  Cr26  1  0.66365005  0.66639290  0.33601313  1
  Fe  Fe27  1  0.16858778  0.16881299  0.50170422  1
  Fe  Fe28  1  0.99977411  0.00124063  0.66830483  1
  Fe  Fe29  1  0.16819818  0.16703905  0.83310335  1
  Fe  Fe30  1  0.17055229  0.49974793  0.50075905  1
  Fe  Fe31  1  0.00316042  0.33325896  0.66814332  1
  Fe  Fe32  1  0.16703386  0.50136944  0.83378884  1
  Cr  Cr33  1  0.16899065  0.83390171  0.50098308  1
  Fe  Fe34  1  0.00093362  0.66723800  0.66908051  1
  Fe  Fe35  1  0.16807925  0.83347346  0.83285923  1
  Fe  Fe36  1  0.49947800  0.16625325  0.49958569  1
  Fe  Fe37  1  0.33540443  0.00173723  0.66872332  1
  Fe  Fe38  1  0.49807578  0.16556945  0.83454547  1
  Fe  Fe39  1  0.49710196  0.50176395  0.50126765  1
  Fe  Fe40  1  0.33234349  0.33413032  0.66768584  1
  Fe  Fe41  1  0.49925904  0.50310870  0.83394301  1
  Ni  Ni42  1  0.49987021  0.83625953  0.50225631  1
  Fe  Fe43  1  0.33563613  0.66624500  0.66694621  1
  Fe  Fe44  1  0.49953353  0.83388004  0.83318657  1
  Fe  Fe45  1  0.83348212  0.16516862  0.50103454  1
  Fe  Fe46  1  0.66701217  0.99911628  0.66787192  1
  Fe  Fe47  1  0.83562497  0.16652024  0.83236495  1
  Cr  Cr48  1  0.83701561  0.50050164  0.50109475  1
  Cr  Cr49  1  0.66557833  0.33461973  0.66750031  1
  Fe  Fe50  1  0.83553448  0.50214929  0.83397443  1
  Fe  Fe51  1  0.83245606  0.83577023  0.50279330  1
  Fe  Fe52  1  0.66604211  0.66951180  0.66726860  1
  Ni  Ni53  1  0.83390361  0.83217344  0.83160324  1
" 