1044,Ni10Fe70Cr18_16,-224.880780921585, 162.967214950523,Ni10Fe70Cr18,"# generated using pymatgen
 data_Cr11Fe38Ni5
_symmetry_space_group_name_H-M   'P 1'
_cell_length_a   7.45977016
_cell_length_b   7.45977016
_cell_length_c   10.54970813
_cell_angle_alpha   90.00000000
_cell_angle_beta   90.00000000
_cell_angle_gamma   90.00000000
_symmetry_Int_Tables_number   1
_chemical_formula_structural   Cr11Fe38Ni5
_chemical_formula_sum   'Cr11 Fe38 Ni5'
_cell_volume   587.07196003
_cell_formula_units_Z   1
loop_
 _symmetry_equiv_pos_site_id
 _symmetry_equiv_pos_as_xyz
  1  'x, y, z'
loop_
 _atom_site_type_symbol
 _atom_site_label
 _atom_site_symmetry_multiplicity
 _atom_site_fract_x
 _atom_site_fract_y
 _atom_site_fract_z
 _atom_site_occupancy
  Fe  Fe0  1  1.00041213  1.00005654  0.99954092  1
  Fe  Fe1  1  0.16503956  0.16703458  0.16742924  1
  Fe  Fe2  1  1.00027318  0.00176476  0.33316648  1
  Fe  Fe3  1  0.99898107  0.33206802  0.99909822  1
  Cr  Cr4  1  0.16664716  0.49965297  0.16573281  1
  Fe  Fe5  1  0.00049125  0.33050385  0.33300143  1
  Fe  Fe6  1  0.99950420  0.66910671  0.99901219  1
  Fe  Fe7  1  0.16442752  0.83442637  0.16591452  1
  Fe  Fe8  1  0.99946814  0.66890366  0.33239922  1
  Cr  Cr9  1  0.33234273  1.00001043  0.99926783  1
  Cr  Cr10  1  0.50103119  0.16790757  0.16680450  1
  Cr  Cr11  1  0.33306579  0.00075635  0.33583162  1
  Fe  Fe12  1  0.33421420  0.33498831  0.99882686  1
  Fe  Fe13  1  0.50211316  0.49976664  0.16658965  1
  Ni  Ni14  1  0.33354798  0.33422901  0.33412874  1
  Fe  Fe15  1  0.33459872  0.66697687  0.99798270  1
  Cr  Cr16  1  0.50211623  0.83426751  0.16730122  1
  Cr  Cr17  1  0.33319331  0.66639574  0.33541389  1
  Cr  Cr18  1  0.66967929  0.99993890  0.99786096  1
  Fe  Fe19  1  0.83537668  0.16737358  0.16789802  1
  Ni  Ni20  1  0.66991681  0.00138189  0.33523849  1
  Fe  Fe21  1  0.66823338  0.33578726  0.99815255  1
  Fe  Fe22  1  0.83144735  0.50037063  0.16719558  1
  Fe  Fe23  1  0.66592454  0.33312737  0.33483762  1
  Fe  Fe24  1  0.66740208  0.66571908  0.99871142  1
  Fe  Fe25  1  0.83578380  0.83375837  0.16855166  1
  Fe  Fe26  1  0.66726634  0.66640214  0.33328167  1
  Fe  Fe27  1  0.16474959  0.16659165  0.50086235  1
  Fe  Fe28  1  0.00117527  0.00214357  0.66858001  1
  Fe  Fe29  1  0.16605420  0.16572043  0.83356148  1
  Cr  Cr30  1  0.16544584  0.49967064  0.50222320  1
  Fe  Fe31  1  0.99851108  0.33203997  0.66935595  1
  Fe  Fe32  1  0.16707335  0.50244736  0.83471419  1
  Fe  Fe33  1  0.16592244  0.83466403  0.50391063  1
  Fe  Fe34  1  0.00049522  0.66691359  0.66961679  1
  Ni  Ni35  1  0.16701610  0.83310823  0.83292904  1
  Fe  Fe36  1  0.50340644  0.16831030  0.50017935  1
  Fe  Fe37  1  0.33439260  0.99953815  0.66785238  1
  Fe  Fe38  1  0.50088051  0.16664911  0.83302266  1
  Fe  Fe39  1  0.50259805  0.49949033  0.50106535  1
  Cr  Cr40  1  0.33450398  0.33384987  0.66776792  1
  Fe  Fe41  1  0.50101834  0.50215284  0.83407684  1
  Fe  Fe42  1  0.50111732  0.83389147  0.50248466  1
  Fe  Fe43  1  0.33513337  0.66861581  0.66799207  1
  Ni  Ni44  1  0.50067434  0.83396798  0.83178952  1
  Fe  Fe45  1  0.83368999  0.16749013  0.50120693  1
  Fe  Fe46  1  0.66574379  0.00244973  0.66787492  1
  Fe  Fe47  1  0.83459639  0.16683688  0.83221101  1
  Cr  Cr48  1  0.83464312  0.49959271  0.50021960  1
  Ni  Ni49  1  0.66820941  0.33338253  0.66812952  1
  Fe  Fe50  1  0.83357096  0.50170996  0.83300168  1
  Cr  Cr51  1  0.83280204  0.83414043  0.50184040  1
  Fe  Fe52  1  0.66551082  0.66551920  0.66871822  1
  Fe  Fe53  1  0.83490777  0.83277810  0.83198345  1
" 