5245,Ni10Fe70Cr18_8,-224.731814678279, 159.406635960422,Ni10Fe70Cr18,"# generated using pymatgen
 data_Cr11Fe38Ni5
_symmetry_space_group_name_H-M   'P 1'
_cell_length_a   7.46004146
_cell_length_b   7.46004146
_cell_length_c   10.55009181
_cell_angle_alpha   90.00000000
_cell_angle_beta   90.00000000
_cell_angle_gamma   90.00000000
_symmetry_Int_Tables_number   1
_chemical_formula_structural   Cr11Fe38Ni5
_chemical_formula_sum   'Cr11 Fe38 Ni5'
_cell_volume   587.13601608
_cell_formula_units_Z   1
loop_
 _symmetry_equiv_pos_site_id
 _symmetry_equiv_pos_as_xyz
  1  'x, y, z'
loop_
 _atom_site_type_symbol
 _atom_site_label
 _atom_site_symmetry_multiplicity
 _atom_site_fract_x
 _atom_site_fract_y
 _atom_site_fract_z
 _atom_site_occupancy
  Fe  Fe0  1  0.00108191  0.99822677  0.99816526  1
  Cr  Cr1  1  0.16477988  0.16435202  0.16781743  1
  Fe  Fe2  1  0.99889057  1.00000061  0.33456353  1
  Fe  Fe3  1  0.99984986  0.33662162  0.99785118  1
  Fe  Fe4  1  0.16647443  0.50337942  0.16695797  1
  Fe  Fe5  1  1.00031978  0.33508684  0.33531589  1
  Ni  Ni6  1  0.00113484  0.66801659  0.00095473  1
  Fe  Fe7  1  0.16503912  0.83099104  0.16741602  1
  Fe  Fe8  1  0.99947547  0.66616295  0.33299017  1
  Fe  Fe9  1  0.33123074  0.99735746  0.99900941  1
  Fe  Fe10  1  0.50132133  0.16836247  0.16793094  1
  Fe  Fe11  1  0.33462188  0.00165034  0.33475673  1
  Cr  Cr12  1  0.33252328  0.33297587  0.00223311  1
  Ni  Ni13  1  0.50127179  0.50078811  0.16843419  1
  Fe  Fe14  1  0.33392333  0.33418715  0.33286930  1
  Fe  Fe15  1  0.32974468  0.66740054  1.00017056  1
  Cr  Cr16  1  0.49892894  0.83253981  0.16727409  1
  Fe  Fe17  1  0.33299524  0.66548345  0.33306909  1
  Fe  Fe18  1  0.66866499  1.00009632  0.99957986  1
  Cr  Cr19  1  0.83415576  0.16662271  0.16438725  1
  Fe  Fe20  1  0.66761716  0.00066463  0.33528921  1
  Fe  Fe21  1  0.66964003  0.33487891  0.00171526  1
  Fe  Fe22  1  0.83454809  0.50167668  0.16782768  1
  Fe  Fe23  1  0.66715448  0.33397907  0.33318250  1
  Cr  Cr24  1  0.66994726  0.66710921  0.99938139  1
  Fe  Fe25  1  0.83641695  0.83215549  0.16777691  1
  Fe  Fe26  1  0.66874663  0.66668681  0.33349327  1
  Fe  Fe27  1  0.16736232  0.16927020  0.50087202  1
  Fe  Fe28  1  0.99950979  0.99986083  0.66791682  1
  Ni  Ni29  1  0.16388938  0.16563089  0.83160688  1
  Fe  Fe30  1  0.16423466  0.49889269  0.50116374  1
  Fe  Fe31  1  0.00107870  0.33499985  0.66758105  1
  Ni  Ni32  1  0.16333669  0.50099987  0.83346729  1
  Cr  Cr33  1  0.16565180  0.83397801  0.49988005  1
  Ni  Ni34  1  0.99922251  0.66627307  0.66733127  1
  Fe  Fe35  1  0.16516775  0.83376864  0.83454989  1
  Fe  Fe36  1  0.50013505  0.16516346  0.50096934  1
  Fe  Fe37  1  0.33267321  0.00144811  0.66734559  1
  Cr  Cr38  1  0.50195301  0.16687018  0.83448146  1
  Cr  Cr39  1  0.50053708  0.50038455  0.50088861  1
  Fe  Fe40  1  0.32956149  0.33219717  0.66771179  1
  Cr  Cr41  1  0.50104813  0.50121262  0.83403623  1
  Fe  Fe42  1  0.50156731  0.83677431  0.49872588  1
  Cr  Cr43  1  0.33146463  0.66761901  0.67039706  1
  Fe  Fe44  1  0.49826555  0.83647855  0.83508944  1
  Fe  Fe45  1  0.83391106  0.16718059  0.50003552  1
  Fe  Fe46  1  0.66886348  0.00054282  0.66617481  1
  Fe  Fe47  1  0.83651366  0.16827640  0.83417550  1
  Fe  Fe48  1  0.83730810  0.50033987  0.49991953  1
  Fe  Fe49  1  0.67057573  0.33245887  0.66614511  1
  Fe  Fe50  1  0.83881856  0.49860617  0.83368570  1
  Fe  Fe51  1  0.83341324  0.83397324  0.49971904  1
  Cr  Cr52  1  0.67083742  0.66981859  0.66721642  1
  Fe  Fe53  1  0.83795852  0.83488581  0.83385828  1
" 