6005,Ni10Fe30Cr59_1,-215.134610006189, 187.608873266892,Ni10Fe30Cr59,"# generated using pymatgen
 data_Cr33Fe16Ni5
_symmetry_space_group_name_H-M   'P 1'
_cell_length_a   7.54715299
_cell_length_b   7.54715299
_cell_length_c   10.67328611
_cell_angle_alpha   90.00000000
_cell_angle_beta   90.00000000
_cell_angle_gamma   90.00000000
_symmetry_Int_Tables_number   1
_chemical_formula_structural   Cr33Fe16Ni5
_chemical_formula_sum   'Cr33 Fe16 Ni5'
_cell_volume   607.94523464
_cell_formula_units_Z   1
loop_
 _symmetry_equiv_pos_site_id
 _symmetry_equiv_pos_as_xyz
  1  'x, y, z'
loop_
 _atom_site_type_symbol
 _atom_site_label
 _atom_site_symmetry_multiplicity
 _atom_site_fract_x
 _atom_site_fract_y
 _atom_site_fract_z
 _atom_site_occupancy
  Cr  Cr0  1  -0.00433446  0.99356762  0.99230526  1
  Cr  Cr1  1  0.16208522  0.16029776  0.16282038  1
  Fe  Fe2  1  -0.00268930  0.99384032  0.32722245  1
  Ni  Ni3  1  -0.00287048  0.32737178  -0.00296789  1
  Fe  Fe4  1  0.16405545  0.49237170  0.16140670  1
  Fe  Fe5  1  -0.00348095  0.32665689  0.32697272  1
  Cr  Cr6  1  -0.00478784  0.66015821  0.00038033  1
  Fe  Fe7  1  0.16421493  0.82813977  0.16373609  1
  Cr  Cr8  1  -0.00410813  0.65985762  0.32027823  1
  Cr  Cr9  1  0.32833783  -0.00365983  -0.00278571  1
  Fe  Fe10  1  0.49294727  0.16390718  0.16250922  1
  Ni  Ni11  1  0.32618919  0.99270698  0.32669528  1
  Ni  Ni12  1  0.32586246  0.32901933  -0.00205292  1
  Ni  Ni13  1  0.49172694  0.49643126  0.16338375  1
  Cr  Cr14  1  0.32726437  0.32786427  0.32768549  1
  Cr  Cr15  1  0.32773993  0.66143735  -0.00309068  1
  Fe  Fe16  1  0.49089433  0.82759239  0.16404228  1
  Ni  Ni17  1  0.32714146  0.66385060  0.32724902  1
  Cr  Cr18  1  0.66006179  0.99370882  -0.00262924  1
  Cr  Cr19  1  0.82922871  0.16090976  0.16298909  1
  Cr  Cr20  1  0.65957279  0.99399084  0.32580160  1
  Cr  Cr21  1  0.65961096  0.32864040  -0.00280671  1
  Fe  Fe22  1  0.82761637  0.49120871  0.16124258  1
  Cr  Cr23  1  0.66220126  0.32876291  0.32918044  1
  Cr  Cr24  1  0.66152820  0.66202926  -0.00071797  1
  Fe  Fe25  1  0.82854510  0.82909377  0.16209732  1
  Cr  Cr26  1  0.66099596  0.66147478  0.32573726  1
  Fe  Fe27  1  0.15939383  0.15998792  0.49125200  1
  Fe  Fe28  1  -0.00527229  -0.00303506  0.66145967  1
  Fe  Fe29  1  0.16070349  0.16356510  0.83071511  1
  Cr  Cr30  1  0.16256126  0.49592069  0.49215220  1
  Cr  Cr31  1  -0.00409655  0.32558106  0.66051068  1
  Cr  Cr32  1  0.16253614  0.49329142  0.83153082  1
  Cr  Cr33  1  0.16191616  0.82897011  0.49355387  1
  Cr  Cr34  1  -0.00462113  0.66057295  0.66367852  1
  Cr  Cr35  1  0.16175781  0.82813875  0.82612246  1
  Cr  Cr36  1  0.49394015  0.16005811  0.49011644  1
  Cr  Cr37  1  0.32631187  -0.00318126  0.66119943  1
  Cr  Cr38  1  0.49387536  0.16347963  0.83468939  1
  Fe  Fe39  1  0.49269820  0.49738583  0.49223608  1
  Cr  Cr40  1  0.32695737  0.32695476  0.66044975  1
  Cr  Cr41  1  0.49328799  0.49429476  0.82582975  1
  Fe  Fe42  1  0.49260566  0.82749378  0.49246563  1
  Fe  Fe43  1  0.32828691  0.66083260  0.65842993  1
  Cr  Cr44  1  0.49417886  0.82741974  0.82598879  1
  Fe  Fe45  1  0.83141128  0.16005840  0.49207068  1
  Cr  Cr46  1  0.66164823  -0.00320407  0.66186040  1
  Fe  Fe47  1  0.82983181  0.16319110  0.82975513  1
  Cr  Cr48  1  0.82946142  0.49372103  0.49168828  1
  Cr  Cr49  1  0.66163734  0.32721187  0.65781005  1
  Cr  Cr50  1  0.82811364  0.49323012  0.83142076  1
  Cr  Cr51  1  0.83013420  0.83021981  0.49381345  1
  Cr  Cr52  1  0.66071696  0.66106762  0.65779693  1
  Cr  Cr53  1  0.82789704  0.82896515  0.82814178  1
" 