522,Ni10Fe70Cr18_6,-224.761446303986, 165.018630341183,Ni10Fe70Cr18,"# generated using pymatgen
 data_Cr11Fe38Ni5
_symmetry_space_group_name_H-M   'P 1'
_cell_length_a   7.46081037
_cell_length_b   7.46081037
_cell_length_c   10.55117921
_cell_angle_alpha   90.00000000
_cell_angle_beta   90.00000000
_cell_angle_gamma   90.00000000
_symmetry_Int_Tables_number   1
_chemical_formula_structural   Cr11Fe38Ni5
_chemical_formula_sum   'Cr11 Fe38 Ni5'
_cell_volume   587.31758253
_cell_formula_units_Z   1
loop_
 _symmetry_equiv_pos_site_id
 _symmetry_equiv_pos_as_xyz
  1  'x, y, z'
loop_
 _atom_site_type_symbol
 _atom_site_label
 _atom_site_symmetry_multiplicity
 _atom_site_fract_x
 _atom_site_fract_y
 _atom_site_fract_z
 _atom_site_occupancy
  Cr  Cr0  1  0.00078874  0.99933544  0.00071982  1
  Fe  Fe1  1  0.16686156  0.16729088  0.16776921  1
  Fe  Fe2  1  0.99999998  0.00084830  0.33365225  1
  Fe  Fe3  1  0.00202662  0.33593906  1.00007111  1
  Fe  Fe4  1  0.16803495  0.50049602  0.16576003  1
  Fe  Fe5  1  0.00057982  0.33199514  0.33313517  1
  Ni  Ni6  1  0.00116415  0.66667844  0.99917726  1
  Fe  Fe7  1  0.16743464  0.83346687  0.16682873  1
  Fe  Fe8  1  0.99925440  0.66840927  0.33267335  1
  Fe  Fe9  1  0.33362043  0.99959529  1.00026244  1
  Cr  Cr10  1  0.50053058  0.16410286  0.16628583  1
  Fe  Fe11  1  0.33333164  0.00186888  0.33395152  1
  Fe  Fe12  1  0.33203847  0.33508485  0.99943402  1
  Fe  Fe13  1  0.50019091  0.50132047  0.16691361  1
  Fe  Fe14  1  0.33436407  0.33258230  0.33375744  1
  Fe  Fe15  1  0.33233853  0.66657390  0.00128202  1
  Ni  Ni16  1  0.50064147  0.83462612  0.16611972  1
  Cr  Cr17  1  0.33434719  0.66616124  0.33219120  1
  Fe  Fe18  1  0.66672763  0.99890463  0.00118438  1
  Fe  Fe19  1  0.83347283  0.16629691  0.16790396  1
  Fe  Fe20  1  0.66792143  0.00054353  0.33355155  1
  Fe  Fe21  1  0.66718936  0.33465889  1.00028169  1
  Cr  Cr22  1  0.83609591  0.49968222  0.16662542  1
  Ni  Ni23  1  0.66648210  0.33283398  0.33575594  1
  Fe  Fe24  1  0.66758087  0.66769192  0.00056646  1
  Fe  Fe25  1  0.83264259  0.83419987  0.16735043  1
  Fe  Fe26  1  0.66733523  0.66737661  0.33304567  1
  Fe  Fe27  1  0.16741767  0.16541175  0.50073363  1
  Fe  Fe28  1  0.00269187  0.99962918  0.66651487  1
  Fe  Fe29  1  0.16950795  0.16785183  0.83275227  1
  Cr  Cr30  1  0.16608730  0.49991726  0.50063760  1
  Fe  Fe31  1  0.00156568  0.33287315  0.66804813  1
  Ni  Ni32  1  0.16557342  0.50058434  0.83422929  1
  Fe  Fe33  1  0.16531730  0.83579179  0.50140641  1
  Fe  Fe34  1  0.00233697  0.66875207  0.66918318  1
  Fe  Fe35  1  0.16624356  0.83264584  0.83301542  1
  Fe  Fe36  1  0.49980531  0.16935685  0.49969308  1
  Ni  Ni37  1  0.32987187  0.00253767  0.66710840  1
  Fe  Fe38  1  0.49773321  0.16916810  0.83417959  1
  Fe  Fe39  1  0.50085536  0.49755843  0.50004317  1
  Fe  Fe40  1  0.33439644  0.33284416  0.66806258  1
  Fe  Fe41  1  0.49940464  0.49826992  0.83429757  1
  Cr  Cr42  1  0.49922062  0.83572383  0.49910758  1
  Fe  Fe43  1  0.33177731  0.66693849  0.66778609  1
  Cr  Cr44  1  0.49854807  0.83571996  0.83638019  1
  Fe  Fe45  1  0.83402907  0.16685157  0.49958973  1
  Cr  Cr46  1  0.66815993  0.00252542  0.66637168  1
  Cr  Cr47  1  0.83318638  0.16927620  0.83428895  1
  Cr  Cr48  1  0.83444284  0.49913617  0.50061640  1
  Fe  Fe49  1  0.66528962  0.33319858  0.66650220  1
  Fe  Fe50  1  0.83518269  0.50153425  0.83468521  1
  Fe  Fe51  1  0.83651745  0.83474216  0.49921122  1
  Cr  Cr52  1  0.66792147  0.66419198  0.66718870  1
  Fe  Fe53  1  0.83649189  0.83097716  0.83468862  1
" 