6804,Ni10Fe30Cr59_10,-214.788140144243, 180.973681822664,Ni10Fe30Cr59,"# generated using pymatgen
 data_Cr33Fe16Ni5
_symmetry_space_group_name_H-M   'P 1'
_cell_length_a   7.54079233
_cell_length_b   7.54079233
_cell_length_c   10.66429079
_cell_angle_alpha   90.00000000
_cell_angle_beta   90.00000000
_cell_angle_gamma   90.00000000
_symmetry_Int_Tables_number   1
_chemical_formula_structural   Cr33Fe16Ni5
_chemical_formula_sum   'Cr33 Fe16 Ni5'
_cell_volume   606.40942222
_cell_formula_units_Z   1
loop_
 _symmetry_equiv_pos_site_id
 _symmetry_equiv_pos_as_xyz
  1  'x, y, z'
loop_
 _atom_site_type_symbol
 _atom_site_label
 _atom_site_symmetry_multiplicity
 _atom_site_fract_x
 _atom_site_fract_y
 _atom_site_fract_z
 _atom_site_occupancy
  Cr  Cr0  1  -0.00174557  -0.00353242  0.99251165  1
  Fe  Fe1  1  0.16157770  0.16054159  0.16188217  1
  Ni  Ni2  1  -0.00226907  0.99502893  0.32989136  1
  Cr  Cr3  1  -0.00293769  0.32622273  0.99464635  1
  Cr  Cr4  1  0.16238642  0.49532385  0.16060162  1
  Cr  Cr5  1  0.99401203  0.32557910  0.32772963  1
  Cr  Cr6  1  0.99430035  0.66271409  0.99234974  1
  Cr  Cr7  1  0.16313544  0.82808838  0.16346882  1
  Cr  Cr8  1  -0.00367313  0.66394844  0.32961565  1
  Fe  Fe9  1  0.32727271  0.99507359  -0.00465660  1
  Cr  Cr10  1  0.49446668  0.16144515  0.15999091  1
  Cr  Cr11  1  0.32524198  0.99329652  0.32703369  1
  Fe  Fe12  1  0.32795075  0.32770886  -0.00439213  1
  Fe  Fe13  1  0.49524189  0.49556236  0.16207275  1
  Cr  Cr14  1  0.33083973  0.32947871  0.32820489  1
  Fe  Fe15  1  0.32885657  0.66254454  -0.00441182  1
  Fe  Fe16  1  0.49342495  0.82705329  0.16109923  1
  Fe  Fe17  1  0.32893106  0.66209662  0.32906942  1
  Cr  Cr18  1  0.66075586  0.99349206  0.99299707  1
  Cr  Cr19  1  0.82800681  0.16223512  0.16629609  1
  Cr  Cr20  1  0.66186826  -0.00416449  0.32936990  1
  Cr  Cr21  1  0.66110399  0.33019636  -0.00363173  1
  Fe  Fe22  1  0.82694496  0.49411340  0.16278717  1
  Ni  Ni23  1  0.66029417  0.33105391  0.32871809  1
  Cr  Cr24  1  0.66014794  0.66160911  -0.00301498  1
  Cr  Cr25  1  0.82862676  0.82867139  0.16241791  1
  Cr  Cr26  1  0.65791478  0.65846115  0.32560587  1
  Cr  Cr27  1  0.16173198  0.16042152  0.49387703  1
  Cr  Cr28  1  -0.00403910  0.99500201  0.66277027  1
  Fe  Fe29  1  0.16257059  0.16102073  0.82819986  1
  Cr  Cr30  1  0.16399836  0.49825155  0.49707127  1
  Cr  Cr31  1  -0.00373253  0.32614747  0.66318214  1
  Cr  Cr32  1  0.16343820  0.49563921  0.82766385  1
  Ni  Ni33  1  0.16348223  0.82791348  0.49511224  1
  Cr  Cr34  1  -0.00301880  0.66435378  0.66356290  1
  Fe  Fe35  1  0.16294576  0.83016664  0.82786506  1
  Cr  Cr36  1  0.49824818  0.16210175  0.49804537  1
  Fe  Fe37  1  0.32812126  0.99394192  0.66152215  1
  Cr  Cr38  1  0.49466125  0.16011283  0.82706975  1
  Fe  Fe39  1  0.49395955  0.49555504  0.49476694  1
  Fe  Fe40  1  0.32867187  0.32765819  0.66150453  1
  Cr  Cr41  1  0.49153491  0.49427077  0.82740966  1
  Cr  Cr42  1  0.49285726  0.82931059  0.49585261  1
  Fe  Fe43  1  0.32809062  0.66388188  0.66091539  1
  Cr  Cr44  1  0.49402524  0.83089055  0.82865818  1
  Fe  Fe45  1  0.82834068  0.15999073  0.49464495  1
  Ni  Ni46  1  0.66123184  -0.00414403  0.66345504  1
  Ni  Ni47  1  0.82848520  0.15854079  0.82632541  1
  Cr  Cr48  1  0.82849243  0.49289140  0.49290654  1
  Cr  Cr49  1  0.66087514  0.32728948  0.65986773  1
  Cr  Cr50  1  0.83027863  0.49487114  0.83017517  1
  Cr  Cr51  1  0.82998725  0.83167261  0.49516379  1
  Cr  Cr52  1  0.66015492  0.66293074  0.66276319  1
  Fe  Fe53  1  0.82788588  0.83143001  0.82735144  1
" 