4001,Ni10Fe35Cr53_11,-216.651759305679, 181.596784819667,Ni10Fe35Cr53,"# generated using pymatgen
 data_Cr30Fe19Ni5
_symmetry_space_group_name_H-M   'P 1'
_cell_length_a   7.53615360
_cell_length_b   7.53615360
_cell_length_c   10.65773063
_cell_angle_alpha   90.00000000
_cell_angle_beta   90.00000000
_cell_angle_gamma   90.00000000
_symmetry_Int_Tables_number   1
_chemical_formula_structural   Cr30Fe19Ni5
_chemical_formula_sum   'Cr30 Fe19 Ni5'
_cell_volume   605.29100801
_cell_formula_units_Z   1
loop_
 _symmetry_equiv_pos_site_id
 _symmetry_equiv_pos_as_xyz
  1  'x, y, z'
loop_
 _atom_site_type_symbol
 _atom_site_label
 _atom_site_symmetry_multiplicity
 _atom_site_fract_x
 _atom_site_fract_y
 _atom_site_fract_z
 _atom_site_occupancy
  Fe  Fe0  1  0.99534216  -0.00270727  -0.00455835  1
  Fe  Fe1  1  0.16066814  0.16348966  0.16155065  1
  Cr  Cr2  1  -0.00378226  -0.00398305  0.32893955  1
  Ni  Ni3  1  0.99423644  0.32813686  0.99485612  1
  Cr  Cr4  1  0.16316410  0.49498829  0.16142574  1
  Cr  Cr5  1  -0.00307087  0.32702972  0.32689639  1
  Fe  Fe6  1  -0.00413295  0.66076149  0.99420450  1
  Cr  Cr7  1  0.16243938  0.82759864  0.15929939  1
  Cr  Cr8  1  0.99425420  0.66320125  0.33075723  1
  Cr  Cr9  1  0.32638121  0.99359648  0.99531099  1
  Cr  Cr10  1  0.49651024  0.16170448  0.16437723  1
  Cr  Cr11  1  0.32838658  -0.00341717  0.32999073  1
  Cr  Cr12  1  0.32630056  0.32842157  -0.00362596  1
  Cr  Cr13  1  0.49272182  0.49541763  0.16380760  1
  Ni  Ni14  1  0.33037740  0.32777773  0.33023718  1
  Fe  Fe15  1  0.32756986  0.66252260  -0.00455366  1
  Fe  Fe16  1  0.49495963  0.82809207  0.16236033  1
  Fe  Fe17  1  0.32938856  0.66122673  0.32955520  1
  Cr  Cr18  1  0.66264593  0.99485270  -0.00445309  1
  Fe  Fe19  1  0.83017817  0.16259187  0.16173041  1
  Fe  Fe20  1  0.66177715  -0.00408755  0.32961386  1
  Cr  Cr21  1  0.66598046  0.33042798  0.99365942  1
  Cr  Cr22  1  0.83035285  0.49388281  0.16168035  1
  Fe  Fe23  1  0.65999404  0.32734396  0.32915356  1
  Cr  Cr24  1  0.66200912  0.66096951  0.99491478  1
  Cr  Cr25  1  0.82840514  0.83139114  0.16264926  1
  Cr  Cr26  1  0.66098585  0.66267995  0.32978303  1
  Fe  Fe27  1  0.16363056  0.16300739  0.49595806  1
  Cr  Cr28  1  -0.00251165  0.99434325  0.66124683  1
  Cr  Cr29  1  0.16092801  0.16299898  0.82860566  1
  Cr  Cr30  1  0.16484408  0.49516740  0.49650561  1
  Fe  Fe31  1  -0.00381710  0.32950241  0.66341943  1
  Cr  Cr32  1  0.16040846  0.49672965  0.82831265  1
  Fe  Fe33  1  0.16135684  0.82830479  0.49574254  1
  Fe  Fe34  1  -0.00417878  0.66170671  0.66193477  1
  Fe  Fe35  1  0.16137149  0.82691262  0.82932687  1
  Fe  Fe36  1  0.49416999  0.16354434  0.49454522  1
  Cr  Cr37  1  0.32685917  -0.00399954  0.66094061  1
  Cr  Cr38  1  0.49611646  0.16221586  0.82676651  1
  Fe  Fe39  1  0.49382327  0.49450166  0.49494230  1
  Ni  Ni40  1  0.32767023  0.32937492  0.65968192  1
  Cr  Cr41  1  0.49399279  0.49488461  0.82798766  1
  Fe  Fe42  1  0.49601817  0.82820312  0.49507942  1
  Fe  Fe43  1  0.32797761  0.66135422  0.66124319  1
  Cr  Cr44  1  0.49384087  0.82914102  0.83055302  1
  Cr  Cr45  1  0.82696354  0.15966697  0.49446302  1
  Cr  Cr46  1  0.66189496  0.99438117  0.66123590  1
  Fe  Fe47  1  0.83041708  0.16479750  0.82955384  1
  Cr  Cr48  1  0.82957613  0.49690543  0.49617292  1
  Cr  Cr49  1  0.66182311  0.33103102  0.66426482  1
  Ni  Ni50  1  0.83244227  0.49460675  0.82889981  1
  Ni  Ni51  1  0.82821271  0.82975035  0.49508414  1
  Cr  Cr52  1  0.66347765  0.66083636  0.66155639  1
  Cr  Cr53  1  0.83106107  0.82863288  0.82882638  1
" 