2522,Ni10Fe30Cr59_9,-215.012174720834, 184.021903463833,Ni10Fe30Cr59,"# generated using pymatgen
 data_Cr33Fe16Ni5
_symmetry_space_group_name_H-M   'P 1'
_cell_length_a   7.53533229
_cell_length_b   7.53533229
_cell_length_c   10.65656911
_cell_angle_alpha   90.00000000
_cell_angle_beta   90.00000000
_cell_angle_gamma   90.00000000
_symmetry_Int_Tables_number   1
_chemical_formula_structural   Cr33Fe16Ni5
_chemical_formula_sum   'Cr33 Fe16 Ni5'
_cell_volume   605.09313015
_cell_formula_units_Z   1
loop_
 _symmetry_equiv_pos_site_id
 _symmetry_equiv_pos_as_xyz
  1  'x, y, z'
loop_
 _atom_site_type_symbol
 _atom_site_label
 _atom_site_symmetry_multiplicity
 _atom_site_fract_x
 _atom_site_fract_y
 _atom_site_fract_z
 _atom_site_occupancy
  Cr  Cr0  1  -0.00153887  -0.00124479  0.99250906  1
  Fe  Fe1  1  0.16009768  0.16496290  0.16250491  1
  Fe  Fe2  1  -0.00396734  -0.00374375  0.33035296  1
  Fe  Fe3  1  -0.00101067  0.33013418  -0.00415251  1
  Fe  Fe4  1  0.16003081  0.49382858  0.16118926  1
  Fe  Fe5  1  -0.00310702  0.32815846  0.32896848  1
  Ni  Ni6  1  -0.00154566  0.65885226  -0.00401600  1
  Cr  Cr7  1  0.16050009  0.82746470  0.16499844  1
  Fe  Fe8  1  -0.00350132  0.66189326  0.32840490  1
  Cr  Cr9  1  0.32592205  -0.00285894  -0.00289217  1
  Cr  Cr10  1  0.49376849  0.16236000  0.16159063  1
  Cr  Cr11  1  0.32788425  0.99387678  0.32881905  1
  Fe  Fe12  1  0.32564605  0.32980451  0.99505575  1
  Cr  Cr13  1  0.49344220  0.49326077  0.16108909  1
  Cr  Cr14  1  0.32634685  0.32978893  0.32806040  1
  Cr  Cr15  1  0.32859412  0.66149482  -0.00357452  1
  Fe  Fe16  1  0.49505942  0.82851988  0.16291673  1
  Cr  Cr17  1  0.32955416  0.66262303  0.33075678  1
  Cr  Cr18  1  0.66165571  0.99419984  -0.00304215  1
  Cr  Cr19  1  0.82980341  0.16293080  0.16485878  1
  Cr  Cr20  1  0.66139991  0.99467144  0.32978897  1
  Cr  Cr21  1  0.66370154  0.33079249  0.99240417  1
  Cr  Cr22  1  0.83307746  0.49571051  0.16264841  1
  Cr  Cr23  1  0.66353873  0.32963022  0.33521065  1
  Cr  Cr24  1  0.66202196  0.66129288  -0.00387827  1
  Cr  Cr25  1  0.83071831  0.82805277  0.16066003  1
  Cr  Cr26  1  0.65991496  0.66199160  0.32726747  1
  Cr  Cr27  1  0.16176216  0.16066110  0.49467679  1
  Ni  Ni28  1  -0.00231333  -0.00312672  0.65998163  1
  Fe  Fe29  1  0.16289014  0.16357373  0.82736529  1
  Cr  Cr30  1  0.16306465  0.49811456  0.49510173  1
  Cr  Cr31  1  0.99507964  0.32728546  0.66322076  1
  Cr  Cr32  1  0.16455896  0.49567968  0.82934977  1
  Fe  Fe33  1  0.16294764  0.82750263  0.49686422  1
  Fe  Fe34  1  -0.00361256  0.66389611  0.66142654  1
  Cr  Cr35  1  0.16000253  0.82823595  0.82304443  1
  Fe  Fe36  1  0.49560555  0.16335012  0.49673853  1
  Cr  Cr37  1  0.32674208  0.99438096  0.66042877  1
  Cr  Cr38  1  0.49259582  0.16579048  0.82785854  1
  Ni  Ni39  1  0.49381343  0.49475505  0.49966228  1
  Fe  Fe40  1  0.33066017  0.33026584  0.66097251  1
  Ni  Ni41  1  0.49185137  0.49188907  0.82587413  1
  Ni  Ni42  1  0.49419846  0.82797900  0.49462474  1
  Fe  Fe43  1  0.32971525  0.66119259  0.66023713  1
  Cr  Cr44  1  0.49406386  0.82821644  0.83160605  1
  Fe  Fe45  1  0.82894965  0.16153405  0.49662621  1
  Cr  Cr46  1  0.66309965  -0.00403787  0.66046172  1
  Cr  Cr47  1  0.82866664  0.16102441  0.82689444  1
  Cr  Cr48  1  0.82958895  0.49559189  0.49490896  1
  Fe  Fe49  1  0.65973759  0.32880602  0.66071669  1
  Cr  Cr50  1  0.82911850  0.49713001  0.82961827  1
  Cr  Cr51  1  0.83326654  0.82980336  0.49553441  1
  Cr  Cr52  1  0.65887643  0.65913236  0.66334875  1
  Cr  Cr53  1  0.83239077  0.82825341  0.82968518  1
" 