5823,Ni10Fe70Cr18_14,-225.126163419282, 160.867320902894,Ni10Fe70Cr18,"# generated using pymatgen
 data_Cr11Fe38Ni5
_symmetry_space_group_name_H-M   'P 1'
_cell_length_a   7.46336730
_cell_length_b   7.46336730
_cell_length_c   10.55479526
_cell_angle_alpha   90.00000000
_cell_angle_beta   90.00000000
_cell_angle_gamma   90.00000000
_symmetry_Int_Tables_number   1
_chemical_formula_structural   Cr11Fe38Ni5
_chemical_formula_sum   'Cr11 Fe38 Ni5'
_cell_volume   587.92163777
_cell_formula_units_Z   1
loop_
 _symmetry_equiv_pos_site_id
 _symmetry_equiv_pos_as_xyz
  1  'x, y, z'
loop_
 _atom_site_type_symbol
 _atom_site_label
 _atom_site_symmetry_multiplicity
 _atom_site_fract_x
 _atom_site_fract_y
 _atom_site_fract_z
 _atom_site_occupancy
  Fe  Fe0  1  0.00126128  0.99886490  0.00184798  1
  Ni  Ni1  1  0.16441050  0.16747492  0.16356274  1
  Fe  Fe2  1  1.00008672  0.00241855  0.33324138  1
  Fe  Fe3  1  0.00247453  0.33299443  0.00227525  1
  Fe  Fe4  1  0.16916172  0.50184239  0.16584007  1
  Fe  Fe5  1  0.00162524  0.33057935  0.33411756  1
  Fe  Fe6  1  0.99973574  0.66854794  0.00077516  1
  Fe  Fe7  1  0.16752724  0.83482807  0.16605603  1
  Fe  Fe8  1  0.00272318  0.66806591  0.33388817  1
  Fe  Fe9  1  0.33334955  0.99901123  0.00090531  1
  Cr  Cr10  1  0.50096483  0.16240021  0.16857370  1
  Cr  Cr11  1  0.33033897  0.00046717  0.33715186  1
  Fe  Fe12  1  0.33250768  0.33272957  0.00170235  1
  Fe  Fe13  1  0.49912191  0.50177847  0.16752608  1
  Cr  Cr14  1  0.33159565  0.33451803  0.33292953  1
  Fe  Fe15  1  0.33522189  0.66743460  0.00055081  1
  Ni  Ni16  1  0.50064936  0.83093815  0.16628404  1
  Fe  Fe17  1  0.33105619  0.66793618  0.33184937  1
  Fe  Fe18  1  0.66645100  0.99615542  1.00006223  1
  Fe  Fe19  1  0.83540335  0.16332407  0.16760603  1
  Fe  Fe20  1  0.66948755  0.99921560  0.33397642  1
  Cr  Cr21  1  0.66593092  0.33370086  0.00087626  1
  Cr  Cr22  1  0.83642592  0.49922384  0.16826426  1
  Fe  Fe23  1  0.66914023  0.33162527  0.33378005  1
  Fe  Fe24  1  0.66653519  0.66871109  0.00047214  1
  Fe  Fe25  1  0.83378357  0.83579395  0.16708649  1
  Fe  Fe26  1  0.66783041  0.66852777  0.33120051  1
  Ni  Ni27  1  0.16275242  0.16808029  0.50458448  1
  Fe  Fe28  1  0.00144865  0.99981584  0.66626224  1
  Fe  Fe29  1  0.16933405  0.16460470  0.83401836  1
  Ni  Ni30  1  0.16399089  0.49971876  0.49841138  1
  Fe  Fe31  1  0.99886362  0.33374372  0.66496406  1
  Cr  Cr32  1  0.16486760  0.49806200  0.83520678  1
  Fe  Fe33  1  0.16228167  0.83410084  0.50060431  1
  Fe  Fe34  1  0.99695357  0.66660006  0.66576925  1
  Fe  Fe35  1  0.16522950  0.83532113  0.83445234  1
  Fe  Fe36  1  0.50018656  0.16977319  0.50083310  1
  Fe  Fe37  1  0.33174694  0.00223839  0.66659712  1
  Fe  Fe38  1  0.49779733  0.16740360  0.83394693  1
  Cr  Cr39  1  0.50118434  0.50249044  0.49793634  1
  Fe  Fe40  1  0.33277271  0.33223175  0.66538540  1
  Fe  Fe41  1  0.50075123  0.50004780  0.83240403  1
  Cr  Cr42  1  0.50105098  0.83459811  0.49859374  1
  Cr  Cr43  1  0.32990474  0.66787150  0.66518645  1
  Fe  Fe44  1  0.49928991  0.83375241  0.83479750  1
  Ni  Ni45  1  0.83523301  0.16696767  0.49721650  1
  Cr  Cr46  1  0.66805546  0.00193027  0.66671655  1
  Cr  Cr47  1  0.83701480  0.16725009  0.83694079  1
  Fe  Fe48  1  0.83614849  0.49897947  0.49841664  1
  Fe  Fe49  1  0.66841545  0.33506563  0.66666288  1
  Fe  Fe50  1  0.83245368  0.50234401  0.83400718  1
  Fe  Fe51  1  0.83694447  0.83330929  0.49884184  1
  Fe  Fe52  1  0.66856207  0.66649400  0.66795021  1
  Fe  Fe53  1  0.83527966  0.83141122  0.83420593  1
" 