5646,Ni10Fe30Cr59_8,-214.703463042452, 182.771826162663,Ni10Fe30Cr59,"# generated using pymatgen
 data_Cr33Fe16Ni5
_symmetry_space_group_name_H-M   'P 1'
_cell_length_a   7.54117740
_cell_length_b   7.54117740
_cell_length_c   10.66483535
_cell_angle_alpha   90.00000000
_cell_angle_beta   90.00000000
_cell_angle_gamma   90.00000000
_symmetry_Int_Tables_number   1
_chemical_formula_structural   Cr33Fe16Ni5
_chemical_formula_sum   'Cr33 Fe16 Ni5'
_cell_volume   606.50232429
_cell_formula_units_Z   1
loop_
 _symmetry_equiv_pos_site_id
 _symmetry_equiv_pos_as_xyz
  1  'x, y, z'
loop_
 _atom_site_type_symbol
 _atom_site_label
 _atom_site_symmetry_multiplicity
 _atom_site_fract_x
 _atom_site_fract_y
 _atom_site_fract_z
 _atom_site_occupancy
  Ni  Ni0  1  0.99404038  0.99147669  0.99505465  1
  Cr  Cr1  1  0.16158206  0.15855551  0.16191088  1
  Cr  Cr2  1  0.99410815  0.99313684  0.32691759  1
  Cr  Cr3  1  0.99447430  0.32528360  0.99349749  1
  Cr  Cr4  1  0.15880117  0.49634810  0.15880138  1
  Cr  Cr5  1  -0.00310563  0.32937771  0.33232756  1
  Fe  Fe6  1  -0.00457939  0.66565558  0.99508030  1
  Fe  Fe7  1  0.16088409  0.82822946  0.15953285  1
  Cr  Cr8  1  -0.00347519  0.66344332  0.32915405  1
  Fe  Fe9  1  0.32672336  0.99179448  -0.00481628  1
  Cr  Cr10  1  0.49482212  0.16125775  0.16293719  1
  Fe  Fe11  1  0.32691846  0.99205623  0.32895825  1
  Cr  Cr12  1  0.33075339  0.33219763  -0.00440407  1
  Fe  Fe13  1  0.49564003  0.49639314  0.16179070  1
  Cr  Cr14  1  0.32872213  0.33107203  0.32873139  1
  Ni  Ni15  1  0.32710942  0.66451920  -0.00409109  1
  Cr  Cr16  1  0.49402021  0.82810394  0.16376822  1
  Cr  Cr17  1  0.32797304  0.66078528  0.32764944  1
  Cr  Cr18  1  0.66529367  -0.00423601  0.99374309  1
  Fe  Fe19  1  0.82916958  0.16182906  0.16111105  1
  Cr  Cr20  1  0.66331141  0.99385547  0.32726824  1
  Fe  Fe21  1  0.66278609  0.32828691  -0.00453043  1
  Cr  Cr22  1  0.82709541  0.49644458  0.16344352  1
  Fe  Fe23  1  0.66198504  0.33080308  0.32804510  1
  Cr  Cr24  1  0.65953371  0.66427411  -0.00443869  1
  Fe  Fe25  1  0.82973779  0.82815779  0.16108003  1
  Ni  Ni26  1  0.66126526  0.66149983  0.32857952  1
  Cr  Cr27  1  0.16318081  0.15825852  0.49496215  1
  Cr  Cr28  1  0.99280639  0.99364920  0.66304445  1
  Cr  Cr29  1  0.16163378  0.15825771  0.82836962  1
  Fe  Fe30  1  0.16337823  0.49884804  0.49586092  1
  Cr  Cr31  1  -0.00380870  0.32892930  0.65887520  1
  Cr  Cr32  1  0.16048032  0.49748720  0.82932866  1
  Ni  Ni33  1  0.16300286  0.82763361  0.49570607  1
  Cr  Cr34  1  -0.00237445  0.66314506  0.66024944  1
  Fe  Fe35  1  0.16224366  0.82720512  0.82951577  1
  Cr  Cr36  1  0.49358963  0.15897740  0.49447695  1
  Fe  Fe37  1  0.32541491  0.99240437  0.66120630  1
  Cr  Cr38  1  0.49278834  0.15947487  0.82835484  1
  Cr  Cr39  1  0.49948277  0.49750180  0.49498743  1
  Cr  Cr40  1  0.32785949  0.33257211  0.66112536  1
  Cr  Cr41  1  0.49591746  0.49780707  0.83043348  1
  Cr  Cr42  1  0.49377943  0.82827761  0.49699719  1
  Ni  Ni43  1  0.32755257  0.66334909  0.66104685  1
  Cr  Cr44  1  0.49285567  0.82756069  0.82424895  1
  Cr  Cr45  1  0.82800647  0.16359192  0.49384635  1
  Cr  Cr46  1  0.66371679  0.99370086  0.66408269  1
  Fe  Fe47  1  0.82936126  0.16131744  0.82945446  1
  Fe  Fe48  1  0.82799272  0.49675295  0.49443018  1
  Cr  Cr49  1  0.66152506  0.32657125  0.66350469  1
  Cr  Cr50  1  0.82922790  0.49738167  0.82731857  1
  Cr  Cr51  1  0.82672355  0.82455543  0.49475845  1
  Fe  Fe52  1  0.66171813  0.66075838  0.66163346  1
  Fe  Fe53  1  0.83094483  0.82801996  0.82966949  1
" 