1366,Ni10Fe35Cr53_12,-216.808077864833, 184.553165081334,Ni10Fe35Cr53,"# generated using pymatgen
 data_Cr30Fe19Ni5
_symmetry_space_group_name_H-M   'P 1'
_cell_length_a   7.52304085
_cell_length_b   7.52304085
_cell_length_c   10.63918640
_cell_angle_alpha   90.00000000
_cell_angle_beta   90.00000000
_cell_angle_gamma   90.00000000
_symmetry_Int_Tables_number   1
_chemical_formula_structural   Cr30Fe19Ni5
_chemical_formula_sum   'Cr30 Fe19 Ni5'
_cell_volume   602.13692165
_cell_formula_units_Z   1
loop_
 _symmetry_equiv_pos_site_id
 _symmetry_equiv_pos_as_xyz
  1  'x, y, z'
loop_
 _atom_site_type_symbol
 _atom_site_label
 _atom_site_symmetry_multiplicity
 _atom_site_fract_x
 _atom_site_fract_y
 _atom_site_fract_z
 _atom_site_occupancy
  Cr  Cr0  1  0.99489799  0.99358608  -0.00347603  1
  Cr  Cr1  1  0.16405924  0.16104297  0.16397415  1
  Fe  Fe2  1  0.99497297  0.99578251  0.32987173  1
  Cr  Cr3  1  0.99612349  0.33122144  0.99405616  1
  Cr  Cr4  1  0.16317453  0.49812945  0.16273088  1
  Cr  Cr5  1  -0.00219771  0.32914470  0.33202500  1
  Ni  Ni6  1  0.99525907  0.66368881  -0.00229345  1
  Cr  Cr7  1  0.16350082  0.82839923  0.16379859  1
  Fe  Fe8  1  0.99545279  0.66192186  0.32857013  1
  Fe  Fe9  1  0.33034119  0.99317610  0.99535750  1
  Cr  Cr10  1  0.49744671  0.16261888  0.16136679  1
  Fe  Fe11  1  0.33332380  -0.00282796  0.33105414  1
  Cr  Cr12  1  0.33146837  0.32985524  -0.00149303  1
  Fe  Fe13  1  0.49591429  0.49667039  0.16234880  1
  Ni  Ni14  1  0.33158955  0.32799505  0.33072299  1
  Ni  Ni15  1  0.32984217  0.66278950  0.99549568  1
  Cr  Cr16  1  0.49557593  0.82981070  0.16174841  1
  Cr  Cr17  1  0.33196928  0.65954627  0.33142953  1
  Cr  Cr18  1  0.66300978  0.99592908  0.99368184  1
  Cr  Cr19  1  0.82750971  0.16323326  0.16470332  1
  Fe  Fe20  1  0.65992029  -0.00266984  0.33163048  1
  Fe  Fe21  1  0.66394114  0.33257472  -0.00351996  1
  Fe  Fe22  1  0.82965346  0.49804365  0.16278098  1
  Cr  Cr23  1  0.65916671  0.33082837  0.32927339  1
  Cr  Cr24  1  0.66441208  0.66377940  -0.00333561  1
  Fe  Fe25  1  0.83066296  0.82863462  0.16445453  1
  Cr  Cr26  1  0.66227037  0.66458169  0.32970054  1
  Cr  Cr27  1  0.16167656  0.16208275  0.49556769  1
  Cr  Cr28  1  0.99522327  -0.00360951  0.66248973  1
  Cr  Cr29  1  0.16422826  0.16191322  0.82953457  1
  Cr  Cr30  1  0.16349079  0.49724570  0.49845574  1
  Fe  Fe31  1  0.99477674  0.32822266  0.66263052  1
  Cr  Cr32  1  0.16270490  0.49788805  0.82805847  1
  Cr  Cr33  1  0.16580949  0.82929649  0.49448407  1
  Cr  Cr34  1  0.99548014  0.66468820  0.66400642  1
  Cr  Cr35  1  0.16697570  0.82813011  0.83110578  1
  Fe  Fe36  1  0.49669834  0.16014349  0.49422149  1
  Fe  Fe37  1  0.33162203  0.99499726  0.66240262  1
  Fe  Fe38  1  0.49431747  0.16220665  0.82997203  1
  Fe  Fe39  1  0.49671505  0.49749067  0.49668571  1
  Cr  Cr40  1  0.33006912  0.32920383  0.65957183  1
  Cr  Cr41  1  0.49810607  0.49863428  0.83017983  1
  Ni  Ni42  1  0.49603179  0.82985755  0.49889151  1
  Fe  Fe43  1  0.33402215  0.66563260  0.66264828  1
  Fe  Fe44  1  0.49571966  0.83004626  0.82881246  1
  Ni  Ni45  1  0.82645382  0.16281773  0.49515116  1
  Cr  Cr46  1  0.66198594  0.99424573  0.66234973  1
  Cr  Cr47  1  0.82705684  0.16630665  0.82856054  1
  Cr  Cr48  1  0.82833427  0.49476052  0.49956459  1
  Cr  Cr49  1  0.66082288  0.32874366  0.66240073  1
  Fe  Fe50  1  0.82979466  0.49918913  0.82937626  1
  Cr  Cr51  1  0.82759384  0.83061362  0.49288436  1
  Fe  Fe52  1  0.66044630  0.66425130  0.66272271  1
  Fe  Fe53  1  0.82962463  0.82655691  0.82965538  1
" 