8670,Ni10Fe70Cr18_18,-224.534410967939, 165.389646788949,Ni10Fe70Cr18,"# generated using pymatgen
 data_Cr11Fe38Ni5
_symmetry_space_group_name_H-M   'P 1'
_cell_length_a   7.45421893
_cell_length_b   7.45421893
_cell_length_c   10.54185750
_cell_angle_alpha   90.00000000
_cell_angle_beta   90.00000000
_cell_angle_gamma   90.00000000
_symmetry_Int_Tables_number   1
_chemical_formula_structural   Cr11Fe38Ni5
_chemical_formula_sum   'Cr11 Fe38 Ni5'
_cell_volume   585.76231574
_cell_formula_units_Z   1
loop_
 _symmetry_equiv_pos_site_id
 _symmetry_equiv_pos_as_xyz
  1  'x, y, z'
loop_
 _atom_site_type_symbol
 _atom_site_label
 _atom_site_symmetry_multiplicity
 _atom_site_fract_x
 _atom_site_fract_y
 _atom_site_fract_z
 _atom_site_occupancy
  Fe  Fe0  1  0.00133316  0.00306119  0.99969032  1
  Cr  Cr1  1  0.16633758  0.16623364  0.16781238  1
  Fe  Fe2  1  0.99804665  0.00201201  0.33536805  1
  Fe  Fe3  1  0.99944061  0.33304663  0.99997602  1
  Fe  Fe4  1  0.16799898  0.50120181  0.16720170  1
  Cr  Cr5  1  0.00111614  0.33552470  0.33414606  1
  Cr  Cr6  1  1.00034288  0.66474969  0.00274263  1
  Cr  Cr7  1  0.16948574  0.83495026  0.16652965  1
  Cr  Cr8  1  0.99823778  0.66673442  0.33345608  1
  Ni  Ni9  1  0.33753858  0.99948551  0.99898077  1
  Fe  Fe10  1  0.50248768  0.16473659  0.16794506  1
  Fe  Fe11  1  0.33651223  0.00129422  0.33494567  1
  Cr  Cr12  1  0.33384628  0.33268322  0.99936143  1
  Cr  Cr13  1  0.50135276  0.50224533  0.16864724  1
  Fe  Fe14  1  0.33545222  0.33443615  0.33578851  1
  Ni  Ni15  1  0.33508408  0.67020877  0.99847325  1
  Fe  Fe16  1  0.50145342  0.83595617  0.16740538  1
  Fe  Fe17  1  0.33653129  0.66683546  0.33476772  1
  Fe  Fe18  1  0.66579420  0.00136749  0.00125685  1
  Fe  Fe19  1  0.83184333  0.16682517  0.16676667  1
  Fe  Fe20  1  0.66803888  1.00083320  0.33502374  1
  Fe  Fe21  1  0.66916968  0.33329282  0.99975181  1
  Fe  Fe22  1  0.83374198  0.50004755  0.16675367  1
  Fe  Fe23  1  0.66741905  0.33322973  0.33528168  1
  Fe  Fe24  1  0.66439135  0.66802176  0.00090612  1
  Fe  Fe25  1  0.83116233  0.83568193  0.16737154  1
  Fe  Fe26  1  0.66662720  0.66850251  0.33531691  1
  Fe  Fe27  1  0.16669664  0.16759351  0.49976076  1
  Fe  Fe28  1  0.99881800  0.00351589  0.66747904  1
  Fe  Fe29  1  0.16455870  0.16609870  0.83555547  1
  Fe  Fe30  1  0.16833725  0.50012956  0.50160009  1
  Fe  Fe31  1  0.99883573  0.33323008  0.66731653  1
  Fe  Fe32  1  0.16622897  0.50160809  0.83370500  1
  Cr  Cr33  1  0.16795151  0.83463023  0.50141348  1
  Fe  Fe34  1  0.00138012  0.66587657  0.66750305  1
  Fe  Fe35  1  0.16905783  0.83483985  0.83502981  1
  Fe  Fe36  1  0.50287699  0.16650935  0.49917980  1
  Cr  Cr37  1  0.33658223  0.00135551  0.66958110  1
  Fe  Fe38  1  0.50390142  0.16628128  0.83541394  1
  Fe  Fe39  1  0.50204644  0.50191759  0.49983730  1
  Cr  Cr40  1  0.33427948  0.33356055  0.66645209  1
  Fe  Fe41  1  0.50297860  0.50229905  0.83474987  1
  Ni  Ni42  1  0.50208635  0.83153258  0.49957601  1
  Fe  Fe43  1  0.33535045  0.66706168  0.66856320  1
  Fe  Fe44  1  0.50004495  0.83398673  0.83507068  1
  Ni  Ni45  1  0.83384757  0.16766794  0.50192928  1
  Fe  Fe46  1  0.66849570  0.00227519  0.66626342  1
  Ni  Ni47  1  0.83492528  0.16970728  0.83523583  1
  Fe  Fe48  1  0.83218489  0.50102752  0.50241310  1
  Fe  Fe49  1  0.66962973  0.33316730  0.66762427  1
  Fe  Fe50  1  0.83337702  0.49787802  0.83343079  1
  Fe  Fe51  1  0.83118148  0.83569936  0.50183720  1
  Fe  Fe52  1  0.66585751  0.66715910  0.66630034  1
  Cr  Cr53  1  0.83417000  0.83666045  0.83197855  1
" 