296,Ni10Fe35Cr53_13,-216.755195500412, 178.9775834275,Ni10Fe35Cr53,"# generated using pymatgen
 data_Cr30Fe19Ni5
_symmetry_space_group_name_H-M   'P 1'
_cell_length_a   7.53088655
_cell_length_b   7.53088655
_cell_length_c   10.65028189
_cell_angle_alpha   90.00000000
_cell_angle_beta   90.00000000
_cell_angle_gamma   90.00000000
_symmetry_Int_Tables_number   1
_chemical_formula_structural   Cr30Fe19Ni5
_chemical_formula_sum   'Cr30 Fe19 Ni5'
_cell_volume   604.02277278
_cell_formula_units_Z   1
loop_
 _symmetry_equiv_pos_site_id
 _symmetry_equiv_pos_as_xyz
  1  'x, y, z'
loop_
 _atom_site_type_symbol
 _atom_site_label
 _atom_site_symmetry_multiplicity
 _atom_site_fract_x
 _atom_site_fract_y
 _atom_site_fract_z
 _atom_site_occupancy
  Fe  Fe0  1  0.99264952  0.99512247  -0.00167456  1
  Cr  Cr1  1  0.15962428  0.16235256  0.16329830  1
  Ni  Ni2  1  0.99376876  -0.00207545  0.32729625  1
  Cr  Cr3  1  0.99266574  0.32956480  0.99411628  1
  Fe  Fe4  1  0.15937647  0.49460609  0.16258632  1
  Ni  Ni5  1  0.99405845  0.32750314  0.33332441  1
  Fe  Fe6  1  -0.00393286  0.66372116  -0.00219588  1
  Fe  Fe7  1  0.15764861  0.82996575  0.16214367  1
  Cr  Cr8  1  -0.00402049  0.66234954  0.32661970  1
  Cr  Cr9  1  0.32948819  0.99418895  -0.00174920  1
  Fe  Fe10  1  0.49917531  0.16129919  0.16174332  1
  Cr  Cr11  1  0.32782204  -0.00295101  0.33031990  1
  Cr  Cr12  1  0.33143090  0.33005101  -0.00203392  1
  Cr  Cr13  1  0.49620263  0.49578710  0.16281268  1
  Cr  Cr14  1  0.32884463  0.32767377  0.32809890  1
  Cr  Cr15  1  0.32594694  0.66284098  0.99464542  1
  Cr  Cr16  1  0.49835185  0.82888485  0.16458261  1
  Cr  Cr17  1  0.32603832  0.66267686  0.32819299  1
  Fe  Fe18  1  0.66468377  -0.00312699  -0.00206721  1
  Ni  Ni19  1  0.83270330  0.15968872  0.16205429  1
  Cr  Cr20  1  0.66353853  -0.00085689  0.32881493  1
  Cr  Cr21  1  0.66332595  0.32573141  -0.00335064  1
  Cr  Cr22  1  0.82977228  0.49591232  0.16509130  1
  Cr  Cr23  1  0.66479477  0.32698607  0.32784407  1
  Cr  Cr24  1  0.66329326  0.66224530  0.99471975  1
  Fe  Fe25  1  0.83163480  0.83299289  0.16204621  1
  Fe  Fe26  1  0.66442190  0.66230492  0.32912258  1
  Ni  Ni27  1  0.15929942  0.16773067  0.49580964  1
  Cr  Cr28  1  0.99346855  -0.00238506  0.66119567  1
  Cr  Cr29  1  0.16092496  0.16374111  0.82763104  1
  Fe  Fe30  1  0.16164610  0.49233079  0.49679133  1
  Fe  Fe31  1  -0.00178349  0.32805562  0.65887168  1
  Cr  Cr32  1  0.16392534  0.49268719  0.82744297  1
  Cr  Cr33  1  0.16173824  0.83336759  0.49425257  1
  Cr  Cr34  1  -0.00387993  0.66083123  0.66142453  1
  Cr  Cr35  1  0.16178352  0.83045829  0.83078026  1
  Fe  Fe36  1  0.49396987  0.16322448  0.49763336  1
  Cr  Cr37  1  0.32987360  -0.00411726  0.66023186  1
  Cr  Cr38  1  0.49539790  0.16178436  0.83058995  1
  Cr  Cr39  1  0.49787456  0.49693558  0.49623643  1
  Ni  Ni40  1  0.33061851  0.33032987  0.66056551  1
  Fe  Fe41  1  0.49462691  0.49690093  0.82636300  1
  Cr  Cr42  1  0.49875206  0.82733721  0.49847129  1
  Fe  Fe43  1  0.33034858  0.65975569  0.66318392  1
  Fe  Fe44  1  0.49628241  0.82783566  0.82739901  1
  Fe  Fe45  1  0.83235331  0.16303264  0.49373972  1
  Fe  Fe46  1  0.66238191  -0.00319319  0.66245653  1
  Fe  Fe47  1  0.82927464  0.16084396  0.82988034  1
  Fe  Fe48  1  0.83188904  0.49333435  0.49511063  1
  Cr  Cr49  1  0.66520139  0.32723885  0.66281891  1
  Cr  Cr50  1  0.82827062  0.49563369  0.82735344  1
  Cr  Cr51  1  0.82657269  0.82800859  0.49303231  1
  Fe  Fe52  1  0.66056598  0.66256377  0.66394672  1
  Cr  Cr53  1  0.82643786  0.83141626  0.83150732  1
" 