5520,Ni10Fe35Cr53_4,-216.517714288322, 177.651883867787,Ni10Fe35Cr53,"# generated using pymatgen
 data_Cr30Fe19Ni5
_symmetry_space_group_name_H-M   'P 1'
_cell_length_a   7.52960797
_cell_length_b   7.52960797
_cell_length_c   10.64847371
_cell_angle_alpha   90.00000000
_cell_angle_beta   90.00000000
_cell_angle_gamma   90.00000000
_symmetry_Int_Tables_number   1
_chemical_formula_structural   Cr30Fe19Ni5
_chemical_formula_sum   'Cr30 Fe19 Ni5'
_cell_volume   603.71517592
_cell_formula_units_Z   1
loop_
 _symmetry_equiv_pos_site_id
 _symmetry_equiv_pos_as_xyz
  1  'x, y, z'
loop_
 _atom_site_type_symbol
 _atom_site_label
 _atom_site_symmetry_multiplicity
 _atom_site_fract_x
 _atom_site_fract_y
 _atom_site_fract_z
 _atom_site_occupancy
  Cr  Cr0  1  -0.00279544  0.99224098  0.99552518  1
  Cr  Cr1  1  0.16122966  0.16425448  0.16157869  1
  Cr  Cr2  1  0.99496217  0.99405009  0.33499599  1
  Fe  Fe3  1  -0.00405928  0.33026746  0.99529022  1
  Fe  Fe4  1  0.15959750  0.49870254  0.16047904  1
  Cr  Cr5  1  0.99253331  0.33084882  0.32825477  1
  Fe  Fe6  1  0.99376988  0.65992045  -0.00336010  1
  Fe  Fe7  1  0.16181353  0.82955095  0.16185788  1
  Cr  Cr8  1  0.99554811  0.66405768  0.32843845  1
  Cr  Cr9  1  0.33118472  -0.00328180  0.99277580  1
  Cr  Cr10  1  0.49814946  0.16127901  0.16476414  1
  Cr  Cr11  1  0.32896547  0.99486963  0.32877977  1
  Cr  Cr12  1  0.33288181  0.32926073  0.99567076  1
  Cr  Cr13  1  0.49530015  0.49774828  0.16634969  1
  Cr  Cr14  1  0.32941836  0.33117470  0.32698813  1
  Cr  Cr15  1  0.32892861  0.66494920  0.99516248  1
  Cr  Cr16  1  0.50088464  0.82944953  0.16183461  1
  Cr  Cr17  1  0.32775070  0.66496803  0.33109843  1
  Fe  Fe18  1  0.66280013  0.99529105  -0.00409568  1
  Cr  Cr19  1  0.82942753  0.15704071  0.16421682  1
  Ni  Ni20  1  0.66533512  0.99230886  0.33102228  1
  Cr  Cr21  1  0.66434117  0.33096038  0.99555100  1
  Fe  Fe22  1  0.82899453  0.49581030  0.16105849  1
  Fe  Fe23  1  0.66461935  0.32638242  0.33016830  1
  Fe  Fe24  1  0.66362740  0.66262737  -0.00383300  1
  Ni  Ni25  1  0.83177152  0.82559621  0.16238108  1
  Cr  Cr26  1  0.66470824  0.66034891  0.33010857  1
  Cr  Cr27  1  0.15981820  0.16578899  0.49746256  1
  Cr  Cr28  1  0.99513369  -0.00373358  0.65786525  1
  Cr  Cr29  1  0.16203752  0.16499668  0.82774932  1
  Cr  Cr30  1  0.16313510  0.49615589  0.49870774  1
  Ni  Ni31  1  0.98926807  0.32995688  0.66432282  1
  Cr  Cr32  1  0.16106390  0.49628411  0.82709179  1
  Fe  Fe33  1  0.16460811  0.82936447  0.49757422  1
  Cr  Cr34  1  0.99359026  0.66379655  0.66186596  1
  Fe  Fe35  1  0.16236835  0.82939104  0.82802824  1
  Cr  Cr36  1  0.49741738  0.16268268  0.49253710  1
  Cr  Cr37  1  0.33178703  0.99535693  0.66484662  1
  Ni  Ni38  1  0.49911775  0.16217289  0.82786562  1
  Cr  Cr39  1  0.49485711  0.49834147  0.49793739  1
  Fe  Fe40  1  0.32867584  0.32784749  0.66325585  1
  Cr  Cr41  1  0.49613333  0.49859576  0.82372241  1
  Fe  Fe42  1  0.49859345  0.83123928  0.49660005  1
  Fe  Fe43  1  0.32803660  0.66511279  0.66217321  1
  Fe  Fe44  1  0.49792216  0.83106548  0.82875314  1
  Ni  Ni45  1  0.82616432  0.16004339  0.49655702  1
  Fe  Fe46  1  0.66321239  -0.00387042  0.66112643  1
  Cr  Cr47  1  0.82948253  0.15924168  0.82837388  1
  Cr  Cr48  1  0.82817339  0.49418055  0.49889158  1
  Fe  Fe49  1  0.66186556  0.32561867  0.66272638  1
  Fe  Fe50  1  0.82764873  0.49381294  0.82760800  1
  Fe  Fe51  1  0.82496946  0.82935791  0.49624151  1
  Fe  Fe52  1  0.66172910  0.66567209  0.66192940  1
  Cr  Cr53  1  0.82717065  0.82651871  0.83079298  1
" 