2404,Ni10Fe70Cr18_15,-224.980904270415, 163.953998303494,Ni10Fe70Cr18,"# generated using pymatgen
 data_Cr11Fe38Ni5
_symmetry_space_group_name_H-M   'P 1'
_cell_length_a   7.46091246
_cell_length_b   7.46091246
_cell_length_c   10.55132359
_cell_angle_alpha   90.00000000
_cell_angle_beta   90.00000000
_cell_angle_gamma   90.00000000
_symmetry_Int_Tables_number   1
_chemical_formula_structural   Cr11Fe38Ni5
_chemical_formula_sum   'Cr11 Fe38 Ni5'
_cell_volume   587.34169421
_cell_formula_units_Z   1
loop_
 _symmetry_equiv_pos_site_id
 _symmetry_equiv_pos_as_xyz
  1  'x, y, z'
loop_
 _atom_site_type_symbol
 _atom_site_label
 _atom_site_symmetry_multiplicity
 _atom_site_fract_x
 _atom_site_fract_y
 _atom_site_fract_z
 _atom_site_occupancy
  Cr  Cr0  1  1.00013709  0.00194790  0.99946327  1
  Fe  Fe1  1  0.16644910  0.17000922  0.16691303  1
  Fe  Fe2  1  0.99711019  0.00367114  0.33285560  1
  Fe  Fe3  1  0.00080257  0.33446394  0.99987977  1
  Fe  Fe4  1  0.16585219  0.49793939  0.16824841  1
  Fe  Fe5  1  1.00025350  0.33253475  0.33493257  1
  Fe  Fe6  1  0.00046098  0.66566709  0.99907776  1
  Cr  Cr7  1  0.16654830  0.83232209  0.16737264  1
  Fe  Fe8  1  0.00049080  0.66502357  0.33403893  1
  Fe  Fe9  1  0.33628730  0.00182524  0.99936638  1
  Fe  Fe10  1  0.50206447  0.16679116  0.16670273  1
  Cr  Cr11  1  0.33468493  0.00106544  0.33274426  1
  Fe  Fe12  1  0.33293215  0.33177627  0.99971095  1
  Cr  Cr13  1  0.49894029  0.49844037  0.16833175  1
  Fe  Fe14  1  0.33336879  0.33487422  0.33475486  1
  Cr  Cr15  1  0.33366356  0.66805693  0.99941878  1
  Fe  Fe16  1  0.50311509  0.83612307  0.16715763  1
  Fe  Fe17  1  0.33464091  0.66420014  0.33456215  1
  Fe  Fe18  1  0.66552992  0.00148248  0.00041741  1
  Ni  Ni19  1  0.83233641  0.16632493  0.16760920  1
  Fe  Fe20  1  0.66844033  0.00240016  0.33302648  1
  Fe  Fe21  1  0.66749780  0.33073217  1.00001699  1
  Cr  Cr22  1  0.83527967  0.49865219  0.16779777  1
  Ni  Ni23  1  0.66877921  0.33303847  0.33585407  1
  Cr  Cr24  1  0.66796205  0.66838282  1.00006454  1
  Fe  Fe25  1  0.83234465  0.83552347  0.16856909  1
  Fe  Fe26  1  0.66610254  0.66734447  0.33414563  1
  Fe  Fe27  1  0.16556987  0.16949997  0.49984824  1
  Fe  Fe28  1  0.99870581  0.00083157  0.66823988  1
  Fe  Fe29  1  0.16840901  0.16710295  0.83446761  1
  Ni  Ni30  1  0.16965544  0.50008472  0.49869023  1
  Cr  Cr31  1  0.99955521  0.33313562  0.66557831  1
  Fe  Fe32  1  0.16761687  0.50100630  0.83322956  1
  Cr  Cr33  1  0.16655137  0.83178228  0.50231746  1
  Fe  Fe34  1  0.00099869  0.66687154  0.66811824  1
  Fe  Fe35  1  0.16705525  0.83312546  0.83311120  1
  Fe  Fe36  1  0.50216293  0.16899868  0.50007023  1
  Cr  Cr37  1  0.33366529  1.00014144  0.66810707  1
  Fe  Fe38  1  0.50096505  0.16707007  0.83446213  1
  Fe  Fe39  1  0.50060569  0.49983169  0.49981424  1
  Fe  Fe40  1  0.33457730  0.33545932  0.66676695  1
  Fe  Fe41  1  0.50046253  0.49974405  0.83264169  1
  Fe  Fe42  1  0.50167566  0.83240254  0.50098547  1
  Fe  Fe43  1  0.33423009  0.66492824  0.66792244  1
  Ni  Ni44  1  0.50048146  0.83448831  0.83330399  1
  Ni  Ni45  1  0.83189303  0.16774851  0.49981219  1
  Fe  Fe46  1  0.66793593  0.00118231  0.66778971  1
  Fe  Fe47  1  0.83185815  0.16651054  0.83373780  1
  Fe  Fe48  1  0.83361901  0.49895989  0.49924746  1
  Fe  Fe49  1  0.66599092  0.33316709  0.66617757  1
  Fe  Fe50  1  0.83315483  0.50109349  0.83401473  1
  Cr  Cr51  1  0.83360137  0.83590648  0.50005822  1
  Fe  Fe52  1  0.66600666  0.66688612  0.66843555  1
  Fe  Fe53  1  0.83312401  0.83362994  0.83222137  1
" 