85,Ni10Fe61Cr28_3,-223.025561147134, 171.628806943895,Ni10Fe61Cr28,"# generated using pymatgen
 data_Cr16Fe33Ni5
_symmetry_space_group_name_H-M   'P 1'
_cell_length_a   7.47665007
_cell_length_b   7.47665007
_cell_length_c   10.57357992
_cell_angle_alpha   90.00000000
_cell_angle_beta   90.00000000
_cell_angle_gamma   90.00000000
_symmetry_Int_Tables_number   1
_chemical_formula_structural   Cr16Fe33Ni5
_chemical_formula_sum   'Cr16 Fe33 Ni5'
_cell_volume   591.06624971
_cell_formula_units_Z   1
loop_
 _symmetry_equiv_pos_site_id
 _symmetry_equiv_pos_as_xyz
  1  'x, y, z'
loop_
 _atom_site_type_symbol
 _atom_site_label
 _atom_site_symmetry_multiplicity
 _atom_site_fract_x
 _atom_site_fract_y
 _atom_site_fract_z
 _atom_site_occupancy
  Fe  Fe0  1  0.99658748  0.99715089  0.00038550  1
  Cr  Cr1  1  0.16544983  0.16580606  0.16891520  1
  Cr  Cr2  1  -0.00050933  0.99853234  0.33434010  1
  Cr  Cr3  1  0.99898863  0.33390441  0.99896087  1
  Fe  Fe4  1  0.16763407  0.50337968  0.16823589  1
  Fe  Fe5  1  -0.00061162  0.33482435  0.33274466  1
  Fe  Fe6  1  0.99908969  0.66766599  -0.00014912  1
  Ni  Ni7  1  0.16571038  0.82884824  0.16577673  1
  Fe  Fe8  1  0.00019849  0.66626331  0.33244763  1
  Cr  Cr9  1  0.33463208  0.99860246  0.00113534  1
  Fe  Fe10  1  0.50328858  0.16684004  0.16766715  1
  Cr  Cr11  1  0.33384960  0.99749315  0.33279665  1
  Cr  Cr12  1  0.33284438  0.33378788  -0.00002681  1
  Fe  Fe13  1  0.49830720  0.50129769  0.16634747  1
  Fe  Fe14  1  0.33469141  0.33559361  0.33141317  1
  Fe  Fe15  1  0.33447064  0.66479966  0.00080569  1
  Fe  Fe16  1  0.50021579  0.82999301  0.16596340  1
  Ni  Ni17  1  0.33420394  0.66589620  0.33121908  1
  Fe  Fe18  1  0.66761988  0.99911914  0.99912141  1
  Fe  Fe19  1  0.82998640  0.16423119  0.16688115  1
  Fe  Fe20  1  0.66530869  0.99800950  0.33136554  1
  Fe  Fe21  1  0.66452783  0.33341539  0.99906023  1
  Cr  Cr22  1  0.83146503  0.49947988  0.16785179  1
  Ni  Ni23  1  0.66611033  0.33498467  0.33159631  1
  Ni  Ni24  1  0.66611482  0.66747883  0.99854475  1
  Fe  Fe25  1  0.83273386  0.83324758  0.16468949  1
  Fe  Fe26  1  0.66424314  0.66662168  0.33302300  1
  Fe  Fe27  1  0.16609169  0.16665999  0.49922339  1
  Fe  Fe28  1  0.99871761  0.99890537  0.66567689  1
  Fe  Fe29  1  0.16631038  0.16705759  0.83233092  1
  Cr  Cr30  1  0.16835580  0.50082136  0.49661469  1
  Cr  Cr31  1  -0.00058641  0.33242185  0.66715897  1
  Fe  Fe32  1  0.16867393  0.49960153  0.83229522  1
  Fe  Fe33  1  0.16655947  0.83231187  0.49847559  1
  Cr  Cr34  1  0.99625236  0.66519202  0.66534539  1
  Cr  Cr35  1  0.16491400  0.83149322  0.83329365  1
  Cr  Cr36  1  0.50003887  0.16918388  0.49837347  1
  Cr  Cr37  1  0.33167536  -0.00006989  0.66434809  1
  Fe  Fe38  1  0.50051971  0.16797545  0.83243965  1
  Fe  Fe39  1  0.50037611  0.49991255  0.49800641  1
  Fe  Fe40  1  0.33482873  0.33515877  0.66825284  1
  Ni  Ni41  1  0.50058519  0.49844901  0.83183202  1
  Fe  Fe42  1  0.49883715  0.82938225  0.49733508  1
  Fe  Fe43  1  0.33428222  0.66417944  0.66564757  1
  Fe  Fe44  1  0.50089574  0.82952585  0.83448583  1
  Cr  Cr45  1  0.83172661  0.16675164  0.49792907  1
  Cr  Cr46  1  0.66521825  0.99661201  0.66716592  1
  Fe  Fe47  1  0.83128348  0.16563980  0.83327908  1
  Fe  Fe48  1  0.83012907  0.49914178  0.49602804  1
  Fe  Fe49  1  0.66442706  0.33415757  0.66711579  1
  Fe  Fe50  1  0.82985875  0.50031856  0.83492802  1
  Fe  Fe51  1  0.83244566  0.83117324  0.49777870  1
  Cr  Cr52  1  0.66525786  0.66410860  0.66351395  1
  Fe  Fe53  1  0.83049732  0.83199107  0.83533669  1
" 