7144,Ni10Fe70Cr18_2,-225.026347446418, 161.389347936838,Ni10Fe70Cr18,"# generated using pymatgen
 data_Cr11Fe38Ni5
_symmetry_space_group_name_H-M   'P 1'
_cell_length_a   7.46501739
_cell_length_b   7.46501739
_cell_length_c   10.55712883
_cell_angle_alpha   90.00000000
_cell_angle_beta   90.00000000
_cell_angle_gamma   90.00000000
_symmetry_Int_Tables_number   1
_chemical_formula_structural   Cr11Fe38Ni5
_chemical_formula_sum   'Cr11 Fe38 Ni5'
_cell_volume   588.31167669
_cell_formula_units_Z   1
loop_
 _symmetry_equiv_pos_site_id
 _symmetry_equiv_pos_as_xyz
  1  'x, y, z'
loop_
 _atom_site_type_symbol
 _atom_site_label
 _atom_site_symmetry_multiplicity
 _atom_site_fract_x
 _atom_site_fract_y
 _atom_site_fract_z
 _atom_site_occupancy
  Fe  Fe0  1  0.00073796  0.99779393  0.99983723  1
  Cr  Cr1  1  0.16895792  0.16371954  0.16570071  1
  Fe  Fe2  1  0.00084693  0.99886176  0.33247018  1
  Fe  Fe3  1  0.99986742  0.33337332  0.99995716  1
  Cr  Cr4  1  0.16468920  0.50216504  0.16536285  1
  Fe  Fe5  1  0.99807886  0.33302216  0.33340693  1
  Fe  Fe6  1  0.00088540  0.66924190  0.00015434  1
  Ni  Ni7  1  0.16594565  0.83405880  0.16754155  1
  Fe  Fe8  1  0.00055331  0.66841634  0.33237048  1
  Fe  Fe9  1  0.33386449  0.99882710  0.00013971  1
  Ni  Ni10  1  0.50277740  0.16570933  0.16566021  1
  Ni  Ni11  1  0.33387251  0.99764386  0.33135949  1
  Fe  Fe12  1  0.33549494  0.33317015  0.99921494  1
  Fe  Fe13  1  0.50201032  0.49991512  0.16532651  1
  Cr  Cr14  1  0.33483475  0.33326036  0.33371611  1
  Fe  Fe15  1  0.33329846  0.66836339  0.99957017  1
  Fe  Fe16  1  0.49923779  0.83526770  0.16646919  1
  Cr  Cr17  1  0.33409151  0.66965868  0.33609812  1
  Fe  Fe18  1  0.66588483  0.99993849  0.00111993  1
  Fe  Fe19  1  0.83237058  0.16641965  0.16653407  1
  Fe  Fe20  1  0.66531244  0.00051817  0.33165681  1
  Fe  Fe21  1  0.66511926  0.33302246  0.00191871  1
  Fe  Fe22  1  0.83210238  0.49999682  0.16679132  1
  Fe  Fe23  1  0.66710195  0.33260714  0.33147911  1
  Fe  Fe24  1  0.66610882  0.66750317  0.00022892  1
  Fe  Fe25  1  0.83394309  0.83399429  0.16699564  1
  Fe  Fe26  1  0.66606550  0.66719456  0.33272789  1
  Cr  Cr27  1  0.16604122  0.16604631  0.49905915  1
  Fe  Fe28  1  0.99926284  0.99831712  0.66798241  1
  Fe  Fe29  1  0.16720830  0.16703098  0.83417272  1
  Fe  Fe30  1  0.16667646  0.50140344  0.50146652  1
  Fe  Fe31  1  0.00118851  0.33397003  0.66670436  1
  Fe  Fe32  1  0.16799941  0.50057035  0.83376509  1
  Fe  Fe33  1  0.16709370  0.83255352  0.49975084  1
  Fe  Fe34  1  0.00221871  0.66811986  0.66794408  1
  Ni  Ni35  1  0.16692079  0.83263125  0.83391832  1
  Cr  Cr36  1  0.50177245  0.16598629  0.50004968  1
  Cr  Cr37  1  0.33288219  0.99874289  0.66789641  1
  Fe  Fe38  1  0.49883068  0.16709236  0.83474934  1
  Fe  Fe39  1  0.50062420  0.50200252  0.50220235  1
  Fe  Fe40  1  0.33414324  0.33694630  0.66799566  1
  Fe  Fe41  1  0.49862206  0.50101746  0.83307064  1
  Fe  Fe42  1  0.50035257  0.83208394  0.50032729  1
  Fe  Fe43  1  0.33380587  0.66569110  0.66700168  1
  Fe  Fe44  1  0.50104865  0.83228431  0.83373697  1
  Fe  Fe45  1  0.83360895  0.16679404  0.50045681  1
  Fe  Fe46  1  0.66737766  0.99859743  0.66756130  1
  Cr  Cr47  1  0.83239743  0.16578359  0.83081278  1
  Cr  Cr48  1  0.83314467  0.49999107  0.49960526  1
  Fe  Fe49  1  0.66503707  0.33411796  0.66679575  1
  Cr  Cr50  1  0.83297337  0.50246136  0.83366561  1
  Cr  Cr51  1  0.83307699  0.83346440  0.50216014  1
  Ni  Ni52  1  0.66517664  0.66685841  0.66789640  1
  Fe  Fe53  1  0.83380477  0.83312155  0.83278719  1
" 