6245,Ni10Fe35Cr53_5,-216.84052613911, 175.676953325726,Ni10Fe35Cr53,"# generated using pymatgen
 data_Cr30Fe19Ni5
_symmetry_space_group_name_H-M   'P 1'
_cell_length_a   7.54647455
_cell_length_b   7.54647455
_cell_length_c   10.67232665
_cell_angle_alpha   90.00000000
_cell_angle_beta   90.00000000
_cell_angle_gamma   90.00000000
_symmetry_Int_Tables_number   1
_chemical_formula_structural   Cr30Fe19Ni5
_chemical_formula_sum   'Cr30 Fe19 Ni5'
_cell_volume   607.78129799
_cell_formula_units_Z   1
loop_
 _symmetry_equiv_pos_site_id
 _symmetry_equiv_pos_as_xyz
  1  'x, y, z'
loop_
 _atom_site_type_symbol
 _atom_site_label
 _atom_site_symmetry_multiplicity
 _atom_site_fract_x
 _atom_site_fract_y
 _atom_site_fract_z
 _atom_site_occupancy
  Cr  Cr0  1  -0.00462690  0.99449947  0.99305608  1
  Cr  Cr1  1  0.16361015  0.16157331  0.16445041  1
  Fe  Fe2  1  0.99343904  0.99230154  0.33095497  1
  Cr  Cr3  1  -0.00266300  0.32964852  -0.00442240  1
  Fe  Fe4  1  0.16345279  0.49376600  0.16253543  1
  Cr  Cr5  1  0.99294999  0.32508467  0.32962252  1
  Fe  Fe6  1  -0.00322718  0.66251666  0.99173977  1
  Cr  Cr7  1  0.16106685  0.83031404  0.16320657  1
  Cr  Cr8  1  -0.00381604  0.66235144  0.33161090  1
  Cr  Cr9  1  0.32897032  0.99271769  0.99177873  1
  Ni  Ni10  1  0.48969173  0.16465304  0.16117426  1
  Ni  Ni11  1  0.32743919  -0.00449796  0.33024782  1
  Fe  Fe12  1  0.32978499  0.32780084  -0.00508040  1
  Fe  Fe13  1  0.49144170  0.49194552  0.16216621  1
  Fe  Fe14  1  0.33069397  0.32701067  0.32729739  1
  Cr  Cr15  1  0.32576703  0.65844961  -0.00495201  1
  Cr  Cr16  1  0.49372283  0.83168614  0.16391820  1
  Cr  Cr17  1  0.32772955  0.66108694  0.32828603  1
  Cr  Cr18  1  0.66076116  -0.00302471  0.99426992  1
  Fe  Fe19  1  0.82740582  0.15976631  0.16189088  1
  Cr  Cr20  1  0.66237912  -0.00324699  0.32757847  1
  Cr  Cr21  1  0.65923729  0.32711157  -0.00371640  1
  Cr  Cr22  1  0.82987788  0.49589165  0.16080688  1
  Cr  Cr23  1  0.66135139  0.32603103  0.32761479  1
  Cr  Cr24  1  0.65665112  0.66088715  -0.00450213  1
  Cr  Cr25  1  0.82891479  0.82575764  0.15812331  1
  Cr  Cr26  1  0.65993793  0.66115150  0.32814202  1
  Cr  Cr27  1  0.16379356  0.15982376  0.49130060  1
  Cr  Cr28  1  -0.00479917  -0.00519646  0.65868477  1
  Cr  Cr29  1  0.16531690  0.16175511  0.82821957  1
  Cr  Cr30  1  0.16252461  0.49304426  0.49586209  1
  Cr  Cr31  1  0.99426684  0.32683187  0.65902100  1
  Fe  Fe32  1  0.16244654  0.49642266  0.82596152  1
  Fe  Fe33  1  0.16082877  0.82907110  0.49568014  1
  Fe  Fe34  1  -0.00366580  0.66373194  0.66100477  1
  Ni  Ni35  1  0.16245230  0.82466607  0.82485419  1
  Cr  Cr36  1  0.49251417  0.16057677  0.49826165  1
  Fe  Fe37  1  0.32664994  0.99316926  0.66208042  1
  Fe  Fe38  1  0.49465175  0.16306480  0.82557705  1
  Cr  Cr39  1  0.49543553  0.49472773  0.49693531  1
  Fe  Fe40  1  0.32872754  0.32868330  0.66325232  1
  Fe  Fe41  1  0.49229974  0.49369147  0.82539497  1
  Cr  Cr42  1  0.49374815  0.82880353  0.49506895  1
  Fe  Fe43  1  0.32580173  0.66189561  0.66251869  1
  Cr  Cr44  1  0.49643583  0.82912460  0.82513224  1
  Ni  Ni45  1  0.82750123  0.15824341  0.49391707  1
  Fe  Fe46  1  0.66340315  -0.00453442  0.66014500  1
  Cr  Cr47  1  0.82748275  0.16322040  0.82802956  1
  Cr  Cr48  1  0.82655314  0.49588740  0.49762451  1
  Fe  Fe49  1  0.66080327  0.32595012  0.66160408  1
  Cr  Cr50  1  0.82767882  0.49838035  0.82640638  1
  Ni  Ni51  1  0.82791701  0.82909153  0.49817403  1
  Fe  Fe52  1  0.66253323  0.66410463  0.66132014  1
  Fe  Fe53  1  0.83057891  0.82835990  0.82599470  1
" 