8812,Ni10Fe61Cr28_17,-223.696821436491, 161.918954654445,Ni10Fe61Cr28,"# generated using pymatgen
 data_Cr16Fe33Ni5
_symmetry_space_group_name_H-M   'P 1'
_cell_length_a   7.49024684
_cell_length_b   7.49024684
_cell_length_c   10.59280867
_cell_angle_alpha   90.00000000
_cell_angle_beta   90.00000000
_cell_angle_gamma   90.00000000
_symmetry_Int_Tables_number   1
_chemical_formula_structural   Cr16Fe33Ni5
_chemical_formula_sum   'Cr16 Fe33 Ni5'
_cell_volume   594.29679536
_cell_formula_units_Z   1
loop_
 _symmetry_equiv_pos_site_id
 _symmetry_equiv_pos_as_xyz
  1  'x, y, z'
loop_
 _atom_site_type_symbol
 _atom_site_label
 _atom_site_symmetry_multiplicity
 _atom_site_fract_x
 _atom_site_fract_y
 _atom_site_fract_z
 _atom_site_occupancy
  Ni  Ni0  1  0.99742556  0.00271705  -0.00092840  1
  Fe  Fe1  1  0.16329950  0.16765802  0.16556300  1
  Fe  Fe2  1  0.99726087  -0.00050653  0.32943541  1
  Fe  Fe3  1  0.99687367  0.33013320  -0.00102959  1
  Fe  Fe4  1  0.16396891  0.49559143  0.16665186  1
  Fe  Fe5  1  0.99810038  0.33398028  0.33001467  1
  Cr  Cr6  1  0.99764232  0.66441833  -0.00111354  1
  Cr  Cr7  1  0.16546382  0.83280439  0.16749623  1
  Fe  Fe8  1  -0.00142543  0.66179227  0.33096549  1
  Cr  Cr9  1  0.33165752  0.00050635  0.99655055  1
  Fe  Fe10  1  0.49932139  0.16777030  0.16598639  1
  Fe  Fe11  1  0.33374299  0.00021929  0.33011504  1
  Fe  Fe12  1  0.33215077  0.33113985  -0.00150527  1
  Fe  Fe13  1  0.49916107  0.49552809  0.16540342  1
  Fe  Fe14  1  0.33262954  0.33277235  0.33117975  1
  Cr  Cr15  1  0.33322197  0.66160510  0.00034679  1
  Fe  Fe16  1  0.49971954  0.83197243  0.16650300  1
  Fe  Fe17  1  0.33133476  0.66238471  0.33096895  1
  Cr  Cr18  1  0.66735553  -0.00063675  -0.00035599  1
  Fe  Fe19  1  0.83274650  0.16668333  0.16529389  1
  Fe  Fe20  1  0.66433798  0.00035513  0.32978148  1
  Ni  Ni21  1  0.66498265  0.33147026  -0.00072406  1
  Ni  Ni22  1  0.83102017  0.49434316  0.16541152  1
  Fe  Fe23  1  0.66460973  0.33167086  0.32954590  1
  Cr  Cr24  1  0.66454701  0.66407745  0.99738115  1
  Fe  Fe25  1  0.83255217  0.83222957  0.16626262  1
  Cr  Cr26  1  0.66538196  0.66388845  0.33053885  1
  Cr  Cr27  1  0.16647327  0.16561027  0.49895155  1
  Cr  Cr28  1  0.99810467  -0.00092037  0.66754210  1
  Fe  Fe29  1  0.16527854  0.16749536  0.83209056  1
  Fe  Fe30  1  0.16363439  0.49806872  0.49798880  1
  Fe  Fe31  1  0.99843886  0.33507666  0.66635087  1
  Fe  Fe32  1  0.16469565  0.49630045  0.83071935  1
  Cr  Cr33  1  0.16551946  0.83104797  0.49730230  1
  Ni  Ni34  1  0.99724755  0.66019480  0.66390347  1
  Cr  Cr35  1  0.16521027  0.83261035  0.83042928  1
  Fe  Fe36  1  0.49787975  0.16708941  0.49766355  1
  Fe  Fe37  1  0.33285707  0.00019175  0.66719370  1
  Fe  Fe38  1  0.49825259  0.16711983  0.83173401  1
  Fe  Fe39  1  0.49868698  0.49525522  0.49829056  1
  Fe  Fe40  1  0.33173774  0.33106100  0.66585470  1
  Fe  Fe41  1  0.49937007  0.49658903  0.83160742  1
  Cr  Cr42  1  0.49666807  0.83231767  0.49824353  1
  Cr  Cr43  1  0.33169791  0.66254974  0.66487467  1
  Ni  Ni44  1  0.49935562  0.83139365  0.83083038  1
  Cr  Cr45  1  0.83014907  0.16970738  0.49609818  1
  Cr  Cr46  1  0.66333192  -0.00019062  0.66666074  1
  Fe  Fe47  1  0.83177043  0.16677361  0.83344164  1
  Fe  Fe48  1  0.83295482  0.49835176  0.49863634  1
  Fe  Fe49  1  0.66526674  0.33478539  0.66660340  1
  Fe  Fe50  1  0.83116325  0.49767670  0.83126339  1
  Cr  Cr51  1  0.83311965  0.82966984  0.49840650  1
  Fe  Fe52  1  0.66703034  0.66314135  0.66698612  1
  Fe  Fe53  1  0.83139648  0.83083872  0.83096777  1
" 