8478,Ni10Fe35Cr53_17,-216.729288680775, 182.220221897055,Ni10Fe35Cr53,"# generated using pymatgen
 data_Cr30Fe19Ni5
_symmetry_space_group_name_H-M   'P 1'
_cell_length_a   7.53382393
_cell_length_b   7.53382393
_cell_length_c   10.65443598
_cell_angle_alpha   90.00000000
_cell_angle_beta   90.00000000
_cell_angle_gamma   90.00000000
_symmetry_Int_Tables_number   1
_chemical_formula_structural   Cr30Fe19Ni5
_chemical_formula_sum   'Cr30 Fe19 Ni5'
_cell_volume   604.72983669
_cell_formula_units_Z   1
loop_
 _symmetry_equiv_pos_site_id
 _symmetry_equiv_pos_as_xyz
  1  'x, y, z'
loop_
 _atom_site_type_symbol
 _atom_site_label
 _atom_site_symmetry_multiplicity
 _atom_site_fract_x
 _atom_site_fract_y
 _atom_site_fract_z
 _atom_site_occupancy
  Fe  Fe0  1  -0.00239434  -0.00380489  -0.00225035  1
  Fe  Fe1  1  0.15858616  0.15960408  0.16254389  1
  Ni  Ni2  1  -0.00360943  -0.00174750  0.32850187  1
  Fe  Fe3  1  0.99294877  0.32777580  -0.00357975  1
  Cr  Cr4  1  0.16022990  0.49383761  0.16195440  1
  Ni  Ni5  1  0.99279386  0.32634238  0.32937411  1
  Fe  Fe6  1  -0.00425733  0.66266357  -0.00328089  1
  Ni  Ni7  1  0.16149139  0.83233784  0.16231365  1
  Cr  Cr8  1  -0.00345171  0.66207387  0.33178492  1
  Fe  Fe9  1  0.32936462  0.99439818  -0.00302375  1
  Cr  Cr10  1  0.49508722  0.16362928  0.16375812  1
  Cr  Cr11  1  0.32776108  0.99365835  0.32520973  1
  Cr  Cr12  1  0.32948607  0.32828446  -0.00334800  1
  Fe  Fe13  1  0.49714526  0.49575327  0.16028258  1
  Cr  Cr14  1  0.32959592  0.32927855  0.32734692  1
  Cr  Cr15  1  0.33025887  0.66489058  -0.00274572  1
  Fe  Fe16  1  0.49476465  0.82880979  0.15994622  1
  Cr  Cr17  1  0.32918490  0.66353373  0.32715408  1
  Cr  Cr18  1  0.66065560  -0.00433223  0.99243484  1
  Cr  Cr19  1  0.83036432  0.16245397  0.16298150  1
  Cr  Cr20  1  0.66251390  -0.00286951  0.33156387  1
  Ni  Ni21  1  0.66420044  0.32916912  0.99553852  1
  Cr  Cr22  1  0.82743751  0.49472090  0.16170708  1
  Fe  Fe23  1  0.66529583  0.32843395  0.32958910  1
  Fe  Fe24  1  0.66024265  0.66075576  -0.00391314  1
  Cr  Cr25  1  0.83079380  0.82924882  0.16101552  1
  Cr  Cr26  1  0.66078819  0.66041342  0.32472738  1
  Cr  Cr27  1  0.16255241  0.16200030  0.49163653  1
  Cr  Cr28  1  0.99280433  -0.00274588  0.66165394  1
  Cr  Cr29  1  0.16174620  0.16274869  0.83425980  1
  Cr  Cr30  1  0.16312859  0.49472431  0.49803531  1
  Cr  Cr31  1  0.99232034  0.32814711  0.66386933  1
  Cr  Cr32  1  0.16258141  0.49449604  0.82715769  1
  Fe  Fe33  1  0.16274540  0.83037079  0.49429289  1
  Cr  Cr34  1  -0.00441967  0.66154329  0.65982539  1
  Cr  Cr35  1  0.16233381  0.82917291  0.82859759  1
  Fe  Fe36  1  0.49767078  0.16323801  0.49687136  1
  Cr  Cr37  1  0.33102238  0.99462607  0.66287397  1
  Cr  Cr38  1  0.49598778  0.16216339  0.82519521  1
  Cr  Cr39  1  0.49662135  0.49309416  0.49703344  1
  Fe  Fe40  1  0.32931773  0.32808530  0.66150014  1
  Cr  Cr41  1  0.49617931  0.49618644  0.82710305  1
  Cr  Cr42  1  0.49652969  0.82932144  0.49811346  1
  Fe  Fe43  1  0.33072325  0.66305031  0.66307210  1
  Ni  Ni44  1  0.49777417  0.82858268  0.82833707  1
  Fe  Fe45  1  0.82812688  0.16498437  0.49374196  1
  Fe  Fe46  1  0.66325645  -0.00361777  0.66277925  1
  Fe  Fe47  1  0.82735259  0.16306496  0.83048311  1
  Fe  Fe48  1  0.82760671  0.49234798  0.49453505  1
  Fe  Fe49  1  0.66329878  0.32716335  0.66185817  1
  Cr  Cr50  1  0.82802667  0.49626011  0.83229999  1
  Cr  Cr51  1  0.82950435  0.83042822  0.49447672  1
  Fe  Fe52  1  0.66173660  0.66319564  0.66282822  1
  Cr  Cr53  1  0.82687812  0.82873914  0.83066707  1
" 