5322,Ni10Fe61Cr28_2,-223.041711383131, 172.106463682606,Ni10Fe61Cr28,"# generated using pymatgen
 data_Cr16Fe33Ni5
_symmetry_space_group_name_H-M   'P 1'
_cell_length_a   7.47949014
_cell_length_b   7.47949014
_cell_length_c   10.57759639
_cell_angle_alpha   90.00000000
_cell_angle_beta   90.00000000
_cell_angle_gamma   90.00000000
_symmetry_Int_Tables_number   1
_chemical_formula_structural   Cr16Fe33Ni5
_chemical_formula_sum   'Cr16 Fe33 Ni5'
_cell_volume   591.74007125
_cell_formula_units_Z   1
loop_
 _symmetry_equiv_pos_site_id
 _symmetry_equiv_pos_as_xyz
  1  'x, y, z'
loop_
 _atom_site_type_symbol
 _atom_site_label
 _atom_site_symmetry_multiplicity
 _atom_site_fract_x
 _atom_site_fract_y
 _atom_site_fract_z
 _atom_site_occupancy
  Fe  Fe0  1  0.99912270  0.99891475  0.00076852  1
  Fe  Fe1  1  0.16424605  0.16829853  0.16589490  1
  Cr  Cr2  1  0.99849812  0.99678144  0.33388846  1
  Fe  Fe3  1  0.99913023  0.33145181  0.00033987  1
  Fe  Fe4  1  0.16536478  0.49781308  0.16757485  1
  Fe  Fe5  1  0.00138698  0.32758575  0.33120890  1
  Fe  Fe6  1  0.00149507  0.66577460  -0.00018921  1
  Fe  Fe7  1  0.16476537  0.83093055  0.16400320  1
  Fe  Fe8  1  0.00290255  0.66369717  0.33106289  1
  Fe  Fe9  1  0.33190200  0.99816810  0.00217658  1
  Fe  Fe10  1  0.50267936  0.16699820  0.16606129  1
  Cr  Cr11  1  0.33067877  0.00068948  0.32884317  1
  Cr  Cr12  1  0.33289846  0.33321788  -0.00050391  1
  Cr  Cr13  1  0.49951879  0.50147421  0.16597487  1
  Ni  Ni14  1  0.33419208  0.33318570  0.33325380  1
  Fe  Fe15  1  0.33161000  0.66740276  -0.00024739  1
  Fe  Fe16  1  0.49917793  0.83443547  0.16329669  1
  Fe  Fe17  1  0.33097121  0.66433047  0.33064446  1
  Fe  Fe18  1  0.66597639  0.00129627  -0.00017486  1
  Ni  Ni19  1  0.83388659  0.16557835  0.16503598  1
  Fe  Fe20  1  0.66477270  0.00470303  0.33136326  1
  Fe  Fe21  1  0.66672756  0.33124905  0.00043041  1
  Cr  Cr22  1  0.83407993  0.49624923  0.16741463  1
  Ni  Ni23  1  0.66446222  0.33183544  0.33192743  1
  Ni  Ni24  1  0.66674397  0.66742139  0.99744483  1
  Cr  Cr25  1  0.82917069  0.83163968  0.16616880  1
  Fe  Fe26  1  0.66228475  0.66543378  0.33032731  1
  Ni  Ni27  1  0.16787149  0.16716904  0.50050799  1
  Fe  Fe28  1  -0.00037962  0.00147220  0.66538777  1
  Cr  Cr29  1  0.16640740  0.16481688  0.83092675  1
  Cr  Cr30  1  0.16467535  0.49521283  0.49869908  1
  Fe  Fe31  1  0.99723830  0.33078878  0.66567088  1
  Fe  Fe32  1  0.16700980  0.50093482  0.83136266  1
  Cr  Cr33  1  0.16784862  0.83401913  0.50356026  1
  Fe  Fe34  1  0.99736356  0.66451610  0.66755075  1
  Fe  Fe35  1  0.16413440  0.83119046  0.83171454  1
  Fe  Fe36  1  0.49751989  0.16857814  0.49729437  1
  Fe  Fe37  1  0.33503817  0.00188241  0.66549786  1
  Fe  Fe38  1  0.50057925  0.16697854  0.83416160  1
  Fe  Fe39  1  0.49721669  0.49793760  0.49683092  1
  Fe  Fe40  1  0.33209106  0.33222028  0.66536221  1
  Fe  Fe41  1  0.49747440  0.49984471  0.83467804  1
  Cr  Cr42  1  0.49962555  0.83210125  0.49544132  1
  Fe  Fe43  1  0.33490622  0.66349253  0.66703679  1
  Cr  Cr44  1  0.49853801  0.83414882  0.83464264  1
  Fe  Fe45  1  0.83439075  0.16718838  0.49697459  1
  Cr  Cr46  1  0.66910812  0.00118650  0.66411435  1
  Fe  Fe47  1  0.83214034  0.16387679  0.83588310  1
  Cr  Cr48  1  0.83012153  0.49811836  0.49370057  1
  Cr  Cr49  1  0.66278161  0.33366938  0.66710603  1
  Cr  Cr50  1  0.83262318  0.49846900  0.83635676  1
  Cr  Cr51  1  0.83043509  0.82933611  0.49863369  1
  Fe  Fe52  1  0.66482592  0.66536007  0.66787867  1
  Fe  Fe53  1  0.83485373  0.83401877  0.83412013  1
" 