1633,Ni10Fe35Cr53_2,-216.717217257849, 181.438982709845,Ni10Fe35Cr53,"# generated using pymatgen
 data_Cr30Fe19Ni5
_symmetry_space_group_name_H-M   'P 1'
_cell_length_a   7.52522148
_cell_length_b   7.52522148
_cell_length_c   10.64227027
_cell_angle_alpha   90.00000000
_cell_angle_beta   90.00000000
_cell_angle_gamma   90.00000000
_symmetry_Int_Tables_number   1
_chemical_formula_structural   Cr30Fe19Ni5
_chemical_formula_sum   'Cr30 Fe19 Ni5'
_cell_volume   602.66067955
_cell_formula_units_Z   1
loop_
 _symmetry_equiv_pos_site_id
 _symmetry_equiv_pos_as_xyz
  1  'x, y, z'
loop_
 _atom_site_type_symbol
 _atom_site_label
 _atom_site_symmetry_multiplicity
 _atom_site_fract_x
 _atom_site_fract_y
 _atom_site_fract_z
 _atom_site_occupancy
  Fe  Fe0  1  0.99406190  0.99396821  -0.00265888  1
  Cr  Cr1  1  0.16172066  0.16349702  0.16223604  1
  Cr  Cr2  1  0.99570821  0.99567322  0.32896826  1
  Fe  Fe3  1  0.99397678  0.33118830  0.99580971  1
  Cr  Cr4  1  0.16590163  0.49631985  0.16406868  1
  Cr  Cr5  1  0.99519494  0.33342273  0.32929508  1
  Cr  Cr6  1  0.99464908  0.65862151  -0.00351249  1
  Cr  Cr7  1  0.15960364  0.82884076  0.16236048  1
  Fe  Fe8  1  0.99265909  0.66274612  0.32968383  1
  Cr  Cr9  1  0.33279374  0.99607602  -0.00345648  1
  Cr  Cr10  1  0.49758610  0.16795767  0.16463398  1
  Cr  Cr11  1  0.33193389  -0.00291091  0.33263401  1
  Cr  Cr12  1  0.32872423  0.33086928  -0.00354570  1
  Fe  Fe13  1  0.50055142  0.49626160  0.16385773  1
  Fe  Fe14  1  0.33166027  0.33066326  0.33049968  1
  Fe  Fe15  1  0.32894642  0.66136587  0.99598782  1
  Cr  Cr16  1  0.49767158  0.82586589  0.16069107  1
  Cr  Cr17  1  0.32996224  0.66367389  0.32789691  1
  Fe  Fe18  1  0.66436391  0.99602817  -0.00317614  1
  Cr  Cr19  1  0.82932390  0.16262364  0.15988476  1
  Cr  Cr20  1  0.66154688  0.99440838  0.32859487  1
  Fe  Fe21  1  0.66418655  0.33105000  0.99561565  1
  Fe  Fe22  1  0.82745227  0.49760912  0.16488308  1
  Fe  Fe23  1  0.66337657  0.33165519  0.33071712  1
  Cr  Cr24  1  0.66424481  0.66215786  0.99589350  1
  Ni  Ni25  1  0.82803916  0.82674141  0.16308275  1
  Ni  Ni26  1  0.66441179  0.65992711  0.32868635  1
  Cr  Cr27  1  0.16431606  0.16354366  0.49736148  1
  Fe  Fe28  1  0.99562677  0.99513907  0.66161105  1
  Cr  Cr29  1  0.16088663  0.16249261  0.82980394  1
  Fe  Fe30  1  0.16129392  0.49702317  0.49488539  1
  Cr  Cr31  1  0.99599418  0.33211782  0.66526691  1
  Fe  Fe32  1  0.16226282  0.49586248  0.83065083  1
  Fe  Fe33  1  0.16304067  0.82735382  0.49655501  1
  Cr  Cr34  1  0.99478197  0.65926797  0.66068876  1
  Cr  Cr35  1  0.16133207  0.82969757  0.83025158  1
  Fe  Fe36  1  0.49789964  0.16536453  0.49753346  1
  Fe  Fe37  1  0.32947404  -0.00357515  0.66111714  1
  Cr  Cr38  1  0.49730301  0.16560679  0.82672166  1
  Cr  Cr39  1  0.49722375  0.49627923  0.49522099  1
  Fe  Fe40  1  0.33155969  0.33096850  0.66208634  1
  Cr  Cr41  1  0.49673347  0.49637477  0.82961496  1
  Fe  Fe42  1  0.49768308  0.82638274  0.49664392  1
  Cr  Cr43  1  0.32838538  0.66358626  0.66502669  1
  Cr  Cr44  1  0.49696597  0.82674693  0.82945139  1
  Cr  Cr45  1  0.82938990  0.16523208  0.49748953  1
  Cr  Cr46  1  0.65966051  0.99550569  0.66158259  1
  Cr  Cr47  1  0.82984841  0.16290165  0.83131800  1
  Ni  Ni48  1  0.82661380  0.49781181  0.49562722  1
  Ni  Ni49  1  0.66408821  0.33150641  0.66213444  1
  Fe  Fe50  1  0.82717617  0.49584212  0.82767104  1
  Cr  Cr51  1  0.82925285  0.82637409  0.49550107  1
  Ni  Ni52  1  0.66268171  0.65997890  0.66196295  1
  Cr  Cr53  1  0.82954964  0.82958931  0.82786594  1
" 