3490,Ni10Fe70Cr18_7,-225.168363907904, 161.604778062721,Ni10Fe70Cr18,"# generated using pymatgen
 data_Cr11Fe38Ni5
_symmetry_space_group_name_H-M   'P 1'
_cell_length_a   7.46949715
_cell_length_b   7.46949715
_cell_length_c   10.56346418
_cell_angle_alpha   90.00000000
_cell_angle_beta   90.00000000
_cell_angle_gamma   90.00000000
_symmetry_Int_Tables_number   1
_chemical_formula_structural   Cr11Fe38Ni5
_chemical_formula_sum   'Cr11 Fe38 Ni5'
_cell_volume   589.37145260
_cell_formula_units_Z   1
loop_
 _symmetry_equiv_pos_site_id
 _symmetry_equiv_pos_as_xyz
  1  'x, y, z'
loop_
 _atom_site_type_symbol
 _atom_site_label
 _atom_site_symmetry_multiplicity
 _atom_site_fract_x
 _atom_site_fract_y
 _atom_site_fract_z
 _atom_site_occupancy
  Fe  Fe0  1  0.00207769  0.99841781  0.99841398  1
  Fe  Fe1  1  0.16883544  0.16590272  0.16463819  1
  Fe  Fe2  1  0.99973075  0.99747727  0.33196660  1
  Fe  Fe3  1  0.99923271  0.33457089  0.99791844  1
  Fe  Fe4  1  0.16564469  0.49890031  0.16563116  1
  Cr  Cr5  1  0.00499812  0.33155783  0.33450401  1
  Fe  Fe6  1  0.00068809  0.66682615  0.99934756  1
  Fe  Fe7  1  0.16632559  0.83318425  0.16668121  1
  Fe  Fe8  1  0.99760724  0.66738276  0.33210608  1
  Fe  Fe9  1  0.33526270  0.00047555  0.99956097  1
  Fe  Fe10  1  0.49828428  0.16498077  0.16389786  1
  Fe  Fe11  1  0.33129885  0.00026488  0.33166443  1
  Ni  Ni12  1  0.32903173  0.33173675  -0.00009359  1
  Cr  Cr13  1  0.50160034  0.49760765  0.16893850  1
  Fe  Fe14  1  0.33711259  0.33140196  0.33383748  1
  Cr  Cr15  1  0.33449343  0.66516813  0.99811638  1
  Fe  Fe16  1  0.49929152  0.83478602  0.16677117  1
  Fe  Fe17  1  0.33210895  0.66622475  0.33278427  1
  Ni  Ni18  1  0.66718002  0.00003768  0.99844311  1
  Cr  Cr19  1  0.83297667  0.16848138  0.16243267  1
  Cr  Cr20  1  0.66627240  0.99733990  0.33249454  1
  Fe  Fe21  1  0.66191424  0.33370931  0.99730775  1
  Fe  Fe22  1  0.83510808  0.50188897  0.16707484  1
  Fe  Fe23  1  0.66872801  0.33385392  0.33547952  1
  Cr  Cr24  1  0.66728051  0.67033781  -0.00004263  1
  Fe  Fe25  1  0.83439411  0.83282576  0.16561940  1
  Ni  Ni26  1  0.66703608  0.66755982  0.33276062  1
  Fe  Fe27  1  0.16843428  0.16344107  0.49922049  1
  Fe  Fe28  1  0.99908239  0.99784447  0.66878031  1
  Fe  Fe29  1  0.16729215  0.16577119  0.83528765  1
  Fe  Fe30  1  0.16838046  0.50210198  0.49935656  1
  Cr  Cr31  1  0.00019803  0.33092648  0.66621066  1
  Fe  Fe32  1  0.16670685  0.49934811  0.83365486  1
  Cr  Cr33  1  0.16395259  0.83250906  0.50185708  1
  Fe  Fe34  1  0.00142527  0.66497227  0.66870827  1
  Fe  Fe35  1  0.16729055  0.83230744  0.83147796  1
  Fe  Fe36  1  0.49999166  0.16656595  0.49979836  1
  Fe  Fe37  1  0.33248297  0.99942359  0.66899003  1
  Fe  Fe38  1  0.49904219  0.16774890  0.83517740  1
  Fe  Fe39  1  0.50028528  0.50048795  0.49908954  1
  Cr  Cr40  1  0.33109667  0.33354200  0.66487834  1
  Ni  Ni41  1  0.49889861  0.49866091  0.83169036  1
  Cr  Cr42  1  0.49635942  0.83203857  0.50135751  1
  Ni  Ni43  1  0.33288576  0.66588925  0.66838177  1
  Fe  Fe44  1  0.49903241  0.83589872  0.83232680  1
  Fe  Fe45  1  0.83300002  0.16368590  0.50069138  1
  Fe  Fe46  1  0.66581917  0.00396830  0.66859969  1
  Fe  Fe47  1  0.83103427  0.16710612  0.83521515  1
  Fe  Fe48  1  0.83279325  0.50249033  0.49896530  1
  Fe  Fe49  1  0.66514323  0.33435978  0.66654753  1
  Fe  Fe50  1  0.83255308  0.49907959  0.83404759  1
  Fe  Fe51  1  0.83255774  0.83274909  0.50024893  1
  Cr  Cr52  1  0.66628133  0.66993909  0.66843532  1
  Fe  Fe53  1  0.83461114  0.83538849  0.83389629  1
" 