8210,Ni10Fe35Cr53_19,-216.658978027965, 182.394210994554,Ni10Fe35Cr53,"# generated using pymatgen
 data_Cr30Fe19Ni5
_symmetry_space_group_name_H-M   'P 1'
_cell_length_a   7.53101880
_cell_length_b   7.53101880
_cell_length_c   10.65046893
_cell_angle_alpha   90.00000000
_cell_angle_beta   90.00000000
_cell_angle_gamma   90.00000000
_symmetry_Int_Tables_number   1
_chemical_formula_structural   Cr30Fe19Ni5
_chemical_formula_sum   'Cr30 Fe19 Ni5'
_cell_volume   604.05459660
_cell_formula_units_Z   1
loop_
 _symmetry_equiv_pos_site_id
 _symmetry_equiv_pos_as_xyz
  1  'x, y, z'
loop_
 _atom_site_type_symbol
 _atom_site_label
 _atom_site_symmetry_multiplicity
 _atom_site_fract_x
 _atom_site_fract_y
 _atom_site_fract_z
 _atom_site_occupancy
  Fe  Fe0  1  0.99403080  -0.00196799  0.99410291  1
  Cr  Cr1  1  0.16188647  0.16207796  0.15867289  1
  Fe  Fe2  1  0.99536475  0.99536818  0.33119028  1
  Ni  Ni3  1  0.99484184  0.33042005  0.99471366  1
  Ni  Ni4  1  0.15957115  0.49656486  0.16147573  1
  Cr  Cr5  1  -0.00338934  0.32885709  0.32846882  1
  Fe  Fe6  1  0.99564222  0.65867775  0.99498654  1
  Cr  Cr7  1  0.16025636  0.83067347  0.15805828  1
  Cr  Cr8  1  -0.00218163  0.66213213  0.33112711  1
  Fe  Fe9  1  0.33130940  -0.00232657  0.99369022  1
  Cr  Cr10  1  0.49664537  0.16250318  0.16463984  1
  Cr  Cr11  1  0.32923628  0.99409791  0.32600905  1
  Cr  Cr12  1  0.32798493  0.33202783  -0.00179839  1
  Cr  Cr13  1  0.50092155  0.49562740  0.16550231  1
  Cr  Cr14  1  0.32689474  0.33303827  0.32733836  1
  Cr  Cr15  1  0.33038400  0.66241149  -0.00252680  1
  Cr  Cr16  1  0.49847175  0.82926621  0.16148851  1
  Cr  Cr17  1  0.32865733  0.66057541  0.32867619  1
  Cr  Cr18  1  0.66247545  0.99458463  0.99135088  1
  Cr  Cr19  1  0.82907579  0.16310534  0.16406613  1
  Fe  Fe20  1  0.66540623  0.99552691  0.33095324  1
  Cr  Cr21  1  0.66374686  0.32685035  0.99098191  1
  Cr  Cr22  1  0.82891809  0.49642982  0.15886462  1
  Fe  Fe23  1  0.66325000  0.33023995  0.33156563  1
  Fe  Fe24  1  0.66275892  0.65991895  0.99282157  1
  Cr  Cr25  1  0.82887788  0.82648265  0.16389171  1
  Fe  Fe26  1  0.66290595  0.66206453  0.33105982  1
  Cr  Cr27  1  0.16516505  0.16209034  0.49740557  1
  Cr  Cr28  1  0.99223619  -0.00382855  0.66030163  1
  Cr  Cr29  1  0.16603200  0.16174904  0.83036707  1
  Fe  Fe30  1  0.16399024  0.49549666  0.49856952  1
  Cr  Cr31  1  0.99360578  0.32857938  0.66256761  1
  Cr  Cr32  1  0.15804542  0.49621440  0.82669637  1
  Cr  Cr33  1  0.16168897  0.82865340  0.50093948  1
  Fe  Fe34  1  0.99274639  0.66052974  0.66196859  1
  Cr  Cr35  1  0.16348505  0.83013666  0.82778328  1
  Cr  Cr36  1  0.49670777  0.16531336  0.49493839  1
  Fe  Fe37  1  0.33226631  -0.00292342  0.66386851  1
  Ni  Ni38  1  0.49577069  0.16284414  0.82635353  1
  Fe  Fe39  1  0.49463844  0.49536420  0.49758062  1
  Fe  Fe40  1  0.33269986  0.33002085  0.66345936  1
  Fe  Fe41  1  0.49515753  0.49386474  0.82818021  1
  Cr  Cr42  1  0.49591776  0.82924415  0.49586257  1
  Fe  Fe43  1  0.32970925  0.65974702  0.66280522  1
  Fe  Fe44  1  0.49435749  0.82915226  0.82904476  1
  Fe  Fe45  1  0.82745032  0.16303109  0.49468918  1
  Cr  Cr46  1  0.66347384  -0.00173103  0.66417653  1
  Fe  Fe47  1  0.82991872  0.16499852  0.82891505  1
  Cr  Cr48  1  0.82617036  0.49647182  0.49708840  1
  Ni  Ni49  1  0.66062555  0.33010360  0.66454485  1
  Ni  Ni50  1  0.82606359  0.49432762  0.83024121  1
  Fe  Fe51  1  0.82759757  0.83013561  0.49477310  1
  Cr  Cr52  1  0.65972860  0.66294516  0.66558286  1
  Cr  Cr53  1  0.83146039  0.82289376  0.83057777  1
" 