355,Ni10Fe61Cr28_6,-223.337682099827, 170.621099556405,Ni10Fe61Cr28,"# generated using pymatgen
 data_Cr16Fe33Ni5
_symmetry_space_group_name_H-M   'P 1'
_cell_length_a   7.47622407
_cell_length_b   7.47622407
_cell_length_c   10.57297748
_cell_angle_alpha   90.00000000
_cell_angle_beta   90.00000000
_cell_angle_gamma   90.00000000
_symmetry_Int_Tables_number   1
_chemical_formula_structural   Cr16Fe33Ni5
_chemical_formula_sum   'Cr16 Fe33 Ni5'
_cell_volume   590.96522484
_cell_formula_units_Z   1
loop_
 _symmetry_equiv_pos_site_id
 _symmetry_equiv_pos_as_xyz
  1  'x, y, z'
loop_
 _atom_site_type_symbol
 _atom_site_label
 _atom_site_symmetry_multiplicity
 _atom_site_fract_x
 _atom_site_fract_y
 _atom_site_fract_z
 _atom_site_occupancy
  Cr  Cr0  1  0.00044015  0.00007676  0.00148599  1
  Ni  Ni1  1  0.16544730  0.16837714  0.16653305  1
  Fe  Fe2  1  -0.00018678  0.00170883  0.33221446  1
  Fe  Fe3  1  0.00009055  0.33494036  0.00113463  1
  Fe  Fe4  1  0.16715389  0.49437667  0.16545235  1
  Cr  Cr5  1  0.99803043  0.32934441  0.33250398  1
  Fe  Fe6  1  0.99918312  0.66373369  0.99893072  1
  Cr  Cr7  1  0.16732904  0.83199858  0.16848668  1
  Cr  Cr8  1  0.99831060  0.66552946  0.32843722  1
  Fe  Fe9  1  0.33175043  0.00220441  0.99795524  1
  Cr  Cr10  1  0.50008401  0.16694494  0.16223586  1
  Fe  Fe11  1  0.33031192  0.00207303  0.33530148  1
  Fe  Fe12  1  0.33073309  0.33145564  0.99837291  1
  Fe  Fe13  1  0.49803800  0.49551995  0.16670857  1
  Fe  Fe14  1  0.33492340  0.33172434  0.33287720  1
  Cr  Cr15  1  0.33129473  0.66394127  -0.00041280  1
  Cr  Cr16  1  0.49862227  0.83325681  0.16723412  1
  Fe  Fe17  1  0.33347288  0.66461612  0.33387576  1
  Fe  Fe18  1  0.66684867  0.00080589  0.99902598  1
  Ni  Ni19  1  0.83307552  0.16910737  0.16567875  1
  Cr  Cr20  1  0.66699980  0.00183678  0.33296815  1
  Fe  Fe21  1  0.66710794  0.33272578  0.99897888  1
  Fe  Fe22  1  0.83299239  0.49563757  0.16422881  1
  Fe  Fe23  1  0.66572408  0.33195575  0.33432792  1
  Cr  Cr24  1  0.66859778  0.66496749  0.00045652  1
  Fe  Fe25  1  0.83298994  0.83639245  0.16548367  1
  Cr  Cr26  1  0.66487015  0.66234082  0.33340520  1
  Fe  Fe27  1  0.16552976  0.16466578  0.49848993  1
  Fe  Fe28  1  0.99831076  0.00105536  0.66628938  1
  Fe  Fe29  1  0.16749206  0.16790754  0.83394526  1
  Cr  Cr30  1  0.16711749  0.50073451  0.50061555  1
  Fe  Fe31  1  0.00025854  0.33050857  0.66528253  1
  Fe  Fe32  1  0.16490418  0.49814824  0.83102628  1
  Fe  Fe33  1  0.16708255  0.83555156  0.49857714  1
  Fe  Fe34  1  0.99889096  0.66662162  0.66779803  1
  Fe  Fe35  1  0.16315951  0.83205676  0.83206684  1
  Ni  Ni36  1  0.50012250  0.16649177  0.49952076  1
  Cr  Cr37  1  0.33158504  0.00136007  0.66596515  1
  Fe  Fe38  1  0.49841101  0.16803950  0.83301239  1
  Fe  Fe39  1  0.49985825  0.49792048  0.49925901  1
  Fe  Fe40  1  0.33326403  0.33204617  0.66651991  1
  Fe  Fe41  1  0.49906304  0.49656803  0.83208104  1
  Fe  Fe42  1  0.49815244  0.83404814  0.50069827  1
  Fe  Fe43  1  0.33431688  0.66522314  0.66679375  1
  Cr  Cr44  1  0.50093848  0.83474841  0.83236914  1
  Ni  Ni45  1  0.83207393  0.16571215  0.50003434  1
  Ni  Ni46  1  0.66565555  -0.00026446  0.66646930  1
  Cr  Cr47  1  0.83112414  0.16611527  0.83194842  1
  Fe  Fe48  1  0.83214211  0.49720157  0.50019196  1
  Cr  Cr49  1  0.66554104  0.33297582  0.66272563  1
  Fe  Fe50  1  0.83425034  0.50076064  0.83212474  1
  Cr  Cr51  1  0.83360327  0.83460358  0.50264161  1
  Fe  Fe52  1  0.66533471  0.66690537  0.66628800  1
  Fe  Fe53  1  0.83444184  0.83156176  0.83024402  1
" 