1349,Ni10Fe61Cr28_18,-223.088794965141, 169.857253311389,Ni10Fe61Cr28,"# generated using pymatgen
 data_Cr16Fe33Ni5
_symmetry_space_group_name_H-M   'P 1'
_cell_length_a   7.48004814
_cell_length_b   7.48004814
_cell_length_c   10.57838552
_cell_angle_alpha   90.00000000
_cell_angle_beta   90.00000000
_cell_angle_gamma   90.00000000
_symmetry_Int_Tables_number   1
_chemical_formula_structural   Cr16Fe33Ni5
_chemical_formula_sum   'Cr16 Fe33 Ni5'
_cell_volume   591.87251920
_cell_formula_units_Z   1
loop_
 _symmetry_equiv_pos_site_id
 _symmetry_equiv_pos_as_xyz
  1  'x, y, z'
loop_
 _atom_site_type_symbol
 _atom_site_label
 _atom_site_symmetry_multiplicity
 _atom_site_fract_x
 _atom_site_fract_y
 _atom_site_fract_z
 _atom_site_occupancy
  Cr  Cr0  1  0.99832856  0.99901841  0.99571245  1
  Cr  Cr1  1  0.16626503  0.17092709  0.16741054  1
  Cr  Cr2  1  -0.00045448  0.99898554  0.33545547  1
  Fe  Fe3  1  0.99809268  0.33411667  0.99842359  1
  Ni  Ni4  1  0.16446700  0.49859115  0.16563724  1
  Fe  Fe5  1  0.00139340  0.33576902  0.33384034  1
  Fe  Fe6  1  0.99834038  0.66441231  -0.00033205  1
  Cr  Cr7  1  0.16621232  0.82872363  0.16607212  1
  Fe  Fe8  1  0.99833461  0.66218922  0.33314779  1
  Cr  Cr9  1  0.33127996  0.00178745  -0.00038037  1
  Fe  Fe10  1  0.49812250  0.16693593  0.16677231  1
  Fe  Fe11  1  0.33347904  0.00111914  0.33249382  1
  Fe  Fe12  1  0.33371226  0.33312012  -0.00005535  1
  Fe  Fe13  1  0.49759062  0.49678147  0.16609259  1
  Ni  Ni14  1  0.33194396  0.33357091  0.33164189  1
  Cr  Cr15  1  0.33351876  0.66407826  0.99806276  1
  Fe  Fe16  1  0.50100626  0.83364490  0.16713000  1
  Cr  Cr17  1  0.33355731  0.66313128  0.33360936  1
  Fe  Fe18  1  0.66559422  0.00024717  0.99845224  1
  Cr  Cr19  1  0.83021060  0.16652651  0.16581965  1
  Fe  Fe20  1  0.66480946  0.99792958  0.33144745  1
  Fe  Fe21  1  0.66518703  0.33082734  0.99794897  1
  Fe  Fe22  1  0.83538843  0.49999513  0.16613103  1
  Cr  Cr23  1  0.66522603  0.33567052  0.33431584  1
  Cr  Cr24  1  0.66754963  0.66376460  0.00140434  1
  Fe  Fe25  1  0.83220648  0.83062384  0.16685622  1
  Fe  Fe26  1  0.66764184  0.66637785  0.33176262  1
  Fe  Fe27  1  0.16613035  0.16697646  0.49900189  1
  Fe  Fe28  1  0.99901546  -0.00024228  0.66620369  1
  Fe  Fe29  1  0.16475340  0.16534401  0.83121518  1
  Ni  Ni30  1  0.16301249  0.49901391  0.49796287  1
  Fe  Fe31  1  0.99800813  0.33159666  0.66522651  1
  Cr  Cr32  1  0.16426318  0.50044963  0.83423716  1
  Fe  Fe33  1  0.16522355  0.83199278  0.50084909  1
  Fe  Fe34  1  0.00118967  0.66636257  0.66461182  1
  Fe  Fe35  1  0.16372691  0.83395178  0.83009963  1
  Cr  Cr36  1  0.50051493  0.16368406  0.49878338  1
  Ni  Ni37  1  0.32804509  -0.00061653  0.66583129  1
  Fe  Fe38  1  0.50035876  0.16696768  0.83173704  1
  Fe  Fe39  1  0.49743975  0.49843874  0.49901720  1
  Cr  Cr40  1  0.33368697  0.33273112  0.66563628  1
  Fe  Fe41  1  0.50144147  0.49607315  0.83259514  1
  Cr  Cr42  1  0.49924930  0.83363204  0.49864230  1
  Fe  Fe43  1  0.32984971  0.66651098  0.66455306  1
  Cr  Cr44  1  0.49842041  0.83414375  0.83019556  1
  Fe  Fe45  1  0.83419506  0.16657095  0.50107582  1
  Fe  Fe46  1  0.66691545  0.00114903  0.66659663  1
  Ni  Ni47  1  0.83059844  0.16683951  0.83079688  1
  Fe  Fe48  1  0.83419399  0.49913088  0.49927826  1
  Fe  Fe49  1  0.66761726  0.33027646  0.66638462  1
  Fe  Fe50  1  0.83206981  0.49714558  0.83244516  1
  Fe  Fe51  1  0.83388213  0.83158390  0.49934822  1
  Cr  Cr52  1  0.66644608  0.66174085  0.66452110  1
  Fe  Fe53  1  0.83382163  0.83276054  0.83135462  1
" 