3020,Ni10Fe61Cr28_15,-223.544278704942, 169.612215250922,Ni10Fe61Cr28,"# generated using pymatgen
 data_Cr16Fe33Ni5
_symmetry_space_group_name_H-M   'P 1'
_cell_length_a   7.48376427
_cell_length_b   7.48376427
_cell_length_c   10.58364093
_cell_angle_alpha   90.00000000
_cell_angle_beta   90.00000000
_cell_angle_gamma   90.00000000
_symmetry_Int_Tables_number   1
_chemical_formula_structural   Cr16Fe33Ni5
_chemical_formula_sum   'Cr16 Fe33 Ni5'
_cell_volume   592.75509503
_cell_formula_units_Z   1
loop_
 _symmetry_equiv_pos_site_id
 _symmetry_equiv_pos_as_xyz
  1  'x, y, z'
loop_
 _atom_site_type_symbol
 _atom_site_label
 _atom_site_symmetry_multiplicity
 _atom_site_fract_x
 _atom_site_fract_y
 _atom_site_fract_z
 _atom_site_occupancy
  Fe  Fe0  1  0.00079506  -0.00059170  -0.00065185  1
  Fe  Fe1  1  0.16831119  0.16632280  0.16505923  1
  Cr  Cr2  1  -0.00047672  0.00060722  0.33207467  1
  Cr  Cr3  1  0.99864801  0.33276086  0.99700914  1
  Fe  Fe4  1  0.16734538  0.49633724  0.16654131  1
  Fe  Fe5  1  0.00080408  0.33305510  0.33473295  1
  Cr  Cr6  1  0.99795793  0.66650797  0.99647309  1
  Fe  Fe7  1  0.16663553  0.83490708  0.16524413  1
  Cr  Cr8  1  0.00039167  0.66439873  0.33149791  1
  Ni  Ni9  1  0.33464836  0.00109884  0.00051448  1
  Fe  Fe10  1  0.49764977  0.16590410  0.16551076  1
  Fe  Fe11  1  0.33461629  -0.00105160  0.33009728  1
  Fe  Fe12  1  0.33300596  0.33012220  -0.00033767  1
  Fe  Fe13  1  0.49795158  0.49760420  0.16585143  1
  Fe  Fe14  1  0.33017903  0.33247839  0.33214527  1
  Cr  Cr15  1  0.33173968  0.66668747  0.00099580  1
  Fe  Fe16  1  0.50063657  0.83358106  0.16579771  1
  Fe  Fe17  1  0.33534403  0.66510194  0.33207882  1
  Fe  Fe18  1  0.66451388  0.99826184  0.99856705  1
  Cr  Cr19  1  0.83168984  0.16572321  0.16721466  1
  Fe  Fe20  1  0.66257106  0.99606445  0.33217360  1
  Fe  Fe21  1  0.66232833  0.32986780  0.99779542  1
  Cr  Cr22  1  0.82972861  0.49926396  0.16506287  1
  Cr  Cr23  1  0.66431469  0.33148162  0.33519037  1
  Fe  Fe24  1  0.66421939  0.66775778  0.99781901  1
  Fe  Fe25  1  0.82986264  0.83266550  0.16506811  1
  Fe  Fe26  1  0.66332495  0.66617459  0.33364939  1
  Fe  Fe27  1  0.16544647  0.16728318  0.49847674  1
  Fe  Fe28  1  0.99651542  0.00029358  0.66612617  1
  Fe  Fe29  1  0.16883415  0.16623932  0.83227096  1
  Fe  Fe30  1  0.16764163  0.49813550  0.49851689  1
  Cr  Cr31  1  0.99775740  0.33089122  0.66311191  1
  Fe  Fe32  1  0.16881257  0.49758638  0.83071125  1
  Cr  Cr33  1  0.16927593  0.83405575  0.50154977  1
  Cr  Cr34  1  -0.00069886  0.66367490  0.66830404  1
  Cr  Cr35  1  0.16580289  0.83512879  0.83045755  1
  Cr  Cr36  1  0.49754052  0.16475944  0.50135103  1
  Fe  Fe37  1  0.33337078  0.00183615  0.66630756  1
  Fe  Fe38  1  0.49821140  0.16425088  0.83184533  1
  Fe  Fe39  1  0.49967552  0.50043582  0.50120966  1
  Fe  Fe40  1  0.33304670  0.33486606  0.66530875  1
  Cr  Cr41  1  0.49957871  0.49657951  0.83144814  1
  Fe  Fe42  1  0.50007447  0.83016682  0.50004328  1
  Ni  Ni43  1  0.33391897  0.66582093  0.66272754  1
  Cr  Cr44  1  0.49756717  0.83165460  0.82803244  1
  Fe  Fe45  1  0.83168325  0.16549754  0.49922652  1
  Fe  Fe46  1  0.66660748  -0.00098399  0.66605200  1
  Fe  Fe47  1  0.82986001  0.16394928  0.83217708  1
  Ni  Ni48  1  0.83051062  0.49743348  0.49937398  1
  Ni  Ni49  1  0.66580400  0.33027507  0.66634800  1
  Fe  Fe50  1  0.82926978  0.49846122  0.83054333  1
  Cr  Cr51  1  0.83152855  0.83123692  0.50014628  1
  Ni  Ni52  1  0.66433636  0.66363936  0.66389959  1
  Fe  Fe53  1  0.82898076  0.83342909  0.83094872  1
" 