4379,Ni10Fe35Cr53_8,-216.36536475002, 179.935325099393,Ni10Fe35Cr53,"# generated using pymatgen
 data_Cr30Fe19Ni5
_symmetry_space_group_name_H-M   'P 1'
_cell_length_a   7.53307135
_cell_length_b   7.53307135
_cell_length_c   10.65337168
_cell_angle_alpha   90.00000000
_cell_angle_beta   90.00000000
_cell_angle_gamma   90.00000000
_symmetry_Int_Tables_number   1
_chemical_formula_structural   Cr30Fe19Ni5
_chemical_formula_sum   'Cr30 Fe19 Ni5'
_cell_volume   604.54862996
_cell_formula_units_Z   1
loop_
 _symmetry_equiv_pos_site_id
 _symmetry_equiv_pos_as_xyz
  1  'x, y, z'
loop_
 _atom_site_type_symbol
 _atom_site_label
 _atom_site_symmetry_multiplicity
 _atom_site_fract_x
 _atom_site_fract_y
 _atom_site_fract_z
 _atom_site_occupancy
  Cr  Cr0  1  0.99155567  -0.00267314  0.99518228  1
  Fe  Fe1  1  0.16008680  0.16133692  0.16263917  1
  Ni  Ni2  1  0.99555021  -0.00399452  0.32887784  1
  Cr  Cr3  1  0.99537008  0.32849929  0.99560188  1
  Cr  Cr4  1  0.16148509  0.49583944  0.16001758  1
  Cr  Cr5  1  0.99440940  0.32750158  0.32767968  1
  Cr  Cr6  1  0.99361391  0.66093903  -0.00372917  1
  Cr  Cr7  1  0.16007242  0.82972287  0.16513588  1
  Fe  Fe8  1  0.99470015  0.66401459  0.32884199  1
  Cr  Cr9  1  0.33162504  -0.00288657  -0.00175967  1
  Fe  Fe10  1  0.49829442  0.16231810  0.16183699  1
  Cr  Cr11  1  0.32727756  -0.00376498  0.32954948  1
  Fe  Fe12  1  0.32917648  0.32853797  -0.00390515  1
  Cr  Cr13  1  0.49712417  0.49252498  0.16213632  1
  Cr  Cr14  1  0.32856461  0.32836871  0.33025433  1
  Cr  Cr15  1  0.32942916  0.66105435  0.99391571  1
  Fe  Fe16  1  0.49813944  0.83046966  0.16177989  1
  Cr  Cr17  1  0.32899638  0.66221761  0.33177174  1
  Fe  Fe18  1  0.66446419  -0.00343023  -0.00232773  1
  Ni  Ni19  1  0.82660981  0.16119742  0.16209741  1
  Cr  Cr20  1  0.66417828  -0.00386761  0.32450921  1
  Fe  Fe21  1  0.66317660  0.32671234  -0.00224859  1
  Fe  Fe22  1  0.82817221  0.49477422  0.16324919  1
  Ni  Ni23  1  0.66354144  0.32919121  0.32739903  1
  Cr  Cr24  1  0.66375500  0.66511235  -0.00339788  1
  Ni  Ni25  1  0.82948039  0.83184060  0.16275205  1
  Cr  Cr26  1  0.66341147  0.66149414  0.32794322  1
  Fe  Fe27  1  0.15985410  0.16111864  0.49570256  1
  Fe  Fe28  1  -0.00395930  0.99468405  0.66187213  1
  Cr  Cr29  1  0.16116878  0.16285901  0.82880467  1
  Fe  Fe30  1  0.16067990  0.49663792  0.49637463  1
  Fe  Fe31  1  -0.00424818  0.32991543  0.66231841  1
  Fe  Fe32  1  0.16143834  0.49550345  0.82807661  1
  Fe  Fe33  1  0.15896372  0.82899999  0.49564653  1
  Ni  Ni34  1  0.99502367  0.66108624  0.66241413  1
  Cr  Cr35  1  0.15967618  0.82797458  0.82737617  1
  Cr  Cr36  1  0.49650321  0.16532445  0.49479787  1
  Cr  Cr37  1  0.32801091  -0.00407608  0.65942512  1
  Cr  Cr38  1  0.49763156  0.16397240  0.83173355  1
  Fe  Fe39  1  0.49721785  0.49457305  0.49554490  1
  Cr  Cr40  1  0.32686381  0.33038273  0.66067731  1
  Cr  Cr41  1  0.49618244  0.49380253  0.82810872  1
  Cr  Cr42  1  0.49444684  0.82770229  0.49592226  1
  Cr  Cr43  1  0.32836144  0.66056154  0.66106632  1
  Cr  Cr44  1  0.49665829  0.82918159  0.82997885  1
  Cr  Cr45  1  0.83007238  0.16341653  0.49726453  1
  Cr  Cr46  1  0.66472589  0.99513798  0.66575590  1
  Fe  Fe47  1  0.82833606  0.16194598  0.82890370  1
  Cr  Cr48  1  0.82793911  0.49516847  0.49437547  1
  Fe  Fe49  1  0.66348430  0.33051745  0.66166353  1
  Cr  Cr50  1  0.82932112  0.49501872  0.82723557  1
  Cr  Cr51  1  0.83328425  0.82822419  0.49637870  1
  Fe  Fe52  1  0.66399557  0.66135787  0.66221418  1
  Fe  Fe53  1  0.82946539  0.82931670  0.82792302  1
" 