8396,Ni10Fe30Cr59_6,-214.803252285827, 186.370531834112,Ni10Fe30Cr59,"# generated using pymatgen
 data_Cr33Fe16Ni5
_symmetry_space_group_name_H-M   'P 1'
_cell_length_a   7.53866646
_cell_length_b   7.53866646
_cell_length_c   10.66128434
_cell_angle_alpha   90.00000000
_cell_angle_beta   90.00000000
_cell_angle_gamma   90.00000000
_symmetry_Int_Tables_number   1
_chemical_formula_structural   Cr33Fe16Ni5
_chemical_formula_sum   'Cr33 Fe16 Ni5'
_cell_volume   605.89669502
_cell_formula_units_Z   1
loop_
 _symmetry_equiv_pos_site_id
 _symmetry_equiv_pos_as_xyz
  1  'x, y, z'
loop_
 _atom_site_type_symbol
 _atom_site_label
 _atom_site_symmetry_multiplicity
 _atom_site_fract_x
 _atom_site_fract_y
 _atom_site_fract_z
 _atom_site_occupancy
  Fe  Fe0  1  -0.00383063  0.99351691  -0.00204116  1
  Fe  Fe1  1  0.16204810  0.16061323  0.16171582  1
  Cr  Cr2  1  0.99461419  0.99334068  0.32687353  1
  Cr  Cr3  1  -0.00241995  0.32985384  -0.00455655  1
  Cr  Cr4  1  0.16186366  0.49604346  0.16405740  1
  Cr  Cr5  1  -0.00340648  0.32887681  0.33088647  1
  Fe  Fe6  1  -0.00380172  0.66266837  -0.00305870  1
  Ni  Ni7  1  0.15837858  0.82884669  0.15992989  1
  Cr  Cr8  1  -0.00467947  0.66322308  0.32921306  1
  Cr  Cr9  1  0.32668245  -0.00373100  0.99476711  1
  Cr  Cr10  1  0.49586052  0.16338084  0.16432509  1
  Cr  Cr11  1  0.32641143  0.99468674  0.32676730  1
  Cr  Cr12  1  0.32855650  0.32906064  0.99393699  1
  Cr  Cr13  1  0.49671801  0.49469138  0.16517632  1
  Fe  Fe14  1  0.32681695  0.33038362  0.32934797  1
  Cr  Cr15  1  0.32833871  0.66045294  0.99453085  1
  Cr  Cr16  1  0.49426983  0.82766420  0.16342961  1
  Fe  Fe17  1  0.32474809  0.66183430  0.32850449  1
  Cr  Cr18  1  0.66212896  0.99363055  0.99449351  1
  Cr  Cr19  1  0.82901003  0.16297353  0.16288416  1
  Fe  Fe20  1  0.66478347  0.99474607  0.32977785  1
  Cr  Cr21  1  0.65980727  0.33133834  0.99261475  1
  Fe  Fe22  1  0.82902998  0.49730557  0.16097642  1
  Fe  Fe23  1  0.66366014  0.32767266  0.32892758  1
  Fe  Fe24  1  0.66183956  0.66064425  -0.00419270  1
  Fe  Fe25  1  0.83024824  0.82689370  0.16049248  1
  Cr  Cr26  1  0.66414491  0.66339555  0.32740776  1
  Cr  Cr27  1  0.16145280  0.16404913  0.49524667  1
  Cr  Cr28  1  0.99411853  0.99441405  0.65896794  1
  Cr  Cr29  1  0.16000837  0.16111021  0.82953392  1
  Ni  Ni30  1  0.16181432  0.49561011  0.49730394  1
  Fe  Fe31  1  -0.00340911  0.33145504  0.66181021  1
  Ni  Ni32  1  0.16236333  0.49632902  0.82568160  1
  Cr  Cr33  1  0.16320417  0.82497922  0.49842655  1
  Fe  Fe34  1  -0.00367837  0.65923796  0.66113983  1
  Cr  Cr35  1  0.16109087  0.82702134  0.82670151  1
  Cr  Cr36  1  0.49704490  0.16194141  0.49240753  1
  Fe  Fe37  1  0.32932753  -0.00383906  0.66217124  1
  Fe  Fe38  1  0.49446565  0.16303883  0.82778397  1
  Cr  Cr39  1  0.49229468  0.49577813  0.49086031  1
  Cr  Cr40  1  0.32754039  0.33084106  0.66549135  1
  Ni  Ni41  1  0.49346522  0.49613036  0.82937598  1
  Cr  Cr42  1  0.49431258  0.82817091  0.49467033  1
  Fe  Fe43  1  0.32743666  0.65897828  0.66293327  1
  Cr  Cr44  1  0.49403448  0.82815310  0.82642780  1
  Fe  Fe45  1  0.82870444  0.16111404  0.49427369  1
  Cr  Cr46  1  0.66230050  0.99473435  0.65910795  1
  Cr  Cr47  1  0.82983075  0.16200103  0.82643255  1
  Cr  Cr48  1  0.83055053  0.49361920  0.49649268  1
  Cr  Cr49  1  0.66086923  0.32900989  0.66358568  1
  Cr  Cr50  1  0.83091404  0.49604783  0.83059016  1
  Ni  Ni51  1  0.82866640  0.83004088  0.49370063  1
  Cr  Cr52  1  0.66219070  0.66181048  0.66327565  1
  Cr  Cr53  1  0.83075966  0.82771086  0.83191435  1
" 