4991,Ni10Fe30Cr59_14,-214.754468017294, 180.990006671833,Ni10Fe30Cr59,"# generated using pymatgen
 data_Cr33Fe16Ni5
_symmetry_space_group_name_H-M   'P 1'
_cell_length_a   7.54232064
_cell_length_b   7.54232064
_cell_length_c   10.66645214
_cell_angle_alpha   90.00000000
_cell_angle_beta   90.00000000
_cell_angle_gamma   90.00000000
_symmetry_Int_Tables_number   1
_chemical_formula_structural   Cr33Fe16Ni5
_chemical_formula_sum   'Cr33 Fe16 Ni5'
_cell_volume   606.77820284
_cell_formula_units_Z   1
loop_
 _symmetry_equiv_pos_site_id
 _symmetry_equiv_pos_as_xyz
  1  'x, y, z'
loop_
 _atom_site_type_symbol
 _atom_site_label
 _atom_site_symmetry_multiplicity
 _atom_site_fract_x
 _atom_site_fract_y
 _atom_site_fract_z
 _atom_site_occupancy
  Cr  Cr0  1  -0.00467647  -0.00414311  0.99464362  1
  Cr  Cr1  1  0.16329908  0.16159315  0.16289547  1
  Cr  Cr2  1  -0.00413146  -0.00304948  0.32831072  1
  Cr  Cr3  1  -0.00086239  0.32865524  -0.00369251  1
  Fe  Fe4  1  0.16351487  0.49722509  0.16154300  1
  Fe  Fe5  1  -0.00305469  0.32932999  0.32987834  1
  Fe  Fe6  1  -0.00149931  0.66139526  -0.00409136  1
  Fe  Fe7  1  0.16576456  0.82471793  0.16193606  1
  Cr  Cr8  1  -0.00292475  0.65991630  0.32827467  1
  Cr  Cr9  1  0.32816579  -0.00455434  -0.00489004  1
  Cr  Cr10  1  0.49429823  0.16146837  0.16297515  1
  Fe  Fe11  1  0.32967213  0.99320799  0.32862286  1
  Fe  Fe12  1  0.32737597  0.32976166  0.99406407  1
  Cr  Cr13  1  0.49182283  0.49554787  0.16117563  1
  Cr  Cr14  1  0.32594586  0.32962302  0.33168999  1
  Ni  Ni15  1  0.32417254  0.65922811  -0.00165370  1
  Fe  Fe16  1  0.49110113  0.82875745  0.16376604  1
  Ni  Ni17  1  0.32776032  0.65980378  0.32669947  1
  Cr  Cr18  1  0.66163540  0.99367236  0.99487712  1
  Cr  Cr19  1  0.82756919  0.16390606  0.16602094  1
  Ni  Ni20  1  0.65924773  -0.00370040  0.32814174  1
  Cr  Cr21  1  0.66068690  0.32789503  0.99414673  1
  Cr  Cr22  1  0.82977416  0.49242559  0.16217004  1
  Fe  Fe23  1  0.65931318  0.32822158  0.32911115  1
  Cr  Cr24  1  0.65987281  0.66322705  -0.00294233  1
  Cr  Cr25  1  0.82989279  0.82885065  0.16079626  1
  Cr  Cr26  1  0.65861003  0.66300112  0.32726255  1
  Ni  Ni27  1  0.16422250  0.16385784  0.49367456  1
  Cr  Cr28  1  -0.00429899  -0.00243584  0.66199769  1
  Fe  Fe29  1  0.16340330  0.16351241  0.82868119  1
  Fe  Fe30  1  0.16237120  0.49433463  0.49369108  1
  Cr  Cr31  1  -0.00075052  0.32856913  0.65969384  1
  Fe  Fe32  1  0.16223806  0.49619401  0.83023413  1
  Cr  Cr33  1  0.16395178  0.82886836  0.49440818  1
  Fe  Fe34  1  -0.00303938  0.66023996  0.66092681  1
  Cr  Cr35  1  0.16237938  0.82582428  0.82792839  1
  Fe  Fe36  1  0.49589795  0.16099692  0.49414953  1
  Cr  Cr37  1  0.32921974  -0.00070958  0.66058198  1
  Fe  Fe38  1  0.49504783  0.16111725  0.82747863  1
  Fe  Fe39  1  0.49327474  0.49296839  0.49363896  1
  Cr  Cr40  1  0.32782610  0.32782014  0.66294212  1
  Cr  Cr41  1  0.49263949  0.49284126  0.82964725  1
  Cr  Cr42  1  0.49298667  0.82934055  0.49235628  1
  Cr  Cr43  1  0.32830348  0.65762017  0.65826626  1
  Cr  Cr44  1  0.49252688  0.82823996  0.82861739  1
  Cr  Cr45  1  0.82685474  0.16311787  0.49162296  1
  Ni  Ni46  1  0.66052477  -0.00178058  0.66200894  1
  Cr  Cr47  1  0.82670208  0.16265130  0.82746526  1
  Cr  Cr48  1  0.82698039  0.49235689  0.49525832  1
  Fe  Fe49  1  0.65944085  0.32530330  0.66110320  1
  Cr  Cr50  1  0.82997781  0.49527789  0.82758336  1
  Cr  Cr51  1  0.82846514  0.82945111  0.49961677  1
  Cr  Cr52  1  0.66070364  0.66165827  0.66058984  1
  Cr  Cr53  1  0.83034154  0.82731841  0.82464296  1
" 