2460,Ni10Fe70Cr18_10,-224.744427876746, 161.338647385272,Ni10Fe70Cr18,"# generated using pymatgen
 data_Cr11Fe38Ni5
_symmetry_space_group_name_H-M   'P 1'
_cell_length_a   7.46091399
_cell_length_b   7.46091399
_cell_length_c   10.55132575
_cell_angle_alpha   90.00000000
_cell_angle_beta   90.00000000
_cell_angle_gamma   90.00000000
_symmetry_Int_Tables_number   1
_chemical_formula_structural   Cr11Fe38Ni5
_chemical_formula_sum   'Cr11 Fe38 Ni5'
_cell_volume   587.34205476
_cell_formula_units_Z   1
loop_
 _symmetry_equiv_pos_site_id
 _symmetry_equiv_pos_as_xyz
  1  'x, y, z'
loop_
 _atom_site_type_symbol
 _atom_site_label
 _atom_site_symmetry_multiplicity
 _atom_site_fract_x
 _atom_site_fract_y
 _atom_site_fract_z
 _atom_site_occupancy
  Fe  Fe0  1  0.00089767  0.99781215  0.00067948  1
  Fe  Fe1  1  0.16878916  0.16784255  0.16421469  1
  Fe  Fe2  1  0.00058859  0.99839888  0.33566440  1
  Ni  Ni3  1  0.00126224  0.33441667  0.00359215  1
  Ni  Ni4  1  0.16744274  0.50178047  0.16659504  1
  Cr  Cr5  1  0.00362292  0.33173207  0.33385893  1
  Fe  Fe6  1  0.00160963  0.66759418  0.00296058  1
  Cr  Cr7  1  0.16804939  0.83212176  0.16825492  1
  Ni  Ni8  1  0.99886451  0.66565201  0.33501418  1
  Ni  Ni9  1  0.33503709  0.99991409  1.00000057  1
  Cr  Cr10  1  0.50175674  0.16573196  0.16863947  1
  Fe  Fe11  1  0.32911668  0.00293955  0.33317234  1
  Fe  Fe12  1  0.33424736  0.33588306  0.00274686  1
  Fe  Fe13  1  0.49840857  0.50140761  0.16915133  1
  Fe  Fe14  1  0.33373692  0.33592740  0.33411858  1
  Fe  Fe15  1  0.33336983  0.66752786  0.99971289  1
  Fe  Fe16  1  0.49985449  0.83257263  0.16988125  1
  Fe  Fe17  1  0.33022203  0.66273258  0.33440577  1
  Fe  Fe18  1  0.66542185  0.99902380  0.99911819  1
  Cr  Cr19  1  0.83365439  0.16601468  0.16483597  1
  Fe  Fe20  1  0.67099642  0.99973059  0.33440885  1
  Fe  Fe21  1  0.66441512  0.33426224  0.00076536  1
  Fe  Fe22  1  0.83593241  0.50138884  0.16719767  1
  Fe  Fe23  1  0.66797759  0.33635253  0.33557659  1
  Cr  Cr24  1  0.66603571  0.66789773  0.00150841  1
  Fe  Fe25  1  0.83402115  0.83193665  0.16973931  1
  Fe  Fe26  1  0.66881601  0.66462569  0.33239689  1
  Fe  Fe27  1  0.16949338  0.16509520  0.50224096  1
  Fe  Fe28  1  0.00123207  0.99820034  0.66582818  1
  Cr  Cr29  1  0.16607643  0.16930721  0.83652924  1
  Fe  Fe30  1  0.16876854  0.50313655  0.50074669  1
  Fe  Fe31  1  0.00203965  0.33428237  0.66390936  1
  Cr  Cr32  1  0.16776556  0.50445201  0.83320940  1
  Fe  Fe33  1  0.16587675  0.83258920  0.49952186  1
  Fe  Fe34  1  0.00275339  0.66893831  0.66365978  1
  Fe  Fe35  1  0.16693310  0.83525085  0.83384510  1
  Fe  Fe36  1  0.49977551  0.16813432  0.49827376  1
  Fe  Fe37  1  0.33409154  0.99934753  0.66800000  1
  Fe  Fe38  1  0.49845808  0.16810670  0.83442173  1
  Fe  Fe39  1  0.49872034  0.49975062  0.50019839  1
  Fe  Fe40  1  0.33477100  0.33507675  0.66543362  1
  Fe  Fe41  1  0.49993205  0.49804389  0.83291856  1
  Cr  Cr42  1  0.49787502  0.83379099  0.49475734  1
  Ni  Ni43  1  0.33439942  0.66856682  0.66732943  1
  Fe  Fe44  1  0.49759941  0.83523595  0.83348698  1
  Fe  Fe45  1  0.83261325  0.16586788  0.50161315  1
  Fe  Fe46  1  0.66433894  1.00037247  0.66569896  1
  Cr  Cr47  1  0.83092458  0.16704683  0.83351876  1
  Fe  Fe48  1  0.83376788  0.50096276  0.50042064  1
  Fe  Fe49  1  0.66414561  0.33321250  0.66470232  1
  Cr  Cr50  1  0.83682579  0.49876297  0.83376062  1
  Fe  Fe51  1  0.83474052  0.83372737  0.49893590  1
  Cr  Cr52  1  0.66690056  0.66792833  0.66744413  1
  Fe  Fe53  1  0.83723110  0.83378974  0.83358120  1
" 