2734,Ni10Fe30Cr59_17,-214.716164545603, 179.786001205957,Ni10Fe30Cr59,"# generated using pymatgen
 data_Cr33Fe16Ni5
_symmetry_space_group_name_H-M   'P 1'
_cell_length_a   7.54866477
_cell_length_b   7.54866477
_cell_length_c   10.67542410
_cell_angle_alpha   90.00000000
_cell_angle_beta   90.00000000
_cell_angle_gamma   90.00000000
_symmetry_Int_Tables_number   1
_chemical_formula_structural   Cr33Fe16Ni5
_chemical_formula_sum   'Cr33 Fe16 Ni5'
_cell_volume   608.31064399
_cell_formula_units_Z   1
loop_
 _symmetry_equiv_pos_site_id
 _symmetry_equiv_pos_as_xyz
  1  'x, y, z'
loop_
 _atom_site_type_symbol
 _atom_site_label
 _atom_site_symmetry_multiplicity
 _atom_site_fract_x
 _atom_site_fract_y
 _atom_site_fract_z
 _atom_site_occupancy
  Cr  Cr0  1  0.99334060  0.99379360  -0.00524976  1
  Fe  Fe1  1  0.16026545  0.16487213  0.16169579  1
  Cr  Cr2  1  0.99441560  -0.00425069  0.32893064  1
  Fe  Fe3  1  0.99396130  0.32977428  -0.00399268  1
  Fe  Fe4  1  0.15924552  0.49178582  0.16260072  1
  Fe  Fe5  1  0.99349175  0.32947278  0.32760352  1
  Cr  Cr6  1  0.99244218  0.65839950  -0.00503012  1
  Cr  Cr7  1  0.16331644  0.82666318  0.16413241  1
  Cr  Cr8  1  0.99184578  0.65816231  0.32642272  1
  Cr  Cr9  1  0.32991018  -0.00468189  0.99379590  1
  Cr  Cr10  1  0.49705970  0.16291817  0.15999723  1
  Cr  Cr11  1  0.32893237  -0.00172361  0.32868572  1
  Cr  Cr12  1  0.32677220  0.32889347  0.99340796  1
  Cr  Cr13  1  0.49623947  0.49437796  0.16337251  1
  Fe  Fe14  1  0.32748895  0.32871978  0.32845630  1
  Cr  Cr15  1  0.32755054  0.65968732  0.99434769  1
  Cr  Cr16  1  0.49348850  0.82642348  0.15925033  1
  Fe  Fe17  1  0.32901774  0.65999359  0.32867971  1
  Fe  Fe18  1  0.66123777  0.99265743  0.99244998  1
  Cr  Cr19  1  0.82765104  0.16532513  0.15884170  1
  Cr  Cr20  1  0.66055177  -0.00512539  0.32901697  1
  Ni  Ni21  1  0.66310787  0.33027347  -0.00281123  1
  Ni  Ni22  1  0.82911017  0.48988754  0.16113833  1
  Fe  Fe23  1  0.66289849  0.32965315  0.32826566  1
  Fe  Fe24  1  0.66214423  0.66070642  0.99390785  1
  Cr  Cr25  1  0.82690335  0.82745733  0.15972647  1
  Cr  Cr26  1  0.66302912  0.65881462  0.33042843  1
  Fe  Fe27  1  0.16131683  0.16387375  0.49388940  1
  Cr  Cr28  1  0.99241002  0.99300908  0.65956422  1
  Cr  Cr29  1  0.15907418  0.16222975  0.82629236  1
  Cr  Cr30  1  0.16182961  0.49545133  0.49413255  1
  Cr  Cr31  1  -0.00492881  0.33032745  0.66271896  1
  Fe  Fe32  1  0.16059707  0.49545395  0.82845735  1
  Cr  Cr33  1  0.16295179  0.82796719  0.49378469  1
  Cr  Cr34  1  0.98969127  0.66069634  0.66213509  1
  Cr  Cr35  1  0.16197840  0.82677082  0.82638633  1
  Fe  Fe36  1  0.49396175  0.16367750  0.49313087  1
  Cr  Cr37  1  0.33082052  -0.00354509  0.66064355  1
  Cr  Cr38  1  0.49778417  0.16137615  0.82999504  1
  Fe  Fe39  1  0.49604961  0.49463645  0.49326783  1
  Cr  Cr40  1  0.32903699  0.32757146  0.66153198  1
  Cr  Cr41  1  0.49628835  0.49624171  0.82760572  1
  Fe  Fe42  1  0.49622080  0.82544458  0.49528542  1
  Cr  Cr43  1  0.33080221  0.66008592  0.66297501  1
  Ni  Ni44  1  0.49860132  0.82597874  0.82859869  1
  Cr  Cr45  1  0.82790829  0.16394833  0.49393085  1
  Cr  Cr46  1  0.66073956  0.99148997  0.66128296  1
  Cr  Cr47  1  0.82683209  0.16191632  0.83133365  1
  Ni  Ni48  1  0.82491054  0.49359741  0.49331662  1
  Cr  Cr49  1  0.65969469  0.33018169  0.65742476  1
  Cr  Cr50  1  0.82631374  0.49347965  0.82887008  1
  Fe  Fe51  1  0.82675705  0.82460138  0.49555943  1
  Fe  Fe52  1  0.66179177  0.66252417  0.66021404  1
  Ni  Ni53  1  0.82322057  0.82615554  0.82767420  1
" 