7765,Ni10Fe35Cr53_9,-217.024558914316, 184.383986721445,Ni10Fe35Cr53,"# generated using pymatgen
 data_Cr30Fe19Ni5
_symmetry_space_group_name_H-M   'P 1'
_cell_length_a   7.52697981
_cell_length_b   7.52697981
_cell_length_c   10.64475693
_cell_angle_alpha   90.00000000
_cell_angle_beta   90.00000000
_cell_angle_gamma   90.00000000
_symmetry_Int_Tables_number   1
_chemical_formula_structural   Cr30Fe19Ni5
_chemical_formula_sum   'Cr30 Fe19 Ni5'
_cell_volume   603.08322876
_cell_formula_units_Z   1
loop_
 _symmetry_equiv_pos_site_id
 _symmetry_equiv_pos_as_xyz
  1  'x, y, z'
loop_
 _atom_site_type_symbol
 _atom_site_label
 _atom_site_symmetry_multiplicity
 _atom_site_fract_x
 _atom_site_fract_y
 _atom_site_fract_z
 _atom_site_occupancy
  Fe  Fe0  1  -0.00219288  -0.00202306  -0.00273084  1
  Ni  Ni1  1  0.16234961  0.16397701  0.16155755  1
  Fe  Fe2  1  0.99387001  -0.00255340  0.33086230  1
  Cr  Cr3  1  -0.00340057  0.32916433  -0.00309658  1
  Fe  Fe4  1  0.16431321  0.49415940  0.16256119  1
  Cr  Cr5  1  -0.00318491  0.32857175  0.32849705  1
  Fe  Fe6  1  0.99573818  0.66192053  -0.00206002  1
  Cr  Cr7  1  0.16218867  0.83048354  0.16275504  1
  Cr  Cr8  1  -0.00270656  0.66209538  0.32728557  1
  Fe  Fe9  1  0.32722518  -0.00141441  -0.00116711  1
  Cr  Cr10  1  0.49614705  0.16262807  0.16439786  1
  Cr  Cr11  1  0.32865736  -0.00384841  0.32738954  1
  Fe  Fe12  1  0.32946676  0.32874540  -0.00346825  1
  Cr  Cr13  1  0.49548620  0.49360866  0.16511801  1
  Fe  Fe14  1  0.32954151  0.32708241  0.32863030  1
  Cr  Cr15  1  0.33149107  0.66327542  -0.00281424  1
  Ni  Ni16  1  0.49606851  0.82905759  0.16308974  1
  Fe  Fe17  1  0.33076664  0.66303270  0.32762624  1
  Cr  Cr18  1  0.65972364  0.99510447  -0.00310008  1
  Cr  Cr19  1  0.82876525  0.16216317  0.16484434  1
  Ni  Ni20  1  0.66121071  -0.00234338  0.33193021  1
  Fe  Fe21  1  0.66135327  0.33113943  -0.00266845  1
  Fe  Fe22  1  0.82885243  0.49477055  0.16184336  1
  Ni  Ni23  1  0.66328874  0.32672033  0.32854802  1
  Fe  Fe24  1  0.66250566  0.66018143  -0.00236188  1
  Cr  Cr25  1  0.82925713  0.83181552  0.16156797  1
  Cr  Cr26  1  0.66362507  0.66362485  0.32621170  1
  Fe  Fe27  1  0.16383793  0.16270799  0.49363021  1
  Cr  Cr28  1  -0.00303682  -0.00133626  0.65892933  1
  Fe  Fe29  1  0.16285340  0.16278192  0.83247841  1
  Cr  Cr30  1  0.16475642  0.49642474  0.49469297  1
  Fe  Fe31  1  -0.00277275  0.32760021  0.66128236  1
  Cr  Cr32  1  0.16348595  0.49591137  0.82736885  1
  Fe  Fe33  1  0.16200114  0.83078716  0.49383268  1
  Cr  Cr34  1  0.99504606  0.66323840  0.66133828  1
  Cr  Cr35  1  0.16141586  0.83111535  0.83122473  1
  Fe  Fe36  1  0.49710760  0.16369286  0.49384537  1
  Cr  Cr37  1  0.32941230  -0.00197829  0.66445500  1
  Cr  Cr38  1  0.49621392  0.16362060  0.83172328  1
  Cr  Cr39  1  0.49529265  0.49387531  0.49351242  1
  Cr  Cr40  1  0.32869893  0.32694049  0.66401925  1
  Ni  Ni41  1  0.49542991  0.49375952  0.83143207  1
  Cr  Cr42  1  0.49583319  0.83107998  0.49480219  1
  Cr  Cr43  1  0.33048207  0.66362867  0.66134205  1
  Cr  Cr44  1  0.49568870  0.82965222  0.83082839  1
  Fe  Fe45  1  0.82661438  0.16121596  0.49355224  1
  Fe  Fe46  1  0.66287341  -0.00355008  0.66007214  1
  Cr  Cr47  1  0.83040413  0.16167031  0.82819141  1
  Cr  Cr48  1  0.82915863  0.49322191  0.49615363  1
  Cr  Cr49  1  0.66278049  0.32820501  0.66323237  1
  Cr  Cr50  1  0.82917136  0.49513317  0.83110896  1
  Fe  Fe51  1  0.82903886  0.83046478  0.49402573  1
  Cr  Cr52  1  0.66196333  0.66294912  0.66595532  1
  Cr  Cr53  1  0.83085942  0.83106572  0.83073920  1
" 