3769,Ni10Fe35Cr53_1,-216.699299259614, 179.152583353776,Ni10Fe35Cr53,"# generated using pymatgen
 data_Cr30Fe19Ni5
_symmetry_space_group_name_H-M   'P 1'
_cell_length_a   7.53075106
_cell_length_b   7.53075106
_cell_length_c   10.65009029
_cell_angle_alpha   90.00000000
_cell_angle_beta   90.00000000
_cell_angle_gamma   90.00000000
_symmetry_Int_Tables_number   1
_chemical_formula_structural   Cr30Fe19Ni5
_chemical_formula_sum   'Cr30 Fe19 Ni5'
_cell_volume   603.99017389
_cell_formula_units_Z   1
loop_
 _symmetry_equiv_pos_site_id
 _symmetry_equiv_pos_as_xyz
  1  'x, y, z'
loop_
 _atom_site_type_symbol
 _atom_site_label
 _atom_site_symmetry_multiplicity
 _atom_site_fract_x
 _atom_site_fract_y
 _atom_site_fract_z
 _atom_site_occupancy
  Ni  Ni0  1  0.99162305  -0.00422590  -0.00285462  1
  Fe  Fe1  1  0.15975326  0.16231047  0.16300658  1
  Fe  Fe2  1  -0.00288444  -0.00261978  0.32801672  1
  Cr  Cr3  1  0.99509771  0.32715708  0.99519648  1
  Cr  Cr4  1  0.16301042  0.49481188  0.16042210  1
  Ni  Ni5  1  -0.00322876  0.32711193  0.32968078  1
  Cr  Cr6  1  -0.00238300  0.66279246  0.99515117  1
  Cr  Cr7  1  0.16036574  0.83178760  0.16343238  1
  Fe  Fe8  1  0.99546993  0.66153225  0.32949403  1
  Cr  Cr9  1  0.32989523  0.99465098  -0.00357956  1
  Cr  Cr10  1  0.49562354  0.16218006  0.16304623  1
  Fe  Fe11  1  0.32632341  -0.00332321  0.32924010  1
  Cr  Cr12  1  0.32883435  0.33148880  0.99406007  1
  Ni  Ni13  1  0.49644775  0.49795040  0.16066041  1
  Cr  Cr14  1  0.32712283  0.32842403  0.32870455  1
  Fe  Fe15  1  0.33108756  0.66310567  -0.00296279  1
  Fe  Fe16  1  0.49740911  0.82725086  0.16054674  1
  Cr  Cr17  1  0.32849352  0.66477994  0.32704427  1
  Ni  Ni18  1  0.66468347  0.99477913  -0.00410435  1
  Fe  Fe19  1  0.83171953  0.16038764  0.16227127  1
  Cr  Cr20  1  0.66273362  0.99500932  0.32696584  1
  Cr  Cr21  1  0.66325167  0.32639336  -0.00349512  1
  Cr  Cr22  1  0.82900085  0.49606087  0.16589073  1
  Cr  Cr23  1  0.66522967  0.32971775  0.32883760  1
  Fe  Fe24  1  0.66186119  0.66424262  -0.00178381  1
  Fe  Fe25  1  0.82775352  0.83084319  0.16061809  1
  Cr  Cr26  1  0.66299644  0.66236160  0.32904001  1
  Fe  Fe27  1  0.16060552  0.16158685  0.49524251  1
  Fe  Fe28  1  -0.00377426  -0.00362001  0.66256389  1
  Cr  Cr29  1  0.16160186  0.16294964  0.82825981  1
  Cr  Cr30  1  0.15931498  0.49472433  0.49699746  1
  Fe  Fe31  1  -0.00277183  0.32862472  0.66190570  1
  Fe  Fe32  1  0.16262637  0.49535221  0.82784642  1
  Fe  Fe33  1  0.16100668  0.83072585  0.49491027  1
  Fe  Fe34  1  0.99494890  0.66222540  0.66211611  1
  Cr  Cr35  1  0.15992996  0.82892325  0.82901271  1
  Cr  Cr36  1  0.49295730  0.16280240  0.49616198  1
  Cr  Cr37  1  0.32811737  -0.00396933  0.65968028  1
  Ni  Ni38  1  0.49631137  0.16294589  0.82859491  1
  Cr  Cr39  1  0.49704434  0.49476522  0.49641441  1
  Fe  Fe40  1  0.32822385  0.32816488  0.66363125  1
  Cr  Cr41  1  0.49490995  0.49499312  0.83024764  1
  Cr  Cr42  1  0.49557901  0.82991413  0.49533652  1
  Cr  Cr43  1  0.32648019  0.66269120  0.66397747  1
  Cr  Cr44  1  0.49779168  0.82985557  0.83211038  1
  Cr  Cr45  1  0.83187867  0.16298424  0.49540665  1
  Cr  Cr46  1  0.66282441  -0.00304529  0.66553440  1
  Fe  Fe47  1  0.82810514  0.16054651  0.83021988  1
  Fe  Fe48  1  0.83107473  0.49557455  0.49583507  1
  Cr  Cr49  1  0.66395096  0.32823051  0.66219821  1
  Cr  Cr50  1  0.83034061  0.49673535  0.82572059  1
  Cr  Cr51  1  0.83226542  0.82699728  0.49705802  1
  Fe  Fe52  1  0.66332042  0.66239099  0.66186395  1
  Cr  Cr53  1  0.82964921  0.83057359  0.83021162  1
" 