28,Ni10Fe61Cr28_9,-223.596874789533, 169.996023597429,Ni10Fe61Cr28,"# generated using pymatgen
 data_Cr16Fe33Ni5
_symmetry_space_group_name_H-M   'P 1'
_cell_length_a   7.48946484
_cell_length_b   7.48946484
_cell_length_c   10.59170276
_cell_angle_alpha   90.00000000
_cell_angle_beta   90.00000000
_cell_angle_gamma   90.00000000
_symmetry_Int_Tables_number   1
_chemical_formula_structural   Cr16Fe33Ni5
_chemical_formula_sum   'Cr16 Fe33 Ni5'
_cell_volume   594.11067670
_cell_formula_units_Z   1
loop_
 _symmetry_equiv_pos_site_id
 _symmetry_equiv_pos_as_xyz
  1  'x, y, z'
loop_
 _atom_site_type_symbol
 _atom_site_label
 _atom_site_symmetry_multiplicity
 _atom_site_fract_x
 _atom_site_fract_y
 _atom_site_fract_z
 _atom_site_occupancy
  Cr  Cr0  1  0.99583921  0.99588533  0.00013466  1
  Cr  Cr1  1  0.16564440  0.16613651  0.16494869  1
  Cr  Cr2  1  -0.00044380  0.99601439  0.33045192  1
  Fe  Fe3  1  0.99670218  0.33227056  0.99793769  1
  Cr  Cr4  1  0.16383820  0.49928202  0.16379110  1
  Fe  Fe5  1  0.99579664  0.33290348  0.33286181  1
  Fe  Fe6  1  0.99699767  0.66371172  0.99690573  1
  Fe  Fe7  1  0.16455729  0.83130908  0.16447934  1
  Fe  Fe8  1  0.99591697  0.66366449  0.33215731  1
  Fe  Fe9  1  0.33262908  0.99804341  0.99661067  1
  Fe  Fe10  1  0.49901121  0.16480424  0.16485275  1
  Fe  Fe11  1  0.33396553  0.99720730  0.33374412  1
  Cr  Cr12  1  0.33344174  0.33289576  0.99572931  1
  Fe  Fe13  1  0.50069331  0.49867171  0.16582224  1
  Cr  Cr14  1  0.33577848  0.33219373  0.33428825  1
  Fe  Fe15  1  0.33003807  0.66813925  0.99720706  1
  Cr  Cr16  1  0.49813397  0.83136066  0.16359022  1
  Cr  Cr17  1  0.33117125  0.66544418  0.33348160  1
  Fe  Fe18  1  0.66454190  -0.00113943  -0.00128430  1
  Ni  Ni19  1  0.83183813  0.16717854  0.16630792  1
  Cr  Cr20  1  0.66784674  -0.00049949  0.33054828  1
  Cr  Cr21  1  0.66517405  0.33129052  0.00173432  1
  Fe  Fe22  1  0.83089085  0.49951934  0.16668331  1
  Fe  Fe23  1  0.66779115  0.33334554  0.33181551  1
  Fe  Fe24  1  0.66795389  0.66686458  -0.00075500  1
  Fe  Fe25  1  0.83189495  0.82893509  0.16539914  1
  Ni  Ni26  1  0.66490411  0.66350727  0.33203932  1
  Fe  Fe27  1  0.16446495  0.16275459  0.49931373  1
  Ni  Ni28  1  0.99845915  0.99705033  0.66515375  1
  Fe  Fe29  1  0.16577009  0.16311770  0.83098538  1
  Fe  Fe30  1  0.16210623  0.49921428  0.49839149  1
  Fe  Fe31  1  -0.00054405  0.33189884  0.66374979  1
  Fe  Fe32  1  0.16188988  0.49836416  0.83247703  1
  Fe  Fe33  1  0.16518457  0.83341651  0.49996255  1
  Fe  Fe34  1  0.99803848  0.66442838  0.66637631  1
  Fe  Fe35  1  0.16517123  0.83336529  0.83118386  1
  Fe  Fe36  1  0.49899277  0.16140395  0.49939733  1
  Fe  Fe37  1  0.33156930  -0.00128881  0.66527583  1
  Ni  Ni38  1  0.49842928  0.16195363  0.83195760  1
  Fe  Fe39  1  0.50207103  0.50154250  0.49793025  1
  Cr  Cr40  1  0.33256313  0.33258720  0.66559919  1
  Cr  Cr41  1  0.49982025  0.50202604  0.83312547  1
  Ni  Ni42  1  0.49821573  0.83202521  0.50034579  1
  Cr  Cr43  1  0.33175877  0.66507739  0.66448048  1
  Fe  Fe44  1  0.49973745  0.83447583  0.83168850  1
  Fe  Fe45  1  0.83327511  0.16482784  0.49911070  1
  Fe  Fe46  1  0.66310156  0.99765272  0.66532603  1
  Cr  Cr47  1  0.83245701  0.16513571  0.82949576  1
  Fe  Fe48  1  0.83156331  0.49897903  0.49743160  1
  Cr  Cr49  1  0.66398739  0.33263534  0.66246263  1
  Fe  Fe50  1  0.83231307  0.49948150  0.83161402  1
  Cr  Cr51  1  0.82980768  0.83066390  0.50018678  1
  Fe  Fe52  1  0.66617867  0.66665732  0.66473713  1
  Fe  Fe53  1  0.83025522  0.83079828  0.82994250  1
" 