1327,Ni10Fe61Cr28_0,-223.230516281096, 165.090868269044,Ni10Fe61Cr28,"# generated using pymatgen
 data_Cr16Fe33Ni5
_symmetry_space_group_name_H-M   'P 1'
_cell_length_a   7.48010360
_cell_length_b   7.48010360
_cell_length_c   10.57846395
_cell_angle_alpha   90.00000000
_cell_angle_beta   90.00000000
_cell_angle_gamma   90.00000000
_symmetry_Int_Tables_number   1
_chemical_formula_structural   Cr16Fe33Ni5
_chemical_formula_sum   'Cr16 Fe33 Ni5'
_cell_volume   591.88568403
_cell_formula_units_Z   1
loop_
 _symmetry_equiv_pos_site_id
 _symmetry_equiv_pos_as_xyz
  1  'x, y, z'
loop_
 _atom_site_type_symbol
 _atom_site_label
 _atom_site_symmetry_multiplicity
 _atom_site_fract_x
 _atom_site_fract_y
 _atom_site_fract_z
 _atom_site_occupancy
  Fe  Fe0  1  0.99717513  -0.00043680  0.00133732  1
  Fe  Fe1  1  0.16614761  0.16422412  0.16402018  1
  Cr  Cr2  1  0.99750220  0.99896267  0.33211495  1
  Fe  Fe3  1  0.99611937  0.32998110  -0.00024603  1
  Cr  Cr4  1  0.16506568  0.49464291  0.16718484  1
  Fe  Fe5  1  0.99618851  0.33366795  0.33268163  1
  Cr  Cr6  1  0.99910341  0.66147946  0.00015131  1
  Fe  Fe7  1  0.16647726  0.83336656  0.16422028  1
  Fe  Fe8  1  0.99779418  0.66536438  0.33276779  1
  Fe  Fe9  1  0.33511864  0.00063335  0.00014007  1
  Fe  Fe10  1  0.50000399  0.16717557  0.16385713  1
  Cr  Cr11  1  0.33446320  0.99812255  0.33022721  1
  Fe  Fe12  1  0.33464882  0.33057881  -0.00003367  1
  Fe  Fe13  1  0.50048114  0.49772907  0.16420766  1
  Fe  Fe14  1  0.33568784  0.33171650  0.33214145  1
  Cr  Cr15  1  0.33243695  0.66504469  0.99827374  1
  Ni  Ni16  1  0.50210333  0.83340168  0.16163012  1
  Cr  Cr17  1  0.33171435  0.66474606  0.33243902  1
  Ni  Ni18  1  0.66540293  0.00269057  0.99877814  1
  Fe  Fe19  1  0.83127634  0.16695892  0.16414960  1
  Cr  Cr20  1  0.66585559  0.00167865  0.33395287  1
  Fe  Fe21  1  0.66648916  0.33249188  -0.00065716  1
  Fe  Fe22  1  0.82975071  0.49688003  0.16555312  1
  Fe  Fe23  1  0.66532817  0.33273837  0.33247948  1
  Fe  Fe24  1  0.66635565  0.66663829  0.00096056  1
  Fe  Fe25  1  0.83114350  0.83381749  0.16339308  1
  Cr  Cr26  1  0.66564479  0.66481727  0.33038558  1
  Cr  Cr27  1  0.16684416  0.16751003  0.49824581  1
  Fe  Fe28  1  -0.00069328  -0.00049059  0.66432507  1
  Cr  Cr29  1  0.16497795  0.16753141  0.83493880  1
  Fe  Fe30  1  0.16603399  0.49916688  0.49985546  1
  Fe  Fe31  1  0.99829183  0.33382455  0.66604354  1
  Fe  Fe32  1  0.16539770  0.49767914  0.83095021  1
  Fe  Fe33  1  0.16507141  0.83092561  0.50126193  1
  Fe  Fe34  1  0.99879098  0.66391962  0.66475368  1
  Cr  Cr35  1  0.16440683  0.83362477  0.83172119  1
  Ni  Ni36  1  0.49961559  0.17046626  0.49808178  1
  Cr  Cr37  1  0.33524656  -0.00053424  0.66698020  1
  Ni  Ni38  1  0.49975809  0.16834412  0.83435280  1
  Fe  Fe39  1  0.49861417  0.49689426  0.50082385  1
  Fe  Fe40  1  0.33455752  0.33230330  0.66592618  1
  Cr  Cr41  1  0.50117541  0.50007825  0.83249296  1
  Cr  Cr42  1  0.50050458  0.83105205  0.50235285  1
  Ni  Ni43  1  0.33014344  0.66137622  0.66629952  1
  Fe  Fe44  1  0.49954346  0.83488840  0.83338059  1
  Fe  Fe45  1  0.83188268  0.16966399  0.49969687  1
  Cr  Cr46  1  0.66697068  0.00467461  0.66506322  1
  Fe  Fe47  1  0.83044523  0.16747492  0.83395224  1
  Fe  Fe48  1  0.83181448  0.49740633  0.49966214  1
  Fe  Fe49  1  0.66451716  0.33388592  0.66530748  1
  Fe  Fe50  1  0.83334233  0.49551473  0.83171592  1
  Fe  Fe51  1  0.83441385  0.83133822  0.50081786  1
  Fe  Fe52  1  0.66575040  0.66400222  0.66518508  1
  Cr  Cr53  1  0.82997780  0.83124036  0.83257591  1
" 