7203,Ni10Fe70Cr18_1,-225.047333817196, 168.708211433266,Ni10Fe70Cr18,"# generated using pymatgen
 data_Cr11Fe38Ni5
_symmetry_space_group_name_H-M   'P 1'
_cell_length_a   7.45898506
_cell_length_b   7.45898506
_cell_length_c   10.54859784
_cell_angle_alpha   90.00000000
_cell_angle_beta   90.00000000
_cell_angle_gamma   90.00000000
_symmetry_Int_Tables_number   1
_chemical_formula_structural   Cr11Fe38Ni5
_chemical_formula_sum   'Cr11 Fe38 Ni5'
_cell_volume   586.88662237
_cell_formula_units_Z   1
loop_
 _symmetry_equiv_pos_site_id
 _symmetry_equiv_pos_as_xyz
  1  'x, y, z'
loop_
 _atom_site_type_symbol
 _atom_site_label
 _atom_site_symmetry_multiplicity
 _atom_site_fract_x
 _atom_site_fract_y
 _atom_site_fract_z
 _atom_site_occupancy
  Cr  Cr0  1  0.00147902  0.00349002  0.00123517  1
  Fe  Fe1  1  0.16805471  0.16795143  0.16823421  1
  Ni  Ni2  1  0.00118458  0.00275305  0.33573937  1
  Fe  Fe3  1  0.00136464  0.33615036  1.00025678  1
  Ni  Ni4  1  0.16683369  0.49892748  0.16731410  1
  Fe  Fe5  1  0.00083722  0.33219455  0.33371762  1
  Fe  Fe6  1  0.00054918  0.66309534  0.00078468  1
  Fe  Fe7  1  0.16943173  0.83479758  0.16808265  1
  Cr  Cr8  1  0.00281663  0.66789093  0.33421698  1
  Fe  Fe9  1  0.33574077  0.00216989  0.00215636  1
  Ni  Ni10  1  0.50034420  0.16681772  0.16818402  1
  Fe  Fe11  1  0.33271063  0.00128922  0.33287934  1
  Fe  Fe12  1  0.33266357  0.33335167  0.00147772  1
  Fe  Fe13  1  0.50078819  0.49940634  0.16794704  1
  Fe  Fe14  1  0.33314878  0.33355673  0.33325600  1
  Cr  Cr15  1  0.33464662  0.66734818  0.00210202  1
  Fe  Fe16  1  0.49932120  0.83464390  0.16796240  1
  Fe  Fe17  1  0.33365393  0.66677511  0.33285087  1
  Fe  Fe18  1  0.66458705  0.00135521  0.00146097  1
  Fe  Fe19  1  0.83339910  0.16941724  0.16820005  1
  Fe  Fe20  1  0.66775486  0.00203994  0.33353293  1
  Fe  Fe21  1  0.66759014  0.33409451  0.00133247  1
  Fe  Fe22  1  0.83324808  0.49802825  0.16648283  1
  Fe  Fe23  1  0.66763486  0.33312887  0.33380387  1
  Fe  Fe24  1  0.66738113  0.66616633  1.00048415  1
  Cr  Cr25  1  0.83280181  0.83338189  0.16773784  1
  Fe  Fe26  1  0.66639057  0.66645228  0.33394886  1
  Fe  Fe27  1  0.16775434  0.16590142  0.49960143  1
  Fe  Fe28  1  1.00048195  0.99988057  0.66542408  1
  Fe  Fe29  1  0.16705889  0.16900292  0.83379124  1
  Fe  Fe30  1  0.16778560  0.50039857  0.50029222  1
  Cr  Cr31  1  0.00083750  0.33347680  0.66826198  1
  Ni  Ni32  1  0.16573266  0.49817220  0.83379585  1
  Fe  Fe33  1  0.16514432  0.83532288  0.50074797  1
  Ni  Ni34  1  1.00036223  0.66799573  0.66663770  1
  Cr  Cr35  1  0.16610418  0.83299011  0.83251264  1
  Fe  Fe36  1  0.49984789  0.16794740  0.49961141  1
  Fe  Fe37  1  0.33274949  0.00236839  0.66658344  1
  Cr  Cr38  1  0.49894554  0.16638200  0.83326646  1
  Fe  Fe39  1  0.50064635  0.49918900  0.49921908  1
  Fe  Fe40  1  0.33231834  0.33409712  0.66688649  1
  Fe  Fe41  1  0.50060387  0.50159919  0.83445673  1
  Cr  Cr42  1  0.50260825  0.83519763  0.50054680  1
  Cr  Cr43  1  0.33349165  0.66598235  0.66743153  1
  Fe  Fe44  1  0.50137805  0.83334489  0.83369973  1
  Fe  Fe45  1  0.83401733  0.16529805  0.49887200  1
  Fe  Fe46  1  0.66838763  0.99930870  0.66662461  1
  Fe  Fe47  1  0.83527684  0.16822595  0.83455473  1
  Fe  Fe48  1  0.83318877  0.50180336  0.50027237  1
  Cr  Cr49  1  0.66661722  0.33409285  0.66651748  1
  Fe  Fe50  1  0.83483033  0.50091737  0.83486803  1
  Fe  Fe51  1  0.83523591  0.83452306  0.50127872  1
  Fe  Fe52  1  0.66938038  0.66707606  0.66718357  1
  Cr  Cr53  1  0.83204239  0.83201615  0.83086523  1
" 