1540,Ni10Fe61Cr28_14,-222.983319553509, 171.344985897383,Ni10Fe61Cr28,"# generated using pymatgen
 data_Cr16Fe33Ni5
_symmetry_space_group_name_H-M   'P 1'
_cell_length_a   7.48346250
_cell_length_b   7.48346250
_cell_length_c   10.58321417
_cell_angle_alpha   90.00000000
_cell_angle_beta   90.00000000
_cell_angle_gamma   90.00000000
_symmetry_Int_Tables_number   1
_chemical_formula_structural   Cr16Fe33Ni5
_chemical_formula_sum   'Cr16 Fe33 Ni5'
_cell_volume   592.68339341
_cell_formula_units_Z   1
loop_
 _symmetry_equiv_pos_site_id
 _symmetry_equiv_pos_as_xyz
  1  'x, y, z'
loop_
 _atom_site_type_symbol
 _atom_site_label
 _atom_site_symmetry_multiplicity
 _atom_site_fract_x
 _atom_site_fract_y
 _atom_site_fract_z
 _atom_site_occupancy
  Fe  Fe0  1  -0.00089045  0.99870365  -0.00034586  1
  Fe  Fe1  1  0.16679372  0.16410075  0.16611083  1
  Fe  Fe2  1  0.00063666  0.00060324  0.33190793  1
  Fe  Fe3  1  0.00054663  0.33108217  0.99820581  1
  Cr  Cr4  1  0.16684781  0.49656024  0.16498183  1
  Fe  Fe5  1  0.00021829  0.33089544  0.33444812  1
  Cr  Cr6  1  0.99654865  0.66884380  0.99828676  1
  Fe  Fe7  1  0.16453854  0.83565421  0.16601781  1
  Cr  Cr8  1  -0.00016115  0.66798702  0.33315159  1
  Fe  Fe9  1  0.33241467  0.00188422  -0.00085637  1
  Fe  Fe10  1  0.49802664  0.16768461  0.16535192  1
  Fe  Fe11  1  0.33094044  0.00107699  0.33262694  1
  Fe  Fe12  1  0.33372548  0.33061274  0.99751775  1
  Fe  Fe13  1  0.50068804  0.49681165  0.16623988  1
  Fe  Fe14  1  0.33272844  0.33178144  0.33395126  1
  Cr  Cr15  1  0.33334383  0.66254160  0.99879694  1
  Cr  Cr16  1  0.49897551  0.83187307  0.16622166  1
  Fe  Fe17  1  0.33310571  0.66384847  0.33333280  1
  Fe  Fe18  1  0.66519149  0.99804181  0.99842211  1
  Cr  Cr19  1  0.83309897  0.16605502  0.16578740  1
  Fe  Fe20  1  0.66512882  0.00022618  0.33155568  1
  Fe  Fe21  1  0.66244106  0.33304024  -0.00090833  1
  Cr  Cr22  1  0.83035859  0.49687018  0.16653351  1
  Ni  Ni23  1  0.66180171  0.33207343  0.33359496  1
  Ni  Ni24  1  0.66633197  0.66576046  -0.00091369  1
  Fe  Fe25  1  0.83202297  0.83299433  0.16526849  1
  Fe  Fe26  1  0.66423066  0.66343714  0.33153665  1
  Ni  Ni27  1  0.16547484  0.16706750  0.49804305  1
  Fe  Fe28  1  0.00097726  -0.00074618  0.66514633  1
  Fe  Fe29  1  0.16705938  0.16622053  0.83235620  1
  Ni  Ni30  1  0.16459222  0.49697037  0.49881464  1
  Fe  Fe31  1  0.00067697  0.33316667  0.66404891  1
  Fe  Fe32  1  0.16617235  0.49556020  0.83180889  1
  Fe  Fe33  1  0.16541304  0.83377619  0.49910208  1
  Fe  Fe34  1  0.99882362  0.66429461  0.66448433  1
  Cr  Cr35  1  0.16656228  0.83315550  0.83023714  1
  Fe  Fe36  1  0.49740822  0.16704961  0.49846290  1
  Fe  Fe37  1  0.33162637  0.00178693  0.66493520  1
  Ni  Ni38  1  0.49850235  0.16504153  0.83319380  1
  Fe  Fe39  1  0.49959707  0.49661582  0.49707028  1
  Cr  Cr40  1  0.33343316  0.33022350  0.66655605  1
  Fe  Fe41  1  0.50005959  0.49648911  0.83340360  1
  Cr  Cr42  1  0.49721099  0.83284748  0.49905157  1
  Cr  Cr43  1  0.33020460  0.66387483  0.66464836  1
  Cr  Cr44  1  0.50045990  0.83389559  0.83143635  1
  Cr  Cr45  1  0.83309570  0.16895962  0.49892021  1
  Fe  Fe46  1  0.66410718  -0.00004086  0.66673592  1
  Cr  Cr47  1  0.83220978  0.16616507  0.83200383  1
  Fe  Fe48  1  0.83243265  0.49734280  0.49916375  1
  Fe  Fe49  1  0.66426587  0.33261158  0.66474143  1
  Cr  Cr50  1  0.83296391  0.49814908  0.83074504  1
  Cr  Cr51  1  0.83053129  0.83198634  0.50078559  1
  Fe  Fe52  1  0.66680055  0.66414563  0.66627459  1
  Fe  Fe53  1  0.83048094  0.83312264  0.83178140  1
" 