3453,Ni10Fe30Cr59_11,-214.710052279657, 183.157216012555,Ni10Fe30Cr59,"# generated using pymatgen
 data_Cr33Fe16Ni5
_symmetry_space_group_name_H-M   'P 1'
_cell_length_a   7.54048719
_cell_length_b   7.54048719
_cell_length_c   10.66385925
_cell_angle_alpha   90.00000000
_cell_angle_beta   90.00000000
_cell_angle_gamma   90.00000000
_symmetry_Int_Tables_number   1
_chemical_formula_structural   Cr33Fe16Ni5
_chemical_formula_sum   'Cr33 Fe16 Ni5'
_cell_volume   606.33580832
_cell_formula_units_Z   1
loop_
 _symmetry_equiv_pos_site_id
 _symmetry_equiv_pos_as_xyz
  1  'x, y, z'
loop_
 _atom_site_type_symbol
 _atom_site_label
 _atom_site_symmetry_multiplicity
 _atom_site_fract_x
 _atom_site_fract_y
 _atom_site_fract_z
 _atom_site_occupancy
  Cr  Cr0  1  0.99431592  -0.00388410  0.99239335  1
  Ni  Ni1  1  0.16286963  0.15815751  0.16159874  1
  Cr  Cr2  1  0.99498482  -0.00404820  0.33050749  1
  Fe  Fe3  1  0.99481830  0.32619787  0.99491950  1
  Cr  Cr4  1  0.15656793  0.49213534  0.16018475  1
  Fe  Fe5  1  -0.00419207  0.32669585  0.32855888  1
  Cr  Cr6  1  -0.00432836  0.66607243  0.99509681  1
  Fe  Fe7  1  0.16186728  0.83235579  0.16234312  1
  Fe  Fe8  1  -0.00362229  0.66249721  0.32708257  1
  Fe  Fe9  1  0.33037333  -0.00269822  -0.00431859  1
  Ni  Ni10  1  0.49303450  0.15531519  0.16056680  1
  Fe  Fe11  1  0.32898486  -0.00364650  0.32584893  1
  Cr  Cr12  1  0.32807803  0.32686432  -0.00401948  1
  Cr  Cr13  1  0.49740261  0.49372292  0.16146802  1
  Cr  Cr14  1  0.32869941  0.32766142  0.32731502  1
  Cr  Cr15  1  0.32778347  0.66011818  0.99496081  1
  Cr  Cr16  1  0.49486472  0.83414413  0.16000771  1
  Cr  Cr17  1  0.32839900  0.66041806  0.32831757  1
  Ni  Ni18  1  0.66373035  -0.00140691  0.99484338  1
  Cr  Cr19  1  0.82816625  0.16505441  0.16181356  1
  Fe  Fe20  1  0.66148293  -0.00251976  0.32708550  1
  Cr  Cr21  1  0.65820805  0.32616352  0.99366646  1
  Cr  Cr22  1  0.83099316  0.49498438  0.16286940  1
  Cr  Cr23  1  0.65899573  0.32744840  0.33130803  1
  Cr  Cr24  1  0.66277953  0.66536124  -0.00267875  1
  Fe  Fe25  1  0.82905730  0.83356077  0.16219907  1
  Cr  Cr26  1  0.66150413  0.66301773  0.32622808  1
  Cr  Cr27  1  0.16126074  0.16220056  0.49274466  1
  Cr  Cr28  1  0.99213243  0.99481294  0.66224912  1
  Cr  Cr29  1  0.16373471  0.16261587  0.83075096  1
  Cr  Cr30  1  0.15990883  0.49539074  0.49911312  1
  Cr  Cr31  1  0.99489977  0.32369203  0.66330226  1
  Fe  Fe32  1  0.16344601  0.49390753  0.82693472  1
  Cr  Cr33  1  0.16333570  0.82746890  0.49598287  1
  Fe  Fe34  1  0.99388727  0.66109671  0.66352762  1
  Cr  Cr35  1  0.16314198  0.82687233  0.82545027  1
  Cr  Cr36  1  0.49612737  0.15941765  0.49544708  1
  Cr  Cr37  1  0.32704551  -0.00218654  0.66178128  1
  Ni  Ni38  1  0.49716119  0.16054898  0.82959743  1
  Fe  Fe39  1  0.49436488  0.49364439  0.49768568  1
  Fe  Fe40  1  0.33139593  0.32782651  0.66276047  1
  Cr  Cr41  1  0.49601815  0.49430515  0.82512062  1
  Cr  Cr42  1  0.49387717  0.82997629  0.49427608  1
  Fe  Fe43  1  0.32782251  0.66005218  0.66204567  1
  Cr  Cr44  1  0.49525987  0.83326141  0.83076566  1
  Ni  Ni45  1  0.82688642  0.16392985  0.49535444  1
  Cr  Cr46  1  0.66553032  -0.00282287  0.66296968  1
  Fe  Fe47  1  0.82499706  0.16101024  0.82940736  1
  Cr  Cr48  1  0.83006104  0.49274991  0.49226369  1
  Fe  Fe49  1  0.66192456  0.32584562  0.66187735  1
  Cr  Cr50  1  0.83201178  0.49340420  0.83112060  1
  Cr  Cr51  1  0.82787829  0.82796738  0.49396337  1
  Cr  Cr52  1  0.66085462  0.66017596  0.66117467  1
  Fe  Fe53  1  0.82625441  0.83013014  0.82920361  1
" 