1776,Ni10Fe30Cr59_4,-214.976728019222, 189.155544811447,Ni10Fe30Cr59,"# generated using pymatgen
 data_Cr33Fe16Ni5
_symmetry_space_group_name_H-M   'P 1'
_cell_length_a   7.54057063
_cell_length_b   7.54057063
_cell_length_c   10.66397725
_cell_angle_alpha   90.00000000
_cell_angle_beta   90.00000000
_cell_angle_gamma   90.00000000
_symmetry_Int_Tables_number   1
_chemical_formula_structural   Cr33Fe16Ni5
_chemical_formula_sum   'Cr33 Fe16 Ni5'
_cell_volume   606.35593629
_cell_formula_units_Z   1
loop_
 _symmetry_equiv_pos_site_id
 _symmetry_equiv_pos_as_xyz
  1  'x, y, z'
loop_
 _atom_site_type_symbol
 _atom_site_label
 _atom_site_symmetry_multiplicity
 _atom_site_fract_x
 _atom_site_fract_y
 _atom_site_fract_z
 _atom_site_occupancy
  Cr  Cr0  1  -0.00471661  -0.00387404  -0.00381241  1
  Fe  Fe1  1  0.16316220  0.16226378  0.16202730  1
  Cr  Cr2  1  -0.00399648  -0.00117415  0.32433836  1
  Cr  Cr3  1  0.99497996  0.32597175  -0.00281010  1
  Fe  Fe4  1  0.16304025  0.49264042  0.16115946  1
  Cr  Cr5  1  -0.00484176  0.32554556  0.32779942  1
  Fe  Fe6  1  -0.00394136  0.66471295  -0.00361868  1
  Fe  Fe7  1  0.16150606  0.82989110  0.16232495  1
  Cr  Cr8  1  -0.00308279  0.66117087  0.32351545  1
  Cr  Cr9  1  0.32361449  0.99293794  0.99392828  1
  Cr  Cr10  1  0.49266011  0.16077295  0.15933471  1
  Ni  Ni11  1  0.32682122  0.99484526  0.32739993  1
  Fe  Fe12  1  0.32485239  0.32696422  0.99511632  1
  Cr  Cr13  1  0.49559262  0.49224538  0.16050176  1
  Fe  Fe14  1  0.32847788  0.32758911  0.32734252  1
  Cr  Cr15  1  0.32560858  0.66052172  0.99504453  1
  Cr  Cr16  1  0.49583147  0.83137293  0.16515431  1
  Cr  Cr17  1  0.33085453  0.66107438  0.33015016  1
  Cr  Cr18  1  0.66663934  -0.00275599  0.99309441  1
  Ni  Ni19  1  0.82979612  0.16212957  0.16092626  1
  Cr  Cr20  1  0.66349315  -0.00436532  0.33003965  1
  Fe  Fe21  1  0.66399243  0.32663337  -0.00377198  1
  Cr  Cr22  1  0.82988642  0.49829913  0.16037454  1
  Cr  Cr23  1  0.66410686  0.32978962  0.32917148  1
  Cr  Cr24  1  0.66048708  0.66200182  -0.00453952  1
  Fe  Fe25  1  0.82740945  0.82987200  0.16237870  1
  Ni  Ni26  1  0.65891111  0.66064963  0.33043760  1
  Cr  Cr27  1  0.16370888  0.16249175  0.49454873  1
  Cr  Cr28  1  0.99434097  -0.00000918  0.66484671  1
  Ni  Ni29  1  0.16008122  0.16267729  0.82851050  1
  Cr  Cr30  1  0.15911134  0.49243383  0.49784561  1
  Fe  Fe31  1  -0.00389837  0.32674053  0.66325295  1
  Cr  Cr32  1  0.15841924  0.49405593  0.82676334  1
  Cr  Cr33  1  0.16170412  0.83011007  0.49520716  1
  Fe  Fe34  1  0.99432665  0.66426208  0.66282051  1
  Fe  Fe35  1  0.15872411  0.82846848  0.82828598  1
  Cr  Cr36  1  0.49160991  0.15909888  0.49351866  1
  Cr  Cr37  1  0.32703667  0.99234589  0.66389335  1
  Cr  Cr38  1  0.49231699  0.16244474  0.83279170  1
  Fe  Fe39  1  0.49451755  0.49568545  0.49368268  1
  Fe  Fe40  1  0.32807087  0.32634796  0.66310063  1
  Cr  Cr41  1  0.49568818  0.49103890  0.83124837  1
  Ni  Ni42  1  0.49559291  0.82941532  0.49197754  1
  Cr  Cr43  1  0.32954925  0.66034430  0.66061493  1
  Cr  Cr44  1  0.49683171  0.83071834  0.82816076  1
  Fe  Fe45  1  0.82954510  0.16108045  0.49503922  1
  Cr  Cr46  1  0.66410379  -0.00350213  0.66195514  1
  Fe  Fe47  1  0.83054736  0.16424518  0.82965486  1
  Cr  Cr48  1  0.83112255  0.49657796  0.49591710  1
  Cr  Cr49  1  0.66444943  0.32754416  0.66135610  1
  Cr  Cr50  1  0.83080708  0.49857355  0.82900878  1
  Cr  Cr51  1  0.82821812  0.82596601  0.49311510  1
  Cr  Cr52  1  0.65701855  0.66136929  0.65859831  1
  Fe  Fe53  1  0.83205228  0.82849023  0.82801907  1
" 