726,Ni10Fe35Cr53_3,-216.504235505323, 180.455339408946,Ni10Fe35Cr53,"# generated using pymatgen
 data_Cr30Fe19Ni5
_symmetry_space_group_name_H-M   'P 1'
_cell_length_a   7.53353032
_cell_length_b   7.53353032
_cell_length_c   10.65402075
_cell_angle_alpha   90.00000000
_cell_angle_beta   90.00000000
_cell_angle_gamma   90.00000000
_symmetry_Int_Tables_number   1
_chemical_formula_structural   Cr30Fe19Ni5
_chemical_formula_sum   'Cr30 Fe19 Ni5'
_cell_volume   604.65913542
_cell_formula_units_Z   1
loop_
 _symmetry_equiv_pos_site_id
 _symmetry_equiv_pos_as_xyz
  1  'x, y, z'
loop_
 _atom_site_type_symbol
 _atom_site_label
 _atom_site_symmetry_multiplicity
 _atom_site_fract_x
 _atom_site_fract_y
 _atom_site_fract_z
 _atom_site_occupancy
  Cr  Cr0  1  0.99250237  -0.00265604  -0.00211729  1
  Fe  Fe1  1  0.16355906  0.16309063  0.16109217  1
  Fe  Fe2  1  -0.00238935  -0.00426948  0.33008791  1
  Fe  Fe3  1  -0.00357024  0.32586906  -0.00404452  1
  Cr  Cr4  1  0.16014468  0.49474861  0.15884554  1
  Cr  Cr5  1  -0.00381459  0.32342324  0.32997237  1
  Fe  Fe6  1  0.99497759  0.66303446  -0.00385277  1
  Cr  Cr7  1  0.16268533  0.83118133  0.16258355  1
  Cr  Cr8  1  0.99376035  0.66430215  0.32869201  1
  Cr  Cr9  1  0.33006069  0.00098923  0.99281547  1
  Fe  Fe10  1  0.49602876  0.16333250  0.16068641  1
  Fe  Fe11  1  0.32581253  -0.00325316  0.33027521  1
  Ni  Ni12  1  0.32882860  0.32700739  0.99433643  1
  Cr  Cr13  1  0.49711570  0.49214007  0.16435011  1
  Cr  Cr14  1  0.32779348  0.32702016  0.32769173  1
  Cr  Cr15  1  0.33116797  0.65743912  0.99503483  1
  Cr  Cr16  1  0.49382676  0.83430329  0.16275215  1
  Cr  Cr17  1  0.32854635  0.66069651  0.32968995  1
  Ni  Ni18  1  0.66395110  -0.00003897  -0.00293885  1
  Fe  Fe19  1  0.82785222  0.16183108  0.16103807  1
  Cr  Cr20  1  0.66827971  -0.00367852  0.32628547  1
  Fe  Fe21  1  0.65797201  0.32639552  0.99485959  1
  Cr  Cr22  1  0.82959853  0.49102047  0.15957264  1
  Fe  Fe23  1  0.66450200  0.32697611  0.32845814  1
  Cr  Cr24  1  0.66226534  0.66449093  0.99503815  1
  Fe  Fe25  1  0.82876739  0.82947987  0.16071627  1
  Cr  Cr26  1  0.66369914  0.66367023  0.33002576  1
  Fe  Fe27  1  0.16364705  0.16039993  0.49582545  1
  Cr  Cr28  1  -0.00415029  -0.00217642  0.65904023  1
  Fe  Fe29  1  0.16292524  0.16322227  0.82888838  1
  Cr  Cr30  1  0.15966283  0.49714513  0.49599039  1
  Fe  Fe31  1  -0.00344863  0.32660889  0.66185711  1
  Cr  Cr32  1  0.15880681  0.49449471  0.83214679  1
  Ni  Ni33  1  0.16003510  0.83456582  0.49501098  1
  Fe  Fe34  1  -0.00365852  0.66497027  0.66092591  1
  Cr  Cr35  1  0.16265942  0.83082960  0.82828893  1
  Cr  Cr36  1  0.49743239  0.16091515  0.49479668  1
  Ni  Ni37  1  0.32670617  -0.00121757  0.66151422  1
  Fe  Fe38  1  0.49529044  0.16441512  0.82948001  1
  Cr  Cr39  1  0.49877287  0.49319442  0.49444826  1
  Cr  Cr40  1  0.32776625  0.32793019  0.66486129  1
  Ni  Ni41  1  0.49720853  0.49042617  0.82918523  1
  Cr  Cr42  1  0.49161994  0.83223367  0.49633380  1
  Cr  Cr43  1  0.33029468  0.66040858  0.66241605  1
  Cr  Cr44  1  0.49440172  0.83307515  0.82770161  1
  Fe  Fe45  1  0.82988334  0.16080549  0.49580599  1
  Cr  Cr46  1  0.66384911  0.99527281  0.66436286  1
  Cr  Cr47  1  0.82799833  0.16479139  0.82957107  1
  Cr  Cr48  1  0.82847763  0.49133562  0.50000630  1
  Fe  Fe49  1  0.66020808  0.32765342  0.66347903  1
  Cr  Cr50  1  0.82976262  0.49305060  0.82741401  1
  Fe  Fe51  1  0.82979299  0.82859097  0.49651905  1
  Fe  Fe52  1  0.66162619  0.66143498  0.66346410  1
  Cr  Cr53  1  0.83023375  0.82880537  0.83044728  1
" 