2843,Ni10Fe30Cr59_19,-214.675083784245, 183.059891449578,Ni10Fe30Cr59,"# generated using pymatgen
 data_Cr33Fe16Ni5
_symmetry_space_group_name_H-M   'P 1'
_cell_length_a   7.53529417
_cell_length_b   7.53529417
_cell_length_c   10.65651522
_cell_angle_alpha   90.00000000
_cell_angle_beta   90.00000000
_cell_angle_gamma   90.00000000
_symmetry_Int_Tables_number   1
_chemical_formula_structural   Cr33Fe16Ni5
_chemical_formula_sum   'Cr33 Fe16 Ni5'
_cell_volume   605.08394921
_cell_formula_units_Z   1
loop_
 _symmetry_equiv_pos_site_id
 _symmetry_equiv_pos_as_xyz
  1  'x, y, z'
loop_
 _atom_site_type_symbol
 _atom_site_label
 _atom_site_symmetry_multiplicity
 _atom_site_fract_x
 _atom_site_fract_y
 _atom_site_fract_z
 _atom_site_occupancy
  Cr  Cr0  1  -0.00349585  0.99485164  0.99472132  1
  Cr  Cr1  1  0.16127909  0.16319195  0.16514217  1
  Fe  Fe2  1  -0.00451686  0.99415795  0.33182066  1
  Ni  Ni3  1  -0.00231200  0.33003564  0.99305178  1
  Cr  Cr4  1  0.16379382  0.49469555  0.16012857  1
  Cr  Cr5  1  0.99515944  0.33312807  0.33103955  1
  Cr  Cr6  1  -0.00191740  0.66180405  0.99035095  1
  Cr  Cr7  1  0.16116672  0.82835532  0.16336016  1
  Cr  Cr8  1  -0.00266725  0.66360661  0.33428720  1
  Cr  Cr9  1  0.33016792  0.99466248  -0.00307742  1
  Fe  Fe10  1  0.49328075  0.16333094  0.16310196  1
  Cr  Cr11  1  0.32965778  0.99377995  0.32885297  1
  Fe  Fe12  1  0.32746038  0.32818442  0.99545238  1
  Cr  Cr13  1  0.49419747  0.49755010  0.16045045  1
  Ni  Ni14  1  0.32937458  0.33021467  0.32890241  1
  Fe  Fe15  1  0.32865709  0.66190459  0.99374001  1
  Cr  Cr16  1  0.49629815  0.82268870  0.16282063  1
  Fe  Fe17  1  0.32818589  0.66046999  0.33130810  1
  Cr  Cr18  1  0.65978239  -0.00339434  0.99460151  1
  Cr  Cr19  1  0.83441216  0.16123271  0.16190273  1
  Cr  Cr20  1  0.66024587  -0.00396410  0.32854179  1
  Cr  Cr21  1  0.66180431  0.32654609  -0.00214581  1
  Cr  Cr22  1  0.82811833  0.49857695  0.16222980  1
  Cr  Cr23  1  0.66048246  0.32835182  0.32783527  1
  Ni  Ni24  1  0.66162712  0.66292863  0.99543150  1
  Cr  Cr25  1  0.82881276  0.82718865  0.16257542  1
  Fe  Fe26  1  0.66157237  0.66248157  0.33155881  1
  Cr  Cr27  1  0.16265651  0.16181323  0.49490593  1
  Cr  Cr28  1  -0.00396936  0.99205504  0.66326132  1
  Cr  Cr29  1  0.16102275  0.16308351  0.82723241  1
  Fe  Fe30  1  0.16414303  0.49625923  0.49455108  1
  Cr  Cr31  1  0.99527596  0.33345445  0.66170753  1
  Fe  Fe32  1  0.16446029  0.49436697  0.82991062  1
  Ni  Ni33  1  0.16143604  0.82864398  0.49554408  1
  Cr  Cr34  1  -0.00236029  0.66158339  0.66219038  1
  Fe  Fe35  1  0.16430913  0.82868613  0.82822973  1
  Cr  Cr36  1  0.49275166  0.16295818  0.50004498  1
  Fe  Fe37  1  0.32732218  0.99285513  0.66071241  1
  Cr  Cr38  1  0.49257618  0.16218136  0.82328832  1
  Cr  Cr39  1  0.49487191  0.49698910  0.49449077  1
  Fe  Fe40  1  0.32634139  0.33225944  0.66116728  1
  Cr  Cr41  1  0.49424893  0.49662832  0.83116045  1
  Fe  Fe42  1  0.49490999  0.83019692  0.49551029  1
  Cr  Cr43  1  0.32516917  0.66386540  0.66078323  1
  Cr  Cr44  1  0.49707664  0.82674873  0.82645479  1
  Cr  Cr45  1  0.83067583  0.15939780  0.49695997  1
  Fe  Fe46  1  0.66370855  0.99224839  0.66100486  1
  Fe  Fe47  1  0.82871992  0.16205271  0.82902233  1
  Fe  Fe48  1  0.82896136  0.49741881  0.49502057  1
  Cr  Cr49  1  0.66300053  0.32775865  0.66174471  1
  Cr  Cr50  1  0.82697154  0.49663241  0.83058975  1
  Ni  Ni51  1  0.82946464  0.82698408  0.49509858  1
  Cr  Cr52  1  0.66377716  0.66233647  0.65855208  1
  Fe  Fe53  1  0.82731400  0.82944470  0.82833983  1
" 