8515,Ni10Fe30Cr59_5,-214.638445578779, 179.283576162613,Ni10Fe30Cr59,"# generated using pymatgen
 data_Cr33Fe16Ni5
_symmetry_space_group_name_H-M   'P 1'
_cell_length_a   7.53789075
_cell_length_b   7.53789075
_cell_length_c   10.66018733
_cell_angle_alpha   90.00000000
_cell_angle_beta   90.00000000
_cell_angle_gamma   90.00000000
_symmetry_Int_Tables_number   1
_chemical_formula_structural   Cr33Fe16Ni5
_chemical_formula_sum   'Cr33 Fe16 Ni5'
_cell_volume   605.70967930
_cell_formula_units_Z   1
loop_
 _symmetry_equiv_pos_site_id
 _symmetry_equiv_pos_as_xyz
  1  'x, y, z'
loop_
 _atom_site_type_symbol
 _atom_site_label
 _atom_site_symmetry_multiplicity
 _atom_site_fract_x
 _atom_site_fract_y
 _atom_site_fract_z
 _atom_site_occupancy
  Cr  Cr0  1  0.99522418  0.99457422  -0.00411769  1
  Cr  Cr1  1  0.16074571  0.16291192  0.16349043  1
  Fe  Fe2  1  0.99462078  0.99257731  0.33057129  1
  Cr  Cr3  1  0.99454969  0.32989904  0.99310297  1
  Cr  Cr4  1  0.16313131  0.49615704  0.16112017  1
  Cr  Cr5  1  0.99428909  0.33021676  0.32915048  1
  Cr  Cr6  1  -0.00449308  0.66097270  0.99261389  1
  Cr  Cr7  1  0.16020191  0.82649986  0.16299923  1
  Fe  Fe8  1  -0.00423107  0.66276813  0.33175053  1
  Cr  Cr9  1  0.32942653  0.99345473  -0.00334175  1
  Cr  Cr10  1  0.49516121  0.16429346  0.16200969  1
  Cr  Cr11  1  0.32872016  0.99528479  0.32681131  1
  Cr  Cr12  1  0.32748253  0.32831062  0.99338780  1
  Cr  Cr13  1  0.49380334  0.49658798  0.16352663  1
  Ni  Ni14  1  0.32768864  0.32988361  0.33215527  1
  Ni  Ni15  1  0.32786497  0.66329655  0.99452967  1
  Fe  Fe16  1  0.49499636  0.82668547  0.16155383  1
  Cr  Cr17  1  0.32789575  0.66232631  0.33102025  1
  Cr  Cr18  1  0.66125870  0.99453823  -0.00401601  1
  Cr  Cr19  1  0.82980919  0.16105585  0.16434619  1
  Cr  Cr20  1  0.66208527  0.99445211  0.32787525  1
  Cr  Cr21  1  0.66376410  0.32836802  0.99474292  1
  Cr  Cr22  1  0.82889291  0.49643930  0.16195380  1
  Fe  Fe23  1  0.65991961  0.32923196  0.33065994  1
  Cr  Cr24  1  0.66272282  0.66316310  -0.00397952  1
  Fe  Fe25  1  0.82976621  0.82790036  0.16349651  1
  Cr  Cr26  1  0.66401130  0.66202337  0.32949084  1
  Cr  Cr27  1  0.16055306  0.16193143  0.49465333  1
  Fe  Fe28  1  0.99379597  0.99334185  0.66069238  1
  Cr  Cr29  1  0.16132812  0.16203005  0.82805597  1
  Ni  Ni30  1  0.16131319  0.49514515  0.49457279  1
  Cr  Cr31  1  -0.00428422  0.33081609  0.66313909  1
  Ni  Ni32  1  0.16287620  0.49758094  0.82899876  1
  Fe  Fe33  1  0.15915860  0.82817708  0.49456215  1
  Cr  Cr34  1  -0.00406862  0.66112169  0.66160740  1
  Fe  Fe35  1  0.16215342  0.82679313  0.82902981  1
  Cr  Cr36  1  0.49571669  0.16336531  0.49733764  1
  Cr  Cr37  1  0.32796856  0.99523722  0.66316349  1
  Fe  Fe38  1  0.49491812  0.16279632  0.82703719  1
  Fe  Fe39  1  0.49410241  0.49457666  0.49456700  1
  Fe  Fe40  1  0.32672634  0.33146386  0.66115405  1
  Cr  Cr41  1  0.49378433  0.49651578  0.82786503  1
  Cr  Cr42  1  0.49744801  0.82797007  0.49612467  1
  Cr  Cr43  1  0.32602423  0.66196578  0.65985981  1
  Cr  Cr44  1  0.49682180  0.82810253  0.82895019  1
  Fe  Fe45  1  0.82947712  0.16018314  0.49531284  1
  Fe  Fe46  1  0.66477764  0.99397643  0.66099794  1
  Cr  Cr47  1  0.82776896  0.15877623  0.82654692  1
  Fe  Fe48  1  0.83001534  0.49634110  0.49415712  1
  Cr  Cr49  1  0.66301221  0.32896518  0.66028520  1
  Fe  Fe50  1  0.82905185  0.49610308  0.82804423  1
  Ni  Ni51  1  0.83144792  0.82974099  0.49518359  1
  Cr  Cr52  1  0.66441752  0.66144226  0.66065779  1
  Fe  Fe53  1  0.83063380  0.82791454  0.82678640  1
" 