6578,Ni10Fe70Cr18_12,-225.084655462206, 160.150703504116,Ni10Fe70Cr18,"# generated using pymatgen
 data_Cr11Fe38Ni5
_symmetry_space_group_name_H-M   'P 1'
_cell_length_a   7.46203310
_cell_length_b   7.46203310
_cell_length_c   10.55290841
_cell_angle_alpha   90.00000000
_cell_angle_beta   90.00000000
_cell_angle_gamma   90.00000000
_symmetry_Int_Tables_number   1
_chemical_formula_structural   Cr11Fe38Ni5
_chemical_formula_sum   'Cr11 Fe38 Ni5'
_cell_volume   587.60639156
_cell_formula_units_Z   1
loop_
 _symmetry_equiv_pos_site_id
 _symmetry_equiv_pos_as_xyz
  1  'x, y, z'
loop_
 _atom_site_type_symbol
 _atom_site_label
 _atom_site_symmetry_multiplicity
 _atom_site_fract_x
 _atom_site_fract_y
 _atom_site_fract_z
 _atom_site_occupancy
  Cr  Cr0  1  0.00192114  0.99974041  0.99942981  1
  Fe  Fe1  1  0.16842043  0.16720837  0.16710357  1
  Fe  Fe2  1  0.00088198  0.99779199  0.33245285  1
  Fe  Fe3  1  0.00210612  0.33341755  0.00219295  1
  Fe  Fe4  1  0.16945011  0.50118823  0.16609638  1
  Cr  Cr5  1  0.00149407  0.33317441  0.33369441  1
  Fe  Fe6  1  0.00154435  0.66839108  1.00011243  1
  Fe  Fe7  1  0.16757269  0.83254738  0.16705327  1
  Fe  Fe8  1  0.00251946  0.66919220  0.33500131  1
  Fe  Fe9  1  0.33321374  0.99990936  0.00088429  1
  Fe  Fe10  1  0.50052987  0.16720932  0.16673893  1
  Fe  Fe11  1  0.33399543  0.99992753  0.33467613  1
  Fe  Fe12  1  0.33344999  0.33333977  0.00198470  1
  Fe  Fe13  1  0.49820224  0.49969790  0.16623553  1
  Fe  Fe14  1  0.33544116  0.33397752  0.33355417  1
  Fe  Fe15  1  0.33306201  0.66772078  0.00095626  1
  Fe  Fe16  1  0.49978572  0.83413873  0.16689917  1
  Fe  Fe17  1  0.33227336  0.66713591  0.33469585  1
  Fe  Fe18  1  0.66630615  0.99951112  0.00273687  1
  Fe  Fe19  1  0.83209852  0.16530221  0.16703931  1
  Fe  Fe20  1  0.66598755  0.00079931  0.33326053  1
  Fe  Fe21  1  0.66551931  0.33340730  0.00153466  1
  Cr  Cr22  1  0.83564310  0.49906665  0.16574402  1
  Fe  Fe23  1  0.66395963  0.33230362  0.33383138  1
  Fe  Fe24  1  0.66643258  0.66804853  0.00147396  1
  Fe  Fe25  1  0.83360816  0.83496155  0.16715281  1
  Cr  Cr26  1  0.66597784  0.66703258  0.33654145  1
  Fe  Fe27  1  0.17027233  0.16522013  0.50123156  1
  Fe  Fe28  1  0.00332112  0.99740962  0.66769412  1
  Fe  Fe29  1  0.16820856  0.16518060  0.83250585  1
  Fe  Fe30  1  0.16811916  0.50230253  0.50192000  1
  Fe  Fe31  1  0.00458901  0.33445213  0.66507882  1
  Cr  Cr32  1  0.16693701  0.50160336  0.83411855  1
  Fe  Fe33  1  0.16792271  0.83358676  0.50213284  1
  Ni  Ni34  1  0.00050180  0.66941879  0.66537552  1
  Ni  Ni35  1  0.16800141  0.83307221  0.83233747  1
  Fe  Fe36  1  0.49756165  0.16487059  0.50018282  1
  Ni  Ni37  1  0.33107731  0.99974606  0.66636729  1
  Cr  Cr38  1  0.49883903  0.16520995  0.83306312  1
  Fe  Fe39  1  0.49829744  0.50135047  0.50059897  1
  Fe  Fe40  1  0.33136876  0.33442762  0.66547155  1
  Fe  Fe41  1  0.49880576  0.50175980  0.83420064  1
  Ni  Ni42  1  0.49812181  0.83459647  0.50094660  1
  Ni  Ni43  1  0.33320496  0.66849344  0.66562184  1
  Cr  Cr44  1  0.49846962  0.83341570  0.83332900  1
  Cr  Cr45  1  0.83323219  0.16660301  0.49955090  1
  Fe  Fe46  1  0.66584174  0.99581706  0.66499911  1
  Cr  Cr47  1  0.83442073  0.16711824  0.83389949  1
  Fe  Fe48  1  0.83448480  0.50363046  0.50142461  1
  Cr  Cr49  1  0.66495116  0.33647551  0.66461148  1
  Cr  Cr50  1  0.83485681  0.50131084  0.83374993  1
  Fe  Fe51  1  0.83392813  0.83274495  0.50132915  1
  Fe  Fe52  1  0.66586332  0.66967353  0.66474036  1
  Fe  Fe53  1  0.83554902  0.83251298  0.83258549  1
" 