2258,Ni10Fe61Cr28_1,-223.071465288173, 164.781207738722,Ni10Fe61Cr28,"# generated using pymatgen
 data_Cr16Fe33Ni5
_symmetry_space_group_name_H-M   'P 1'
_cell_length_a   7.48168591
_cell_length_b   7.48168591
_cell_length_c   10.58070168
_cell_angle_alpha   90.00000000
_cell_angle_beta   90.00000000
_cell_angle_gamma   90.00000000
_symmetry_Int_Tables_number   1
_chemical_formula_structural   Cr16Fe33Ni5
_chemical_formula_sum   'Cr16 Fe33 Ni5'
_cell_volume   592.26137902
_cell_formula_units_Z   1
loop_
 _symmetry_equiv_pos_site_id
 _symmetry_equiv_pos_as_xyz
  1  'x, y, z'
loop_
 _atom_site_type_symbol
 _atom_site_label
 _atom_site_symmetry_multiplicity
 _atom_site_fract_x
 _atom_site_fract_y
 _atom_site_fract_z
 _atom_site_occupancy
  Fe  Fe0  1  0.99716397  -0.00074381  0.00121196  1
  Fe  Fe1  1  0.16520107  0.16511484  0.16519604  1
  Fe  Fe2  1  0.99723433  0.00216131  0.33152973  1
  Ni  Ni3  1  0.99788048  0.33077390  0.99883434  1
  Cr  Cr4  1  0.16514409  0.49743172  0.16592243  1
  Fe  Fe5  1  -0.00095057  0.32942323  0.33339546  1
  Fe  Fe6  1  0.99717785  0.66612220  -0.00053402  1
  Fe  Fe7  1  0.16473176  0.83417176  0.16672303  1
  Fe  Fe8  1  -0.00004182  0.66599508  0.33259793  1
  Fe  Fe9  1  0.33265975  0.00101741  0.00080200  1
  Fe  Fe10  1  0.49826037  0.16411517  0.16646345  1
  Fe  Fe11  1  0.33526445  0.00048186  0.33188533  1
  Fe  Fe12  1  0.33117363  0.32900381  -0.00008513  1
  Cr  Cr13  1  0.49972012  0.49712496  0.16422800  1
  Ni  Ni14  1  0.32924960  0.32985492  0.33242042  1
  Cr  Cr15  1  0.33124859  0.66714628  0.99822856  1
  Fe  Fe16  1  0.49895728  0.83535564  0.16617157  1
  Fe  Fe17  1  0.33294029  0.66644242  0.33148466  1
  Fe  Fe18  1  0.66699542  0.00009107  0.00088709  1
  Fe  Fe19  1  0.83315620  0.16384756  0.16596929  1
  Ni  Ni20  1  0.66621332  0.99902026  0.33273366  1
  Fe  Fe21  1  0.66735345  0.32806855  -0.00037598  1
  Cr  Cr22  1  0.83255364  0.49710625  0.16656238  1
  Cr  Cr23  1  0.66630092  0.32925900  0.33421980  1
  Fe  Fe24  1  0.66871357  0.66842655  0.00005006  1
  Fe  Fe25  1  0.83328750  0.83503572  0.16567620  1
  Cr  Cr26  1  0.66730451  0.66881949  0.33156575  1
  Fe  Fe27  1  0.16470582  0.16666411  0.49748039  1
  Fe  Fe28  1  0.99728159  0.00218591  0.66541933  1
  Cr  Cr29  1  0.16351427  0.16461150  0.83426714  1
  Fe  Fe30  1  0.16359456  0.49798684  0.49708400  1
  Fe  Fe31  1  0.99754792  0.33126927  0.66502877  1
  Fe  Fe32  1  0.16352660  0.49869688  0.83346283  1
  Cr  Cr33  1  0.16684009  0.83428486  0.49743945  1
  Fe  Fe34  1  -0.00002860  0.66393366  0.66526259  1
  Cr  Cr35  1  0.16320024  0.83439091  0.83147303  1
  Fe  Fe36  1  0.50041556  0.16285285  0.49731632  1
  Cr  Cr37  1  0.33420616  0.00061576  0.66377751  1
  Fe  Fe38  1  0.50176903  0.16504377  0.83397338  1
  Cr  Cr39  1  0.49876643  0.49955837  0.49815471  1
  Cr  Cr40  1  0.33070592  0.33206846  0.66696889  1
  Cr  Cr41  1  0.50048115  0.49709272  0.83466329  1
  Ni  Ni42  1  0.49883691  0.83301220  0.49793848  1
  Fe  Fe43  1  0.33168630  0.66519138  0.66503226  1
  Cr  Cr44  1  0.50048751  0.83309704  0.83037393  1
  Ni  Ni45  1  0.83478266  0.16668881  0.49951920  1
  Fe  Fe46  1  0.66688160  0.00189578  0.66370753  1
  Fe  Fe47  1  0.83041107  0.16366327  0.83200967  1
  Fe  Fe48  1  0.83452791  0.49897665  0.50029153  1
  Fe  Fe49  1  0.66711119  0.32925519  0.66403569  1
  Cr  Cr50  1  0.83132384  0.49778377  0.83217784  1
  Cr  Cr51  1  0.83238243  0.83528097  0.50034898  1
  Fe  Fe52  1  0.66536413  0.66624529  0.66439263  1
  Fe  Fe53  1  0.83195707  0.83415977  0.83180976  1
" 