7168,Ni10Fe30Cr59_15,-214.960179497982, 185.004411247942,Ni10Fe30Cr59,"# generated using pymatgen
 data_Cr33Fe16Ni5
_symmetry_space_group_name_H-M   'P 1'
_cell_length_a   7.54289482
_cell_length_b   7.54289482
_cell_length_c   10.66726416
_cell_angle_alpha   90.00000000
_cell_angle_beta   90.00000000
_cell_angle_gamma   90.00000000
_symmetry_Int_Tables_number   1
_chemical_formula_structural   Cr33Fe16Ni5
_chemical_formula_sum   'Cr33 Fe16 Ni5'
_cell_volume   606.91679241
_cell_formula_units_Z   1
loop_
 _symmetry_equiv_pos_site_id
 _symmetry_equiv_pos_as_xyz
  1  'x, y, z'
loop_
 _atom_site_type_symbol
 _atom_site_label
 _atom_site_symmetry_multiplicity
 _atom_site_fract_x
 _atom_site_fract_y
 _atom_site_fract_z
 _atom_site_occupancy
  Cr  Cr0  1  0.99304947  -0.00407630  -0.00313430  1
  Cr  Cr1  1  0.16204408  0.15851412  0.16229970  1
  Fe  Fe2  1  0.99336723  0.99270325  0.32819502  1
  Cr  Cr3  1  -0.00402027  0.32843585  -0.00321549  1
  Fe  Fe4  1  0.16364514  0.49625042  0.16076171  1
  Cr  Cr5  1  0.99477898  0.32728887  0.32283616  1
  Cr  Cr6  1  -0.00463560  0.66010644  -0.00373627  1
  Cr  Cr7  1  0.16185121  0.82767258  0.16355567  1
  Cr  Cr8  1  0.99366694  0.66286039  0.32744267  1
  Fe  Fe9  1  0.32730732  0.99428285  0.99496714  1
  Cr  Cr10  1  0.49597076  0.16195802  0.16101183  1
  Fe  Fe11  1  0.32693513  0.99316214  0.32902258  1
  Cr  Cr12  1  0.32518679  0.32781100  0.99040961  1
  Cr  Cr13  1  0.49537534  0.49440287  0.16282314  1
  Cr  Cr14  1  0.32684297  0.32725448  0.33045708  1
  Ni  Ni15  1  0.32621259  0.65836937  -0.00397144  1
  Cr  Cr16  1  0.49269405  0.82870493  0.15753557  1
  Fe  Fe17  1  0.32740179  0.66233624  0.32750338  1
  Ni  Ni18  1  0.66284353  -0.00336171  -0.00469666  1
  Fe  Fe19  1  0.82575414  0.15934740  0.16088814  1
  Cr  Cr20  1  0.66328126  0.99322690  0.32929166  1
  Fe  Fe21  1  0.66287369  0.32826409  -0.00429382  1
  Fe  Fe22  1  0.82735791  0.49593706  0.16138743  1
  Fe  Fe23  1  0.66403520  0.32843106  0.32725901  1
  Cr  Cr24  1  0.66369041  0.66395540  -0.00458674  1
  Ni  Ni25  1  0.82854332  0.83011180  0.16125745  1
  Cr  Cr26  1  0.66372195  0.66401355  0.32934918  1
  Cr  Cr27  1  0.15932995  0.15985996  0.49593541  1
  Fe  Fe28  1  0.99468804  0.99321012  0.66134791  1
  Fe  Fe29  1  0.15974920  0.16246253  0.82663375  1
  Cr  Cr30  1  0.16070556  0.49613936  0.49573106  1
  Fe  Fe31  1  -0.00152298  0.32815859  0.66344927  1
  Ni  Ni32  1  0.16114243  0.49405862  0.82699260  1
  Fe  Fe33  1  0.15892964  0.82905163  0.49456535  1
  Fe  Fe34  1  -0.00297633  0.66287244  0.66148777  1
  Cr  Cr35  1  0.16108106  0.82687292  0.83070693  1
  Cr  Cr36  1  0.49499094  0.16229702  0.49368173  1
  Cr  Cr37  1  0.32789575  -0.00272343  0.66284519  1
  Cr  Cr38  1  0.49641944  0.16034910  0.83010937  1
  Cr  Cr39  1  0.49470319  0.49450247  0.49296321  1
  Fe  Fe40  1  0.32576879  0.32852211  0.66347800  1
  Cr  Cr41  1  0.49475350  0.49578459  0.82839909  1
  Cr  Cr42  1  0.49300314  0.82856897  0.49338951  1
  Cr  Cr43  1  0.32800526  0.66168353  0.66163886  1
  Cr  Cr44  1  0.49449171  0.82921901  0.83455186  1
  Cr  Cr45  1  0.83040117  0.16104618  0.49475702  1
  Fe  Fe46  1  0.66178351  0.99451649  0.66075861  1
  Cr  Cr47  1  0.82879018  0.16120674  0.82767979  1
  Cr  Cr48  1  0.83019730  0.49476126  0.49649556  1
  Cr  Cr49  1  0.65974946  0.32759416  0.65994952  1
  Cr  Cr50  1  0.83116304  0.49439388  0.82641731  1
  Ni  Ni51  1  0.83326143  0.83045347  0.49797805  1
  Cr  Cr52  1  0.66298990  0.66585189  0.65986368  1
  Cr  Cr53  1  0.82923320  0.82982612  0.82607699  1
" 