3465,Ni10Fe61Cr28_7,-223.227272279336, 159.927465175772,Ni10Fe61Cr28,"# generated using pymatgen
 data_Cr16Fe33Ni5
_symmetry_space_group_name_H-M   'P 1'
_cell_length_a   7.49044478
_cell_length_b   7.49044478
_cell_length_c   10.59308860
_cell_angle_alpha   90.00000000
_cell_angle_beta   90.00000000
_cell_angle_gamma   90.00000000
_symmetry_Int_Tables_number   1
_chemical_formula_structural   Cr16Fe33Ni5
_chemical_formula_sum   'Cr16 Fe33 Ni5'
_cell_volume   594.34391186
_cell_formula_units_Z   1
loop_
 _symmetry_equiv_pos_site_id
 _symmetry_equiv_pos_as_xyz
  1  'x, y, z'
loop_
 _atom_site_type_symbol
 _atom_site_label
 _atom_site_symmetry_multiplicity
 _atom_site_fract_x
 _atom_site_fract_y
 _atom_site_fract_z
 _atom_site_occupancy
  Fe  Fe0  1  -0.00028585  0.99767883  0.99546624  1
  Cr  Cr1  1  0.16568562  0.16607649  0.16103978  1
  Cr  Cr2  1  0.99665270  0.00116237  0.33039857  1
  Fe  Fe3  1  0.00055233  0.33171348  0.99409250  1
  Cr  Cr4  1  0.16537248  0.49575077  0.16584891  1
  Fe  Fe5  1  -0.00025604  0.33316123  0.33465425  1
  Fe  Fe6  1  -0.00118197  0.66582135  0.99577385  1
  Fe  Fe7  1  0.16542425  0.83083871  0.16275581  1
  Cr  Cr8  1  0.00052890  0.66750704  0.33050984  1
  Fe  Fe9  1  0.33287712  -0.00064905  0.99510964  1
  Fe  Fe10  1  0.50002266  0.16500697  0.16112685  1
  Cr  Cr11  1  0.32937004  0.99717197  0.33027658  1
  Ni  Ni12  1  0.33352732  0.33085304  0.99471895  1
  Cr  Cr13  1  0.49792006  0.49791941  0.16418370  1
  Cr  Cr14  1  0.33407756  0.33275891  0.33406784  1
  Cr  Cr15  1  0.33110988  0.66408859  -0.00050265  1
  Fe  Fe16  1  0.49856964  0.83332816  0.16390959  1
  Ni  Ni17  1  0.33160819  0.66682835  0.33409663  1
  Fe  Fe18  1  0.66275367  -0.00111025  0.99639620  1
  Fe  Fe19  1  0.82975606  0.16488440  0.16095484  1
  Fe  Fe20  1  0.66177718  0.99723573  0.33104597  1
  Fe  Fe21  1  0.66236495  0.33143043  0.99396786  1
  Cr  Cr22  1  0.83229518  0.49777914  0.16090938  1
  Cr  Cr23  1  0.66750906  0.32904626  0.33403185  1
  Fe  Fe24  1  0.66382843  0.66502311  0.99390317  1
  Fe  Fe25  1  0.83019105  0.83387748  0.16096293  1
  Cr  Cr26  1  0.66351817  0.66309421  0.33178050  1
  Fe  Fe27  1  0.16535523  0.16652092  0.50131454  1
  Cr  Cr28  1  -0.00011397  -0.00140836  0.66817187  1
  Fe  Fe29  1  0.16799792  0.16676974  0.83298726  1
  Fe  Fe30  1  0.16542843  0.50000308  0.50071532  1
  Fe  Fe31  1  0.00078699  0.33273355  0.66623293  1
  Fe  Fe32  1  0.16673177  0.49710900  0.83171267  1
  Fe  Fe33  1  0.16682625  0.83010135  0.50140625  1
  Fe  Fe34  1  0.00105977  0.66294753  0.66657441  1
  Fe  Fe35  1  0.16747788  0.82994730  0.83155123  1
  Fe  Fe36  1  0.49620240  0.16333227  0.50071179  1
  Ni  Ni37  1  0.32940618  -0.00108352  0.66770840  1
  Fe  Fe38  1  0.49597294  0.16520782  0.83199816  1
  Fe  Fe39  1  0.49748737  0.50068960  0.50142767  1
  Fe  Fe40  1  0.33113897  0.33057526  0.66760218  1
  Ni  Ni41  1  0.49684091  0.49810455  0.83184564  1
  Fe  Fe42  1  0.49405007  0.83086436  0.50097592  1
  Fe  Fe43  1  0.33117174  0.66569094  0.66658712  1
  Fe  Fe44  1  0.49608270  0.83209735  0.83153614  1
  Fe  Fe45  1  0.83420507  0.16716112  0.49969389  1
  Cr  Cr46  1  0.66400961  0.00032231  0.66546613  1
  Fe  Fe47  1  0.83139935  0.16664636  0.83447628  1
  Ni  Ni48  1  0.83532972  0.49723143  0.50092204  1
  Cr  Cr49  1  0.66525004  0.33291285  0.66673330  1
  Fe  Fe50  1  0.83348701  0.49777493  0.83365337  1
  Cr  Cr51  1  0.82952115  0.83120565  0.49941796  1
  Cr  Cr52  1  0.66572895  0.66307000  0.66885975  1
  Fe  Fe53  1  0.83125963  0.83085817  0.83390090  1
" 