1504,Ni10Fe61Cr28_16,-223.121220566034, 169.948724105176,Ni10Fe61Cr28,"# generated using pymatgen
 data_Cr16Fe33Ni5
_symmetry_space_group_name_H-M   'P 1'
_cell_length_a   7.48225581
_cell_length_b   7.48225581
_cell_length_c   10.58150765
_cell_angle_alpha   90.00000000
_cell_angle_beta   90.00000000
_cell_angle_gamma   90.00000000
_symmetry_Int_Tables_number   1
_chemical_formula_structural   Cr16Fe33Ni5
_chemical_formula_sum   'Cr16 Fe33 Ni5'
_cell_volume   592.39673349
_cell_formula_units_Z   1
loop_
 _symmetry_equiv_pos_site_id
 _symmetry_equiv_pos_as_xyz
  1  'x, y, z'
loop_
 _atom_site_type_symbol
 _atom_site_label
 _atom_site_symmetry_multiplicity
 _atom_site_fract_x
 _atom_site_fract_y
 _atom_site_fract_z
 _atom_site_occupancy
  Fe  Fe0  1  0.00040999  0.99756605  0.99731078  1
  Fe  Fe1  1  0.16836851  0.16777761  0.16290474  1
  Cr  Cr2  1  0.00221155  0.00119125  0.33522468  1
  Fe  Fe3  1  0.00100711  0.33507173  -0.00095245  1
  Fe  Fe4  1  0.16756819  0.49872698  0.16448049  1
  Cr  Cr5  1  0.99804241  0.33407721  0.33106907  1
  Fe  Fe6  1  0.99896318  0.66409389  0.99729075  1
  Cr  Cr7  1  0.16543178  0.82788738  0.16499651  1
  Fe  Fe8  1  -0.00037717  0.66423660  0.33220894  1
  Fe  Fe9  1  0.33324675  0.99760594  0.99877118  1
  Fe  Fe10  1  0.49654310  0.16593090  0.16357890  1
  Cr  Cr11  1  0.33300245  0.99767857  0.33268424  1
  Fe  Fe12  1  0.33216069  0.33549964  -0.00058546  1
  Ni  Ni13  1  0.49533757  0.49893337  0.16389635  1
  Fe  Fe14  1  0.33223058  0.33476758  0.32886028  1
  Fe  Fe15  1  0.33443617  0.66377727  0.99891085  1
  Fe  Fe16  1  0.49963929  0.82903433  0.16436695  1
  Ni  Ni17  1  0.33577486  0.66668107  0.33152100  1
  Fe  Fe18  1  0.66306069  0.99503949  0.99840737  1
  Cr  Cr19  1  0.83008258  0.16301416  0.16221588  1
  Fe  Fe20  1  0.66343285  0.99656761  0.33128198  1
  Fe  Fe21  1  0.66362915  0.33640128  0.00115596  1
  Fe  Fe22  1  0.83097513  0.50194018  0.16305241  1
  Cr  Cr23  1  0.66719076  0.33702506  0.33008182  1
  Ni  Ni24  1  0.66397093  0.66465800  -0.00095188  1
  Cr  Cr25  1  0.83276414  0.83167031  0.16533945  1
  Fe  Fe26  1  0.66347214  0.66539749  0.33048474  1
  Fe  Fe27  1  0.16503321  0.16823195  0.50111038  1
  Fe  Fe28  1  0.00008217  0.99696002  0.66661494  1
  Fe  Fe29  1  0.16487164  0.16866771  0.83351928  1
  Cr  Cr30  1  0.16765161  0.50184205  0.49736562  1
  Fe  Fe31  1  0.00180647  0.33423647  0.66589402  1
  Ni  Ni32  1  0.16880465  0.50216142  0.83367860  1
  Fe  Fe33  1  0.16695662  0.82931397  0.49907655  1
  Fe  Fe34  1  0.00081917  0.66602165  0.66670331  1
  Fe  Fe35  1  0.16442836  0.83072164  0.83390615  1
  Cr  Cr36  1  0.49878457  0.16653732  0.49769450  1
  Cr  Cr37  1  0.33003871  0.99625188  0.66490178  1
  Cr  Cr38  1  0.50018274  0.16783962  0.83390078  1
  Cr  Cr39  1  0.49671804  0.49921524  0.50238339  1
  Fe  Fe40  1  0.32969307  0.33386214  0.66875076  1
  Fe  Fe41  1  0.49739960  0.50116086  0.83364603  1
  Fe  Fe42  1  0.49971951  0.82878924  0.49888084  1
  Fe  Fe43  1  0.33138065  0.66548061  0.66792965  1
  Fe  Fe44  1  0.49971195  0.82870001  0.83354974  1
  Cr  Cr45  1  0.83018474  0.16520409  0.50323632  1
  Fe  Fe46  1  0.66455743  0.99493588  0.66694087  1
  Cr  Cr47  1  0.83120712  0.16255400  0.83168948  1
  Ni  Ni48  1  0.83313954  0.50199437  0.49980480  1
  Fe  Fe49  1  0.66591091  0.33508899  0.66552330  1
  Cr  Cr50  1  0.83302749  0.49889514  0.83206316  1
  Cr  Cr51  1  0.83281731  0.83093776  0.49807947  1
  Fe  Fe52  1  0.66527713  0.66676228  0.66725264  1
  Fe  Fe53  1  0.83234085  0.83050337  0.83341872  1
" 