4815,Ni10Fe61Cr28_12,-223.293595618238, 163.427266831223,Ni10Fe61Cr28,"# generated using pymatgen
 data_Cr16Fe33Ni5
_symmetry_space_group_name_H-M   'P 1'
_cell_length_a   7.48410543
_cell_length_b   7.48410543
_cell_length_c   10.58412340
_cell_angle_alpha   90.00000000
_cell_angle_beta   90.00000000
_cell_angle_gamma   90.00000000
_symmetry_Int_Tables_number   1
_chemical_formula_structural   Cr16Fe33Ni5
_chemical_formula_sum   'Cr16 Fe33 Ni5'
_cell_volume   592.83616398
_cell_formula_units_Z   1
loop_
 _symmetry_equiv_pos_site_id
 _symmetry_equiv_pos_as_xyz
  1  'x, y, z'
loop_
 _atom_site_type_symbol
 _atom_site_label
 _atom_site_symmetry_multiplicity
 _atom_site_fract_x
 _atom_site_fract_y
 _atom_site_fract_z
 _atom_site_occupancy
  Ni  Ni0  1  -0.00043614  0.99837778  0.00125370  1
  Cr  Cr1  1  0.16410268  0.16524602  0.16545347  1
  Fe  Fe2  1  -0.00012899  0.99761885  0.33179240  1
  Ni  Ni3  1  0.99700317  0.33297029  0.99725714  1
  Cr  Cr4  1  0.16786326  0.49823496  0.16704807  1
  Fe  Fe5  1  0.99651268  0.33073148  0.33214946  1
  Cr  Cr6  1  0.00063608  0.66489281  0.99827589  1
  Fe  Fe7  1  0.16584687  0.83280710  0.16718164  1
  Fe  Fe8  1  -0.00084899  0.66800309  0.33185509  1
  Cr  Cr9  1  0.33131624  0.99629733  0.99620378  1
  Cr  Cr10  1  0.49832072  0.16698650  0.16572867  1
  Ni  Ni11  1  0.33201150  0.99579691  0.33397928  1
  Cr  Cr12  1  0.33219021  0.33437608  0.99599268  1
  Fe  Fe13  1  0.49961996  0.50050785  0.16574759  1
  Fe  Fe14  1  0.33511220  0.33141176  0.33294588  1
  Fe  Fe15  1  0.33395261  0.66546215  0.99792839  1
  Fe  Fe16  1  0.49704991  0.82874393  0.16687320  1
  Fe  Fe17  1  0.33410180  0.66802349  0.33231539  1
  Cr  Cr18  1  0.66513675  0.99885123  0.00064213  1
  Fe  Fe19  1  0.83378728  0.16675882  0.16379686  1
  Cr  Cr20  1  0.66520140  0.00010273  0.33266462  1
  Ni  Ni21  1  0.66613852  0.33540173  0.99852017  1
  Cr  Cr22  1  0.83044141  0.49919187  0.16483422  1
  Fe  Fe23  1  0.66492136  0.33329798  0.33308600  1
  Fe  Fe24  1  0.66334790  0.66357650  0.99873634  1
  Fe  Fe25  1  0.83378486  0.83354220  0.16608199  1
  Fe  Fe26  1  0.66332336  0.66510835  0.33248880  1
  Cr  Cr27  1  0.16641127  0.16525113  0.49790140  1
  Ni  Ni28  1  0.00047793  0.99814040  0.66457202  1
  Fe  Fe29  1  0.16295841  0.16526213  0.83183978  1
  Cr  Cr30  1  0.16645023  0.49926284  0.49804322  1
  Fe  Fe31  1  0.99841348  0.33156059  0.66677458  1
  Fe  Fe32  1  0.16436788  0.49854554  0.83054740  1
  Fe  Fe33  1  0.16623909  0.83200979  0.49821614  1
  Fe  Fe34  1  0.00004264  0.66571295  0.66649315  1
  Fe  Fe35  1  0.16439364  0.83250070  0.83118374  1
  Fe  Fe36  1  0.49871834  0.16787565  0.49727465  1
  Cr  Cr37  1  0.33250364  0.99848722  0.66634782  1
  Fe  Fe38  1  0.49968939  0.16820645  0.83211475  1
  Fe  Fe39  1  0.50052242  0.49889360  0.49902942  1
  Fe  Fe40  1  0.33312109  0.33266902  0.66732724  1
  Fe  Fe41  1  0.50111500  0.49963857  0.83146738  1
  Fe  Fe42  1  0.49559166  0.82985914  0.49771756  1
  Fe  Fe43  1  0.33231890  0.66539945  0.66646567  1
  Fe  Fe44  1  0.49819359  0.82882006  0.83192020  1
  Fe  Fe45  1  0.83325285  0.16839438  0.49970449  1
  Cr  Cr46  1  0.66363116  0.00060060  0.66362899  1
  Cr  Cr47  1  0.83392252  0.16514203  0.83436628  1
  Fe  Fe48  1  0.83109559  0.49697599  0.49851982  1
  Fe  Fe49  1  0.66538951  0.33351882  0.66567339  1
  Fe  Fe50  1  0.83106518  0.49754608  0.83230483  1
  Cr  Cr51  1  0.83253779  0.83106755  0.50045257  1
  Fe  Fe52  1  0.66435803  0.66351052  0.66544654  1
  Cr  Cr53  1  0.83137161  0.83129045  0.83229554  1
" 