7267,Ni10Fe61Cr28_8,-223.250946117058, 169.2376172086,Ni10Fe61Cr28,"# generated using pymatgen
 data_Cr16Fe33Ni5
_symmetry_space_group_name_H-M   'P 1'
_cell_length_a   7.47625264
_cell_length_b   7.47625264
_cell_length_c   10.57301789
_cell_angle_alpha   90.00000000
_cell_angle_beta   90.00000000
_cell_angle_gamma   90.00000000
_symmetry_Int_Tables_number   1
_chemical_formula_structural   Cr16Fe33Ni5
_chemical_formula_sum   'Cr16 Fe33 Ni5'
_cell_volume   590.97200035
_cell_formula_units_Z   1
loop_
 _symmetry_equiv_pos_site_id
 _symmetry_equiv_pos_as_xyz
  1  'x, y, z'
loop_
 _atom_site_type_symbol
 _atom_site_label
 _atom_site_symmetry_multiplicity
 _atom_site_fract_x
 _atom_site_fract_y
 _atom_site_fract_z
 _atom_site_occupancy
  Fe  Fe0  1  0.99860130  0.00041022  0.99756932  1
  Fe  Fe1  1  0.16638135  0.16652570  0.16725903  1
  Fe  Fe2  1  0.99903704  0.00133648  0.33194667  1
  Ni  Ni3  1  0.99890482  0.33268078  0.99873474  1
  Fe  Fe4  1  0.16464561  0.49652728  0.16611736  1
  Fe  Fe5  1  -0.00029556  0.33183885  0.33159749  1
  Fe  Fe6  1  0.99838675  0.66471391  0.99877449  1
  Cr  Cr7  1  0.16350525  0.83445804  0.16624401  1
  Cr  Cr8  1  0.99828892  0.66237671  0.33092846  1
  Fe  Fe9  1  0.33229758  0.00042703  0.99914429  1
  Fe  Fe10  1  0.49882945  0.16567409  0.16702472  1
  Ni  Ni11  1  0.33445356  0.00275991  0.33211458  1
  Cr  Cr12  1  0.32980058  0.33050431  0.00080183  1
  Fe  Fe13  1  0.49962841  0.49628220  0.16724103  1
  Fe  Fe14  1  0.33318234  0.33214182  0.33114606  1
  Cr  Cr15  1  0.33182331  0.66633934  -0.00060614  1
  Cr  Cr16  1  0.49861174  0.83390325  0.16713792  1
  Fe  Fe17  1  0.33267228  0.66524453  0.33252098  1
  Ni  Ni18  1  0.66730950  0.99922339  0.99885833  1
  Cr  Cr19  1  0.83227142  0.16594442  0.16615914  1
  Fe  Fe20  1  0.66463300  0.00200884  0.33305593  1
  Fe  Fe21  1  0.66893533  0.33154385  -0.00031934  1
  Fe  Fe22  1  0.83392160  0.49806720  0.16458785  1
  Fe  Fe23  1  0.66558203  0.33054188  0.33378929  1
  Cr  Cr24  1  0.66878390  0.66676209  -0.00024254  1
  Fe  Fe25  1  0.83285555  0.83435472  0.16513227  1
  Cr  Cr26  1  0.66689875  0.66570563  0.33245722  1
  Cr  Cr27  1  0.16506052  0.16654889  0.49849485  1
  Fe  Fe28  1  0.99719016  0.00080543  0.66813761  1
  Fe  Fe29  1  0.16277331  0.16680592  0.83288393  1
  Fe  Fe30  1  0.16470348  0.49726178  0.49936197  1
  Fe  Fe31  1  0.99889378  0.33309161  0.66769611  1
  Fe  Fe32  1  0.16269522  0.49804257  0.83236064  1
  Cr  Cr33  1  0.16517524  0.83232889  0.49690483  1
  Fe  Fe34  1  0.99727954  0.66422134  0.66715726  1
  Fe  Fe35  1  0.16387006  0.83339408  0.83341211  1
  Ni  Ni36  1  0.50153172  0.16753397  0.49804436  1
  Cr  Cr37  1  0.33427054  0.00043791  0.66809825  1
  Cr  Cr38  1  0.50171455  0.16769708  0.83466691  1
  Cr  Cr39  1  0.49929703  0.49727833  0.50006559  1
  Fe  Fe40  1  0.33309530  0.33177133  0.66595450  1
  Cr  Cr41  1  0.50146214  0.49780492  0.83206665  1
  Fe  Fe42  1  0.49940126  0.83674683  0.49765525  1
  Cr  Cr43  1  0.33223903  0.66713592  0.66507987  1
  Fe  Fe44  1  0.50159547  0.83407881  0.83372548  1
  Fe  Fe45  1  0.83040630  0.16819332  0.49946354  1
  Fe  Fe46  1  0.66697776  0.00102368  0.66647576  1
  Fe  Fe47  1  0.83371583  0.16694782  0.83363692  1
  Fe  Fe48  1  0.83392599  0.49556114  0.50108546  1
  Ni  Ni49  1  0.67059219  0.33133958  0.66531248  1
  Fe  Fe50  1  0.83486958  0.49722375  0.83193126  1
  Cr  Cr51  1  0.83323212  0.83488311  0.49930533  1
  Fe  Fe52  1  0.66823450  0.66620020  0.66663899  1
  Fe  Fe53  1  0.83260823  0.83410194  0.83196574  1
" 