8654,Ni10Fe30Cr59_2,-215.150703305228, 186.302661639131,Ni10Fe30Cr59,"# generated using pymatgen
 data_Cr33Fe16Ni5
_symmetry_space_group_name_H-M   'P 1'
_cell_length_a   7.53543253
_cell_length_b   7.53543253
_cell_length_c   10.65671088
_cell_angle_alpha   90.00000000
_cell_angle_beta   90.00000000
_cell_angle_gamma   90.00000000
_symmetry_Int_Tables_number   1
_chemical_formula_structural   Cr33Fe16Ni5
_chemical_formula_sum   'Cr33 Fe16 Ni5'
_cell_volume   605.11727959
_cell_formula_units_Z   1
loop_
 _symmetry_equiv_pos_site_id
 _symmetry_equiv_pos_as_xyz
  1  'x, y, z'
loop_
 _atom_site_type_symbol
 _atom_site_label
 _atom_site_symmetry_multiplicity
 _atom_site_fract_x
 _atom_site_fract_y
 _atom_site_fract_z
 _atom_site_occupancy
  Fe  Fe0  1  -0.00258804  -0.00433815  0.99439027  1
  Cr  Cr1  1  0.16290547  0.16183564  0.15871706  1
  Fe  Fe2  1  -0.00223013  -0.00218695  0.33048753  1
  Fe  Fe3  1  -0.00390511  0.32644095  0.99388263  1
  Cr  Cr4  1  0.16186409  0.49141722  0.16402219  1
  Fe  Fe5  1  -0.00225806  0.32715386  0.33077741  1
  Cr  Cr6  1  -0.00398194  0.66242639  -0.00301759  1
  Fe  Fe7  1  0.16224076  0.83084661  0.16075375  1
  Cr  Cr8  1  -0.00354294  0.66460377  0.32888215  1
  Ni  Ni9  1  0.32617484  -0.00269162  0.99449072  1
  Cr  Cr10  1  0.49405658  0.16307109  0.16362275  1
  Cr  Cr11  1  0.32726303  -0.00369587  0.32811751  1
  Cr  Cr12  1  0.32893166  0.32891146  0.99224427  1
  Cr  Cr13  1  0.49603202  0.49333339  0.16516702  1
  Ni  Ni14  1  0.32951717  0.32856131  0.33251382  1
  Cr  Cr15  1  0.32815204  0.66212713  0.99517261  1
  Cr  Cr16  1  0.49476995  0.83016234  0.16099423  1
  Cr  Cr17  1  0.32652565  0.66063564  0.33019533  1
  Cr  Cr18  1  0.66338670  -0.00345831  0.99320195  1
  Cr  Cr19  1  0.83060840  0.16400204  0.16327277  1
  Cr  Cr20  1  0.66513245  -0.00121331  0.33312015  1
  Fe  Fe21  1  0.66122917  0.32778612  0.99466031  1
  Cr  Cr22  1  0.82816261  0.49341383  0.16205213  1
  Fe  Fe23  1  0.66064092  0.32958546  0.33218206  1
  Cr  Cr24  1  0.66201832  0.66028303  0.99499967  1
  Cr  Cr25  1  0.82889387  0.82949170  0.16398466  1
  Fe  Fe26  1  0.66054388  0.66124314  0.33041455  1
  Cr  Cr27  1  0.16334988  0.16519132  0.49644681  1
  Cr  Cr28  1  0.99440214  -0.00279371  0.65969535  1
  Fe  Fe29  1  0.15954857  0.16174498  0.82867643  1
  Fe  Fe30  1  0.16219740  0.49485875  0.49596726  1
  Ni  Ni31  1  0.99447587  0.32947706  0.66065644  1
  Cr  Cr32  1  0.15929745  0.49283127  0.82449517  1
  Fe  Fe33  1  0.16200506  0.82898296  0.49668506  1
  Ni  Ni34  1  -0.00372567  0.66022559  0.65974408  1
  Cr  Cr35  1  0.16267769  0.82959264  0.82804704  1
  Ni  Ni36  1  0.49474638  0.16416646  0.49399959  1
  Cr  Cr37  1  0.33008866  -0.00305951  0.66283971  1
  Cr  Cr38  1  0.49291691  0.15932068  0.82895650  1
  Fe  Fe39  1  0.49592338  0.49331342  0.49361394  1
  Cr  Cr40  1  0.32920866  0.32891781  0.66088517  1
  Fe  Fe41  1  0.49583622  0.49482959  0.82881791  1
  Cr  Cr42  1  0.49560005  0.83037262  0.49791259  1
  Cr  Cr43  1  0.32762439  0.66004786  0.66114624  1
  Fe  Fe44  1  0.49431738  0.82869325  0.82949452  1
  Fe  Fe45  1  0.82840624  0.16414226  0.49572923  1
  Fe  Fe46  1  0.66187380  -0.00186925  0.66050730  1
  Cr  Cr47  1  0.83077915  0.16364913  0.82741194  1
  Cr  Cr48  1  0.83158317  0.49553922  0.49535992  1
  Cr  Cr49  1  0.66138470  0.32643223  0.66100301  1
  Cr  Cr50  1  0.83118143  0.49461001  0.82977830  1
  Cr  Cr51  1  0.82905758  0.82752954  0.49826134  1
  Cr  Cr52  1  0.66095160  0.66045559  0.66487954  1
  Cr  Cr53  1  0.82872044  0.82802217  0.82465961  1
" 