6813,Ni10Fe30Cr59_13,-214.51234648381, 179.980155541945,Ni10Fe30Cr59,"# generated using pymatgen
 data_Cr33Fe16Ni5
_symmetry_space_group_name_H-M   'P 1'
_cell_length_a   7.54127370
_cell_length_b   7.54127370
_cell_length_c   10.66497155
_cell_angle_alpha   90.00000000
_cell_angle_beta   90.00000000
_cell_angle_gamma   90.00000000
_symmetry_Int_Tables_number   1
_chemical_formula_structural   Cr33Fe16Ni5
_chemical_formula_sum   'Cr33 Fe16 Ni5'
_cell_volume   606.52556010
_cell_formula_units_Z   1
loop_
 _symmetry_equiv_pos_site_id
 _symmetry_equiv_pos_as_xyz
  1  'x, y, z'
loop_
 _atom_site_type_symbol
 _atom_site_label
 _atom_site_symmetry_multiplicity
 _atom_site_fract_x
 _atom_site_fract_y
 _atom_site_fract_z
 _atom_site_occupancy
  Cr  Cr0  1  0.99185798  -0.00463033  -0.00323970  1
  Cr  Cr1  1  0.16195626  0.16298368  0.16190470  1
  Cr  Cr2  1  0.99454085  0.99424282  0.32842871  1
  Ni  Ni3  1  0.99488711  0.32845295  0.99463309  1
  Cr  Cr4  1  0.15786679  0.49413511  0.16045154  1
  Fe  Fe5  1  0.99160941  0.32945806  0.32647107  1
  Cr  Cr6  1  0.99459826  0.66129208  -0.00351876  1
  Cr  Cr7  1  0.16539551  0.82817856  0.16130543  1
  Cr  Cr8  1  0.99325625  0.66474681  0.32593007  1
  Fe  Fe9  1  0.32711609  -0.00403791  0.99396523  1
  Cr  Cr10  1  0.49552019  0.15920694  0.16102891  1
  Fe  Fe11  1  0.32908910  0.99255007  0.33016382  1
  Cr  Cr12  1  0.32789478  0.33081676  0.99098224  1
  Cr  Cr13  1  0.49728985  0.49677371  0.16371773  1
  Cr  Cr14  1  0.33142260  0.32877879  0.32961612  1
  Fe  Fe15  1  0.32774826  0.65998312  0.99397077  1
  Cr  Cr16  1  0.49473592  0.82942650  0.15823606  1
  Cr  Cr17  1  0.32972919  0.66128153  0.33055471  1
  Fe  Fe18  1  0.66367108  -0.00380754  -0.00410425  1
  Fe  Fe19  1  0.82954697  0.16560442  0.16116380  1
  Cr  Cr20  1  0.66459348  -0.00483751  0.32531656  1
  Cr  Cr21  1  0.66180856  0.32814832  -0.00340189  1
  Ni  Ni22  1  0.82848332  0.49305699  0.16329965  1
  Fe  Fe23  1  0.66443702  0.33159378  0.32711377  1
  Cr  Cr24  1  0.66239596  0.66133930  0.99476384  1
  Fe  Fe25  1  0.82619543  0.82561922  0.16212237  1
  Ni  Ni26  1  0.66179440  0.66070181  0.32941556  1
  Cr  Cr27  1  0.16203819  0.16182014  0.49666470  1
  Cr  Cr28  1  -0.00310830  -0.00471361  0.66057533  1
  Fe  Fe29  1  0.16060227  0.16219717  0.82774404  1
  Cr  Cr30  1  0.15803911  0.49410060  0.49378764  1
  Ni  Ni31  1  -0.00373674  0.33019943  0.66525365  1
  Fe  Fe32  1  0.15888915  0.49275109  0.82892163  1
  Fe  Fe33  1  0.16428631  0.82969647  0.49542874  1
  Cr  Cr34  1  -0.00479283  0.66182707  0.66308387  1
  Cr  Cr35  1  0.16460948  0.82826147  0.82898455  1
  Cr  Cr36  1  0.49445369  0.15935745  0.49380762  1
  Ni  Ni37  1  0.32845190  0.99354504  0.65985279  1
  Cr  Cr38  1  0.49337640  0.15826675  0.82993836  1
  Fe  Fe39  1  0.49780127  0.49675930  0.49396516  1
  Cr  Cr40  1  0.32888271  0.32894244  0.66457555  1
  Fe  Fe41  1  0.49594344  0.49708630  0.82871424  1
  Fe  Fe42  1  0.49451938  0.82728483  0.49475331  1
  Cr  Cr43  1  0.33043802  0.66015292  0.66007174  1
  Cr  Cr44  1  0.49437448  0.82880559  0.83020239  1
  Cr  Cr45  1  0.82927314  0.16629515  0.49484968  1
  Cr  Cr46  1  0.66133759  0.99437782  0.66215407  1
  Cr  Cr47  1  0.83032741  0.16503246  0.82747146  1
  Cr  Cr48  1  0.82782074  0.49473186  0.49533532  1
  Cr  Cr49  1  0.65932956  0.33136801  0.66225120  1
  Fe  Fe50  1  0.83025229  0.49369468  0.82909458  1
  Cr  Cr51  1  0.82562012  0.82500920  0.49731590  1
  Fe  Fe52  1  0.65969098  0.66015932  0.66154643  1
  Cr  Cr53  1  0.82608818  0.82618152  0.82761343  1
" 