3366,Ni10Fe61Cr28_13,-223.57674151248, 162.359405766544,Ni10Fe61Cr28,"# generated using pymatgen
 data_Cr16Fe33Ni5
_symmetry_space_group_name_H-M   'P 1'
_cell_length_a   7.49183033
_cell_length_b   7.49183033
_cell_length_c   10.59504807
_cell_angle_alpha   90.00000000
_cell_angle_beta   90.00000000
_cell_angle_gamma   90.00000000
_symmetry_Int_Tables_number   1
_chemical_formula_structural   Cr16Fe33Ni5
_chemical_formula_sum   'Cr16 Fe33 Ni5'
_cell_volume   594.67379071
_cell_formula_units_Z   1
loop_
 _symmetry_equiv_pos_site_id
 _symmetry_equiv_pos_as_xyz
  1  'x, y, z'
loop_
 _atom_site_type_symbol
 _atom_site_label
 _atom_site_symmetry_multiplicity
 _atom_site_fract_x
 _atom_site_fract_y
 _atom_site_fract_z
 _atom_site_occupancy
  Cr  Cr0  1  0.99759810  0.99707478  0.99634882  1
  Cr  Cr1  1  0.16641614  0.16283793  0.16537463  1
  Fe  Fe2  1  0.99650755  0.99639983  0.33157838  1
  Fe  Fe3  1  0.00121901  0.33271538  0.99739368  1
  Fe  Fe4  1  0.16332313  0.49964159  0.16254833  1
  Cr  Cr5  1  0.99637545  0.33378252  0.33285412  1
  Fe  Fe6  1  -0.00103536  0.66320558  -0.00099181  1
  Fe  Fe7  1  0.16482442  0.83034486  0.16489249  1
  Fe  Fe8  1  0.99557147  0.66495685  0.33122703  1
  Fe  Fe9  1  0.33428078  -0.00074149  0.99711975  1
  Fe  Fe10  1  0.49888463  0.16261624  0.16571221  1
  Fe  Fe11  1  0.33486395  -0.00114003  0.33167910  1
  Fe  Fe12  1  0.32901579  0.33087418  0.99713204  1
  Cr  Cr13  1  0.50104861  0.49909596  0.16424285  1
  Cr  Cr14  1  0.33538365  0.33236019  0.33245007  1
  Fe  Fe15  1  0.33053992  0.66520986  0.99822528  1
  Fe  Fe16  1  0.49885466  0.83425048  0.16435330  1
  Cr  Cr17  1  0.33025225  0.66632243  0.33185621  1
  Fe  Fe18  1  0.66305380  0.99613288  0.99766989  1
  Cr  Cr19  1  0.83107863  0.16512116  0.16673409  1
  Fe  Fe20  1  0.66374826  -0.00148958  0.33248440  1
  Cr  Cr21  1  0.66417242  0.32919312  0.00001415  1
  Fe  Fe22  1  0.83279828  0.50043570  0.16517407  1
  Ni  Ni23  1  0.66542153  0.33078610  0.33267834  1
  Fe  Fe24  1  0.66582643  0.66886051  -0.00103422  1
  Fe  Fe25  1  0.83103026  0.82976918  0.16561200  1
  Fe  Fe26  1  0.66665140  0.66403220  0.33244952  1
  Cr  Cr27  1  0.16521597  0.16376793  0.49956609  1
  Cr  Cr28  1  0.99607960  -0.00032817  0.66651861  1
  Ni  Ni29  1  0.16624681  0.16657382  0.83090617  1
  Fe  Fe30  1  0.16587742  0.49856341  0.50064091  1
  Fe  Fe31  1  0.00159189  0.33197799  0.66596438  1
  Ni  Ni32  1  0.16601576  0.49554946  0.83210069  1
  Cr  Cr33  1  0.16593425  0.83371791  0.49671135  1
  Cr  Cr34  1  -0.00013560  0.66431654  0.66448823  1
  Cr  Cr35  1  0.16773730  0.83213784  0.83125523  1
  Fe  Fe36  1  0.49938959  0.16282349  0.49829902  1
  Ni  Ni37  1  0.33434897  0.99781199  0.66604982  1
  Fe  Fe38  1  0.49524239  0.16342981  0.83127067  1
  Fe  Fe39  1  0.49873339  0.49938934  0.49898599  1
  Fe  Fe40  1  0.32933258  0.33162869  0.66567867  1
  Cr  Cr41  1  0.49726024  0.50138547  0.83038360  1
  Fe  Fe42  1  0.49913659  0.83258942  0.50000412  1
  Ni  Ni43  1  0.33285173  0.66492482  0.66469878  1
  Fe  Fe44  1  0.49794506  0.83293921  0.83082897  1
  Fe  Fe45  1  0.82958698  0.16393601  0.49682825  1
  Fe  Fe46  1  0.66236325  0.99579711  0.66518783  1
  Fe  Fe47  1  0.83273458  0.16521416  0.83194753  1
  Fe  Fe48  1  0.83065503  0.49890395  0.49761377  1
  Cr  Cr49  1  0.66534331  0.32958340  0.66264756  1
  Cr  Cr50  1  0.83147449  0.49924592  0.83343603  1
  Fe  Fe51  1  0.82952442  0.83202340  0.49706845  1
  Fe  Fe52  1  0.66302524  0.66844695  0.66368847  1
  Fe  Fe53  1  0.82946848  0.83168660  0.83213700  1
" 