3999,Ni10Fe35Cr53_7,-216.610948173421, 182.218110891727,Ni10Fe35Cr53,"# generated using pymatgen
 data_Cr30Fe19Ni5
_symmetry_space_group_name_H-M   'P 1'
_cell_length_a   7.53189356
_cell_length_b   7.53189356
_cell_length_c   10.65170602
_cell_angle_alpha   90.00000000
_cell_angle_beta   90.00000000
_cell_angle_gamma   90.00000000
_symmetry_Int_Tables_number   1
_chemical_formula_structural   Cr30Fe19Ni5
_chemical_formula_sum   'Cr30 Fe19 Ni5'
_cell_volume   604.26511114
_cell_formula_units_Z   1
loop_
 _symmetry_equiv_pos_site_id
 _symmetry_equiv_pos_as_xyz
  1  'x, y, z'
loop_
 _atom_site_type_symbol
 _atom_site_label
 _atom_site_symmetry_multiplicity
 _atom_site_fract_x
 _atom_site_fract_y
 _atom_site_fract_z
 _atom_site_occupancy
  Cr  Cr0  1  -0.00216673  -0.00006690  -0.00367184  1
  Fe  Fe1  1  0.16183477  0.16490130  0.16212909  1
  Cr  Cr2  1  -0.00205122  -0.00353919  0.32868137  1
  Ni  Ni3  1  -0.00316014  0.32457357  0.99542410  1
  Cr  Cr4  1  0.16003208  0.49364393  0.16197827  1
  Fe  Fe5  1  0.99543447  0.32958332  0.33049193  1
  Cr  Cr6  1  0.99494281  0.66309729  -0.00183840  1
  Fe  Fe7  1  0.16044241  0.82909938  0.16298776  1
  Fe  Fe8  1  0.99487855  0.66260570  0.33083641  1
  Cr  Cr9  1  0.32518574  -0.00377312  -0.00239271  1
  Cr  Cr10  1  0.49602150  0.16205771  0.16482170  1
  Cr  Cr11  1  0.32405195  0.99553634  0.32768922  1
  Fe  Fe12  1  0.32539569  0.32738200  -0.00415768  1
  Cr  Cr13  1  0.49342999  0.49216832  0.16242672  1
  Fe  Fe14  1  0.32918439  0.32965288  0.33085108  1
  Cr  Cr15  1  0.33077065  0.66425605  -0.00361605  1
  Cr  Cr16  1  0.49839936  0.83306249  0.16131690  1
  Cr  Cr17  1  0.32885576  0.66355235  0.32990950  1
  Fe  Fe18  1  0.66448779  -0.00354716  -0.00424006  1
  Cr  Cr19  1  0.82797210  0.16174525  0.16325691  1
  Fe  Fe20  1  0.66473736  -0.00380430  0.33042680  1
  Cr  Cr21  1  0.66538461  0.33004395  0.99359864  1
  Cr  Cr22  1  0.83355862  0.49521346  0.16365078  1
  Ni  Ni23  1  0.66424248  0.33028681  0.33201463  1
  Cr  Cr24  1  0.66137986  0.66117797  -0.00364495  1
  Fe  Fe25  1  0.82965867  0.82957415  0.16382002  1
  Cr  Cr26  1  0.66290073  0.65836574  0.32940539  1
  Fe  Fe27  1  0.16073076  0.16292361  0.49608805  1
  Ni  Ni28  1  0.99540498  -0.00289676  0.66075494  1
  Fe  Fe29  1  0.16017928  0.16321246  0.82883568  1
  Fe  Fe30  1  0.16207210  0.49562855  0.49519357  1
  Cr  Cr31  1  0.99395085  0.32435221  0.66223961  1
  Cr  Cr32  1  0.16091451  0.49298614  0.82978110  1
  Fe  Fe33  1  0.15887243  0.82833209  0.49694960  1
  Fe  Fe34  1  0.99508443  0.66454308  0.65926864  1
  Cr  Cr35  1  0.15941408  0.82794352  0.82582590  1
  Cr  Cr36  1  0.49669616  0.16369194  0.49328309  1
  Cr  Cr37  1  0.32335000  -0.00376709  0.66165780  1
  Cr  Cr38  1  0.49595595  0.16105424  0.82895889  1
  Ni  Ni39  1  0.49328622  0.49173109  0.49444552  1
  Fe  Fe40  1  0.32775895  0.32873186  0.66039428  1
  Cr  Cr41  1  0.49192862  0.49329117  0.82989997  1
  Cr  Cr42  1  0.49886653  0.83165797  0.49717878  1
  Cr  Cr43  1  0.33020864  0.66185971  0.66056363  1
  Cr  Cr44  1  0.49815302  0.83279347  0.82857328  1
  Fe  Fe45  1  0.82884804  0.16094447  0.49471225  1
  Fe  Fe46  1  0.66699241  -0.00364365  0.66089344  1
  Fe  Fe47  1  0.83135345  0.16119597  0.82898900  1
  Fe  Fe48  1  0.82846330  0.49622643  0.49396818  1
  Cr  Cr49  1  0.66367359  0.33085167  0.66125603  1
  Cr  Cr50  1  0.83415727  0.49559656  0.83052825  1
  Ni  Ni51  1  0.83406045  0.83015272  0.49627755  1
  Cr  Cr52  1  0.66194006  0.65895228  0.66138058  1
  Cr  Cr53  1  0.82942279  0.83234807  0.82748995  1
" 