7306,Ni10Fe70Cr18_9,-224.912910614656, 160.64946088355,Ni10Fe70Cr18,"# generated using pymatgen
 data_Cr11Fe38Ni5
_symmetry_space_group_name_H-M   'P 1'
_cell_length_a   7.46232616
_cell_length_b   7.46232616
_cell_length_c   10.55332287
_cell_angle_alpha   90.00000000
_cell_angle_beta   90.00000000
_cell_angle_gamma   90.00000000
_symmetry_Int_Tables_number   1
_chemical_formula_structural   Cr11Fe38Ni5
_chemical_formula_sum   'Cr11 Fe38 Ni5'
_cell_volume   587.67562765
_cell_formula_units_Z   1
loop_
 _symmetry_equiv_pos_site_id
 _symmetry_equiv_pos_as_xyz
  1  'x, y, z'
loop_
 _atom_site_type_symbol
 _atom_site_label
 _atom_site_symmetry_multiplicity
 _atom_site_fract_x
 _atom_site_fract_y
 _atom_site_fract_z
 _atom_site_occupancy
  Fe  Fe0  1  0.99931623  0.99864773  0.00084448  1
  Cr  Cr1  1  0.16763867  0.16754065  0.16608542  1
  Cr  Cr2  1  0.99923062  0.00094885  0.33426692  1
  Ni  Ni3  1  0.99951192  0.33286763  0.00079984  1
  Fe  Fe4  1  0.16710995  0.50269829  0.16647965  1
  Fe  Fe5  1  1.00030176  0.33583813  0.33461493  1
  Fe  Fe6  1  0.00208669  0.66589160  0.99993666  1
  Ni  Ni7  1  0.16812650  0.83382625  0.16548099  1
  Fe  Fe8  1  0.00294250  0.66587656  0.33228657  1
  Fe  Fe9  1  0.33558017  0.99902960  0.00041070  1
  Fe  Fe10  1  0.50266857  0.16694065  0.16652301  1
  Fe  Fe11  1  0.33513913  1.00010392  0.33201961  1
  Cr  Cr12  1  0.33353993  0.33721150  0.99995864  1
  Fe  Fe13  1  0.49849763  0.50050756  0.16579152  1
  Fe  Fe14  1  0.33465229  0.33470510  0.33402803  1
  Ni  Ni15  1  0.33417555  0.66924268  0.00077757  1
  Fe  Fe16  1  0.49899592  0.83436410  0.16559720  1
  Fe  Fe17  1  0.33085729  0.66637698  0.33088444  1
  Fe  Fe18  1  0.66633726  0.00047454  0.99978739  1
  Fe  Fe19  1  0.83225930  0.16571466  0.16499923  1
  Fe  Fe20  1  0.66527673  0.00314997  0.33256580  1
  Ni  Ni21  1  0.66712569  0.33223138  0.99897513  1
  Cr  Cr22  1  0.83249769  0.49902542  0.16542724  1
  Fe  Fe23  1  0.66635872  0.33170908  0.33313588  1
  Fe  Fe24  1  0.66541962  0.66545358  0.99880330  1
  Fe  Fe25  1  0.83493146  0.83491572  0.16532266  1
  Cr  Cr26  1  0.66485587  0.66811545  0.33191772  1
  Fe  Fe27  1  0.16975491  0.16795511  0.50011020  1
  Fe  Fe28  1  0.99994454  0.99883931  0.66820569  1
  Cr  Cr29  1  0.16774718  0.16544014  0.83448295  1
  Fe  Fe30  1  0.16849697  0.50084976  0.49947118  1
  Cr  Cr31  1  0.00129348  0.33282709  0.66613518  1
  Fe  Fe32  1  0.16619483  0.50240718  0.83467297  1
  Cr  Cr33  1  0.16828533  0.83364266  0.50298872  1
  Fe  Fe34  1  0.99865858  0.66622851  0.66952974  1
  Fe  Fe35  1  0.16747752  0.83132671  0.83491742  1
  Fe  Fe36  1  0.49935743  0.16871287  0.49956896  1
  Fe  Fe37  1  0.33434133  0.00113205  0.66847958  1
  Fe  Fe38  1  0.50210536  0.16741395  0.83425037  1
  Fe  Fe39  1  0.50023123  0.49969237  0.50146054  1
  Fe  Fe40  1  0.33711394  0.33483068  0.66694504  1
  Fe  Fe41  1  0.50096329  0.50127132  0.83424508  1
  Cr  Cr42  1  0.49873142  0.83290521  0.50017817  1
  Fe  Fe43  1  0.33438162  0.66475467  0.67014635  1
  Fe  Fe44  1  0.49914100  0.83253137  0.83416015  1
  Fe  Fe45  1  0.83195786  0.16852855  0.49948315  1
  Cr  Cr46  1  0.66774174  0.00057571  0.66678435  1
  Fe  Fe47  1  0.83306332  0.16751405  0.83572318  1
  Fe  Fe48  1  0.83205794  0.49978495  0.50029483  1
  Fe  Fe49  1  0.66586021  0.33586118  0.66822409  1
  Fe  Fe50  1  0.83332322  0.49988953  0.83525214  1
  Cr  Cr51  1  0.83342525  0.83018421  0.50065933  1
  Ni  Ni52  1  0.66571250  0.66606210  0.66905760  1
  Fe  Fe53  1  0.83428734  0.83251419  0.83393551  1
" 