4634,Ni10Fe35Cr53_6,-216.576661862972, 177.579392829609,Ni10Fe35Cr53,"# generated using pymatgen
 data_Cr30Fe19Ni5
_symmetry_space_group_name_H-M   'P 1'
_cell_length_a   7.53305943
_cell_length_b   7.53305943
_cell_length_c   10.65335481
_cell_angle_alpha   90.00000000
_cell_angle_beta   90.00000000
_cell_angle_gamma   90.00000000
_symmetry_Int_Tables_number   1
_chemical_formula_structural   Cr30Fe19Ni5
_chemical_formula_sum   'Cr30 Fe19 Ni5'
_cell_volume   604.54575919
_cell_formula_units_Z   1
loop_
 _symmetry_equiv_pos_site_id
 _symmetry_equiv_pos_as_xyz
  1  'x, y, z'
loop_
 _atom_site_type_symbol
 _atom_site_label
 _atom_site_symmetry_multiplicity
 _atom_site_fract_x
 _atom_site_fract_y
 _atom_site_fract_z
 _atom_site_occupancy
  Cr  Cr0  1  0.99496357  -0.00377533  0.99483082  1
  Cr  Cr1  1  0.16351183  0.16232323  0.16274923  1
  Cr  Cr2  1  -0.00437797  -0.00288782  0.33076918  1
  Cr  Cr3  1  0.99239093  0.33195751  -0.00017747  1
  Fe  Fe4  1  0.16294040  0.49773723  0.16176916  1
  Cr  Cr5  1  0.99456200  0.33010368  0.32761992  1
  Fe  Fe6  1  0.99417328  0.66258152  -0.00392235  1
  Cr  Cr7  1  0.16136280  0.82647115  0.16138440  1
  Cr  Cr8  1  0.99548733  0.65955975  0.32851329  1
  Cr  Cr9  1  0.33251483  0.99425508  0.99377962  1
  Ni  Ni10  1  0.50027633  0.16346680  0.16121132  1
  Cr  Cr11  1  0.33116538  0.99474942  0.32946160  1
  Cr  Cr12  1  0.32902911  0.32807697  -0.00161334  1
  Cr  Cr13  1  0.49463015  0.49624109  0.16329531  1
  Cr  Cr14  1  0.32781296  0.32934078  0.32898075  1
  Fe  Fe15  1  0.33032559  0.66353962  0.99527200  1
  Cr  Cr16  1  0.49767000  0.82818143  0.16438477  1
  Fe  Fe17  1  0.32847899  0.66240297  0.33178545  1
  Ni  Ni18  1  0.66157432  0.99408135  -0.00212241  1
  Fe  Fe19  1  0.82555032  0.16107943  0.16157430  1
  Fe  Fe20  1  0.66159926  -0.00300813  0.32876689  1
  Fe  Fe21  1  0.66302266  0.32707889  -0.00255841  1
  Fe  Fe22  1  0.82640321  0.49672323  0.16175353  1
  Cr  Cr23  1  0.66414807  0.32902031  0.32878866  1
  Fe  Fe24  1  0.66269584  0.66232885  0.99532113  1
  Cr  Cr25  1  0.82809275  0.82861211  0.16413118  1
  Fe  Fe26  1  0.66076566  0.66151047  0.33084189  1
  Ni  Ni27  1  0.16034942  0.16217915  0.49689313  1
  Fe  Fe28  1  -0.00362291  0.99422334  0.65957796  1
  Cr  Cr29  1  0.16094296  0.16256470  0.82590056  1
  Fe  Fe30  1  0.16336861  0.49753729  0.49495958  1
  Cr  Cr31  1  0.99327840  0.33045580  0.65881034  1
  Cr  Cr32  1  0.16330529  0.49631588  0.83170029  1
  Ni  Ni33  1  0.16246447  0.82892468  0.49676427  1
  Cr  Cr34  1  0.99498417  0.66153497  0.66358499  1
  Fe  Fe35  1  0.16294776  0.82800407  0.82928297  1
  Cr  Cr36  1  0.49574695  0.16396156  0.49587597  1
  Cr  Cr37  1  0.32947438  0.99337473  0.66362597  1
  Cr  Cr38  1  0.49747802  0.16527809  0.83019694  1
  Fe  Fe39  1  0.49502449  0.49802844  0.49403185  1
  Cr  Cr40  1  0.32860371  0.32965914  0.65961409  1
  Cr  Cr41  1  0.49708074  0.49500259  0.82853905  1
  Ni  Ni42  1  0.49576109  0.82612620  0.49254897  1
  Cr  Cr43  1  0.33022804  0.66506096  0.66095819  1
  Fe  Fe44  1  0.49744003  0.82832837  0.83036857  1
  Fe  Fe45  1  0.82935499  0.16135110  0.49616143  1
  Cr  Cr46  1  0.66018230  0.99349727  0.66104906  1
  Cr  Cr47  1  0.82800259  0.16163150  0.82660846  1
  Fe  Fe48  1  0.82787159  0.49563641  0.49495914  1
  Fe  Fe49  1  0.66279246  0.33024846  0.66032969  1
  Fe  Fe50  1  0.82827698  0.49423460  0.83022434  1
  Cr  Cr51  1  0.82884656  0.82896867  0.49322032  1
  Cr  Cr52  1  0.66236649  0.66112389  0.66099157  1
  Cr  Cr53  1  0.83008119  0.82839687  0.83003226  1
" 