1747,Ni10Fe35Cr53_14,-216.408815843787, 178.640807083721,Ni10Fe35Cr53,"# generated using pymatgen
 data_Cr30Fe19Ni5
_symmetry_space_group_name_H-M   'P 1'
_cell_length_a   7.54395281
_cell_length_b   7.54395281
_cell_length_c   10.66876038
_cell_angle_alpha   90.00000000
_cell_angle_beta   90.00000000
_cell_angle_gamma   90.00000000
_symmetry_Int_Tables_number   1
_chemical_formula_structural   Cr30Fe19Ni5
_chemical_formula_sum   'Cr30 Fe19 Ni5'
_cell_volume   607.17221207
_cell_formula_units_Z   1
loop_
 _symmetry_equiv_pos_site_id
 _symmetry_equiv_pos_as_xyz
  1  'x, y, z'
loop_
 _atom_site_type_symbol
 _atom_site_label
 _atom_site_symmetry_multiplicity
 _atom_site_fract_x
 _atom_site_fract_y
 _atom_site_fract_z
 _atom_site_occupancy
  Cr  Cr0  1  -0.00498727  -0.00269177  -0.00434908  1
  Fe  Fe1  1  0.16105918  0.16403152  0.16118223  1
  Cr  Cr2  1  -0.00350265  0.99450822  0.32742676  1
  Ni  Ni3  1  0.99452524  0.32659791  0.99420204  1
  Fe  Fe4  1  0.16107824  0.49351756  0.16187587  1
  Cr  Cr5  1  -0.00343087  0.32822646  0.32830465  1
  Cr  Cr6  1  0.99460338  0.66054366  0.99455230  1
  Cr  Cr7  1  0.16095564  0.82623400  0.16270269  1
  Fe  Fe8  1  -0.00392853  0.66127255  0.32911604  1
  Cr  Cr9  1  0.32849364  -0.00439994  0.99297458  1
  Fe  Fe10  1  0.49537016  0.16019290  0.16068784  1
  Cr  Cr11  1  0.32611389  -0.00435448  0.32823378  1
  Cr  Cr12  1  0.32660405  0.32621276  -0.00420162  1
  Cr  Cr13  1  0.49149951  0.49431484  0.16304894  1
  Fe  Fe14  1  0.32749447  0.32896621  0.32826450  1
  Cr  Cr15  1  0.32826237  0.66289357  0.99429455  1
  Fe  Fe16  1  0.49636287  0.82945995  0.16115110  1
  Fe  Fe17  1  0.32697529  0.66029470  0.32863840  1
  Ni  Ni18  1  0.66131287  -0.00327954  -0.00379309  1
  Fe  Fe19  1  0.82828118  0.16071328  0.15989579  1
  Cr  Cr20  1  0.66209613  0.99451652  0.32479184  1
  Cr  Cr21  1  0.66354465  0.32663245  0.99364046  1
  Cr  Cr22  1  0.83150868  0.49451085  0.16026390  1
  Cr  Cr23  1  0.66041615  0.32983278  0.32911414  1
  Cr  Cr24  1  0.66183740  0.66243733  -0.00478347  1
  Fe  Fe25  1  0.82674856  0.82947683  0.16114796  1
  Cr  Cr26  1  0.66155169  0.66036019  0.32835356  1
  Fe  Fe27  1  0.16155763  0.16222767  0.49480778  1
  Cr  Cr28  1  -0.00205281  0.99459064  0.66163033  1
  Fe  Fe29  1  0.16131094  0.16102278  0.82871673  1
  Fe  Fe30  1  0.16065829  0.49576927  0.49501418  1
  Fe  Fe31  1  -0.00502126  0.33016995  0.66195219  1
  Cr  Cr32  1  0.15825578  0.49496526  0.83033624  1
  Fe  Fe33  1  0.16065524  0.82671282  0.49537020  1
  Ni  Ni34  1  -0.00498287  0.66068901  0.66005913  1
  Ni  Ni35  1  0.15973955  0.82833845  0.82620656  1
  Cr  Cr36  1  0.49455151  0.16261728  0.49496297  1
  Cr  Cr37  1  0.32562563  -0.00470214  0.66350266  1
  Ni  Ni38  1  0.49711242  0.16022714  0.82878595  1
  Fe  Fe39  1  0.49426052  0.49489726  0.49398465  1
  Cr  Cr40  1  0.32835967  0.32631770  0.66046072  1
  Cr  Cr41  1  0.49484119  0.49314711  0.82842285  1
  Cr  Cr42  1  0.49430587  0.82803567  0.49544685  1
  Cr  Cr43  1  0.32648086  0.66309566  0.66114907  1
  Cr  Cr44  1  0.49478012  0.83166426  0.82901990  1
  Cr  Cr45  1  0.82850569  0.16180896  0.49647773  1
  Fe  Fe46  1  0.66143549  -0.00425530  0.66330287  1
  Fe  Fe47  1  0.82769738  0.16199451  0.82909804  1
  Fe  Fe48  1  0.82978906  0.49579387  0.49569226  1
  Cr  Cr49  1  0.66284717  0.32958533  0.66195730  1
  Fe  Fe50  1  0.83041855  0.49371156  0.82788346  1
  Cr  Cr51  1  0.83018195  0.82741564  0.49466362  1
  Cr  Cr52  1  0.66355420  0.65865797  0.66114059  1
  Cr  Cr53  1  0.82904063  0.82923471  0.82797286  1
" 