7737,Ni10Fe61Cr28_10,-222.914279978406, 170.107622372062,Ni10Fe61Cr28,"# generated using pymatgen
 data_Cr16Fe33Ni5
_symmetry_space_group_name_H-M   'P 1'
_cell_length_a   7.47691237
_cell_length_b   7.47691237
_cell_length_c   10.57395088
_cell_angle_alpha   90.00000000
_cell_angle_beta   90.00000000
_cell_angle_gamma   90.00000000
_symmetry_Int_Tables_number   1
_chemical_formula_structural   Cr16Fe33Ni5
_chemical_formula_sum   'Cr16 Fe33 Ni5'
_cell_volume   591.12846210
_cell_formula_units_Z   1
loop_
 _symmetry_equiv_pos_site_id
 _symmetry_equiv_pos_as_xyz
  1  'x, y, z'
loop_
 _atom_site_type_symbol
 _atom_site_label
 _atom_site_symmetry_multiplicity
 _atom_site_fract_x
 _atom_site_fract_y
 _atom_site_fract_z
 _atom_site_occupancy
  Ni  Ni0  1  0.99851967  0.00232226  0.00051507  1
  Fe  Fe1  1  0.16718202  0.16431608  0.16494805  1
  Fe  Fe2  1  -0.00024604  0.99915959  0.32955432  1
  Fe  Fe3  1  0.99709328  0.33104654  -0.00037158  1
  Cr  Cr4  1  0.16632889  0.49837256  0.16142436  1
  Cr  Cr5  1  0.99834275  0.33109333  0.33186890  1
  Fe  Fe6  1  0.99631704  0.66869696  0.00106932  1
  Fe  Fe7  1  0.16606846  0.83646458  0.16626364  1
  Cr  Cr8  1  0.99919583  0.66466138  0.32984965  1
  Cr  Cr9  1  0.33173657  0.00134198  0.99708766  1
  Ni  Ni10  1  0.50060275  0.16678254  0.16482772  1
  Fe  Fe11  1  0.33152428  -0.00012537  0.33146004  1
  Fe  Fe12  1  0.33306523  0.33048559  -0.00016643  1
  Fe  Fe13  1  0.50129716  0.49771860  0.16431476  1
  Fe  Fe14  1  0.33330976  0.33341605  0.33019234  1
  Cr  Cr15  1  0.33420224  0.66822879  -0.00039709  1
  Cr  Cr16  1  0.50336462  0.83359820  0.16832188  1
  Fe  Fe17  1  0.33291325  0.66445454  0.33315861  1
  Fe  Fe18  1  0.66777708  0.99850627  0.99841193  1
  Fe  Fe19  1  0.83145781  0.16394793  0.16432942  1
  Fe  Fe20  1  0.66797664  0.00159941  0.33134258  1
  Fe  Fe21  1  0.66750917  0.32995475  0.00122079  1
  Fe  Fe22  1  0.82934067  0.49917290  0.16311909  1
  Cr  Cr23  1  0.66758511  0.33454470  0.33361578  1
  Ni  Ni24  1  0.66991528  0.66364991  0.00088620  1
  Fe  Fe25  1  0.83383761  0.83472212  0.16411419  1
  Fe  Fe26  1  0.66589498  0.66506153  0.33260050  1
  Cr  Cr27  1  0.16545449  0.16536917  0.49881551  1
  Fe  Fe28  1  0.99821212  -0.00016120  0.66765690  1
  Ni  Ni29  1  0.16355827  0.16755112  0.83395676  1
  Fe  Fe30  1  0.16705863  0.50038514  0.50064907  1
  Fe  Fe31  1  0.99701953  0.33111100  0.66603479  1
  Cr  Cr32  1  0.16447130  0.49772705  0.83154038  1
  Ni  Ni33  1  0.16467805  0.83128776  0.49772654  1
  Fe  Fe34  1  -0.00058919  0.66655199  0.66328831  1
  Cr  Cr35  1  0.16020501  0.83154849  0.83260569  1
  Cr  Cr36  1  0.50103394  0.16700001  0.49903230  1
  Cr  Cr37  1  0.33153006  0.99687937  0.67061435  1
  Fe  Fe38  1  0.49880940  0.16808580  0.83487612  1
  Fe  Fe39  1  0.49629532  0.50160982  0.49926418  1
  Fe  Fe40  1  0.33336552  0.33226034  0.66676756  1
  Cr  Cr41  1  0.50070612  0.49754665  0.83510537  1
  Fe  Fe42  1  0.49599516  0.83301169  0.49680652  1
  Fe  Fe43  1  0.33202415  0.66563355  0.66444643  1
  Fe  Fe44  1  0.50148301  0.83137578  0.83530540  1
  Fe  Fe45  1  0.83415493  0.16559982  0.50090568  1
  Cr  Cr46  1  0.66484193  0.00017641  0.67080482  1
  Fe  Fe47  1  0.83531223  0.16743510  0.83475940  1
  Fe  Fe48  1  0.83471489  0.49852331  0.50104927  1
  Fe  Fe49  1  0.66776558  0.33276266  0.66624264  1
  Fe  Fe50  1  0.83407348  0.49870351  0.83423969  1
  Cr  Cr51  1  0.83244191  0.83546797  0.49685454  1
  Cr  Cr52  1  0.66565282  0.66559397  0.66545151  1
  Fe  Fe53  1  0.83199642  0.83214716  0.83601572  1
" 