3123,Ni10Fe30Cr59_16,-214.967013359176, 184.528380769222,Ni10Fe30Cr59,"# generated using pymatgen
 data_Cr33Fe16Ni5
_symmetry_space_group_name_H-M   'P 1'
_cell_length_a   7.53723383
_cell_length_b   7.53723383
_cell_length_c   10.65925831
_cell_angle_alpha   90.00000000
_cell_angle_beta   90.00000000
_cell_angle_gamma   90.00000000
_symmetry_Int_Tables_number   1
_chemical_formula_structural   Cr33Fe16Ni5
_chemical_formula_sum   'Cr33 Fe16 Ni5'
_cell_volume   605.55133275
_cell_formula_units_Z   1
loop_
 _symmetry_equiv_pos_site_id
 _symmetry_equiv_pos_as_xyz
  1  'x, y, z'
loop_
 _atom_site_type_symbol
 _atom_site_label
 _atom_site_symmetry_multiplicity
 _atom_site_fract_x
 _atom_site_fract_y
 _atom_site_fract_z
 _atom_site_occupancy
  Fe  Fe0  1  -0.00308274  0.99403594  0.99407910  1
  Cr  Cr1  1  0.16199827  0.16044124  0.16194453  1
  Cr  Cr2  1  -0.00332320  0.99476312  0.32580746  1
  Cr  Cr3  1  -0.00353568  0.32609855  0.99332779  1
  Cr  Cr4  1  0.16233911  0.49844035  0.16107117  1
  Cr  Cr5  1  0.99500911  0.32816423  0.33015545  1
  Fe  Fe6  1  -0.00378135  0.66464798  0.99435560  1
  Fe  Fe7  1  0.16374628  0.82735915  0.15947031  1
  Fe  Fe8  1  -0.00457011  0.66280059  0.32824045  1
  Cr  Cr9  1  0.32660275  0.99376114  0.99474045  1
  Cr  Cr10  1  0.49652946  0.16195599  0.16312978  1
  Cr  Cr11  1  0.32789707  0.99280252  0.32910820  1
  Cr  Cr12  1  0.32608099  0.32617134  0.99321311  1
  Cr  Cr13  1  0.49484528  0.49532138  0.16125657  1
  Cr  Cr14  1  0.32654955  0.32794939  0.32919072  1
  Fe  Fe15  1  0.32995585  0.66502216  -0.00453756  1
  Ni  Ni16  1  0.49558880  0.82780788  0.16050739  1
  Cr  Cr17  1  0.32914234  0.66524207  0.32767214  1
  Cr  Cr18  1  0.66099576  0.99315688  0.99493831  1
  Fe  Fe19  1  0.82775301  0.16238584  0.16185715  1
  Cr  Cr20  1  0.66179318  0.99259639  0.32814517  1
  Cr  Cr21  1  0.66337314  0.32956440  0.99525948  1
  Cr  Cr22  1  0.82874836  0.49699457  0.16193324  1
  Ni  Ni23  1  0.66486146  0.32883422  0.32759680  1
  Ni  Ni24  1  0.66136263  0.66520312  0.99511132  1
  Cr  Cr25  1  0.83132796  0.82933067  0.16017900  1
  Cr  Cr26  1  0.66191036  0.66348960  0.32980959  1
  Fe  Fe27  1  0.16057345  0.16051506  0.49776584  1
  Fe  Fe28  1  -0.00168841  -0.00412426  0.66318831  1
  Ni  Ni29  1  0.16181703  0.15788981  0.82531627  1
  Cr  Cr30  1  0.16191226  0.49710898  0.49662139  1
  Fe  Fe31  1  -0.00429121  0.32697237  0.66299910  1
  Cr  Cr32  1  0.16270878  0.49844414  0.82866792  1
  Cr  Cr33  1  0.16099721  0.82935631  0.49600800  1
  Fe  Fe34  1  -0.00220262  0.66328316  0.66348349  1
  Ni  Ni35  1  0.16295898  0.83062892  0.82949657  1
  Cr  Cr36  1  0.49474494  0.16073304  0.49509439  1
  Fe  Fe37  1  0.32860234  0.99275144  0.66397652  1
  Fe  Fe38  1  0.49292813  0.15862933  0.82775691  1
  Cr  Cr39  1  0.49419450  0.49357676  0.49326001  1
  Cr  Cr40  1  0.32581122  0.32666535  0.66354640  1
  Cr  Cr41  1  0.49444476  0.49632995  0.83197090  1
  Fe  Fe42  1  0.49448560  0.82925680  0.49687884  1
  Fe  Fe43  1  0.32851115  0.66467652  0.66316341  1
  Fe  Fe44  1  0.49285962  0.82879221  0.82919038  1
  Cr  Cr45  1  0.82775877  0.15986875  0.49532365  1
  Fe  Fe46  1  0.65947798  -0.00449305  0.66289348  1
  Cr  Cr47  1  0.82838162  0.15878562  0.82879835  1
  Cr  Cr48  1  0.83000057  0.49629870  0.49595935  1
  Cr  Cr49  1  0.66259443  0.32996221  0.66386215  1
  Cr  Cr50  1  0.82919245  0.49803467  0.82871602  1
  Cr  Cr51  1  0.83094059  0.83028916  0.49740958  1
  Cr  Cr52  1  0.66011400  0.66475085  0.66175664  1
  Cr  Cr53  1  0.83063199  0.82925427  0.82791120  1
" 