1149,Ni10Fe70Cr18_11,-224.772546302845, 156.588721707733,Ni10Fe70Cr18,"# generated using pymatgen
 data_Cr11Fe38Ni5
_symmetry_space_group_name_H-M   'P 1'
_cell_length_a   7.46034122
_cell_length_b   7.46034122
_cell_length_c   10.55051573
_cell_angle_alpha   90.00000000
_cell_angle_beta   90.00000000
_cell_angle_gamma   90.00000000
_symmetry_Int_Tables_number   1
_chemical_formula_structural   Cr11Fe38Ni5
_chemical_formula_sum   'Cr11 Fe38 Ni5'
_cell_volume   587.20679535
_cell_formula_units_Z   1
loop_
 _symmetry_equiv_pos_site_id
 _symmetry_equiv_pos_as_xyz
  1  'x, y, z'
loop_
 _atom_site_type_symbol
 _atom_site_label
 _atom_site_symmetry_multiplicity
 _atom_site_fract_x
 _atom_site_fract_y
 _atom_site_fract_z
 _atom_site_occupancy
  Fe  Fe0  1  0.00282017  0.00091404  0.99808748  1
  Fe  Fe1  1  0.16787433  0.16615246  0.16611486  1
  Fe  Fe2  1  0.00243367  1.00020774  0.33681837  1
  Fe  Fe3  1  0.00089823  0.33411833  0.99875615  1
  Cr  Cr4  1  0.16661617  0.50188041  0.16703710  1
  Fe  Fe5  1  0.99994718  0.33433461  0.33469139  1
  Fe  Fe6  1  1.00033196  0.66666504  0.99853958  1
  Cr  Cr7  1  0.16739098  0.83503385  0.16763858  1
  Ni  Ni8  1  0.00056698  0.66691575  0.33559849  1
  Fe  Fe9  1  0.33229553  0.00110130  0.99853382  1
  Fe  Fe10  1  0.49898033  0.16751671  0.16687194  1
  Fe  Fe11  1  0.33271383  0.99965199  0.33669729  1
  Fe  Fe12  1  0.33389097  0.33230782  0.00084040  1
  Fe  Fe13  1  0.50262270  0.50027165  0.16644497  1
  Cr  Cr14  1  0.33313704  0.33243716  0.33350200  1
  Ni  Ni15  1  0.33280492  0.66595498  0.99906584  1
  Cr  Cr16  1  0.49835744  0.83232760  0.16707253  1
  Fe  Fe17  1  0.33454626  0.66721118  0.33590023  1
  Cr  Cr18  1  0.66720260  1.00038574  0.99780448  1
  Cr  Cr19  1  0.83474117  0.16901395  0.16922354  1
  Cr  Cr20  1  0.66572858  0.00051152  0.33732270  1
  Fe  Fe21  1  0.66684889  0.33540541  0.00068358  1
  Fe  Fe22  1  0.83279365  0.50156515  0.16816403  1
  Fe  Fe23  1  0.66569180  0.33585319  0.33462242  1
  Fe  Fe24  1  0.66719376  0.66495304  1.00001451  1
  Cr  Cr25  1  0.83566503  0.83323681  0.16745306  1
  Ni  Ni26  1  0.66755106  0.66648801  0.33286505  1
  Fe  Fe27  1  0.16741204  0.16743878  0.50171639  1
  Fe  Fe28  1  1.00019098  0.99985288  0.66725420  1
  Fe  Fe29  1  0.16771326  0.16771218  0.83325584  1
  Fe  Fe30  1  0.16873083  0.50082301  0.50074606  1
  Fe  Fe31  1  0.00106404  0.33356472  0.66798387  1
  Fe  Fe32  1  0.16593523  0.50047525  0.83419853  1
  Fe  Fe33  1  0.16806663  0.83309441  0.50005748  1
  Fe  Fe34  1  0.00256310  0.66771623  0.66668104  1
  Fe  Fe35  1  0.16806285  0.83307791  0.83414193  1
  Ni  Ni36  1  0.50014634  0.16752766  0.50261222  1
  Fe  Fe37  1  0.33416846  1.00013007  0.66666722  1
  Fe  Fe38  1  0.49902489  0.16659707  0.83140094  1
  Ni  Ni39  1  0.49985139  0.50048255  0.49961574  1
  Fe  Fe40  1  0.33373001  0.33376526  0.66518753  1
  Cr  Cr41  1  0.49944432  0.49920347  0.83337683  1
  Fe  Fe42  1  0.49902097  0.83227854  0.50028879  1
  Fe  Fe43  1  0.33197218  0.66722602  0.66684952  1
  Fe  Fe44  1  0.49742358  0.83439331  0.83406427  1
  Fe  Fe45  1  0.83355387  0.16717841  0.50173362  1
  Fe  Fe46  1  0.66704348  0.00249053  0.66703186  1
  Fe  Fe47  1  0.83460373  0.16880188  0.83279225  1
  Cr  Cr48  1  0.83338795  0.49953114  0.49933742  1
  Fe  Fe49  1  0.66638480  0.33222263  0.66628457  1
  Fe  Fe50  1  0.83578238  0.49955373  0.83374037  1
  Fe  Fe51  1  0.83429736  0.83380658  0.49994939  1
  Cr  Cr52  1  0.66719768  0.66961291  0.66734437  1
  Fe  Fe53  1  0.83585375  0.83329875  0.83359469  1
" 