2253,Ni10Fe35Cr53_16,-216.457828615441, 178.866329093666,Ni10Fe35Cr53,"# generated using pymatgen
 data_Cr30Fe19Ni5
_symmetry_space_group_name_H-M   'P 1'
_cell_length_a   7.52579066
_cell_length_b   7.52579066
_cell_length_c   10.64307522
_cell_angle_alpha   90.00000000
_cell_angle_beta   90.00000000
_cell_angle_gamma   90.00000000
_symmetry_Int_Tables_number   1
_chemical_formula_structural   Cr30Fe19Ni5
_chemical_formula_sum   'Cr30 Fe19 Ni5'
_cell_volume   602.79744034
_cell_formula_units_Z   1
loop_
 _symmetry_equiv_pos_site_id
 _symmetry_equiv_pos_as_xyz
  1  'x, y, z'
loop_
 _atom_site_type_symbol
 _atom_site_label
 _atom_site_symmetry_multiplicity
 _atom_site_fract_x
 _atom_site_fract_y
 _atom_site_fract_z
 _atom_site_occupancy
  Cr  Cr0  1  0.99545460  -0.00255958  0.99557134  1
  Ni  Ni1  1  0.16234901  0.16695970  0.16165458  1
  Cr  Cr2  1  0.99548075  0.99585357  0.32924080  1
  Ni  Ni3  1  0.99590554  0.32970946  -0.00292964  1
  Fe  Fe4  1  0.16232620  0.49273083  0.16202180  1
  Fe  Fe5  1  -0.00328911  0.32967188  0.32718812  1
  Cr  Cr6  1  0.99435263  0.66072909  0.99536501  1
  Cr  Cr7  1  0.16385441  0.82869562  0.16148871  1
  Fe  Fe8  1  0.99510940  0.66402511  0.32940574  1
  Cr  Cr9  1  0.32985377  -0.00194614  -0.00125088  1
  Cr  Cr10  1  0.49642474  0.16414880  0.16087765  1
  Cr  Cr11  1  0.32988806  -0.00198050  0.32770378  1
  Fe  Fe12  1  0.32912058  0.33035217  -0.00347583  1
  Fe  Fe13  1  0.49540505  0.49430915  0.16208942  1
  Cr  Cr14  1  0.32992070  0.32929325  0.32957266  1
  Cr  Cr15  1  0.33100410  0.66032956  0.99523035  1
  Fe  Fe16  1  0.49763129  0.82772414  0.16355470  1
  Cr  Cr17  1  0.33133412  0.66033764  0.32947531  1
  Cr  Cr18  1  0.66294247  -0.00373684  -0.00363518  1
  Cr  Cr19  1  0.83029606  0.16571189  0.16146787  1
  Cr  Cr20  1  0.66334374  0.99459767  0.32902837  1
  Fe  Fe21  1  0.66315339  0.33045221  0.99325347  1
  Cr  Cr22  1  0.82893431  0.49571596  0.16433049  1
  Fe  Fe23  1  0.66089442  0.32988254  0.33010876  1
  Cr  Cr24  1  0.66278382  0.66157059  -0.00149212  1
  Fe  Fe25  1  0.82954845  0.82938173  0.16417007  1
  Fe  Fe26  1  0.66333931  0.66243665  0.32881707  1
  Cr  Cr27  1  0.16193822  0.16319954  0.49389707  1
  Fe  Fe28  1  0.99268762  -0.00277749  0.66287723  1
  Cr  Cr29  1  0.16144480  0.16273795  0.83141689  1
  Cr  Cr30  1  0.16253297  0.49671429  0.49473189  1
  Cr  Cr31  1  0.99384990  0.32995914  0.66341052  1
  Cr  Cr32  1  0.16382681  0.49572101  0.83050811  1
  Cr  Cr33  1  0.16256303  0.82843297  0.50115880  1
  Cr  Cr34  1  0.99492220  0.66357393  0.66429603  1
  Fe  Fe35  1  0.16373246  0.82938674  0.82865764  1
  Fe  Fe36  1  0.49911121  0.16395536  0.49634416  1
  Cr  Cr37  1  0.32977848  -0.00189959  0.66239018  1
  Fe  Fe38  1  0.49785347  0.16535511  0.82965843  1
  Fe  Fe39  1  0.49873934  0.49470878  0.49684005  1
  Cr  Cr40  1  0.33266173  0.32995003  0.66075896  1
  Ni  Ni41  1  0.49828668  0.49320949  0.82970275  1
  Cr  Cr42  1  0.49689978  0.82885243  0.49663496  1
  Fe  Fe43  1  0.33163514  0.65987071  0.66439387  1
  Cr  Cr44  1  0.49484065  0.82896149  0.82928272  1
  Cr  Cr45  1  0.82755376  0.16367536  0.49719060  1
  Fe  Fe46  1  0.66401724  -0.00182262  0.66254293  1
  Fe  Fe47  1  0.82651633  0.16663826  0.82958322  1
  Cr  Cr48  1  0.82845391  0.49532990  0.49344346  1
  Ni  Ni49  1  0.66108666  0.32821631  0.66438430  1
  Fe  Fe50  1  0.82689004  0.49261647  0.83058482  1
  Ni  Ni51  1  0.82760022  0.82899805  0.49492033  1
  Cr  Cr52  1  0.66365900  0.65969794  0.66241377  1
  Cr  Cr53  1  0.82880626  0.83159200  0.82839358  1
" 