6166,Ni10Fe70Cr18_3,-225.098331956903, 164.429922794884,Ni10Fe70Cr18,"# generated using pymatgen
 data_Cr11Fe38Ni5
_symmetry_space_group_name_H-M   'P 1'
_cell_length_a   7.46149832
_cell_length_b   7.46149832
_cell_length_c   10.55215212
_cell_angle_alpha   90.00000000
_cell_angle_beta   90.00000000
_cell_angle_gamma   90.00000000
_symmetry_Int_Tables_number   1
_chemical_formula_structural   Cr11Fe38Ni5
_chemical_formula_sum   'Cr11 Fe38 Ni5'
_cell_volume   587.48006556
_cell_formula_units_Z   1
loop_
 _symmetry_equiv_pos_site_id
 _symmetry_equiv_pos_as_xyz
  1  'x, y, z'
loop_
 _atom_site_type_symbol
 _atom_site_label
 _atom_site_symmetry_multiplicity
 _atom_site_fract_x
 _atom_site_fract_y
 _atom_site_fract_z
 _atom_site_occupancy
  Cr  Cr0  1  0.99849940  0.00132812  0.00088496  1
  Fe  Fe1  1  0.16628576  0.16792226  0.16788338  1
  Fe  Fe2  1  1.00027542  0.00047373  0.33450525  1
  Ni  Ni3  1  0.00258870  0.33559267  0.00045197  1
  Fe  Fe4  1  0.16645320  0.49943972  0.16597105  1
  Fe  Fe5  1  1.00035482  0.33303505  0.33361985  1
  Fe  Fe6  1  0.99967039  0.66540868  0.00042113  1
  Fe  Fe7  1  0.16601847  0.83375422  0.16704847  1
  Fe  Fe8  1  0.99851959  0.66760646  0.33365539  1
  Fe  Fe9  1  0.33401984  0.00109025  0.99905978  1
  Cr  Cr10  1  0.49935629  0.16640919  0.16749168  1
  Fe  Fe11  1  0.33147959  0.00197211  0.33403628  1
  Fe  Fe12  1  0.33085162  0.33300070  1.00020100  1
  Fe  Fe13  1  0.50027561  0.50042118  0.16693572  1
  Fe  Fe14  1  0.33271908  0.33285456  0.33426257  1
  Fe  Fe15  1  0.33244851  0.66702473  0.00055939  1
  Cr  Cr16  1  0.50208254  0.83438291  0.16498660  1
  Cr  Cr17  1  0.33289802  0.66471063  0.33455931  1
  Ni  Ni18  1  0.66680364  0.99851025  0.99882841  1
  Fe  Fe19  1  0.83441046  0.16652650  0.16793531  1
  Ni  Ni20  1  0.67081907  0.00072754  0.33291961  1
  Cr  Cr21  1  0.66864879  0.33235274  0.99947398  1
  Fe  Fe22  1  0.83439020  0.50069591  0.16732613  1
  Fe  Fe23  1  0.66803892  0.33460855  0.33361674  1
  Fe  Fe24  1  0.66899824  0.66857840  1.00033829  1
  Fe  Fe25  1  0.83343245  0.83389415  0.16773226  1
  Fe  Fe26  1  0.66954350  0.66636168  0.33375066  1
  Ni  Ni27  1  0.16530930  0.16570870  0.49865094  1
  Ni  Ni28  1  0.00101529  0.99869537  0.66573434  1
  Fe  Fe29  1  0.16722215  0.16662881  0.83376922  1
  Fe  Fe30  1  0.16683017  0.50035355  0.49970746  1
  Cr  Cr31  1  0.99962710  0.33254623  0.66785379  1
  Fe  Fe32  1  0.16546122  0.50134657  0.83543870  1
  Fe  Fe33  1  0.16500431  0.83547158  0.50141972  1
  Fe  Fe34  1  1.00033873  0.66902047  0.66703887  1
  Fe  Fe35  1  0.16760826  0.83314142  0.83264763  1
  Cr  Cr36  1  0.49937617  0.16778823  0.49924637  1
  Fe  Fe37  1  0.32988720  0.99959382  0.66801125  1
  Fe  Fe38  1  0.50010539  0.16476750  0.83471859  1
  Fe  Fe39  1  0.50109219  0.49983190  0.50060505  1
  Cr  Cr40  1  0.33355796  0.33521644  0.66625255  1
  Cr  Cr41  1  0.50123774  0.50125901  0.83338481  1
  Cr  Cr42  1  0.50038567  0.83312468  0.50111855  1
  Fe  Fe43  1  0.33196371  0.66884756  0.66688750  1
  Fe  Fe44  1  0.50005473  0.83467015  0.83473414  1
  Fe  Fe45  1  0.83543678  0.16622320  0.49911162  1
  Cr  Cr46  1  0.66936431  0.00075846  0.66981879  1
  Fe  Fe47  1  0.83378746  0.16691797  0.83406871  1
  Fe  Fe48  1  0.83319253  0.50047254  0.49977790  1
  Fe  Fe49  1  0.66879393  0.33459999  0.66721073  1
  Fe  Fe50  1  0.83531650  0.50129292  0.83401164  1
  Fe  Fe51  1  0.83596446  0.83441780  0.49972314  1
  Fe  Fe52  1  0.66881439  0.66580021  0.66702215  1
  Fe  Fe53  1  0.83345077  0.83290254  0.83366117  1
" 