8322,Ni10Fe61Cr28_11,-223.399110910938, 171.91755244596,Ni10Fe61Cr28,"# generated using pymatgen
 data_Cr16Fe33Ni5
_symmetry_space_group_name_H-M   'P 1'
_cell_length_a   7.47835750
_cell_length_b   7.47835750
_cell_length_c   10.57599460
_cell_angle_alpha   90.00000000
_cell_angle_beta   90.00000000
_cell_angle_gamma   90.00000000
_symmetry_Int_Tables_number   1
_chemical_formula_structural   Cr16Fe33Ni5
_chemical_formula_sum   'Cr16 Fe33 Ni5'
_cell_volume   591.47128469
_cell_formula_units_Z   1
loop_
 _symmetry_equiv_pos_site_id
 _symmetry_equiv_pos_as_xyz
  1  'x, y, z'
loop_
 _atom_site_type_symbol
 _atom_site_label
 _atom_site_symmetry_multiplicity
 _atom_site_fract_x
 _atom_site_fract_y
 _atom_site_fract_z
 _atom_site_occupancy
  Fe  Fe0  1  0.00091106  0.00157907  0.00060737  1
  Fe  Fe1  1  0.16553396  0.16465775  0.16663768  1
  Fe  Fe2  1  0.00285235  -0.00039659  0.33400968  1
  Fe  Fe3  1  0.00191086  0.33200904  0.00059488  1
  Fe  Fe4  1  0.16718284  0.50114512  0.16438860  1
  Cr  Cr5  1  0.99820148  0.33367024  0.33160344  1
  Fe  Fe6  1  0.00238134  0.66457071  0.00040769  1
  Fe  Fe7  1  0.16782475  0.83143871  0.16723454  1
  Fe  Fe8  1  0.00174214  0.66821471  0.33409769  1
  Cr  Cr9  1  0.33342930  -0.00050205  0.00040536  1
  Fe  Fe10  1  0.49715744  0.16685151  0.16688929  1
  Ni  Ni11  1  0.33199677  0.99749610  0.33193547  1
  Ni  Ni12  1  0.32722166  0.33249946  0.99865742  1
  Fe  Fe13  1  0.49582019  0.50071109  0.16494363  1
  Cr  Cr14  1  0.33027451  0.33185823  0.33312828  1
  Fe  Fe15  1  0.33423889  0.66417561  -0.00021023  1
  Fe  Fe16  1  0.49772818  0.82907509  0.16723135  1
  Fe  Fe17  1  0.33229188  0.66735335  0.33397676  1
  Cr  Cr18  1  0.66361154  0.99558813  0.99766478  1
  Fe  Fe19  1  0.83374284  0.16503767  0.16583374  1
  Cr  Cr20  1  0.66413483  0.99828185  0.33241791  1
  Cr  Cr21  1  0.66522737  0.33212553  0.00224620  1
  Cr  Cr22  1  0.82975150  0.49992655  0.16564470  1
  Fe  Fe23  1  0.66350802  0.33229641  0.33324195  1
  Ni  Ni24  1  0.66563999  0.66706758  0.00036307  1
  Cr  Cr25  1  0.83555538  0.83268051  0.16492120  1
  Fe  Fe26  1  0.66349138  0.66442238  0.33373128  1
  Ni  Ni27  1  0.16654722  0.16387101  0.49931878  1
  Fe  Fe28  1  0.00010376  0.99803922  0.66282520  1
  Fe  Fe29  1  0.16715385  0.16840207  0.83237351  1
  Fe  Fe30  1  0.16721266  0.50049320  0.49996318  1
  Cr  Cr31  1  0.00086735  0.33449218  0.66600167  1
  Fe  Fe32  1  0.16640964  0.49956586  0.83303573  1
  Fe  Fe33  1  0.16715044  0.83287359  0.49869475  1
  Fe  Fe34  1  0.00238921  0.66690044  0.66308303  1
  Cr  Cr35  1  0.16581201  0.83226322  0.83246567  1
  Fe  Fe36  1  0.49805848  0.16577712  0.49880283  1
  Cr  Cr37  1  0.33481648  -0.00031556  0.66650275  1
  Fe  Fe38  1  0.49761754  0.16664048  0.83192639  1
  Fe  Fe39  1  0.49757466  0.49893998  0.50004931  1
  Fe  Fe40  1  0.33284803  0.33418231  0.66442199  1
  Cr  Cr41  1  0.49644889  0.49774108  0.83308452  1
  Fe  Fe42  1  0.49619753  0.83239343  0.49820817  1
  Ni  Ni43  1  0.33194597  0.66564270  0.66485558  1
  Fe  Fe44  1  0.49950449  0.83047025  0.83211029  1
  Fe  Fe45  1  0.83327468  0.16553621  0.49997257  1
  Fe  Fe46  1  0.66610978  0.00046896  0.66387092  1
  Cr  Cr47  1  0.83323504  0.16458285  0.83220099  1
  Fe  Fe48  1  0.83238599  0.49927373  0.49812202  1
  Fe  Fe49  1  0.66323701  0.33184836  0.66384943  1
  Cr  Cr50  1  0.83231800  0.50043078  0.83488699  1
  Fe  Fe51  1  0.83505579  0.83360373  0.49837771  1
  Cr  Cr52  1  0.66642629  0.66841822  0.66485761  1
  Cr  Cr53  1  0.83510333  0.83279742  0.83270124  1
" 