505,Ni10Fe61Cr28_4,-223.332962953411, 164.901987399173,Ni10Fe61Cr28,"# generated using pymatgen
 data_Cr16Fe33Ni5
_symmetry_space_group_name_H-M   'P 1'
_cell_length_a   7.48836511
_cell_length_b   7.48836511
_cell_length_c   10.59014750
_cell_angle_alpha   90.00000000
_cell_angle_beta   90.00000000
_cell_angle_gamma   90.00000000
_symmetry_Int_Tables_number   1
_chemical_formula_structural   Cr16Fe33Ni5
_chemical_formula_sum   'Cr16 Fe33 Ni5'
_cell_volume   593.84900195
_cell_formula_units_Z   1
loop_
 _symmetry_equiv_pos_site_id
 _symmetry_equiv_pos_as_xyz
  1  'x, y, z'
loop_
 _atom_site_type_symbol
 _atom_site_label
 _atom_site_symmetry_multiplicity
 _atom_site_fract_x
 _atom_site_fract_y
 _atom_site_fract_z
 _atom_site_occupancy
  Cr  Cr0  1  0.00073323  0.99846809  -0.00016271  1
  Ni  Ni1  1  0.16564353  0.16748551  0.16577287  1
  Fe  Fe2  1  -0.00133723  -0.00039307  0.33074647  1
  Cr  Cr3  1  -0.00088734  0.33386331  0.00122367  1
  Fe  Fe4  1  0.16663403  0.49805841  0.16553724  1
  Fe  Fe5  1  0.00020925  0.33179568  0.33183930  1
  Fe  Fe6  1  -0.00002835  0.66401359  -0.00068123  1
  Fe  Fe7  1  0.16463017  0.83085265  0.16668305  1
  Fe  Fe8  1  -0.00072308  0.66436557  0.33210085  1
  Cr  Cr9  1  0.33241938  0.99782397  0.99721502  1
  Fe  Fe10  1  0.49723408  0.16589536  0.16551334  1
  Cr  Cr11  1  0.33105565  0.99756491  0.33273088  1
  Ni  Ni12  1  0.33220790  0.33300668  -0.00136686  1
  Fe  Fe13  1  0.49611704  0.49868740  0.16506933  1
  Fe  Fe14  1  0.33018051  0.33152507  0.33039202  1
  Fe  Fe15  1  0.33164764  0.66287530  0.99834105  1
  Fe  Fe16  1  0.49923906  0.83118464  0.16546659  1
  Fe  Fe17  1  0.33013007  0.66411142  0.33123283  1
  Fe  Fe18  1  0.66366291  0.99822318  -0.00021350  1
  Fe  Fe19  1  0.83271079  0.16381701  0.16635531  1
  Fe  Fe20  1  0.66602273  -0.00072444  0.33115015  1
  Cr  Cr21  1  0.66555453  0.33352448  0.99773230  1
  Fe  Fe22  1  0.83318092  0.50011902  0.16681346  1
  Cr  Cr23  1  0.66814119  0.33219191  0.33347558  1
  Fe  Fe24  1  0.66410152  0.66551139  -0.00082269  1
  Fe  Fe25  1  0.83188381  0.83195199  0.16581869  1
  Fe  Fe26  1  0.66629943  0.66543185  0.33048003  1
  Fe  Fe27  1  0.16493291  0.16562534  0.49723190  1
  Fe  Fe28  1  0.00086495  0.99726482  0.66453124  1
  Fe  Fe29  1  0.16705979  0.16671835  0.83252608  1
  Fe  Fe30  1  0.16384049  0.49931239  0.49717536  1
  Cr  Cr31  1  0.99681774  0.33345908  0.66371444  1
  Fe  Fe32  1  0.16587398  0.49866284  0.83304702  1
  Ni  Ni33  1  0.16165548  0.83164874  0.49846040  1
  Fe  Fe34  1  -0.00001789  0.66558334  0.66444043  1
  Fe  Fe35  1  0.16480635  0.83061917  0.83130232  1
  Ni  Ni36  1  0.49758021  0.16815428  0.49929009  1
  Cr  Cr37  1  0.32989268  0.99850607  0.66583442  1
  Fe  Fe38  1  0.49698125  0.16705763  0.83162864  1
  Cr  Cr39  1  0.49710043  0.49557992  0.49800534  1
  Fe  Fe40  1  0.33314552  0.33096131  0.66642818  1
  Fe  Fe41  1  0.49758382  0.49758476  0.83281307  1
  Cr  Cr42  1  0.49842160  0.83208390  0.49589829  1
  Cr  Cr43  1  0.32983541  0.66710132  0.66533857  1
  Fe  Fe44  1  0.49857719  0.83122131  0.83363107  1
  Fe  Fe45  1  0.83199779  0.16594321  0.49813906  1
  Cr  Cr46  1  0.66296659  0.00084089  0.66381436  1
  Cr  Cr47  1  0.83149469  0.16422402  0.83109299  1
  Ni  Ni48  1  0.83427274  0.49804243  0.49895449  1
  Fe  Fe49  1  0.66353684  0.33185723  0.66435616  1
  Fe  Fe50  1  0.83225092  0.49966167  0.83131092  1
  Cr  Cr51  1  0.83513885  0.83203227  0.49788679  1
  Cr  Cr52  1  0.66652810  0.66130218  0.66543630  1
  Cr  Cr53  1  0.83333594  0.83085843  0.83240675  1
" 