1525,Ni10Fe30Cr59_0,-214.86981862303, 182.608201023888,Ni10Fe30Cr59,"# generated using pymatgen
 data_Cr33Fe16Ni5
_symmetry_space_group_name_H-M   'P 1'
_cell_length_a   7.54289917
_cell_length_b   7.54289917
_cell_length_c   10.66727031
_cell_angle_alpha   90.00000000
_cell_angle_beta   90.00000000
_cell_angle_gamma   90.00000000
_symmetry_Int_Tables_number   1
_chemical_formula_structural   Cr33Fe16Ni5
_chemical_formula_sum   'Cr33 Fe16 Ni5'
_cell_volume   606.91784219
_cell_formula_units_Z   1
loop_
 _symmetry_equiv_pos_site_id
 _symmetry_equiv_pos_as_xyz
  1  'x, y, z'
loop_
 _atom_site_type_symbol
 _atom_site_label
 _atom_site_symmetry_multiplicity
 _atom_site_fract_x
 _atom_site_fract_y
 _atom_site_fract_z
 _atom_site_occupancy
  Cr  Cr0  1  0.99389799  0.99342401  -0.00261001  1
  Cr  Cr1  1  0.16306586  0.15861507  0.16013804  1
  Cr  Cr2  1  0.99124632  0.99326105  0.32485335  1
  Cr  Cr3  1  -0.00482860  0.32586305  0.99472790  1
  Cr  Cr4  1  0.16057633  0.49561803  0.16227924  1
  Cr  Cr5  1  -0.00485078  0.32809648  0.32679245  1
  Fe  Fe6  1  0.99367432  0.66135515  -0.00263287  1
  Ni  Ni7  1  0.16001883  0.82530020  0.16172360  1
  Fe  Fe8  1  0.99450970  0.66259405  0.32674775  1
  Fe  Fe9  1  0.32795829  -0.00339152  0.99471387  1
  Cr  Cr10  1  0.49490943  0.16148945  0.16518545  1
  Fe  Fe11  1  0.32852991  0.99435407  0.32705999  1
  Cr  Cr12  1  0.32952363  0.32998743  0.99260954  1
  Ni  Ni13  1  0.49838942  0.49687926  0.16125441  1
  Cr  Cr14  1  0.33084501  0.33305867  0.32815085  1
  Cr  Cr15  1  0.32891377  0.65846616  -0.00461252  1
  Cr  Cr16  1  0.49181934  0.82977561  0.16009926  1
  Fe  Fe17  1  0.32822997  0.66342214  0.32523233  1
  Cr  Cr18  1  0.66509745  0.99492102  0.99471088  1
  Ni  Ni19  1  0.82618348  0.16306327  0.16288919  1
  Ni  Ni20  1  0.66218692  -0.00474204  0.32835093  1
  Cr  Cr21  1  0.65974609  0.32857108  -0.00075340  1
  Fe  Fe22  1  0.82820718  0.49540878  0.16125784  1
  Fe  Fe23  1  0.66335562  0.32724470  0.32546572  1
  Fe  Fe24  1  0.66303336  0.66019764  -0.00242079  1
  Fe  Fe25  1  0.82752243  0.82805549  0.16161211  1
  Cr  Cr26  1  0.66183146  0.66254309  0.32484472  1
  Cr  Cr27  1  0.16235797  0.16262530  0.49471499  1
  Cr  Cr28  1  0.99414914  -0.00358510  0.66377787  1
  Ni  Ni29  1  0.16223367  0.16514310  0.82911836  1
  Fe  Fe30  1  0.16149352  0.49494634  0.49256249  1
  Fe  Fe31  1  -0.00373535  0.32805098  0.66435851  1
  Fe  Fe32  1  0.15949048  0.49571794  0.82884774  1
  Cr  Cr33  1  0.16364575  0.82861380  0.49080059  1
  Cr  Cr34  1  -0.00180616  0.66114554  0.65899242  1
  Cr  Cr35  1  0.16287955  0.83059092  0.83114095  1
  Fe  Fe36  1  0.49548178  0.16127987  0.49175847  1
  Cr  Cr37  1  0.32873512  -0.00305047  0.66259038  1
  Fe  Fe38  1  0.49445425  0.16114376  0.82993979  1
  Cr  Cr39  1  0.49737201  0.49513226  0.49272547  1
  Cr  Cr40  1  0.32696283  0.33054236  0.66402382  1
  Fe  Fe41  1  0.49505740  0.49412682  0.83015816  1
  Cr  Cr42  1  0.49402014  0.83026150  0.49388954  1
  Cr  Cr43  1  0.32763572  0.65790041  0.66001194  1
  Cr  Cr44  1  0.49456871  0.82754720  0.82980876  1
  Cr  Cr45  1  0.82787389  0.16430671  0.49550288  1
  Cr  Cr46  1  0.66267843  -0.00371967  0.66164987  1
  Fe  Fe47  1  0.82972124  0.16187444  0.82960278  1
  Cr  Cr48  1  0.82966940  0.49297622  0.49466438  1
  Cr  Cr49  1  0.65815117  0.32613027  0.66244022  1
  Cr  Cr50  1  0.82770557  0.49307886  0.82917321  1
  Cr  Cr51  1  0.82700171  0.82705658  0.49619852  1
  Cr  Cr52  1  0.65917481  0.66119272  0.66392554  1
  Cr  Cr53  1  0.82792186  0.82402733  0.82843991  1
" 