3141,Ni10Fe35Cr53_0,-216.309254847632, 177.212437347045,Ni10Fe35Cr53,"# generated using pymatgen
 data_Cr30Fe19Ni5
_symmetry_space_group_name_H-M   'P 1'
_cell_length_a   7.53142284
_cell_length_b   7.53142284
_cell_length_c   10.65104033
_cell_angle_alpha   90.00000000
_cell_angle_beta   90.00000000
_cell_angle_gamma   90.00000000
_symmetry_Int_Tables_number   1
_chemical_formula_structural   Cr30Fe19Ni5
_chemical_formula_sum   'Cr30 Fe19 Ni5'
_cell_volume   604.15182433
_cell_formula_units_Z   1
loop_
 _symmetry_equiv_pos_site_id
 _symmetry_equiv_pos_as_xyz
  1  'x, y, z'
loop_
 _atom_site_type_symbol
 _atom_site_label
 _atom_site_symmetry_multiplicity
 _atom_site_fract_x
 _atom_site_fract_y
 _atom_site_fract_z
 _atom_site_occupancy
  Fe  Fe0  1  0.99566564  -0.00367432  0.99531696  1
  Cr  Cr1  1  0.16288276  0.16654348  0.16076976  1
  Cr  Cr2  1  -0.00390364  -0.00410291  0.33085849  1
  Ni  Ni3  1  0.99503873  0.33197885  0.99524895  1
  Ni  Ni4  1  0.16401375  0.49267608  0.16085436  1
  Cr  Cr5  1  0.99215849  0.32960926  0.32967478  1
  Cr  Cr6  1  -0.00295588  0.66024301  -0.00276752  1
  Cr  Cr7  1  0.16353165  0.82983051  0.16377410  1
  Cr  Cr8  1  -0.00249392  0.65955349  0.32494123  1
  Cr  Cr9  1  0.33072199  -0.00297378  0.99518440  1
  Ni  Ni10  1  0.49571375  0.16814170  0.16134154  1
  Cr  Cr11  1  0.32975292  -0.00329233  0.33076972  1
  Fe  Fe12  1  0.33101740  0.33085827  -0.00363170  1
  Cr  Cr13  1  0.49390615  0.49624349  0.16638304  1
  Fe  Fe14  1  0.32838461  0.32884216  0.32951679  1
  Cr  Cr15  1  0.32561843  0.66288775  0.99339170  1
  Cr  Cr16  1  0.49594082  0.82836342  0.16525066  1
  Ni  Ni17  1  0.32844875  0.65855442  0.33070514  1
  Cr  Cr18  1  0.65989804  -0.00086305  0.99543390  1
  Cr  Cr19  1  0.83109569  0.16319137  0.15944571  1
  Cr  Cr20  1  0.66158540  0.00166393  0.32845484  1
  Ni  Ni21  1  0.66392297  0.32706908  -0.00278455  1
  Fe  Fe22  1  0.82905956  0.49197579  0.16150879  1
  Fe  Fe23  1  0.65959074  0.33060931  0.32874866  1
  Cr  Cr24  1  0.66352118  0.65899405  -0.00263043  1
  Cr  Cr25  1  0.82756373  0.82923618  0.16211146  1
  Fe  Fe26  1  0.66299436  0.66131023  0.32915689  1
  Fe  Fe27  1  0.16128619  0.16110147  0.49672534  1
  Fe  Fe28  1  -0.00197261  -0.00269567  0.66064528  1
  Cr  Cr29  1  0.16261836  0.16563661  0.83245254  1
  Cr  Cr30  1  0.16443511  0.49173348  0.49637367  1
  Fe  Fe31  1  -0.00211795  0.32836909  0.66203450  1
  Fe  Fe32  1  0.15974972  0.49480906  0.82969959  1
  Fe  Fe33  1  0.16194598  0.82634658  0.49504257  1
  Fe  Fe34  1  -0.00408162  0.66183786  0.66259378  1
  Fe  Fe35  1  0.15938952  0.83110739  0.82860236  1
  Fe  Fe36  1  0.49591802  0.16455718  0.49403347  1
  Cr  Cr37  1  0.33030563  -0.00413555  0.66173525  1
  Fe  Fe38  1  0.49773876  0.16404620  0.83059944  1
  Fe  Fe39  1  0.49565962  0.49449543  0.49392362  1
  Cr  Cr40  1  0.33099858  0.32797199  0.66277120  1
  Cr  Cr41  1  0.49476784  0.49441447  0.82919392  1
  Cr  Cr42  1  0.49636666  0.82505588  0.49426526  1
  Cr  Cr43  1  0.32514418  0.66270746  0.66473490  1
  Cr  Cr44  1  0.49759276  0.82842507  0.82818549  1
  Fe  Fe45  1  0.82971053  0.16280310  0.49738504  1
  Fe  Fe46  1  0.66151415  -0.00305172  0.66102873  1
  Cr  Cr47  1  0.83216103  0.16191893  0.82864295  1
  Cr  Cr48  1  0.82747862  0.49631538  0.49671207  1
  Cr  Cr49  1  0.66366714  0.32638331  0.66067793  1
  Cr  Cr50  1  0.82901020  0.49479099  0.82782794  1
  Cr  Cr51  1  0.82818807  0.83005247  0.49824831  1
  Fe  Fe52  1  0.66053294  0.66085887  0.66202760  1
  Cr  Cr53  1  0.82853457  0.82989135  0.82602565  1
" 