4683,Ni10Fe30Cr59_7,-214.652968741932, 179.607094803222,Ni10Fe30Cr59,"# generated using pymatgen
 data_Cr33Fe16Ni5
_symmetry_space_group_name_H-M   'P 1'
_cell_length_a   7.54093570
_cell_length_b   7.54093570
_cell_length_c   10.66449355
_cell_angle_alpha   90.00000000
_cell_angle_beta   90.00000000
_cell_angle_gamma   90.00000000
_symmetry_Int_Tables_number   1
_chemical_formula_structural   Cr33Fe16Ni5
_chemical_formula_sum   'Cr33 Fe16 Ni5'
_cell_volume   606.44401115
_cell_formula_units_Z   1
loop_
 _symmetry_equiv_pos_site_id
 _symmetry_equiv_pos_as_xyz
  1  'x, y, z'
loop_
 _atom_site_type_symbol
 _atom_site_label
 _atom_site_symmetry_multiplicity
 _atom_site_fract_x
 _atom_site_fract_y
 _atom_site_fract_z
 _atom_site_occupancy
  Cr  Cr0  1  0.99154609  0.99371153  -0.00321302  1
  Cr  Cr1  1  0.16242405  0.15994070  0.16262525  1
  Cr  Cr2  1  0.99409958  0.99364090  0.32723975  1
  Cr  Cr3  1  0.99480868  0.33062950  -0.00202449  1
  Fe  Fe4  1  0.15833791  0.49771701  0.16078043  1
  Cr  Cr5  1  0.99208684  0.32944301  0.32731464  1
  Ni  Ni6  1  0.99132258  0.66050670  -0.00375756  1
  Fe  Fe7  1  0.16029970  0.82568044  0.16020544  1
  Cr  Cr8  1  -0.00483262  0.66183436  0.32784192  1
  Cr  Cr9  1  0.33173469  -0.00481552  0.99502215  1
  Fe  Fe10  1  0.49993721  0.16189256  0.16135986  1
  Fe  Fe11  1  0.32810271  0.99455989  0.32714864  1
  Cr  Cr12  1  0.32965668  0.32928852  0.99411589  1
  Cr  Cr13  1  0.49984866  0.49552084  0.16181635  1
  Cr  Cr14  1  0.32969187  0.32935033  0.32601690  1
  Cr  Cr15  1  0.32727777  0.66073517  -0.00384378  1
  Cr  Cr16  1  0.49666169  0.82878124  0.16271858  1
  Cr  Cr17  1  0.32751105  0.66339983  0.32649744  1
  Fe  Fe18  1  0.66062941  0.99398478  0.99368608  1
  Fe  Fe19  1  0.82339911  0.16396581  0.16178980  1
  Fe  Fe20  1  0.66134268  -0.00399097  0.32698352  1
  Fe  Fe21  1  0.66280060  0.32965654  -0.00386961  1
  Ni  Ni22  1  0.82674127  0.49560767  0.16189271  1
  Fe  Fe23  1  0.66394934  0.32908223  0.32641068  1
  Ni  Ni24  1  0.66421423  0.66344888  0.99487384  1
  Cr  Cr25  1  0.82719257  0.82603355  0.15801349  1
  Fe  Fe26  1  0.66492802  0.66010367  0.32669900  1
  Cr  Cr27  1  0.16333517  0.15812444  0.49801081  1
  Cr  Cr28  1  0.99264467  0.99239984  0.66083299  1
  Cr  Cr29  1  0.16270376  0.16180021  0.82479800  1
  Cr  Cr30  1  0.16077439  0.49542177  0.49852624  1
  Cr  Cr31  1  0.99360314  0.33068006  0.66061108  1
  Fe  Fe32  1  0.15926030  0.49690782  0.82869077  1
  Fe  Fe33  1  0.16213112  0.82808338  0.49622803  1
  Ni  Ni34  1  -0.00443220  0.66333562  0.66180316  1
  Cr  Cr35  1  0.15856779  0.82716029  0.82780372  1
  Cr  Cr36  1  0.49324890  0.16059718  0.49309617  1
  Fe  Fe37  1  0.33035579  0.99340397  0.66337636  1
  Ni  Ni38  1  0.49568255  0.15910899  0.83082985  1
  Cr  Cr39  1  0.49905337  0.49624854  0.49220615  1
  Cr  Cr40  1  0.33083503  0.32854636  0.66548270  1
  Cr  Cr41  1  0.49724132  0.49602315  0.83016746  1
  Cr  Cr42  1  0.49419854  0.82873868  0.49292589  1
  Cr  Cr43  1  0.32863269  0.66299926  0.66294506  1
  Fe  Fe44  1  0.49742769  0.82963001  0.83076345  1
  Cr  Cr45  1  0.82854744  0.16256731  0.49285105  1
  Cr  Cr46  1  0.66014849  0.99462955  0.66704165  1
  Cr  Cr47  1  0.82798058  0.16119623  0.83162840  1
  Fe  Fe48  1  0.82844465  0.49645866  0.49419533  1
  Cr  Cr49  1  0.66113018  0.32692554  0.66020888  1
  Cr  Cr50  1  0.82956210  0.49950793  0.82817327  1
  Cr  Cr51  1  0.82860903  0.82535674  0.49615151  1
  Cr  Cr52  1  0.66281416  0.66377776  0.66099445  1
  Fe  Fe53  1  0.82723381  0.82610836  0.83076051  1
" 