1394,Ni10Fe70Cr18_5,-224.608820110263, 157.627021216227,Ni10Fe70Cr18,"# generated using pymatgen
 data_Cr11Fe38Ni5
_symmetry_space_group_name_H-M   'P 1'
_cell_length_a   7.46297904
_cell_length_b   7.46297904
_cell_length_c   10.55424617
_cell_angle_alpha   90.00000000
_cell_angle_beta   90.00000000
_cell_angle_gamma   90.00000000
_symmetry_Int_Tables_number   1
_chemical_formula_structural   Cr11Fe38Ni5
_chemical_formula_sum   'Cr11 Fe38 Ni5'
_cell_volume   587.82988684
_cell_formula_units_Z   1
loop_
 _symmetry_equiv_pos_site_id
 _symmetry_equiv_pos_as_xyz
  1  'x, y, z'
loop_
 _atom_site_type_symbol
 _atom_site_label
 _atom_site_symmetry_multiplicity
 _atom_site_fract_x
 _atom_site_fract_y
 _atom_site_fract_z
 _atom_site_occupancy
  Fe  Fe0  1  0.00137315  0.00185334  0.99996542  1
  Ni  Ni1  1  0.16702315  0.16893907  0.16589020  1
  Cr  Cr2  1  0.00424414  0.00186631  0.33355669  1
  Fe  Fe3  1  0.99895131  0.33149923  0.00028600  1
  Cr  Cr4  1  0.16785501  0.49989781  0.16727898  1
  Fe  Fe5  1  0.00172320  0.33347150  0.33471995  1
  Fe  Fe6  1  0.99973631  0.66764473  0.99941052  1
  Fe  Fe7  1  0.16807423  0.83544823  0.16574006  1
  Fe  Fe8  1  0.00224656  0.66559641  0.33482430  1
  Fe  Fe9  1  0.33251423  0.00141186  0.00041980  1
  Fe  Fe10  1  0.49779769  0.16730214  0.16683608  1
  Ni  Ni11  1  0.33164905  0.99976736  0.33250265  1
  Fe  Fe12  1  0.33422353  0.33064087  0.00095289  1
  Fe  Fe13  1  0.49942189  0.49862671  0.16497959  1
  Fe  Fe14  1  0.33268211  0.33250059  0.33387157  1
  Fe  Fe15  1  0.33354310  0.66898196  0.00028980  1
  Cr  Cr16  1  0.50140961  0.83455032  0.16842664  1
  Fe  Fe17  1  0.33247698  0.66768897  0.33599673  1
  Fe  Fe18  1  0.66707286  0.00218101  0.99825615  1
  Fe  Fe19  1  0.83504235  0.16818909  0.16609884  1
  Fe  Fe20  1  0.66568189  0.00161793  0.33442899  1
  Fe  Fe21  1  0.66767373  0.33260276  0.00122755  1
  Fe  Fe22  1  0.83513224  0.49917262  0.16434840  1
  Cr  Cr23  1  0.66872379  0.33492314  0.33171050  1
  Fe  Fe24  1  0.66759585  0.66619167  0.99992076  1
  Cr  Cr25  1  0.83386776  0.83515830  0.16763648  1
  Cr  Cr26  1  0.66658708  0.66265417  0.33484777  1
  Fe  Fe27  1  0.16781361  0.16809324  0.49967997  1
  Fe  Fe28  1  0.99924726  0.00172997  0.66772238  1
  Fe  Fe29  1  0.16632333  0.16647903  0.83563599  1
  Fe  Fe30  1  0.16643182  0.49990110  0.50074701  1
  Fe  Fe31  1  0.99995891  0.33176980  0.66591222  1
  Cr  Cr32  1  0.16690250  0.49829910  0.83315381  1
  Fe  Fe33  1  0.16923012  0.83279901  0.50016717  1
  Fe  Fe34  1  0.00060247  0.66779196  0.66693904  1
  Fe  Fe35  1  0.16590839  0.83330640  0.83489508  1
  Cr  Cr36  1  0.50160681  0.16557075  0.49910210  1
  Cr  Cr37  1  0.33136094  0.99957868  0.66846266  1
  Fe  Fe38  1  0.50074181  0.16669521  0.83412872  1
  Ni  Ni39  1  0.49629796  0.50057570  0.50133386  1
  Fe  Fe40  1  0.33295235  0.33357393  0.66555092  1
  Cr  Cr41  1  0.49876448  0.49953180  0.83357033  1
  Ni  Ni42  1  0.49950582  0.83254608  0.50063336  1
  Fe  Fe43  1  0.33347234  0.66687947  0.66526150  1
  Fe  Fe44  1  0.50099412  0.83401618  0.83412216  1
  Ni  Ni45  1  0.83610730  0.16748451  0.50085049  1
  Fe  Fe46  1  0.66749552  0.00069606  0.66828777  1
  Fe  Fe47  1  0.83360081  0.16801140  0.83237983  1
  Fe  Fe48  1  0.83262052  0.49874625  0.50260493  1
  Fe  Fe49  1  0.66773278  0.33357370  0.66566395  1
  Fe  Fe50  1  0.83328828  0.50006603  0.83347956  1
  Cr  Cr51  1  0.83240056  0.83676100  0.50031525  1
  Fe  Fe52  1  0.66533019  0.66698144  0.66604711  1
  Fe  Fe53  1  0.83370569  0.83288362  0.83364902  1
" 