6052,Ni10Fe30Cr59_18,-214.814608653323, 179.482156683878,Ni10Fe30Cr59,"# generated using pymatgen
 data_Cr33Fe16Ni5
_symmetry_space_group_name_H-M   'P 1'
_cell_length_a   7.54900992
_cell_length_b   7.54900992
_cell_length_c   10.67591220
_cell_angle_alpha   90.00000000
_cell_angle_beta   90.00000000
_cell_angle_gamma   90.00000000
_symmetry_Int_Tables_number   1
_chemical_formula_structural   Cr33Fe16Ni5
_chemical_formula_sum   'Cr33 Fe16 Ni5'
_cell_volume   608.39408809
_cell_formula_units_Z   1
loop_
 _symmetry_equiv_pos_site_id
 _symmetry_equiv_pos_as_xyz
  1  'x, y, z'
loop_
 _atom_site_type_symbol
 _atom_site_label
 _atom_site_symmetry_multiplicity
 _atom_site_fract_x
 _atom_site_fract_y
 _atom_site_fract_z
 _atom_site_occupancy
  Fe  Fe0  1  -0.00392111  -0.00532019  -0.00521058  1
  Cr  Cr1  1  0.16102407  0.16142862  0.15895833  1
  Cr  Cr2  1  -0.00254896  0.99095002  0.32990274  1
  Ni  Ni3  1  -0.00443067  0.32909085  -0.00509785  1
  Cr  Cr4  1  0.16168791  0.49617455  0.16369137  1
  Cr  Cr5  1  -0.00415083  0.32828776  0.32593742  1
  Fe  Fe6  1  -0.00376395  0.66035429  -0.00499541  1
  Fe  Fe7  1  0.16233783  0.82676314  0.16024882  1
  Fe  Fe8  1  -0.00327293  0.66447768  0.32869233  1
  Fe  Fe9  1  0.32850539  -0.00533104  0.99409523  1
  Cr  Cr10  1  0.49427888  0.15853073  0.16322724  1
  Cr  Cr11  1  0.32608764  0.99181910  0.32706346  1
  Cr  Cr12  1  0.32783921  0.32842835  0.99233795  1
  Cr  Cr13  1  0.49239690  0.49785878  0.16320432  1
  Fe  Fe14  1  0.32880821  0.32691564  0.32887940  1
  Fe  Fe15  1  0.32729433  0.66161106  -0.00460566  1
  Fe  Fe16  1  0.49259340  0.82746592  0.15900558  1
  Fe  Fe17  1  0.32522274  0.66328055  0.32823169  1
  Fe  Fe18  1  0.65904875  -0.00472123  0.99408450  1
  Cr  Cr19  1  0.82853881  0.16022116  0.15826652  1
  Cr  Cr20  1  0.66021493  0.99331134  0.33030344  1
  Cr  Cr21  1  0.66050510  0.32995432  0.99230711  1
  Cr  Cr22  1  0.82957701  0.49542189  0.16016877  1
  Cr  Cr23  1  0.65943679  0.32827445  0.32919035  1
  Fe  Fe24  1  0.66011260  0.66137756  -0.00521180  1
  Cr  Cr25  1  0.82641857  0.82822233  0.15902139  1
  Cr  Cr26  1  0.66067776  0.66223299  0.32740846  1
  Cr  Cr27  1  0.16600952  0.16129723  0.49588411  1
  Cr  Cr28  1  -0.00167510  0.99122589  0.65804140  1
  Cr  Cr29  1  0.16312825  0.16062801  0.82817308  1
  Cr  Cr30  1  0.16259235  0.49717836  0.49411121  1
  Cr  Cr31  1  -0.00480392  0.32874968  0.66318125  1
  Cr  Cr32  1  0.16209372  0.49578038  0.82568729  1
  Ni  Ni33  1  0.16173241  0.82468942  0.49502331  1
  Fe  Fe34  1  -0.00317449  0.66355681  0.65967856  1
  Cr  Cr35  1  0.16264009  0.82729507  0.82778339  1
  Ni  Ni36  1  0.49106495  0.16048872  0.49581634  1
  Ni  Ni37  1  0.32804830  0.99355851  0.66118973  1
  Ni  Ni38  1  0.49249393  0.15970139  0.82629787  1
  Cr  Cr39  1  0.49113513  0.49312567  0.49446173  1
  Fe  Fe40  1  0.33057788  0.32455205  0.66219895  1
  Fe  Fe41  1  0.49290720  0.49413625  0.82777889  1
  Cr  Cr42  1  0.49224390  0.82925165  0.49486107  1
  Fe  Fe43  1  0.32658451  0.66371563  0.66067597  1
  Cr  Cr44  1  0.49378693  0.82890576  0.83075734  1
  Cr  Cr45  1  0.82580328  0.16038069  0.49340070  1
  Cr  Cr46  1  0.65880201  -0.00486601  0.65895685  1
  Cr  Cr47  1  0.82781172  0.15963179  0.83183758  1
  Cr  Cr48  1  0.82991167  0.49756663  0.49345958  1
  Cr  Cr49  1  0.65796029  0.32844970  0.66303187  1
  Cr  Cr50  1  0.82975426  0.49648233  0.83024995  1
  Fe  Fe51  1  0.83030159  0.82652714  0.49468128  1
  Cr  Cr52  1  0.66112969  0.66004719  0.66241040  1
  Cr  Cr53  1  0.82747285  0.82771480  0.82811645  1
" 