5745,Ni11Fe64Cr23_15,-224.28472176605, 159.838296331583,Ni11Fe64Cr23,"# generated using pymatgen
 data_Cr7Fe17Ni3
_symmetry_space_group_name_H-M   'P 1'
_cell_length_a   7.47522314
_cell_length_b   7.47522314
_cell_length_c   10.57156194
_cell_angle_alpha   90.00000000
_cell_angle_beta   90.00000000
_cell_angle_gamma   90.00000000
_symmetry_Int_Tables_number   1
_chemical_formula_structural   Cr7Fe17Ni3
_chemical_formula_sum   'Cr14 Fe34 Ni6'
_cell_volume   590.72789685
_cell_formula_units_Z   2
loop_
 _symmetry_equiv_pos_site_id
 _symmetry_equiv_pos_as_xyz
  1  'x, y, z'
loop_
 _atom_site_type_symbol
 _atom_site_label
 _atom_site_symmetry_multiplicity
 _atom_site_fract_x
 _atom_site_fract_y
 _atom_site_fract_z
 _atom_site_occupancy
  Ni  Ni0  1  0.00063524  0.99900334  -0.00031432  1
  Fe  Fe1  1  0.16622624  0.16696238  0.16764857  1
  Fe  Fe2  1  -0.00005162  0.00162585  0.33317000  1
  Cr  Cr3  1  0.00305275  0.33285900  0.00009414  1
  Fe  Fe4  1  0.16896017  0.49786731  0.16664720  1
  Fe  Fe5  1  0.99919811  0.33065038  0.33291407  1
  Cr  Cr6  1  -0.00028418  0.66713960  0.99788915  1
  Cr  Cr7  1  0.16749009  0.83316361  0.16670504  1
  Cr  Cr8  1  0.99863709  0.66466938  0.33465876  1
  Cr  Cr9  1  0.33311603  0.00088663  0.99704061  1
  Fe  Fe10  1  0.49643360  0.16773916  0.16744169  1
  Fe  Fe11  1  0.33075793  0.00128026  0.33288003  1
  Fe  Fe12  1  0.33173538  0.33527436  0.99918381  1
  Fe  Fe13  1  0.49707714  0.49989564  0.16905432  1
  Fe  Fe14  1  0.33313468  0.33323317  0.33406433  1
  Fe  Fe15  1  0.33312735  0.66457733  0.99783267  1
  Fe  Fe16  1  0.49819440  0.83083775  0.16734155  1
  Fe  Fe17  1  0.33457939  0.66387244  0.33328029  1
  Cr  Cr18  1  0.66731457  0.99733201  0.00088973  1
  Fe  Fe19  1  0.83582359  0.16587893  0.16671563  1
  Cr  Cr20  1  0.66547451  0.99943428  0.33042410  1
  Cr  Cr21  1  0.66302939  0.33338934  0.00017366  1
  Fe  Fe22  1  0.83244995  0.49875225  0.16807618  1
  Fe  Fe23  1  0.66615670  0.33496474  0.33299863  1
  Cr  Cr24  1  0.66540655  0.66769278  0.00015129  1
  Fe  Fe25  1  0.83401216  0.83341255  0.16628920  1
  Fe  Fe26  1  0.66494861  0.66346056  0.33216513  1
  Fe  Fe27  1  0.16664254  0.16575887  0.49867068  1
  Fe  Fe28  1  -0.00014573  0.99828348  0.66587960  1
  Fe  Fe29  1  0.16469425  0.16462194  0.83189571  1
  Fe  Fe30  1  0.16783253  0.49992678  0.50061292  1
  Fe  Fe31  1  0.00006805  0.33245029  0.66460458  1
  Ni  Ni32  1  0.16847234  0.50078902  0.83296817  1
  Fe  Fe33  1  0.16570889  0.83282862  0.49969507  1
  Fe  Fe34  1  0.00061953  0.66760871  0.66590289  1
  Fe  Fe35  1  0.16519212  0.83269506  0.83142414  1
  Fe  Fe36  1  0.50031715  0.16752698  0.50029753  1
  Fe  Fe37  1  0.33239617  0.99736498  0.66651413  1
  Cr  Cr38  1  0.50058533  0.16559858  0.83051597  1
  Ni  Ni39  1  0.50051467  0.49893676  0.49889978  1
  Cr  Cr40  1  0.33177290  0.33371151  0.66729154  1
  Fe  Fe41  1  0.49804939  0.50332545  0.83117939  1
  Cr  Cr42  1  0.49734464  0.83192093  0.49869210  1
  Fe  Fe43  1  0.33304259  0.66699670  0.66699046  1
  Ni  Ni44  1  0.49821488  0.83113687  0.83144167  1
  Fe  Fe45  1  0.83158588  0.16661337  0.50096527  1
  Ni  Ni46  1  0.66654634  0.99730290  0.66622761  1
  Cr  Cr47  1  0.83428132  0.16469075  0.83200609  1
  Fe  Fe48  1  0.83063566  0.49884630  0.50082092  1
  Fe  Fe49  1  0.66617397  0.33254399  0.66275358  1
  Cr  Cr50  1  0.83314831  0.49888888  0.82904249  1
  Fe  Fe51  1  0.83246411  0.83268045  0.50220623  1
  Fe  Fe52  1  0.66475784  0.66748657  0.66626843  1
  Ni  Ni53  1  0.83291902  0.83408077  0.83128813  1
" 