6872,Ni11Fe46Cr42_9,-220.442239808891, 169.58320310891,Ni11Fe46Cr42,"# generated using pymatgen
 data_Cr23Fe25Ni6
_symmetry_space_group_name_H-M   'P 1'
_cell_length_a   7.50829348
_cell_length_b   7.50829348
_cell_length_c   10.61833047
_cell_angle_alpha   90.00000000
_cell_angle_beta   90.00000000
_cell_angle_gamma   90.00000000
_symmetry_Int_Tables_number   1
_chemical_formula_structural   Cr23Fe25Ni6
_chemical_formula_sum   'Cr23 Fe25 Ni6'
_cell_volume   598.60276278
_cell_formula_units_Z   1
loop_
 _symmetry_equiv_pos_site_id
 _symmetry_equiv_pos_as_xyz
  1  'x, y, z'
loop_
 _atom_site_type_symbol
 _atom_site_label
 _atom_site_symmetry_multiplicity
 _atom_site_fract_x
 _atom_site_fract_y
 _atom_site_fract_z
 _atom_site_occupancy
  Cr  Cr0  1  -0.00053756  0.99628274  0.99638347  1
  Fe  Fe1  1  0.16686332  0.16248547  0.16421761  1
  Fe  Fe2  1  0.99688143  0.99287984  0.33030428  1
  Cr  Cr3  1  -0.00166866  0.33063582  0.99700286  1
  Cr  Cr4  1  0.16539511  0.49874146  0.16456173  1
  Cr  Cr5  1  -0.00166405  0.33230882  0.33064504  1
  Cr  Cr6  1  0.99637430  0.66468476  0.99693202  1
  Fe  Fe7  1  0.16477967  0.83131280  0.16510464  1
  Fe  Fe8  1  0.99611009  0.66553963  0.33244895  1
  Fe  Fe9  1  0.33172857  0.99682755  -0.00125629  1
  Fe  Fe10  1  0.49597816  0.16332349  0.16309786  1
  Cr  Cr11  1  0.33123428  0.99672511  0.33055152  1
  Fe  Fe12  1  0.33157241  0.32939574  -0.00240884  1
  Fe  Fe13  1  0.49717799  0.49762709  0.16418408  1
  Fe  Fe14  1  0.33221985  0.33202489  0.33081906  1
  Fe  Fe15  1  0.32950230  0.66570677  -0.00152583  1
  Ni  Ni16  1  0.49689951  0.83098023  0.16399295  1
  Cr  Cr17  1  0.33343197  0.66434902  0.33241497  1
  Fe  Fe18  1  0.66243191  0.99718579  -0.00193056  1
  Cr  Cr19  1  0.83066492  0.16272032  0.16522561  1
  Fe  Fe20  1  0.66358643  0.99398333  0.32998670  1
  Fe  Fe21  1  0.66224303  0.32947609  -0.00100174  1
  Fe  Fe22  1  0.82953075  0.49946462  0.16564933  1
  Cr  Cr23  1  0.66278095  0.33433070  0.33092629  1
  Cr  Cr24  1  0.66323057  0.66439932  0.00168722  1
  Fe  Fe25  1  0.82994495  0.83005259  0.16619723  1
  Fe  Fe26  1  0.66481960  0.66574881  0.33067481  1
  Cr  Cr27  1  0.16269854  0.16189833  0.49383007  1
  Cr  Cr28  1  -0.00155654  0.99487630  0.66466640  1
  Fe  Fe29  1  0.16724030  0.16448901  0.83140363  1
  Fe  Fe30  1  0.16351847  0.50041480  0.49735619  1
  Cr  Cr31  1  -0.00195800  0.33319133  0.66362300  1
  Fe  Fe32  1  0.16540427  0.50013733  0.82998152  1
  Ni  Ni33  1  0.16297796  0.82669163  0.49772536  1
  Ni  Ni34  1  -0.00117525  0.66340686  0.66266639  1
  Fe  Fe35  1  0.16341758  0.82685738  0.82895344  1
  Cr  Cr36  1  0.49873691  0.16433810  0.49751211  1
  Cr  Cr37  1  0.33026250  0.99557154  0.66372717  1
  Fe  Fe38  1  0.49627726  0.16493654  0.83215683  1
  Ni  Ni39  1  0.49742238  0.50018614  0.49662001  1
  Cr  Cr40  1  0.33053928  0.33187439  0.66117227  1
  Cr  Cr41  1  0.49540968  0.49816129  0.83148291  1
  Fe  Fe42  1  0.49669550  0.82853843  0.49647754  1
  Ni  Ni43  1  0.32872830  0.66330778  0.66244567  1
  Cr  Cr44  1  0.49419126  0.82961547  0.83069999  1
  Cr  Cr45  1  0.83041077  0.16325247  0.49780519  1
  Cr  Cr46  1  0.66264280  0.99545051  0.66360267  1
  Cr  Cr47  1  0.82798052  0.16373801  0.82875151  1
  Ni  Ni48  1  0.83041148  0.49995175  0.49643781  1
  Fe  Fe49  1  0.66304162  0.33407280  0.66192970  1
  Cr  Cr50  1  0.83022800  0.49697737  0.83012515  1
  Fe  Fe51  1  0.83246811  0.82805558  0.49557641  1
  Cr  Cr52  1  0.66396223  0.66387230  0.66001670  1
  Fe  Fe53  1  0.83019116  0.82862264  0.83004830  1
" 