493,Ni11Fe46Cr42_16,-220.467123644274, 171.221849026055,Ni11Fe46Cr42,"# generated using pymatgen
 data_Cr23Fe25Ni6
_symmetry_space_group_name_H-M   'P 1'
_cell_length_a   7.50575989
_cell_length_b   7.50575989
_cell_length_c   10.61474743
_cell_angle_alpha   90.00000000
_cell_angle_beta   90.00000000
_cell_angle_gamma   90.00000000
_symmetry_Int_Tables_number   1
_chemical_formula_structural   Cr23Fe25Ni6
_chemical_formula_sum   'Cr23 Fe25 Ni6'
_cell_volume   597.99699167
_cell_formula_units_Z   1
loop_
 _symmetry_equiv_pos_site_id
 _symmetry_equiv_pos_as_xyz
  1  'x, y, z'
loop_
 _atom_site_type_symbol
 _atom_site_label
 _atom_site_symmetry_multiplicity
 _atom_site_fract_x
 _atom_site_fract_y
 _atom_site_fract_z
 _atom_site_occupancy
  Cr  Cr0  1  -0.00243012  0.99689263  0.99719115  1
  Cr  Cr1  1  0.16207691  0.16745103  0.16485056  1
  Fe  Fe2  1  0.99574477  0.99480960  0.33133697  1
  Fe  Fe3  1  -0.00145719  0.33152716  0.99699953  1
  Ni  Ni4  1  0.16335702  0.49669447  0.16454115  1
  Fe  Fe5  1  -0.00030208  0.33512673  0.33082512  1
  Cr  Cr6  1  -0.00248681  0.66199276  0.00059155  1
  Cr  Cr7  1  0.16442471  0.82914855  0.16601968  1
  Fe  Fe8  1  -0.00169176  0.66222393  0.33119666  1
  Cr  Cr9  1  0.33147701  -0.00209620  0.99452664  1
  Cr  Cr10  1  0.49734509  0.16551192  0.16674298  1
  Cr  Cr11  1  0.33090336  -0.00236733  0.33261729  1
  Fe  Fe12  1  0.32979252  0.33319601  0.99557264  1
  Cr  Cr13  1  0.49585040  0.49968629  0.16254162  1
  Fe  Fe14  1  0.32801038  0.33496854  0.33147623  1
  Fe  Fe15  1  0.33181522  0.66184136  0.99635165  1
  Cr  Cr16  1  0.49897394  0.82728050  0.16314922  1
  Ni  Ni17  1  0.32664620  0.66191525  0.33107573  1
  Cr  Cr18  1  0.66333383  -0.00220971  0.99629275  1
  Cr  Cr19  1  0.83281267  0.16419045  0.16339664  1
  Fe  Fe20  1  0.66549393  0.99480510  0.33189159  1
  Fe  Fe21  1  0.66368458  0.33219960  0.99597582  1
  Fe  Fe22  1  0.83233645  0.49821984  0.16418429  1
  Cr  Cr23  1  0.66397620  0.33182102  0.33197160  1
  Fe  Fe24  1  0.66252647  0.66320218  0.99599785  1
  Fe  Fe25  1  0.83052910  0.82849354  0.16587545  1
  Fe  Fe26  1  0.66524756  0.66534455  0.33072925  1
  Cr  Cr27  1  0.16232953  0.16624730  0.49483381  1
  Cr  Cr28  1  0.99712000  0.99524027  0.66530798  1
  Fe  Fe29  1  0.16420848  0.16745973  0.83120411  1
  Ni  Ni30  1  0.16200196  0.49939799  0.49740588  1
  Fe  Fe31  1  -0.00171183  0.33194146  0.66406501  1
  Fe  Fe32  1  0.16642273  0.49733862  0.83082727  1
  Fe  Fe33  1  0.16287347  0.82666129  0.49659686  1
  Fe  Fe34  1  -0.00212381  0.66196678  0.66207109  1
  Cr  Cr35  1  0.16690704  0.82943137  0.82909493  1
  Fe  Fe36  1  0.49781326  0.16383749  0.49715224  1
  Cr  Cr37  1  0.33317248  0.99715462  0.66504774  1
  Fe  Fe38  1  0.49892492  0.16438309  0.83082877  1
  Cr  Cr39  1  0.49575479  0.50001878  0.49655888  1
  Cr  Cr40  1  0.33133347  0.33222326  0.66355636  1
  Ni  Ni41  1  0.49614029  0.49939586  0.83284531  1
  Cr  Cr42  1  0.49892444  0.82954979  0.49876194  1
  Fe  Fe43  1  0.33134980  0.66336146  0.66439730  1
  Ni  Ni44  1  0.49801868  0.82787494  0.82982213  1
  Cr  Cr45  1  0.83119742  0.16299761  0.49851079  1
  Ni  Ni46  1  0.66360052  0.99681330  0.66426856  1
  Fe  Fe47  1  0.82921327  0.16459547  0.83023324  1
  Fe  Fe48  1  0.83372671  0.49967708  0.49781837  1
  Cr  Cr49  1  0.66340645  0.33046390  0.66437305  1
  Cr  Cr50  1  0.83011085  0.49494006  0.82960266  1
  Fe  Fe51  1  0.83171825  0.82848574  0.49764506  1
  Fe  Fe52  1  0.66276830  0.66579560  0.66512961  1
  Cr  Cr53  1  0.82755091  0.83162012  0.82886216  1
" 