5451,Ni11Fe38Cr49_4,-217.906271971333, 176.84566798595,Ni11Fe38Cr49,"# generated using pymatgen
 data_Cr14Fe10Ni3
_symmetry_space_group_name_H-M   'P 1'
_cell_length_a   7.52661077
_cell_length_b   7.52661077
_cell_length_c   10.64423503
_cell_angle_alpha   90.00000000
_cell_angle_beta   90.00000000
_cell_angle_gamma   90.00000000
_symmetry_Int_Tables_number   1
_chemical_formula_structural   Cr14Fe10Ni3
_chemical_formula_sum   'Cr28 Fe20 Ni6'
_cell_volume   602.99452746
_cell_formula_units_Z   2
loop_
 _symmetry_equiv_pos_site_id
 _symmetry_equiv_pos_as_xyz
  1  'x, y, z'
loop_
 _atom_site_type_symbol
 _atom_site_label
 _atom_site_symmetry_multiplicity
 _atom_site_fract_x
 _atom_site_fract_y
 _atom_site_fract_z
 _atom_site_occupancy
  Ni  Ni0  1  0.99493210  -0.00189235  0.99432547  1
  Cr  Cr1  1  0.16243756  0.15945085  0.16220424  1
  Ni  Ni2  1  0.99532391  0.99431296  0.33344356  1
  Cr  Cr3  1  0.99559742  0.32980721  -0.00307644  1
  Cr  Cr4  1  0.16405303  0.49633084  0.16377617  1
  Cr  Cr5  1  0.99584583  0.32774793  0.32737864  1
  Cr  Cr6  1  0.99314166  0.66253262  -0.00245522  1
  Cr  Cr7  1  0.16395955  0.83204357  0.16142520  1
  Cr  Cr8  1  0.99505019  0.66454742  0.32735616  1
  Fe  Fe9  1  0.33038782  -0.00215220  0.99511318  1
  Fe  Fe10  1  0.49803363  0.16050502  0.16433650  1
  Fe  Fe11  1  0.32988260  -0.00384564  0.33211559  1
  Cr  Cr12  1  0.33105539  0.32712407  0.99565911  1
  Cr  Cr13  1  0.49767490  0.49545884  0.16772777  1
  Cr  Cr14  1  0.33015473  0.32756992  0.32938610  1
  Cr  Cr15  1  0.33151917  0.66046841  0.99580535  1
  Cr  Cr16  1  0.49708301  0.83329011  0.16296493  1
  Fe  Fe17  1  0.33154476  0.66622403  0.33114810  1
  Ni  Ni18  1  0.66200495  -0.00099889  0.99513114  1
  Cr  Cr19  1  0.82656575  0.16155364  0.16506169  1
  Ni  Ni20  1  0.66106756  0.99547916  0.33291005  1
  Cr  Cr21  1  0.66120141  0.33025638  0.99455470  1
  Fe  Fe22  1  0.82657986  0.49521778  0.16553685  1
  Ni  Ni23  1  0.65946338  0.32708978  0.33190019  1
  Cr  Cr24  1  0.66323138  0.66252758  -0.00236577  1
  Cr  Cr25  1  0.82763229  0.83471574  0.16292648  1
  Fe  Fe26  1  0.66258890  0.66398455  0.33131185  1
  Fe  Fe27  1  0.16233603  0.16187005  0.49407560  1
  Cr  Cr28  1  0.99545195  0.99580003  0.65862530  1
  Fe  Fe29  1  0.16284422  0.16094054  0.83049928  1
  Cr  Cr30  1  0.16501790  0.49746096  0.49748410  1
  Cr  Cr31  1  0.99570780  0.32642325  0.66399243  1
  Cr  Cr32  1  0.16355504  0.49644253  0.82691940  1
  Fe  Fe33  1  0.16348666  0.82973189  0.49453589  1
  Fe  Fe34  1  0.99561816  0.66403395  0.66141800  1
  Cr  Cr35  1  0.16248526  0.83019531  0.82981468  1
  Fe  Fe36  1  0.49815130  0.16323679  0.49459017  1
  Cr  Cr37  1  0.32987132  -0.00314296  0.66079354  1
  Fe  Fe38  1  0.49741928  0.16202441  0.82934448  1
  Fe  Fe39  1  0.49700276  0.49606067  0.49571406  1
  Cr  Cr40  1  0.33143262  0.32758904  0.66265015  1
  Ni  Ni41  1  0.49782503  0.49245966  0.82463391  1
  Fe  Fe42  1  0.49593326  0.82842258  0.49399985  1
  Fe  Fe43  1  0.33102705  0.66433613  0.66218180  1
  Cr  Cr44  1  0.49622886  0.82981792  0.83202102  1
  Fe  Fe45  1  0.82763497  0.16155837  0.49300314  1
  Cr  Cr46  1  0.66274819  -0.00332972  0.66094347  1
  Fe  Fe47  1  0.82813686  0.16307347  0.83027920  1
  Cr  Cr48  1  0.82823992  0.49265901  0.49605010  1
  Fe  Fe49  1  0.66264888  0.32737836  0.66249632  1
  Fe  Fe50  1  0.82750458  0.49614776  0.82765653  1
  Fe  Fe51  1  0.82820125  0.82928154  0.49395931  1
  Cr  Cr52  1  0.66231115  0.66358761  0.66258113  1
  Cr  Cr53  1  0.82949771  0.83292227  0.83046629  1
" 