4147,Ni11Fe46Cr42_6,-220.531586477971, 174.373287835445,Ni11Fe46Cr42,"# generated using pymatgen
 data_Cr23Fe25Ni6
_symmetry_space_group_name_H-M   'P 1'
_cell_length_a   7.50276322
_cell_length_b   7.50276322
_cell_length_c   10.61050951
_cell_angle_alpha   90.00000000
_cell_angle_beta   90.00000000
_cell_angle_gamma   90.00000000
_symmetry_Int_Tables_number   1
_chemical_formula_structural   Cr23Fe25Ni6
_chemical_formula_sum   'Cr23 Fe25 Ni6'
_cell_volume   597.28102884
_cell_formula_units_Z   1
loop_
 _symmetry_equiv_pos_site_id
 _symmetry_equiv_pos_as_xyz
  1  'x, y, z'
loop_
 _atom_site_type_symbol
 _atom_site_label
 _atom_site_symmetry_multiplicity
 _atom_site_fract_x
 _atom_site_fract_y
 _atom_site_fract_z
 _atom_site_occupancy
  Ni  Ni0  1  0.99648233  0.99659177  -0.00162049  1
  Cr  Cr1  1  0.16393433  0.16467529  0.16313822  1
  Cr  Cr2  1  -0.00215986  0.99521075  0.32914254  1
  Fe  Fe3  1  0.99597778  0.33035831  0.99632945  1
  Cr  Cr4  1  0.16225538  0.49801089  0.16168206  1
  Fe  Fe5  1  -0.00228420  0.33098720  0.33307925  1
  Fe  Fe6  1  0.99690439  0.66696345  0.99670672  1
  Fe  Fe7  1  0.16343849  0.82976298  0.16359220  1
  Fe  Fe8  1  0.00027703  0.66277066  0.33234605  1
  Cr  Cr9  1  0.32927024  0.99736088  0.99661784  1
  Cr  Cr10  1  0.49654423  0.16364778  0.16428330  1
  Ni  Ni11  1  0.32649845  0.99724782  0.33317531  1
  Fe  Fe12  1  0.33159854  0.33350029  0.99506284  1
  Cr  Cr13  1  0.49815676  0.49873444  0.16155999  1
  Cr  Cr14  1  0.33071619  0.33337025  0.33317954  1
  Fe  Fe15  1  0.33107013  0.66427104  0.99586595  1
  Cr  Cr16  1  0.49655419  0.83115071  0.16650451  1
  Fe  Fe17  1  0.32796976  0.66580026  0.33173916  1
  Cr  Cr18  1  0.66733174  0.99601379  0.99592949  1
  Fe  Fe19  1  0.83213440  0.16530405  0.16229298  1
  Cr  Cr20  1  0.66621170  -0.00102416  0.33012943  1
  Fe  Fe21  1  0.66512773  0.33043714  0.99586502  1
  Cr  Cr22  1  0.83256177  0.49757663  0.16367067  1
  Cr  Cr23  1  0.66494100  0.33172385  0.33263721  1
  Ni  Ni24  1  0.66518291  0.66276325  0.99543287  1
  Fe  Fe25  1  0.83275790  0.82925323  0.16194267  1
  Cr  Cr26  1  0.66639153  0.66207453  0.33149751  1
  Fe  Fe27  1  0.16268877  0.16475023  0.49713402  1
  Cr  Cr28  1  0.99722783  0.99689639  0.66499121  1
  Cr  Cr29  1  0.16310743  0.16680054  0.83197717  1
  Fe  Fe30  1  0.16333433  0.49937660  0.49878737  1
  Fe  Fe31  1  -0.00194879  0.33222908  0.66320846  1
  Ni  Ni32  1  0.16344295  0.49836854  0.83197685  1
  Fe  Fe33  1  0.16377995  0.82891297  0.49750698  1
  Fe  Fe34  1  -0.00019189  0.66064542  0.66403164  1
  Cr  Cr35  1  0.16417910  0.82980070  0.83049667  1
  Ni  Ni36  1  0.49505470  0.16345841  0.49698867  1
  Cr  Cr37  1  0.33027795  -0.00131706  0.66374901  1
  Fe  Fe38  1  0.49788793  0.16696931  0.83159933  1
  Fe  Fe39  1  0.49895808  0.49915627  0.49845726  1
  Cr  Cr40  1  0.32992731  0.33423383  0.66459983  1
  Fe  Fe41  1  0.49568091  0.49916540  0.83293162  1
  Cr  Cr42  1  0.49612094  0.83246513  0.49766889  1
  Fe  Fe43  1  0.33068742  0.66336445  0.66500990  1
  Fe  Fe44  1  0.49834028  0.82675248  0.83119757  1
  Fe  Fe45  1  0.83125131  0.16522766  0.49803156  1
  Cr  Cr46  1  0.66540167  -0.00192105  0.66813889  1
  Fe  Fe47  1  0.83296022  0.16571463  0.83237832  1
  Ni  Ni48  1  0.83552546  0.49635581  0.49862281  1
  Cr  Cr49  1  0.66329811  0.33219255  0.66258996  1
  Cr  Cr50  1  0.83224203  0.49819994  0.83002134  1
  Cr  Cr51  1  0.83059470  0.82705371  0.50032642  1
  Fe  Fe52  1  0.66323325  0.66310734  0.66531911  1
  Fe  Fe53  1  0.83256435  0.82897477  0.83194801  1
" 