4042,Ni11Fe38Cr49_12,-217.670115491452, 176.287720157317,Ni11Fe38Cr49,"# generated using pymatgen
 data_Cr14Fe10Ni3
_symmetry_space_group_name_H-M   'P 1'
_cell_length_a   7.52337929
_cell_length_b   7.52337929
_cell_length_c   10.63966502
_cell_angle_alpha   90.00000000
_cell_angle_beta   90.00000000
_cell_angle_gamma   90.00000000
_symmetry_Int_Tables_number   1
_chemical_formula_structural   Cr14Fe10Ni3
_chemical_formula_sum   'Cr28 Fe20 Ni6'
_cell_volume   602.21818948
_cell_formula_units_Z   2
loop_
 _symmetry_equiv_pos_site_id
 _symmetry_equiv_pos_as_xyz
  1  'x, y, z'
loop_
 _atom_site_type_symbol
 _atom_site_label
 _atom_site_symmetry_multiplicity
 _atom_site_fract_x
 _atom_site_fract_y
 _atom_site_fract_z
 _atom_site_occupancy
  Fe  Fe0  1  0.99555223  -0.00314879  -0.00322031  1
  Cr  Cr1  1  0.16346768  0.15897941  0.16179301  1
  Fe  Fe2  1  -0.00294452  0.99374604  0.32940367  1
  Fe  Fe3  1  -0.00229666  0.32843498  0.99563425  1
  Fe  Fe4  1  0.16117879  0.49751522  0.16300814  1
  Cr  Cr5  1  0.99459476  0.32621890  0.32960162  1
  Fe  Fe6  1  0.99615357  0.66451332  -0.00073258  1
  Ni  Ni7  1  0.15961396  0.83195472  0.16416390  1
  Ni  Ni8  1  -0.00181958  0.66634078  0.32691867  1
  Fe  Fe9  1  0.32962684  0.99544490  0.99613191  1
  Cr  Cr10  1  0.49396227  0.16188244  0.16263005  1
  Fe  Fe11  1  0.32811925  0.99399318  0.32996925  1
  Fe  Fe12  1  0.32756549  0.32840019  0.99601802  1
  Cr  Cr13  1  0.49839946  0.49474122  0.16430473  1
  Cr  Cr14  1  0.32957364  0.32965483  0.32969736  1
  Cr  Cr15  1  0.32622665  0.66306235  -0.00212820  1
  Fe  Fe16  1  0.49495488  0.83262946  0.16224842  1
  Cr  Cr17  1  0.32881284  0.66648387  0.32860726  1
  Ni  Ni18  1  0.66579774  -0.00194238  -0.00366970  1
  Fe  Fe19  1  0.83090299  0.15976996  0.16287505  1
  Cr  Cr20  1  0.66319196  -0.00192403  0.32942352  1
  Cr  Cr21  1  0.66636726  0.32551030  -0.00252477  1
  Cr  Cr22  1  0.82953567  0.49912263  0.16671276  1
  Fe  Fe23  1  0.66361612  0.32771468  0.33031047  1
  Cr  Cr24  1  0.66067787  0.66664258  -0.00163267  1
  Fe  Fe25  1  0.83156411  0.83272993  0.16291984  1
  Fe  Fe26  1  0.66332413  0.66588433  0.32893318  1
  Cr  Cr27  1  0.16554896  0.15852378  0.49539723  1
  Cr  Cr28  1  0.99511753  -0.00064331  0.66169475  1
  Ni  Ni29  1  0.16370009  0.16332900  0.83140724  1
  Cr  Cr30  1  0.16170909  0.49585400  0.49653116  1
  Cr  Cr31  1  0.99602292  0.32682237  0.66505966  1
  Fe  Fe32  1  0.16379136  0.49371482  0.83132943  1
  Fe  Fe33  1  0.16300917  0.83060172  0.49436913  1
  Cr  Cr34  1  -0.00063728  0.66243973  0.66358406  1
  Cr  Cr35  1  0.16158168  0.83475646  0.82879413  1
  Fe  Fe36  1  0.49738110  0.16012399  0.49660240  1
  Ni  Ni37  1  0.33065881  -0.00276562  0.66044411  1
  Cr  Cr38  1  0.49217395  0.16148672  0.82863037  1
  Cr  Cr39  1  0.49781095  0.49466842  0.49544892  1
  Fe  Fe40  1  0.32786638  0.32675338  0.66306391  1
  Cr  Cr41  1  0.49633773  0.49344432  0.82928791  1
  Fe  Fe42  1  0.49538885  0.83352281  0.49635291  1
  Cr  Cr43  1  0.32896806  0.66481596  0.66256655  1
  Cr  Cr44  1  0.49700693  0.83315871  0.82964405  1
  Ni  Ni45  1  0.82844502  0.16022733  0.49461013  1
  Fe  Fe46  1  0.66204242  -0.00295420  0.66143583  1
  Fe  Fe47  1  0.83063907  0.16058035  0.83102124  1
  Cr  Cr48  1  0.82924270  0.49809207  0.49346809  1
  Cr  Cr49  1  0.66564299  0.32457820  0.66046157  1
  Cr  Cr50  1  0.82981293  0.49880016  0.82955156  1
  Cr  Cr51  1  0.83212463  0.82807785  0.49611350  1
  Cr  Cr52  1  0.66071094  0.66519200  0.66284362  1
  Cr  Cr53  1  0.83001977  0.83028014  0.83072583  1
" 