1703,Ni11Cr89_9,-236.289720655584, 167.589774325253,Ni11Cr89,"# generated using pymatgen
 data_Cr5Ni49
_symmetry_space_group_name_H-M   'P 1'
_cell_length_a   7.46872814
_cell_length_b   7.46872814
_cell_length_c   10.56237663
_cell_angle_alpha   90.00000000
_cell_angle_beta   90.00000000
_cell_angle_gamma   90.00000000
_symmetry_Int_Tables_number   1
_chemical_formula_structural   Cr5Ni49
_chemical_formula_sum   'Cr5 Ni49'
_cell_volume   589.18943756
_cell_formula_units_Z   1
loop_
 _symmetry_equiv_pos_site_id
 _symmetry_equiv_pos_as_xyz
  1  'x, y, z'
loop_
 _atom_site_type_symbol
 _atom_site_label
 _atom_site_symmetry_multiplicity
 _atom_site_fract_x
 _atom_site_fract_y
 _atom_site_fract_z
 _atom_site_occupancy
  Ni  Ni0  1  0.00073860  0.99905363  0.99948102  1
  Ni  Ni1  1  0.16715508  0.16743742  0.16551993  1
  Ni  Ni2  1  0.99921941  0.99897400  0.33397793  1
  Ni  Ni3  1  0.00057699  0.33421901  0.99865846  1
  Ni  Ni4  1  0.16562211  0.49900711  0.16745100  1
  Ni  Ni5  1  0.00059449  0.33439311  0.33435454  1
  Ni  Ni6  1  0.99811871  0.66636967  0.99968705  1
  Ni  Ni7  1  0.16460331  0.83317028  0.16655680  1
  Ni  Ni8  1  0.99966946  0.66627329  0.33303855  1
  Ni  Ni9  1  0.33327526  0.00151177  0.99947268  1
  Ni  Ni10  1  0.49928434  0.16746572  0.16528737  1
  Cr  Cr11  1  0.33333276  0.00000295  0.33306504  1
  Ni  Ni12  1  0.33234820  0.33059612  0.00117482  1
  Ni  Ni13  1  0.50070268  0.49898139  0.16788976  1
  Ni  Ni14  1  0.33332803  0.33487563  0.33283040  1
  Cr  Cr15  1  0.33260601  0.66715269  0.00142775  1
  Ni  Ni16  1  0.50175767  0.83321091  0.16639183  1
  Ni  Ni17  1  0.33334281  0.66486408  0.33347744  1
  Ni  Ni18  1  0.66568003  0.99906867  0.99886383  1
  Cr  Cr19  1  0.83372341  0.16594270  0.16715880  1
  Ni  Ni20  1  0.66715829  0.99899285  0.33437075  1
  Ni  Ni21  1  0.66673054  0.33332578  -0.00011170  1
  Ni  Ni22  1  0.83334961  0.50148005  0.16613259  1
  Ni  Ni23  1  0.66574923  0.33438693  0.33409890  1
  Ni  Ni24  1  0.66926359  0.66729450  0.00092670  1
  Ni  Ni25  1  0.83335501  0.83170623  0.16655828  1
  Ni  Ni26  1  0.66665379  0.66626574  0.33283504  1
  Ni  Ni27  1  0.16654184  0.16844134  0.49963421  1
  Cr  Cr28  1  0.99937434  0.00040742  0.66589993  1
  Ni  Ni29  1  0.16739765  0.16738470  0.83443543  1
  Ni  Ni30  1  0.16669935  0.49999877  0.50011036  1
  Ni  Ni31  1  0.99962558  0.33494091  0.66672072  1
  Ni  Ni32  1  0.16411639  0.49900783  0.83215334  1
  Ni  Ni33  1  0.16652415  0.83123201  0.49988476  1
  Ni  Ni34  1  0.99962743  0.66483739  0.66692414  1
  Ni  Ni35  1  0.16649924  0.83324171  0.83319682  1
  Ni  Ni36  1  0.50080054  0.16752080  0.50097346  1
  Ni  Ni37  1  0.33479761  0.00001616  0.66714808  1
  Ni  Ni38  1  0.49984501  0.16493138  0.83340811  1
  Ni  Ni39  1  0.49968845  0.50001290  0.49947059  1
  Ni  Ni40  1  0.33235246  0.33218073  0.66561246  1
  Cr  Cr41  1  0.50039494  0.49927078  0.83187432  1
  Ni  Ni42  1  0.50080377  0.83212959  0.50117056  1
  Ni  Ni43  1  0.33232638  0.66747663  0.66517376  1
  Ni  Ni44  1  0.50077593  0.83577085  0.83215881  1
  Ni  Ni45  1  0.83229333  0.16739170  0.49896514  1
  Ni  Ni46  1  0.66493943  0.00002139  0.66650670  1
  Ni  Ni47  1  0.83238307  0.16725314  0.83382655  1
  Ni  Ni48  1  0.83326932  0.49999573  0.50012741  1
  Ni  Ni49  1  0.66763823  0.33242135  0.66570334  1
  Ni  Ni50  1  0.83485393  0.49994335  0.83340684  1
  Ni  Ni51  1  0.83231435  0.83230169  0.49858360  1
  Ni  Ni52  1  0.66770509  0.66727706  0.66583934  1
  Ni  Ni53  1  0.83239752  0.83249520  0.83444041  1
" 