1045,Ni11Cr89_10,-236.317716783354, 168.458758082111,Ni11Cr89,"# generated using pymatgen
 data_Cr5Ni49
_symmetry_space_group_name_H-M   'P 1'
_cell_length_a   7.46898414
_cell_length_b   7.46898414
_cell_length_c   10.56273867
_cell_angle_alpha   90.00000000
_cell_angle_beta   90.00000000
_cell_angle_gamma   90.00000000
_symmetry_Int_Tables_number   1
_chemical_formula_structural   Cr5Ni49
_chemical_formula_sum   'Cr5 Ni49'
_cell_volume   589.25002503
_cell_formula_units_Z   1
loop_
 _symmetry_equiv_pos_site_id
 _symmetry_equiv_pos_as_xyz
  1  'x, y, z'
loop_
 _atom_site_type_symbol
 _atom_site_label
 _atom_site_symmetry_multiplicity
 _atom_site_fract_x
 _atom_site_fract_y
 _atom_site_fract_z
 _atom_site_occupancy
  Ni  Ni0  1  -0.00012964  0.99869523  0.99977122  1
  Ni  Ni1  1  0.16780924  0.16542073  0.16754622  1
  Ni  Ni2  1  -0.00012964  0.00040191  0.33310693  1
  Cr  Cr3  1  -0.00012964  0.33190127  0.00047535  1
  Ni  Ni4  1  0.16727915  0.50137900  0.16745806  1
  Ni  Ni5  1  -0.00012964  0.33267349  0.33353609  1
  Ni  Ni6  1  -0.00012964  0.66797688  0.99955138  1
  Ni  Ni7  1  0.16615019  0.83279395  0.16637729  1
  Ni  Ni8  1  -0.00012964  0.66654494  0.33334211  1
  Ni  Ni9  1  0.33220148  0.99881930  0.00057864  1
  Ni  Ni10  1  0.49987036  0.16659845  0.16636251  1
  Ni  Ni11  1  0.33218032  0.99882958  0.33252740  1
  Ni  Ni12  1  0.33360583  0.33407042  0.00058878  1
  Ni  Ni13  1  0.49987036  0.49979073  0.16636937  1
  Ni  Ni14  1  0.33200244  0.33407562  0.33228110  1
  Ni  Ni15  1  0.33359110  0.66672655  0.99974877  1
  Ni  Ni16  1  0.49987036  0.83321800  0.16660040  1
  Ni  Ni17  1  0.33356365  0.66668966  0.33335878  1
  Ni  Ni18  1  0.66753925  0.99881930  0.00057864  1
  Ni  Ni19  1  0.83193148  0.16542073  0.16754622  1
  Ni  Ni20  1  0.66756040  0.99882958  0.33252740  1
  Ni  Ni21  1  0.66613490  0.33407042  0.00058878  1
  Ni  Ni22  1  0.83246158  0.50137900  0.16745806  1
  Ni  Ni23  1  0.66773828  0.33407562  0.33228110  1
  Ni  Ni24  1  0.66614963  0.66672655  0.99974877  1
  Ni  Ni25  1  0.83359053  0.83279395  0.16637729  1
  Ni  Ni26  1  0.66617708  0.66668966  0.33335878  1
  Ni  Ni27  1  0.16502712  0.16650988  0.50015344  1
  Ni  Ni28  1  -0.00012964  0.00036368  0.66673448  1
  Ni  Ni29  1  0.16600015  0.16550640  0.83203622  1
  Ni  Ni30  1  0.16520044  0.49927893  0.49914412  1
  Ni  Ni31  1  -0.00012964  0.33270726  0.66629831  1
  Ni  Ni32  1  0.16619317  0.50026508  0.83307932  1
  Ni  Ni33  1  0.16500351  0.83384155  0.49911443  1
  Ni  Ni34  1  -0.00012964  0.66654861  0.66672177  1
  Ni  Ni35  1  0.16514889  0.83382148  0.83406382  1
  Cr  Cr36  1  0.49987036  0.16665191  0.50025728  1
  Ni  Ni37  1  0.33105192  0.99946347  0.66650391  1
  Cr  Cr38  1  0.49987036  0.16659557  0.83300230  1
  Ni  Ni39  1  0.49987036  0.49914496  0.49811365  1
  Ni  Ni40  1  0.33087620  0.33357251  0.66673650  1
  Ni  Ni41  1  0.49987036  0.49935463  0.83499679  1
  Ni  Ni42  1  0.49987036  0.83383990  0.49804953  1
  Cr  Cr43  1  0.33255337  0.66707611  0.66614332  1
  Ni  Ni44  1  0.49987036  0.83371167  0.83482982  1
  Ni  Ni45  1  0.83471360  0.16650988  0.50015344  1
  Ni  Ni46  1  0.66868880  0.99946347  0.66650391  1
  Ni  Ni47  1  0.83374057  0.16550640  0.83203622  1
  Ni  Ni48  1  0.83454028  0.49927893  0.49914412  1
  Ni  Ni49  1  0.66886453  0.33357251  0.66673650  1
  Ni  Ni50  1  0.83354755  0.50026508  0.83307932  1
  Ni  Ni51  1  0.83473722  0.83384155  0.49911443  1
  Cr  Cr52  1  0.66718736  0.66707611  0.66614332  1
  Ni  Ni53  1  0.83459184  0.83382148  0.83406382  1
" 