1651,Ni11Cr89_12,-236.23450579344, 166.348265475405,Ni11Cr89,"# generated using pymatgen
 data_Cr5Ni49
_symmetry_space_group_name_H-M   'P 1'
_cell_length_a   7.46832298
_cell_length_b   7.46832298
_cell_length_c   10.56180364
_cell_angle_alpha   90.00000000
_cell_angle_beta   90.00000000
_cell_angle_gamma   90.00000000
_symmetry_Int_Tables_number   1
_chemical_formula_structural   Cr5Ni49
_chemical_formula_sum   'Cr5 Ni49'
_cell_volume   589.09355581
_cell_formula_units_Z   1
loop_
 _symmetry_equiv_pos_site_id
 _symmetry_equiv_pos_as_xyz
  1  'x, y, z'
loop_
 _atom_site_type_symbol
 _atom_site_label
 _atom_site_symmetry_multiplicity
 _atom_site_fract_x
 _atom_site_fract_y
 _atom_site_fract_z
 _atom_site_occupancy
  Ni  Ni0  1  0.99974446  0.99972039  0.99974159  1
  Ni  Ni1  1  0.16555509  0.16540248  0.16718335  1
  Ni  Ni2  1  0.99877099  0.99876091  0.33258959  1
  Ni  Ni3  1  0.99857005  0.33326626  0.99973246  1
  Ni  Ni4  1  0.16550615  0.50100515  0.16779934  1
  Ni  Ni5  1  0.99918507  0.33424843  0.33231555  1
  Ni  Ni6  1  0.99990008  0.66676372  0.00016339  1
  Ni  Ni7  1  0.16675952  0.83334339  0.16677856  1
  Ni  Ni8  1  0.00144003  0.66677831  0.33337729  1
  Ni  Ni9  1  0.33307025  0.99855398  0.99951809  1
  Ni  Ni10  1  0.50092085  0.16558478  0.16773575  1
  Ni  Ni11  1  0.33406673  0.99901903  0.33254166  1
  Cr  Cr12  1  0.33212139  0.33324442  0.99989566  1
  Ni  Ni13  1  0.50025584  0.50010026  0.16655776  1
  Ni  Ni14  1  0.33390911  0.33424330  0.33232260  1
  Ni  Ni15  1  0.33290313  0.66792419  -0.00006737  1
  Ni  Ni16  1  0.49886083  0.83408700  0.16552475  1
  Ni  Ni17  1  0.33168618  0.66648529  0.33336266  1
  Ni  Ni18  1  0.66693870  0.99972268  0.00037572  1
  Ni  Ni19  1  0.83323115  0.16677239  0.16678049  1
  Ni  Ni20  1  0.66693854  0.00125865  0.33318911  1
  Ni  Ni21  1  0.66794194  0.33309711  0.99971892  1
  Ni  Ni22  1  0.83398103  0.49887405  0.16551788  1
  Ni  Ni23  1  0.66664647  0.33183961  0.33360997  1
  Ni  Ni24  1  0.66694361  0.66692029  0.99954916  1
  Ni  Ni25  1  0.83416223  0.83412130  0.16567168  1
  Cr  Cr26  1  0.66768603  0.66765284  0.33341127  1
  Cr  Cr27  1  0.16550074  0.16537144  0.49915184  1
  Ni  Ni28  1  0.00027468  0.99872941  0.66745288  1
  Ni  Ni29  1  0.16437121  0.16437671  0.83335464  1
  Ni  Ni30  1  0.16557855  0.50245067  0.49888178  1
  Ni  Ni31  1  0.99769467  0.33425450  0.66768466  1
  Ni  Ni32  1  0.16446585  0.50221639  0.83312082  1
  Ni  Ni33  1  0.16676053  0.83169083  0.50005541  1
  Ni  Ni34  1  0.99979527  0.66677139  0.66621207  1
  Ni  Ni35  1  0.16668436  0.83314011  0.83291319  1
  Ni  Ni36  1  0.50148531  0.16659274  0.49799014  1
  Ni  Ni37  1  0.33257327  0.99739605  0.66769005  1
  Ni  Ni38  1  0.50122467  0.16545677  0.83401402  1
  Ni  Ni39  1  0.50014306  0.50010372  0.50007863  1
  Cr  Cr40  1  0.33387944  0.33380883  0.66802306  1
  Ni  Ni41  1  0.50212072  0.50211846  0.83313741  1
  Ni  Ni42  1  0.49785420  0.83304441  0.50002920  1
  Ni  Ni43  1  0.33301767  0.66788914  0.66642288  1
  Ni  Ni44  1  0.49897628  0.83208096  0.83411477  1
  Ni  Ni45  1  0.83265703  0.16781705  0.49900307  1
  Cr  Cr46  1  0.66705657  0.99951292  0.66578782  1
  Ni  Ni47  1  0.83411000  0.16765460  0.83391489  1
  Ni  Ni48  1  0.83403300  0.49887084  0.50108064  1
  Ni  Ni49  1  0.66817291  0.33468175  0.66641020  1
  Ni  Ni50  1  0.83305819  0.49995382  0.83312692  1
  Ni  Ni51  1  0.83520044  0.83310713  0.49987458  1
  Ni  Ni52  1  0.66691298  0.66539559  0.66684037  1
  Ni  Ni53  1  0.83409219  0.83211277  0.83412638  1
" 