6293,Ni11Fe38Cr49_5,-217.937202374745, 180.944728899388,Ni11Fe38Cr49,"# generated using pymatgen
 data_Cr14Fe10Ni3
_symmetry_space_group_name_H-M   'P 1'
_cell_length_a   7.51232665
_cell_length_b   7.51232665
_cell_length_c   10.62403423
_cell_angle_alpha   90.00000000
_cell_angle_beta   90.00000000
_cell_angle_gamma   90.00000000
_symmetry_Int_Tables_number   1
_chemical_formula_structural   Cr14Fe10Ni3
_chemical_formula_sum   'Cr28 Fe20 Ni6'
_cell_volume   599.56792012
_cell_formula_units_Z   2
loop_
 _symmetry_equiv_pos_site_id
 _symmetry_equiv_pos_as_xyz
  1  'x, y, z'
loop_
 _atom_site_type_symbol
 _atom_site_label
 _atom_site_symmetry_multiplicity
 _atom_site_fract_x
 _atom_site_fract_y
 _atom_site_fract_z
 _atom_site_occupancy
  Cr  Cr0  1  -0.00286503  -0.00176572  -0.00108793  1
  Fe  Fe1  1  0.16422840  0.16574266  0.16696368  1
  Fe  Fe2  1  0.00041517  0.99641462  0.33274321  1
  Cr  Cr3  1  -0.00189686  0.33065594  0.99575042  1
  Ni  Ni4  1  0.16250341  0.49754529  0.16593192  1
  Cr  Cr5  1  0.99463753  0.33263783  0.33365511  1
  Cr  Cr6  1  0.99611936  0.66306805  0.99633447  1
  Cr  Cr7  1  0.16189906  0.83446200  0.16664335  1
  Cr  Cr8  1  0.99633515  0.66169823  0.33340308  1
  Cr  Cr9  1  0.33120108  -0.00183473  0.99622675  1
  Cr  Cr10  1  0.49827155  0.16507019  0.16579721  1
  Ni  Ni11  1  0.33538424  0.99600420  0.33115586  1
  Cr  Cr12  1  0.32838329  0.32918259  -0.00288552  1
  Cr  Cr13  1  0.49800828  0.49720236  0.16338763  1
  Cr  Cr14  1  0.32882686  0.33115255  0.33079290  1
  Cr  Cr15  1  0.33035509  0.66564725  0.00214848  1
  Fe  Fe16  1  0.50006165  0.83159959  0.16632220  1
  Cr  Cr17  1  0.33119467  0.66612586  0.33019238  1
  Cr  Cr18  1  0.66219253  0.99456985  0.99606806  1
  Cr  Cr19  1  0.83133429  0.16045348  0.16949142  1
  Fe  Fe20  1  0.66227908  0.99520971  0.33247730  1
  Fe  Fe21  1  0.66415257  0.32834993  0.99578672  1
  Cr  Cr22  1  0.82702456  0.49558747  0.16231039  1
  Fe  Fe23  1  0.66307396  0.33059273  0.33389687  1
  Fe  Fe24  1  0.66377594  0.66359386  0.99685287  1
  Fe  Fe25  1  0.82791499  0.82823091  0.16629444  1
  Fe  Fe26  1  0.66353797  0.66435413  0.33186120  1
  Cr  Cr27  1  0.16626900  0.16054266  0.49658682  1
  Cr  Cr28  1  0.99537493  -0.00188644  0.66234773  1
  Fe  Fe29  1  0.16693224  0.16426207  0.82643267  1
  Fe  Fe30  1  0.16288558  0.49820207  0.49933435  1
  Cr  Cr31  1  0.99579172  0.33298341  0.66139913  1
  Cr  Cr32  1  0.16703847  0.49917395  0.82541615  1
  Fe  Fe33  1  0.16706029  0.82949397  0.49803083  1
  Fe  Fe34  1  -0.00114351  0.66338651  0.65956633  1
  Cr  Cr35  1  0.16407537  0.83221306  0.82494652  1
  Fe  Fe36  1  0.49831841  0.16102286  0.49668555  1
  Ni  Ni37  1  0.33368504  0.99614180  0.66144578  1
  Fe  Fe38  1  0.49407181  0.16218091  0.82722421  1
  Cr  Cr39  1  0.49521780  0.49619591  0.49627999  1
  Ni  Ni40  1  0.33206273  0.32901436  0.66225301  1
  Cr  Cr41  1  0.49796275  0.49517333  0.83191590  1
  Fe  Fe42  1  0.49678348  0.83177361  0.49795971  1
  Ni  Ni43  1  0.33194790  0.66444161  0.65857079  1
  Cr  Cr44  1  0.49536186  0.82718403  0.82733561  1
  Fe  Fe45  1  0.82776415  0.16503007  0.49515789  1
  Fe  Fe46  1  0.65932707  0.99655872  0.66221734  1
  Cr  Cr47  1  0.82936254  0.16328572  0.82942318  1
  Ni  Ni48  1  0.82656072  0.49895099  0.49915918  1
  Cr  Cr49  1  0.66354494  0.32812053  0.66265149  1
  Fe  Fe50  1  0.82993221  0.49846372  0.82826199  1
  Cr  Cr51  1  0.83044184  0.83253428  0.49751884  1
  Fe  Fe52  1  0.66204648  0.66302407  0.66179225  1
  Cr  Cr53  1  0.83023831  0.82824435  0.82883521  1
" 