8993,Ni11Cr89_18,-236.333367731921, 168.305247996512,Ni11Cr89,"# generated using pymatgen
 data_Cr5Ni49
_symmetry_space_group_name_H-M   'P 1'
_cell_length_a   7.46788791
_cell_length_b   7.46788791
_cell_length_c   10.56118837
_cell_angle_alpha   90.00000000
_cell_angle_beta   90.00000000
_cell_angle_gamma   90.00000000
_symmetry_Int_Tables_number   1
_chemical_formula_structural   Cr5Ni49
_chemical_formula_sum   'Cr5 Ni49'
_cell_volume   588.99060885
_cell_formula_units_Z   1
loop_
 _symmetry_equiv_pos_site_id
 _symmetry_equiv_pos_as_xyz
  1  'x, y, z'
loop_
 _atom_site_type_symbol
 _atom_site_label
 _atom_site_symmetry_multiplicity
 _atom_site_fract_x
 _atom_site_fract_y
 _atom_site_fract_z
 _atom_site_occupancy
  Ni  Ni0  1  0.99974958  0.99862970  0.00009332  1
  Ni  Ni1  1  0.16775931  0.16549058  0.16788845  1
  Ni  Ni2  1  0.99974421  0.00160895  0.33328088  1
  Cr  Cr3  1  0.99922990  0.33238118  0.00071062  1
  Ni  Ni4  1  0.16835928  0.50013234  0.16644869  1
  Ni  Ni5  1  0.99974797  0.33163887  0.33328379  1
  Ni  Ni6  1  0.99989617  0.66799806  0.99944299  1
  Ni  Ni7  1  0.16719894  0.83419339  0.16541365  1
  Cr  Cr8  1  0.99983196  0.66680975  0.33343374  1
  Ni  Ni9  1  0.33381689  0.99967228  0.99979642  1
  Ni  Ni10  1  0.49984713  0.16672660  0.16623970  1
  Ni  Ni11  1  0.33289904  0.99880042  0.33252854  1
  Ni  Ni12  1  0.33477014  0.33312041  0.99951687  1
  Ni  Ni13  1  0.50003050  0.49980269  0.16677385  1
  Ni  Ni14  1  0.33256117  0.33400637  0.33248984  1
  Ni  Ni15  1  0.33385242  0.66704884  0.00043756  1
  Ni  Ni16  1  0.50002844  0.83330476  0.16695409  1
  Ni  Ni17  1  0.33510363  0.66698032  0.33323466  1
  Ni  Ni18  1  0.66627884  0.99983647  0.00006814  1
  Ni  Ni19  1  0.83217657  0.16544776  0.16792871  1
  Ni  Ni20  1  0.66720098  0.99896817  0.33223625  1
  Ni  Ni21  1  0.66505574  0.33297370  0.99980699  1
  Ni  Ni22  1  0.83137539  0.50036354  0.16649923  1
  Ni  Ni23  1  0.66754466  0.33384478  0.33218212  1
  Ni  Ni24  1  0.66608141  0.66703922  0.00008091  1
  Ni  Ni25  1  0.83259482  0.83400598  0.16540996  1
  Ni  Ni26  1  0.66476065  0.66698394  0.33359744  1
  Ni  Ni27  1  0.16618614  0.16550837  0.49903092  1
  Ni  Ni28  1  0.99972583  0.99873675  0.66645253  1
  Ni  Ni29  1  0.16849856  0.16454388  0.83300856  1
  Ni  Ni30  1  0.16744845  0.49921999  0.49898193  1
  Cr  Cr31  1  0.99994140  0.33317702  0.66629775  1
  Ni  Ni32  1  0.16755888  0.50110800  0.83440234  1
  Ni  Ni33  1  0.16623599  0.83514079  0.50003216  1
  Ni  Ni34  1  0.99853519  0.66820172  0.66700392  1
  Ni  Ni35  1  0.16554098  0.83418282  0.83429166  1
  Cr  Cr36  1  0.49994195  0.16671015  0.50025593  1
  Ni  Ni37  1  0.33290276  0.00025691  0.66751362  1
  Ni  Ni38  1  0.49994454  0.16662774  0.83332652  1
  Ni  Ni39  1  0.50104360  0.50027571  0.49894306  1
  Ni  Ni40  1  0.33406823  0.33266160  0.66782559  1
  Ni  Ni41  1  0.50094991  0.49911642  0.83400083  1
  Ni  Ni42  1  0.50103369  0.83282301  0.49875312  1
  Cr  Cr43  1  0.33407634  0.66729247  0.66566737  1
  Ni  Ni44  1  0.50090769  0.83409977  0.83401259  1
  Ni  Ni45  1  0.83375795  0.16556277  0.49887695  1
  Ni  Ni46  1  0.66718016  0.99892872  0.66751738  1
  Ni  Ni47  1  0.83137349  0.16457156  0.83311211  1
  Ni  Ni48  1  0.83141073  0.50023421  0.50011929  1
  Ni  Ni49  1  0.66617813  0.33386051  0.66783626  1
  Ni  Ni50  1  0.83132611  0.50207253  0.83332846  1
  Ni  Ni51  1  0.83259420  0.83405505  0.50115666  1
  Ni  Ni52  1  0.66769676  0.66702045  0.66616211  1
  Ni  Ni53  1  0.83340852  0.83316390  0.83327490  1
" 