4231,Ni11Cr89_1,-236.241568800536, 165.880335901347,Ni11Cr89,"# generated using pymatgen
 data_Cr5Ni49
_symmetry_space_group_name_H-M   'P 1'
_cell_length_a   7.46924337
_cell_length_b   7.46924337
_cell_length_c   10.56310527
_cell_angle_alpha   90.00000000
_cell_angle_beta   90.00000000
_cell_angle_gamma   90.00000000
_symmetry_Int_Tables_number   1
_chemical_formula_structural   Cr5Ni49
_chemical_formula_sum   'Cr5 Ni49'
_cell_volume   589.31138058
_cell_formula_units_Z   1
loop_
 _symmetry_equiv_pos_site_id
 _symmetry_equiv_pos_as_xyz
  1  'x, y, z'
loop_
 _atom_site_type_symbol
 _atom_site_label
 _atom_site_symmetry_multiplicity
 _atom_site_fract_x
 _atom_site_fract_y
 _atom_site_fract_z
 _atom_site_occupancy
  Ni  Ni0  1  0.99697430  0.99937288  0.00095354  1
  Ni  Ni1  1  0.16548892  0.16763382  0.16745820  1
  Ni  Ni2  1  0.99812273  0.00005567  0.33279837  1
  Cr  Cr3  1  0.99891389  0.33311107  0.99887518  1
  Ni  Ni4  1  0.16664766  0.49984747  0.16631950  1
  Ni  Ni5  1  0.99946468  0.33334425  0.33345424  1
  Ni  Ni6  1  0.99848588  0.66671383  0.00093832  1
  Ni  Ni7  1  0.16325021  0.83207546  0.16563833  1
  Ni  Ni8  1  0.99796704  0.66616775  0.33301952  1
  Cr  Cr9  1  0.33432214  0.00106738  0.00113760  1
  Ni  Ni10  1  0.50203203  0.16882031  0.16657317  1
  Cr  Cr11  1  0.33372114  0.00070671  0.33358386  1
  Ni  Ni12  1  0.33463499  0.33493748  0.00008890  1
  Ni  Ni13  1  0.50086643  0.49859206  0.16552390  1
  Ni  Ni14  1  0.33304720  0.33316693  0.33278077  1
  Ni  Ni15  1  0.33440056  0.66410164  0.00073606  1
  Ni  Ni16  1  0.50311560  0.83210249  0.16538452  1
  Cr  Cr17  1  0.33371829  0.66565235  0.33334714  1
  Ni  Ni18  1  0.66812221  0.99978054  -0.00014457  1
  Ni  Ni19  1  0.83196168  0.16552145  0.16735030  1
  Ni  Ni20  1  0.66820616  0.99973461  0.33300733  1
  Ni  Ni21  1  0.66531356  0.33334413  -0.00013899  1
  Ni  Ni22  1  0.83201021  0.50075837  0.16755975  1
  Ni  Ni23  1  0.66704931  0.33334772  0.33302845  1
  Ni  Ni24  1  0.66668096  0.66642461  -0.00013594  1
  Ni  Ni25  1  0.83324959  0.83326599  0.16631749  1
  Ni  Ni26  1  0.66837318  0.66648323  0.33323145  1
  Ni  Ni27  1  0.16559615  0.16750595  0.50074177  1
  Ni  Ni28  1  0.99864946  0.00105494  0.66581108  1
  Ni  Ni29  1  0.16669968  0.16813479  0.83127876  1
  Ni  Ni30  1  0.16573497  0.49885872  0.50078082  1
  Ni  Ni31  1  0.99945191  0.33335549  0.66650142  1
  Ni  Ni32  1  0.16778530  0.49923718  0.83241487  1
  Ni  Ni33  1  0.16415820  0.83319238  0.50158662  1
  Ni  Ni34  1  0.99854493  0.66519181  0.66563553  1
  Cr  Cr35  1  0.16526269  0.83206823  0.83235723  1
  Ni  Ni36  1  0.50097211  0.16786405  0.50055175  1
  Ni  Ni37  1  0.33437901  0.00073314  0.66535675  1
  Ni  Ni38  1  0.50097273  0.16781988  0.83246300  1
  Ni  Ni39  1  0.50083841  0.49848938  0.50057644  1
  Ni  Ni40  1  0.33311554  0.33320211  0.66668735  1
  Ni  Ni41  1  0.49985862  0.49956010  0.83351402  1
  Ni  Ni42  1  0.50212077  0.83319007  0.50205904  1
  Ni  Ni43  1  0.33437607  0.66561751  0.66578319  1
  Ni  Ni44  1  0.50251411  0.83217628  0.83224248  1
  Ni  Ni45  1  0.83300300  0.16645275  0.49972804  1
  Ni  Ni46  1  0.66653154  0.99979028  0.66666939  1
  Ni  Ni47  1  0.83184154  0.16537359  0.83235271  1
  Ni  Ni48  1  0.83299821  0.49976712  0.49972403  1
  Ni  Ni49  1  0.66700019  0.33334121  0.66669084  1
  Ni  Ni50  1  0.83190113  0.50092826  0.83215303  1
  Ni  Ni51  1  0.83333198  0.83333269  0.49973001  1
  Ni  Ni52  1  0.66668192  0.66643442  0.66646861  1
  Ni  Ni53  1  0.83160198  0.83326021  0.83351758  1
" 