8644,Ni11Cr89_6,-236.268230129621, 166.50704700017,Ni11Cr89,"# generated using pymatgen
 data_Cr5Ni49
_symmetry_space_group_name_H-M   'P 1'
_cell_length_a   7.47034110
_cell_length_b   7.47034110
_cell_length_c   10.56465771
_cell_angle_alpha   90.00000000
_cell_angle_beta   90.00000000
_cell_angle_gamma   90.00000000
_symmetry_Int_Tables_number   1
_chemical_formula_structural   Cr5Ni49
_chemical_formula_sum   'Cr5 Ni49'
_cell_volume   589.57124801
_cell_formula_units_Z   1
loop_
 _symmetry_equiv_pos_site_id
 _symmetry_equiv_pos_as_xyz
  1  'x, y, z'
loop_
 _atom_site_type_symbol
 _atom_site_label
 _atom_site_symmetry_multiplicity
 _atom_site_fract_x
 _atom_site_fract_y
 _atom_site_fract_z
 _atom_site_occupancy
  Ni  Ni0  1  0.99970281  0.99765909  -0.00004947  1
  Ni  Ni1  1  0.16622244  0.16462354  0.16849635  1
  Ni  Ni2  1  0.99909456  0.00250933  0.33208716  1
  Cr  Cr3  1  0.99835293  0.33315015  0.00016711  1
  Ni  Ni4  1  0.16724333  0.50080436  0.16747209  1
  Ni  Ni5  1  0.00028976  0.33146652  0.33330508  1
  Ni  Ni6  1  -0.00012716  0.66828056  0.99941630  1
  Ni  Ni7  1  0.16724232  0.83390975  0.16506062  1
  Cr  Cr8  1  0.99901383  0.66560501  0.33248505  1
  Ni  Ni9  1  0.33318965  0.99765909  0.99960859  1
  Ni  Ni10  1  0.50051724  0.16582119  0.16706905  1
  Ni  Ni11  1  0.33398782  0.00076778  0.33225775  1
  Cr  Cr12  1  0.33453953  0.33315015  0.99939201  1
  Ni  Ni13  1  0.50051973  0.50063161  0.16729826  1
  Ni  Ni14  1  0.33279216  0.33320597  0.33347569  1
  Ni  Ni15  1  0.33301962  0.66828056  0.00014282  1
  Ni  Ni16  1  0.49932643  0.83288556  0.16667645  1
  Ni  Ni17  1  0.33555707  0.66536443  0.33189411  1
  Ni  Ni18  1  0.66644623  0.99939820  -0.00022044  1
  Ni  Ni19  1  0.83259888  0.16581994  0.16729988  1
  Ni  Ni20  1  0.66625676  0.99974161  0.33328330  1
  Ni  Ni21  1  0.66644623  0.33322572  -0.00022044  1
  Ni  Ni22  1  0.83157582  0.49961239  0.16627692  1
  Ni  Ni23  1  0.66625710  0.33303651  0.33271179  1
  Ni  Ni24  1  0.66644623  0.66671458  -0.00022044  1
  Ni  Ni25  1  0.83276956  0.83390735  0.16565293  1
  Ni  Ni26  1  0.66451433  0.66656061  0.33345405  1
  Ni  Ni27  1  0.16644623  0.16815501  0.49977956  1
  Ni  Ni28  1  0.99890464  0.00076778  0.66730137  1
  Ni  Ni29  1  0.16667002  0.16462354  0.83106277  1
  Ni  Ni30  1  0.16644623  0.49647800  0.49977956  1
  Ni  Ni31  1  0.00010030  0.33320597  0.66608344  1
  Ni  Ni32  1  0.16564913  0.50080436  0.83208704  1
  Cr  Cr33  1  0.16644623  0.83471935  0.49977956  1
  Ni  Ni34  1  0.99733539  0.66536443  0.66766501  1
  Ni  Ni35  1  0.16565014  0.83390975  0.83449851  1
  Ni  Ni36  1  0.49968536  0.16658208  0.50000922  1
  Ni  Ni37  1  0.33379789  0.00250933  0.66747196  1
  Ni  Ni38  1  0.50029358  0.16581994  0.83225924  1
  Ni  Ni39  1  0.50071055  0.49907363  0.49875560  1
  Ni  Ni40  1  0.33260270  0.33146652  0.66625405  1
  Ni  Ni41  1  0.50131663  0.49961239  0.83328221  1
  Ni  Ni42  1  0.50228354  0.83368378  0.49875443  1
  Cr  Cr43  1  0.33387863  0.66560501  0.66707407  1
  Ni  Ni44  1  0.50012289  0.83390735  0.83390619  1
  Ni  Ni45  1  0.83320710  0.16658208  0.49954991  1
  Ni  Ni46  1  0.66663569  0.99974161  0.66627582  1
  Ni  Ni47  1  0.83237522  0.16582119  0.83249008  1
  Ni  Ni48  1  0.83218191  0.49907363  0.50080352  1
  Ni  Ni49  1  0.66663535  0.33303651  0.66684733  1
  Ni  Ni50  1  0.83237273  0.50063161  0.83226086  1
  Ni  Ni51  1  0.83060892  0.83368378  0.50080470  1
  Ni  Ni52  1  0.66837813  0.66656061  0.66610507  1
  Ni  Ni53  1  0.83356603  0.83288556  0.83288268  1
" 