7137,Ni11Cr89_8,-236.310964716833, 167.869222269137,Ni11Cr89,"# generated using pymatgen
 data_Cr5Ni49
_symmetry_space_group_name_H-M   'P 1'
_cell_length_a   7.46961530
_cell_length_b   7.46961530
_cell_length_c   10.56363126
_cell_angle_alpha   90.00000000
_cell_angle_beta   90.00000000
_cell_angle_gamma   90.00000000
_symmetry_Int_Tables_number   1
_chemical_formula_structural   Cr5Ni49
_chemical_formula_sum   'Cr5 Ni49'
_cell_volume   589.39941867
_cell_formula_units_Z   1
loop_
 _symmetry_equiv_pos_site_id
 _symmetry_equiv_pos_as_xyz
  1  'x, y, z'
loop_
 _atom_site_type_symbol
 _atom_site_label
 _atom_site_symmetry_multiplicity
 _atom_site_fract_x
 _atom_site_fract_y
 _atom_site_fract_z
 _atom_site_occupancy
  Ni  Ni0  1  -0.00012440  0.99978414  0.99977255  1
  Ni  Ni1  1  0.16506300  0.16649465  0.16671431  1
  Ni  Ni2  1  0.99969845  -0.00003906  0.33327093  1
  Ni  Ni3  1  0.00004016  0.33325277  0.99960485  1
  Ni  Ni4  1  0.16558804  0.49918853  0.16572461  1
  Ni  Ni5  1  -0.00013635  0.33307623  0.33343893  1
  Ni  Ni6  1  -0.00012473  0.66644773  -0.00009610  1
  Ni  Ni7  1  0.16559592  0.83380176  0.16572434  1
  Ni  Ni8  1  0.99802436  0.66644751  0.33330820  1
  Ni  Ni9  1  0.33238539  0.99895903  0.99895123  1
  Cr  Cr10  1  0.49963367  0.16649315  0.16670106  1
  Ni  Ni11  1  0.33238495  0.00081115  0.33426052  1
  Ni  Ni12  1  0.33238543  0.33424229  0.99930424  1
  Ni  Ni13  1  0.50060530  0.50069839  0.16572426  1
  Ni  Ni14  1  0.33238509  0.33239180  0.33390719  1
  Ni  Ni15  1  0.33337597  0.66628271  0.99924997  1
  Ni  Ni16  1  0.50059754  0.83229176  0.16572391  1
  Cr  Cr17  1  0.33336295  0.66629958  0.33357774  1
  Ni  Ni18  1  0.66722369  0.99879179  0.99878270  1
  Ni  Ni19  1  0.83480044  0.16650237  0.16649208  1
  Ni  Ni20  1  0.66740028  0.99896939  0.33426061  1
  Ni  Ni21  1  0.66705890  0.33424497  0.99861464  1
  Ni  Ni22  1  0.83329119  0.50016378  0.16671443  1
  Ni  Ni23  1  0.66723485  0.33406761  0.33442896  1
  Ni  Ni24  1  0.66623243  0.66644764  0.00012701  1
  Ni  Ni25  1  0.83329117  0.83281825  0.16671437  1
  Ni  Ni26  1  0.66808300  0.66644742  0.33308550  1
  Ni  Ni27  1  0.16593160  0.16571776  0.49883469  1
  Ni  Ni28  1  -0.00012332  0.00142918  0.66644075  1
  Ni  Ni29  1  0.16572357  0.16571821  0.83393503  1
  Ni  Ni30  1  0.16576453  0.49921912  0.49922141  1
  Ni  Ni31  1  0.99836524  0.33142646  0.66644028  1
  Ni  Ni32  1  0.16654202  0.49999582  0.83453858  1
  Ni  Ni33  1  0.16675756  0.83454798  0.50021408  1
  Cr  Cr34  1  0.00126910  0.66646627  0.66628715  1
  Ni  Ni35  1  0.16753458  0.83377067  0.83354557  1
  Ni  Ni36  1  0.50060334  0.16571782  0.49918788  1
  Ni  Ni37  1  0.33316106  0.99823855  0.66627267  1
  Ni  Ni38  1  0.50081075  0.16571826  0.83358178  1
  Ni  Ni39  1  0.50060479  0.49905353  0.49905268  1
  Cr  Cr40  1  0.33316039  0.33341363  0.66628696  1
  Ni  Ni41  1  0.49982748  0.49983005  0.83470741  1
  Ni  Ni42  1  0.49961190  0.83471327  0.50004567  1
  Ni  Ni43  1  0.33316900  0.66813977  0.66662679  1
  Ni  Ni44  1  0.49883510  0.83393623  0.83371402  1
  Ni  Ni45  1  0.83294994  0.16671077  0.50026851  1
  Ni  Ni46  1  0.66644681  0.00142110  0.66644080  1
  Ni  Ni47  1  0.83295024  0.16671061  0.83272373  1
  Ni  Ni48  1  0.83311497  0.49822087  0.49822753  1
  Ni  Ni49  1  0.66795826  0.33143448  0.66644031  1
  Ni  Ni50  1  0.83311513  0.49801250  0.83454329  1
  Ni  Ni51  1  0.83311506  0.83455184  0.49800735  1
  Cr  Cr52  1  0.66504770  0.66646629  0.66628737  1
  Ni  Ni53  1  0.83311523  0.83476036  0.83476344  1
" 