15,Ni11Fe46Cr42_12,-220.623843499526, 176.459693508388,Ni11Fe46Cr42,"# generated using pymatgen
 data_Cr23Fe25Ni6
_symmetry_space_group_name_H-M   'P 1'
_cell_length_a   7.50421232
_cell_length_b   7.50421232
_cell_length_c   10.61255884
_cell_angle_alpha   90.00000000
_cell_angle_beta   90.00000000
_cell_angle_gamma   90.00000000
_symmetry_Int_Tables_number   1
_chemical_formula_structural   Cr23Fe25Ni6
_chemical_formula_sum   'Cr23 Fe25 Ni6'
_cell_volume   597.62717604
_cell_formula_units_Z   1
loop_
 _symmetry_equiv_pos_site_id
 _symmetry_equiv_pos_as_xyz
  1  'x, y, z'
loop_
 _atom_site_type_symbol
 _atom_site_label
 _atom_site_symmetry_multiplicity
 _atom_site_fract_x
 _atom_site_fract_y
 _atom_site_fract_z
 _atom_site_occupancy
  Fe  Fe0  1  0.99656094  0.99700293  -0.00005719  1
  Cr  Cr1  1  0.16810686  0.16223071  0.16293370  1
  Cr  Cr2  1  0.99510630  0.99692986  0.33056439  1
  Cr  Cr3  1  0.99712002  0.33187332  0.99628808  1
  Cr  Cr4  1  0.16477911  0.49862955  0.16638614  1
  Fe  Fe5  1  0.99591934  0.33047372  0.32968187  1
  Ni  Ni6  1  0.99611958  0.66617817  0.00027111  1
  Ni  Ni7  1  0.16229198  0.82968101  0.16389045  1
  Cr  Cr8  1  -0.00154485  0.66511189  0.33136973  1
  Fe  Fe9  1  0.33211805  0.99600084  -0.00097063  1
  Ni  Ni10  1  0.49837884  0.16515434  0.16518227  1
  Fe  Fe11  1  0.33134511  0.99319695  0.32842405  1
  Cr  Cr12  1  0.33167134  0.33079935  0.99249207  1
  Fe  Fe13  1  0.49577051  0.49894578  0.16452262  1
  Fe  Fe14  1  0.33306910  0.33136676  0.32831614  1
  Fe  Fe15  1  0.33040903  0.66480942  -0.00018616  1
  Fe  Fe16  1  0.49340448  0.83246589  0.16226752  1
  Ni  Ni17  1  0.33120339  0.66472877  0.33055977  1
  Fe  Fe18  1  0.66355785  0.99573862  0.00081338  1
  Fe  Fe19  1  0.83190432  0.16189620  0.16336038  1
  Cr  Cr20  1  0.66359896  -0.00057921  0.32864879  1
  Cr  Cr21  1  0.66441127  0.32974515  0.00054178  1
  Fe  Fe22  1  0.83155244  0.49872731  0.16382182  1
  Fe  Fe23  1  0.66511701  0.33231049  0.32591627  1
  Fe  Fe24  1  0.66371599  0.66359599  0.00001658  1
  Ni  Ni25  1  0.83071964  0.82951080  0.15982181  1
  Cr  Cr26  1  0.66314912  0.66795794  0.32605249  1
  Cr  Cr27  1  0.16606980  0.16404922  0.49491211  1
  Fe  Fe28  1  0.00142694  -0.00244831  0.66395505  1
  Ni  Ni29  1  0.16431938  0.16223413  0.83297400  1
  Fe  Fe30  1  0.16577928  0.49602798  0.49439290  1
  Cr  Cr31  1  -0.00221132  0.33069567  0.66622480  1
  Fe  Fe32  1  0.16198293  0.50079766  0.83403600  1
  Fe  Fe33  1  0.16782482  0.82986871  0.49462388  1
  Cr  Cr34  1  0.00030926  0.66229462  0.66237327  1
  Cr  Cr35  1  0.16175983  0.83230493  0.83566874  1
  Cr  Cr36  1  0.49795027  0.16639207  0.49593438  1
  Cr  Cr37  1  0.33246648  0.99569594  0.66341365  1
  Cr  Cr38  1  0.49797976  0.16365292  0.83050671  1
  Cr  Cr39  1  0.49689080  0.49704087  0.49515371  1
  Cr  Cr40  1  0.32897773  0.33266839  0.67050543  1
  Fe  Fe41  1  0.50054646  0.50228110  0.83244664  1
  Fe  Fe42  1  0.49731522  0.83042303  0.49579660  1
  Cr  Cr43  1  0.33165366  0.66502841  0.66387877  1
  Fe  Fe44  1  0.49692641  0.83105994  0.83360489  1
  Fe  Fe45  1  0.83001794  0.16554925  0.49885837  1
  Fe  Fe46  1  0.66324703  0.99658248  0.66344228  1
  Cr  Cr47  1  0.83130445  0.15959978  0.82866829  1
  Cr  Cr48  1  0.82828123  0.49772101  0.49625077  1
  Fe  Fe49  1  0.66347163  0.33327558  0.66535721  1
  Fe  Fe50  1  0.83032634  0.49739989  0.83215573  1
  Cr  Cr51  1  0.83059119  0.83144052  0.50311268  1
  Fe  Fe52  1  0.66198969  0.66286132  0.66590592  1
  Cr  Cr53  1  0.82952919  0.82730250  0.83120011  1
" 