4900,Ni11Fe64Cr23_10,-224.154741419859, 167.535247387461,Ni11Fe64Cr23,"# generated using pymatgen
 data_Cr7Fe17Ni3
_symmetry_space_group_name_H-M   'P 1'
_cell_length_a   7.47066131
_cell_length_b   7.47066131
_cell_length_c   10.56511054
_cell_angle_alpha   90.00000000
_cell_angle_beta   90.00000000
_cell_angle_gamma   90.00000000
_symmetry_Int_Tables_number   1
_chemical_formula_structural   Cr7Fe17Ni3
_chemical_formula_sum   'Cr14 Fe34 Ni6'
_cell_volume   589.64706378
_cell_formula_units_Z   2
loop_
 _symmetry_equiv_pos_site_id
 _symmetry_equiv_pos_as_xyz
  1  'x, y, z'
loop_
 _atom_site_type_symbol
 _atom_site_label
 _atom_site_symmetry_multiplicity
 _atom_site_fract_x
 _atom_site_fract_y
 _atom_site_fract_z
 _atom_site_occupancy
  Fe  Fe0  1  0.00257909  0.00137639  0.99956553  1
  Fe  Fe1  1  0.16593635  0.16652532  0.16842603  1
  Fe  Fe2  1  0.00192600  0.00044282  0.33470602  1
  Fe  Fe3  1  0.00001536  0.33497811  0.00073763  1
  Fe  Fe4  1  0.16413769  0.49762690  0.16835666  1
  Fe  Fe5  1  0.00155215  0.33229207  0.33148230  1
  Fe  Fe6  1  0.99840201  0.66277884  0.99886093  1
  Cr  Cr7  1  0.16617471  0.83264291  0.16614995  1
  Fe  Fe8  1  0.99846383  0.66611407  0.33487114  1
  Fe  Fe9  1  0.33353516  0.99944622  -0.00004419  1
  Fe  Fe10  1  0.49826373  0.16486064  0.16962132  1
  Ni  Ni11  1  0.33330966  0.00174469  0.33373252  1
  Cr  Cr12  1  0.33268945  0.33294431  0.00156859  1
  Fe  Fe13  1  0.50135125  0.50088661  0.16833239  1
  Ni  Ni14  1  0.33446069  0.33081005  0.33263852  1
  Cr  Cr15  1  0.33471163  0.66614813  0.99883600  1
  Fe  Fe16  1  0.49998940  0.83359684  0.16662953  1
  Cr  Cr17  1  0.33419895  0.66670395  0.33336994  1
  Cr  Cr18  1  0.66512976  -0.00019554  0.00116976  1
  Fe  Fe19  1  0.83541820  0.16753547  0.16847088  1
  Fe  Fe20  1  0.66281011  0.99972636  0.33315919  1
  Cr  Cr21  1  0.66650562  0.33517056  0.00237963  1
  Fe  Fe22  1  0.83411929  0.50017075  0.16737398  1
  Fe  Fe23  1  0.66351742  0.33335342  0.33273431  1
  Ni  Ni24  1  0.66647700  0.66525918  0.99937583  1
  Cr  Cr25  1  0.83271155  0.83243221  0.16682292  1
  Fe  Fe26  1  0.66578801  0.66594204  0.33341794  1
  Fe  Fe27  1  0.16880717  0.16499160  0.49797183  1
  Cr  Cr28  1  0.00149933  0.99892400  0.66488156  1
  Fe  Fe29  1  0.16723570  0.16529053  0.83313725  1
  Cr  Cr30  1  0.16868510  0.49752227  0.49829859  1
  Fe  Fe31  1  0.99950781  0.33410915  0.66689014  1
  Fe  Fe32  1  0.16629174  0.49919263  0.83184601  1
  Fe  Fe33  1  0.16664357  0.83563674  0.49772460  1
  Cr  Cr34  1  -0.00005470  0.66783706  0.66530002  1
  Fe  Fe35  1  0.16895336  0.83492322  0.83386619  1
  Fe  Fe36  1  0.49794202  0.16676581  0.49979601  1
  Fe  Fe37  1  0.33477657  0.99838165  0.66467182  1
  Cr  Cr38  1  0.49920895  0.16584415  0.83015788  1
  Fe  Fe39  1  0.50300479  0.49841874  0.50009710  1
  Fe  Fe40  1  0.33280272  0.33341416  0.66539099  1
  Fe  Fe41  1  0.50217288  0.50194233  0.83092402  1
  Fe  Fe42  1  0.50057255  0.83441778  0.50070560  1
  Fe  Fe43  1  0.33585098  0.66692625  0.66716488  1
  Ni  Ni44  1  0.49784719  0.83107008  0.83252331  1
  Cr  Cr45  1  0.83104002  0.16645480  0.49952572  1
  Fe  Fe46  1  0.66448359  0.99744039  0.66501213  1
  Cr  Cr47  1  0.83342734  0.16828568  0.83283875  1
  Fe  Fe48  1  0.83036274  0.50083208  0.49924129  1
  Ni  Ni49  1  0.66485082  0.33581398  0.66521934  1
  Fe  Fe50  1  0.83088855  0.50015604  0.83265684  1
  Ni  Ni51  1  0.83052725  0.83234362  0.49697049  1
  Fe  Fe52  1  0.66468226  0.66660055  0.66609875  1
  Cr  Cr53  1  0.83075522  0.83209104  0.83528324  1
" 