1486,Ni11Fe46Cr42_4,-221.2438386808, 177.625750076335,Ni11Fe46Cr42,"# generated using pymatgen
 data_Cr23Fe25Ni6
_symmetry_space_group_name_H-M   'P 1'
_cell_length_a   7.51178312
_cell_length_b   7.51178312
_cell_length_c   10.62326556
_cell_angle_alpha   90.00000000
_cell_angle_beta   90.00000000
_cell_angle_gamma   90.00000000
_symmetry_Int_Tables_number   1
_chemical_formula_structural   Cr23Fe25Ni6
_chemical_formula_sum   'Cr23 Fe25 Ni6'
_cell_volume   599.43779051
_cell_formula_units_Z   1
loop_
 _symmetry_equiv_pos_site_id
 _symmetry_equiv_pos_as_xyz
  1  'x, y, z'
loop_
 _atom_site_type_symbol
 _atom_site_label
 _atom_site_symmetry_multiplicity
 _atom_site_fract_x
 _atom_site_fract_y
 _atom_site_fract_z
 _atom_site_occupancy
  Fe  Fe0  1  -0.00235902  -0.00258265  0.99552558  1
  Ni  Ni1  1  0.16539175  0.16531942  0.16334388  1
  Cr  Cr2  1  -0.00014066  -0.00259425  0.33002588  1
  Fe  Fe3  1  -0.00103752  0.32826486  -0.00276546  1
  Fe  Fe4  1  0.16463858  0.49361926  0.16297595  1
  Fe  Fe5  1  -0.00020514  0.32736314  0.33036568  1
  Fe  Fe6  1  0.99634298  0.66560447  0.99578673  1
  Cr  Cr7  1  0.16254688  0.83028544  0.16220423  1
  Cr  Cr8  1  -0.00295734  0.66367992  0.33027907  1
  Cr  Cr9  1  0.32825480  -0.00047440  0.99564740  1
  Ni  Ni10  1  0.49360322  0.16367742  0.16525450  1
  Ni  Ni11  1  0.33019058  -0.00152784  0.33206752  1
  Fe  Fe12  1  0.32809242  0.32925506  -0.00124684  1
  Cr  Cr13  1  0.49425132  0.49676368  0.16326242  1
  Fe  Fe14  1  0.32733364  0.32707219  0.32863898  1
  Fe  Fe15  1  0.32990716  0.66460142  0.99619174  1
  Cr  Cr16  1  0.49763696  0.83158993  0.16643335  1
  Fe  Fe17  1  0.33011663  0.66651619  0.33126391  1
  Cr  Cr18  1  0.66434406  0.99611335  -0.00171499  1
  Cr  Cr19  1  0.83118937  0.16154230  0.16463386  1
  Fe  Fe20  1  0.66197520  -0.00268022  0.32997389  1
  Cr  Cr21  1  0.66191663  0.33100726  0.99536274  1
  Cr  Cr22  1  0.83218408  0.49918026  0.16317023  1
  Cr  Cr23  1  0.66237120  0.32994400  0.33099913  1
  Fe  Fe24  1  0.66470966  0.66526594  0.99571604  1
  Fe  Fe25  1  0.82989975  0.83079868  0.16339883  1
  Fe  Fe26  1  0.66204675  0.66622999  0.33063145  1
  Fe  Fe27  1  0.16250560  0.16218457  0.49535327  1
  Cr  Cr28  1  -0.00007315  -0.00262445  0.66417712  1
  Fe  Fe29  1  0.16207603  0.16286767  0.83168341  1
  Cr  Cr30  1  0.16407974  0.49822694  0.49512913  1
  Fe  Fe31  1  0.99545041  0.32861585  0.66426449  1
  Cr  Cr32  1  0.16291231  0.49851867  0.83277476  1
  Ni  Ni33  1  0.16824141  0.83166955  0.49786019  1
  Cr  Cr34  1  -0.00208046  0.66503263  0.66360375  1
  Ni  Ni35  1  0.16295616  0.83066452  0.83067157  1
  Cr  Cr36  1  0.49892002  0.16058268  0.49667097  1
  Fe  Fe37  1  0.32985240  0.99298960  0.66343277  1
  Cr  Cr38  1  0.49869658  0.16238143  0.82914463  1
  Cr  Cr39  1  0.49568750  0.49881379  0.49685694  1
  Cr  Cr40  1  0.32977840  0.32803557  0.66354384  1
  Cr  Cr41  1  0.49683515  0.49787243  0.83076369  1
  Fe  Fe42  1  0.49486146  0.83153654  0.49579743  1
  Fe  Fe43  1  0.32911830  0.66815863  0.66408132  1
  Fe  Fe44  1  0.49473805  0.82994229  0.83012096  1
  Ni  Ni45  1  0.83039794  0.16343424  0.49923291  1
  Fe  Fe46  1  0.66432951  -0.00256174  0.66405373  1
  Fe  Fe47  1  0.83327134  0.16387112  0.82929486  1
  Cr  Cr48  1  0.83122790  0.49293026  0.49845763  1
  Fe  Fe49  1  0.66721078  0.32785281  0.66419547  1
  Fe  Fe50  1  0.83192582  0.49691058  0.83111555  1
  Cr  Cr51  1  0.82969987  0.83373888  0.49300948  1
  Cr  Cr52  1  0.66300910  0.66341476  0.66489015  1
  Fe  Fe53  1  0.83133267  0.83031017  0.83159902  1
" 