8808,Ni11Cr89_14,-236.349740686211, 167.775633836356,Ni11Cr89,"# generated using pymatgen
 data_Cr5Ni49
_symmetry_space_group_name_H-M   'P 1'
_cell_length_a   7.46843006
_cell_length_b   7.46843006
_cell_length_c   10.56195508
_cell_angle_alpha   90.00000000
_cell_angle_beta   90.00000000
_cell_angle_gamma   90.00000000
_symmetry_Int_Tables_number   1
_chemical_formula_structural   Cr5Ni49
_chemical_formula_sum   'Cr5 Ni49'
_cell_volume   589.11889575
_cell_formula_units_Z   1
loop_
 _symmetry_equiv_pos_site_id
 _symmetry_equiv_pos_as_xyz
  1  'x, y, z'
loop_
 _atom_site_type_symbol
 _atom_site_label
 _atom_site_symmetry_multiplicity
 _atom_site_fract_x
 _atom_site_fract_y
 _atom_site_fract_z
 _atom_site_occupancy
  Cr  Cr0  1  0.00039138  0.99950848  0.00008735  1
  Ni  Ni1  1  0.16771777  0.16778757  0.16708657  1
  Ni  Ni2  1  0.99895464  0.99883188  0.33224822  1
  Ni  Ni3  1  0.99986561  0.33477476  0.99928012  1
  Ni  Ni4  1  0.16621503  0.49984753  0.16661902  1
  Ni  Ni5  1  0.99877180  0.33410405  0.33249514  1
  Ni  Ni6  1  0.00016395  0.66494727  0.99974586  1
  Ni  Ni7  1  0.16756964  0.83204481  0.16779678  1
  Ni  Ni8  1  0.00014193  0.66678228  0.33340848  1
  Ni  Ni9  1  0.33384408  0.99871621  0.00064079  1
  Ni  Ni10  1  0.49982524  0.16633307  0.16683914  1
  Ni  Ni11  1  0.33410198  0.99869776  0.33224887  1
  Ni  Ni12  1  0.33251698  0.33463988  0.00067090  1
  Ni  Ni13  1  0.50002212  0.50000172  0.16639965  1
  Ni  Ni14  1  0.33457890  0.33454770  0.33252853  1
  Ni  Ni15  1  0.33340680  0.66640230  0.99972836  1
  Ni  Ni16  1  0.50015187  0.83341214  0.16614134  1
  Ni  Ni17  1  0.33337649  0.66644344  0.33342494  1
  Ni  Ni18  1  0.66601572  0.99899343  0.00043977  1
  Ni  Ni19  1  0.83219491  0.16761895  0.16751376  1
  Ni  Ni20  1  0.66666538  0.00005585  0.33366492  1
  Ni  Ni21  1  0.66733952  0.33450784  0.00111882  1
  Ni  Ni22  1  0.83348514  0.50016978  0.16638291  1
  Ni  Ni23  1  0.66632615  0.33339754  0.33322236  1
  Ni  Ni24  1  0.66615111  0.66622563  0.99952034  1
  Ni  Ni25  1  0.83201609  0.83190332  0.16753939  1
  Ni  Ni26  1  0.66620037  0.66626402  0.33342010  1
  Cr  Cr27  1  0.16777387  0.16786700  0.49930511  1
  Cr  Cr28  1  0.99867121  0.99887626  0.66786329  1
  Ni  Ni29  1  0.16694029  0.16883536  0.83330226  1
  Ni  Ni30  1  0.16620699  0.50170461  0.50028997  1
  Ni  Ni31  1  0.00063710  0.33596923  0.66795642  1
  Ni  Ni32  1  0.16615960  0.49994658  0.83282788  1
  Ni  Ni33  1  0.16752544  0.83029865  0.49891934  1
  Ni  Ni34  1  0.00017891  0.66502278  0.66653676  1
  Ni  Ni35  1  0.16856253  0.83092380  0.83306812  1
  Ni  Ni36  1  0.50061268  0.16524273  0.49887796  1
  Ni  Ni37  1  0.33472153  0.99757255  0.66678631  1
  Cr  Cr38  1  0.49876188  0.16517817  0.83401617  1
  Ni  Ni39  1  0.49897912  0.50116367  0.49906726  1
  Ni  Ni40  1  0.33176484  0.33571281  0.66656752  1
  Ni  Ni41  1  0.49894935  0.50286530  0.83419212  1
  Ni  Ni42  1  0.50022452  0.83332615  0.50051321  1
  Ni  Ni43  1  0.33336742  0.66645432  0.66656489  1
  Ni  Ni44  1  0.50014947  0.83153974  0.83304976  1
  Ni  Ni45  1  0.83141627  0.16655892  0.49815555  1
  Ni  Ni46  1  0.66583190  0.99720245  0.66562222  1
  Ni  Ni47  1  0.83395472  0.16768910  0.83403970  1
  Ni  Ni48  1  0.83447981  0.50131987  0.49913186  1
  Cr  Cr49  1  0.66731147  0.33477738  0.66492447  1
  Ni  Ni50  1  0.83458542  0.50133409  0.83417675  1
  Ni  Ni51  1  0.83198265  0.83181525  0.49915893  1
  Ni  Ni52  1  0.66617607  0.66811152  0.66681155  1
  Ni  Ni53  1  0.83106647  0.83073466  0.83306431  1
" 