5689,Ni11Fe46Cr42_8,-220.621350767647, 170.274291465278,Ni11Fe46Cr42,"# generated using pymatgen
 data_Cr23Fe25Ni6
_symmetry_space_group_name_H-M   'P 1'
_cell_length_a   7.50934379
_cell_length_b   7.50934379
_cell_length_c   10.61981583
_cell_angle_alpha   90.00000000
_cell_angle_beta   90.00000000
_cell_angle_gamma   90.00000000
_symmetry_Int_Tables_number   1
_chemical_formula_structural   Cr23Fe25Ni6
_chemical_formula_sum   'Cr23 Fe25 Ni6'
_cell_volume   598.85400728
_cell_formula_units_Z   1
loop_
 _symmetry_equiv_pos_site_id
 _symmetry_equiv_pos_as_xyz
  1  'x, y, z'
loop_
 _atom_site_type_symbol
 _atom_site_label
 _atom_site_symmetry_multiplicity
 _atom_site_fract_x
 _atom_site_fract_y
 _atom_site_fract_z
 _atom_site_occupancy
  Fe  Fe0  1  0.99581958  0.99684523  0.99698771  1
  Fe  Fe1  1  0.16551597  0.16412614  0.16483005  1
  Cr  Cr2  1  -0.00013004  0.99708570  0.32987110  1
  Cr  Cr3  1  -0.00205961  0.33089832  -0.00162482  1
  Fe  Fe4  1  0.16676054  0.49704676  0.16392726  1
  Cr  Cr5  1  -0.00179390  0.33118627  0.32944928  1
  Cr  Cr6  1  0.99281887  0.66186469  -0.00117280  1
  Cr  Cr7  1  0.16523829  0.82803000  0.16214445  1
  Cr  Cr8  1  0.99521872  0.66247009  0.33014233  1
  Cr  Cr9  1  0.33279699  -0.00254051  -0.00252283  1
  Cr  Cr10  1  0.49808206  0.16640491  0.16643698  1
  Fe  Fe11  1  0.33141503  -0.00280454  0.33090384  1
  Cr  Cr12  1  0.33115060  0.32890827  0.99614133  1
  Ni  Ni13  1  0.49500754  0.49896843  0.16513257  1
  Fe  Fe14  1  0.32983402  0.33299574  0.33006464  1
  Fe  Fe15  1  0.33335472  0.66090680  0.99697149  1
  Fe  Fe16  1  0.49983118  0.82903102  0.16439441  1
  Fe  Fe17  1  0.33225762  0.66211238  0.33050412  1
  Fe  Fe18  1  0.66369400  0.99580724  0.99625538  1
  Cr  Cr19  1  0.82853351  0.16253294  0.16391795  1
  Fe  Fe20  1  0.66370007  0.99329230  0.32946522  1
  Cr  Cr21  1  0.66251502  0.33521402  -0.00232286  1
  Fe  Fe22  1  0.82564579  0.49909267  0.16518600  1
  Fe  Fe23  1  0.66268244  0.33485776  0.32930613  1
  Fe  Fe24  1  0.66023075  0.66618767  -0.00217707  1
  Ni  Ni25  1  0.82970207  0.82961844  0.16210175  1
  Fe  Fe26  1  0.66155393  0.66461950  0.32860045  1
  Ni  Ni27  1  0.16769024  0.16662332  0.49706853  1
  Cr  Cr28  1  -0.00083563  -0.00264709  0.66351718  1
  Fe  Fe29  1  0.16438653  0.16354107  0.82928141  1
  Fe  Fe30  1  0.16735001  0.49420847  0.49805020  1
  Fe  Fe31  1  0.00119126  0.33084070  0.66383390  1
  Fe  Fe32  1  0.16519157  0.49553718  0.82943788  1
  Cr  Cr33  1  0.16688078  0.82674562  0.49714106  1
  Cr  Cr34  1  0.99660944  0.66145528  0.66277479  1
  Cr  Cr35  1  0.16421062  0.82559897  0.83191261  1
  Cr  Cr36  1  0.49898298  0.16684105  0.49502800  1
  Cr  Cr37  1  0.33328219  -0.00218424  0.66315519  1
  Ni  Ni38  1  0.49697815  0.16640728  0.82980636  1
  Fe  Fe39  1  0.49356181  0.49936602  0.49535235  1
  Fe  Fe40  1  0.32956639  0.33250609  0.66507726  1
  Fe  Fe41  1  0.49534963  0.50018367  0.83144321  1
  Fe  Fe42  1  0.49698004  0.82966059  0.49595843  1
  Ni  Ni43  1  0.33337427  0.66151361  0.66388308  1
  Fe  Fe44  1  0.49844528  0.83172950  0.83116192  1
  Cr  Cr45  1  0.82928616  0.16426368  0.49826744  1
  Fe  Fe46  1  0.66210938  0.99529619  0.66601824  1
  Cr  Cr47  1  0.82828731  0.16336078  0.82944244  1
  Cr  Cr48  1  0.82804968  0.49586624  0.49663775  1
  Cr  Cr49  1  0.66103266  0.33259922  0.66507721  1
  Fe  Fe50  1  0.83012447  0.49826026  0.83055429  1
  Cr  Cr51  1  0.82903487  0.83147896  0.49760133  1
  Cr  Cr52  1  0.66195889  0.66455037  0.66502710  1
  Ni  Ni53  1  0.82946848  0.82956219  0.83250003  1
" 