5564,Ni11Cr89_4,-236.286943875677, 166.732779549934,Ni11Cr89,"# generated using pymatgen
 data_Cr5Ni49
_symmetry_space_group_name_H-M   'P 1'
_cell_length_a   7.46994953
_cell_length_b   7.46994953
_cell_length_c   10.56410394
_cell_angle_alpha   90.00000000
_cell_angle_beta   90.00000000
_cell_angle_gamma   90.00000000
_symmetry_Int_Tables_number   1
_chemical_formula_structural   Cr5Ni49
_chemical_formula_sum   'Cr5 Ni49'
_cell_volume   589.47854276
_cell_formula_units_Z   1
loop_
 _symmetry_equiv_pos_site_id
 _symmetry_equiv_pos_as_xyz
  1  'x, y, z'
loop_
 _atom_site_type_symbol
 _atom_site_label
 _atom_site_symmetry_multiplicity
 _atom_site_fract_x
 _atom_site_fract_y
 _atom_site_fract_z
 _atom_site_occupancy
  Ni  Ni0  1  0.99975165  0.00155495  0.99974932  1
  Ni  Ni1  1  0.16635529  0.16658484  0.16611076  1
  Ni  Ni2  1  0.99895563  0.99883951  0.33217394  1
  Ni  Ni3  1  0.99958141  0.33167759  0.99934822  1
  Ni  Ni4  1  0.16771705  0.49878219  0.16749443  1
  Ni  Ni5  1  0.99878607  0.33438849  0.33257524  1
  Cr  Cr6  1  -0.00001584  0.66643463  0.99976518  1
  Ni  Ni7  1  0.16737705  0.83405165  0.16749438  1
  Ni  Ni8  1  -0.00002198  0.66618823  0.33378711  1
  Ni  Ni9  1  0.33355577  -0.00000823  0.99951973  1
  Ni  Ni10  1  0.49958143  0.16692081  0.16670269  1
  Ni  Ni11  1  0.33416453  0.99900969  0.33257542  1
  Ni  Ni12  1  0.33269983  0.33221083  0.00036924  1
  Ni  Ni13  1  0.49975087  0.49997708  0.16630173  1
  Ni  Ni14  1  0.33330787  0.33319169  0.33172496  1
  Ni  Ni15  1  0.33408962  0.66721440  0.00054085  1
  Ni  Ni16  1  0.49975472  0.83251883  0.16630163  1
  Ni  Ni17  1  0.33194796  0.66721339  0.33240392  1
  Ni  Ni18  1  0.66611009  0.00016592  0.99934825  1
  Ni  Ni19  1  0.83348016  0.16658117  0.16647342  1
  Ni  Ni20  1  0.66629736  0.00020183  0.33376734  1
  Ni  Ni21  1  0.66713627  0.33220616  0.00073276  1
  Ni  Ni22  1  0.83194996  0.49895728  0.16732141  1
  Ni  Ni23  1  0.66732310  0.33217171  0.33238370  1
  Ni  Ni24  1  0.66557797  0.66704643  0.00037141  1
  Ni  Ni25  1  0.83228546  0.83388030  0.16732191  1
  Ni  Ni26  1  0.66749231  0.66704384  0.33234564  1
  Cr  Cr27  1  0.16632167  0.16653392  0.49984636  1
  Ni  Ni28  1  0.99914449  0.99865453  0.66749233  1
  Ni  Ni29  1  0.16616803  0.16662009  0.83321428  1
  Ni  Ni30  1  0.16499564  0.50127314  0.50026308  1
  Ni  Ni31  1  0.00071368  0.33460965  0.66749277  1
  Ni  Ni32  1  0.16579341  0.49856093  0.83166085  1
  Ni  Ni33  1  0.16639468  0.83152260  0.49986255  1
  Ni  Ni34  1  0.00016533  0.66615376  0.66611062  1
  Ni  Ni35  1  0.16718845  0.83423639  0.83206202  1
  Ni  Ni36  1  0.50070016  0.16419670  0.49923754  1
  Ni  Ni37  1  0.33419708  0.99882329  0.66732033  1
  Ni  Ni38  1  0.49878302  0.16420266  0.83347496  1
  Cr  Cr39  1  0.49897330  0.50058765  0.49902674  1
  Ni  Ni40  1  0.33058123  0.33239267  0.66732334  1
  Cr  Cr41  1  0.49917926  0.50099661  0.83430210  1
  Ni  Ni42  1  0.50016402  0.83447736  0.50026302  1
  Ni  Ni43  1  0.33096161  0.66819973  0.66647436  1
  Ni  Ni44  1  0.49997704  0.83444472  0.83285242  1
  Ni  Ni45  1  0.83232392  0.16559600  0.49906868  1
  Ni  Ni46  1  0.66607510  0.99827173  0.66630193  1
  Ni  Ni47  1  0.83446372  0.16559741  0.83387337  1
  Ni  Ni48  1  0.83527754  0.50073612  0.49923971  1
  Cr  Cr49  1  0.66790106  0.33114420  0.66608767  1
  Ni  Ni50  1  0.83467262  0.49975536  0.83285590  1
  Ni  Ni51  1  0.83285882  0.83308588  0.50009206  1
  Ni  Ni52  1  0.66829244  0.66976619  0.66670236  1
  Ni  Ni53  1  0.83225211  0.83406653  0.83200512  1
" 