8070,Ni11Fe46Cr42_0,-220.687557922811, 182.429592460112,Ni11Fe46Cr42,"# generated using pymatgen
 data_Cr23Fe25Ni6
_symmetry_space_group_name_H-M   'P 1'
_cell_length_a   7.49842258
_cell_length_b   7.49842258
_cell_length_c   10.60437091
_cell_angle_alpha   90.00000000
_cell_angle_beta   90.00000000
_cell_angle_gamma   90.00000000
_symmetry_Int_Tables_number   1
_chemical_formula_structural   Cr23Fe25Ni6
_chemical_formula_sum   'Cr23 Fe25 Ni6'
_cell_volume   596.24497661
_cell_formula_units_Z   1
loop_
 _symmetry_equiv_pos_site_id
 _symmetry_equiv_pos_as_xyz
  1  'x, y, z'
loop_
 _atom_site_type_symbol
 _atom_site_label
 _atom_site_symmetry_multiplicity
 _atom_site_fract_x
 _atom_site_fract_y
 _atom_site_fract_z
 _atom_site_occupancy
  Fe  Fe0  1  -0.00035869  0.00157665  0.99487002  1
  Fe  Fe1  1  0.16597555  0.16474595  0.16349008  1
  Fe  Fe2  1  -0.00019281  -0.00155757  0.33294659  1
  Cr  Cr3  1  0.00097185  0.33276097  0.99749780  1
  Fe  Fe4  1  0.16496849  0.49645388  0.16234772  1
  Cr  Cr5  1  0.00057961  0.33140051  0.33093844  1
  Fe  Fe6  1  0.00071759  0.66422187  0.99758182  1
  Cr  Cr7  1  0.16644625  0.83225465  0.16400757  1
  Cr  Cr8  1  0.99613778  0.66008889  0.33314229  1
  Cr  Cr9  1  0.33504042  0.00128227  0.99653094  1
  Cr  Cr10  1  0.49939963  0.16811234  0.16474639  1
  Fe  Fe11  1  0.32887651  -0.00025718  0.33209776  1
  Ni  Ni12  1  0.32752766  0.33217469  0.99461215  1
  Cr  Cr13  1  0.49877431  0.49523665  0.16280241  1
  Cr  Cr14  1  0.32785758  0.32918241  0.33411535  1
  Fe  Fe15  1  0.32917982  0.66145530  -0.00162662  1
  Fe  Fe16  1  0.49997184  0.83354206  0.16283784  1
  Cr  Cr17  1  0.33231550  0.66240170  0.32847552  1
  Ni  Ni18  1  0.66653133  -0.00078737  0.99480922  1
  Cr  Cr19  1  0.83105765  0.16757684  0.16386879  1
  Cr  Cr20  1  0.66149609  0.99631226  0.33197441  1
  Fe  Fe21  1  0.66234635  0.32849606  0.99513861  1
  Fe  Fe22  1  0.83120286  0.49881273  0.16334019  1
  Fe  Fe23  1  0.66393054  0.33403315  0.33416237  1
  Cr  Cr24  1  0.66579977  0.66883193  -0.00110766  1
  Cr  Cr25  1  0.83737081  0.83544022  0.16359850  1
  Cr  Cr26  1  0.66564766  0.66597314  0.33412759  1
  Fe  Fe27  1  0.16593047  0.16433036  0.50148490  1
  Ni  Ni28  1  0.99730364  0.00251408  0.66505150  1
  Fe  Fe29  1  0.16378529  0.16606983  0.82874827  1
  Fe  Fe30  1  0.16612911  0.49618737  0.50159240  1
  Ni  Ni31  1  0.00130186  0.33226815  0.66471103  1
  Fe  Fe32  1  0.16347613  0.49673028  0.82842865  1
  Cr  Cr33  1  0.16052884  0.83217713  0.49921318  1
  Fe  Fe34  1  0.99669040  0.66341628  0.66288074  1
  Cr  Cr35  1  0.16391659  0.82986248  0.82925491  1
  Ni  Ni36  1  0.49767837  0.16730270  0.49964602  1
  Fe  Fe37  1  0.32831890  0.00226709  0.66542749  1
  Fe  Fe38  1  0.49944917  0.16476853  0.83096837  1
  Fe  Fe39  1  0.49806715  0.49554298  0.50151634  1
  Fe  Fe40  1  0.33049050  0.32757455  0.66438579  1
  Cr  Cr41  1  0.49520917  0.49347721  0.82853865  1
  Cr  Cr42  1  0.49077210  0.83100795  0.49920025  1
  Fe  Fe43  1  0.32762859  0.66139582  0.66341797  1
  Cr  Cr44  1  0.49365067  0.82664800  0.83187748  1
  Cr  Cr45  1  0.83182379  0.16595214  0.49694837  1
  Cr  Cr46  1  0.66191894  0.99535056  0.66848287  1
  Ni  Ni47  1  0.83300331  0.16567123  0.83170495  1
  Fe  Fe48  1  0.83111310  0.49704849  0.50219097  1
  Fe  Fe49  1  0.66770097  0.32746171  0.66432605  1
  Cr  Cr50  1  0.83037219  0.49444066  0.83094751  1
  Fe  Fe51  1  0.82943796  0.83295809  0.50184214  1
  Fe  Fe52  1  0.66584891  0.66200278  0.66333684  1
  Cr  Cr53  1  0.83590829  0.83283488  0.82957665  1
" 