8435,Ni11Cr89_11,-236.319512814549, 167.702185002644,Ni11Cr89,"# generated using pymatgen
 data_Cr5Ni49
_symmetry_space_group_name_H-M   'P 1'
_cell_length_a   7.46957919
_cell_length_b   7.46957919
_cell_length_c   10.56358020
_cell_angle_alpha   90.00000000
_cell_angle_beta   90.00000000
_cell_angle_gamma   90.00000000
_symmetry_Int_Tables_number   1
_chemical_formula_structural   Cr5Ni49
_chemical_formula_sum   'Cr5 Ni49'
_cell_volume   589.39087291
_cell_formula_units_Z   1
loop_
 _symmetry_equiv_pos_site_id
 _symmetry_equiv_pos_as_xyz
  1  'x, y, z'
loop_
 _atom_site_type_symbol
 _atom_site_label
 _atom_site_symmetry_multiplicity
 _atom_site_fract_x
 _atom_site_fract_y
 _atom_site_fract_z
 _atom_site_occupancy
  Ni  Ni0  1  0.99911118  0.99909968  0.99933265  1
  Ni  Ni1  1  0.16654890  0.16833429  0.16677612  1
  Ni  Ni2  1  0.99908124  0.99891638  0.33394209  1
  Ni  Ni3  1  0.00031738  0.33402508  0.99933225  1
  Ni  Ni4  1  0.16685135  0.49973992  0.16694571  1
  Ni  Ni5  1  0.00298852  0.33324200  0.33310821  1
  Ni  Ni6  1  0.99947981  0.66636782  0.00016647  1
  Ni  Ni7  1  0.16501186  0.83141778  0.16655214  1
  Ni  Ni8  1  0.00044498  0.66733335  0.33210595  1
  Cr  Cr9  1  0.33298995  -0.00013851  -0.00010741  1
  Ni  Ni10  1  0.49899724  0.16733006  0.16577109  1
  Cr  Cr11  1  0.33319210  0.00006397  0.33292617  1
  Ni  Ni12  1  0.33338244  0.33438731  0.00050453  1
  Ni  Ni13  1  0.49869297  0.50074580  0.16594204  1
  Ni  Ni14  1  0.33149221  0.33460851  0.33293904  1
  Ni  Ni15  1  0.33321526  0.66499623  0.00010943  1
  Ni  Ni16  1  0.50153628  0.83141705  0.16677590  1
  Ni  Ni17  1  0.33303343  0.66496520  0.33316461  1
  Ni  Ni18  1  0.66715930  0.99926592  0.99950098  1
  Cr  Cr19  1  0.83395321  0.16549735  0.16592285  1
  Ni  Ni20  1  0.66738053  0.99737724  0.33394272  1
  Ni  Ni21  1  0.66579218  0.33402511  0.99897606  1
  Ni  Ni22  1  0.83394850  0.50227968  0.16558508  1
  Cr  Cr23  1  0.66506109  0.33331120  0.33333422  1
  Ni  Ni24  1  0.66679618  0.66620071  0.00033490  1
  Ni  Ni25  1  0.83294287  0.83172090  0.16694613  1
  Ni  Ni26  1  0.66601279  0.66887362  0.33210536  1
  Ni  Ni27  1  0.16562790  0.16736866  0.50015852  1
  Ni  Ni28  1  -0.00000496  -0.00011814  0.66621740  1
  Ni  Ni29  1  0.16544519  0.16733499  0.83255579  1
  Ni  Ni30  1  0.16833694  0.49955695  0.49932648  1
  Ni  Ni31  1  0.00049863  0.33227781  0.66705115  1
  Ni  Ni32  1  0.16645212  0.49977423  0.83321853  1
  Ni  Ni33  1  0.16579487  0.83256532  0.50055161  1
  Ni  Ni34  1  0.00065965  0.66733113  0.66721887  1
  Ni  Ni35  1  0.16561121  0.83238134  0.83238581  1
  Ni  Ni36  1  0.49991467  0.16636287  0.50116539  1
  Ni  Ni37  1  0.33321539  -0.00011311  0.66644281  1
  Ni  Ni38  1  0.50088136  0.16732915  0.83255640  1
  Ni  Ni39  1  0.49720774  0.50056371  0.50033145  1
  Ni  Ni40  1  0.33338251  0.33294287  0.66604798  1
  Ni  Ni41  1  0.49987543  0.49977904  0.83321892  1
  Ni  Ni42  1  0.50075420  0.83256424  0.50032691  1
  Ni  Ni43  1  0.33321489  0.66666177  0.66621770  1
  Ni  Ni44  1  0.50072067  0.83238238  0.83238683  1
  Ni  Ni45  1  0.83395034  0.16382179  0.50052041  1
  Ni  Ni46  1  0.66628081  0.00004894  0.66604831  1
  Ni  Ni47  1  0.83316440  0.16649033  0.83303120  1
  Cr  Cr48  1  0.83395913  0.50042052  0.50041295  1
  Ni  Ni49  1  0.66561074  0.33227778  0.66740733  1
  Ni  Ni50  1  0.83316409  0.49961208  0.83351892  1
  Ni  Ni51  1  0.83294257  0.83527428  0.49915739  1
  Ni  Ni52  1  0.66561548  0.66716499  0.66705091  1
  Ni  Ni53  1  0.83315947  0.83338958  0.83338796  1
" 