7600,Ni11Fe38Cr49_15,-217.882174277968, 176.080725767831,Ni11Fe38Cr49,"# generated using pymatgen
 data_Cr14Fe10Ni3
_symmetry_space_group_name_H-M   'P 1'
_cell_length_a   7.52972803
_cell_length_b   7.52972803
_cell_length_c   10.64864351
_cell_angle_alpha   90.00000000
_cell_angle_beta   90.00000000
_cell_angle_gamma   90.00000000
_symmetry_Int_Tables_number   1
_chemical_formula_structural   Cr14Fe10Ni3
_chemical_formula_sum   'Cr28 Fe20 Ni6'
_cell_volume   603.74405654
_cell_formula_units_Z   2
loop_
 _symmetry_equiv_pos_site_id
 _symmetry_equiv_pos_as_xyz
  1  'x, y, z'
loop_
 _atom_site_type_symbol
 _atom_site_label
 _atom_site_symmetry_multiplicity
 _atom_site_fract_x
 _atom_site_fract_y
 _atom_site_fract_z
 _atom_site_occupancy
  Cr  Cr0  1  0.99449214  0.99421534  0.99488562  1
  Cr  Cr1  1  0.16493519  0.16224658  0.16236019  1
  Cr  Cr2  1  0.99533355  -0.00295205  0.32847725  1
  Cr  Cr3  1  0.99545174  0.32780367  0.99477083  1
  Fe  Fe4  1  0.16376924  0.49613028  0.16183088  1
  Fe  Fe5  1  -0.00288328  0.32818949  0.32727207  1
  Ni  Ni6  1  0.99380936  0.66298675  -0.00294039  1
  Fe  Fe7  1  0.16203796  0.82710381  0.16166493  1
  Cr  Cr8  1  -0.00334788  0.66370947  0.32629309  1
  Cr  Cr9  1  0.32930168  -0.00358979  -0.00277384  1
  Fe  Fe10  1  0.49552686  0.16402762  0.16331568  1
  Fe  Fe11  1  0.33066151  0.99495162  0.32701364  1
  Fe  Fe12  1  0.32964633  0.33156876  -0.00221238  1
  Fe  Fe13  1  0.49469825  0.49603294  0.16264957  1
  Ni  Ni14  1  0.32842674  0.32867924  0.32551853  1
  Cr  Cr15  1  0.33118466  0.66306825  -0.00339420  1
  Fe  Fe16  1  0.49628722  0.82714669  0.16164538  1
  Fe  Fe17  1  0.33027759  0.66269998  0.32592889  1
  Cr  Cr18  1  0.66286108  0.99513718  -0.00117570  1
  Fe  Fe19  1  0.82994791  0.16272406  0.16171719  1
  Cr  Cr20  1  0.66318238  0.99505083  0.32668982  1
  Cr  Cr21  1  0.66131671  0.33053862  -0.00407872  1
  Cr  Cr22  1  0.82976661  0.49778026  0.16038123  1
  Cr  Cr23  1  0.66365468  0.32753296  0.32756581  1
  Ni  Ni24  1  0.66305465  0.66338053  0.99456632  1
  Fe  Fe25  1  0.82926497  0.82804313  0.15982373  1
  Cr  Cr26  1  0.66102466  0.66397354  0.32974129  1
  Fe  Fe27  1  0.16372328  0.16403016  0.49319858  1
  Fe  Fe28  1  0.99212308  0.99526416  0.66404240  1
  Fe  Fe29  1  0.15958689  0.16033393  0.83014695  1
  Cr  Cr30  1  0.16290911  0.49565611  0.49081354  1
  Cr  Cr31  1  -0.00376176  0.32515404  0.66157779  1
  Cr  Cr32  1  0.16145902  0.49547316  0.83259588  1
  Cr  Cr33  1  0.16303558  0.83084856  0.49452926  1
  Cr  Cr34  1  0.99437945  0.66297700  0.66403777  1
  Cr  Cr35  1  0.16044408  0.82854095  0.83109172  1
  Cr  Cr36  1  0.49608979  0.16017753  0.49470045  1
  Cr  Cr37  1  0.32734177  0.99550941  0.66354719  1
  Cr  Cr38  1  0.49508301  0.16243928  0.83249564  1
  Cr  Cr39  1  0.49481593  0.49394293  0.49485739  1
  Cr  Cr40  1  0.32818661  0.32897386  0.66680585  1
  Fe  Fe41  1  0.49827911  0.49941117  0.83134380  1
  Fe  Fe42  1  0.49653467  0.82950436  0.49591771  1
  Cr  Cr43  1  0.33141411  0.66313751  0.66222235  1
  Ni  Ni44  1  0.49934129  0.83000193  0.82936071  1
  Fe  Fe45  1  0.83022824  0.16020486  0.49696541  1
  Fe  Fe46  1  0.66379633  0.99547333  0.66475761  1
  Ni  Ni47  1  0.82798146  0.16053645  0.82824389  1
  Cr  Cr48  1  0.83042554  0.49516118  0.49508617  1
  Cr  Cr49  1  0.66409777  0.32974449  0.66528644  1
  Fe  Fe50  1  0.82807371  0.49865066  0.83186740  1
  Fe  Fe51  1  0.82804649  0.83153089  0.49726680  1
  Cr  Cr52  1  0.66183514  0.66467071  0.66383578  1
  Ni  Ni53  1  0.82608917  0.82971300  0.83111019  1
" 