2476,Ni11Cr89_3,-236.230178203171, 165.715937578195,Ni11Cr89,"# generated using pymatgen
 data_Cr5Ni49
_symmetry_space_group_name_H-M   'P 1'
_cell_length_a   7.46998811
_cell_length_b   7.46998811
_cell_length_c   10.56415849
_cell_angle_alpha   90.00000000
_cell_angle_beta   90.00000000
_cell_angle_gamma   90.00000000
_symmetry_Int_Tables_number   1
_chemical_formula_structural   Cr5Ni49
_chemical_formula_sum   'Cr5 Ni49'
_cell_volume   589.48767474
_cell_formula_units_Z   1
loop_
 _symmetry_equiv_pos_site_id
 _symmetry_equiv_pos_as_xyz
  1  'x, y, z'
loop_
 _atom_site_type_symbol
 _atom_site_label
 _atom_site_symmetry_multiplicity
 _atom_site_fract_x
 _atom_site_fract_y
 _atom_site_fract_z
 _atom_site_occupancy
  Ni  Ni0  1  0.00072720  0.99697453  0.00078973  1
  Ni  Ni1  1  0.16656844  0.16426312  0.16835288  1
  Ni  Ni2  1  0.00108196  0.99944535  0.33321646  1
  Cr  Cr3  1  0.00027801  0.33511672  0.00044229  1
  Ni  Ni4  1  0.16665432  0.50225009  0.16841576  1
  Ni  Ni5  1  0.00001138  0.33340659  0.33296083  1
  Ni  Ni6  1  0.99978423  0.66830586  0.99939643  1
  Ni  Ni7  1  0.16653154  0.83291361  0.16641558  1
  Ni  Ni8  1  0.99965403  0.66653650  0.33321113  1
  Ni  Ni9  1  0.33355965  0.99794809  -0.00008449  1
  Ni  Ni10  1  0.49971371  0.16666234  0.16609953  1
  Ni  Ni11  1  0.33191645  0.99947332  0.33297246  1
  Cr  Cr12  1  0.33383790  0.33374452  0.99884042  1
  Ni  Ni13  1  0.50061368  0.50088392  0.16741774  1
  Ni  Ni14  1  0.33299075  0.33321440  0.33338601  1
  Ni  Ni15  1  0.33333414  0.66833268  -0.00013599  1
  Ni  Ni16  1  0.49846598  0.83177567  0.16549799  1
  Ni  Ni17  1  0.33336682  0.66674948  0.33297215  1
  Ni  Ni18  1  0.66521800  0.99810406  0.00057813  1
  Ni  Ni19  1  0.83310890  0.16643441  0.16653349  1
  Cr  Cr20  1  0.66578303  0.99778950  0.33363582  1
  Ni  Ni21  1  0.66537961  0.33427510  0.00075938  1
  Ni  Ni22  1  0.83206654  0.50093428  0.16716022  1
  Ni  Ni23  1  0.66638032  0.33442273  0.33294942  1
  Ni  Ni24  1  0.66628186  0.66711503  -0.00007945  1
  Ni  Ni25  1  0.83435613  0.83198095  0.16524881  1
  Ni  Ni26  1  0.66640384  0.66523215  0.33322303  1
  Ni  Ni27  1  0.16758238  0.16534994  0.49893400  1
  Ni  Ni28  1  0.00073762  0.99699117  0.66539077  1
  Ni  Ni29  1  0.16922644  0.16275472  0.83203337  1
  Ni  Ni30  1  0.16768475  0.50111662  0.49890289  1
  Cr  Cr31  1  0.00169568  0.33507818  0.66612479  1
  Ni  Ni32  1  0.16793171  0.50371034  0.83201399  1
  Ni  Ni33  1  0.16666026  0.83292385  0.49971736  1
  Ni  Ni34  1  0.99977970  0.66828858  0.66679295  1
  Ni  Ni35  1  0.16666686  0.83299324  0.83328310  1
  Ni  Ni36  1  0.49868650  0.16764419  0.50108840  1
  Ni  Ni37  1  0.33356776  0.99935751  0.66653448  1
  Ni  Ni38  1  0.49907387  0.16553318  0.83222505  1
  Ni  Ni39  1  0.49962945  0.49991072  0.49971964  1
  Ni  Ni40  1  0.33475633  0.33333316  0.66664546  1
  Ni  Ni41  1  0.50080682  0.50105438  0.83218602  1
  Ni  Ni42  1  0.49824744  0.83172857  0.50072317  1
  Ni  Ni43  1  0.33333870  0.66670349  0.66658916  1
  Ni  Ni44  1  0.49954514  0.83288274  0.83328202  1
  Ni  Ni45  1  0.83315435  0.16663606  0.49964485  1
  Ni  Ni46  1  0.66519317  0.99812319  0.66559876  1
  Cr  Cr47  1  0.83077867  0.16396761  0.83333801  1
  Ni  Ni48  1  0.83205754  0.50083166  0.49892815  1
  Ni  Ni49  1  0.66389935  0.33426887  0.66568983  1
  Ni  Ni50  1  0.83065836  0.50359453  0.83331748  1
  Ni  Ni51  1  0.83444244  0.83189511  0.50116731  1
  Ni  Ni52  1  0.66627213  0.66710768  0.66625741  1
  Ni  Ni53  1  0.83322983  0.83130739  0.83306750  1
" 