8951,Ni11Cr89_5,-236.278256680856, 166.237497782184,Ni11Cr89,"# generated using pymatgen
 data_Cr5Ni49
_symmetry_space_group_name_H-M   'P 1'
_cell_length_a   7.46944584
_cell_length_b   7.46944584
_cell_length_c   10.56339161
_cell_angle_alpha   90.00000000
_cell_angle_beta   90.00000000
_cell_angle_gamma   90.00000000
_symmetry_Int_Tables_number   1
_chemical_formula_structural   Cr5Ni49
_chemical_formula_sum   'Cr5 Ni49'
_cell_volume   589.35930544
_cell_formula_units_Z   1
loop_
 _symmetry_equiv_pos_site_id
 _symmetry_equiv_pos_as_xyz
  1  'x, y, z'
loop_
 _atom_site_type_symbol
 _atom_site_label
 _atom_site_symmetry_multiplicity
 _atom_site_fract_x
 _atom_site_fract_y
 _atom_site_fract_z
 _atom_site_occupancy
  Ni  Ni0  1  0.00234779  -0.00010929  0.00172005  1
  Ni  Ni1  1  0.16638632  0.16648904  0.16660528  1
  Ni  Ni2  1  -0.00008716  -0.00009262  0.33350604  1
  Ni  Ni3  1  0.00085543  0.33421013  0.00024282  1
  Ni  Ni4  1  0.16689186  0.49981851  0.16617015  1
  Ni  Ni5  1  0.99853610  0.33217591  0.33238244  1
  Ni  Ni6  1  0.00087312  0.66541222  0.00068838  1
  Ni  Ni7  1  0.16657310  0.83322974  0.16658277  1
  Ni  Ni8  1  0.99853666  0.66744748  0.33193153  1
  Ni  Ni9  1  0.33329033  0.00003552  0.99943345  1
  Ni  Ni10  1  0.49979443  0.16645941  0.16612497  1
  Ni  Ni11  1  0.33351778  0.00006201  0.33329659  1
  Ni  Ni12  1  0.33230582  0.33184872  0.00071688  1
  Ni  Ni13  1  0.49944170  0.50001143  0.16707268  1
  Ni  Ni14  1  0.33454320  0.33157835  0.33210801  1
  Ni  Ni15  1  0.33217789  0.66762041  0.00048239  1
  Ni  Ni16  1  0.49982145  0.83304494  0.16609415  1
  Ni  Ni17  1  0.33442543  0.66792126  0.33230359  1
  Ni  Ni18  1  0.66384496  -0.00000005  0.00182854  1
  Ni  Ni19  1  0.83334450  0.16613110  0.16653915  1
  Ni  Ni20  1  0.66608169  0.00004171  0.33305684  1
  Ni  Ni21  1  0.66635205  0.33313721  0.00166593  1
  Ni  Ni22  1  0.83315216  0.49982649  0.16610092  1
  Ni  Ni23  1  0.66643224  0.33300358  0.33329005  1
  Ni  Ni24  1  0.66648802  0.66630610  0.00144416  1
  Ni  Ni25  1  0.83315119  0.83354449  0.16655279  1
  Ni  Ni26  1  0.66659192  0.66647118  0.33351341  1
  Ni  Ni27  1  0.16652378  0.16489112  0.50011280  1
  Ni  Ni28  1  0.00208217  0.00156096  0.66440366  1
  Ni  Ni29  1  0.16794287  0.16648929  0.83284764  1
  Cr  Cr30  1  0.16902141  0.49852352  0.49804211  1
  Ni  Ni31  1  0.99978911  0.33154360  0.66680375  1
  Ni  Ni32  1  0.16651641  0.49872782  0.83438655  1
  Ni  Ni33  1  0.16772582  0.83586046  0.49897335  1
  Cr  Cr34  1  0.99979504  0.66652006  0.66681118  1
  Ni  Ni35  1  0.16909174  0.83431654  0.83395668  1
  Ni  Ni36  1  0.49976704  0.16649374  0.50010919  1
  Ni  Ni37  1  0.33344173  0.00006641  0.66679980  1
  Ni  Ni38  1  0.49811618  0.16486982  0.83329696  1
  Ni  Ni39  1  0.50121651  0.49987326  0.49965634  1
  Ni  Ni40  1  0.33339084  0.33081147  0.66657975  1
  Cr  Cr41  1  0.50001608  0.49990043  0.83277922  1
  Ni  Ni42  1  0.49978549  0.83316472  0.50033575  1
  Ni  Ni43  1  0.33487340  0.66868682  0.66657506  1
  Ni  Ni44  1  0.49805780  0.83474285  0.83305401  1
  Ni  Ni45  1  0.83319435  0.16615723  0.49987472  1
  Ni  Ni46  1  0.66396117  0.00005272  0.66476334  1
  Cr  Cr47  1  0.83253473  0.16724331  0.83344926  1
  Ni  Ni48  1  0.83066978  0.49870631  0.49946713  1
  Ni  Ni49  1  0.66635734  0.33291996  0.66465200  1
  Ni  Ni50  1  0.83374004  0.49878013  0.83394842  1
  Ni  Ni51  1  0.83205350  0.83464142  0.49876692  1
  Ni  Ni52  1  0.66488402  0.66652215  0.66462527  1
  Cr  Cr53  1  0.83111273  0.83363998  0.83480622  1
" 