7514,Ni11Fe38Cr49_16,-218.0202158104, 181.973555392976,Ni11Fe38Cr49,"# generated using pymatgen
 data_Cr14Fe10Ni3
_symmetry_space_group_name_H-M   'P 1'
_cell_length_a   7.51677223
_cell_length_b   7.51677223
_cell_length_c   10.63032123
_cell_angle_alpha   90.00000000
_cell_angle_beta   90.00000000
_cell_angle_gamma   90.00000000
_symmetry_Int_Tables_number   1
_chemical_formula_structural   Cr14Fe10Ni3
_chemical_formula_sum   'Cr28 Fe20 Ni6'
_cell_volume   600.63297156
_cell_formula_units_Z   2
loop_
 _symmetry_equiv_pos_site_id
 _symmetry_equiv_pos_as_xyz
  1  'x, y, z'
loop_
 _atom_site_type_symbol
 _atom_site_label
 _atom_site_symmetry_multiplicity
 _atom_site_fract_x
 _atom_site_fract_y
 _atom_site_fract_z
 _atom_site_occupancy
  Cr  Cr0  1  0.99435354  -0.00283293  0.99570074  1
  Fe  Fe1  1  0.16306610  0.16400518  0.16217146  1
  Cr  Cr2  1  -0.00281971  0.00022604  0.32684901  1
  Cr  Cr3  1  0.99422589  0.32657467  0.99521216  1
  Cr  Cr4  1  0.16097446  0.49659906  0.16231079  1
  Fe  Fe5  1  0.99510426  0.33050116  0.33038286  1
  Fe  Fe6  1  0.99596973  0.66215086  0.99492605  1
  Fe  Fe7  1  0.16270782  0.83007889  0.16393011  1
  Fe  Fe8  1  0.99405860  0.66304117  0.33028190  1
  Cr  Cr9  1  0.32740268  0.99527989  -0.00174364  1
  Cr  Cr10  1  0.49735527  0.16442355  0.16214812  1
  Fe  Fe11  1  0.33290897  -0.00282447  0.32920580  1
  Ni  Ni12  1  0.33018708  0.32970567  -0.00316146  1
  Fe  Fe13  1  0.49927234  0.49745858  0.16198641  1
  Cr  Cr14  1  0.33035381  0.33165157  0.32773507  1
  Cr  Cr15  1  0.33320915  0.66305990  -0.00124833  1
  Cr  Cr16  1  0.50148355  0.83319268  0.16558774  1
  Cr  Cr17  1  0.33233154  0.66488193  0.32860218  1
  Fe  Fe18  1  0.66301030  -0.00214421  0.99596902  1
  Fe  Fe19  1  0.82849847  0.16316135  0.16331873  1
  Ni  Ni20  1  0.66588339  0.99623901  0.33122611  1
  Fe  Fe21  1  0.66349586  0.33003521  -0.00327874  1
  Cr  Cr22  1  0.82986442  0.49922850  0.16390634  1
  Cr  Cr23  1  0.66589450  0.33019159  0.32973167  1
  Fe  Fe24  1  0.66500178  0.66321480  0.99555552  1
  Cr  Cr25  1  0.83049293  0.82880296  0.16161951  1
  Ni  Ni26  1  0.66292491  0.66410924  0.33125370  1
  Cr  Cr27  1  0.16664988  0.16389385  0.49759380  1
  Cr  Cr28  1  0.99534615  -0.00096676  0.66679283  1
  Ni  Ni29  1  0.16585402  0.16330025  0.82985611  1
  Cr  Cr30  1  0.15990965  0.49625572  0.49804698  1
  Cr  Cr31  1  0.99384057  0.32730856  0.66282166  1
  Cr  Cr32  1  0.16183404  0.49399251  0.82899053  1
  Cr  Cr33  1  0.16194623  0.83090860  0.49427026  1
  Cr  Cr34  1  0.99409252  0.66344808  0.66471718  1
  Cr  Cr35  1  0.16120763  0.82962642  0.83086069  1
  Cr  Cr36  1  0.49734917  0.15928489  0.49832797  1
  Fe  Fe37  1  0.33103275  0.99570691  0.66485198  1
  Cr  Cr38  1  0.49587884  0.16149899  0.82955666  1
  Cr  Cr39  1  0.49785134  0.49537584  0.49662059  1
  Fe  Fe40  1  0.33051577  0.32958118  0.66502955  1
  Cr  Cr41  1  0.49789914  0.49391141  0.83302667  1
  Fe  Fe42  1  0.49826848  0.83027093  0.49581677  1
  Cr  Cr43  1  0.33449232  0.66530791  0.66305780  1
  Fe  Fe44  1  0.49939347  0.82993096  0.83030322  1
  Fe  Fe45  1  0.83031991  0.16213276  0.49532810  1
  Fe  Fe46  1  0.66334837  0.99376023  0.66363129  1
  Fe  Fe47  1  0.82865849  0.16494046  0.83071511  1
  Fe  Fe48  1  0.82901944  0.49799200  0.49626660  1
  Cr  Cr49  1  0.66628581  0.33131987  0.66267255  1
  Ni  Ni50  1  0.82782841  0.50004664  0.83034966  1
  Cr  Cr51  1  0.82790078  0.82833184  0.49635414  1
  Ni  Ni52  1  0.66179223  0.66489192  0.66455378  1
  Fe  Fe53  1  0.82566375  0.82932698  0.83079946  1
" 