6206,Ni11Fe64Cr23_18,-224.673133738421, 165.795549707111,Ni11Fe64Cr23,"# generated using pymatgen
 data_Cr7Fe17Ni3
_symmetry_space_group_name_H-M   'P 1'
_cell_length_a   7.47384299
_cell_length_b   7.47384299
_cell_length_c   10.56961011
_cell_angle_alpha   90.00000000
_cell_angle_beta   90.00000000
_cell_angle_gamma   90.00000000
_symmetry_Int_Tables_number   1
_chemical_formula_structural   Cr7Fe17Ni3
_chemical_formula_sum   'Cr14 Fe34 Ni6'
_cell_volume   590.40075908
_cell_formula_units_Z   2
loop_
 _symmetry_equiv_pos_site_id
 _symmetry_equiv_pos_as_xyz
  1  'x, y, z'
loop_
 _atom_site_type_symbol
 _atom_site_label
 _atom_site_symmetry_multiplicity
 _atom_site_fract_x
 _atom_site_fract_y
 _atom_site_fract_z
 _atom_site_occupancy
  Cr  Cr0  1  0.99809549  0.00012463  0.99937581  1
  Fe  Fe1  1  0.16404374  0.16934655  0.16516042  1
  Fe  Fe2  1  0.99642794  0.00144193  0.33342610  1
  Fe  Fe3  1  0.00098975  0.33532590  0.00149664  1
  Ni  Ni4  1  0.16450490  0.49909082  0.16495478  1
  Fe  Fe5  1  0.99757300  0.33225492  0.33186857  1
  Ni  Ni6  1  0.99781030  0.66469211  -0.00000488  1
  Cr  Cr7  1  0.16716055  0.83150926  0.16659120  1
  Cr  Cr8  1  0.99757135  0.66521047  0.33453316  1
  Fe  Fe9  1  0.33559194  -0.00011197  0.00029714  1
  Fe  Fe10  1  0.50012384  0.16620461  0.16504706  1
  Cr  Cr11  1  0.33310922  0.00099691  0.33303550  1
  Fe  Fe12  1  0.32933159  0.33418145  0.00100796  1
  Fe  Fe13  1  0.49949074  0.50254329  0.16730354  1
  Cr  Cr14  1  0.33256621  0.33173169  0.33105503  1
  Fe  Fe15  1  0.33375269  0.66406212  0.99946876  1
  Fe  Fe16  1  0.50239826  0.82997704  0.16524354  1
  Fe  Fe17  1  0.33488080  0.66547063  0.33269159  1
  Fe  Fe18  1  0.66603145  0.99637998  -0.00024256  1
  Fe  Fe19  1  0.83421831  0.16719271  0.16799476  1
  Fe  Fe20  1  0.66792659  0.99854937  0.33253082  1
  Cr  Cr21  1  0.66557844  0.33384397  0.00186930  1
  Ni  Ni22  1  0.83325169  0.49839122  0.16811253  1
  Fe  Fe23  1  0.66897396  0.33322140  0.33106515  1
  Fe  Fe24  1  0.66792009  0.66872658  0.00070805  1
  Fe  Fe25  1  0.83128884  0.82970219  0.16516292  1
  Ni  Ni26  1  0.66766410  0.66643238  0.33087661  1
  Fe  Fe27  1  0.16334260  0.16773475  0.50009018  1
  Fe  Fe28  1  0.99642728  0.00077807  0.66611449  1
  Fe  Fe29  1  0.16414801  0.16833917  0.83274750  1
  Fe  Fe30  1  0.16470935  0.49708388  0.49846171  1
  Fe  Fe31  1  0.00083318  0.33073243  0.66519907  1
  Fe  Fe32  1  0.16784770  0.49822982  0.83575839  1
  Fe  Fe33  1  0.16540068  0.83386670  0.49833167  1
  Cr  Cr34  1  0.99819259  0.66687550  0.66494842  1
  Cr  Cr35  1  0.16581588  0.83238946  0.83425268  1
  Fe  Fe36  1  0.50288089  0.16571918  0.50037539  1
  Cr  Cr37  1  0.33283422  0.00084448  0.66461701  1
  Cr  Cr38  1  0.49964525  0.16691466  0.83110439  1
  Cr  Cr39  1  0.50188742  0.49832514  0.49870687  1
  Fe  Fe40  1  0.33059826  0.33399808  0.66575051  1
  Fe  Fe41  1  0.49777277  0.50207148  0.83392598  1
  Fe  Fe42  1  0.50269030  0.83354745  0.49797567  1
  Cr  Cr43  1  0.33301920  0.66619411  0.66486013  1
  Ni  Ni44  1  0.50111845  0.83407233  0.83547517  1
  Fe  Fe45  1  0.83238492  0.16670348  0.49952993  1
  Fe  Fe46  1  0.66891103  0.99852037  0.66630103  1
  Fe  Fe47  1  0.83349868  0.16326146  0.83124792  1
  Fe  Fe48  1  0.83239501  0.49696473  0.49793149  1
  Fe  Fe49  1  0.66734722  0.33081185  0.66545251  1
  Cr  Cr50  1  0.83450796  0.49822107  0.83320938  1
  Fe  Fe51  1  0.83046442  0.83497018  0.49900757  1
  Cr  Cr52  1  0.66729574  0.66748564  0.66925274  1
  Ni  Ni53  1  0.83120620  0.83430340  0.83419371  1
" 