7200,Ni11Cr89_13,-236.297147985195, 167.553603678207,Ni11Cr89,"# generated using pymatgen
 data_Cr5Ni49
_symmetry_space_group_name_H-M   'P 1'
_cell_length_a   7.46883515
_cell_length_b   7.46883515
_cell_length_c   10.56252797
_cell_angle_alpha   90.00000000
_cell_angle_beta   90.00000000
_cell_angle_gamma   90.00000000
_symmetry_Int_Tables_number   1
_chemical_formula_structural   Cr5Ni49
_chemical_formula_sum   'Cr5 Ni49'
_cell_volume   589.21476296
_cell_formula_units_Z   1
loop_
 _symmetry_equiv_pos_site_id
 _symmetry_equiv_pos_as_xyz
  1  'x, y, z'
loop_
 _atom_site_type_symbol
 _atom_site_label
 _atom_site_symmetry_multiplicity
 _atom_site_fract_x
 _atom_site_fract_y
 _atom_site_fract_z
 _atom_site_occupancy
  Ni  Ni0  1  0.00068014  0.99907588  0.99897503  1
  Ni  Ni1  1  0.16837090  0.16480203  0.16648846  1
  Ni  Ni2  1  0.00071738  0.99914987  0.33409752  1
  Ni  Ni3  1  0.99979839  0.33302979  0.99792569  1
  Cr  Cr4  1  0.16478810  0.49919608  0.16614991  1
  Ni  Ni5  1  0.00071337  0.33180312  0.33415611  1
  Ni  Ni6  1  0.99880111  0.66759246  0.99938551  1
  Ni  Ni7  1  0.16565114  0.83563405  0.16566562  1
  Ni  Ni8  1  0.99826094  0.66874570  0.33305197  1
  Ni  Ni9  1  0.33208336  0.99888151  0.00130938  1
  Ni  Ni10  1  0.49835809  0.16620732  0.16690941  1
  Ni  Ni11  1  0.33312862  0.00153785  0.33283230  1
  Ni  Ni12  1  0.33319341  0.33331649  0.00024621  1
  Ni  Ni13  1  0.50220135  0.49899822  0.16564901  1
  Ni  Ni14  1  0.33424584  0.33067179  0.33410353  1
  Ni  Ni15  1  0.33424699  0.66741146  0.99858041  1
  Ni  Ni16  1  0.50076910  0.83443056  0.16542584  1
  Cr  Cr17  1  0.33447699  0.66763998  0.33444523  1
  Ni  Ni18  1  0.66690687  0.99799880  0.99983909  1
  Cr  Cr19  1  0.83330065  0.16658949  0.16649232  1
  Ni  Ni20  1  0.66580065  0.99900770  0.33428979  1
  Ni  Ni21  1  0.66669384  0.33509224  -0.00002022  1
  Ni  Ni22  1  0.83162913  0.50169117  0.16651374  1
  Ni  Ni23  1  0.66471469  0.33312074  0.33306057  1
  Ni  Ni24  1  0.66657227  0.66650907  0.00022305  1
  Ni  Ni25  1  0.83319055  0.83164841  0.16694021  1
  Ni  Ni26  1  0.66705235  0.66753559  0.33197516  1
  Ni  Ni27  1  0.16677320  0.16635200  0.49952288  1
  Ni  Ni28  1  0.99982446  0.00007455  0.66658162  1
  Ni  Ni29  1  0.16529724  0.16639053  0.83364352  1
  Ni  Ni30  1  0.16714074  0.49917886  0.50098796  1
  Ni  Ni31  1  0.00073798  0.33201262  0.66758727  1
  Ni  Ni32  1  0.16651249  0.50020744  0.83277577  1
  Ni  Ni33  1  0.16570115  0.83410493  0.50057893  1
  Ni  Ni34  1  0.00073186  0.66758186  0.66718391  1
  Ni  Ni35  1  0.16666175  0.83305698  0.83339884  1
  Ni  Ni36  1  0.49978902  0.16618654  0.49932001  1
  Ni  Ni37  1  0.33202057  0.99895567  0.66547367  1
  Cr  Cr38  1  0.49973150  0.16546117  0.83344999  1
  Ni  Ni39  1  0.49926240  0.49900797  0.50080813  1
  Ni  Ni40  1  0.33220917  0.33411340  0.66532023  1
  Ni  Ni41  1  0.49973564  0.50140906  0.83319680  1
  Ni  Ni42  1  0.50068225  0.83440392  0.50099249  1
  Ni  Ni43  1  0.33327680  0.66653292  0.66676658  1
  Ni  Ni44  1  0.49975067  0.83171796  0.83318876  1
  Ni  Ni45  1  0.83306185  0.16492257  0.50038901  1
  Ni  Ni46  1  0.66780144  0.99895666  0.66551969  1
  Ni  Ni47  1  0.83456989  0.16635808  0.83276671  1
  Cr  Cr48  1  0.83374572  0.50052478  0.49888301  1
  Ni  Ni49  1  0.66671447  0.33323907  0.66655884  1
  Ni  Ni50  1  0.83340241  0.50021118  0.83385433  1
  Ni  Ni51  1  0.83319935  0.83476604  0.49951950  1
  Ni  Ni52  1  0.66563531  0.66743202  0.66737216  1
  Ni  Ni53  1  0.83322246  0.83306185  0.83318653  1
" 