1127,Ni11Cr89_16,-236.262900704423, 166.271467432411,Ni11Cr89,"# generated using pymatgen
 data_Cr5Ni49
_symmetry_space_group_name_H-M   'P 1'
_cell_length_a   7.46850654
_cell_length_b   7.46850654
_cell_length_c   10.56206323
_cell_angle_alpha   90.00000000
_cell_angle_beta   90.00000000
_cell_angle_gamma   90.00000000
_symmetry_Int_Tables_number   1
_chemical_formula_structural   Cr5Ni49
_chemical_formula_sum   'Cr5 Ni49'
_cell_volume   589.13699331
_cell_formula_units_Z   1
loop_
 _symmetry_equiv_pos_site_id
 _symmetry_equiv_pos_as_xyz
  1  'x, y, z'
loop_
 _atom_site_type_symbol
 _atom_site_label
 _atom_site_symmetry_multiplicity
 _atom_site_fract_x
 _atom_site_fract_y
 _atom_site_fract_z
 _atom_site_occupancy
  Ni  Ni0  1  0.99792428  0.99959118  0.99966821  1
  Ni  Ni1  1  0.16429912  0.16641786  0.16659492  1
  Cr  Cr2  1  0.99950019  0.99946276  0.33334325  1
  Ni  Ni3  1  0.99815986  0.33349267  0.00033306  1
  Ni  Ni4  1  0.16455734  0.50202146  0.16672288  1
  Ni  Ni5  1  0.99805121  0.33511415  0.33321791  1
  Ni  Ni6  1  0.99942576  0.66661714  0.00010132  1
  Ni  Ni7  1  0.16665259  0.83129730  0.16657125  1
  Ni  Ni8  1  0.99948753  0.66495434  0.33343566  1
  Cr  Cr9  1  0.33330757  0.99861297  0.00035848  1
  Ni  Ni10  1  0.50313145  0.16546246  0.16792744  1
  Ni  Ni11  1  0.33499503  0.99816053  0.33344841  1
  Cr  Cr12  1  0.33372598  0.33509279  0.99954384  1
  Ni  Ni13  1  0.50185566  0.50199214  0.16610751  1
  Cr  Cr14  1  0.33203978  0.33201399  0.33197997  1
  Ni  Ni15  1  0.33333856  0.66646839  0.00011087  1
  Ni  Ni16  1  0.50070874  0.83225104  0.16786877  1
  Ni  Ni17  1  0.33235745  0.66912450  0.33185810  1
  Ni  Ni18  1  0.66849120  0.99959815  0.00011526  1
  Ni  Ni19  1  0.83230636  0.16755877  0.16550018  1
  Ni  Ni20  1  0.66499832  0.99960565  0.33320521  1
  Ni  Ni21  1  0.66833062  0.33352717  0.00009940  1
  Ni  Ni22  1  0.83330172  0.49969876  0.16701551  1
  Ni  Ni23  1  0.66915804  0.33248286  0.33210958  1
  Ni  Ni24  1  0.66693650  0.66657513  0.99988891  1
  Ni  Ni25  1  0.83232866  0.83244590  0.16548705  1
  Ni  Ni26  1  0.66786003  0.66760961  0.33234495  1
  Ni  Ni27  1  0.16637783  0.16640635  0.50176315  1
  Ni  Ni28  1  0.99971332  0.99966353  0.66704911  1
  Ni  Ni29  1  0.16433497  0.16646853  0.83136107  1
  Ni  Ni30  1  0.16387096  0.50095610  0.50063322  1
  Ni  Ni31  1  0.99987145  0.33340425  0.66616908  1
  Ni  Ni32  1  0.16557584  0.50094210  0.83230214  1
  Ni  Ni33  1  0.16765409  0.83234820  0.50065805  1
  Ni  Ni34  1  0.99954320  0.66663344  0.66615917  1
  Ni  Ni35  1  0.16567507  0.83230947  0.83253573  1
  Ni  Ni36  1  0.50096502  0.16376746  0.50062742  1
  Ni  Ni37  1  0.33328635  -0.00001946  0.66593380  1
  Ni  Ni38  1  0.50205655  0.16650200  0.83108761  1
  Cr  Cr39  1  0.50090746  0.50100656  0.50092818  1
  Ni  Ni40  1  0.33232954  0.33227138  0.66773481  1
  Ni  Ni41  1  0.50085143  0.50096647  0.83269933  1
  Ni  Ni42  1  0.49969099  0.83507139  0.49953082  1
  Ni  Ni43  1  0.33232642  0.66745664  0.66774662  1
  Ni  Ni44  1  0.50068811  0.83224558  0.83228642  1
  Ni  Ni45  1  0.83235394  0.16754697  0.50066147  1
  Ni  Ni46  1  0.66670337  0.99965613  0.66637458  1
  Ni  Ni47  1  0.83333477  0.16658983  0.83360559  1
  Ni  Ni48  1  0.83507996  0.49967967  0.49953235  1
  Ni  Ni49  1  0.66751679  0.33244548  0.66751037  1
  Ni  Ni50  1  0.83329015  0.49968230  0.83314686  1
  Ni  Ni51  1  0.83233652  0.83246254  0.50090235  1
  Ni  Ni52  1  0.66781449  0.66757375  0.66745252  1
  Ni  Ni53  1  0.83334758  0.83343939  0.83337601  1
" 