7296,Ni11Fe38Cr49_8,-218.155712249204, 175.896931577665,Ni11Fe38Cr49,"# generated using pymatgen
 data_Cr14Fe10Ni3
_symmetry_space_group_name_H-M   'P 1'
_cell_length_a   7.52322138
_cell_length_b   7.52322138
_cell_length_c   10.63944170
_cell_angle_alpha   90.00000000
_cell_angle_beta   90.00000000
_cell_angle_gamma   90.00000000
_symmetry_Int_Tables_number   1
_chemical_formula_structural   Cr14Fe10Ni3
_chemical_formula_sum   'Cr28 Fe20 Ni6'
_cell_volume   602.18027031
_cell_formula_units_Z   2
loop_
 _symmetry_equiv_pos_site_id
 _symmetry_equiv_pos_as_xyz
  1  'x, y, z'
loop_
 _atom_site_type_symbol
 _atom_site_label
 _atom_site_symmetry_multiplicity
 _atom_site_fract_x
 _atom_site_fract_y
 _atom_site_fract_z
 _atom_site_occupancy
  Fe  Fe0  1  -0.00246862  -0.00016915  -0.00094095  1
  Ni  Ni1  1  0.16133170  0.16385242  0.16193796  1
  Cr  Cr2  1  -0.00179776  0.99516081  0.32720140  1
  Ni  Ni3  1  0.99410594  0.32785147  -0.00156543  1
  Cr  Cr4  1  0.16227994  0.49527689  0.16478223  1
  Cr  Cr5  1  0.99395257  0.32754968  0.33206909  1
  Cr  Cr6  1  -0.00355643  0.66517950  -0.00234182  1
  Fe  Fe7  1  0.16439295  0.83007311  0.16445299  1
  Fe  Fe8  1  -0.00220646  0.66307411  0.33017688  1
  Cr  Cr9  1  0.32649476  -0.00367856  -0.00257804  1
  Fe  Fe10  1  0.49562205  0.16155503  0.16356493  1
  Fe  Fe11  1  0.32991615  0.99598224  0.32985032  1
  Cr  Cr12  1  0.33070229  0.33004240  -0.00240581  1
  Fe  Fe13  1  0.49556925  0.49747108  0.16431413  1
  Cr  Cr14  1  0.33081208  0.32733757  0.32669108  1
  Cr  Cr15  1  0.33265118  0.66169218  0.99450700  1
  Cr  Cr16  1  0.49687300  0.83025954  0.16510832  1
  Ni  Ni17  1  0.32940880  0.66717450  0.33073289  1
  Cr  Cr18  1  0.66414191  -0.00287573  -0.00322703  1
  Fe  Fe19  1  0.83170856  0.16398222  0.16213591  1
  Fe  Fe20  1  0.66061444  -0.00269833  0.33076014  1
  Cr  Cr21  1  0.66146930  0.33238037  -0.00179925  1
  Fe  Fe22  1  0.83091665  0.49448014  0.16225273  1
  Cr  Cr23  1  0.66344425  0.32800116  0.32932495  1
  Fe  Fe24  1  0.66227800  0.66008143  -0.00295227  1
  Cr  Cr25  1  0.82845405  0.83009311  0.16112630  1
  Cr  Cr26  1  0.66360142  0.66078599  0.32791194  1
  Fe  Fe27  1  0.16526560  0.16035241  0.49600409  1
  Cr  Cr28  1  -0.00291825  0.99600956  0.66413945  1
  Cr  Cr29  1  0.16140289  0.16607390  0.83151984  1
  Cr  Cr30  1  0.16118664  0.49614702  0.49659743  1
  Fe  Fe31  1  0.99508722  0.33120414  0.66050072  1
  Cr  Cr32  1  0.16201457  0.49523604  0.82712291  1
  Fe  Fe33  1  0.16627417  0.82860875  0.49677763  1
  Ni  Ni34  1  -0.00299044  0.66451488  0.65937330  1
  Cr  Cr35  1  0.16290311  0.82859049  0.82869303  1
  Fe  Fe36  1  0.49678973  0.16025634  0.49704593  1
  Fe  Fe37  1  0.32954011  0.99306443  0.66017034  1
  Cr  Cr38  1  0.49734803  0.16103230  0.82660998  1
  Cr  Cr39  1  0.49310798  0.49848141  0.49610817  1
  Cr  Cr40  1  0.33151954  0.32824140  0.66394504  1
  Fe  Fe41  1  0.49672202  0.49603292  0.82829710  1
  Ni  Ni42  1  0.49470802  0.83355746  0.49610438  1
  Ni  Ni43  1  0.32980454  0.66454185  0.66204725  1
  Cr  Cr44  1  0.49737785  0.83007591  0.82788421  1
  Fe  Fe45  1  0.82759766  0.16278496  0.49801637  1
  Fe  Fe46  1  0.66124389  0.99605753  0.66016093  1
  Cr  Cr47  1  0.83001999  0.16352965  0.82963816  1
  Fe  Fe48  1  0.82828061  0.49664305  0.49828509  1
  Fe  Fe49  1  0.66514903  0.32953571  0.66057128  1
  Cr  Cr50  1  0.83262706  0.49561540  0.82836181  1
  Cr  Cr51  1  0.82678811  0.82963217  0.49547024  1
  Cr  Cr52  1  0.66239119  0.66207843  0.66550403  1
  Cr  Cr53  1  0.82844579  0.83058535  0.83235932  1
" 