8019,Ni11Fe64Cr23_11,-225.027135129873, 171.089841167299,Ni11Fe64Cr23,"# generated using pymatgen
 data_Cr7Fe17Ni3
_symmetry_space_group_name_H-M   'P 1'
_cell_length_a   7.47615412
_cell_length_b   7.47615412
_cell_length_c   10.57287855
_cell_angle_alpha   90.00000000
_cell_angle_beta   90.00000000
_cell_angle_gamma   90.00000000
_symmetry_Int_Tables_number   1
_chemical_formula_structural   Cr7Fe17Ni3
_chemical_formula_sum   'Cr14 Fe34 Ni6'
_cell_volume   590.94863691
_cell_formula_units_Z   2
loop_
 _symmetry_equiv_pos_site_id
 _symmetry_equiv_pos_as_xyz
  1  'x, y, z'
loop_
 _atom_site_type_symbol
 _atom_site_label
 _atom_site_symmetry_multiplicity
 _atom_site_fract_x
 _atom_site_fract_y
 _atom_site_fract_z
 _atom_site_occupancy
  Cr  Cr0  1  0.99773140  0.99920361  0.00100331  1
  Fe  Fe1  1  0.16515429  0.16843347  0.16576620  1
  Cr  Cr2  1  0.99930848  0.00160090  0.33216744  1
  Fe  Fe3  1  0.99897488  0.33293977  0.00022918  1
  Fe  Fe4  1  0.16584431  0.49769621  0.16522920  1
  Ni  Ni5  1  -0.00008442  0.33148161  0.33229658  1
  Fe  Fe6  1  -0.00027512  0.66594026  0.99921507  1
  Fe  Fe7  1  0.16690684  0.83204285  0.16426182  1
  Cr  Cr8  1  0.99863730  0.66551384  0.33375457  1
  Fe  Fe9  1  0.33381454  0.99936415  0.00031084  1
  Cr  Cr10  1  0.49831591  0.16489409  0.16520910  1
  Cr  Cr11  1  0.33109024  0.00029890  0.33182360  1
  Fe  Fe12  1  0.33270465  0.33315243  0.99886162  1
  Cr  Cr13  1  0.50026273  0.50087323  0.16713402  1
  Fe  Fe14  1  0.33118879  0.33305113  0.33388429  1
  Fe  Fe15  1  0.33187866  0.66565659  0.99904863  1
  Fe  Fe16  1  0.50040125  0.83163698  0.16474413  1
  Cr  Cr17  1  0.33405812  0.66451947  0.33249059  1
  Fe  Fe18  1  0.66677482  0.00011418  0.99882911  1
  Fe  Fe19  1  0.83321679  0.16755180  0.16494458  1
  Cr  Cr20  1  0.66777157  0.99884441  0.33145749  1
  Ni  Ni21  1  0.66555533  0.33127616  0.99686907  1
  Cr  Cr22  1  0.83358887  0.49888016  0.16665787  1
  Fe  Fe23  1  0.66732324  0.33400363  0.33396681  1
  Fe  Fe24  1  0.66657126  0.66705576  -0.00047311  1
  Fe  Fe25  1  0.83086486  0.83231647  0.16476580  1
  Ni  Ni26  1  0.66591127  0.66469086  0.33273282  1
  Fe  Fe27  1  0.16589106  0.16738147  0.50023364  1
  Fe  Fe28  1  0.99846162  0.99804163  0.66620070  1
  Cr  Cr29  1  0.16662904  0.16685849  0.83217144  1
  Fe  Fe30  1  0.16621140  0.49835927  0.50057766  1
  Fe  Fe31  1  -0.00052342  0.33305889  0.66464371  1
  Fe  Fe32  1  0.16665366  0.50110629  0.83236676  1
  Fe  Fe33  1  0.16533236  0.83243222  0.50212958  1
  Fe  Fe34  1  0.00156950  0.66707269  0.66570511  1
  Fe  Fe35  1  0.16446017  0.83100976  0.83178261  1
  Fe  Fe36  1  0.49933804  0.16832773  0.50038210  1
  Fe  Fe37  1  0.33230514  0.99908778  0.66521277  1
  Fe  Fe38  1  0.50232103  0.16717183  0.83328512  1
  Fe  Fe39  1  0.49941769  0.49781249  0.49923270  1
  Fe  Fe40  1  0.33349857  0.33421793  0.66542851  1
  Fe  Fe41  1  0.49856225  0.49751156  0.83348557  1
  Cr  Cr42  1  0.49908851  0.83254620  0.49840312  1
  Ni  Ni43  1  0.32974055  0.66458198  0.66685630  1
  Cr  Cr44  1  0.49878530  0.83373630  0.83468012  1
  Fe  Fe45  1  0.83294424  0.16745186  0.50071144  1
  Fe  Fe46  1  0.66740315  0.00118211  0.66660549  1
  Ni  Ni47  1  0.83115885  0.16594032  0.83237586  1
  Fe  Fe48  1  0.83254102  0.49836835  0.49851367  1
  Fe  Fe49  1  0.66519782  0.33110370  0.66640451  1
  Cr  Cr50  1  0.83391402  0.49873170  0.83404279  1
  Fe  Fe51  1  0.83349117  0.83235104  0.50067502  1
  Cr  Cr52  1  0.66593071  0.66493228  0.66540724  1
  Ni  Ni53  1  0.83329766  0.83370322  0.83241781  1
" 