6907,Ni11Fe38Cr49_18,-217.832544178225, 173.659438177831,Ni11Fe38Cr49,"# generated using pymatgen
 data_Cr14Fe10Ni3
_symmetry_space_group_name_H-M   'P 1'
_cell_length_a   7.52427123
_cell_length_b   7.52427123
_cell_length_c   10.64092642
_cell_angle_alpha   90.00000000
_cell_angle_beta   90.00000000
_cell_angle_gamma   90.00000000
_symmetry_Int_Tables_number   1
_chemical_formula_structural   Cr14Fe10Ni3
_chemical_formula_sum   'Cr28 Fe20 Ni6'
_cell_volume   602.43240565
_cell_formula_units_Z   2
loop_
 _symmetry_equiv_pos_site_id
 _symmetry_equiv_pos_as_xyz
  1  'x, y, z'
loop_
 _atom_site_type_symbol
 _atom_site_label
 _atom_site_symmetry_multiplicity
 _atom_site_fract_x
 _atom_site_fract_y
 _atom_site_fract_z
 _atom_site_occupancy
  Cr  Cr0  1  0.99550684  -0.00071075  0.99531478  1
  Fe  Fe1  1  0.16600616  0.16256319  0.16102083  1
  Cr  Cr2  1  -0.00330692  -0.00188562  0.32863945  1
  Fe  Fe3  1  -0.00256875  0.32733688  0.99407762  1
  Cr  Cr4  1  0.16195197  0.49636503  0.16007632  1
  Cr  Cr5  1  -0.00006748  0.32837634  0.33118556  1
  Cr  Cr6  1  0.99556579  0.66419931  0.99448614  1
  Fe  Fe7  1  0.16594463  0.83284166  0.16282756  1
  Cr  Cr8  1  0.99580899  0.66274215  0.33147944  1
  Fe  Fe9  1  0.32951642  -0.00117379  -0.00281580  1
  Ni  Ni10  1  0.49451570  0.16010935  0.16286495  1
  Fe  Fe11  1  0.33215007  -0.00361139  0.32887554  1
  Fe  Fe12  1  0.32927015  0.32414397  0.99556623  1
  Cr  Cr13  1  0.49767518  0.49282172  0.16175987  1
  Cr  Cr14  1  0.33001168  0.32738068  0.33138715  1
  Cr  Cr15  1  0.33092558  0.66161197  -0.00271797  1
  Fe  Fe16  1  0.49485585  0.83349223  0.16403872  1
  Cr  Cr17  1  0.33157430  0.66149577  0.32918073  1
  Cr  Cr18  1  0.66251824  -0.00260948  0.99517463  1
  Cr  Cr19  1  0.82719621  0.16540586  0.16344509  1
  Fe  Fe20  1  0.65847743  -0.00243244  0.33047794  1
  Fe  Fe21  1  0.66165317  0.32623007  0.99578996  1
  Cr  Cr22  1  0.82908727  0.49281259  0.16301973  1
  Fe  Fe23  1  0.66059670  0.32835217  0.33021287  1
  Cr  Cr24  1  0.66229209  0.66581872  -0.00338765  1
  Cr  Cr25  1  0.83022151  0.83057483  0.16424100  1
  Cr  Cr26  1  0.66117330  0.66478798  0.33051397  1
  Fe  Fe27  1  0.16512713  0.16138214  0.49732455  1
  Cr  Cr28  1  0.99269225  -0.00152788  0.66471725  1
  Ni  Ni29  1  0.16329635  0.16297612  0.83115684  1
  Ni  Ni30  1  0.16279806  0.49614978  0.49729182  1
  Cr  Cr31  1  -0.00059400  0.32784754  0.66271423  1
  Fe  Fe32  1  0.16284473  0.49265939  0.83034683  1
  Cr  Cr33  1  0.16597726  0.83114173  0.49654910  1
  Cr  Cr34  1  0.99479667  0.66246618  0.66262539  1
  Cr  Cr35  1  0.16548906  0.83026845  0.82835765  1
  Fe  Fe36  1  0.49542731  0.16019120  0.49626821  1
  Fe  Fe37  1  0.33156575  -0.00205348  0.66213645  1
  Fe  Fe38  1  0.49626425  0.16270646  0.82936600  1
  Fe  Fe39  1  0.49696597  0.49562893  0.49631755  1
  Cr  Cr40  1  0.32998876  0.32724417  0.66226063  1
  Cr  Cr41  1  0.49644159  0.49393982  0.83057551  1
  Ni  Ni42  1  0.49679716  0.83326338  0.49539942  1
  Cr  Cr43  1  0.33097596  0.65880209  0.66120856  1
  Cr  Cr44  1  0.49386936  0.83171433  0.82826606  1
  Cr  Cr45  1  0.82654925  0.16408035  0.49520732  1
  Ni  Ni46  1  0.66124596  -0.00165926  0.66274496  1
  Ni  Ni47  1  0.82862562  0.16424781  0.82956834  1
  Fe  Fe48  1  0.82854080  0.49642759  0.49639123  1
  Fe  Fe49  1  0.66318945  0.32693203  0.66315365  1
  Cr  Cr50  1  0.82866929  0.49254722  0.83103663  1
  Fe  Fe51  1  0.82741924  0.83153431  0.49634747  1
  Cr  Cr52  1  0.66256230  0.66603937  0.66191859  1
  Fe  Fe53  1  0.82858185  0.83267068  0.82867454  1
" 