3289,Ni11Fe38Cr49_2,-218.452669352034, 183.079631268505,Ni11Fe38Cr49,"# generated using pymatgen
 data_Cr14Fe10Ni3
_symmetry_space_group_name_H-M   'P 1'
_cell_length_a   7.52295064
_cell_length_b   7.52295064
_cell_length_c   10.63905882
_cell_angle_alpha   90.00000000
_cell_angle_beta   90.00000000
_cell_angle_gamma   90.00000000
_symmetry_Int_Tables_number   1
_chemical_formula_structural   Cr14Fe10Ni3
_chemical_formula_sum   'Cr28 Fe20 Ni6'
_cell_volume   602.11526024
_cell_formula_units_Z   2
loop_
 _symmetry_equiv_pos_site_id
 _symmetry_equiv_pos_as_xyz
  1  'x, y, z'
loop_
 _atom_site_type_symbol
 _atom_site_label
 _atom_site_symmetry_multiplicity
 _atom_site_fract_x
 _atom_site_fract_y
 _atom_site_fract_z
 _atom_site_occupancy
  Cr  Cr0  1  -0.00365538  0.99319285  0.99426851  1
  Ni  Ni1  1  0.16077477  0.16327421  0.16308303  1
  Cr  Cr2  1  0.99508425  0.99405630  0.32995708  1
  Fe  Fe3  1  -0.00150819  0.32961851  -0.00306352  1
  Fe  Fe4  1  0.16472519  0.49671199  0.16328548  1
  Cr  Cr5  1  -0.00312887  0.33076290  0.32799856  1
  Cr  Cr6  1  -0.00071992  0.66377796  -0.00301168  1
  Fe  Fe7  1  0.16433864  0.83006585  0.16434563  1
  Cr  Cr8  1  -0.00257434  0.66503631  0.32746314  1
  Cr  Cr9  1  0.32711901  0.99464515  -0.00252593  1
  Cr  Cr10  1  0.49632604  0.16027011  0.16147757  1
  Cr  Cr11  1  0.32955026  -0.00322710  0.32949962  1
  Cr  Cr12  1  0.33064367  0.33144767  -0.00169807  1
  Cr  Cr13  1  0.49884841  0.49957164  0.16315782  1
  Cr  Cr14  1  0.33089288  0.33128352  0.33139026  1
  Fe  Fe15  1  0.32760923  0.66350784  -0.00279598  1
  Cr  Cr16  1  0.49722300  0.82842737  0.16317932  1
  Ni  Ni17  1  0.32986682  0.66447167  0.32883320  1
  Fe  Fe18  1  0.66490800  0.99494352  0.99457077  1
  Cr  Cr19  1  0.83113783  0.16279020  0.16088953  1
  Fe  Fe20  1  0.66275628  0.99338149  0.33182901  1
  Fe  Fe21  1  0.66542979  0.32850046  0.99614117  1
  Fe  Fe22  1  0.83069980  0.49663988  0.16231367  1
  Cr  Cr23  1  0.66065693  0.32780933  0.33083084  1
  Cr  Cr24  1  0.66525552  0.66305587  0.99532912  1
  Fe  Fe25  1  0.82855488  0.83021972  0.16230064  1
  Fe  Fe26  1  0.66160102  0.66537379  0.33098006  1
  Cr  Cr27  1  0.16248504  0.16199632  0.49814587  1
  Cr  Cr28  1  0.99523886  0.99284295  0.66363699  1
  Cr  Cr29  1  0.16263398  0.16337694  0.82608243  1
  Fe  Fe30  1  0.16429968  0.49986436  0.49597788  1
  Cr  Cr31  1  0.99555535  0.33145564  0.66280936  1
  Fe  Fe32  1  0.16444359  0.49625876  0.83002635  1
  Ni  Ni33  1  0.16596177  0.82910461  0.49649764  1
  Cr  Cr34  1  0.99559112  0.66495249  0.66431903  1
  Fe  Fe35  1  0.16368393  0.82935009  0.82846897  1
  Fe  Fe36  1  0.49506846  0.16015535  0.49791409  1
  Ni  Ni37  1  0.33104965  0.99529923  0.66146899  1
  Cr  Cr38  1  0.49327076  0.16212165  0.83101258  1
  Fe  Fe39  1  0.49267228  0.50044646  0.49640561  1
  Ni  Ni40  1  0.33148147  0.33033963  0.65982936  1
  Cr  Cr41  1  0.49645888  0.49738024  0.82946965  1
  Fe  Fe42  1  0.49446808  0.82804356  0.49581646  1
  Cr  Cr43  1  0.32781746  0.66268358  0.66473540  1
  Cr  Cr44  1  0.49537401  0.82936408  0.83059558  1
  Fe  Fe45  1  0.82937352  0.16123431  0.49550154  1
  Cr  Cr46  1  0.66314499  0.99584250  0.66302306  1
  Fe  Fe47  1  0.82787010  0.16112436  0.83148080  1
  Cr  Cr48  1  0.82748105  0.49903628  0.49541636  1
  Cr  Cr49  1  0.66008633  0.32926263  0.66247940  1
  Cr  Cr50  1  0.83061013  0.49552207  0.83062900  1
  Fe  Fe51  1  0.82975372  0.82984524  0.49630830  1
  Fe  Fe52  1  0.66185187  0.66492502  0.66242598  1
  Ni  Ni53  1  0.82922145  0.82792570  0.82885754  1
" 