4747,Ni11Cr89_7,-236.369417070453, 168.979035199006,Ni11Cr89,"# generated using pymatgen
 data_Cr5Ni49
_symmetry_space_group_name_H-M   'P 1'
_cell_length_a   7.46934375
_cell_length_b   7.46934375
_cell_length_c   10.56324724
_cell_angle_alpha   90.00000000
_cell_angle_beta   90.00000000
_cell_angle_gamma   90.00000000
_symmetry_Int_Tables_number   1
_chemical_formula_structural   Cr5Ni49
_chemical_formula_sum   'Cr5 Ni49'
_cell_volume   589.33514209
_cell_formula_units_Z   1
loop_
 _symmetry_equiv_pos_site_id
 _symmetry_equiv_pos_as_xyz
  1  'x, y, z'
loop_
 _atom_site_type_symbol
 _atom_site_label
 _atom_site_symmetry_multiplicity
 _atom_site_fract_x
 _atom_site_fract_y
 _atom_site_fract_z
 _atom_site_occupancy
  Ni  Ni0  1  0.99927872  0.99906018  0.99942155  1
  Cr  Cr1  1  0.16571495  0.16730862  0.16572070  1
  Ni  Ni2  1  0.99737960  0.00073795  0.33383267  1
  Ni  Ni3  1  0.99911166  0.33369097  0.99889361  1
  Ni  Ni4  1  0.16757038  0.50068579  0.16589937  1
  Ni  Ni5  1  0.99892721  0.33220019  0.33419111  1
  Ni  Ni6  1  0.00012180  0.66678603  0.99977146  1
  Ni  Ni7  1  0.16656374  0.83155268  0.16488717  1
  Cr  Cr8  1  0.00008176  0.66674604  0.33318083  1
  Ni  Ni9  1  0.33290811  0.99821946  0.99954199  1
  Ni  Ni10  1  0.50231030  0.16729651  0.16585958  1
  Cr  Cr11  1  0.33374177  0.99902198  0.33418228  1
  Ni  Ni12  1  0.33307625  0.33453375  0.00007030  1
  Ni  Ni13  1  0.49975444  0.49998012  0.16673763  1
  Ni  Ni14  1  0.33404582  0.33545966  0.33402070  1
  Ni  Ni15  1  0.33290573  0.66678638  0.00024321  1
  Ni  Ni16  1  0.50076583  0.83226288  0.16572764  1
  Ni  Ni17  1  0.33458308  0.66488591  0.33301095  1
  Ni  Ni18  1  0.66735229  0.99923082  0.00091064  1
  Ni  Ni19  1  0.83150380  0.16628987  0.16673747  1
  Ni  Ni20  1  0.66828056  0.00019932  0.33318092  1
  Ni  Ni21  1  0.66735288  0.33368993  0.00091058  1
  Ni  Ni22  1  0.83221496  0.49913933  0.16567366  1
  Ni  Ni23  1  0.66656615  0.33290485  0.33301064  1
  Ni  Ni24  1  0.66651108  0.66661835  0.99984590  1
  Ni  Ni25  1  0.83220913  0.83410927  0.16589999  1
  Ni  Ni26  1  0.66502030  0.66643503  0.33323767  1
  Ni  Ni27  1  0.16650930  0.16808770  0.49998109  1
  Cr  Cr28  1  0.00004880  -0.00015199  0.66630006  1
  Ni  Ni29  1  0.16562175  0.16729959  0.83383036  1
  Ni  Ni30  1  0.16735155  0.49878632  0.50045847  1
  Ni  Ni31  1  -0.00010085  0.33479799  0.66645516  1
  Ni  Ni32  1  0.16616411  0.49975600  0.83318102  1
  Ni  Ni33  1  0.16735009  0.83266416  0.50046258  1
  Ni  Ni34  1  -0.00009655  0.66489317  0.66658727  1
  Ni  Ni35  1  0.16716825  0.83248356  0.83418865  1
  Ni  Ni36  1  0.50041356  0.16707755  0.50049857  1
  Ni  Ni37  1  0.33401413  0.99900736  0.66580581  1
  Cr  Cr38  1  0.49964350  0.16630634  0.83318087  1
  Ni  Ni39  1  0.49957027  0.49979646  0.49956350  1
  Ni  Ni40  1  0.33247239  0.33392799  0.66544778  1
  Ni  Ni41  1  0.49978917  0.50147090  0.83323754  1
  Ni  Ni42  1  0.50058126  0.83266622  0.50079976  1
  Ni  Ni43  1  0.33330764  0.66660369  0.66628472  1
  Ni  Ni44  1  0.49979339  0.83177808  0.83301078  1
  Ni  Ni45  1  0.83261625  0.16707617  0.49861208  1
  Ni  Ni46  1  0.66545641  0.99901171  0.66544643  1
  Ni  Ni47  1  0.83429283  0.16729530  0.83418996  1
  Ni  Ni48  1  0.83261689  0.49895474  0.50085444  1
  Ni  Ni49  1  0.66716801  0.33409248  0.66561791  1
  Ni  Ni50  1  0.83358543  0.49992507  0.83301042  1
  Ni  Ni51  1  0.83160575  0.83350798  0.49962023  1
  Ni  Ni52  1  0.66632777  0.66643435  0.66645584  1
  Ni  Ni53  1  0.83257659  0.83231921  0.83401845  1
" 