5090,Ni11Fe46Cr42_15,-220.940033197399, 176.099983469443,Ni11Fe46Cr42,"# generated using pymatgen
 data_Cr23Fe25Ni6
_symmetry_space_group_name_H-M   'P 1'
_cell_length_a   7.51261309
_cell_length_b   7.51261309
_cell_length_c   10.62443932
_cell_angle_alpha   90.00000000
_cell_angle_beta   90.00000000
_cell_angle_gamma   90.00000000
_symmetry_Int_Tables_number   1
_chemical_formula_structural   Cr23Fe25Ni6
_chemical_formula_sum   'Cr23 Fe25 Ni6'
_cell_volume   599.63650668
_cell_formula_units_Z   1
loop_
 _symmetry_equiv_pos_site_id
 _symmetry_equiv_pos_as_xyz
  1  'x, y, z'
loop_
 _atom_site_type_symbol
 _atom_site_label
 _atom_site_symmetry_multiplicity
 _atom_site_fract_x
 _atom_site_fract_y
 _atom_site_fract_z
 _atom_site_occupancy
  Fe  Fe0  1  0.99556133  0.99491207  -0.00098152  1
  Fe  Fe1  1  0.15982954  0.16143955  0.16454916  1
  Fe  Fe2  1  -0.00150999  -0.00207076  0.32819192  1
  Cr  Cr3  1  -0.00099171  0.33169557  -0.00155224  1
  Ni  Ni4  1  0.16361118  0.49694074  0.16364155  1
  Fe  Fe5  1  -0.00177458  0.32878170  0.32745376  1
  Ni  Ni6  1  0.99255965  0.66668488  -0.00098935  1
  Fe  Fe7  1  0.16106416  0.82776075  0.16298218  1
  Cr  Cr8  1  0.99547469  0.66750140  0.32937272  1
  Cr  Cr9  1  0.33017624  -0.00127969  0.00020915  1
  Fe  Fe10  1  0.50201717  0.16266955  0.16406308  1
  Fe  Fe11  1  0.32844017  0.99361370  0.32886319  1
  Cr  Cr12  1  0.33238570  0.32777387  -0.00144170  1
  Cr  Cr13  1  0.49608291  0.49864394  0.16419029  1
  Cr  Cr14  1  0.32997972  0.32352615  0.32815745  1
  Fe  Fe15  1  0.32689101  0.66352664  -0.00132615  1
  Cr  Cr16  1  0.49746533  0.82976231  0.16399265  1
  Fe  Fe17  1  0.32787244  0.66493203  0.32879951  1
  Fe  Fe18  1  0.66695850  0.99514121  -0.00138391  1
  Fe  Fe19  1  0.83017475  0.16238900  0.16423267  1
  Fe  Fe20  1  0.66419138  -0.00224074  0.32796723  1
  Fe  Fe21  1  0.66548975  0.33132308  -0.00276715  1
  Cr  Cr22  1  0.82995607  0.49720220  0.16542360  1
  Fe  Fe23  1  0.66372750  0.32858064  0.32885826  1
  Fe  Fe24  1  0.66553039  0.66564534  -0.00272491  1
  Ni  Ni25  1  0.83017164  0.83456818  0.16292421  1
  Ni  Ni26  1  0.66563924  0.66734066  0.32886050  1
  Fe  Fe27  1  0.16320767  0.15988004  0.49690276  1
  Fe  Fe28  1  0.99636420  0.99533962  0.66262654  1
  Cr  Cr29  1  0.16120710  0.16149571  0.82716256  1
  Cr  Cr30  1  0.16373222  0.49787729  0.49662472  1
  Fe  Fe31  1  0.99548131  0.33121602  0.66347546  1
  Cr  Cr32  1  0.16500929  0.49814194  0.83052283  1
  Ni  Ni33  1  0.16551822  0.83448556  0.49585256  1
  Cr  Cr34  1  0.99410362  0.66679577  0.66292362  1
  Cr  Cr35  1  0.16344014  0.83003832  0.83190174  1
  Fe  Fe36  1  0.49673582  0.16075640  0.49588168  1
  Fe  Fe37  1  0.33061686  0.99330208  0.66277124  1
  Cr  Cr38  1  0.49908052  0.16085908  0.83166909  1
  Cr  Cr39  1  0.49696102  0.49953955  0.49219360  1
  Cr  Cr40  1  0.33128269  0.32600731  0.66306631  1
  Fe  Fe41  1  0.49860152  0.50041098  0.83314200  1
  Cr  Cr42  1  0.49590601  0.83064510  0.49596129  1
  Fe  Fe43  1  0.33102486  0.66472750  0.66349930  1
  Fe  Fe44  1  0.49768519  0.82972971  0.83238620  1
  Cr  Cr45  1  0.83089967  0.16339349  0.49624900  1
  Fe  Fe46  1  0.66386268  0.99605730  0.66487908  1
  Cr  Cr47  1  0.83144988  0.16161237  0.83123676  1
  Cr  Cr48  1  0.83016225  0.49419001  0.49325218  1
  Cr  Cr49  1  0.66184259  0.33217646  0.66442322  1
  Fe  Fe50  1  0.83092122  0.49939863  0.83368640  1
  Cr  Cr51  1  0.82922898  0.83390314  0.49477386  1
  Cr  Cr52  1  0.66634715  0.66549112  0.66612671  1
  Ni  Ni53  1  0.82859281  0.83200523  0.83348285  1
" 