6217,Ni11Fe46Cr42_14,-220.574091564135, 176.26913353984,Ni11Fe46Cr42,"# generated using pymatgen
 data_Cr23Fe25Ni6
_symmetry_space_group_name_H-M   'P 1'
_cell_length_a   7.50614262
_cell_length_b   7.50614262
_cell_length_c   10.61528870
_cell_angle_alpha   90.00000000
_cell_angle_beta   90.00000000
_cell_angle_gamma   90.00000000
_symmetry_Int_Tables_number   1
_chemical_formula_structural   Cr23Fe25Ni6
_chemical_formula_sum   'Cr23 Fe25 Ni6'
_cell_volume   598.08847542
_cell_formula_units_Z   1
loop_
 _symmetry_equiv_pos_site_id
 _symmetry_equiv_pos_as_xyz
  1  'x, y, z'
loop_
 _atom_site_type_symbol
 _atom_site_label
 _atom_site_symmetry_multiplicity
 _atom_site_fract_x
 _atom_site_fract_y
 _atom_site_fract_z
 _atom_site_occupancy
  Fe  Fe0  1  0.99661078  -0.00038682  0.99516786  1
  Cr  Cr1  1  0.16217588  0.16383598  0.16116778  1
  Fe  Fe2  1  -0.00234445  -0.00164447  0.33375212  1
  Fe  Fe3  1  0.99707417  0.33141496  0.99564108  1
  Ni  Ni4  1  0.16256618  0.49758317  0.16896495  1
  Fe  Fe5  1  0.00085530  0.32988585  0.33279048  1
  Cr  Cr6  1  0.99525782  0.66291844  0.99629768  1
  Fe  Fe7  1  0.16190084  0.82905941  0.16544344  1
  Fe  Fe8  1  -0.00076725  0.66290493  0.33209398  1
  Fe  Fe9  1  0.32941563  0.99702489  -0.00257818  1
  Cr  Cr10  1  0.49823528  0.16397935  0.16449535  1
  Cr  Cr11  1  0.33079270  -0.00038836  0.33048825  1
  Cr  Cr12  1  0.32992816  0.33171430  -0.00115080  1
  Fe  Fe13  1  0.49633983  0.49707533  0.16771606  1
  Fe  Fe14  1  0.33036989  0.33323942  0.33171899  1
  Cr  Cr15  1  0.32907700  0.66016362  -0.00002680  1
  Cr  Cr16  1  0.49674435  0.82973635  0.16254456  1
  Fe  Fe17  1  0.33180675  0.66122287  0.33136361  1
  Cr  Cr18  1  0.66633595  -0.00147981  0.99494941  1
  Cr  Cr19  1  0.83155880  0.16546919  0.16725107  1
  Cr  Cr20  1  0.66435442  -0.00142879  0.33842491  1
  Cr  Cr21  1  0.66404596  0.33308445  -0.00222822  1
  Cr  Cr22  1  0.83054433  0.49692837  0.16642343  1
  Fe  Fe23  1  0.66123360  0.33213149  0.33296572  1
  Fe  Fe24  1  0.66298330  0.66268775  0.99519254  1
  Cr  Cr25  1  0.83041389  0.83058596  0.16640852  1
  Fe  Fe26  1  0.66135993  0.66325095  0.33312712  1
  Fe  Fe27  1  0.16432958  0.16858274  0.49661310  1
  Cr  Cr28  1  0.99543331  0.99686379  0.66226725  1
  Fe  Fe29  1  0.16308992  0.16565187  0.83059510  1
  Ni  Ni30  1  0.16668048  0.49588707  0.49739417  1
  Fe  Fe31  1  0.99705697  0.32748460  0.66228206  1
  Cr  Cr32  1  0.16465580  0.49562710  0.82424082  1
  Cr  Cr33  1  0.16568500  0.82838205  0.49536347  1
  Cr  Cr34  1  -0.00199421  0.66167239  0.66377088  1
  Cr  Cr35  1  0.16560272  0.83180307  0.83185362  1
  Fe  Fe36  1  0.49683959  0.16935337  0.49845987  1
  Cr  Cr37  1  0.33120672  0.00198751  0.66209284  1
  Cr  Cr38  1  0.49818663  0.16447797  0.82920369  1
  Ni  Ni39  1  0.49674797  0.49621635  0.49687599  1
  Fe  Fe40  1  0.33373540  0.33361172  0.66125682  1
  Ni  Ni41  1  0.49805104  0.49650331  0.82944678  1
  Fe  Fe42  1  0.49763154  0.82688871  0.49885524  1
  Fe  Fe43  1  0.33366510  0.66284434  0.66124739  1
  Cr  Cr44  1  0.49614032  0.82989975  0.82947649  1
  Fe  Fe45  1  0.83147490  0.16650343  0.49864723  1
  Ni  Ni46  1  0.66409538  -0.00040175  0.65995818  1
  Ni  Ni47  1  0.83231130  0.16574329  0.82766063  1
  Cr  Cr48  1  0.83192222  0.49495776  0.49631520  1
  Fe  Fe49  1  0.66416164  0.32982662  0.66391631  1
  Fe  Fe50  1  0.82904812  0.49396887  0.82984725  1
  Fe  Fe51  1  0.83011278  0.82768365  0.49704496  1
  Cr  Cr52  1  0.66515753  0.66351525  0.66673557  1
  Fe  Fe53  1  0.82947632  0.83326956  0.82954730  1
" 