1998,Ni11Fe64Cr23_2,-224.37648479261, 166.666937887683,Ni11Fe64Cr23,"# generated using pymatgen
 data_Cr7Fe17Ni3
_symmetry_space_group_name_H-M   'P 1'
_cell_length_a   7.47533169
_cell_length_b   7.47533169
_cell_length_c   10.57171546
_cell_angle_alpha   90.00000000
_cell_angle_beta   90.00000000
_cell_angle_gamma   90.00000000
_symmetry_Int_Tables_number   1
_chemical_formula_structural   Cr7Fe17Ni3
_chemical_formula_sum   'Cr14 Fe34 Ni6'
_cell_volume   590.75363188
_cell_formula_units_Z   2
loop_
 _symmetry_equiv_pos_site_id
 _symmetry_equiv_pos_as_xyz
  1  'x, y, z'
loop_
 _atom_site_type_symbol
 _atom_site_label
 _atom_site_symmetry_multiplicity
 _atom_site_fract_x
 _atom_site_fract_y
 _atom_site_fract_z
 _atom_site_occupancy
  Fe  Fe0  1  0.00005893  0.99918807  0.00099255  1
  Fe  Fe1  1  0.16675169  0.16472049  0.16616808  1
  Ni  Ni2  1  0.00034565  0.99797260  0.33274289  1
  Fe  Fe3  1  0.00049323  0.33358512  0.99924920  1
  Cr  Cr4  1  0.16477202  0.49928486  0.16693584  1
  Cr  Cr5  1  -0.00013383  0.33176810  0.33319852  1
  Ni  Ni6  1  0.99679309  0.66517978  -0.00022338  1
  Fe  Fe7  1  0.16518222  0.83370035  0.16709405  1
  Fe  Fe8  1  0.00034473  0.66860170  0.33234077  1
  Cr  Cr9  1  0.33179869  0.00172583  0.00041855  1
  Fe  Fe10  1  0.49848383  0.16548086  0.16628830  1
  Fe  Fe11  1  0.33208032  -0.00024048  0.33176379  1
  Ni  Ni12  1  0.33263361  0.33173868  0.99742021  1
  Cr  Cr13  1  0.49948821  0.49985408  0.16560617  1
  Fe  Fe14  1  0.33243919  0.33144357  0.33340657  1
  Cr  Cr15  1  0.33202980  0.66533598  -0.00046798  1
  Ni  Ni16  1  0.49992647  0.83458931  0.16763427  1
  Fe  Fe17  1  0.33110135  0.66713832  0.33293547  1
  Cr  Cr18  1  0.66625025  0.99920879  0.00131907  1
  Fe  Fe19  1  0.83310257  0.16509108  0.16584188  1
  Fe  Fe20  1  0.66708823  -0.00018073  0.33227930  1
  Fe  Fe21  1  0.66571596  0.33429025  -0.00050143  1
  Fe  Fe22  1  0.83305742  0.50076061  0.16441068  1
  Cr  Cr23  1  0.66499778  0.33090046  0.33273672  1
  Fe  Fe24  1  0.66789365  0.66504921  -0.00003616  1
  Fe  Fe25  1  0.83382372  0.83248059  0.16610193  1
  Cr  Cr26  1  0.66631209  0.66706106  0.33167812  1
  Fe  Fe27  1  0.16631013  0.16531199  0.49958618  1
  Fe  Fe28  1  0.99863139  -0.00037007  0.66454272  1
  Fe  Fe29  1  0.16712163  0.16847363  0.83258274  1
  Fe  Fe30  1  0.16788019  0.50011703  0.50029721  1
  Fe  Fe31  1  0.00130712  0.33261328  0.66623253  1
  Ni  Ni32  1  0.16533176  0.49718399  0.83171758  1
  Fe  Fe33  1  0.16459170  0.83290481  0.49922787  1
  Fe  Fe34  1  0.99912404  0.66608991  0.66692752  1
  Cr  Cr35  1  0.16511812  0.83258653  0.83231335  1
  Fe  Fe36  1  0.49888957  0.16604055  0.49982141  1
  Fe  Fe37  1  0.33311836  0.00111017  0.66573914  1
  Fe  Fe38  1  0.49729529  0.16801636  0.83222630  1
  Fe  Fe39  1  0.49684334  0.49890641  0.49976314  1
  Fe  Fe40  1  0.33191940  0.33262280  0.66689601  1
  Fe  Fe41  1  0.49850025  0.49802997  0.83319994  1
  Cr  Cr42  1  0.49932892  0.83367235  0.49991925  1
  Fe  Fe43  1  0.33263030  0.66460324  0.66595428  1
  Cr  Cr44  1  0.50106848  0.83240793  0.83113320  1
  Fe  Fe45  1  0.83313656  0.16275741  0.50009955  1
  Ni  Ni46  1  0.66677820  0.99884793  0.66424994  1
  Cr  Cr47  1  0.83418984  0.16614799  0.83252651  1
  Cr  Cr48  1  0.83452004  0.49927470  0.49995863  1
  Cr  Cr49  1  0.66466990  0.33235330  0.66568009  1
  Fe  Fe50  1  0.83423035  0.50164508  0.83349223  1
  Fe  Fe51  1  0.83434819  0.83495504  0.50002120  1
  Fe  Fe52  1  0.66658710  0.66728030  0.66642335  1
  Fe  Fe53  1  0.83377787  0.83076774  0.83221305  1
" 