8373,Ni11Cr89_2,-236.299863352933, 167.505163779284,Ni11Cr89,"# generated using pymatgen
 data_Cr5Ni49
_symmetry_space_group_name_H-M   'P 1'
_cell_length_a   7.46905866
_cell_length_b   7.46905866
_cell_length_c   10.56284406
_cell_angle_alpha   90.00000000
_cell_angle_beta   90.00000000
_cell_angle_gamma   90.00000000
_symmetry_Int_Tables_number   1
_chemical_formula_structural   Cr5Ni49
_chemical_formula_sum   'Cr5 Ni49'
_cell_volume   589.26766277
_cell_formula_units_Z   1
loop_
 _symmetry_equiv_pos_site_id
 _symmetry_equiv_pos_as_xyz
  1  'x, y, z'
loop_
 _atom_site_type_symbol
 _atom_site_label
 _atom_site_symmetry_multiplicity
 _atom_site_fract_x
 _atom_site_fract_y
 _atom_site_fract_z
 _atom_site_occupancy
  Ni  Ni0  1  0.99826674  -0.00007943  0.99984731  1
  Ni  Ni1  1  0.16395093  0.16777737  0.16772288  1
  Ni  Ni2  1  0.00088492  0.00093582  0.33393407  1
  Ni  Ni3  1  0.99856349  0.33435347  0.00087484  1
  Ni  Ni4  1  0.16661670  0.49986571  0.16617914  1
  Ni  Ni5  1  0.99960999  0.33329905  0.33308922  1
  Ni  Ni6  1  0.00071216  0.66532680  0.99901789  1
  Ni  Ni7  1  0.16681050  0.83197747  0.16726375  1
  Ni  Ni8  1  0.00089603  0.66533043  0.33397754  1
  Cr  Cr9  1  0.33369086  0.99795863  0.00037985  1
  Cr  Cr10  1  0.50112857  0.16775991  0.16736885  1
  Ni  Ni11  1  0.33234014  0.99892224  0.33413196  1
  Ni  Ni12  1  0.33339188  0.33677919  0.99986123  1
  Ni  Ni13  1  0.49978113  0.50160145  0.16637897  1
  Ni  Ni14  1  0.33236841  0.33407019  0.33392275  1
  Ni  Ni15  1  0.33321508  0.66494301  0.99983025  1
  Ni  Ni16  1  0.49932495  0.83019172  0.16747954  1
  Ni  Ni17  1  0.33313841  0.66660861  0.33285022  1
  Ni  Ni18  1  0.66814875  0.00007274  0.99789129  1
  Ni  Ni19  1  0.83504457  0.16803325  0.16616167  1
  Ni  Ni20  1  0.66634075  0.00019076  0.33486567  1
  Ni  Ni21  1  0.66768289  0.33421443  0.99900074  1
  Ni  Ni22  1  0.83318243  0.49856420  0.16662054  1
  Ni  Ni23  1  0.66760443  0.33407671  0.33390913  1
  Ni  Ni24  1  0.66563129  0.66529485  0.99899831  1
  Cr  Cr25  1  0.83260937  0.83277532  0.16676619  1
  Ni  Ni26  1  0.66553676  0.66524675  0.33422108  1
  Ni  Ni27  1  0.16661445  0.16671366  0.49963501  1
  Ni  Ni28  1  0.99882962  0.00051263  0.66581581  1
  Cr  Cr29  1  0.16588918  0.16819157  0.83190647  1
  Ni  Ni30  1  0.16771865  0.49880706  0.49919780  1
  Ni  Ni31  1  0.99850426  0.33258614  0.66558909  1
  Ni  Ni32  1  0.16760174  0.50059953  0.83418619  1
  Ni  Ni33  1  0.16737304  0.83404929  0.49899642  1
  Cr  Cr34  1  0.99940619  0.66603706  0.66631034  1
  Ni  Ni35  1  0.16638076  0.83152967  0.83337774  1
  Ni  Ni36  1  0.49971458  0.16670411  0.50025154  1
  Ni  Ni37  1  0.33443335  0.99882614  0.66536303  1
  Ni  Ni38  1  0.50242313  0.16774270  0.83207896  1
  Ni  Ni39  1  0.49973003  0.49992964  0.49981988  1
  Ni  Ni40  1  0.33445830  0.33414329  0.66574634  1
  Ni  Ni41  1  0.49983265  0.49998173  0.83336274  1
  Ni  Ni42  1  0.50004979  0.83296955  0.49960697  1
  Ni  Ni43  1  0.33478549  0.66666033  0.66689607  1
  Ni  Ni44  1  0.50109631  0.83192553  0.83253196  1
  Ni  Ni45  1  0.83326672  0.16639286  0.49983796  1
  Ni  Ni46  1  0.66634564  0.00011090  0.66688785  1
  Ni  Ni47  1  0.83167371  0.16646686  0.83361049  1
  Ni  Ni48  1  0.83212046  0.49910926  0.49871692  1
  Ni  Ni49  1  0.66667145  0.33311998  0.66668055  1
  Ni  Ni50  1  0.83216092  0.49919531  0.83419516  1
  Ni  Ni51  1  0.83215087  0.83408431  0.49916315  1
  Ni  Ni52  1  0.66487825  0.66635200  0.66643907  1
  Ni  Ni53  1  0.83214855  0.83389844  0.83398182  1
" 