1458,Ni11Fe38Cr49_13,-218.108263477406, 180.299148168162,Ni11Fe38Cr49,"# generated using pymatgen
 data_Cr14Fe10Ni3
_symmetry_space_group_name_H-M   'P 1'
_cell_length_a   7.51644229
_cell_length_b   7.51644229
_cell_length_c   10.62985463
_cell_angle_alpha   90.00000000
_cell_angle_beta   90.00000000
_cell_angle_gamma   90.00000000
_symmetry_Int_Tables_number   1
_chemical_formula_structural   Cr14Fe10Ni3
_chemical_formula_sum   'Cr28 Fe20 Ni6'
_cell_volume   600.55388452
_cell_formula_units_Z   2
loop_
 _symmetry_equiv_pos_site_id
 _symmetry_equiv_pos_as_xyz
  1  'x, y, z'
loop_
 _atom_site_type_symbol
 _atom_site_label
 _atom_site_symmetry_multiplicity
 _atom_site_fract_x
 _atom_site_fract_y
 _atom_site_fract_z
 _atom_site_occupancy
  Ni  Ni0  1  -0.00293995  0.99329474  -0.00186715  1
  Cr  Cr1  1  0.16217871  0.16134310  0.16446716  1
  Fe  Fe2  1  -0.00047609  0.99486114  0.32786193  1
  Cr  Cr3  1  0.99627171  0.32908491  0.99416026  1
  Cr  Cr4  1  0.16338470  0.49701841  0.16163866  1
  Cr  Cr5  1  -0.00091807  0.32869351  0.33055284  1
  Fe  Fe6  1  -0.00080090  0.66571244  0.99627782  1
  Ni  Ni7  1  0.16217768  0.83068086  0.16203524  1
  Fe  Fe8  1  -0.00155987  0.66553764  0.32896309  1
  Fe  Fe9  1  0.32670572  0.99471715  0.99667632  1
  Cr  Cr10  1  0.49393564  0.16292386  0.16255938  1
  Fe  Fe11  1  0.32820501  -0.00259704  0.33080830  1
  Cr  Cr12  1  0.32977152  0.33205881  -0.00220399  1
  Fe  Fe13  1  0.49524157  0.49634337  0.16444135  1
  Ni  Ni14  1  0.32849040  0.32998335  0.33157833  1
  Fe  Fe15  1  0.32522950  0.66681717  0.99575560  1
  Cr  Cr16  1  0.49493600  0.82962087  0.16099465  1
  Cr  Cr17  1  0.32783792  0.66461702  0.32859481  1
  Fe  Fe18  1  0.66552664  -0.00235810  -0.00304161  1
  Ni  Ni19  1  0.83126361  0.16143866  0.16074368  1
  Cr  Cr20  1  0.66522677  0.99497253  0.32705683  1
  Cr  Cr21  1  0.66387793  0.32796456  0.99528448  1
  Cr  Cr22  1  0.83023543  0.49756260  0.16506340  1
  Cr  Cr23  1  0.66200068  0.32739746  0.32847247  1
  Cr  Cr24  1  0.66314191  0.66502651  -0.00028929  1
  Fe  Fe25  1  0.83450999  0.83220643  0.16294432  1
  Fe  Fe26  1  0.66260555  0.66351407  0.32831934  1
  Fe  Fe27  1  0.16610192  0.16111413  0.49583025  1
  Fe  Fe28  1  0.00022479  0.99524393  0.66425615  1
  Cr  Cr29  1  0.16316294  0.16069327  0.83129114  1
  Fe  Fe30  1  0.16395470  0.49826308  0.49606709  1
  Cr  Cr31  1  -0.00203514  0.33027358  0.66633690  1
  Fe  Fe32  1  0.16444315  0.50067646  0.83120084  1
  Fe  Fe33  1  0.16341707  0.83111901  0.49680995  1
  Cr  Cr34  1  0.00064748  0.66455593  0.66441938  1
  Ni  Ni35  1  0.16360884  0.83122387  0.83088534  1
  Fe  Fe36  1  0.49533244  0.16228751  0.49524378  1
  Fe  Fe37  1  0.32639699  0.99548878  0.66328010  1
  Fe  Fe38  1  0.49417456  0.16112895  0.83168329  1
  Cr  Cr39  1  0.49639611  0.49743167  0.49434496  1
  Cr  Cr40  1  0.32917602  0.33069071  0.66122500  1
  Cr  Cr41  1  0.49589891  0.49863611  0.83063163  1
  Cr  Cr42  1  0.49482130  0.83055468  0.49923463  1
  Ni  Ni43  1  0.32575079  0.66534116  0.66441984  1
  Cr  Cr44  1  0.49332527  0.83060802  0.82997130  1
  Cr  Cr45  1  0.83443310  0.16224138  0.49805830  1
  Cr  Cr46  1  0.66304054  -0.00177083  0.66565030  1
  Fe  Fe47  1  0.83132022  0.15980278  0.83224313  1
  Cr  Cr48  1  0.83090745  0.49742894  0.49650047  1
  Cr  Cr49  1  0.66357906  0.32755284  0.66679840  1
  Fe  Fe50  1  0.83174797  0.49885422  0.83096032  1
  Cr  Cr51  1  0.83198138  0.82992317  0.49398820  1
  Cr  Cr52  1  0.66290189  0.66423791  0.66215234  1
  Cr  Cr53  1  0.83179866  0.83053083  0.83123687  1
" 