7235,Ni11Fe38Cr49_6,-217.908112023374, 175.038764239389,Ni11Fe38Cr49,"# generated using pymatgen
 data_Cr14Fe10Ni3
_symmetry_space_group_name_H-M   'P 1'
_cell_length_a   7.52407202
_cell_length_b   7.52407202
_cell_length_c   10.64064469
_cell_angle_alpha   90.00000000
_cell_angle_beta   90.00000000
_cell_angle_gamma   90.00000000
_symmetry_Int_Tables_number   1
_chemical_formula_structural   Cr14Fe10Ni3
_chemical_formula_sum   'Cr28 Fe20 Ni6'
_cell_volume   602.38455652
_cell_formula_units_Z   2
loop_
 _symmetry_equiv_pos_site_id
 _symmetry_equiv_pos_as_xyz
  1  'x, y, z'
loop_
 _atom_site_type_symbol
 _atom_site_label
 _atom_site_symmetry_multiplicity
 _atom_site_fract_x
 _atom_site_fract_y
 _atom_site_fract_z
 _atom_site_occupancy
  Fe  Fe0  1  -0.00180576  -0.00305576  0.99291723  1
  Cr  Cr1  1  0.16381528  0.16282923  0.16014742  1
  Cr  Cr2  1  -0.00279553  0.99402764  0.32955782  1
  Cr  Cr3  1  -0.00317310  0.33218905  -0.00344186  1
  Fe  Fe4  1  0.16271679  0.49636522  0.16462241  1
  Ni  Ni5  1  0.99522148  0.33434832  0.33169481  1
  Cr  Cr6  1  -0.00048896  0.66417231  -0.00373181  1
  Fe  Fe7  1  0.16343376  0.82723148  0.16563288  1
  Ni  Ni8  1  0.00069275  0.66018357  0.33175075  1
  Cr  Cr9  1  0.33000305  0.99299902  -0.00236478  1
  Cr  Cr10  1  0.49294329  0.16366631  0.16600357  1
  Ni  Ni11  1  0.32652682  0.99073321  0.33009800  1
  Ni  Ni12  1  0.32719111  0.33165864  0.99242411  1
  Cr  Cr13  1  0.49716002  0.49635171  0.16150259  1
  Cr  Cr14  1  0.32858208  0.33180425  0.32888432  1
  Cr  Cr15  1  0.32889690  0.66080138  -0.00214309  1
  Cr  Cr16  1  0.49766059  0.82685020  0.16744528  1
  Fe  Fe17  1  0.32719094  0.66168411  0.33061930  1
  Cr  Cr18  1  0.66403664  0.99567476  0.99415651  1
  Cr  Cr19  1  0.83277044  0.16401018  0.16387914  1
  Cr  Cr20  1  0.66186552  -0.00093075  0.33173136  1
  Cr  Cr21  1  0.66136114  0.32944647  -0.00308181  1
  Cr  Cr22  1  0.83056982  0.49908514  0.16692999  1
  Ni  Ni23  1  0.66570019  0.33396850  0.33202172  1
  Fe  Fe24  1  0.66155381  0.66265249  0.99415302  1
  Cr  Cr25  1  0.83208062  0.82626104  0.15967217  1
  Fe  Fe26  1  0.66592244  0.66139148  0.33107197  1
  Cr  Cr27  1  0.16221117  0.16326989  0.49665041  1
  Cr  Cr28  1  0.99482940  -0.00368875  0.66530538  1
  Fe  Fe29  1  0.16091683  0.16381496  0.82985032  1
  Fe  Fe30  1  0.16276810  0.49941735  0.49655947  1
  Cr  Cr31  1  0.99508281  0.33238816  0.65982935  1
  Fe  Fe32  1  0.16510340  0.49590525  0.82765799  1
  Fe  Fe33  1  0.16411538  0.82620501  0.49615928  1
  Fe  Fe34  1  -0.00050940  0.66344026  0.66283716  1
  Fe  Fe35  1  0.16383541  0.82734533  0.82849899  1
  Cr  Cr36  1  0.49171119  0.16384243  0.49302593  1
  Cr  Cr37  1  0.32935052  0.99115701  0.66136084  1
  Cr  Cr38  1  0.49014335  0.16478679  0.82854457  1
  Cr  Cr39  1  0.49654961  0.49785595  0.49888456  1
  Fe  Fe40  1  0.32743410  0.33137628  0.66397745  1
  Fe  Fe41  1  0.49409090  0.49775550  0.82791429  1
  Cr  Cr42  1  0.49540266  0.82729885  0.49479871  1
  Ni  Ni43  1  0.32715972  0.66078525  0.66379615  1
  Fe  Fe44  1  0.49599653  0.82592774  0.82794489  1
  Fe  Fe45  1  0.82956099  0.16395341  0.49355662  1
  Cr  Cr46  1  0.66320057  -0.00238356  0.66202841  1
  Fe  Fe47  1  0.82961929  0.16477407  0.82977445  1
  Fe  Fe48  1  0.83113004  0.49580181  0.49386941  1
  Cr  Cr49  1  0.66384762  0.32883099  0.65972218  1
  Cr  Cr50  1  0.82885381  0.50147545  0.82818114  1
  Cr  Cr51  1  0.83248644  0.82323156  0.49853417  1
  Fe  Fe52  1  0.66102972  0.66388605  0.66454184  1
  Fe  Fe53  1  0.82981662  0.83051666  0.82941194  1
" 