4480,Ni11Fe64Cr23_3,-224.544859454086, 172.17571311965,Ni11Fe64Cr23,"# generated using pymatgen
 data_Cr7Fe17Ni3
_symmetry_space_group_name_H-M   'P 1'
_cell_length_a   7.46688199
_cell_length_b   7.46688199
_cell_length_c   10.55976578
_cell_angle_alpha   90.00000000
_cell_angle_beta   90.00000000
_cell_angle_gamma   90.00000000
_symmetry_Int_Tables_number   1
_chemical_formula_structural   Cr7Fe17Ni3
_chemical_formula_sum   'Cr14 Fe34 Ni6'
_cell_volume   588.75263078
_cell_formula_units_Z   2
loop_
 _symmetry_equiv_pos_site_id
 _symmetry_equiv_pos_as_xyz
  1  'x, y, z'
loop_
 _atom_site_type_symbol
 _atom_site_label
 _atom_site_symmetry_multiplicity
 _atom_site_fract_x
 _atom_site_fract_y
 _atom_site_fract_z
 _atom_site_occupancy
  Fe  Fe0  1  0.00181294  0.00122607  0.00042773  1
  Fe  Fe1  1  0.16310642  0.16297734  0.16706499  1
  Ni  Ni2  1  0.99996870  0.99835644  0.33208310  1
  Ni  Ni3  1  0.00173196  0.33012216  0.99892667  1
  Cr  Cr4  1  0.16376781  0.49902051  0.16755688  1
  Fe  Fe5  1  0.99607111  0.33025306  0.33307086  1
  Fe  Fe6  1  0.99899879  0.66867293  0.99956370  1
  Fe  Fe7  1  0.16391346  0.83584208  0.16789434  1
  Fe  Fe8  1  0.99971810  0.67125071  0.33373382  1
  Fe  Fe9  1  0.33066412  0.00171906  0.00066920  1
  Fe  Fe10  1  0.49992107  0.16455737  0.16749207  1
  Fe  Fe11  1  0.33266339  0.99723328  0.33252377  1
  Cr  Cr12  1  0.33117050  0.33197384  0.99732849  1
  Fe  Fe13  1  0.50099985  0.50173053  0.16692681  1
  Cr  Cr14  1  0.33554279  0.33485558  0.33175401  1
  Cr  Cr15  1  0.33182086  0.66696635  0.00152877  1
  Fe  Fe16  1  0.49967793  0.83361457  0.16639955  1
  Fe  Fe17  1  0.33227761  0.67140736  0.33326597  1
  Cr  Cr18  1  0.66978549  0.99918612  0.99925912  1
  Fe  Fe19  1  0.83792348  0.16491251  0.16668987  1
  Cr  Cr20  1  0.67000832  0.00045116  0.33535152  1
  Cr  Cr21  1  0.66685814  0.33080887  0.00267961  1
  Cr  Cr22  1  0.83440126  0.49968964  0.16641829  1
  Fe  Fe23  1  0.66878879  0.33163600  0.33511226  1
  Fe  Fe24  1  0.66888880  0.66749392  0.00135821  1
  Ni  Ni25  1  0.83426500  0.83433742  0.16428820  1
  Cr  Cr26  1  0.66592324  0.66658160  0.33328918  1
  Cr  Cr27  1  0.16541442  0.16485409  0.49920467  1
  Fe  Fe28  1  0.99696465  0.99920487  0.66668605  1
  Fe  Fe29  1  0.16482288  0.16563821  0.83167918  1
  Cr  Cr30  1  0.16443319  0.50098124  0.50084793  1
  Fe  Fe31  1  0.99718610  0.33266743  0.66847294  1
  Fe  Fe32  1  0.16431534  0.49953718  0.83168228  1
  Fe  Fe33  1  0.16609998  0.83415716  0.49972117  1
  Fe  Fe34  1  0.99793207  0.66805635  0.66667440  1
  Fe  Fe35  1  0.16349706  0.83453913  0.83223074  1
  Fe  Fe36  1  0.50092791  0.16709362  0.50186694  1
  Fe  Fe37  1  0.33465117  0.00013793  0.66653346  1
  Fe  Fe38  1  0.50223495  0.16673851  0.82998495  1
  Fe  Fe39  1  0.50158318  0.49985879  0.50270398  1
  Fe  Fe40  1  0.33505831  0.33299512  0.66709651  1
  Cr  Cr41  1  0.50171499  0.50114930  0.83212403  1
  Fe  Fe42  1  0.49806347  0.83311999  0.50268171  1
  Fe  Fe43  1  0.33384720  0.66703049  0.66615296  1
  Cr  Cr44  1  0.50107937  0.83495920  0.83298618  1
  Fe  Fe45  1  0.83374163  0.16760449  0.50173822  1
  Fe  Fe46  1  0.66868378  0.00119604  0.66607492  1
  Ni  Ni47  1  0.83614231  0.16597926  0.83187508  1
  Fe  Fe48  1  0.83178066  0.49892835  0.50171892  1
  Ni  Ni49  1  0.66643125  0.33224226  0.66394880  1
  Cr  Cr50  1  0.83375236  0.49991912  0.83494982  1
  Fe  Fe51  1  0.83622287  0.83327983  0.50064704  1
  Ni  Ni52  1  0.66799885  0.66767693  0.66526062  1
  Fe  Fe53  1  0.83534897  0.83417751  0.83239841  1
" 