6038,Ni11Fe38Cr49_0,-217.710593078947, 178.476041499718,Ni11Fe38Cr49,"# generated using pymatgen
 data_Cr14Fe10Ni3
_symmetry_space_group_name_H-M   'P 1'
_cell_length_a   7.52073498
_cell_length_b   7.52073498
_cell_length_c   10.63592541
_cell_angle_alpha   90.00000000
_cell_angle_beta   90.00000000
_cell_angle_gamma   90.00000000
_symmetry_Int_Tables_number   1
_chemical_formula_structural   Cr14Fe10Ni3
_chemical_formula_sum   'Cr28 Fe20 Ni6'
_cell_volume   601.58341240
_cell_formula_units_Z   2
loop_
 _symmetry_equiv_pos_site_id
 _symmetry_equiv_pos_as_xyz
  1  'x, y, z'
loop_
 _atom_site_type_symbol
 _atom_site_label
 _atom_site_symmetry_multiplicity
 _atom_site_fract_x
 _atom_site_fract_y
 _atom_site_fract_z
 _atom_site_occupancy
  Fe  Fe0  1  0.00029131  0.99596422  -0.00252446  1
  Fe  Fe1  1  0.16557850  0.16047957  0.16140926  1
  Fe  Fe2  1  -0.00143554  0.99420974  0.32611076  1
  Fe  Fe3  1  0.00109514  0.32828170  0.99508227  1
  Cr  Cr4  1  0.16507640  0.49651069  0.16308324  1
  Cr  Cr5  1  -0.00344526  0.32998383  0.32687503  1
  Fe  Fe6  1  -0.00024881  0.66631408  -0.00259062  1
  Ni  Ni7  1  0.16188564  0.83102096  0.16146300  1
  Fe  Fe8  1  -0.00215478  0.66633822  0.32652588  1
  Ni  Ni9  1  0.32567908  0.99526522  -0.00228912  1
  Fe  Fe10  1  0.49184710  0.16190751  0.16119013  1
  Fe  Fe11  1  0.32808436  0.99627509  0.32571583  1
  Ni  Ni12  1  0.32815291  0.32750636  -0.00340151  1
  Cr  Cr13  1  0.49316535  0.49561971  0.16145540  1
  Ni  Ni14  1  0.32657334  0.32781507  0.32778023  1
  Ni  Ni15  1  0.32643765  0.66456989  -0.00342476  1
  Cr  Cr16  1  0.49515162  0.83103290  0.15855257  1
  Fe  Fe17  1  0.32947965  0.66402175  0.32719130  1
  Fe  Fe18  1  0.66104031  -0.00311092  -0.00195519  1
  Cr  Cr19  1  0.83143587  0.16085829  0.16040628  1
  Cr  Cr20  1  0.66315581  0.99442123  0.32852516  1
  Cr  Cr21  1  0.66391388  0.33118242  -0.00254522  1
  Cr  Cr22  1  0.83348192  0.49926054  0.15839340  1
  Cr  Cr23  1  0.66034194  0.33019922  0.32768822  1
  Fe  Fe24  1  0.66179192  0.66520513  -0.00260243  1
  Ni  Ni25  1  0.83308961  0.83245363  0.16145347  1
  Cr  Cr26  1  0.66531039  0.66361430  0.32791255  1
  Cr  Cr27  1  0.16295451  0.16324622  0.49458980  1
  Cr  Cr28  1  -0.00147713  0.99509830  0.66499864  1
  Fe  Fe29  1  0.16337551  0.16123515  0.83427487  1
  Cr  Cr30  1  0.16384234  0.49678994  0.49562283  1
  Cr  Cr31  1  0.99627530  0.32947702  0.66822071  1
  Cr  Cr32  1  0.16271268  0.49639719  0.83079247  1
  Cr  Cr33  1  0.16186143  0.82835048  0.49439694  1
  Fe  Fe34  1  0.99605123  0.66434867  0.66498234  1
  Fe  Fe35  1  0.16369094  0.82935770  0.83436103  1
  Cr  Cr36  1  0.49437363  0.16283449  0.49441198  1
  Cr  Cr37  1  0.32727376  0.99407963  0.66639037  1
  Cr  Cr38  1  0.49611915  0.16196876  0.83183135  1
  Cr  Cr39  1  0.49316230  0.49704673  0.49789772  1
  Fe  Fe40  1  0.32862494  0.32770530  0.66442450  1
  Cr  Cr41  1  0.49414456  0.49807743  0.82964208  1
  Cr  Cr42  1  0.49613712  0.82869850  0.49895933  1
  Fe  Fe43  1  0.32663594  0.66287724  0.66530309  1
  Cr  Cr44  1  0.49592627  0.82928383  0.83267336  1
  Cr  Cr45  1  0.83165847  0.16026489  0.49543801  1
  Cr  Cr46  1  0.66433380  0.99633082  0.66253801  1
  Fe  Fe47  1  0.83094293  0.16386408  0.83361548  1
  Cr  Cr48  1  0.83262276  0.49793136  0.49702256  1
  Cr  Cr49  1  0.66438059  0.33145673  0.66332791  1
  Fe  Fe50  1  0.82919273  0.49906827  0.83310544  1
  Fe  Fe51  1  0.83164219  0.82829301  0.49527448  1
  Fe  Fe52  1  0.66565644  0.66400079  0.66447756  1
  Cr  Cr53  1  0.83036866  0.83197546  0.83320482  1
" 