5752,Ni11Fe64Cr23_1,-224.375483792822, 167.770509913283,Ni11Fe64Cr23,"# generated using pymatgen
 data_Cr7Fe17Ni3
_symmetry_space_group_name_H-M   'P 1'
_cell_length_a   7.47399273
_cell_length_b   7.47399273
_cell_length_c   10.56982189
_cell_angle_alpha   90.00000000
_cell_angle_beta   90.00000000
_cell_angle_gamma   90.00000000
_symmetry_Int_Tables_number   1
_chemical_formula_structural   Cr7Fe17Ni3
_chemical_formula_sum   'Cr14 Fe34 Ni6'
_cell_volume   590.43624800
_cell_formula_units_Z   2
loop_
 _symmetry_equiv_pos_site_id
 _symmetry_equiv_pos_as_xyz
  1  'x, y, z'
loop_
 _atom_site_type_symbol
 _atom_site_label
 _atom_site_symmetry_multiplicity
 _atom_site_fract_x
 _atom_site_fract_y
 _atom_site_fract_z
 _atom_site_occupancy
  Fe  Fe0  1  0.00289813  0.00059944  0.99868800  1
  Fe  Fe1  1  0.16787053  0.16677066  0.16701351  1
  Cr  Cr2  1  0.99928352  0.99711500  0.33450374  1
  Fe  Fe3  1  0.99950700  0.33176520  0.99708548  1
  Fe  Fe4  1  0.16807823  0.49893904  0.16876068  1
  Fe  Fe5  1  0.00139743  0.33144911  0.33446480  1
  Cr  Cr6  1  0.00012267  0.66841946  0.99904530  1
  Fe  Fe7  1  0.16769920  0.83273123  0.16731898  1
  Fe  Fe8  1  0.00060406  0.66570661  0.33336729  1
  Fe  Fe9  1  0.33005162  0.99776746  0.00040411  1
  Fe  Fe10  1  0.49684972  0.16554600  0.16783755  1
  Fe  Fe11  1  0.33425806  0.00045764  0.33374048  1
  Cr  Cr12  1  0.33422835  0.33197066  0.00032343  1
  Fe  Fe13  1  0.49679164  0.50011022  0.16684698  1
  Ni  Ni14  1  0.33231747  0.33189140  0.33198486  1
  Fe  Fe15  1  0.33263730  0.66652953  0.99923131  1
  Fe  Fe16  1  0.49821200  0.83284071  0.16785431  1
  Fe  Fe17  1  0.33375702  0.66685921  0.33333728  1
  Cr  Cr18  1  0.66633374  -0.00015056  0.00103645  1
  Cr  Cr19  1  0.83397843  0.16724059  0.16423948  1
  Fe  Fe20  1  0.66381943  0.99911037  0.33484928  1
  Fe  Fe21  1  0.66604586  0.33384243  0.99730993  1
  Cr  Cr22  1  0.83468363  0.49696011  0.16836682  1
  Cr  Cr23  1  0.66193265  0.33259725  0.33461122  1
  Cr  Cr24  1  0.66735686  0.66511755  0.00035078  1
  Fe  Fe25  1  0.83280093  0.83256361  0.16841708  1
  Fe  Fe26  1  0.66472929  0.66832657  0.33360391  1
  Fe  Fe27  1  0.16462256  0.16554048  0.49773349  1
  Fe  Fe28  1  0.99854411  0.00043566  0.66466312  1
  Fe  Fe29  1  0.16488332  0.16592231  0.83381704  1
  Cr  Cr30  1  0.16689973  0.50056735  0.49787553  1
  Fe  Fe31  1  0.99721531  0.33051901  0.66646024  1
  Fe  Fe32  1  0.16803087  0.49999059  0.83231596  1
  Ni  Ni33  1  0.16949118  0.83217962  0.50022955  1
  Cr  Cr34  1  0.99951221  0.66820667  0.66649690  1
  Fe  Fe35  1  0.16635705  0.83302261  0.83209027  1
  Fe  Fe36  1  0.49980482  0.16457142  0.49840906  1
  Cr  Cr37  1  0.33191368  0.00177194  0.66398050  1
  Fe  Fe38  1  0.50236619  0.16739382  0.83219633  1
  Fe  Fe39  1  0.49881263  0.50088836  0.49955130  1
  Cr  Cr40  1  0.33418223  0.33307241  0.66506241  1
  Ni  Ni41  1  0.49935430  0.49896449  0.83292178  1
  Fe  Fe42  1  0.49915677  0.83328180  0.49950250  1
  Ni  Ni43  1  0.33191916  0.66467708  0.66716020  1
  Cr  Cr44  1  0.49602683  0.83199759  0.83111391  1
  Ni  Ni45  1  0.83163082  0.16671925  0.50220246  1
  Ni  Ni46  1  0.66914854  0.00193740  0.66351137  1
  Fe  Fe47  1  0.83188576  0.16682336  0.83086780  1
  Fe  Fe48  1  0.83342963  0.49852784  0.49800159  1
  Fe  Fe49  1  0.66670588  0.33177999  0.66601083  1
  Fe  Fe50  1  0.83169776  0.49607038  0.83309246  1
  Fe  Fe51  1  0.83315619  0.83484753  0.49891883  1
  Cr  Cr52  1  0.66713282  0.66592245  0.66446590  1
  Fe  Fe53  1  0.83278542  0.83620262  0.83166619  1
" 