8146,Ni11Fe38Cr49_7,-217.830970738607, 174.798413052278,Ni11Fe38Cr49,"# generated using pymatgen
 data_Cr14Fe10Ni3
_symmetry_space_group_name_H-M   'P 1'
_cell_length_a   7.52580101
_cell_length_b   7.52580101
_cell_length_c   10.64308986
_cell_angle_alpha   90.00000000
_cell_angle_beta   90.00000000
_cell_angle_gamma   90.00000000
_symmetry_Int_Tables_number   1
_chemical_formula_structural   Cr14Fe10Ni3
_chemical_formula_sum   'Cr28 Fe20 Ni6'
_cell_volume   602.79992711
_cell_formula_units_Z   2
loop_
 _symmetry_equiv_pos_site_id
 _symmetry_equiv_pos_as_xyz
  1  'x, y, z'
loop_
 _atom_site_type_symbol
 _atom_site_label
 _atom_site_symmetry_multiplicity
 _atom_site_fract_x
 _atom_site_fract_y
 _atom_site_fract_z
 _atom_site_occupancy
  Ni  Ni0  1  0.99458277  0.99480315  -0.00160268  1
  Cr  Cr1  1  0.15866237  0.16147144  0.16679242  1
  Fe  Fe2  1  0.99457505  0.99440249  0.32959768  1
  Cr  Cr3  1  0.99459949  0.33107817  -0.00050347  1
  Fe  Fe4  1  0.16497186  0.49600662  0.16314810  1
  Fe  Fe5  1  0.99600336  0.32870718  0.33106025  1
  Cr  Cr6  1  -0.00290270  0.66278975  -0.00093725  1
  Fe  Fe7  1  0.16324067  0.82915804  0.16064329  1
  Cr  Cr8  1  0.99600711  0.66021015  0.32758018  1
  Cr  Cr9  1  0.32940374  0.99434645  0.99382835  1
  Cr  Cr10  1  0.49452545  0.16473648  0.16496026  1
  Fe  Fe11  1  0.32592032  0.99564832  0.32973757  1
  Cr  Cr12  1  0.32956392  0.32871171  0.99493669  1
  Cr  Cr13  1  0.49672131  0.49806341  0.16160102  1
  Fe  Fe14  1  0.32615300  0.33064767  0.33020690  1
  Ni  Ni15  1  0.33069940  0.66249600  0.99377322  1
  Cr  Cr16  1  0.49565866  0.82715543  0.16408573  1
  Cr  Cr17  1  0.32621662  0.66203550  0.32944966  1
  Cr  Cr18  1  0.66069064  -0.00260147  -0.00262616  1
  Fe  Fe19  1  0.82891433  0.16195528  0.16357808  1
  Cr  Cr20  1  0.66311336  0.99567674  0.33002508  1
  Fe  Fe21  1  0.66257910  0.33204049  -0.00374854  1
  Fe  Fe22  1  0.82855803  0.49509687  0.16281877  1
  Cr  Cr23  1  0.66515895  0.32918145  0.33025132  1
  Fe  Fe24  1  0.66266278  0.66338874  0.99487731  1
  Fe  Fe25  1  0.83110019  0.83131822  0.16195647  1
  Cr  Cr26  1  0.66776581  0.66443876  0.33073127  1
  Fe  Fe27  1  0.16240804  0.16312508  0.49386979  1
  Fe  Fe28  1  0.99577252  -0.00323201  0.66243860  1
  Cr  Cr29  1  0.15604127  0.15923368  0.82898045  1
  Ni  Ni30  1  0.16029856  0.49456057  0.49299977  1
  Cr  Cr31  1  0.99548108  0.33186672  0.65868017  1
  Cr  Cr32  1  0.16372231  0.49765886  0.83004189  1
  Cr  Cr33  1  0.16233343  0.82990285  0.49894414  1
  Cr  Cr34  1  -0.00220664  0.66149231  0.66131011  1
  Ni  Ni35  1  0.16546110  0.82702477  0.83158560  1
  Cr  Cr36  1  0.49639199  0.16403479  0.49341197  1
  Cr  Cr37  1  0.33083733  0.99519409  0.66686841  1
  Fe  Fe38  1  0.49623360  0.16182394  0.82930315  1
  Cr  Cr39  1  0.49367240  0.49711597  0.49671841  1
  Cr  Cr40  1  0.32797133  0.32859295  0.66253329  1
  Fe  Fe41  1  0.49858344  0.49732501  0.82929940  1
  Cr  Cr42  1  0.49519628  0.82807566  0.49443153  1
  Fe  Fe43  1  0.32987281  0.66232153  0.66478303  1
  Ni  Ni44  1  0.49686844  0.82328196  0.82983211  1
  Ni  Ni45  1  0.83442716  0.16233730  0.49464733  1
  Cr  Cr46  1  0.66172377  -0.00242268  0.66030907  1
  Cr  Cr47  1  0.82821256  0.16635463  0.83071696  1
  Fe  Fe48  1  0.83059612  0.49400150  0.49490091  1
  Fe  Fe49  1  0.66380491  0.32960249  0.66139932  1
  Fe  Fe50  1  0.82806466  0.49863445  0.82990581  1
  Fe  Fe51  1  0.83271076  0.83193139  0.49580355  1
  Cr  Cr52  1  0.66633911  0.66371084  0.65997058  1
  Cr  Cr53  1  0.83324893  0.83270122  0.82930602  1
" 