4283,Ni11Fe38Cr49_10,-217.852586127449, 176.094203918004,Ni11Fe38Cr49,"# generated using pymatgen
 data_Cr14Fe10Ni3
_symmetry_space_group_name_H-M   'P 1'
_cell_length_a   7.52449695
_cell_length_b   7.52449695
_cell_length_c   10.64124563
_cell_angle_alpha   90.00000000
_cell_angle_beta   90.00000000
_cell_angle_gamma   90.00000000
_symmetry_Int_Tables_number   1
_chemical_formula_structural   Cr14Fe10Ni3
_chemical_formula_sum   'Cr28 Fe20 Ni6'
_cell_volume   602.48662297
_cell_formula_units_Z   2
loop_
 _symmetry_equiv_pos_site_id
 _symmetry_equiv_pos_as_xyz
  1  'x, y, z'
loop_
 _atom_site_type_symbol
 _atom_site_label
 _atom_site_symmetry_multiplicity
 _atom_site_fract_x
 _atom_site_fract_y
 _atom_site_fract_z
 _atom_site_occupancy
  Fe  Fe0  1  0.99541522  -0.00308236  -0.00221199  1
  Cr  Cr1  1  0.16319053  0.16269577  0.16146914  1
  Ni  Ni2  1  0.99401798  -0.00074929  0.33045521  1
  Cr  Cr3  1  -0.00248666  0.32928256  -0.00336422  1
  Cr  Cr4  1  0.16342424  0.49559597  0.16669972  1
  Fe  Fe5  1  -0.00272969  0.32664456  0.32967278  1
  Cr  Cr6  1  0.99543432  0.66040346  -0.00258506  1
  Cr  Cr7  1  0.16207947  0.83009731  0.16410763  1
  Fe  Fe8  1  -0.00237313  0.66542106  0.32941382  1
  Fe  Fe9  1  0.32769223  -0.00195497  -0.00378614  1
  Fe  Fe10  1  0.49479901  0.16378744  0.16488781  1
  Cr  Cr11  1  0.32796372  0.99602469  0.33151386  1
  Fe  Fe12  1  0.32959037  0.33066411  -0.00381578  1
  Cr  Cr13  1  0.49486474  0.49449117  0.16368640  1
  Ni  Ni14  1  0.32837150  0.32813904  0.32997625  1
  Fe  Fe15  1  0.32958844  0.65998239  0.99612739  1
  Cr  Cr16  1  0.49472116  0.82958492  0.16170963  1
  Ni  Ni17  1  0.32870728  0.66182417  0.33022434  1
  Cr  Cr18  1  0.66295599  0.99616570  0.00012879  1
  Fe  Fe19  1  0.82986911  0.16223660  0.16550667  1
  Fe  Fe20  1  0.66426844  -0.00191387  0.32821967  1
  Cr  Cr21  1  0.66461974  0.32974127  -0.00250196  1
  Fe  Fe22  1  0.83056039  0.49573746  0.16478916  1
  Fe  Fe23  1  0.66342388  0.32722955  0.32739311  1
  Fe  Fe24  1  0.66254807  0.66079489  -0.00336655  1
  Fe  Fe25  1  0.83157615  0.83078776  0.16448755  1
  Cr  Cr26  1  0.66371055  0.66351904  0.32714795  1
  Ni  Ni27  1  0.16109882  0.16266736  0.49583352  1
  Fe  Fe28  1  -0.00133266  0.99612370  0.66001703  1
  Fe  Fe29  1  0.16413563  0.16423342  0.82978044  1
  Cr  Cr30  1  0.16274965  0.49652976  0.49220881  1
  Cr  Cr31  1  -0.00117237  0.32897319  0.66272800  1
  Fe  Fe32  1  0.16569710  0.49542952  0.82982999  1
  Ni  Ni33  1  0.15903506  0.83131788  0.49351157  1
  Fe  Fe34  1  -0.00149971  0.66380238  0.66217102  1
  Cr  Cr35  1  0.16110682  0.83202023  0.83075657  1
  Cr  Cr36  1  0.49738607  0.16608511  0.49402940  1
  Cr  Cr37  1  0.32748899  -0.00307293  0.66005566  1
  Cr  Cr38  1  0.49481844  0.16480425  0.82994345  1
  Cr  Cr39  1  0.49652668  0.49404463  0.49563424  1
  Fe  Fe40  1  0.32890894  0.32969252  0.66218635  1
  Ni  Ni41  1  0.49282152  0.49390578  0.83075899  1
  Cr  Cr42  1  0.49548074  0.82852839  0.49394566  1
  Cr  Cr43  1  0.32799363  0.66299003  0.66123839  1
  Cr  Cr44  1  0.49589186  0.82891458  0.83262273  1
  Fe  Fe45  1  0.83270104  0.16293691  0.49457161  1
  Cr  Cr46  1  0.66271377  -0.00289143  0.65947930  1
  Cr  Cr47  1  0.83136312  0.16074404  0.82678040  1
  Cr  Cr48  1  0.82948956  0.49439666  0.49545115  1
  Fe  Fe49  1  0.66091903  0.32978813  0.66341795  1
  Cr  Cr50  1  0.82836844  0.49619859  0.82809318  1
  Cr  Cr51  1  0.83229235  0.82945267  0.49722725  1
  Cr  Cr52  1  0.66153169  0.66208190  0.66602904  1
  Cr  Cr53  1  0.83153844  0.83100802  0.82956884  1
" 