781,Ni11Fe64Cr23_12,-224.461923088539, 177.267210276365,Ni11Fe64Cr23,"# generated using pymatgen
 data_Cr7Fe17Ni3
_symmetry_space_group_name_H-M   'P 1'
_cell_length_a   7.46680293
_cell_length_b   7.46680293
_cell_length_c   10.55965398
_cell_angle_alpha   90.00000000
_cell_angle_beta   90.00000000
_cell_angle_gamma   90.00000000
_symmetry_Int_Tables_number   1
_chemical_formula_structural   Cr7Fe17Ni3
_chemical_formula_sum   'Cr14 Fe34 Ni6'
_cell_volume   588.73393022
_cell_formula_units_Z   2
loop_
 _symmetry_equiv_pos_site_id
 _symmetry_equiv_pos_as_xyz
  1  'x, y, z'
loop_
 _atom_site_type_symbol
 _atom_site_label
 _atom_site_symmetry_multiplicity
 _atom_site_fract_x
 _atom_site_fract_y
 _atom_site_fract_z
 _atom_site_occupancy
  Fe  Fe0  1  0.00030632  0.00204249  0.99713808  1
  Cr  Cr1  1  0.16682769  0.16823832  0.16650587  1
  Fe  Fe2  1  0.99810850  0.00599097  0.33339648  1
  Fe  Fe3  1  0.99897269  0.33153258  0.99960426  1
  Fe  Fe4  1  0.16808780  0.49947199  0.16845893  1
  Ni  Ni5  1  0.00015817  0.33730938  0.33340497  1
  Cr  Cr6  1  0.00212141  0.66374959  0.99987581  1
  Cr  Cr7  1  0.16670290  0.83607284  0.16934581  1
  Fe  Fe8  1  0.00021112  0.65955026  0.33394748  1
  Fe  Fe9  1  0.33160607  0.00102802  0.99652091  1
  Fe  Fe10  1  0.49888518  0.16804290  0.16591764  1
  Fe  Fe11  1  0.33690221  0.00445071  0.33441353  1
  Fe  Fe12  1  0.33321085  0.33268316  0.99991520  1
  Fe  Fe13  1  0.49804657  0.49816793  0.16557505  1
  Ni  Ni14  1  0.33334422  0.33485393  0.33351131  1
  Fe  Fe15  1  0.33444706  0.66612240  0.99924599  1
  Cr  Cr16  1  0.50006307  0.83052486  0.16779679  1
  Fe  Fe17  1  0.33395066  0.66106410  0.33413371  1
  Cr  Cr18  1  0.66440669  0.00404009  0.99882623  1
  Fe  Fe19  1  0.83426473  0.16780059  0.16671682  1
  Fe  Fe20  1  0.66486851  0.00278479  0.33417982  1
  Fe  Fe21  1  0.66774828  0.33481924  0.00006129  1
  Fe  Fe22  1  0.83407122  0.49783282  0.16764389  1
  Cr  Cr23  1  0.66646032  0.33074879  0.33181644  1
  Fe  Fe24  1  0.66705904  0.66470950  0.99965598  1
  Cr  Cr25  1  0.83324291  0.83208488  0.17072329  1
  Fe  Fe26  1  0.66540286  0.66163128  0.33470754  1
  Cr  Cr27  1  0.16606964  0.16939547  0.50036976  1
  Fe  Fe28  1  0.99887632  0.00275516  0.66952339  1
  Ni  Ni29  1  0.16525199  0.16701384  0.83407795  1
  Fe  Fe30  1  0.16584593  0.49921778  0.49830579  1
  Fe  Fe31  1  0.99804340  0.33161489  0.66672961  1
  Fe  Fe32  1  0.16852378  0.49498664  0.83358387  1
  Cr  Cr33  1  0.16678427  0.83531115  0.49610651  1
  Cr  Cr34  1  0.00294651  0.66398214  0.66781033  1
  Fe  Fe35  1  0.16864190  0.83503742  0.83446376  1
  Fe  Fe36  1  0.50107124  0.16948639  0.50002287  1
  Cr  Cr37  1  0.33547125  0.99977303  0.66907021  1
  Ni  Ni38  1  0.49733774  0.17017177  0.83461450  1
  Fe  Fe39  1  0.49961783  0.49957700  0.50124980  1
  Fe  Fe40  1  0.33434230  0.33383425  0.66706775  1
  Cr  Cr41  1  0.50314783  0.49975706  0.83267130  1
  Fe  Fe42  1  0.50020874  0.83081187  0.49759587  1
  Fe  Fe43  1  0.33606546  0.66476749  0.66614928  1
  Fe  Fe44  1  0.49871729  0.83398323  0.83486851  1
  Fe  Fe45  1  0.83409349  0.17018596  0.49979856  1
  Cr  Cr46  1  0.66512845  0.00353991  0.66603537  1
  Fe  Fe47  1  0.83349318  0.17016352  0.83278932  1
  Ni  Ni48  1  0.83016274  0.49862843  0.50074373  1
  Ni  Ni49  1  0.66734738  0.33248189  0.66614866  1
  Fe  Fe50  1  0.83339486  0.49529750  0.83193980  1
  Cr  Cr51  1  0.83221367  0.83231597  0.49696081  1
  Fe  Fe52  1  0.66588935  0.66477959  0.66575481  1
  Fe  Fe53  1  0.83272117  0.83466701  0.83339350  1
" 