514,Ni11Cr89_0,-236.370720280907, 167.95283347752,Ni11Cr89,"# generated using pymatgen
 data_Cr5Ni49
_symmetry_space_group_name_H-M   'P 1'
_cell_length_a   7.46862149
_cell_length_b   7.46862149
_cell_length_c   10.56222581
_cell_angle_alpha   90.00000000
_cell_angle_beta   90.00000000
_cell_angle_gamma   90.00000000
_symmetry_Int_Tables_number   1
_chemical_formula_structural   Cr5Ni49
_chemical_formula_sum   'Cr5 Ni49'
_cell_volume   589.16419838
_cell_formula_units_Z   1
loop_
 _symmetry_equiv_pos_site_id
 _symmetry_equiv_pos_as_xyz
  1  'x, y, z'
loop_
 _atom_site_type_symbol
 _atom_site_label
 _atom_site_symmetry_multiplicity
 _atom_site_fract_x
 _atom_site_fract_y
 _atom_site_fract_z
 _atom_site_occupancy
  Ni  Ni0  1  0.00207974  0.00162614  0.99835677  1
  Ni  Ni1  1  0.16942559  0.16570610  0.16544551  1
  Ni  Ni2  1  0.00207974  0.99816313  0.33476584  1
  Ni  Ni3  1  0.00083611  0.33248297  0.99870781  1
  Ni  Ni4  1  0.16892783  0.49989463  0.16656130  1
  Cr  Cr5  1  0.00093698  0.33433140  0.33405288  1
  Cr  Cr6  1  0.00093698  0.66545787  0.99906972  1
  Ni  Ni7  1  0.16942559  0.83408317  0.16767709  1
  Ni  Ni8  1  0.00083611  0.66730630  0.33441479  1
  Ni  Ni9  1  0.33354019  -0.00004929  0.00003512  1
  Ni  Ni10  1  0.49795941  0.16670270  0.16680049  1
  Ni  Ni11  1  0.33354019  0.99983855  0.33308748  1
  Ni  Ni12  1  0.33352271  0.33310118  0.00023358  1
  Ni  Ni13  1  0.49948914  0.49989463  0.16656130  1
  Ni  Ni14  1  0.33522582  0.33314028  0.33310942  1
  Ni  Ni15  1  0.33522582  0.66664899  0.00001319  1
  Ni  Ni16  1  0.49795941  0.83308657  0.16632211  1
  Ni  Ni17  1  0.33352271  0.66668809  0.33288902  1
  Ni  Ni18  1  0.66410832  -0.00000638  0.99775278  1
  Cr  Cr19  1  0.83215566  0.16672697  0.16528089  1
  Ni  Ni20  1  0.66410832  0.99979564  0.33536982  1
  Ni  Ni21  1  0.66531609  0.33421172  0.99937510  1
  Ni  Ni22  1  0.83123992  0.49989463  0.16656130  1
  Ni  Ni23  1  0.66368859  0.33427713  0.33396029  1
  Ni  Ni24  1  0.66368859  0.66551213  0.99916231  1
  Cr  Cr25  1  0.83215566  0.83306230  0.16784171  1
  Ni  Ni26  1  0.66531609  0.66557755  0.33374750  1
  Ni  Ni27  1  0.16865568  0.16668691  0.49971832  1
  Cr  Cr28  1  0.99988260  -0.00010537  0.66656130  1
  Ni  Ni29  1  0.16761946  0.16776174  0.83454891  1
  Ni  Ni30  1  0.16779146  0.50093470  0.50100907  1
  Ni  Ni31  1  0.99977242  0.33495983  0.66702401  1
  Ni  Ni32  1  0.16779146  0.49885457  0.83211353  1
  Ni  Ni33  1  0.16761946  0.83202753  0.49857369  1
  Ni  Ni34  1  0.99977242  0.66482944  0.66609859  1
  Ni  Ni35  1  0.16865568  0.83310235  0.83340428  1
  Ni  Ni36  1  0.49977298  0.16671264  0.49971091  1
  Ni  Ni37  1  0.33516567  -0.00010537  0.66656130  1
  Ni  Ni38  1  0.49980556  0.16675082  0.83320400  1
  Ni  Ni39  1  0.49960515  0.49993149  0.49968844  1
  Ni  Ni40  1  0.33351445  0.33313075  0.66632702  1
  Ni  Ni41  1  0.49960515  0.49985777  0.83343416  1
  Ni  Ni42  1  0.49980556  0.83303845  0.49991860  1
  Ni  Ni43  1  0.33351445  0.66665852  0.66679558  1
  Ni  Ni44  1  0.49977298  0.83307663  0.83341169  1
  Ni  Ni45  1  0.83126802  0.16651091  0.49990591  1
  Ni  Ni46  1  0.66460240  -0.00010537  0.66656130  1
  Ni  Ni47  1  0.83225770  0.16759590  0.83433611  1
  Ni  Ni48  1  0.83224852  0.50097486  0.50059592  1
  Ni  Ni49  1  0.66639473  0.33328513  0.66633808  1
  Ni  Ni50  1  0.83224852  0.49881441  0.83252668  1
  Ni  Ni51  1  0.83225770  0.83219337  0.49878649  1
  Ni  Ni52  1  0.66639473  0.66650414  0.66678452  1
  Ni  Ni53  1  0.83126802  0.83327835  0.83321669  1
" 