6120,Ni11Fe46Cr42_10,-220.866408375427, 181.742129149833,Ni11Fe46Cr42,"# generated using pymatgen
 data_Cr23Fe25Ni6
_symmetry_space_group_name_H-M   'P 1'
_cell_length_a   7.49914486
_cell_length_b   7.49914486
_cell_length_c   10.60539237
_cell_angle_alpha   90.00000000
_cell_angle_beta   90.00000000
_cell_angle_gamma   90.00000000
_symmetry_Int_Tables_number   1
_chemical_formula_structural   Cr23Fe25Ni6
_chemical_formula_sum   'Cr23 Fe25 Ni6'
_cell_volume   596.41729209
_cell_formula_units_Z   1
loop_
 _symmetry_equiv_pos_site_id
 _symmetry_equiv_pos_as_xyz
  1  'x, y, z'
loop_
 _atom_site_type_symbol
 _atom_site_label
 _atom_site_symmetry_multiplicity
 _atom_site_fract_x
 _atom_site_fract_y
 _atom_site_fract_z
 _atom_site_occupancy
  Fe  Fe0  1  0.99573007  0.99674666  -0.00196200  1
  Cr  Cr1  1  0.16298119  0.16112675  0.17024358  1
  Fe  Fe2  1  0.99656132  -0.00191336  0.33177664  1
  Cr  Cr3  1  0.99635711  0.33063145  0.99743013  1
  Cr  Cr4  1  0.16401532  0.49852327  0.16546383  1
  Ni  Ni5  1  0.99719379  0.33053081  0.33364879  1
  Cr  Cr6  1  0.00199235  0.66618485  0.99720117  1
  Ni  Ni7  1  0.16330996  0.83416727  0.16255301  1
  Fe  Fe8  1  0.99444189  0.66556018  0.33039328  1
  Fe  Fe9  1  0.33144245  0.99597853  -0.00094555  1
  Fe  Fe10  1  0.49790376  0.16107609  0.16337271  1
  Fe  Fe11  1  0.32986128  -0.00121442  0.33028187  1
  Cr  Cr12  1  0.33133644  0.33073312  0.99752628  1
  Cr  Cr13  1  0.50088346  0.49735798  0.16380654  1
  Fe  Fe14  1  0.33018671  0.32893804  0.33097229  1
  Fe  Fe15  1  0.33062822  0.66828104  -0.00146885  1
  Fe  Fe16  1  0.49600743  0.83420369  0.16306966  1
  Cr  Cr17  1  0.33061364  0.66800338  0.32914879  1
  Ni  Ni18  1  0.66445579  0.00072183  -0.00168080  1
  Fe  Fe19  1  0.83163297  0.16316121  0.16457324  1
  Cr  Cr20  1  0.66379424  0.99619362  0.33171472  1
  Fe  Fe21  1  0.66546944  0.32725552  -0.00131251  1
  Fe  Fe22  1  0.83352143  0.49828829  0.16596216  1
  Cr  Cr23  1  0.66795573  0.32891507  0.32880482  1
  Cr  Cr24  1  0.66589221  0.66795401  -0.00015511  1
  Fe  Fe25  1  0.83283655  0.83260675  0.16460094  1
  Fe  Fe26  1  0.66839981  0.66521004  0.33157508  1
  Fe  Fe27  1  0.16097012  0.16422073  0.49738956  1
  Fe  Fe28  1  0.99574268  -0.00198336  0.66391783  1
  Cr  Cr29  1  0.16316546  0.16202338  0.82698583  1
  Cr  Cr30  1  0.16422785  0.49391270  0.49749869  1
  Fe  Fe31  1  0.99770372  0.32884105  0.66282485  1
  Fe  Fe32  1  0.16426997  0.49840491  0.83087720  1
  Cr  Cr33  1  0.16240945  0.83589841  0.49758798  1
  Cr  Cr34  1  -0.00190833  0.66487555  0.66623672  1
  Fe  Fe35  1  0.16305067  0.83224920  0.83270213  1
  Cr  Cr36  1  0.49395090  0.16486494  0.49852155  1
  Fe  Fe37  1  0.33025904  -0.00128847  0.66439749  1
  Fe  Fe38  1  0.49967036  0.16238553  0.83250545  1
  Cr  Cr39  1  0.49930892  0.49859294  0.49761816  1
  Fe  Fe40  1  0.32974459  0.32959658  0.66553058  1
  Cr  Cr41  1  0.49762130  0.49641183  0.83193175  1
  Fe  Fe42  1  0.49877936  0.83258268  0.49713177  1
  Cr  Cr43  1  0.32889658  0.66548569  0.66808659  1
  Cr  Cr44  1  0.49865740  0.83222128  0.83156910  1
  Ni  Ni45  1  0.83518707  0.16278843  0.49865267  1
  Cr  Cr46  1  0.66591935  -0.00197354  0.66380834  1
  Fe  Fe47  1  0.82993109  0.16092433  0.83207931  1
  Fe  Fe48  1  0.83322177  0.49703524  0.49616840  1
  Cr  Cr49  1  0.66662530  0.32712809  0.66623006  1
  Cr  Cr50  1  0.82972892  0.49788197  0.83067326  1
  Ni  Ni51  1  0.83214180  0.83268734  0.49582183  1
  Cr  Cr52  1  0.66645876  0.66799203  0.65877662  1
  Ni  Ni53  1  0.83329808  0.83545560  0.83231829  1
" 