4253,Ni11Cr89_19,-236.317409715919, 167.907229778673,Ni11Cr89,"# generated using pymatgen
 data_Cr5Ni49
_symmetry_space_group_name_H-M   'P 1'
_cell_length_a   7.46798337
_cell_length_b   7.46798337
_cell_length_c   10.56132337
_cell_angle_alpha   90.00000000
_cell_angle_beta   90.00000000
_cell_angle_gamma   90.00000000
_symmetry_Int_Tables_number   1
_chemical_formula_structural   Cr5Ni49
_chemical_formula_sum   'Cr5 Ni49'
_cell_volume   589.01319653
_cell_formula_units_Z   1
loop_
 _symmetry_equiv_pos_site_id
 _symmetry_equiv_pos_as_xyz
  1  'x, y, z'
loop_
 _atom_site_type_symbol
 _atom_site_label
 _atom_site_symmetry_multiplicity
 _atom_site_fract_x
 _atom_site_fract_y
 _atom_site_fract_z
 _atom_site_occupancy
  Ni  Ni0  1  0.99993043  -0.00002076  0.00009639  1
  Ni  Ni1  1  0.16569136  0.16527306  0.16576981  1
  Ni  Ni2  1  0.99992085  0.99854036  0.33335964  1
  Ni  Ni3  1  0.99978664  0.33348303  0.99991177  1
  Ni  Ni4  1  0.16604755  0.50115925  0.16550191  1
  Cr  Cr5  1  0.99939871  0.33394148  0.33249606  1
  Ni  Ni6  1  0.99978595  0.66634397  0.00010831  1
  Ni  Ni7  1  0.16600472  0.83339046  0.16679197  1
  Ni  Ni8  1  0.99977875  0.66784783  0.33315005  1
  Ni  Ni9  1  0.33255545  0.99876863  0.99925569  1
  Cr  Cr10  1  0.49994301  0.16540991  0.16654735  1
  Ni  Ni11  1  0.33268152  0.99874934  0.33374792  1
  Ni  Ni12  1  0.33010744  0.33220137  0.99896783  1
  Cr  Cr13  1  0.49982301  0.50111900  0.16679429  1
  Ni  Ni14  1  0.33268085  0.33326256  0.33528527  1
  Ni  Ni15  1  0.33145637  0.66885348  0.99987095  1
  Ni  Ni16  1  0.49996059  0.83325420  0.16635383  1
  Ni  Ni17  1  0.33253398  0.66779018  0.33413641  1
  Ni  Ni18  1  0.66731453  0.99876866  0.99885358  1
  Ni  Ni19  1  0.83412601  0.16507679  0.16573369  1
  Ni  Ni20  1  0.66720796  0.99875171  0.33415444  1
  Ni  Ni21  1  0.66994723  0.33237167  0.99921758  1
  Ni  Ni22  1  0.83393833  0.50119067  0.16547352  1
  Ni  Ni23  1  0.66721452  0.33343402  0.33504222  1
  Ni  Ni24  1  0.66859005  0.66868176  0.00011372  1
  Ni  Ni25  1  0.83384701  0.83355595  0.16679336  1
  Ni  Ni26  1  0.66751297  0.66761519  0.33389894  1
  Ni  Ni27  1  0.16627411  0.16627701  0.49975658  1
  Ni  Ni28  1  0.99849519  0.00006035  0.66636683  1
  Ni  Ni29  1  0.16528057  0.16722567  0.83428728  1
  Ni  Ni30  1  0.16746970  0.50109847  0.50099322  1
  Ni  Ni31  1  0.99974828  0.33350613  0.66698699  1
  Ni  Ni32  1  0.16499266  0.50013201  0.83326381  1
  Ni  Ni33  1  0.16510045  0.83242094  0.49899349  1
  Ni  Ni34  1  0.99975206  0.66624779  0.66657561  1
  Ni  Ni35  1  0.16492261  0.83243145  0.83409410  1
  Ni  Ni36  1  0.50092871  0.16760482  0.49912712  1
  Cr  Cr37  1  0.33401842  0.99937870  0.66719361  1
  Ni  Ni38  1  0.50096582  0.16623968  0.83415801  1
  Ni  Ni39  1  0.49990010  0.49990669  0.49974642  1
  Ni  Ni40  1  0.33224847  0.33375120  0.66555807  1
  Cr  Cr41  1  0.49985925  0.49983999  0.83333456  1
  Ni  Ni42  1  0.50092775  0.83227435  0.49890193  1
  Ni  Ni43  1  0.33257257  0.66616652  0.66578466  1
  Ni  Ni44  1  0.50100029  0.83375816  0.83461311  1
  Ni  Ni45  1  0.83258530  0.16526351  0.50074978  1
  Ni  Ni46  1  0.66786264  0.99976244  0.66678516  1
  Ni  Ni47  1  0.83358253  0.16619030  0.83326554  1
  Ni  Ni48  1  0.83242736  0.50109764  0.50080481  1
  Ni  Ni49  1  0.66781217  0.33248353  0.66555967  1
  Ni  Ni50  1  0.83494058  0.50012366  0.83347558  1
  Ni  Ni51  1  0.83378163  0.83346677  0.49998033  1
  Ni  Ni52  1  0.66747742  0.66759064  0.66579061  1
  Ni  Ni53  1  0.83390437  0.83350464  0.83304342  1
" 