5990,Ni11Fe46Cr42_3,-220.688518370221, 174.012698356572,Ni11Fe46Cr42,"# generated using pymatgen
 data_Cr23Fe25Ni6
_symmetry_space_group_name_H-M   'P 1'
_cell_length_a   7.50596208
_cell_length_b   7.50596208
_cell_length_c   10.61503337
_cell_angle_alpha   90.00000000
_cell_angle_beta   90.00000000
_cell_angle_gamma   90.00000000
_symmetry_Int_Tables_number   1
_chemical_formula_structural   Cr23Fe25Ni6
_chemical_formula_sum   'Cr23 Fe25 Ni6'
_cell_volume   598.04531913
_cell_formula_units_Z   1
loop_
 _symmetry_equiv_pos_site_id
 _symmetry_equiv_pos_as_xyz
  1  'x, y, z'
loop_
 _atom_site_type_symbol
 _atom_site_label
 _atom_site_symmetry_multiplicity
 _atom_site_fract_x
 _atom_site_fract_y
 _atom_site_fract_z
 _atom_site_occupancy
  Fe  Fe0  1  -0.00106860  -0.00251950  0.99697707  1
  Cr  Cr1  1  0.16407446  0.16266654  0.16531638  1
  Fe  Fe2  1  0.99583150  0.99404821  0.33245965  1
  Cr  Cr3  1  -0.00154658  0.33251462  -0.00157399  1
  Fe  Fe4  1  0.16152685  0.50052454  0.16444949  1
  Cr  Cr5  1  0.99526057  0.33190589  0.32885032  1
  Fe  Fe6  1  -0.00244994  0.66268269  0.99726726  1
  Cr  Cr7  1  0.16495735  0.82969393  0.16682165  1
  Fe  Fe8  1  0.99418844  0.66478074  0.33140645  1
  Cr  Cr9  1  0.33102962  -0.00087949  0.99614476  1
  Fe  Fe10  1  0.50018006  0.16177815  0.16500501  1
  Fe  Fe11  1  0.33319242  0.99542926  0.33295267  1
  Cr  Cr12  1  0.33143475  0.33083897  -0.00208503  1
  Fe  Fe13  1  0.50058122  0.49978531  0.16644262  1
  Cr  Cr14  1  0.33315042  0.32915389  0.32562642  1
  Cr  Cr15  1  0.32892110  0.66226253  0.99653699  1
  Cr  Cr16  1  0.49801457  0.82974198  0.16443094  1
  Fe  Fe17  1  0.33326113  0.66380279  0.33243831  1
  Ni  Ni18  1  0.66344367  -0.00236066  -0.00212275  1
  Cr  Cr19  1  0.82994316  0.16286148  0.16462701  1
  Fe  Fe20  1  0.66289413  0.99714657  0.33150364  1
  Cr  Cr21  1  0.66266407  0.33022437  0.00079699  1
  Ni  Ni22  1  0.82840285  0.49968463  0.16649946  1
  Fe  Fe23  1  0.66339274  0.33419372  0.33066369  1
  Fe  Fe24  1  0.66342078  0.66083905  -0.00074915  1
  Cr  Cr25  1  0.82932211  0.83000046  0.16000693  1
  Ni  Ni26  1  0.66498408  0.66580994  0.33229470  1
  Cr  Cr27  1  0.16465825  0.16560769  0.49991676  1
  Fe  Fe28  1  -0.00103654  0.99691550  0.66452304  1
  Fe  Fe29  1  0.16440943  0.16422825  0.82787299  1
  Cr  Cr30  1  0.16594426  0.49595021  0.49676639  1
  Ni  Ni31  1  -0.00040348  0.32995514  0.66479141  1
  Ni  Ni32  1  0.16650727  0.49482886  0.82942390  1
  Fe  Fe33  1  0.16428926  0.83234069  0.49482567  1
  Cr  Cr34  1  0.99657274  0.66577290  0.66207914  1
  Fe  Fe35  1  0.16137921  0.83020796  0.83079290  1
  Fe  Fe36  1  0.49531322  0.16384817  0.49756187  1
  Fe  Fe37  1  0.33117056  -0.00115505  0.66502345  1
  Fe  Fe38  1  0.49774702  0.16474821  0.82975288  1
  Fe  Fe39  1  0.49744499  0.49601322  0.49560806  1
  Ni  Ni40  1  0.33068833  0.32830452  0.66781384  1
  Fe  Fe41  1  0.49692719  0.49536741  0.82964799  1
  Fe  Fe42  1  0.49752639  0.83229082  0.49495423  1
  Cr  Cr43  1  0.33093716  0.66547537  0.66341420  1
  Cr  Cr44  1  0.49838372  0.83045557  0.83219548  1
  Cr  Cr45  1  0.83069585  0.16455946  0.49790270  1
  Fe  Fe46  1  0.66218305  -0.00192816  0.66343824  1
  Cr  Cr47  1  0.83149530  0.16321384  0.82992982  1
  Fe  Fe48  1  0.83037069  0.49820068  0.49525179  1
  Cr  Cr49  1  0.66287248  0.33167583  0.66110510  1
  Cr  Cr50  1  0.83188939  0.49693163  0.82995743  1
  Fe  Fe51  1  0.83053806  0.83111634  0.49465817  1
  Cr  Cr52  1  0.66448525  0.66644454  0.66193003  1
  Cr  Cr53  1  0.82802321  0.83203895  0.83589422  1
" 