8024,Ni11Fe46Cr42_2,-220.824102633158, 172.590900753555,Ni11Fe46Cr42,"# generated using pymatgen
 data_Cr23Fe25Ni6
_symmetry_space_group_name_H-M   'P 1'
_cell_length_a   7.51409826
_cell_length_b   7.51409826
_cell_length_c   10.62653967
_cell_angle_alpha   90.00000000
_cell_angle_beta   90.00000000
_cell_angle_gamma   90.00000000
_symmetry_Int_Tables_number   1
_chemical_formula_structural   Cr23Fe25Ni6
_chemical_formula_sum   'Cr23 Fe25 Ni6'
_cell_volume   599.99220485
_cell_formula_units_Z   1
loop_
 _symmetry_equiv_pos_site_id
 _symmetry_equiv_pos_as_xyz
  1  'x, y, z'
loop_
 _atom_site_type_symbol
 _atom_site_label
 _atom_site_symmetry_multiplicity
 _atom_site_fract_x
 _atom_site_fract_y
 _atom_site_fract_z
 _atom_site_occupancy
  Ni  Ni0  1  -0.00045188  0.99433853  -0.00291026  1
  Fe  Fe1  1  0.16615681  0.16180778  0.16374093  1
  Fe  Fe2  1  -0.00079388  0.00022247  0.32760070  1
  Cr  Cr3  1  -0.00005694  0.32991045  0.99520831  1
  Fe  Fe4  1  0.16594709  0.49564557  0.16489849  1
  Cr  Cr5  1  -0.00007304  0.33258400  0.33073870  1
  Cr  Cr6  1  0.00051588  0.66197471  -0.00139265  1
  Fe  Fe7  1  0.16401115  0.83358084  0.16386365  1
  Cr  Cr8  1  0.99509311  0.66461751  0.32814014  1
  Fe  Fe9  1  0.32693235  0.99653185  -0.00233769  1
  Fe  Fe10  1  0.49456481  0.16413821  0.16624634  1
  Fe  Fe11  1  0.33105657  -0.00011519  0.33040644  1
  Cr  Cr12  1  0.32809608  0.33153184  -0.00094073  1
  Fe  Fe13  1  0.49687732  0.49475002  0.16676597  1
  Ni  Ni14  1  0.33220244  0.32858045  0.33159961  1
  Fe  Fe15  1  0.32970566  0.66695381  -0.00100295  1
  Fe  Fe16  1  0.49372986  0.83045564  0.16537207  1
  Cr  Cr17  1  0.32856730  0.66229114  0.33049262  1
  Cr  Cr18  1  0.66086832  0.99646569  -0.00288641  1
  Cr  Cr19  1  0.83247195  0.16370260  0.16134665  1
  Cr  Cr20  1  0.66294529  0.99457269  0.32837382  1
  Cr  Cr21  1  0.66203962  0.32863858  -0.00147667  1
  Fe  Fe22  1  0.82819436  0.49636966  0.16537348  1
  Ni  Ni23  1  0.66156683  0.32726179  0.33186891  1
  Cr  Cr24  1  0.66290783  0.66695371  -0.00014155  1
  Fe  Fe25  1  0.83191865  0.83085744  0.16349668  1
  Fe  Fe26  1  0.66091651  0.65910562  0.32967334  1
  Fe  Fe27  1  0.16592485  0.16445212  0.49667740  1
  Fe  Fe28  1  0.00074297  -0.00160375  0.66466345  1
  Ni  Ni29  1  0.16385244  0.15958464  0.82952260  1
  Fe  Fe30  1  0.16394526  0.49666684  0.49625596  1
  Ni  Ni31  1  -0.00017831  0.32957776  0.66322191  1
  Fe  Fe32  1  0.16283226  0.49361254  0.82931452  1
  Cr  Cr33  1  0.16446195  0.83535694  0.49510484  1
  Cr  Cr34  1  -0.00109855  0.66096126  0.66247707  1
  Fe  Fe35  1  0.16551031  0.83224248  0.83176533  1
  Fe  Fe36  1  0.49623778  0.16049842  0.49499921  1
  Fe  Fe37  1  0.32774114  -0.00222361  0.66284285  1
  Cr  Cr38  1  0.49366348  0.16641995  0.83047284  1
  Fe  Fe39  1  0.49802307  0.49601340  0.49499958  1
  Cr  Cr40  1  0.32839274  0.33014422  0.65989946  1
  Cr  Cr41  1  0.49519716  0.50098185  0.83129346  1
  Ni  Ni42  1  0.49517491  0.82720843  0.49659871  1
  Cr  Cr43  1  0.33011359  0.66544139  0.66504385  1
  Fe  Fe44  1  0.49396714  0.83237397  0.83037336  1
  Cr  Cr45  1  0.83373990  0.16468098  0.49998617  1
  Cr  Cr46  1  0.65924808  0.99531145  0.66457742  1
  Cr  Cr47  1  0.83329462  0.16385929  0.82873719  1
  Fe  Fe48  1  0.82810139  0.49621815  0.49706405  1
  Fe  Fe49  1  0.66348999  0.33163396  0.66072863  1
  Cr  Cr50  1  0.82724246  0.49526240  0.82742139  1
  Cr  Cr51  1  0.83019183  0.83015374  0.49469244  1
  Fe  Fe52  1  0.66253606  0.66235911  0.66082654  1
  Cr  Cr53  1  0.83267684  0.83002012  0.82925727  1
" 