8958,Ni11Fe64Cr23_9,-224.549175999756, 167.460733191433,Ni11Fe64Cr23,"# generated using pymatgen
 data_Cr7Fe17Ni3
_symmetry_space_group_name_H-M   'P 1'
_cell_length_a   7.46725544
_cell_length_b   7.46725544
_cell_length_c   10.56029391
_cell_angle_alpha   90.00000000
_cell_angle_beta   90.00000000
_cell_angle_gamma   90.00000000
_symmetry_Int_Tables_number   1
_chemical_formula_structural   Cr7Fe17Ni3
_chemical_formula_sum   'Cr14 Fe34 Ni6'
_cell_volume   588.84097209
_cell_formula_units_Z   2
loop_
 _symmetry_equiv_pos_site_id
 _symmetry_equiv_pos_as_xyz
  1  'x, y, z'
loop_
 _atom_site_type_symbol
 _atom_site_label
 _atom_site_symmetry_multiplicity
 _atom_site_fract_x
 _atom_site_fract_y
 _atom_site_fract_z
 _atom_site_occupancy
  Fe  Fe0  1  0.00088400  0.00384373  0.00087228  1
  Fe  Fe1  1  0.16489776  0.16596921  0.16417444  1
  Cr  Cr2  1  0.99928864  0.00029680  0.33277384  1
  Ni  Ni3  1  0.99794702  0.33078806  0.00103450  1
  Fe  Fe4  1  0.16412320  0.49936407  0.16677941  1
  Fe  Fe5  1  0.99939768  0.33418406  0.33137273  1
  Cr  Cr6  1  0.99907809  0.66594096  0.00158908  1
  Ni  Ni7  1  0.16715140  0.83229328  0.16664071  1
  Ni  Ni8  1  0.00141134  0.66504728  0.33165222  1
  Fe  Fe9  1  0.33122121  0.00213903  0.00010497  1
  Fe  Fe10  1  0.50183599  0.16711450  0.16536074  1
  Cr  Cr11  1  0.33295396  0.99949283  0.33391553  1
  Fe  Fe12  1  0.33272217  0.33165712  0.00075955  1
  Fe  Fe13  1  0.50230885  0.49876659  0.16636359  1
  Cr  Cr14  1  0.33332518  0.33533051  0.33083622  1
  Cr  Cr15  1  0.33356245  0.66669619  0.00106261  1
  Cr  Cr16  1  0.50051361  0.83412225  0.16800232  1
  Fe  Fe17  1  0.33083533  0.66637332  0.33331501  1
  Fe  Fe18  1  0.66758470  0.00369915  0.99928530  1
  Ni  Ni19  1  0.83213492  0.16969307  0.16764164  1
  Fe  Fe20  1  0.66754482  0.00195610  0.33307263  1
  Fe  Fe21  1  0.66843549  0.33300976  0.99921751  1
  Fe  Fe22  1  0.83364411  0.49812538  0.16781773  1
  Fe  Fe23  1  0.66935213  0.33336797  0.33237397  1
  Fe  Fe24  1  0.66628875  0.66344840  0.99944929  1
  Cr  Cr25  1  0.83330346  0.83411866  0.16661526  1
  Fe  Fe26  1  0.66583358  0.66472104  0.33339422  1
  Fe  Fe27  1  0.16361447  0.16726526  0.50135550  1
  Fe  Fe28  1  0.00174469  0.00265631  0.66678017  1
  Fe  Fe29  1  0.16441664  0.16469648  0.83453777  1
  Fe  Fe30  1  0.16656500  0.50167393  0.49991225  1
  Fe  Fe31  1  0.99743064  0.33070613  0.66797248  1
  Cr  Cr32  1  0.16595464  0.49844700  0.83233000  1
  Fe  Fe33  1  0.16734686  0.83107217  0.50035403  1
  Fe  Fe34  1  0.00069971  0.66650876  0.66619003  1
  Fe  Fe35  1  0.16728711  0.83656607  0.83280554  1
  Cr  Cr36  1  0.50120861  0.16709358  0.49859423  1
  Fe  Fe37  1  0.33202422  0.99866742  0.66691307  1
  Fe  Fe38  1  0.50105699  0.16698364  0.83424878  1
  Fe  Fe39  1  0.50080689  0.50241329  0.50040187  1
  Cr  Cr40  1  0.33484431  0.33337780  0.66707112  1
  Fe  Fe41  1  0.50395779  0.49930779  0.83335812  1
  Fe  Fe42  1  0.49882229  0.82988274  0.49978593  1
  Fe  Fe43  1  0.33523815  0.66852171  0.66644229  1
  Fe  Fe44  1  0.49898978  0.83418333  0.83364644  1
  Fe  Fe45  1  0.83462797  0.16875606  0.50041837  1
  Cr  Cr46  1  0.66714589  0.00145999  0.66536978  1
  Ni  Ni47  1  0.83324554  0.16812820  0.83239050  1
  Cr  Cr48  1  0.83462179  0.49840194  0.50119826  1
  Ni  Ni49  1  0.66765882  0.33415129  0.66843918  1
  Fe  Fe50  1  0.83189303  0.49655136  0.83269082  1
  Cr  Cr51  1  0.83286562  0.83298575  0.49815972  1
  Fe  Fe52  1  0.66422625  0.66407084  0.66761460  1
  Cr  Cr53  1  0.83337500  0.83316038  0.83479040  1
" 