8938,Ni11Fe46Cr42_11,-220.756766574333, 177.989190765387,Ni11Fe46Cr42,"# generated using pymatgen
 data_Cr23Fe25Ni6
_symmetry_space_group_name_H-M   'P 1'
_cell_length_a   7.50501988
_cell_length_b   7.50501988
_cell_length_c   10.61370090
_cell_angle_alpha   90.00000000
_cell_angle_beta   90.00000000
_cell_angle_gamma   90.00000000
_symmetry_Int_Tables_number   1
_chemical_formula_structural   Cr23Fe25Ni6
_chemical_formula_sum   'Cr23 Fe25 Ni6'
_cell_volume   597.82013524
_cell_formula_units_Z   1
loop_
 _symmetry_equiv_pos_site_id
 _symmetry_equiv_pos_as_xyz
  1  'x, y, z'
loop_
 _atom_site_type_symbol
 _atom_site_label
 _atom_site_symmetry_multiplicity
 _atom_site_fract_x
 _atom_site_fract_y
 _atom_site_fract_z
 _atom_site_occupancy
  Cr  Cr0  1  0.99720800  -0.00211906  0.99360138  1
  Cr  Cr1  1  0.16598555  0.16600853  0.16229834  1
  Cr  Cr2  1  -0.00105775  -0.00132135  0.33129866  1
  Cr  Cr3  1  0.99587418  0.33046258  0.99732738  1
  Fe  Fe4  1  0.16503022  0.49862764  0.16490735  1
  Fe  Fe5  1  -0.00220535  0.33268810  0.33130439  1
  Cr  Cr6  1  0.99634493  0.66461783  0.99317850  1
  Cr  Cr7  1  0.16531253  0.82854974  0.16351670  1
  Fe  Fe8  1  -0.00142199  0.66337730  0.33421770  1
  Cr  Cr9  1  0.33066313  -0.00171146  0.99530552  1
  Fe  Fe10  1  0.49893617  0.16589877  0.16254836  1
  Cr  Cr11  1  0.33047743  -0.00096289  0.33564458  1
  Fe  Fe12  1  0.33454352  0.33135692  0.99604287  1
  Fe  Fe13  1  0.49557907  0.49812409  0.16556540  1
  Cr  Cr14  1  0.32967590  0.33253094  0.33305460  1
  Cr  Cr15  1  0.33281614  0.66128262  0.99606736  1
  Cr  Cr16  1  0.49748901  0.83061822  0.16736169  1
  Fe  Fe17  1  0.33224002  0.66328987  0.33472897  1
  Cr  Cr18  1  0.66509521  -0.00242500  0.99566295  1
  Fe  Fe19  1  0.82917456  0.16356983  0.16467230  1
  Cr  Cr20  1  0.66334513  0.99684373  0.33571847  1
  Fe  Fe21  1  0.66141398  0.32989723  0.99534944  1
  Cr  Cr22  1  0.83062315  0.49740962  0.16549707  1
  Cr  Cr23  1  0.66156522  0.33262607  0.32951504  1
  Cr  Cr24  1  0.66301710  0.65930770  0.99410753  1
  Cr  Cr25  1  0.82983740  0.82908290  0.16696370  1
  Ni  Ni26  1  0.66339525  0.66162935  0.33440593  1
  Fe  Fe27  1  0.16259357  0.16662336  0.49935196  1
  Cr  Cr28  1  -0.00145792  -0.00236616  0.66602152  1
  Fe  Fe29  1  0.16741639  0.16710020  0.82928940  1
  Fe  Fe30  1  0.16410683  0.49940826  0.50014227  1
  Fe  Fe31  1  0.99665534  0.33112353  0.66498032  1
  Cr  Cr32  1  0.16485666  0.49739935  0.82716652  1
  Ni  Ni33  1  0.16487709  0.82818458  0.49838102  1
  Fe  Fe34  1  -0.00216850  0.66488577  0.66353345  1
  Fe  Fe35  1  0.16718406  0.83038072  0.82787925  1
  Fe  Fe36  1  0.49838891  0.16697265  0.50151430  1
  Cr  Cr37  1  0.33074002  -0.00223290  0.66125826  1
  Ni  Ni38  1  0.49858758  0.16558527  0.82941536  1
  Ni  Ni39  1  0.49555056  0.49640153  0.49956802  1
  Fe  Fe40  1  0.33359482  0.33128042  0.66264664  1
  Fe  Fe41  1  0.49668758  0.49337775  0.82779777  1
  Fe  Fe42  1  0.49900996  0.82627645  0.49817722  1
  Fe  Fe43  1  0.33107967  0.66317651  0.66215509  1
  Fe  Fe44  1  0.49650746  0.83217814  0.82884399  1
  Cr  Cr45  1  0.82932898  0.16577420  0.49918622  1
  Fe  Fe46  1  0.66357845  -0.00123339  0.66459811  1
  Fe  Fe47  1  0.82820004  0.16740094  0.82768531  1
  Cr  Cr48  1  0.83025584  0.49676946  0.49915921  1
  Ni  Ni49  1  0.66237508  0.33225569  0.66579618  1
  Fe  Fe50  1  0.82928186  0.49327051  0.82803820  1
  Ni  Ni51  1  0.83308234  0.83000909  0.49817580  1
  Cr  Cr52  1  0.66337519  0.66288905  0.66516838  1
  Fe  Fe53  1  0.82874571  0.83124048  0.82759929  1
" 