3339,Ni11Fe64Cr23_14,-224.653467536272, 170.079667273128,Ni11Fe64Cr23,"# generated using pymatgen
 data_Cr7Fe17Ni3
_symmetry_space_group_name_H-M   'P 1'
_cell_length_a   7.47162187
_cell_length_b   7.47162187
_cell_length_c   10.56646899
_cell_angle_alpha   90.00000000
_cell_angle_beta   90.00000000
_cell_angle_gamma   90.00000000
_symmetry_Int_Tables_number   1
_chemical_formula_structural   Cr7Fe17Ni3
_chemical_formula_sum   'Cr14 Fe34 Ni6'
_cell_volume   589.87454077
_cell_formula_units_Z   2
loop_
 _symmetry_equiv_pos_site_id
 _symmetry_equiv_pos_as_xyz
  1  'x, y, z'
loop_
 _atom_site_type_symbol
 _atom_site_label
 _atom_site_symmetry_multiplicity
 _atom_site_fract_x
 _atom_site_fract_y
 _atom_site_fract_z
 _atom_site_occupancy
  Fe  Fe0  1  0.00244927  0.99903545  0.00016692  1
  Ni  Ni1  1  0.16503640  0.16295240  0.16675579  1
  Fe  Fe2  1  0.00019840  0.99745264  0.33288153  1
  Fe  Fe3  1  0.00229255  0.33176317  -0.00006848  1
  Fe  Fe4  1  0.16555911  0.49826611  0.16834634  1
  Fe  Fe5  1  0.00396886  0.33331962  0.33281432  1
  Ni  Ni6  1  0.99731200  0.66701156  0.00172107  1
  Fe  Fe7  1  0.16460657  0.83366099  0.16507517  1
  Fe  Fe8  1  0.00086243  0.66785195  0.33355648  1
  Ni  Ni9  1  0.33420164  0.00070864  0.99949308  1
  Cr  Cr10  1  0.50067441  0.16762288  0.16649384  1
  Cr  Cr11  1  0.33220252  0.00004255  0.33138853  1
  Cr  Cr12  1  0.33128989  0.33126019  0.00255369  1
  Ni  Ni13  1  0.50013912  0.50225790  0.16927469  1
  Fe  Fe14  1  0.33052475  0.33654460  0.33139083  1
  Cr  Cr15  1  0.33126366  0.66593447  0.00261619  1
  Fe  Fe16  1  0.50109535  0.83284479  0.16611676  1
  Fe  Fe17  1  0.33315248  0.66451048  0.33244607  1
  Fe  Fe18  1  0.66597309  0.99718396  0.99777803  1
  Cr  Cr19  1  0.83422669  0.16525271  0.16697049  1
  Fe  Fe20  1  0.66809071  0.99537087  0.33380749  1
  Fe  Fe21  1  0.66549810  0.33261646  0.99902040  1
  Cr  Cr22  1  0.83144589  0.50053562  0.16611167  1
  Fe  Fe23  1  0.66473891  0.33635987  0.33388917  1
  Fe  Fe24  1  0.66527760  0.66946531  0.00087397  1
  Fe  Fe25  1  0.83318900  0.83309849  0.16716992  1
  Fe  Fe26  1  0.66517686  0.66796194  0.33447583  1
  Fe  Fe27  1  0.16520467  0.16615358  0.49942520  1
  Fe  Fe28  1  0.99920828  0.00154754  0.66536141  1
  Fe  Fe29  1  0.16594001  0.16747060  0.83347012  1
  Fe  Fe30  1  0.16661972  0.49882853  0.49857302  1
  Fe  Fe31  1  0.99956810  0.33092329  0.66639375  1
  Fe  Fe32  1  0.16514991  0.49858847  0.83312042  1
  Fe  Fe33  1  0.16637845  0.83412740  0.49987387  1
  Cr  Cr34  1  0.99928699  0.66560191  0.66447759  1
  Cr  Cr35  1  0.16693889  0.83356739  0.83213396  1
  Cr  Cr36  1  0.49847476  0.16891833  0.49926165  1
  Fe  Fe37  1  0.33220517  0.00056570  0.66659173  1
  Fe  Fe38  1  0.49918302  0.16499060  0.83321947  1
  Fe  Fe39  1  0.50023815  0.50097892  0.49847122  1
  Fe  Fe40  1  0.33174502  0.33337771  0.66641405  1
  Cr  Cr41  1  0.49962721  0.49951314  0.83200633  1
  Fe  Fe42  1  0.49980107  0.83192847  0.49834350  1
  Fe  Fe43  1  0.33432097  0.66569859  0.66425337  1
  Fe  Fe44  1  0.49971592  0.83491864  0.83490646  1
  Cr  Cr45  1  0.83377829  0.16668481  0.49768287  1
  Cr  Cr46  1  0.66664243  0.99889316  0.66734163  1
  Fe  Fe47  1  0.83366972  0.16587041  0.83362066  1
  Fe  Fe48  1  0.83222154  0.49925154  0.49777738  1
  Ni  Ni49  1  0.66622500  0.33218659  0.66577043  1
  Cr  Cr50  1  0.83344005  0.49848497  0.83494086  1
  Ni  Ni51  1  0.83615209  0.83224913  0.49705207  1
  Cr  Cr52  1  0.66802499  0.66749232  0.66437698  1
  Fe  Fe53  1  0.83326346  0.83377279  0.83549033  1
" 