7410,Ni11Fe38Cr49_1,-217.844764250376, 175.428858427667,Ni11Fe38Cr49,"# generated using pymatgen
 data_Cr14Fe10Ni3
_symmetry_space_group_name_H-M   'P 1'
_cell_length_a   7.52471895
_cell_length_b   7.52471895
_cell_length_c   10.64155959
_cell_angle_alpha   90.00000000
_cell_angle_beta   90.00000000
_cell_angle_gamma   90.00000000
_symmetry_Int_Tables_number   1
_chemical_formula_structural   Cr14Fe10Ni3
_chemical_formula_sum   'Cr28 Fe20 Ni6'
_cell_volume   602.53995147
_cell_formula_units_Z   2
loop_
 _symmetry_equiv_pos_site_id
 _symmetry_equiv_pos_as_xyz
  1  'x, y, z'
loop_
 _atom_site_type_symbol
 _atom_site_label
 _atom_site_symmetry_multiplicity
 _atom_site_fract_x
 _atom_site_fract_y
 _atom_site_fract_z
 _atom_site_occupancy
  Fe  Fe0  1  0.99582397  0.99405244  -0.00138758  1
  Fe  Fe1  1  0.16201746  0.16074192  0.16220422  1
  Cr  Cr2  1  0.99599522  -0.00172731  0.33028962  1
  Cr  Cr3  1  0.99546792  0.33033759  -0.00238788  1
  Fe  Fe4  1  0.16133607  0.49836800  0.16190652  1
  Cr  Cr5  1  0.99564408  0.32779444  0.32831158  1
  Ni  Ni6  1  0.99435274  0.66240322  -0.00267690  1
  Ni  Ni7  1  0.15952188  0.83007103  0.16141641  1
  Cr  Cr8  1  -0.00354534  0.66268680  0.32894927  1
  Fe  Fe9  1  0.32934349  0.99415175  -0.00275332  1
  Cr  Cr10  1  0.49707363  0.16308212  0.16149166  1
  Cr  Cr11  1  0.32881840  0.99502951  0.32851475  1
  Cr  Cr12  1  0.32768632  0.32947133  -0.00292718  1
  Cr  Cr13  1  0.49878229  0.49554259  0.16575225  1
  Cr  Cr14  1  0.32682612  0.32937108  0.32905257  1
  Cr  Cr15  1  0.33058004  0.66462078  -0.00323366  1
  Fe  Fe16  1  0.49676652  0.83015918  0.16158585  1
  Cr  Cr17  1  0.33051236  0.66426953  0.32882735  1
  Ni  Ni18  1  0.66235973  0.99414624  -0.00345797  1
  Fe  Fe19  1  0.82915193  0.16147679  0.16113071  1
  Cr  Cr20  1  0.66385977  0.99522425  0.33056045  1
  Fe  Fe21  1  0.66432451  0.32998676  -0.00331209  1
  Fe  Fe22  1  0.82997744  0.49771193  0.16216118  1
  Fe  Fe23  1  0.66454539  0.32925685  0.32893004  1
  Fe  Fe24  1  0.66465316  0.66340420  -0.00344351  1
  Fe  Fe25  1  0.82944361  0.82919673  0.16062016  1
  Fe  Fe26  1  0.66371461  0.66274272  0.32828893  1
  Ni  Ni27  1  0.16377769  0.16151957  0.49678348  1
  Cr  Cr28  1  0.99582802  -0.00200068  0.65914100  1
  Cr  Cr29  1  0.16473499  0.16054684  0.83119835  1
  Cr  Cr30  1  0.16373147  0.49755540  0.49819577  1
  Cr  Cr31  1  0.99567080  0.32980432  0.66264913  1
  Cr  Cr32  1  0.16198636  0.49836707  0.82788226  1
  Fe  Fe33  1  0.16424296  0.83089196  0.49736696  1
  Fe  Fe34  1  -0.00360830  0.66429712  0.66306681  1
  Cr  Cr35  1  0.16129294  0.82963886  0.82798176  1
  Cr  Cr36  1  0.49638078  0.16407336  0.49794005  1
  Ni  Ni37  1  0.33097089  0.99537827  0.66245439  1
  Cr  Cr38  1  0.49664616  0.16195024  0.82904315  1
  Cr  Cr39  1  0.49669472  0.49423926  0.49489483  1
  Fe  Fe40  1  0.32971751  0.32690710  0.66215968  1
  Cr  Cr41  1  0.49720419  0.49422025  0.82798388  1
  Cr  Cr42  1  0.49614467  0.82983231  0.49656208  1
  Fe  Fe43  1  0.32935896  0.66539807  0.66272196  1
  Fe  Fe44  1  0.49621972  0.83203430  0.82915532  1
  Fe  Fe45  1  0.82888551  0.16355428  0.49712116  1
  Ni  Ni46  1  0.66026807  -0.00368119  0.66277363  1
  Cr  Cr47  1  0.82693169  0.16126324  0.82984963  1
  Cr  Cr48  1  0.82806905  0.49673395  0.49589443  1
  Fe  Fe49  1  0.66285539  0.32731879  0.66274422  1
  Fe  Fe50  1  0.82986077  0.49666002  0.83045690  1
  Cr  Cr51  1  0.83143311  0.82974469  0.49605966  1
  Cr  Cr52  1  0.66194414  0.66416913  0.66519674  1
  Cr  Cr53  1  0.83078962  0.82907617  0.83137459  1
" 