4464,Ni11Fe46Cr42_7,-220.563756259849, 183.812291179278,Ni11Fe46Cr42,"# generated using pymatgen
 data_Cr23Fe25Ni6
_symmetry_space_group_name_H-M   'P 1'
_cell_length_a   7.49494302
_cell_length_b   7.49494302
_cell_length_c   10.59945006
_cell_angle_alpha   90.00000000
_cell_angle_beta   90.00000000
_cell_angle_gamma   90.00000000
_symmetry_Int_Tables_number   1
_chemical_formula_structural   Cr23Fe25Ni6
_chemical_formula_sum   'Cr23 Fe25 Ni6'
_cell_volume   595.41531861
_cell_formula_units_Z   1
loop_
 _symmetry_equiv_pos_site_id
 _symmetry_equiv_pos_as_xyz
  1  'x, y, z'
loop_
 _atom_site_type_symbol
 _atom_site_label
 _atom_site_symmetry_multiplicity
 _atom_site_fract_x
 _atom_site_fract_y
 _atom_site_fract_z
 _atom_site_occupancy
  Fe  Fe0  1  0.99811823  0.00045109  -0.00039701  1
  Fe  Fe1  1  0.16345044  0.16566160  0.16661692  1
  Ni  Ni2  1  0.99620756  -0.00147288  0.32947976  1
  Cr  Cr3  1  -0.00097897  0.33326886  -0.00153191  1
  Fe  Fe4  1  0.16354463  0.49715209  0.16721895  1
  Fe  Fe5  1  -0.00142894  0.32915354  0.33076236  1
  Cr  Cr6  1  0.99768042  0.66483997  -0.00002840  1
  Cr  Cr7  1  0.16424489  0.83516991  0.16552927  1
  Ni  Ni8  1  0.99652759  0.66420358  0.33034224  1
  Fe  Fe9  1  0.33027588  -0.00032205  0.99783828  1
  Fe  Fe10  1  0.50057308  0.16499567  0.16576316  1
  Cr  Cr11  1  0.33479481  -0.00010886  0.33333508  1
  Cr  Cr12  1  0.33101333  0.33042086  -0.00045382  1
  Cr  Cr13  1  0.49862749  0.49798414  0.16513095  1
  Fe  Fe14  1  0.32957167  0.33023786  0.33030472  1
  Fe  Fe15  1  0.33069945  0.66528878  0.99685462  1
  Cr  Cr16  1  0.49706383  0.83006260  0.16302477  1
  Cr  Cr17  1  0.32769096  0.66463265  0.33260893  1
  Cr  Cr18  1  0.66494584  -0.00081502  -0.00171478  1
  Ni  Ni19  1  0.83313825  0.16413229  0.16653162  1
  Fe  Fe20  1  0.66746452  -0.00077160  0.33066867  1
  Fe  Fe21  1  0.66596268  0.32973441  -0.00122001  1
  Cr  Cr22  1  0.82823983  0.49618099  0.16764087  1
  Fe  Fe23  1  0.66576296  0.32659622  0.33214092  1
  Fe  Fe24  1  0.66546266  0.66512013  0.99763029  1
  Fe  Fe25  1  0.83088417  0.83307574  0.16685235  1
  Fe  Fe26  1  0.66562935  0.66806782  0.33158199  1
  Cr  Cr27  1  0.16117554  0.16131944  0.49961225  1
  Ni  Ni28  1  0.99760254  0.99809728  0.66572375  1
  Fe  Fe29  1  0.16641608  0.16646342  0.82985145  1
  Cr  Cr30  1  0.16553445  0.49645346  0.49880436  1
  Fe  Fe31  1  -0.00014525  0.32900588  0.66491649  1
  Fe  Fe32  1  0.16541486  0.49782197  0.82980567  1
  Fe  Fe33  1  0.16265238  0.83175535  0.49782716  1
  Cr  Cr34  1  -0.00094393  0.66401930  0.66443993  1
  Cr  Cr35  1  0.16572099  0.83601197  0.83154726  1
  Fe  Fe36  1  0.50017963  0.16667929  0.49609171  1
  Cr  Cr37  1  0.33460358  0.99779004  0.66310872  1
  Fe  Fe38  1  0.49684661  0.16415946  0.83226376  1
  Cr  Cr39  1  0.49861437  0.49938338  0.49799712  1
  Fe  Fe40  1  0.32999717  0.33139703  0.66635467  1
  Cr  Cr41  1  0.49820001  0.49974406  0.83192233  1
  Fe  Fe42  1  0.49836722  0.83095357  0.49772807  1
  Ni  Ni43  1  0.33159627  0.66500795  0.66523150  1
  Fe  Fe44  1  0.49938281  0.83142777  0.83195882  1
  Ni  Ni45  1  0.83283894  0.16329422  0.49671152  1
  Cr  Cr46  1  0.66495067  -0.00122021  0.66227691  1
  Cr  Cr47  1  0.83550223  0.16333630  0.83010617  1
  Cr  Cr48  1  0.83013610  0.49511651  0.49750584  1
  Cr  Cr49  1  0.66398778  0.32808611  0.66446992  1
  Cr  Cr50  1  0.82844265  0.49739020  0.82914868  1
  Cr  Cr51  1  0.83354806  0.83362077  0.49623469  1
  Fe  Fe52  1  0.66294552  0.66816077  0.66446228  1
  Fe  Fe53  1  0.83077492  0.83129307  0.83089692  1
" 