7491,Ni11Fe64Cr23_6,-224.806540211416, 171.521730590962,Ni11Fe64Cr23,"# generated using pymatgen
 data_Cr7Fe17Ni3
_symmetry_space_group_name_H-M   'P 1'
_cell_length_a   7.47197977
_cell_length_b   7.47197977
_cell_length_c   10.56697512
_cell_angle_alpha   90.00000000
_cell_angle_beta   90.00000000
_cell_angle_gamma   90.00000000
_symmetry_Int_Tables_number   1
_chemical_formula_structural   Cr7Fe17Ni3
_chemical_formula_sum   'Cr14 Fe34 Ni6'
_cell_volume   589.95931074
_cell_formula_units_Z   2
loop_
 _symmetry_equiv_pos_site_id
 _symmetry_equiv_pos_as_xyz
  1  'x, y, z'
loop_
 _atom_site_type_symbol
 _atom_site_label
 _atom_site_symmetry_multiplicity
 _atom_site_fract_x
 _atom_site_fract_y
 _atom_site_fract_z
 _atom_site_occupancy
  Fe  Fe0  1  0.99677932  0.99741167  0.99718033  1
  Cr  Cr1  1  0.16812004  0.16593483  0.16704547  1
  Fe  Fe2  1  0.99699724  0.00006409  0.33476907  1
  Cr  Cr3  1  0.99742803  0.33432196  0.99917645  1
  Fe  Fe4  1  0.16741766  0.50014102  0.16719322  1
  Fe  Fe5  1  0.99726902  0.33450299  0.33230576  1
  Fe  Fe6  1  0.99896472  0.66679294  0.99741024  1
  Cr  Cr7  1  0.16377734  0.83253383  0.16542037  1
  Fe  Fe8  1  0.99881506  0.66425777  0.33555918  1
  Fe  Fe9  1  0.33612726  0.99779898  0.00029478  1
  Ni  Ni10  1  0.49986696  0.16978993  0.16549486  1
  Cr  Cr11  1  0.33473596  0.99668844  0.33372230  1
  Fe  Fe12  1  0.33576665  0.33690385  0.00093235  1
  Fe  Fe13  1  0.50035754  0.50029814  0.16649409  1
  Fe  Fe14  1  0.33695601  0.33438898  0.33210047  1
  Fe  Fe15  1  0.33394700  0.66492576  0.99912467  1
  Fe  Fe16  1  0.49960924  0.83314115  0.16448260  1
  Fe  Fe17  1  0.33403922  0.66389404  0.33264800  1
  Fe  Fe18  1  0.66650591  0.99913534  -0.00010735  1
  Fe  Fe19  1  0.83102694  0.16676606  0.16657887  1
  Cr  Cr20  1  0.66407217  0.00169824  0.33502809  1
  Fe  Fe21  1  0.66454159  0.33466795  0.00184499  1
  Fe  Fe22  1  0.83112122  0.49849156  0.16643342  1
  Ni  Ni23  1  0.66794131  0.33435803  0.33003206  1
  Ni  Ni24  1  0.66394839  0.66597448  0.00028374  1
  Cr  Cr25  1  0.83263619  0.82967911  0.16597449  1
  Fe  Fe26  1  0.66596658  0.66473073  0.33200703  1
  Cr  Cr27  1  0.16739981  0.16854410  0.49821145  1
  Cr  Cr28  1  0.99841346  0.99843243  0.66651558  1
  Cr  Cr29  1  0.16805638  0.16701853  0.83358133  1
  Fe  Fe30  1  0.16536026  0.50120956  0.49990690  1
  Fe  Fe31  1  0.00108802  0.33577147  0.66605796  1
  Fe  Fe32  1  0.16772378  0.50286495  0.83199341  1
  Fe  Fe33  1  0.16586696  0.82886015  0.49887386  1
  Ni  Ni34  1  0.00139333  0.66537422  0.66600328  1
  Fe  Fe35  1  0.16529148  0.82979261  0.83429446  1
  Ni  Ni36  1  0.50024003  0.16850518  0.49986080  1
  Cr  Cr37  1  0.33579819  0.99638405  0.66447252  1
  Cr  Cr38  1  0.49888689  0.16805211  0.83303470  1
  Cr  Cr39  1  0.50142265  0.49910055  0.50049444  1
  Fe  Fe40  1  0.33108335  0.33617529  0.66603398  1
  Fe  Fe41  1  0.49834007  0.50328167  0.83368311  1
  Fe  Fe42  1  0.50096731  0.83178525  0.50045122  1
  Fe  Fe43  1  0.33146878  0.66508546  0.66713431  1
  Fe  Fe44  1  0.50198752  0.83056573  0.83434570  1
  Fe  Fe45  1  0.83120088  0.16876183  0.49852742  1
  Fe  Fe46  1  0.66766262  0.99633093  0.66523667  1
  Fe  Fe47  1  0.83186327  0.16353159  0.83419511  1
  Fe  Fe48  1  0.83451975  0.49921111  0.49912766  1
  Cr  Cr49  1  0.66810305  0.33153164  0.66741934  1
  Cr  Cr50  1  0.83105032  0.50415669  0.83212155  1
  Fe  Fe51  1  0.83242611  0.83070949  0.50071273  1
  Fe  Fe52  1  0.66737620  0.67065225  0.66703639  1
  Ni  Ni53  1  0.83245262  0.83119695  0.83342224  1
" 