1448,Ni11Fe64Cr23_7,-224.376740472801, 173.953257583667,Ni11Fe64Cr23,"# generated using pymatgen
 data_Cr7Fe17Ni3
_symmetry_space_group_name_H-M   'P 1'
_cell_length_a   7.46126403
_cell_length_b   7.46126403
_cell_length_c   10.55182078
_cell_angle_alpha   90.00000000
_cell_angle_beta   90.00000000
_cell_angle_gamma   90.00000000
_symmetry_Int_Tables_number   1
_chemical_formula_structural   Cr7Fe17Ni3
_chemical_formula_sum   'Cr14 Fe34 Ni6'
_cell_volume   587.42472600
_cell_formula_units_Z   2
loop_
 _symmetry_equiv_pos_site_id
 _symmetry_equiv_pos_as_xyz
  1  'x, y, z'
loop_
 _atom_site_type_symbol
 _atom_site_label
 _atom_site_symmetry_multiplicity
 _atom_site_fract_x
 _atom_site_fract_y
 _atom_site_fract_z
 _atom_site_occupancy
  Fe  Fe0  1  0.00453582  1.00014194  0.00068358  1
  Cr  Cr1  1  0.16817952  0.16216467  0.17043084  1
  Fe  Fe2  1  0.00081343  0.99447816  0.33596347  1
  Fe  Fe3  1  0.99734575  0.33239887  0.00312323  1
  Fe  Fe4  1  0.16436879  0.50136964  0.16717549  1
  Cr  Cr5  1  0.99982551  0.32871825  0.33363295  1
  Fe  Fe6  1  0.00600926  0.66550074  0.00105311  1
  Ni  Ni7  1  0.16835765  0.83116374  0.16599005  1
  Ni  Ni8  1  0.00094631  0.66543425  0.33462368  1
  Ni  Ni9  1  0.33308840  0.99906834  0.99929459  1
  Fe  Fe10  1  0.50030911  0.16483740  0.16804801  1
  Fe  Fe11  1  0.33233680  0.99858487  0.33356620  1
  Cr  Cr12  1  0.32857377  0.33229723  0.99927479  1
  Fe  Fe13  1  0.50019553  0.50057039  0.16636986  1
  Fe  Fe14  1  0.33554017  0.33590928  0.33129213  1
  Fe  Fe15  1  0.33300728  0.66852036  1.00032637  1
  Fe  Fe16  1  0.49972725  0.83814482  0.16596976  1
  Cr  Cr17  1  0.33562881  0.66944416  0.33017886  1
  Fe  Fe18  1  0.66350002  0.00291800  0.00210095  1
  Fe  Fe19  1  0.83214420  0.16572486  0.16654434  1
  Fe  Fe20  1  0.66894808  0.00272568  0.33350708  1
  Fe  Fe21  1  0.66302670  0.33264926  0.00345261  1
  Fe  Fe22  1  0.83506983  0.50039624  0.16725523  1
  Fe  Fe23  1  0.66744098  0.33563395  0.33182977  1
  Cr  Cr24  1  0.66621595  0.66838316  0.99989925  1
  Cr  Cr25  1  0.83793996  0.83375761  0.16638930  1
  Cr  Cr26  1  0.66873815  0.66970106  0.33858302  1
  Fe  Fe27  1  0.16381899  0.16267570  0.50044739  1
  Fe  Fe28  1  0.00146222  0.99979156  0.66547708  1
  Fe  Fe29  1  0.16282943  0.16361331  0.83331775  1
  Cr  Cr30  1  0.17106672  0.50032906  0.50033080  1
  Fe  Fe31  1  0.99896229  0.33012074  0.66522996  1
  Fe  Fe32  1  0.16499329  0.50001747  0.83272151  1
  Ni  Ni33  1  0.16762274  0.83250468  0.49927781  1
  Fe  Fe34  1  0.00501059  0.66899314  0.66547608  1
  Ni  Ni35  1  0.17044210  0.83278158  0.83619898  1
  Cr  Cr36  1  0.49694872  0.17109430  0.49820389  1
  Fe  Fe37  1  0.33038304  0.00089048  0.66817262  1
  Fe  Fe38  1  0.49542593  0.16523517  0.83288516  1
  Fe  Fe39  1  0.50150074  0.50068746  0.50041884  1
  Fe  Fe40  1  0.33214516  0.33238273  0.66981906  1
  Fe  Fe41  1  0.50050118  0.49905050  0.83386993  1
  Fe  Fe42  1  0.49828117  0.83951560  0.50033151  1
  Cr  Cr43  1  0.33817784  0.66935252  0.67083271  1
  Fe  Fe44  1  0.50232965  0.83843148  0.83455610  1
  Ni  Ni45  1  0.82979222  0.16634934  0.49965732  1
  Fe  Fe46  1  0.66556492  0.00349264  0.66539304  1
  Cr  Cr47  1  0.82780682  0.16726706  0.83669580  1
  Fe  Fe48  1  0.83701921  0.49797659  0.50119172  1
  Fe  Fe49  1  0.66496206  0.33406323  0.66577489  1
  Cr  Cr50  1  0.83447373  0.49997957  0.83265730  1
  Fe  Fe51  1  0.83903622  0.83781098  0.50024444  1
  Cr  Cr52  1  0.66985189  0.67055672  0.66189855  1
  Cr  Cr53  1  0.83870708  0.83532842  0.83329024  1
" 