7681,Ni11Fe38Cr49_9,-218.031616512628, 177.753309948001,Ni11Fe38Cr49,"# generated using pymatgen
 data_Cr14Fe10Ni3
_symmetry_space_group_name_H-M   'P 1'
_cell_length_a   7.53074632
_cell_length_b   7.53074632
_cell_length_c   10.65008358
_cell_angle_alpha   90.00000000
_cell_angle_beta   90.00000000
_cell_angle_gamma   90.00000000
_symmetry_Int_Tables_number   1
_chemical_formula_structural   Cr14Fe10Ni3
_chemical_formula_sum   'Cr28 Fe20 Ni6'
_cell_volume   603.98903240
_cell_formula_units_Z   2
loop_
 _symmetry_equiv_pos_site_id
 _symmetry_equiv_pos_as_xyz
  1  'x, y, z'
loop_
 _atom_site_type_symbol
 _atom_site_label
 _atom_site_symmetry_multiplicity
 _atom_site_fract_x
 _atom_site_fract_y
 _atom_site_fract_z
 _atom_site_occupancy
  Cr  Cr0  1  0.99293005  -0.00205209  -0.00205258  1
  Cr  Cr1  1  0.16236810  0.16442133  0.16122630  1
  Cr  Cr2  1  0.99407235  0.99434901  0.32731575  1
  Fe  Fe3  1  0.99541924  0.32958558  0.99569732  1
  Fe  Fe4  1  0.16165812  0.49365396  0.16352188  1
  Cr  Cr5  1  0.99496672  0.33177438  0.32738726  1
  Cr  Cr6  1  -0.00257257  0.65851258  -0.00359879  1
  Cr  Cr7  1  0.16008427  0.82997146  0.16355036  1
  Fe  Fe8  1  -0.00376058  0.66089588  0.32963822  1
  Cr  Cr9  1  0.33191822  0.99303394  0.99464263  1
  Cr  Cr10  1  0.49331041  0.16517364  0.16352742  1
  Cr  Cr11  1  0.33092552  0.99366046  0.33186779  1
  Fe  Fe12  1  0.32771680  0.32972034  -0.00417730  1
  Cr  Cr13  1  0.49637347  0.49671639  0.16324695  1
  Ni  Ni14  1  0.32846727  0.33217472  0.33000226  1
  Cr  Cr15  1  0.32869636  0.66216561  0.99570774  1
  Fe  Fe16  1  0.49820650  0.82883208  0.16248780  1
  Cr  Cr17  1  0.32647590  0.66185868  0.32982680  1
  Cr  Cr18  1  0.66235802  -0.00275921  -0.00385970  1
  Ni  Ni19  1  0.83018924  0.16243368  0.16063205  1
  Cr  Cr20  1  0.66237500  -0.00298557  0.32782660  1
  Cr  Cr21  1  0.66624907  0.32755842  0.99517240  1
  Fe  Fe22  1  0.83013415  0.49571563  0.16246601  1
  Cr  Cr23  1  0.66311422  0.32745910  0.32944233  1
  Fe  Fe24  1  0.66302371  0.66319226  -0.00365660  1
  Fe  Fe25  1  0.82715996  0.82830861  0.16286822  1
  Fe  Fe26  1  0.66284088  0.66304735  0.32795101  1
  Cr  Cr27  1  0.16549527  0.16366939  0.49589523  1
  Cr  Cr28  1  0.99453091  0.99574871  0.66185918  1
  Cr  Cr29  1  0.16320782  0.16477642  0.83030259  1
  Ni  Ni30  1  0.16331820  0.49574824  0.49684491  1
  Ni  Ni31  1  -0.00375590  0.33338145  0.66510937  1
  Fe  Fe32  1  0.16004205  0.49462428  0.82698830  1
  Fe  Fe33  1  0.16195234  0.82603440  0.49676937  1
  Ni  Ni34  1  -0.00166257  0.65837216  0.66124246  1
  Cr  Cr35  1  0.16130393  0.83049766  0.82683374  1
  Fe  Fe36  1  0.49453525  0.16204769  0.49670456  1
  Fe  Fe37  1  0.33145038  -0.00341008  0.66197325  1
  Fe  Fe38  1  0.49616724  0.16074765  0.82769129  1
  Cr  Cr39  1  0.49528259  0.49471651  0.49393881  1
  Fe  Fe40  1  0.32674060  0.32877145  0.66140213  1
  Cr  Cr41  1  0.49695318  0.49591427  0.83006564  1
  Fe  Fe42  1  0.49604343  0.83002046  0.49744804  1
  Cr  Cr43  1  0.32600728  0.66377802  0.66178382  1
  Fe  Fe44  1  0.49700710  0.83058806  0.82747014  1
  Cr  Cr45  1  0.82948978  0.16104965  0.49753689  1
  Ni  Ni46  1  0.65801789  -0.00348391  0.66349592  1
  Fe  Fe47  1  0.82877760  0.16365037  0.82800718  1
  Cr  Cr48  1  0.82937523  0.49975162  0.49725016  1
  Cr  Cr49  1  0.66437664  0.32538413  0.66262156  1
  Fe  Fe50  1  0.83196184  0.49530303  0.82741764  1
  Cr  Cr51  1  0.82898847  0.82650348  0.49599578  1
  Fe  Fe52  1  0.66428186  0.66415480  0.66297867  1
  Cr  Cr53  1  0.82703206  0.82686276  0.82733412  1
" 