2234,Ni11Fe64Cr23_8,-224.470950353058, 171.520025063439,Ni11Fe64Cr23,"# generated using pymatgen
 data_Cr7Fe17Ni3
_symmetry_space_group_name_H-M   'P 1'
_cell_length_a   7.47224441
_cell_length_b   7.47224441
_cell_length_c   10.56734939
_cell_angle_alpha   90.00000000
_cell_angle_beta   90.00000000
_cell_angle_gamma   90.00000000
_symmetry_Int_Tables_number   1
_chemical_formula_structural   Cr7Fe17Ni3
_chemical_formula_sum   'Cr14 Fe34 Ni6'
_cell_volume   590.02199865
_cell_formula_units_Z   2
loop_
 _symmetry_equiv_pos_site_id
 _symmetry_equiv_pos_as_xyz
  1  'x, y, z'
loop_
 _atom_site_type_symbol
 _atom_site_label
 _atom_site_symmetry_multiplicity
 _atom_site_fract_x
 _atom_site_fract_y
 _atom_site_fract_z
 _atom_site_occupancy
  Fe  Fe0  1  0.99883377  0.00033118  -0.00017367  1
  Fe  Fe1  1  0.16663826  0.16651228  0.16532424  1
  Fe  Fe2  1  0.99964369  0.99835382  0.33330836  1
  Fe  Fe3  1  0.99839427  0.33344193  0.00086322  1
  Fe  Fe4  1  0.16731941  0.49885004  0.16658309  1
  Cr  Cr5  1  0.00057831  0.33349171  0.33021802  1
  Cr  Cr6  1  0.99953347  0.66463859  0.99801425  1
  Cr  Cr7  1  0.16664648  0.83316317  0.16726454  1
  Fe  Fe8  1  0.99816378  0.66761520  0.33284488  1
  Fe  Fe9  1  0.33420891  0.99832254  0.99911524  1
  Cr  Cr10  1  0.50102962  0.16624986  0.16596791  1
  Fe  Fe11  1  0.33259736  0.99879900  0.33327352  1
  Fe  Fe12  1  0.33335554  0.33442254  0.99800398  1
  Cr  Cr13  1  0.49960395  0.50120333  0.16752566  1
  Fe  Fe14  1  0.33216845  0.33225254  0.33304170  1
  Fe  Fe15  1  0.33541404  0.66625363  0.99800451  1
  Ni  Ni16  1  0.50055208  0.83256900  0.16679720  1
  Fe  Fe17  1  0.33319235  0.66799154  0.33258861  1
  Fe  Fe18  1  0.66600780  0.99826470  0.00001619  1
  Fe  Fe19  1  0.83268854  0.16521793  0.16510932  1
  Fe  Fe20  1  0.66674582  0.99729371  0.33219563  1
  Ni  Ni21  1  0.66661469  0.33311212  0.99821401  1
  Fe  Fe22  1  0.83189601  0.49996739  0.16519963  1
  Fe  Fe23  1  0.66726517  0.33368587  0.33162404  1
  Fe  Fe24  1  0.66515318  0.66572639  0.99861345  1
  Fe  Fe25  1  0.82977796  0.83367399  0.16705469  1
  Fe  Fe26  1  0.66762269  0.66801012  0.33263265  1
  Fe  Fe27  1  0.16891508  0.16516350  0.49948943  1
  Cr  Cr28  1  0.00113261  0.99648540  0.66479627  1
  Cr  Cr29  1  0.16760235  0.16411682  0.83388635  1
  Cr  Cr30  1  0.16722198  0.50265689  0.50076158  1
  Cr  Cr31  1  0.00048837  0.33640373  0.66714447  1
  Fe  Fe32  1  0.16795053  0.50124592  0.83236577  1
  Fe  Fe33  1  0.16726032  0.83390637  0.49929362  1
  Fe  Fe34  1  0.99928156  0.66670568  0.66806045  1
  Ni  Ni35  1  0.16788694  0.83178833  0.83161616  1
  Cr  Cr36  1  0.49882819  0.16773781  0.50052343  1
  Fe  Fe37  1  0.33245369  0.99883910  0.66663329  1
  Fe  Fe38  1  0.49887757  0.16869583  0.83368795  1
  Cr  Cr39  1  0.50128343  0.49953968  0.49916266  1
  Ni  Ni40  1  0.33442771  0.33388981  0.66781082  1
  Ni  Ni41  1  0.50090002  0.49978055  0.83242906  1
  Fe  Fe42  1  0.49900385  0.83231603  0.49807027  1
  Fe  Fe43  1  0.33299857  0.66724859  0.66849069  1
  Fe  Fe44  1  0.49873275  0.83121644  0.83449476  1
  Cr  Cr45  1  0.83226614  0.16656487  0.49903693  1
  Cr  Cr46  1  0.66344220  0.99702717  0.66824679  1
  Cr  Cr47  1  0.83101446  0.16750921  0.83580810  1
  Fe  Fe48  1  0.83160094  0.50228333  0.50013766  1
  Fe  Fe49  1  0.66442331  0.33607300  0.66910289  1
  Ni  Ni50  1  0.82928224  0.50067855  0.83152098  1
  Fe  Fe51  1  0.83269470  0.82989818  0.49822376  1
  Fe  Fe52  1  0.66674489  0.66422644  0.66763949  1
  Fe  Fe53  1  0.83286201  0.82981067  0.83356355  1
" 