7597,Ni11Fe64Cr23_19,-224.060891162741, 172.731595034244,Ni11Fe64Cr23,"# generated using pymatgen
 data_Cr7Fe17Ni3
_symmetry_space_group_name_H-M   'P 1'
_cell_length_a   7.46165837
_cell_length_b   7.46165837
_cell_length_c   10.55237847
_cell_angle_alpha   90.00000000
_cell_angle_beta   90.00000000
_cell_angle_gamma   90.00000000
_symmetry_Int_Tables_number   1
_chemical_formula_structural   Cr7Fe17Ni3
_chemical_formula_sum   'Cr14 Fe34 Ni6'
_cell_volume   587.51787129
_cell_formula_units_Z   2
loop_
 _symmetry_equiv_pos_site_id
 _symmetry_equiv_pos_as_xyz
  1  'x, y, z'
loop_
 _atom_site_type_symbol
 _atom_site_label
 _atom_site_symmetry_multiplicity
 _atom_site_fract_x
 _atom_site_fract_y
 _atom_site_fract_z
 _atom_site_occupancy
  Fe  Fe0  1  0.00257115  0.00307377  0.00052094  1
  Fe  Fe1  1  0.16890997  0.16695233  0.16518029  1
  Cr  Cr2  1  0.00217050  0.00038871  0.33507304  1
  Fe  Fe3  1  0.00215646  0.33025542  0.00041484  1
  Fe  Fe4  1  0.16894859  0.50071308  0.16733423  1
  Cr  Cr5  1  0.00187088  0.33276686  0.33481300  1
  Fe  Fe6  1  0.00469455  0.66702059  1.00012789  1
  Fe  Fe7  1  0.16895532  0.83395273  0.16581710  1
  Fe  Fe8  1  0.00219673  0.66510543  0.33646361  1
  Ni  Ni9  1  0.33289588  0.00275249  1.00005687  1
  Ni  Ni10  1  0.49729687  0.16769144  0.16843714  1
  Fe  Fe11  1  0.33370090  0.00464959  0.33301054  1
  Ni  Ni12  1  0.33017004  0.33391200  0.00105966  1
  Cr  Cr13  1  0.50008246  0.49760765  0.16951668  1
  Fe  Fe14  1  0.33406527  0.33256343  0.33488870  1
  Fe  Fe15  1  0.33178922  0.66722963  1.00016783  1
  Cr  Cr16  1  0.49751503  0.83581676  0.16946754  1
  Fe  Fe17  1  0.33047513  0.66473181  0.33581449  1
  Cr  Cr18  1  0.66655058  0.99987464  0.99942303  1
  Fe  Fe19  1  0.82997389  0.16760658  0.16772527  1
  Fe  Fe20  1  0.66676242  0.00522031  0.33467232  1
  Fe  Fe21  1  0.66308297  0.32987776  0.00138251  1
  Cr  Cr22  1  0.83559237  0.49826383  0.16623715  1
  Ni  Ni23  1  0.66561452  0.33392594  0.33498494  1
  Cr  Cr24  1  0.66478884  0.66800760  0.99831133  1
  Cr  Cr25  1  0.83674036  0.83337361  0.16886448  1
  Fe  Fe26  1  0.66818609  0.66569711  0.33553827  1
  Fe  Fe27  1  0.17239456  0.16670534  0.50070665  1
  Cr  Cr28  1  0.99949303  0.00216365  0.66497094  1
  Fe  Fe29  1  0.16873759  0.17017167  0.83515462  1
  Ni  Ni30  1  0.16700750  0.49984712  0.50216234  1
  Cr  Cr31  1  0.00352178  0.33421210  0.66482751  1
  Fe  Fe32  1  0.16845005  0.49990818  0.83328285  1
  Fe  Fe33  1  0.16765289  0.83165149  0.50101356  1
  Fe  Fe34  1  0.99976721  0.66778627  0.66488958  1
  Cr  Cr35  1  0.16788640  0.83583471  0.83307134  1
  Fe  Fe36  1  0.49990383  0.16982007  0.49987718  1
  Fe  Fe37  1  0.33547202  0.00386992  0.66775722  1
  Fe  Fe38  1  0.49814670  0.16571501  0.83415199  1
  Fe  Fe39  1  0.49894498  0.49935775  0.50034545  1
  Fe  Fe40  1  0.33556535  0.33145250  0.66605806  1
  Cr  Cr41  1  0.49992470  0.49765092  0.83165705  1
  Cr  Cr42  1  0.49976850  0.83719248  0.49954590  1
  Fe  Fe43  1  0.33289823  0.66653722  0.66516490  1
  Fe  Fe44  1  0.49933903  0.83517690  0.83089889  1
  Fe  Fe45  1  0.82962482  0.16729862  0.50048337  1
  Ni  Ni46  1  0.66583406  0.99937920  0.66756990  1
  Fe  Fe47  1  0.83237990  0.16585612  0.83301971  1
  Fe  Fe48  1  0.83182832  0.50118327  0.50005088  1
  Fe  Fe49  1  0.66668679  0.32986517  0.66436895  1
  Cr  Cr50  1  0.83518436  0.49785044  0.83412377  1
  Fe  Fe51  1  0.83369847  0.83201109  0.50021318  1
  Fe  Fe52  1  0.66821821  0.66801291  0.66659856  1
  Fe  Fe53  1  0.83341468  0.83395972  0.83223290  1
" 