3185,Ni11Fe46Cr42_5,-220.328159582818, 168.143782471342,Ni11Fe46Cr42,"# generated using pymatgen
 data_Cr23Fe25Ni6
_symmetry_space_group_name_H-M   'P 1'
_cell_length_a   7.51183902
_cell_length_b   7.51183902
_cell_length_c   10.62334462
_cell_angle_alpha   90.00000000
_cell_angle_beta   90.00000000
_cell_angle_gamma   90.00000000
_symmetry_Int_Tables_number   1
_chemical_formula_structural   Cr23Fe25Ni6
_chemical_formula_sum   'Cr23 Fe25 Ni6'
_cell_volume   599.45117406
_cell_formula_units_Z   1
loop_
 _symmetry_equiv_pos_site_id
 _symmetry_equiv_pos_as_xyz
  1  'x, y, z'
loop_
 _atom_site_type_symbol
 _atom_site_label
 _atom_site_symmetry_multiplicity
 _atom_site_fract_x
 _atom_site_fract_y
 _atom_site_fract_z
 _atom_site_occupancy
  Ni  Ni0  1  0.00230759  -0.00248775  0.99566802  1
  Fe  Fe1  1  0.16315715  0.16274139  0.16315781  1
  Cr  Cr2  1  -0.00249310  0.99586160  0.33129311  1
  Cr  Cr3  1  -0.00256375  0.32967992  0.99590590  1
  Fe  Fe4  1  0.16517901  0.49794621  0.16471549  1
  Fe  Fe5  1  -0.00280579  0.32989697  0.33195208  1
  Cr  Cr6  1  -0.00099906  0.66501805  0.99501142  1
  Fe  Fe7  1  0.16505661  0.83065816  0.16321083  1
  Fe  Fe8  1  0.99672918  0.66425325  0.33329991  1
  Fe  Fe9  1  0.32656656  0.99558611  -0.00287143  1
  Cr  Cr10  1  0.49351811  0.16225857  0.16147167  1
  Cr  Cr11  1  0.32898397  0.99566642  0.33438953  1
  Fe  Fe12  1  0.32707352  0.33118146  -0.00288790  1
  Fe  Fe13  1  0.49476686  0.49903004  0.16411441  1
  Cr  Cr14  1  0.33021592  0.33045787  0.33124909  1
  Fe  Fe15  1  0.32818554  0.66426626  -0.00206744  1
  Fe  Fe16  1  0.49457865  0.82848165  0.16423702  1
  Fe  Fe17  1  0.33101373  0.66461022  0.33048965  1
  Cr  Cr18  1  0.66710525  -0.00296132  -0.00297724  1
  Cr  Cr19  1  0.83222224  0.16315172  0.16350479  1
  Cr  Cr20  1  0.66392758  0.99616312  0.33229105  1
  Cr  Cr21  1  0.66428749  0.33158224  0.99647274  1
  Cr  Cr22  1  0.83322875  0.49871598  0.16776520  1
  Cr  Cr23  1  0.66419425  0.33180549  0.33144878  1
  Cr  Cr24  1  0.66296052  0.66254186  -0.00157643  1
  Cr  Cr25  1  0.83200022  0.82972346  0.16394707  1
  Fe  Fe26  1  0.66312233  0.66474287  0.33305148  1
  Fe  Fe27  1  0.15888877  0.16356519  0.49814083  1
  Ni  Ni28  1  0.99523072  0.99610481  0.66323665  1
  Fe  Fe29  1  0.16140898  0.16146821  0.82906771  1
  Cr  Cr30  1  0.16180362  0.49687004  0.49664191  1
  Fe  Fe31  1  0.99686890  0.32917882  0.66271891  1
  Fe  Fe32  1  0.16254586  0.49691399  0.82857417  1
  Fe  Fe33  1  0.15843568  0.82874882  0.49831161  1
  Ni  Ni34  1  0.99596482  0.66523658  0.66263733  1
  Fe  Fe35  1  0.16220907  0.83268837  0.82868713  1
  Fe  Fe36  1  0.50006669  0.16439258  0.49833355  1
  Cr  Cr37  1  0.32783926  0.99666765  0.65971649  1
  Cr  Cr38  1  0.49649820  0.16246461  0.83043019  1
  Fe  Fe39  1  0.50004571  0.49938678  0.49795454  1
  Cr  Cr40  1  0.33110884  0.33004491  0.66300826  1
  Cr  Cr41  1  0.49535019  0.49703737  0.83021204  1
  Fe  Fe42  1  0.49943628  0.82721540  0.49788890  1
  Cr  Cr43  1  0.32833597  0.66404650  0.66356961  1
  Cr  Cr44  1  0.49557150  0.83148488  0.83066794  1
  Fe  Fe45  1  0.83223245  0.16416606  0.49976177  1
  Fe  Fe46  1  0.66614117  -0.00297378  0.66170684  1
  Ni  Ni47  1  0.83361128  0.16223575  0.82755114  1
  Ni  Ni48  1  0.83122672  0.49892816  0.49763249  1
  Fe  Fe49  1  0.66747433  0.32930780  0.66175144  1
  Cr  Cr50  1  0.83182004  0.49739780  0.82589949  1
  Ni  Ni51  1  0.83048871  0.82917297  0.49841912  1
  Fe  Fe52  1  0.66528601  0.66479797  0.66117543  1
  Cr  Cr53  1  0.83159596  0.83188503  0.82904294  1
" 