2830,Ni11Fe64Cr23_17,-224.798887368227, 167.133764184628,Ni11Fe64Cr23,"# generated using pymatgen
 data_Cr7Fe17Ni3
_symmetry_space_group_name_H-M   'P 1'
_cell_length_a   7.47901014
_cell_length_b   7.47901014
_cell_length_c   10.57691758
_cell_angle_alpha   90.00000000
_cell_angle_beta   90.00000000
_cell_angle_gamma   90.00000000
_symmetry_Int_Tables_number   1
_chemical_formula_structural   Cr7Fe17Ni3
_chemical_formula_sum   'Cr14 Fe34 Ni6'
_cell_volume   591.62615351
_cell_formula_units_Z   2
loop_
 _symmetry_equiv_pos_site_id
 _symmetry_equiv_pos_as_xyz
  1  'x, y, z'
loop_
 _atom_site_type_symbol
 _atom_site_label
 _atom_site_symmetry_multiplicity
 _atom_site_fract_x
 _atom_site_fract_y
 _atom_site_fract_z
 _atom_site_occupancy
  Cr  Cr0  1  0.99770075  0.00064812  0.99893673  1
  Fe  Fe1  1  0.16653221  0.16778777  0.16738516  1
  Fe  Fe2  1  0.99808200  0.99900452  0.33272210  1
  Fe  Fe3  1  0.99761249  0.33185541  -0.00066893  1
  Fe  Fe4  1  0.16761034  0.49815580  0.16727026  1
  Fe  Fe5  1  0.99849311  0.33191243  0.33088626  1
  Cr  Cr6  1  0.00083008  0.66414368  0.99918299  1
  Cr  Cr7  1  0.16727191  0.83169863  0.16599560  1
  Fe  Fe8  1  0.99916431  0.66652247  0.33180495  1
  Cr  Cr9  1  0.33414266  0.00033238  0.99879505  1
  Fe  Fe10  1  0.50037917  0.16563969  0.16592981  1
  Fe  Fe11  1  0.33366157  0.99742931  0.33126282  1
  Fe  Fe12  1  0.33373823  0.33344166  0.99846796  1
  Fe  Fe13  1  0.49823312  0.49940767  0.16683212  1
  Fe  Fe14  1  0.33270942  0.33317891  0.33057500  1
  Fe  Fe15  1  0.33416034  0.66381580  0.00012979  1
  Ni  Ni16  1  0.50059470  0.83255559  0.16695523  1
  Ni  Ni17  1  0.33296516  0.66672855  0.33177124  1
  Ni  Ni18  1  0.66543110  0.00338943  0.00163359  1
  Fe  Fe19  1  0.83065230  0.16578597  0.16648523  1
  Fe  Fe20  1  0.66592165  0.99803401  0.33134228  1
  Ni  Ni21  1  0.66532345  0.33069541  0.99889788  1
  Fe  Fe22  1  0.83176262  0.49822163  0.16694642  1
  Fe  Fe23  1  0.66639345  0.33201733  0.33053645  1
  Cr  Cr24  1  0.66504692  0.66460941  0.00089384  1
  Fe  Fe25  1  0.82970342  0.83362289  0.16708151  1
  Fe  Fe26  1  0.66469588  0.66746536  0.33072555  1
  Cr  Cr27  1  0.16490106  0.16541908  0.49885069  1
  Fe  Fe28  1  -0.00032869  0.00134712  0.66575958  1
  Fe  Fe29  1  0.16624024  0.16708751  0.83065390  1
  Cr  Cr30  1  0.16617619  0.49834235  0.49655942  1
  Fe  Fe31  1  -0.00068066  0.33049383  0.66732388  1
  Fe  Fe32  1  0.16690422  0.49715254  0.83259503  1
  Fe  Fe33  1  0.16585129  0.83377741  0.49717150  1
  Cr  Cr34  1  0.99883343  0.66712049  0.66556645  1
  Fe  Fe35  1  0.16631626  0.83326930  0.83215619  1
  Cr  Cr36  1  0.49968847  0.16507120  0.49980058  1
  Fe  Fe37  1  0.33158087  0.00035685  0.66682990  1
  Fe  Fe38  1  0.50063344  0.16796219  0.83212829  1
  Cr  Cr39  1  0.49952209  0.49998602  0.49918120  1
  Ni  Ni40  1  0.33351945  0.33063998  0.66836836  1
  Fe  Fe41  1  0.49951403  0.49598678  0.83232738  1
  Fe  Fe42  1  0.49991184  0.83319413  0.49760893  1
  Cr  Cr43  1  0.33243667  0.66595888  0.66654415  1
  Cr  Cr44  1  0.49936754  0.83332546  0.83325319  1
  Ni  Ni45  1  0.83290199  0.16369736  0.49992990  1
  Fe  Fe46  1  0.66628232  0.00037687  0.66545768  1
  Fe  Fe47  1  0.83071982  0.16760371  0.83208759  1
  Cr  Cr48  1  0.83185824  0.49811993  0.49954958  1
  Fe  Fe49  1  0.66617503  0.33185387  0.66795587  1
  Fe  Fe50  1  0.83127604  0.49594828  0.83216975  1
  Fe  Fe51  1  0.83180840  0.83527904  0.49880403  1
  Fe  Fe52  1  0.66522895  0.66530265  0.66615766  1
  Cr  Cr53  1  0.83136315  0.83404137  0.83324646  1
" 