7511,Ni11Fe38Cr49_17,-218.171681494689, 177.501867144499,Ni11Fe38Cr49,"# generated using pymatgen
 data_Cr14Fe10Ni3
_symmetry_space_group_name_H-M   'P 1'
_cell_length_a   7.52589110
_cell_length_b   7.52589110
_cell_length_c   10.64321726
_cell_angle_alpha   90.00000000
_cell_angle_beta   90.00000000
_cell_angle_gamma   90.00000000
_symmetry_Int_Tables_number   1
_chemical_formula_structural   Cr14Fe10Ni3
_chemical_formula_sum   'Cr28 Fe20 Ni6'
_cell_volume   602.82157412
_cell_formula_units_Z   2
loop_
 _symmetry_equiv_pos_site_id
 _symmetry_equiv_pos_as_xyz
  1  'x, y, z'
loop_
 _atom_site_type_symbol
 _atom_site_label
 _atom_site_symmetry_multiplicity
 _atom_site_fract_x
 _atom_site_fract_y
 _atom_site_fract_z
 _atom_site_occupancy
  Cr  Cr0  1  0.99422788  -0.00289602  -0.00387578  1
  Cr  Cr1  1  0.16424737  0.16324084  0.16347055  1
  Fe  Fe2  1  0.99444488  -0.00290232  0.33093193  1
  Cr  Cr3  1  0.99169743  0.32913195  0.99347246  1
  Cr  Cr4  1  0.16331215  0.49552890  0.16069424  1
  Cr  Cr5  1  0.99406497  0.32622288  0.33069954  1
  Cr  Cr6  1  0.99432053  0.66220651  0.99303233  1
  Cr  Cr7  1  0.16218942  0.82867528  0.16119358  1
  Cr  Cr8  1  0.99510476  0.66119446  0.33013981  1
  Cr  Cr9  1  0.33173972  0.99291032  0.99243976  1
  Cr  Cr10  1  0.49801441  0.16446904  0.16138397  1
  Cr  Cr11  1  0.32995460  0.99599708  0.33107252  1
  Cr  Cr12  1  0.33172648  0.33062140  0.99415984  1
  Fe  Fe13  1  0.49776375  0.49498809  0.16172162  1
  Fe  Fe14  1  0.33136575  0.33011701  0.33054414  1
  Fe  Fe15  1  0.33130881  0.66181408  0.99360201  1
  Fe  Fe16  1  0.49530614  0.83003210  0.16228686  1
  Cr  Cr17  1  0.33272100  0.66164978  0.32803095  1
  Cr  Cr18  1  0.66326430  -0.00352560  0.99520925  1
  Fe  Fe19  1  0.82813953  0.16470837  0.16243860  1
  Fe  Fe20  1  0.66433769  -0.00133872  0.32953559  1
  Ni  Ni21  1  0.66279289  0.33084567  0.99584393  1
  Fe  Fe22  1  0.82730528  0.49290706  0.16264319  1
  Fe  Fe23  1  0.66197151  0.32934251  0.32973011  1
  Cr  Cr24  1  0.66132759  0.66210343  -0.00336004  1
  Cr  Cr25  1  0.82840941  0.82957797  0.16525973  1
  Cr  Cr26  1  0.66033792  0.66134464  0.32873101  1
  Ni  Ni27  1  0.16423488  0.16328230  0.49442945  1
  Cr  Cr28  1  0.99580743  -0.00197352  0.66197369  1
  Cr  Cr29  1  0.16528049  0.16379259  0.82963840  1
  Cr  Cr30  1  0.16240226  0.49546318  0.49680899  1
  Cr  Cr31  1  0.99417519  0.32874558  0.66406221  1
  Fe  Fe32  1  0.16160667  0.49801211  0.82807811  1
  Cr  Cr33  1  0.16110664  0.82944004  0.49717900  1
  Ni  Ni34  1  0.99478684  0.66417397  0.66618613  1
  Fe  Fe35  1  0.16030204  0.82907559  0.82797841  1
  Cr  Cr36  1  0.49794173  0.16393760  0.49842519  1
  Fe  Fe37  1  0.32974200  -0.00306853  0.66353350  1
  Fe  Fe38  1  0.50030483  0.16383568  0.82804083  1
  Fe  Fe39  1  0.49736537  0.49523779  0.49704951  1
  Cr  Cr40  1  0.33055742  0.32892753  0.66096146  1
  Fe  Fe41  1  0.49995256  0.49428607  0.82862050  1
  Cr  Cr42  1  0.50003006  0.83068001  0.49855188  1
  Cr  Cr43  1  0.33132070  0.66371058  0.66390291  1
  Fe  Fe44  1  0.49862011  0.83016733  0.82723929  1
  Fe  Fe45  1  0.82868018  0.16281576  0.49746132  1
  Fe  Fe46  1  0.66361107  -0.00257074  0.66592132  1
  Ni  Ni47  1  0.82471748  0.16268762  0.82943307  1
  Cr  Cr48  1  0.82705084  0.49757976  0.50021940  1
  Ni  Ni49  1  0.66220682  0.32852862  0.66414422  1
  Fe  Fe50  1  0.82634766  0.49516394  0.82752744  1
  Cr  Cr51  1  0.82796458  0.82900430  0.49780680  1
  Fe  Fe52  1  0.66403805  0.66097703  0.66588527  1
  Ni  Ni53  1  0.82734214  0.82801331  0.82680221  1
" 