7708,Ni11Fe64Cr23_13,-224.646444232431, 170.173752807289,Ni11Fe64Cr23,"# generated using pymatgen
 data_Cr7Fe17Ni3
_symmetry_space_group_name_H-M   'P 1'
_cell_length_a   7.46966155
_cell_length_b   7.46966155
_cell_length_c   10.56369667
_cell_angle_alpha   90.00000000
_cell_angle_beta   90.00000000
_cell_angle_gamma   90.00000000
_symmetry_Int_Tables_number   1
_chemical_formula_structural   Cr7Fe17Ni3
_chemical_formula_sum   'Cr14 Fe34 Ni6'
_cell_volume   589.41036802
_cell_formula_units_Z   2
loop_
 _symmetry_equiv_pos_site_id
 _symmetry_equiv_pos_as_xyz
  1  'x, y, z'
loop_
 _atom_site_type_symbol
 _atom_site_label
 _atom_site_symmetry_multiplicity
 _atom_site_fract_x
 _atom_site_fract_y
 _atom_site_fract_z
 _atom_site_occupancy
  Fe  Fe0  1  0.99899510  0.99926306  0.99880932  1
  Fe  Fe1  1  0.16475697  0.16710046  0.16793879  1
  Fe  Fe2  1  0.00058328  0.00037012  0.33198685  1
  Cr  Cr3  1  0.00107099  0.33298051  0.99590506  1
  Fe  Fe4  1  0.16746077  0.49851062  0.16887424  1
  Ni  Ni5  1  0.00231191  0.33454231  0.33484895  1
  Cr  Cr6  1  0.00115427  0.66572868  -0.00011303  1
  Fe  Fe7  1  0.16682760  0.83345838  0.16845358  1
  Fe  Fe8  1  0.00038593  0.66422807  0.33309128  1
  Cr  Cr9  1  0.33153413  0.99904686  0.99819444  1
  Cr  Cr10  1  0.50003965  0.16904936  0.16769814  1
  Fe  Fe11  1  0.33089390  0.00061678  0.33287926  1
  Fe  Fe12  1  0.33196249  0.33369836  0.99970572  1
  Fe  Fe13  1  0.49705838  0.50142830  0.16721983  1
  Fe  Fe14  1  0.33214645  0.33478144  0.33490300  1
  Fe  Fe15  1  0.33188430  0.66545840  0.00129342  1
  Fe  Fe16  1  0.49705352  0.83201786  0.16721962  1
  Fe  Fe17  1  0.33177742  0.66437668  0.33284869  1
  Cr  Cr18  1  0.66643648  0.99948928  0.99707249  1
  Fe  Fe19  1  0.83685182  0.16676703  0.16895679  1
  Cr  Cr20  1  0.66428865  0.99799700  0.33490767  1
  Cr  Cr21  1  0.66839717  0.33336413  0.00156395  1
  Fe  Fe22  1  0.83522391  0.49795938  0.16832149  1
  Fe  Fe23  1  0.66782753  0.33486179  0.33375327  1
  Cr  Cr24  1  0.66678774  0.66715066  0.00020637  1
  Fe  Fe25  1  0.83510551  0.83452954  0.16672200  1
  Cr  Cr26  1  0.66646320  0.66545457  0.33448607  1
  Fe  Fe27  1  0.16750178  0.16878013  0.49896105  1
  Cr  Cr28  1  0.00186607  0.00026881  0.66831531  1
  Fe  Fe29  1  0.16740149  0.16781930  0.83196833  1
  Ni  Ni30  1  0.16711060  0.50030456  0.50025579  1
  Fe  Fe31  1  0.00207359  0.33570503  0.66592449  1
  Fe  Fe32  1  0.16588147  0.50082348  0.82980454  1
  Cr  Cr33  1  0.16540347  0.83207503  0.49803952  1
  Ni  Ni34  1  0.00059377  0.66516951  0.66562481  1
  Fe  Fe35  1  0.16721011  0.83043892  0.83156306  1
  Fe  Fe36  1  0.49545648  0.16689684  0.50057446  1
  Fe  Fe37  1  0.33445089  -0.00013490  0.66714010  1
  Ni  Ni38  1  0.49779663  0.16637488  0.83110913  1
  Fe  Fe39  1  0.49725966  0.49999998  0.50026760  1
  Fe  Fe40  1  0.33007879  0.33299030  0.66587846  1
  Cr  Cr41  1  0.49802720  0.49894780  0.83498735  1
  Fe  Fe42  1  0.49859577  0.83223290  0.50173411  1
  Fe  Fe43  1  0.33193750  0.66581161  0.66575709  1
  Fe  Fe44  1  0.50061906  0.83261109  0.83019980  1
  Cr  Cr45  1  0.83312746  0.16614287  0.49902398  1
  Fe  Fe46  1  0.66561060  0.99745097  0.66742942  1
  Fe  Fe47  1  0.83172257  0.16710490  0.83145695  1
  Fe  Fe48  1  0.83713980  0.50121117  0.50044654  1
  Cr  Cr49  1  0.66629401  0.33394714  0.66538667  1
  Ni  Ni50  1  0.83434612  0.50204692  0.83035994  1
  Fe  Fe51  1  0.83384503  0.83051056  0.50218593  1
  Fe  Fe52  1  0.66843000  0.66817345  0.66667698  1
  Ni  Ni53  1  0.83549260  0.83261867  0.83173293  1
" 