2879,Ni11Fe64Cr23_0,-224.457281039227, 164.945237272084,Ni11Fe64Cr23,"# generated using pymatgen
 data_Cr7Fe17Ni3
_symmetry_space_group_name_H-M   'P 1'
_cell_length_a   7.47595061
_cell_length_b   7.47595061
_cell_length_c   10.57259075
_cell_angle_alpha   90.00000000
_cell_angle_beta   90.00000000
_cell_angle_gamma   90.00000000
_symmetry_Int_Tables_number   1
_chemical_formula_structural   Cr7Fe17Ni3
_chemical_formula_sum   'Cr14 Fe34 Ni6'
_cell_volume   590.90037918
_cell_formula_units_Z   2
loop_
 _symmetry_equiv_pos_site_id
 _symmetry_equiv_pos_as_xyz
  1  'x, y, z'
loop_
 _atom_site_type_symbol
 _atom_site_label
 _atom_site_symmetry_multiplicity
 _atom_site_fract_x
 _atom_site_fract_y
 _atom_site_fract_z
 _atom_site_occupancy
  Ni  Ni0  1  0.99761194  0.00252387  0.99697144  1
  Fe  Fe1  1  0.16676767  0.16568681  0.16417092  1
  Fe  Fe2  1  0.00062187  -0.00047032  0.33271259  1
  Fe  Fe3  1  0.99763592  0.32946776  0.00079313  1
  Fe  Fe4  1  0.16787570  0.49607761  0.16477774  1
  Cr  Cr5  1  0.99919850  0.33235992  0.32927332  1
  Cr  Cr6  1  0.00155950  0.66636582  -0.00029582  1
  Cr  Cr7  1  0.16664308  0.83627507  0.16472092  1
  Cr  Cr8  1  0.00100243  0.66406306  0.33488336  1
  Fe  Fe9  1  0.33286427  0.00388247  0.99859695  1
  Fe  Fe10  1  0.50008684  0.16730155  0.16582853  1
  Fe  Fe11  1  0.33242604  0.00260658  0.33421076  1
  Fe  Fe12  1  0.33430343  0.32843116  -0.00015398  1
  Fe  Fe13  1  0.50184238  0.49680411  0.16549261  1
  Fe  Fe14  1  0.33400531  0.33116677  0.33258226  1
  Cr  Cr15  1  0.33444775  0.66395036  0.00048087  1
  Cr  Cr16  1  0.50093059  0.83599631  0.16607132  1
  Cr  Cr17  1  0.33381963  0.66532868  0.33271414  1
  Ni  Ni18  1  0.66660298  0.00342798  0.99933655  1
  Fe  Fe19  1  0.83116337  0.16542335  0.16456886  1
  Fe  Fe20  1  0.66449170  0.00088974  0.33369029  1
  Ni  Ni21  1  0.66460396  0.32944775  0.99890199  1
  Fe  Fe22  1  0.82917870  0.49769721  0.16407133  1
  Fe  Fe23  1  0.66293497  0.33372857  0.33126856  1
  Fe  Fe24  1  0.66740121  0.66541806  -0.00044236  1
  Cr  Cr25  1  0.83164269  0.83362836  0.16633404  1
  Fe  Fe26  1  0.66657793  0.66394677  0.33451571  1
  Fe  Fe27  1  0.16824995  0.16537949  0.49906043  1
  Fe  Fe28  1  0.00161716  0.99681450  0.66739896  1
  Fe  Fe29  1  0.16755506  0.16389067  0.83343040  1
  Fe  Fe30  1  0.16855620  0.49680103  0.50184393  1
  Cr  Cr31  1  0.99831306  0.32943848  0.66661674  1
  Cr  Cr32  1  0.16702193  0.49764238  0.83229445  1
  Fe  Fe33  1  0.16763070  0.83566686  0.50103077  1
  Fe  Fe34  1  -0.00028489  0.66851547  0.66437926  1
  Fe  Fe35  1  0.16637865  0.83529345  0.83161855  1
  Ni  Ni36  1  0.49812262  0.16698615  0.49777403  1
  Fe  Fe37  1  0.33265842  0.00094968  0.66557676  1
  Ni  Ni38  1  0.49834548  0.16671890  0.83360042  1
  Fe  Fe39  1  0.49985287  0.49752741  0.50056599  1
  Fe  Fe40  1  0.33584809  0.33078494  0.66550256  1
  Fe  Fe41  1  0.49915518  0.49688710  0.83197998  1
  Fe  Fe42  1  0.49941397  0.83447451  0.50003822  1
  Ni  Ni43  1  0.33282180  0.66617369  0.66477247  1
  Cr  Cr44  1  0.49929416  0.83352104  0.83540450  1
  Cr  Cr45  1  0.83160754  0.16715526  0.49821315  1
  Cr  Cr46  1  0.66609044  0.00289489  0.66790231  1
  Fe  Fe47  1  0.83117216  0.16587156  0.83462149  1
  Fe  Fe48  1  0.82952299  0.49938335  0.50078889  1
  Fe  Fe49  1  0.66089889  0.33357946  0.66664546  1
  Cr  Cr50  1  0.83101427  0.49913446  0.83234170  1
  Fe  Fe51  1  0.83108578  0.83332704  0.49933901  1
  Fe  Fe52  1  0.66439630  0.66616172  0.66480681  1
  Fe  Fe53  1  0.83326694  0.83544724  0.83422282  1
" 