7515,Ni11Fe46Cr42_18,-220.503440230109, 181.861461073155,Ni11Fe46Cr42,"# generated using pymatgen
 data_Cr23Fe25Ni6
_symmetry_space_group_name_H-M   'P 1'
_cell_length_a   7.50337534
_cell_length_b   7.50337534
_cell_length_c   10.61137517
_cell_angle_alpha   90.00000000
_cell_angle_beta   90.00000000
_cell_angle_gamma   90.00000000
_symmetry_Int_Tables_number   1
_chemical_formula_structural   Cr23Fe25Ni6
_chemical_formula_sum   'Cr23 Fe25 Ni6'
_cell_volume   597.42722964
_cell_formula_units_Z   1
loop_
 _symmetry_equiv_pos_site_id
 _symmetry_equiv_pos_as_xyz
  1  'x, y, z'
loop_
 _atom_site_type_symbol
 _atom_site_label
 _atom_site_symmetry_multiplicity
 _atom_site_fract_x
 _atom_site_fract_y
 _atom_site_fract_z
 _atom_site_occupancy
  Fe  Fe0  1  -0.00236542  0.99578123  0.99666380  1
  Fe  Fe1  1  0.16479556  0.16261533  0.16365167  1
  Fe  Fe2  1  0.99662416  0.99524664  0.33013693  1
  Cr  Cr3  1  -0.00203736  0.33200013  -0.00201225  1
  Fe  Fe4  1  0.16490769  0.49921431  0.16325824  1
  Cr  Cr5  1  -0.00062432  0.33429154  0.33081087  1
  Cr  Cr6  1  0.99441609  0.66333963  -0.00167136  1
  Ni  Ni7  1  0.16346267  0.83085861  0.16318146  1
  Cr  Cr8  1  0.99695446  0.66230007  0.33006276  1
  Cr  Cr9  1  0.33045842  -0.00217482  0.99708978  1
  Fe  Fe10  1  0.49630769  0.16304651  0.16351161  1
  Cr  Cr11  1  0.33469462  0.99612972  0.32908988  1
  Fe  Fe12  1  0.33129683  0.33141767  -0.00123664  1
  Cr  Cr13  1  0.49690979  0.49782955  0.15979673  1
  Cr  Cr14  1  0.32773297  0.32961933  0.33073308  1
  Fe  Fe15  1  0.33172104  0.66590054  -0.00146354  1
  Fe  Fe16  1  0.49720296  0.83028997  0.16356719  1
  Fe  Fe17  1  0.33001798  0.66464128  0.32966875  1
  Cr  Cr18  1  0.66143410  0.99417663  -0.00186745  1
  Cr  Cr19  1  0.83078683  0.16131367  0.16592021  1
  Fe  Fe20  1  0.66557855  0.99530471  0.33124628  1
  Fe  Fe21  1  0.66493069  0.33268261  -0.00211036  1
  Fe  Fe22  1  0.83067654  0.49977109  0.16263802  1
  Cr  Cr23  1  0.66536595  0.33036183  0.32952833  1
  Ni  Ni24  1  0.66482801  0.66416433  0.99690729  1
  Fe  Fe25  1  0.83124457  0.83024526  0.16430003  1
  Cr  Cr26  1  0.66557773  0.66892607  0.33078906  1
  Cr  Cr27  1  0.16192145  0.16261420  0.49851866  1
  Ni  Ni28  1  0.99511574  0.99487631  0.66763576  1
  Fe  Fe29  1  0.16267581  0.16307716  0.83033574  1
  Fe  Fe30  1  0.16435734  0.49970136  0.49972481  1
  Cr  Cr31  1  -0.00199159  0.33330937  0.66388068  1
  Cr  Cr32  1  0.16751438  0.50084269  0.82929556  1
  Cr  Cr33  1  0.16089945  0.82875282  0.49886707  1
  Ni  Ni34  1  0.99584241  0.66504114  0.66448876  1
  Fe  Fe35  1  0.16286982  0.83143706  0.83008849  1
  Cr  Cr36  1  0.50070587  0.16545748  0.49792396  1
  Cr  Cr37  1  0.33354741  0.99713316  0.66635496  1
  Cr  Cr38  1  0.49996489  0.16781569  0.83071619  1
  Cr  Cr39  1  0.49437340  0.49896613  0.50164487  1
  Fe  Fe40  1  0.33015594  0.33124680  0.66418429  1
  Cr  Cr41  1  0.49891838  0.49863263  0.83143382  1
  Fe  Fe42  1  0.50085235  0.83108143  0.49872433  1
  Fe  Fe43  1  0.32970551  0.66583059  0.66440139  1
  Fe  Fe44  1  0.49901155  0.82883393  0.83041149  1
  Cr  Cr45  1  0.83045145  0.15813005  0.49805731  1
  Ni  Ni46  1  0.66465838  0.99426803  0.66316768  1
  Fe  Fe47  1  0.83150168  0.16290123  0.82948726  1
  Cr  Cr48  1  0.82979798  0.49964908  0.49991226  1
  Fe  Fe49  1  0.66575118  0.32959772  0.66545378  1
  Fe  Fe50  1  0.82908271  0.49892191  0.83015566  1
  Ni  Ni51  1  0.83134674  0.83287684  0.49888754  1
  Fe  Fe52  1  0.66691833  0.66845431  0.66515387  1
  Fe  Fe53  1  0.83043165  0.83053645  0.82818240  1
" 