3383,Ni11Fe38Cr49_3,-218.265335132046, 180.490511897722,Ni11Fe38Cr49,"# generated using pymatgen
 data_Cr14Fe10Ni3
_symmetry_space_group_name_H-M   'P 1'
_cell_length_a   7.52510441
_cell_length_b   7.52510441
_cell_length_c   10.64210471
_cell_angle_alpha   90.00000000
_cell_angle_beta   90.00000000
_cell_angle_gamma   90.00000000
_symmetry_Int_Tables_number   1
_chemical_formula_structural   Cr14Fe10Ni3
_chemical_formula_sum   'Cr28 Fe20 Ni6'
_cell_volume   602.63255326
_cell_formula_units_Z   2
loop_
 _symmetry_equiv_pos_site_id
 _symmetry_equiv_pos_as_xyz
  1  'x, y, z'
loop_
 _atom_site_type_symbol
 _atom_site_label
 _atom_site_symmetry_multiplicity
 _atom_site_fract_x
 _atom_site_fract_y
 _atom_site_fract_z
 _atom_site_occupancy
  Fe  Fe0  1  -0.00285009  -0.00102556  0.99417648  1
  Cr  Cr1  1  0.15880824  0.16160433  0.16012627  1
  Fe  Fe2  1  0.99537478  0.99519143  0.32892767  1
  Ni  Ni3  1  -0.00348915  0.32764329  0.99341555  1
  Cr  Cr4  1  0.16202164  0.49555704  0.16154601  1
  Cr  Cr5  1  -0.00381070  0.33042772  0.32892698  1
  Cr  Cr6  1  0.99584968  0.66350753  -0.00383750  1
  Fe  Fe7  1  0.16190558  0.83064527  0.16162597  1
  Cr  Cr8  1  -0.00330952  0.66583171  0.32937839  1
  Fe  Fe9  1  0.32534370  -0.00252748  0.99515497  1
  Cr  Cr10  1  0.49737760  0.16364120  0.16240756  1
  Cr  Cr11  1  0.32818204  -0.00258975  0.32999781  1
  Ni  Ni12  1  0.32699980  0.32734574  0.99542010  1
  Cr  Cr13  1  0.49753319  0.49642878  0.16115651  1
  Cr  Cr14  1  0.33214731  0.32936094  0.33260467  1
  Fe  Fe15  1  0.32739102  0.66212669  -0.00382998  1
  Cr  Cr16  1  0.49471996  0.82836794  0.16001906  1
  Cr  Cr17  1  0.32652506  0.66156399  0.33037867  1
  Cr  Cr18  1  0.66455837  -0.00256351  0.99454532  1
  Fe  Fe19  1  0.82979784  0.16472037  0.16157032  1
  Cr  Cr20  1  0.66449362  -0.00187985  0.33059115  1
  Fe  Fe21  1  0.66577559  0.32907775  0.99594871  1
  Fe  Fe22  1  0.82914551  0.49295084  0.16223339  1
  Ni  Ni23  1  0.66301951  0.32846647  0.32815714  1
  Cr  Cr24  1  0.66563556  0.66230228  0.99520231  1
  Fe  Fe25  1  0.83172611  0.83106210  0.16268371  1
  Cr  Cr26  1  0.66521465  0.66185770  0.32917642  1
  Cr  Cr27  1  0.16174008  0.16353646  0.49815240  1
  Cr  Cr28  1  -0.00362303  0.99515297  0.66536387  1
  Ni  Ni29  1  0.15957217  0.16286133  0.83025357  1
  Fe  Fe30  1  0.16465627  0.49638506  0.49859028  1
  Fe  Fe31  1  -0.00269348  0.32817479  0.66545020  1
  Cr  Cr32  1  0.16236477  0.49330600  0.82814063  1
  Fe  Fe33  1  0.16173867  0.82921685  0.49683933  1
  Cr  Cr34  1  -0.00323936  0.66309939  0.66289540  1
  Fe  Fe35  1  0.16303330  0.83254183  0.83019323  1
  Fe  Fe36  1  0.49602687  0.16540924  0.49684560  1
  Fe  Fe37  1  0.32786680  -0.00234120  0.66327227  1
  Cr  Cr38  1  0.49392734  0.16213798  0.82963981  1
  Fe  Fe39  1  0.49504442  0.49331466  0.49692013  1
  Ni  Ni40  1  0.32755502  0.32891883  0.66064164  1
  Cr  Cr41  1  0.49529798  0.49799263  0.83121190  1
  Cr  Cr42  1  0.49554233  0.82861979  0.49843305  1
  Fe  Fe43  1  0.32854328  0.66168259  0.66152183  1
  Cr  Cr44  1  0.49367012  0.82827461  0.82999060  1
  Cr  Cr45  1  0.83049475  0.16289326  0.49392415  1
  Cr  Cr46  1  0.66326767  -0.00338918  0.66314045  1
  Ni  Ni47  1  0.83463431  0.16399701  0.83176842  1
  Cr  Cr48  1  0.83008113  0.49500704  0.49630685  1
  Cr  Cr49  1  0.66067863  0.32808227  0.66412563  1
  Fe  Fe50  1  0.83095465  0.49207490  0.83031430  1
  Fe  Fe51  1  0.83153364  0.83027897  0.49576872  1
  Cr  Cr52  1  0.66521997  0.66370375  0.66414617  1
  Fe  Fe53  1  0.83171758  0.83166600  0.83013869  1
" 