6833,Ni11Fe46Cr42_13,-220.386594731306, 173.151593874446,Ni11Fe46Cr42,"# generated using pymatgen
 data_Cr23Fe25Ni6
_symmetry_space_group_name_H-M   'P 1'
_cell_length_a   7.50174111
_cell_length_b   7.50174111
_cell_length_c   10.60906402
_cell_angle_alpha   90.00000000
_cell_angle_beta   90.00000000
_cell_angle_gamma   90.00000000
_symmetry_Int_Tables_number   1
_chemical_formula_structural   Cr23Fe25Ni6
_chemical_formula_sum   'Cr23 Fe25 Ni6'
_cell_volume   597.03695654
_cell_formula_units_Z   1
loop_
 _symmetry_equiv_pos_site_id
 _symmetry_equiv_pos_as_xyz
  1  'x, y, z'
loop_
 _atom_site_type_symbol
 _atom_site_label
 _atom_site_symmetry_multiplicity
 _atom_site_fract_x
 _atom_site_fract_y
 _atom_site_fract_z
 _atom_site_occupancy
  Fe  Fe0  1  -0.00185199  -0.00197980  0.99657500  1
  Fe  Fe1  1  0.16116723  0.16555296  0.16353098  1
  Fe  Fe2  1  -0.00187888  0.99692138  0.33098544  1
  Ni  Ni3  1  -0.00226996  0.33218380  0.99702435  1
  Cr  Cr4  1  0.16184392  0.49943442  0.16577237  1
  Ni  Ni5  1  0.99656398  0.33196950  0.32978229  1
  Fe  Fe6  1  0.99556737  0.66349178  0.99671427  1
  Cr  Cr7  1  0.16347921  0.83034550  0.16440143  1
  Fe  Fe8  1  0.99652000  0.66465016  0.33118229  1
  Fe  Fe9  1  0.32918732  0.99742199  -0.00227304  1
  Cr  Cr10  1  0.49981797  0.16277316  0.16193174  1
  Cr  Cr11  1  0.33005475  0.99657011  0.32947409  1
  Cr  Cr12  1  0.32723777  0.33086918  0.99648519  1
  Cr  Cr13  1  0.49856061  0.49877225  0.16001988  1
  Cr  Cr14  1  0.32996185  0.33021600  0.33063676  1
  Fe  Fe15  1  0.32952703  0.66558990  0.99656048  1
  Fe  Fe16  1  0.49995756  0.83026341  0.16016603  1
  Cr  Cr17  1  0.33417078  0.66671189  0.33127240  1
  Ni  Ni18  1  0.66559038  0.99173415  0.99713919  1
  Cr  Cr19  1  0.83129308  0.16442811  0.16395289  1
  Cr  Cr20  1  0.66277207  0.99406660  0.33252488  1
  Fe  Fe21  1  0.66767449  0.33221861  0.99662669  1
  Ni  Ni22  1  0.83325019  0.49827296  0.16385010  1
  Cr  Cr23  1  0.66499591  0.33414045  0.33254424  1
  Fe  Fe24  1  0.66837210  0.66255645  0.99695523  1
  Fe  Fe25  1  0.83089057  0.82922128  0.16225609  1
  Cr  Cr26  1  0.66513287  0.66491024  0.32954090  1
  Cr  Cr27  1  0.16290710  0.16412228  0.49614145  1
  Cr  Cr28  1  -0.00059595  0.99590791  0.66774851  1
  Fe  Fe29  1  0.16420161  0.16417857  0.83228742  1
  Cr  Cr30  1  0.16341276  0.50109107  0.49688140  1
  Cr  Cr31  1  -0.00121196  0.33203908  0.66697354  1
  Fe  Fe32  1  0.16396354  0.49959504  0.83190596  1
  Ni  Ni33  1  0.16599751  0.82936881  0.49944767  1
  Fe  Fe34  1  -0.00132209  0.66400571  0.66672425  1
  Fe  Fe35  1  0.16308210  0.82906281  0.83184105  1
  Fe  Fe36  1  0.49550066  0.16262083  0.49982922  1
  Fe  Fe37  1  0.33116186  0.99674967  0.66333295  1
  Cr  Cr38  1  0.49874459  0.16382832  0.82985270  1
  Fe  Fe39  1  0.49631635  0.49902532  0.49866072  1
  Fe  Fe40  1  0.33084560  0.33217687  0.66493560  1
  Fe  Fe41  1  0.49895129  0.49833537  0.83227750  1
  Fe  Fe42  1  0.49538099  0.83162261  0.50053433  1
  Fe  Fe43  1  0.32930910  0.66449057  0.66491904  1
  Cr  Cr44  1  0.49599029  0.83104617  0.83231472  1
  Cr  Cr45  1  0.82930261  0.16470623  0.49750627  1
  Fe  Fe46  1  0.66360230  0.99698942  0.66431710  1
  Cr  Cr47  1  0.82894701  0.16394027  0.83257474  1
  Fe  Fe48  1  0.83434609  0.49908072  0.49699256  1
  Cr  Cr49  1  0.66445937  0.33419698  0.66302931  1
  Ni  Ni50  1  0.83352697  0.49899996  0.83269193  1
  Cr  Cr51  1  0.83445115  0.83091097  0.49869568  1
  Cr  Cr52  1  0.66529615  0.66470276  0.66433777  1
  Fe  Fe53  1  0.83097718  0.82903162  0.83274682  1
" 