2403,Ni11Fe64Cr23_4,-224.87491874888, 171.229990041481,Ni11Fe64Cr23,"# generated using pymatgen
 data_Cr7Fe17Ni3
_symmetry_space_group_name_H-M   'P 1'
_cell_length_a   7.47081784
_cell_length_b   7.47081784
_cell_length_c   10.56533191
_cell_angle_alpha   90.00000000
_cell_angle_beta   90.00000000
_cell_angle_gamma   90.00000000
_symmetry_Int_Tables_number   1
_chemical_formula_structural   Cr7Fe17Ni3
_chemical_formula_sum   'Cr14 Fe34 Ni6'
_cell_volume   589.68412887
_cell_formula_units_Z   2
loop_
 _symmetry_equiv_pos_site_id
 _symmetry_equiv_pos_as_xyz
  1  'x, y, z'
loop_
 _atom_site_type_symbol
 _atom_site_label
 _atom_site_symmetry_multiplicity
 _atom_site_fract_x
 _atom_site_fract_y
 _atom_site_fract_z
 _atom_site_occupancy
  Fe  Fe0  1  0.99863989  0.99850231  0.99828391  1
  Fe  Fe1  1  0.16340250  0.16378434  0.16824054  1
  Fe  Fe2  1  0.00124786  0.00144068  0.33412516  1
  Cr  Cr3  1  0.00079334  0.33065019  0.00056833  1
  Cr  Cr4  1  0.16783737  0.50176774  0.16633289  1
  Fe  Fe5  1  0.99762349  0.33135096  0.33536799  1
  Fe  Fe6  1  0.00072632  0.66889210  0.99817630  1
  Fe  Fe7  1  0.16729562  0.83400434  0.16761530  1
  Fe  Fe8  1  0.00088491  0.66655119  0.33521684  1
  Cr  Cr9  1  0.33122804  0.99965885  0.00058173  1
  Cr  Cr10  1  0.50056661  0.16788511  0.16652596  1
  Fe  Fe11  1  0.33134145  0.99823602  0.33420362  1
  Fe  Fe12  1  0.33388768  0.33384965  0.99965797  1
  Fe  Fe13  1  0.50024056  0.50131319  0.16502815  1
  Cr  Cr14  1  0.33090285  0.33133865  0.33357686  1
  Fe  Fe15  1  0.33321247  0.66649896  0.99888005  1
  Fe  Fe16  1  0.49808047  0.83026302  0.16560036  1
  Fe  Fe17  1  0.33250879  0.66879279  0.33423796  1
  Fe  Fe18  1  0.66773270  0.99962237  0.99815392  1
  Fe  Fe19  1  0.83435838  0.16649123  0.16715735  1
  Cr  Cr20  1  0.66543367  0.99970353  0.33546706  1
  Fe  Fe21  1  0.66541715  0.33229457  0.99967694  1
  Cr  Cr22  1  0.83136115  0.49948668  0.16740523  1
  Ni  Ni23  1  0.66946258  0.33262199  0.33272880  1
  Ni  Ni24  1  0.66460359  0.66817578  0.00082075  1
  Cr  Cr25  1  0.83551891  0.83457634  0.16377989  1
  Cr  Cr26  1  0.66574055  0.66560027  0.33414231  1
  Ni  Ni27  1  0.16459530  0.16497763  0.49919484  1
  Fe  Fe28  1  0.99852028  0.00059753  0.66597514  1
  Fe  Fe29  1  0.16541629  0.16792582  0.83089710  1
  Fe  Fe30  1  0.16445174  0.49962585  0.50119993  1
  Ni  Ni31  1  0.00075409  0.33198485  0.66437431  1
  Fe  Fe32  1  0.16638580  0.50019752  0.83155015  1
  Fe  Fe33  1  0.16614456  0.83243750  0.49926770  1
  Fe  Fe34  1  0.00210919  0.66579420  0.66550911  1
  Fe  Fe35  1  0.16529190  0.83090021  0.83253832  1
  Fe  Fe36  1  0.50042903  0.16680554  0.50017292  1
  Cr  Cr37  1  0.33366058  -0.00023678  0.66497456  1
  Fe  Fe38  1  0.50189395  0.16635781  0.83282527  1
  Cr  Cr39  1  0.49952315  0.49747554  0.50016732  1
  Fe  Fe40  1  0.33144534  0.33374400  0.66564736  1
  Cr  Cr41  1  0.49779402  0.49772345  0.83481294  1
  Fe  Fe42  1  0.49658971  0.83443197  0.50011724  1
  Ni  Ni43  1  0.33068294  0.66799256  0.66681175  1
  Fe  Fe44  1  0.50064160  0.83263106  0.83366929  1
  Fe  Fe45  1  0.83401509  0.16842075  0.50077906  1
  Fe  Fe46  1  0.66809999  0.00190817  0.66608176  1
  Fe  Fe47  1  0.83238262  0.16554922  0.83133281  1
  Fe  Fe48  1  0.83629285  0.49620737  0.50007163  1
  Ni  Ni49  1  0.66952040  0.33048724  0.66549927  1
  Cr  Cr50  1  0.83361289  0.50113739  0.83245712  1
  Fe  Fe51  1  0.83654266  0.83455680  0.50008266  1
  Cr  Cr52  1  0.66652079  0.66856611  0.66415525  1
  Fe  Fe53  1  0.83300852  0.83482200  0.83465719  1
" 