10,Ni11Cr89_17,-236.176594936634, 164.495214840861,Ni11Cr89,"# generated using pymatgen
 data_Cr5Ni49
_symmetry_space_group_name_H-M   'P 1'
_cell_length_a   7.47029539
_cell_length_b   7.47029539
_cell_length_c   10.56459306
_cell_angle_alpha   90.00000000
_cell_angle_beta   90.00000000
_cell_angle_gamma   90.00000000
_symmetry_Int_Tables_number   1
_chemical_formula_structural   Cr5Ni49
_chemical_formula_sum   'Cr5 Ni49'
_cell_volume   589.56042442
_cell_formula_units_Z   1
loop_
 _symmetry_equiv_pos_site_id
 _symmetry_equiv_pos_as_xyz
  1  'x, y, z'
loop_
 _atom_site_type_symbol
 _atom_site_label
 _atom_site_symmetry_multiplicity
 _atom_site_fract_x
 _atom_site_fract_y
 _atom_site_fract_z
 _atom_site_occupancy
  Ni  Ni0  1  0.99969528  -0.00013004  -0.00014899  1
  Ni  Ni1  1  0.16620363  0.16569129  0.16664501  1
  Ni  Ni2  1  0.00093481  0.99863043  0.33232885  1
  Ni  Ni3  1  -0.00007348  0.33308766  0.99966476  1
  Ni  Ni4  1  0.16636124  0.50030982  0.16635762  1
  Ni  Ni5  1  0.00214182  0.33331637  0.33136117  1
  Ni  Ni6  1  0.99969999  0.66638736  0.99966254  1
  Ni  Ni7  1  0.16621922  0.83334603  0.16607736  1
  Ni  Ni8  1  0.00081898  0.66734124  0.33244952  1
  Ni  Ni9  1  0.33317788  -0.00013475  0.99966254  1
  Ni  Ni10  1  0.49939472  0.16596007  0.16623071  1
  Ni  Ni11  1  0.33222400  0.99874627  0.33244952  1
  Ni  Ni12  1  0.33189725  0.33205417  0.00074860  1
  Ni  Ni13  1  0.49939520  0.50017004  0.16661834  1
  Ni  Ni14  1  0.33077461  0.33307012  0.33145746  1
  Ni  Ni15  1  0.33207567  0.66748957  0.00080046  1
  Ni  Ni16  1  0.49925542  0.83320400  0.16635762  1
  Ni  Ni17  1  0.33203805  0.66752719  0.33247953  1
  Ni  Ni18  1  0.66647758  0.99963872  0.99966476  1
  Ni  Ni19  1  0.83373645  0.16582879  0.16650797  1
  Ni  Ni20  1  0.66624887  0.99742342  0.33136117  1
  Ni  Ni21  1  0.66746412  0.33210112  0.00068985  1
  Ni  Ni22  1  0.83360517  0.50017052  0.16623071  1
  Ni  Ni23  1  0.66648868  0.33307656  0.32872954  1
  Ni  Ni24  1  0.66751107  0.66766799  0.00074860  1
  Ni  Ni25  1  0.83387395  0.83336161  0.16664501  1
  Ni  Ni26  1  0.66649512  0.66879063  0.33145746  1
  Ni  Ni27  1  0.16634623  0.16577117  0.49964654  1
  Ni  Ni28  1  0.00082102  0.99874422  0.66705122  1
  Ni  Ni29  1  0.16622241  0.16569056  0.83305845  1
  Ni  Ni30  1  0.16636342  0.50021105  0.49994097  1
  Ni  Ni31  1  0.00212111  0.33304030  0.66821883  1
  Ni  Ni32  1  0.16483939  0.50030973  0.83304703  1
  Ni  Ni33  1  0.16618706  0.83337818  0.49964555  1
  Ni  Ni34  1  0.00086605  0.66751992  0.66724517  1
  Ni  Ni35  1  0.16622781  0.83333743  0.83362637  1
  Cr  Cr36  1  0.49855271  0.16496285  0.50002971  1
  Ni  Ni37  1  0.33204532  0.99869919  0.66724517  1
  Ni  Ni38  1  0.49939034  0.16475911  0.83319327  1
  Cr  Cr39  1  0.49839168  0.50117356  0.49980594  1
  Ni  Ni40  1  0.32963636  0.33203089  0.66725630  1
  Cr  Cr41  1  0.49883249  0.50073275  0.83323079  1
  Ni  Ni42  1  0.49935419  0.83320182  0.49994097  1
  Ni  Ni43  1  0.33089720  0.66866804  0.66617477  1
  Ni  Ni44  1  0.49925551  0.83472585  0.83304703  1
  Cr  Cr45  1  0.83526505  0.16430019  0.49916344  1
  Ni  Ni46  1  0.66652494  0.99744413  0.66821883  1
  Ni  Ni47  1  0.83373369  0.16583155  0.83318545  1
  Cr  Cr48  1  0.83460239  0.50101253  0.50002971  1
  Ni  Ni49  1  0.66764060  0.33192464  0.66986773  1
  Ni  Ni50  1  0.83480613  0.50017490  0.83319327  1
  Ni  Ni51  1  0.83379407  0.83321901  0.49964654  1
  Ni  Ni52  1  0.66753435  0.66992888  0.66725630  1
  Ni  Ni53  1  0.83387468  0.83334283  0.83305845  1
" 