509,Ni11Fe64Cr23_5,-224.511795691581, 163.4417478417,Ni11Fe64Cr23,"# generated using pymatgen
 data_Cr7Fe17Ni3
_symmetry_space_group_name_H-M   'P 1'
_cell_length_a   7.47520495
_cell_length_b   7.47520495
_cell_length_c   10.57153622
_cell_angle_alpha   90.00000000
_cell_angle_beta   90.00000000
_cell_angle_gamma   90.00000000
_symmetry_Int_Tables_number   1
_chemical_formula_structural   Cr7Fe17Ni3
_chemical_formula_sum   'Cr14 Fe34 Ni6'
_cell_volume   590.72358542
_cell_formula_units_Z   2
loop_
 _symmetry_equiv_pos_site_id
 _symmetry_equiv_pos_as_xyz
  1  'x, y, z'
loop_
 _atom_site_type_symbol
 _atom_site_label
 _atom_site_symmetry_multiplicity
 _atom_site_fract_x
 _atom_site_fract_y
 _atom_site_fract_z
 _atom_site_occupancy
  Fe  Fe0  1  0.99776057  0.00028536  0.00005154  1
  Fe  Fe1  1  0.16428227  0.16550455  0.16553773  1
  Fe  Fe2  1  0.99906784  0.99915895  0.33283903  1
  Fe  Fe3  1  0.99907579  0.33299801  0.99908576  1
  Cr  Cr4  1  0.16731773  0.50137044  0.16480674  1
  Cr  Cr5  1  0.99785066  0.33039468  0.33324766  1
  Fe  Fe6  1  0.99840054  0.66507743  0.99891242  1
  Cr  Cr7  1  0.16495751  0.83186397  0.16694783  1
  Fe  Fe8  1  0.99794798  0.66711943  0.33344301  1
  Cr  Cr9  1  0.33281870  0.99906156  0.99831878  1
  Cr  Cr10  1  0.50179397  0.16750778  0.16661335  1
  Fe  Fe11  1  0.33312790  0.99839456  0.33323263  1
  Fe  Fe12  1  0.33322454  0.33511867  0.99845943  1
  Fe  Fe13  1  0.50068658  0.50234211  0.16541407  1
  Cr  Cr14  1  0.33238836  0.33212578  0.33171681  1
  Ni  Ni15  1  0.33645021  0.66410722  0.99895958  1
  Fe  Fe16  1  0.50066753  0.82984132  0.16584523  1
  Ni  Ni17  1  0.33609128  0.66855613  0.33124223  1
  Fe  Fe18  1  0.66644132  0.99786258  0.99857288  1
  Fe  Fe19  1  0.83376228  0.16551557  0.16556315  1
  Fe  Fe20  1  0.66616812  0.99869730  0.33396896  1
  Fe  Fe21  1  0.66606648  0.33448463  0.99897533  1
  Fe  Fe22  1  0.83069231  0.50029645  0.16522242  1
  Fe  Fe23  1  0.66678855  0.33334648  0.33279405  1
  Ni  Ni24  1  0.66450288  0.66530399  0.00079343  1
  Fe  Fe25  1  0.83136601  0.83254595  0.16564453  1
  Fe  Fe26  1  0.66602104  0.66631954  0.33180573  1
  Fe  Fe27  1  0.16690860  0.16572095  0.49998981  1
  Cr  Cr28  1  0.99848982  0.00169749  0.66538026  1
  Fe  Fe29  1  0.16649604  0.16781759  0.83283102  1
  Cr  Cr30  1  0.16415219  0.50101299  0.50112451  1
  Fe  Fe31  1  0.99836753  0.33386541  0.66652888  1
  Fe  Fe32  1  0.16589639  0.49903896  0.83331687  1
  Cr  Cr33  1  0.16527642  0.83232623  0.49838600  1
  Ni  Ni34  1  0.99811313  0.66247659  0.66562197  1
  Cr  Cr35  1  0.16608346  0.83040599  0.83302885  1
  Fe  Fe36  1  0.50008087  0.16404858  0.50024191  1
  Fe  Fe37  1  0.33579794  0.00087198  0.66659917  1
  Fe  Fe38  1  0.50037890  0.16534689  0.83188538  1
  Cr  Cr39  1  0.50099151  0.49716273  0.49749794  1
  Fe  Fe40  1  0.33270201  0.33031460  0.66708525  1
  Fe  Fe41  1  0.49938457  0.49992398  0.83459598  1
  Fe  Fe42  1  0.50043651  0.83504819  0.49876287  1
  Cr  Cr43  1  0.33353116  0.66658031  0.66866698  1
  Ni  Ni44  1  0.50014636  0.83398258  0.83339848  1
  Fe  Fe45  1  0.83136902  0.16595198  0.49975187  1
  Ni  Ni46  1  0.66417307  0.00197045  0.66582416  1
  Fe  Fe47  1  0.83148564  0.16682478  0.83304646  1
  Fe  Fe48  1  0.83335635  0.49993039  0.49979831  1
  Fe  Fe49  1  0.66729155  0.33084203  0.66659055  1
  Fe  Fe50  1  0.83308447  0.49904636  0.83334424  1
  Fe  Fe51  1  0.83169104  0.83248186  0.49913273  1
  Cr  Cr52  1  0.66698545  0.66754710  0.66591767  1
  Cr  Cr53  1  0.83214722  0.83309873  0.83417376  1
" 