4264,Ni11Fe38Cr49_14,-217.82452253568, 177.221253323839,Ni11Fe38Cr49,"# generated using pymatgen
 data_Cr14Fe10Ni3
_symmetry_space_group_name_H-M   'P 1'
_cell_length_a   7.52214631
_cell_length_b   7.52214631
_cell_length_c   10.63792132
_cell_angle_alpha   90.00000000
_cell_angle_beta   90.00000000
_cell_angle_gamma   90.00000000
_symmetry_Int_Tables_number   1
_chemical_formula_structural   Cr14Fe10Ni3
_chemical_formula_sum   'Cr28 Fe20 Ni6'
_cell_volume   601.92215173
_cell_formula_units_Z   2
loop_
 _symmetry_equiv_pos_site_id
 _symmetry_equiv_pos_as_xyz
  1  'x, y, z'
loop_
 _atom_site_type_symbol
 _atom_site_label
 _atom_site_symmetry_multiplicity
 _atom_site_fract_x
 _atom_site_fract_y
 _atom_site_fract_z
 _atom_site_occupancy
  Fe  Fe0  1  -0.00230214  -0.00251360  0.99514313  1
  Cr  Cr1  1  0.16340893  0.16170210  0.15967735  1
  Fe  Fe2  1  -0.00246015  0.99569014  0.33088192  1
  Cr  Cr3  1  0.99103092  0.33063099  0.99298538  1
  Cr  Cr4  1  0.15941525  0.49309694  0.16611626  1
  Fe  Fe5  1  0.99491386  0.33133040  0.33131465  1
  Cr  Cr6  1  0.99537019  0.66143869  -0.00268491  1
  Fe  Fe7  1  0.16058809  0.83055771  0.16212899  1
  Fe  Fe8  1  0.99411956  0.66164614  0.33019306  1
  Ni  Ni9  1  0.33073750  -0.00313859  -0.00282803  1
  Fe  Fe10  1  0.49835143  0.16433654  0.16343990  1
  Cr  Cr11  1  0.33156929  0.99421947  0.32749143  1
  Cr  Cr12  1  0.33202325  0.32985127  0.99602567  1
  Cr  Cr13  1  0.50023067  0.49504111  0.16182068  1
  Fe  Fe14  1  0.32980863  0.32922949  0.32928499  1
  Cr  Cr15  1  0.32954228  0.66434305  -0.00168947  1
  Cr  Cr16  1  0.49906885  0.82991374  0.16197800  1
  Cr  Cr17  1  0.32614478  0.66325391  0.32919057  1
  Cr  Cr18  1  0.66357210  0.00047680  0.99604056  1
  Cr  Cr19  1  0.83149463  0.16451657  0.16581604  1
  Fe  Fe20  1  0.66432563  -0.00288727  0.32985873  1
  Fe  Fe21  1  0.66380403  0.33250253  0.99508251  1
  Ni  Ni22  1  0.82780065  0.49648053  0.16511727  1
  Fe  Fe23  1  0.66460404  0.33127025  0.33035949  1
  Fe  Fe24  1  0.66415677  0.66031049  0.99506670  1
  Cr  Cr25  1  0.83054189  0.82770116  0.16294214  1
  Fe  Fe26  1  0.66416513  0.66066480  0.32969930  1
  Cr  Cr27  1  0.16227866  0.16486626  0.49896784  1
  Cr  Cr28  1  0.99331684  -0.00238596  0.66539614  1
  Ni  Ni29  1  0.16171066  0.16072755  0.83018928  1
  Fe  Fe30  1  0.16092299  0.49589139  0.49435483  1
  Cr  Cr31  1  0.99243535  0.33062659  0.66350450  1
  Cr  Cr32  1  0.16439154  0.49210015  0.82769137  1
  Fe  Fe33  1  0.16166195  0.82972116  0.49575994  1
  Cr  Cr34  1  0.99629841  0.66114127  0.66134769  1
  Cr  Cr35  1  0.16264860  0.83365587  0.83189635  1
  Cr  Cr36  1  0.49416428  0.16367425  0.49472249  1
  Fe  Fe37  1  0.32757443  -0.00200495  0.66414335  1
  Cr  Cr38  1  0.49130503  0.16366113  0.82970651  1
  Cr  Cr39  1  0.49793567  0.49575074  0.49857971  1
  Fe  Fe40  1  0.32951177  0.32880756  0.66479707  1
  Ni  Ni41  1  0.50238438  0.49669882  0.82912509  1
  Cr  Cr42  1  0.49872056  0.82917581  0.49949960  1
  Cr  Cr43  1  0.32880728  0.66243904  0.66170270  1
  Cr  Cr44  1  0.49918983  0.82709120  0.82707022  1
  Fe  Fe45  1  0.82899414  0.16576952  0.49292324  1
  Cr  Cr46  1  0.66436802  -0.00085055  0.66146698  1
  Fe  Fe47  1  0.82965500  0.16429710  0.83113994  1
  Ni  Ni48  1  0.83122254  0.49671750  0.49229453  1
  Cr  Cr49  1  0.66588432  0.32871882  0.66487639  1
  Ni  Ni50  1  0.82516174  0.49878343  0.83111181  1
  Cr  Cr51  1  0.82915917  0.82813346  0.49504310  1
  Fe  Fe52  1  0.66732023  0.65968490  0.66406740  1
  Fe  Fe53  1  0.82917918  0.82767126  0.83039831  1
" 