4931,Ni11Cr89_15,-236.254833925058, 166.911866579907,Ni11Cr89,"# generated using pymatgen
 data_Cr5Ni49
_symmetry_space_group_name_H-M   'P 1'
_cell_length_a   7.47065517
_cell_length_b   7.47065517
_cell_length_c   10.56510186
_cell_angle_alpha   90.00000000
_cell_angle_beta   90.00000000
_cell_angle_gamma   90.00000000
_symmetry_Int_Tables_number   1
_chemical_formula_structural   Cr5Ni49
_chemical_formula_sum   'Cr5 Ni49'
_cell_volume   589.64561051
_cell_formula_units_Z   1
loop_
 _symmetry_equiv_pos_site_id
 _symmetry_equiv_pos_as_xyz
  1  'x, y, z'
loop_
 _atom_site_type_symbol
 _atom_site_label
 _atom_site_symmetry_multiplicity
 _atom_site_fract_x
 _atom_site_fract_y
 _atom_site_fract_z
 _atom_site_occupancy
  Ni  Ni0  1  0.00054972  0.99887811  0.00054431  1
  Ni  Ni1  1  0.16743223  0.16531827  0.16766116  1
  Ni  Ni2  1  0.99896751  0.00076620  0.33252952  1
  Cr  Cr3  1  0.99955667  0.33308671  0.99954728  1
  Ni  Ni4  1  0.16726350  0.50081586  0.16748944  1
  Ni  Ni5  1  -0.00002801  0.33287200  0.33367176  1
  Ni  Ni6  1  0.00055111  0.66731086  0.00054567  1
  Ni  Ni7  1  0.16625492  0.83314180  0.16612203  1
  Ni  Ni8  1  0.99896863  0.66563768  0.33230459  1
  Ni  Ni9  1  0.33322304  0.99940752  0.99953479  1
  Ni  Ni10  1  0.49975861  0.16632850  0.16629261  1
  Ni  Ni11  1  0.33224463  0.00059686  0.33066585  1
  Ni  Ni12  1  0.33476277  0.33309231  -0.00023908  1
  Ni  Ni13  1  0.49975875  0.49963867  0.16665258  1
  Ni  Ni14  1  0.33208210  0.33388637  0.33252664  1
  Ni  Ni15  1  0.33323018  0.66677593  0.99953466  1
  Ni  Ni16  1  0.49975847  0.83330855  0.16651852  1
  Ni  Ni17  1  0.33326216  0.66479321  0.33168508  1
  Ni  Ni18  1  0.66550412  0.00040955  0.00054227  1
  Ni  Ni19  1  0.83208527  0.16532065  0.16732050  1
  Ni  Ni20  1  0.66806282  0.99958900  0.33168554  1
  Ni  Ni21  1  0.66496765  0.33309279  0.99953485  1
  Ni  Ni22  1  0.83225351  0.50081397  0.16714944  1
  Ni  Ni23  1  0.66722043  0.33388331  0.33230324  1
  Ni  Ni24  1  0.66549559  0.66577246  0.00054377  1
  Ni  Ni25  1  0.83326139  0.83314166  0.16684217  1
  Ni  Ni26  1  0.66704590  0.66580326  0.33269975  1
  Ni  Ni27  1  0.16456206  0.16818572  0.49981431  1
  Ni  Ni28  1  0.99975693  0.00155432  0.66620515  1
  Ni  Ni29  1  0.16761357  0.16550098  0.83180047  1
  Ni  Ni30  1  0.16611151  0.49813522  0.49981441  1
  Ni  Ni31  1  -0.00024078  0.33287240  0.66606968  1
  Ni  Ni32  1  0.16744480  0.50063344  0.83197201  1
  Cr  Cr33  1  0.16500046  0.83311744  0.49997098  1
  Ni  Ni34  1  0.99975853  0.66484821  0.66642870  1
  Ni  Ni35  1  0.16814643  0.83314161  0.83316835  1
  Cr  Cr36  1  0.49955096  0.16783021  0.49958290  1
  Ni  Ni37  1  0.33224608  0.00038559  0.66907169  1
  Ni  Ni38  1  0.49957658  0.16651044  0.83316897  1
  Ni  Ni39  1  0.49994056  0.49966787  0.49981446  1
  Ni  Ni40  1  0.33208472  0.33388344  0.66698534  1
  Ni  Ni41  1  0.49957673  0.49945699  0.83280896  1
  Cr  Cr42  1  0.50120381  0.83185207  0.49997138  1
  Ni  Ni43  1  0.33326158  0.66500710  0.66805522  1
  Ni  Ni44  1  0.49787319  0.83330845  0.83277245  1
  Ni  Ni45  1  0.83476164  0.16647225  0.49998378  1
  Ni  Ni46  1  0.66727195  0.00037844  0.66704738  1
  Ni  Ni47  1  0.83208494  0.16720601  0.83197131  1
  Ni  Ni48  1  0.83322386  0.49984370  0.49998385  1
  Ni  Ni49  1  0.66743079  0.33388185  0.66743534  1
  Ni  Ni50  1  0.83225327  0.49892219  0.83214211  1
  Ni  Ni51  1  0.83323558  0.83295965  0.49962434  1
  Ni  Ni52  1  0.66625732  0.66501440  0.66603512  1
  Cr  Cr53  1  0.83348101  0.83290972  0.83305420  1
" 