6878,Ni11Fe64Cr23_16,-224.723782894358, 171.649215624056,Ni11Fe64Cr23,"# generated using pymatgen
 data_Cr7Fe17Ni3
_symmetry_space_group_name_H-M   'P 1'
_cell_length_a   7.46874134
_cell_length_b   7.46874134
_cell_length_c   10.56239530
_cell_angle_alpha   90.00000000
_cell_angle_beta   90.00000000
_cell_angle_gamma   90.00000000
_symmetry_Int_Tables_number   1
_chemical_formula_structural   Cr7Fe17Ni3
_chemical_formula_sum   'Cr14 Fe34 Ni6'
_cell_volume   589.19256129
_cell_formula_units_Z   2
loop_
 _symmetry_equiv_pos_site_id
 _symmetry_equiv_pos_as_xyz
  1  'x, y, z'
loop_
 _atom_site_type_symbol
 _atom_site_label
 _atom_site_symmetry_multiplicity
 _atom_site_fract_x
 _atom_site_fract_y
 _atom_site_fract_z
 _atom_site_occupancy
  Fe  Fe0  1  0.99815039  0.00106788  0.99924951  1
  Fe  Fe1  1  0.16930327  0.16628630  0.16637398  1
  Cr  Cr2  1  0.00087604  0.00022047  0.32966337  1
  Cr  Cr3  1  0.00054792  0.33465036  0.00059586  1
  Fe  Fe4  1  0.16728078  0.50194085  0.16636189  1
  Fe  Fe5  1  0.00224529  0.33320023  0.32938396  1
  Fe  Fe6  1  0.99834781  0.66599519  0.99946855  1
  Fe  Fe7  1  0.16785015  0.83166493  0.16508412  1
  Fe  Fe8  1  0.00037834  0.66526758  0.33090484  1
  Fe  Fe9  1  0.33333966  0.00247541  0.00114074  1
  Fe  Fe10  1  0.49835731  0.16748882  0.16451368  1
  Ni  Ni11  1  0.33143058  0.99905744  0.33556092  1
  Fe  Fe12  1  0.33559772  0.33287632  0.99879827  1
  Fe  Fe13  1  0.50018976  0.49961043  0.16545888  1
  Fe  Fe14  1  0.33196483  0.32881877  0.33074769  1
  Fe  Fe15  1  0.33368160  0.66431986  0.99900959  1
  Cr  Cr16  1  0.49886852  0.83347040  0.16592305  1
  Fe  Fe17  1  0.33207914  0.66884940  0.33220380  1
  Ni  Ni18  1  0.66625678  0.00072188  0.99948544  1
  Fe  Fe19  1  0.83190786  0.16784840  0.16296389  1
  Cr  Cr20  1  0.66433535  0.00104548  0.33245070  1
  Fe  Fe21  1  0.66634615  0.33284684  0.00074285  1
  Ni  Ni22  1  0.83403174  0.49999736  0.16840783  1
  Cr  Cr23  1  0.66819994  0.33283712  0.33063568  1
  Fe  Fe24  1  0.66814405  0.66454829  0.99867904  1
  Cr  Cr25  1  0.83330181  0.83367359  0.16307028  1
  Fe  Fe26  1  0.66696114  0.66674580  0.33174078  1
  Fe  Fe27  1  0.16830500  0.16482395  0.49985530  1
  Fe  Fe28  1  0.00133739  0.00071681  0.66857091  1
  Fe  Fe29  1  0.16373836  0.16600791  0.83413535  1
  Cr  Cr30  1  0.16494255  0.49810092  0.49764217  1
  Fe  Fe31  1  0.99827928  0.33394786  0.67072173  1
  Ni  Ni32  1  0.16830286  0.49924143  0.83557583  1
  Fe  Fe33  1  0.16766993  0.83462798  0.50006899  1
  Fe  Fe34  1  0.99793524  0.66488117  0.66934176  1
  Cr  Cr35  1  0.16535544  0.83373456  0.83556880  1
  Fe  Fe36  1  0.49620412  0.16608251  0.49964503  1
  Fe  Fe37  1  0.33178813  0.00032043  0.66519219  1
  Fe  Fe38  1  0.50059589  0.16546522  0.83603931  1
  Cr  Cr39  1  0.50053336  0.49948559  0.49762301  1
  Cr  Cr40  1  0.33204792  0.33260562  0.66973670  1
  Fe  Fe41  1  0.50277388  0.50011649  0.83514780  1
  Fe  Fe42  1  0.49676559  0.83356129  0.49849804  1
  Cr  Cr43  1  0.33351301  0.66819253  0.66816961  1
  Fe  Fe44  1  0.50206494  0.83376220  0.83676175  1
  Cr  Cr45  1  0.83570670  0.16901595  0.50021384  1
  Cr  Cr46  1  0.66451403  0.99907079  0.66609108  1
  Ni  Ni47  1  0.83130979  0.16564661  0.83450038  1
  Fe  Fe48  1  0.83411359  0.50027535  0.49953784  1
  Fe  Fe49  1  0.66775340  0.33512506  0.66887446  1
  Fe  Fe50  1  0.83455799  0.50096242  0.83391228  1
  Cr  Cr51  1  0.83392572  0.83118824  0.49964986  1
  Fe  Fe52  1  0.66803028  0.66457177  0.66923532  1
  Ni  Ni53  1  0.83183872  0.83482097  0.83494852  1
" 