2471,Ni11Fe46Cr42_19,-220.687541281079, 168.181143787493,Ni11Fe46Cr42,"# generated using pymatgen
 data_Cr23Fe25Ni6
_symmetry_space_group_name_H-M   'P 1'
_cell_length_a   7.51603149
_cell_length_b   7.51603149
_cell_length_c   10.62927366
_cell_angle_alpha   90.00000000
_cell_angle_beta   90.00000000
_cell_angle_gamma   90.00000000
_symmetry_Int_Tables_number   1
_chemical_formula_structural   Cr23Fe25Ni6
_chemical_formula_sum   'Cr23 Fe25 Ni6'
_cell_volume   600.45542119
_cell_formula_units_Z   1
loop_
 _symmetry_equiv_pos_site_id
 _symmetry_equiv_pos_as_xyz
  1  'x, y, z'
loop_
 _atom_site_type_symbol
 _atom_site_label
 _atom_site_symmetry_multiplicity
 _atom_site_fract_x
 _atom_site_fract_y
 _atom_site_fract_z
 _atom_site_occupancy
  Fe  Fe0  1  -0.00265791  0.99500681  0.99652709  1
  Cr  Cr1  1  0.16176522  0.16137050  0.16377169  1
  Fe  Fe2  1  -0.00156408  -0.00274262  0.33328273  1
  Cr  Cr3  1  0.99651100  0.33532651  0.99592880  1
  Cr  Cr4  1  0.16079725  0.49676051  0.16478630  1
  Ni  Ni5  1  0.99563496  0.32979658  0.33160709  1
  Ni  Ni6  1  -0.00185023  0.66793966  -0.00307384  1
  Fe  Fe7  1  0.16129763  0.83053438  0.16258221  1
  Fe  Fe8  1  0.99310375  0.66340181  0.32945488  1
  Fe  Fe9  1  0.32778306  0.99422036  0.99552591  1
  Cr  Cr10  1  0.49576161  0.16090820  0.16412641  1
  Fe  Fe11  1  0.32821481  -0.00184443  0.33194710  1
  Cr  Cr12  1  0.33112498  0.33152115  -0.00320210  1
  Cr  Cr13  1  0.50005162  0.49905343  0.16642899  1
  Cr  Cr14  1  0.33147310  0.33149616  0.33141432  1
  Fe  Fe15  1  0.32721234  0.66253612  0.99453736  1
  Cr  Cr16  1  0.49707470  0.82826595  0.16103680  1
  Cr  Cr17  1  0.32614173  0.66527020  0.33028116  1
  Fe  Fe18  1  0.66428991  0.99418731  0.99604324  1
  Cr  Cr19  1  0.83298647  0.16293709  0.16338331  1
  Cr  Cr20  1  0.66567431  0.99658525  0.33183063  1
  Cr  Cr21  1  0.66334367  0.32846940  -0.00318129  1
  Fe  Fe22  1  0.83077250  0.49873256  0.16572352  1
  Ni  Ni23  1  0.66638394  0.32906735  0.33094383  1
  Fe  Fe24  1  0.66632155  0.66070270  0.99533032  1
  Fe  Fe25  1  0.83224950  0.82775637  0.16255989  1
  Fe  Fe26  1  0.66471944  0.66096186  0.33191264  1
  Fe  Fe27  1  0.16346208  0.16667704  0.49655882  1
  Cr  Cr28  1  0.99626777  0.99540838  0.65858714  1
  Cr  Cr29  1  0.16301166  0.16452319  0.82879676  1
  Fe  Fe30  1  0.16394269  0.49463323  0.49720578  1
  Ni  Ni31  1  -0.00036423  0.33004342  0.66283279  1
  Ni  Ni32  1  0.16470331  0.49748043  0.82829886  1
  Fe  Fe33  1  0.16316065  0.82957666  0.49492209  1
  Cr  Cr34  1  -0.00003858  0.66308058  0.66279783  1
  Fe  Fe35  1  0.16210814  0.82994963  0.83179507  1
  Fe  Fe36  1  0.49651670  0.16624855  0.49610472  1
  Fe  Fe37  1  0.32851235  -0.00122758  0.66240227  1
  Fe  Fe38  1  0.49483712  0.16147116  0.83074810  1
  Ni  Ni39  1  0.49646747  0.49592260  0.49649343  1
  Fe  Fe40  1  0.32902816  0.33084697  0.66207624  1
  Fe  Fe41  1  0.49612622  0.49715816  0.83021705  1
  Cr  Cr42  1  0.49648492  0.82865335  0.49723029  1
  Cr  Cr43  1  0.32832121  0.66353468  0.66517181  1
  Fe  Fe44  1  0.49259814  0.83073887  0.83237695  1
  Fe  Fe45  1  0.83135331  0.16672070  0.49599940  1
  Cr  Cr46  1  0.66175606  -0.00165983  0.66210590  1
  Cr  Cr47  1  0.83266664  0.16268645  0.82925509  1
  Cr  Cr48  1  0.83063206  0.49611339  0.49692497  1
  Cr  Cr49  1  0.66233627  0.32916278  0.66522174  1
  Fe  Fe50  1  0.83470924  0.49715607  0.82951570  1
  Fe  Fe51  1  0.83093735  0.82820717  0.49504015  1
  Cr  Cr52  1  0.66223898  0.66353444  0.66431701  1
  Cr  Cr53  1  0.82764167  0.82917253  0.82952924  1
" 