2605,Ni11Fe38Cr49_19,-218.467889171546, 179.945007414376,Ni11Fe38Cr49,"# generated using pymatgen
 data_Cr14Fe10Ni3
_symmetry_space_group_name_H-M   'P 1'
_cell_length_a   7.52306792
_cell_length_b   7.52306792
_cell_length_c   10.63922468
_cell_angle_alpha   90.00000000
_cell_angle_beta   90.00000000
_cell_angle_gamma   90.00000000
_symmetry_Int_Tables_number   1
_chemical_formula_structural   Cr14Fe10Ni3
_chemical_formula_sum   'Cr28 Fe20 Ni6'
_cell_volume   602.14342103
_cell_formula_units_Z   2
loop_
 _symmetry_equiv_pos_site_id
 _symmetry_equiv_pos_as_xyz
  1  'x, y, z'
loop_
 _atom_site_type_symbol
 _atom_site_label
 _atom_site_symmetry_multiplicity
 _atom_site_fract_x
 _atom_site_fract_y
 _atom_site_fract_z
 _atom_site_occupancy
  Cr  Cr0  1  -0.00302042  0.99589478  0.99447124  1
  Fe  Fe1  1  0.16020207  0.16356218  0.16301826  1
  Cr  Cr2  1  0.99569470  -0.00341386  0.32790717  1
  Cr  Cr3  1  0.99478380  0.32717256  0.99306952  1
  Cr  Cr4  1  0.16171826  0.49440550  0.16283699  1
  Ni  Ni5  1  0.99251252  0.32838388  0.33132472  1
  Cr  Cr6  1  0.99294105  0.66547433  0.99405356  1
  Fe  Fe7  1  0.16196215  0.82881771  0.16181037  1
  Cr  Cr8  1  0.99421219  0.66163464  0.33180276  1
  Cr  Cr9  1  0.32917956  -0.00230279  0.99614222  1
  Fe  Fe10  1  0.49980399  0.16370808  0.16344228  1
  Cr  Cr11  1  0.33082057  -0.00320485  0.32784826  1
  Cr  Cr12  1  0.33206156  0.32610725  -0.00341869  1
  Fe  Fe13  1  0.49762397  0.49699358  0.16127874  1
  Cr  Cr14  1  0.33243786  0.32906318  0.32824850  1
  Fe  Fe15  1  0.32992082  0.66374594  -0.00366917  1
  Cr  Cr16  1  0.49937873  0.82986743  0.16134075  1
  Cr  Cr17  1  0.33086652  0.66312684  0.32975426  1
  Fe  Fe18  1  0.66484232  0.99601325  0.99569527  1
  Fe  Fe19  1  0.82876874  0.16227330  0.16356228  1
  Fe  Fe20  1  0.66428653  -0.00075656  0.32790769  1
  Cr  Cr21  1  0.66218106  0.33032014  0.99536435  1
  Cr  Cr22  1  0.83032977  0.49470005  0.16171251  1
  Fe  Fe23  1  0.66607184  0.32791548  0.32958588  1
  Ni  Ni24  1  0.66309644  0.66371172  0.99504650  1
  Fe  Fe25  1  0.82865483  0.83036772  0.16108258  1
  Cr  Cr26  1  0.66363495  0.66050066  0.32980195  1
  Cr  Cr27  1  0.16083634  0.16587622  0.49550163  1
  Cr  Cr28  1  -0.00353346  0.99564214  0.66631424  1
  Ni  Ni29  1  0.16275614  0.16308506  0.83008278  1
  Fe  Fe30  1  0.16102803  0.49492471  0.49620689  1
  Cr  Cr31  1  0.99331611  0.32974206  0.66380249  1
  Cr  Cr32  1  0.16346514  0.49545622  0.82935259  1
  Cr  Cr33  1  0.16400454  0.82977156  0.49666263  1
  Cr  Cr34  1  0.99303569  0.66362806  0.66249328  1
  Ni  Ni35  1  0.16251949  0.83057164  0.83102460  1
  Cr  Cr36  1  0.49944865  0.16194112  0.49759453  1
  Cr  Cr37  1  0.32913774  -0.00212438  0.66498844  1
  Fe  Fe38  1  0.49697109  0.16190040  0.82807022  1
  Cr  Cr39  1  0.49671611  0.49582110  0.49824474  1
  Fe  Fe40  1  0.32931873  0.32925042  0.66441527  1
  Cr  Cr41  1  0.49701336  0.49696978  0.83029967  1
  Cr  Cr42  1  0.49842724  0.83087326  0.49945384  1
  Fe  Fe43  1  0.32780922  0.66247802  0.66397955  1
  Cr  Cr44  1  0.49861095  0.82916775  0.82821864  1
  Fe  Fe45  1  0.82822715  0.16508407  0.49567170  1
  Fe  Fe46  1  0.66637550  -0.00222128  0.66528759  1
  Fe  Fe47  1  0.82804853  0.16085675  0.82935598  1
  Ni  Ni48  1  0.82869225  0.49226457  0.49668195  1
  Fe  Fe49  1  0.66412568  0.32942469  0.66406597  1
  Fe  Fe50  1  0.82811288  0.49933793  0.82892098  1
  Cr  Cr51  1  0.82676897  0.83230211  0.49559349  1
  Fe  Fe52  1  0.66587588  0.66162302  0.66426605  1
  Ni  Ni53  1  0.82687097  0.83121613  0.83137479  1
" 