1628,Ni11Fe46Cr42_17,-220.516938891212, 171.381032518503,Ni11Fe46Cr42,"# generated using pymatgen
 data_Cr23Fe25Ni6
_symmetry_space_group_name_H-M   'P 1'
_cell_length_a   7.50604627
_cell_length_b   7.50604627
_cell_length_c   10.61515244
_cell_angle_alpha   90.00000000
_cell_angle_beta   90.00000000
_cell_angle_gamma   90.00000000
_symmetry_Int_Tables_number   1
_chemical_formula_structural   Cr23Fe25Ni6
_chemical_formula_sum   'Cr23 Fe25 Ni6'
_cell_volume   598.06544485
_cell_formula_units_Z   1
loop_
 _symmetry_equiv_pos_site_id
 _symmetry_equiv_pos_as_xyz
  1  'x, y, z'
loop_
 _atom_site_type_symbol
 _atom_site_label
 _atom_site_symmetry_multiplicity
 _atom_site_fract_x
 _atom_site_fract_y
 _atom_site_fract_z
 _atom_site_occupancy
  Cr  Cr0  1  0.99596646  0.99673081  0.99675371  1
  Cr  Cr1  1  0.16451846  0.16130590  0.16154263  1
  Cr  Cr2  1  0.99451664  0.99496881  0.33165604  1
  Fe  Fe3  1  0.99645296  0.33322285  0.99548129  1
  Ni  Ni4  1  0.16172462  0.50143409  0.16403347  1
  Cr  Cr5  1  -0.00053492  0.33160568  0.33137135  1
  Fe  Fe6  1  -0.00202299  0.66484485  0.99662582  1
  Ni  Ni7  1  0.16345705  0.82893196  0.16238993  1
  Fe  Fe8  1  -0.00205868  0.66548351  0.32880391  1
  Fe  Fe9  1  0.33419370  0.99614383  0.99672680  1
  Fe  Fe10  1  0.49843649  0.16244900  0.16080930  1
  Cr  Cr11  1  0.33224976  0.99718226  0.32520616  1
  Cr  Cr12  1  0.32802816  0.33085854  -0.00193411  1
  Cr  Cr13  1  0.50098986  0.49608652  0.16617709  1
  Cr  Cr14  1  0.33011704  0.33168311  0.33202338  1
  Cr  Cr15  1  0.32923918  0.66536212  -0.00222547  1
  Fe  Fe16  1  0.49766085  0.83264776  0.16245410  1
  Cr  Cr17  1  0.32941305  0.66304906  0.32863966  1
  Ni  Ni18  1  0.66368397  0.99720108  0.99521985  1
  Cr  Cr19  1  0.82832389  0.16548363  0.16179809  1
  Cr  Cr20  1  0.66532000  0.99572521  0.33179773  1
  Fe  Fe21  1  0.66408154  0.32702671  0.99450341  1
  Cr  Cr22  1  0.83032799  0.49788191  0.16213368  1
  Fe  Fe23  1  0.66356081  0.32855739  0.33157408  1
  Cr  Cr24  1  0.66496176  0.66875189  0.99606043  1
  Fe  Fe25  1  0.83212761  0.82962992  0.16250200  1
  Fe  Fe26  1  0.66602520  0.66572696  0.33018317  1
  Cr  Cr27  1  0.16486263  0.16147320  0.49958673  1
  Fe  Fe28  1  0.99530732  0.99642438  0.66648820  1
  Fe  Fe29  1  0.16606329  0.16273821  0.82971353  1
  Fe  Fe30  1  0.16446589  0.49881198  0.49917181  1
  Cr  Cr31  1  -0.00054071  0.32969476  0.66636308  1
  Fe  Fe32  1  0.16296439  0.49778020  0.83056403  1
  Cr  Cr33  1  0.16225655  0.83122732  0.50035665  1
  Fe  Fe34  1  -0.00155890  0.66422945  0.66631477  1
  Fe  Fe35  1  0.16422062  0.83165320  0.82976266  1
  Fe  Fe36  1  0.49768963  0.16344705  0.49990781  1
  Fe  Fe37  1  0.33227050  0.00010199  0.66706933  1
  Ni  Ni38  1  0.49627946  0.16154195  0.83070680  1
  Cr  Cr39  1  0.49780809  0.49630117  0.49738211  1
  Ni  Ni40  1  0.32869070  0.33007029  0.66371158  1
  Cr  Cr41  1  0.49823579  0.49588032  0.82881772  1
  Cr  Cr42  1  0.49656270  0.83098852  0.50099254  1
  Fe  Fe43  1  0.32777589  0.66202162  0.66588905  1
  Fe  Fe44  1  0.49829261  0.83561111  0.83038191  1
  Fe  Fe45  1  0.82883241  0.16204065  0.49838273  1
  Fe  Fe46  1  0.66453173  -0.00062152  0.66700679  1
  Fe  Fe47  1  0.82810633  0.16190151  0.83239622  1
  Cr  Cr48  1  0.82997603  0.49884137  0.49438375  1
  Cr  Cr49  1  0.66355803  0.32745270  0.66451645  1
  Fe  Fe50  1  0.83262308  0.49790095  0.83218179  1
  Fe  Fe51  1  0.83120015  0.83135766  0.49981086  1
  Cr  Cr52  1  0.66499827  0.66879740  0.66636196  1
  Ni  Ni53  1  0.83348494  0.83207515  0.82918957  1
" 