5801,Ni11Fe38Cr49_11,-217.791151164657, 178.833269809961,Ni11Fe38Cr49,"# generated using pymatgen
 data_Cr14Fe10Ni3
_symmetry_space_group_name_H-M   'P 1'
_cell_length_a   7.51752188
_cell_length_b   7.51752188
_cell_length_c   10.63138139
_cell_angle_alpha   90.00000000
_cell_angle_beta   90.00000000
_cell_angle_gamma   90.00000000
_symmetry_Int_Tables_number   1
_chemical_formula_structural   Cr14Fe10Ni3
_chemical_formula_sum   'Cr28 Fe20 Ni6'
_cell_volume   600.81269352
_cell_formula_units_Z   2
loop_
 _symmetry_equiv_pos_site_id
 _symmetry_equiv_pos_as_xyz
  1  'x, y, z'
loop_
 _atom_site_type_symbol
 _atom_site_label
 _atom_site_symmetry_multiplicity
 _atom_site_fract_x
 _atom_site_fract_y
 _atom_site_fract_z
 _atom_site_occupancy
  Ni  Ni0  1  0.99447962  0.99449432  -0.00114419  1
  Cr  Cr1  1  0.16104348  0.16297482  0.16238550  1
  Fe  Fe2  1  -0.00325235  0.99559131  0.32955684  1
  Fe  Fe3  1  0.99558092  0.32996924  0.99648005  1
  Cr  Cr4  1  0.16113622  0.49893672  0.16180077  1
  Fe  Fe5  1  0.99376104  0.32979729  0.33115996  1
  Ni  Ni6  1  0.99575915  0.66604169  0.99624887  1
  Fe  Fe7  1  0.16016527  0.82936461  0.16246891  1
  Fe  Fe8  1  -0.00327096  0.66449205  0.33025226  1
  Cr  Cr9  1  0.32895249  0.99496606  0.99620390  1
  Cr  Cr10  1  0.49912136  0.16267945  0.16299078  1
  Cr  Cr11  1  0.32743281  0.99426536  0.33214088  1
  Cr  Cr12  1  0.32915711  0.33203530  0.99581551  1
  Cr  Cr13  1  0.49632546  0.49640986  0.16401315  1
  Cr  Cr14  1  0.33002226  0.33138756  0.33018561  1
  Fe  Fe15  1  0.32827406  0.66425444  0.99623973  1
  Cr  Cr16  1  0.49761121  0.83082567  0.16134177  1
  Cr  Cr17  1  0.32949159  0.66429439  0.32935317  1
  Fe  Fe18  1  0.66685625  0.99490549  0.99623288  1
  Fe  Fe19  1  0.83130128  0.16217935  0.16271916  1
  Cr  Cr20  1  0.66645919  -0.00254945  0.32806295  1
  Cr  Cr21  1  0.66477327  0.33024249  0.99653062  1
  Cr  Cr22  1  0.83240446  0.49731749  0.16426773  1
  Fe  Fe23  1  0.66550849  0.33032524  0.33127247  1
  Cr  Cr24  1  0.66361408  0.66469865  0.99370044  1
  Fe  Fe25  1  0.83314305  0.83122715  0.16154434  1
  Cr  Cr26  1  0.66337805  0.66182869  0.33202588  1
  Cr  Cr27  1  0.16438983  0.16165619  0.49856913  1
  Cr  Cr28  1  -0.00240805  0.99618566  0.66201444  1
  Cr  Cr29  1  0.16460269  0.16381318  0.82907654  1
  Cr  Cr30  1  0.16065288  0.49863247  0.49588510  1
  Cr  Cr31  1  0.99518923  0.33043194  0.66404812  1
  Cr  Cr32  1  0.16167638  0.49737834  0.83219716  1
  Ni  Ni33  1  0.16283059  0.82967842  0.49573524  1
  Fe  Fe34  1  0.99341411  0.66378502  0.66349998  1
  Cr  Cr35  1  0.16097428  0.82879704  0.83037239  1
  Cr  Cr36  1  0.49743233  0.16396003  0.49801450  1
  Fe  Fe37  1  0.33052570  0.99506997  0.66237208  1
  Cr  Cr38  1  0.49631137  0.16271011  0.82889661  1
  Fe  Fe39  1  0.49912111  0.49758448  0.49790187  1
  Fe  Fe40  1  0.33235807  0.33061196  0.66338853  1
  Fe  Fe41  1  0.49832782  0.49833549  0.82869242  1
  Fe  Fe42  1  0.49579383  0.82819454  0.49782857  1
  Cr  Cr43  1  0.33258595  0.66409921  0.66238678  1
  Fe  Fe44  1  0.49853275  0.82873522  0.82964616  1
  Fe  Fe45  1  0.83065883  0.16552369  0.49576195  1
  Cr  Cr46  1  0.66352316  0.99399316  0.66469051  1
  Cr  Cr47  1  0.82916000  0.16192795  0.83207653  1
  Ni  Ni48  1  0.82807568  0.49673065  0.49752008  1
  Fe  Fe49  1  0.66325729  0.33349714  0.66262537  1
  Fe  Fe50  1  0.82964407  0.49956563  0.82899152  1
  Cr  Cr51  1  0.83140979  0.82684491  0.49692307  1
  Ni  Ni52  1  0.66277905  0.66098832  0.66405707  1
  Ni  Ni53  1  0.82866858  0.82703021  0.83169450  1
" 