5033,Ni11Fe46Cr42_1,-220.7703964081, 179.630845824415,Ni11Fe46Cr42,"# generated using pymatgen
 data_Cr23Fe25Ni6
_symmetry_space_group_name_H-M   'P 1'
_cell_length_a   7.49894973
_cell_length_b   7.49894973
_cell_length_c   10.60511642
_cell_angle_alpha   90.00000000
_cell_angle_beta   90.00000000
_cell_angle_gamma   90.00000000
_symmetry_Int_Tables_number   1
_chemical_formula_structural   Cr23Fe25Ni6
_chemical_formula_sum   'Cr23 Fe25 Ni6'
_cell_volume   596.37073693
_cell_formula_units_Z   1
loop_
 _symmetry_equiv_pos_site_id
 _symmetry_equiv_pos_as_xyz
  1  'x, y, z'
loop_
 _atom_site_type_symbol
 _atom_site_label
 _atom_site_symmetry_multiplicity
 _atom_site_fract_x
 _atom_site_fract_y
 _atom_site_fract_z
 _atom_site_occupancy
  Fe  Fe0  1  0.00190602  -0.00205307  -0.00204737  1
  Fe  Fe1  1  0.16491378  0.16476645  0.16338491  1
  Cr  Cr2  1  -0.00184617  0.00072103  0.33458282  1
  Fe  Fe3  1  -0.00056693  0.33008524  0.99688377  1
  Cr  Cr4  1  0.16384587  0.49860581  0.16611798  1
  Fe  Fe5  1  0.99754721  0.32815950  0.33339679  1
  Fe  Fe6  1  0.00067149  0.66539077  0.99664765  1
  Fe  Fe7  1  0.16645707  0.83271480  0.16324033  1
  Cr  Cr8  1  -0.00206014  0.66441527  0.33208566  1
  Fe  Fe9  1  0.33040764  0.99724426  -0.00105166  1
  Ni  Ni10  1  0.49546062  0.16322841  0.16496408  1
  Cr  Cr11  1  0.33033738  -0.00059968  0.32773191  1
  Cr  Cr12  1  0.33092417  0.33088920  -0.00033790  1
  Ni  Ni13  1  0.49437183  0.49656366  0.16668879  1
  Fe  Fe14  1  0.33147579  0.33108316  0.32973454  1
  Cr  Cr15  1  0.33035034  0.66593341  0.99595673  1
  Fe  Fe16  1  0.49689476  0.83140785  0.16548397  1
  Fe  Fe17  1  0.33366566  0.66495011  0.33051402  1
  Cr  Cr18  1  0.66270375  -0.00173364  -0.00175153  1
  Cr  Cr19  1  0.82963271  0.16379348  0.16223264  1
  Ni  Ni20  1  0.66355463  -0.00153659  0.33231520  1
  Cr  Cr21  1  0.66304539  0.33176357  0.99621772  1
  Cr  Cr22  1  0.83261799  0.49840190  0.16321142  1
  Cr  Cr23  1  0.66435980  0.33116499  0.33105922  1
  Cr  Cr24  1  0.66159112  0.66347882  -0.00109077  1
  Cr  Cr25  1  0.83235179  0.83151753  0.16486382  1
  Cr  Cr26  1  0.66297200  0.66540247  0.33302778  1
  Fe  Fe27  1  0.16379474  0.16510453  0.50075405  1
  Fe  Fe28  1  -0.00150505  0.99747586  0.66300803  1
  Cr  Cr29  1  0.16529700  0.16368782  0.82914873  1
  Cr  Cr30  1  0.16634524  0.49743818  0.49795581  1
  Fe  Fe31  1  0.99680108  0.33008073  0.66328986  1
  Fe  Fe32  1  0.16477012  0.49906364  0.82904437  1
  Cr  Cr33  1  0.16605325  0.82982726  0.50133402  1
  Ni  Ni34  1  -0.00065930  0.66262985  0.66598851  1
  Fe  Fe35  1  0.16547788  0.83054231  0.82866616  1
  Cr  Cr36  1  0.49657301  0.16413769  0.49827338  1
  Ni  Ni37  1  0.32882271  -0.00208130  0.66595481  1
  Cr  Cr38  1  0.49821539  0.16400163  0.82948041  1
  Fe  Fe39  1  0.49687694  0.49750947  0.49780242  1
  Fe  Fe40  1  0.33110847  0.33290862  0.66468527  1
  Fe  Fe41  1  0.49558228  0.49825266  0.82942656  1
  Fe  Fe42  1  0.49686792  0.83234174  0.49793736  1
  Fe  Fe43  1  0.33080239  0.66569017  0.66669744  1
  Fe  Fe44  1  0.49496279  0.83147932  0.82925185  1
  Ni  Ni45  1  0.83086108  0.16491952  0.50058656  1
  Cr  Cr46  1  0.66545770  -0.00194882  0.66289476  1
  Fe  Fe47  1  0.83343381  0.16475371  0.82963373  1
  Fe  Fe48  1  0.83240981  0.49553588  0.50000238  1
  Fe  Fe49  1  0.66607971  0.33183369  0.66364461  1
  Cr  Cr50  1  0.83370846  0.49738804  0.83260361  1
  Fe  Fe51  1  0.83102669  0.83250787  0.49867421  1
  Cr  Cr52  1  0.66427959  0.66261910  0.66254544  1
  Cr  Cr53  1  0.83410699  0.83167842  0.83178943  1
" 