7755,Ni12Fe32Cr54_8,-216.33754073232, 179.438125204943,Ni12Fe32Cr54,"# generated using pymatgen
 data_Cr31Fe17Ni6
_symmetry_space_group_name_H-M   'P 1'
_cell_length_a   7.53217308
_cell_length_b   7.53217308
_cell_length_c   10.65210133
_cell_angle_alpha   90.00000000
_cell_angle_beta   90.00000000
_cell_angle_gamma   90.00000000
_symmetry_Int_Tables_number   1
_chemical_formula_structural   Cr31Fe17Ni6
_chemical_formula_sum   'Cr31 Fe17 Ni6'
_cell_volume   604.33238946
_cell_formula_units_Z   1
loop_
 _symmetry_equiv_pos_site_id
 _symmetry_equiv_pos_as_xyz
  1  'x, y, z'
loop_
 _atom_site_type_symbol
 _atom_site_label
 _atom_site_symmetry_multiplicity
 _atom_site_fract_x
 _atom_site_fract_y
 _atom_site_fract_z
 _atom_site_occupancy
  Cr  Cr0  1  -0.00386884  -0.00359567  -0.00268366  1
  Fe  Fe1  1  0.16085702  0.16277410  0.16051514  1
  Fe  Fe2  1  -0.00319467  0.99528951  0.32800858  1
  Fe  Fe3  1  -0.00274609  0.32933453  -0.00263433  1
  Ni  Ni4  1  0.15963124  0.49463270  0.16124900  1
  Cr  Cr5  1  -0.00397289  0.32933986  0.32511300  1
  Cr  Cr6  1  0.99425968  0.66070128  -0.00361200  1
  Ni  Ni7  1  0.16162701  0.83008265  0.16250845  1
  Cr  Cr8  1  -0.00427637  0.66266497  0.32715936  1
  Fe  Fe9  1  0.32621199  -0.00272246  -0.00360365  1
  Cr  Cr10  1  0.49570589  0.16271320  0.16138747  1
  Cr  Cr11  1  0.32876196  -0.00427263  0.32809771  1
  Fe  Fe12  1  0.32544649  0.32775716  -0.00426786  1
  Cr  Cr13  1  0.49772567  0.49566393  0.16272707  1
  Cr  Cr14  1  0.32812374  0.32979089  0.32651962  1
  Cr  Cr15  1  0.32776983  0.66024239  -0.00348191  1
  Cr  Cr16  1  0.49445676  0.82861474  0.16094213  1
  Cr  Cr17  1  0.32760142  0.66158350  0.33021079  1
  Cr  Cr18  1  0.66314879  0.99464494  0.99444522  1
  Fe  Fe19  1  0.83125780  0.16473035  0.16276889  1
  Cr  Cr20  1  0.66440122  0.99558218  0.33056346  1
  Cr  Cr21  1  0.66289272  0.33022801  0.99477803  1
  Ni  Ni22  1  0.83021140  0.49367086  0.16179340  1
  Fe  Fe23  1  0.66389512  0.33051484  0.32713717  1
  Fe  Fe24  1  0.66465464  0.66127456  0.99440884  1
  Cr  Cr25  1  0.82994379  0.82771423  0.16327806  1
  Fe  Fe26  1  0.66332913  0.66129000  0.32903073  1
  Cr  Cr27  1  0.16009401  0.16013734  0.49854342  1
  Ni  Ni28  1  0.99559056  -0.00384362  0.66253627  1
  Ni  Ni29  1  0.16181033  0.16302089  0.82899050  1
  Cr  Cr30  1  0.16196143  0.49684398  0.49729008  1
  Fe  Fe31  1  0.99477775  0.32670552  0.66368307  1
  Cr  Cr32  1  0.16139108  0.49354359  0.82761893  1
  Cr  Cr33  1  0.16211322  0.83007983  0.49783722  1
  Cr  Cr34  1  0.99471953  0.66339715  0.66346724  1
  Cr  Cr35  1  0.16185196  0.83200166  0.82734225  1
  Cr  Cr36  1  0.49738506  0.16270492  0.49614434  1
  Fe  Fe37  1  0.32690689  0.99501998  0.66292202  1
  Cr  Cr38  1  0.49320909  0.16283984  0.82924367  1
  Cr  Cr39  1  0.49743016  0.49651159  0.49471431  1
  Cr  Cr40  1  0.32901971  0.32939787  0.66337765  1
  Fe  Fe41  1  0.49658613  0.49563821  0.82906713  1
  Fe  Fe42  1  0.49625532  0.82844485  0.49626202  1
  Fe  Fe43  1  0.32988234  0.66424097  0.66238428  1
  Cr  Cr44  1  0.49530704  0.82804206  0.83094484  1
  Cr  Cr45  1  0.82970676  0.16260641  0.49563518  1
  Cr  Cr46  1  0.66379090  0.99490622  0.66193747  1
  Cr  Cr47  1  0.83206251  0.16345168  0.82649227  1
  Cr  Cr48  1  0.82772831  0.49434149  0.49525075  1
  Fe  Fe49  1  0.66411123  0.32976682  0.66362955  1
  Fe  Fe50  1  0.82847663  0.49615121  0.82964231  1
  Fe  Fe51  1  0.82925822  0.82973385  0.49628426  1
  Cr  Cr52  1  0.66253270  0.66301462  0.66478980  1
  Ni  Ni53  1  0.82873645  0.82760619  0.82816020  1
" 