8492,Ni12Fe88_11,-242.218374964447, 197.105929422787,Ni12Fe88,"# generated using pymatgen
 data_FeNi8
_symmetry_space_group_name_H-M   'P 1'
_cell_length_a   7.43917305
_cell_length_b   7.43917305
_cell_length_c   10.52057942
_cell_angle_alpha   90.00000000
_cell_angle_beta   90.00000000
_cell_angle_gamma   90.00000000
_symmetry_Int_Tables_number   1
_chemical_formula_structural   FeNi8
_chemical_formula_sum   'Fe6 Ni48'
_cell_volume   582.22249694
_cell_formula_units_Z   6
loop_
 _symmetry_equiv_pos_site_id
 _symmetry_equiv_pos_as_xyz
  1  'x, y, z'
loop_
 _atom_site_type_symbol
 _atom_site_label
 _atom_site_symmetry_multiplicity
 _atom_site_fract_x
 _atom_site_fract_y
 _atom_site_fract_z
 _atom_site_occupancy
  Ni  Ni0  1  0.00214761  1.00154734  1.00144312  1
  Ni  Ni1  1  0.16807032  0.16881355  0.16877091  1
  Ni  Ni2  1  0.00216589  1.00125038  0.33497543  1
  Ni  Ni3  1  0.00224780  0.33571787  1.00149335  1
  Ni  Ni4  1  0.16965697  0.50202839  0.16912474  1
  Ni  Ni5  1  0.00223456  0.33578638  0.33533751  1
  Fe  Fe6  1  0.00230293  0.66866050  1.00155773  1
  Ni  Ni7  1  0.16789266  0.83476184  0.16871180  1
  Ni  Ni8  1  1.00181742  0.66854135  0.33444681  1
  Ni  Ni9  1  0.33537874  1.00147593  0.00228109  1
  Ni  Ni10  1  0.50259792  0.16914073  0.16836970  1
  Ni  Ni11  1  0.33512268  1.00162697  0.33423659  1
  Ni  Ni12  1  0.33501673  0.33535154  1.00184349  1
  Ni  Ni13  1  0.50119086  0.50165442  0.16870124  1
  Ni  Ni14  1  0.33517903  0.33547460  0.33459709  1
  Fe  Fe15  1  0.33534289  0.66863447  0.00260884  1
  Ni  Ni16  1  0.50241715  0.83477583  0.16948989  1
  Ni  Ni17  1  0.33519357  0.66855820  0.33554599  1
  Ni  Ni18  1  0.66809261  1.00119294  1.00144215  1
  Ni  Ni19  1  0.83494156  0.16738792  0.16877388  1
  Ni  Ni20  1  0.66831004  1.00128039  0.33510137  1
  Ni  Ni21  1  0.66838789  0.33575680  1.00153353  1
  Fe  Fe22  1  0.83531418  0.50105002  0.16886973  1
  Ni  Ni23  1  0.66824977  0.33579775  0.33484714  1
  Fe  Fe24  1  0.66800933  0.66896201  1.00159469  1
  Ni  Ni25  1  0.83532027  0.83613743  0.16845902  1
  Ni  Ni26  1  0.66864461  0.66852288  0.33459258  1
  Ni  Ni27  1  0.16881170  0.16825227  0.50143679  1
  Ni  Ni28  1  0.00259558  1.00094419  0.66919664  1
  Ni  Ni29  1  0.16850917  0.16853987  0.83541043  1
  Ni  Ni30  1  0.16902633  0.50241522  0.50185265  1
  Ni  Ni31  1  0.00224128  0.33632487  0.66876130  1
  Ni  Ni32  1  0.16910346  0.50213982  0.83473811  1
  Ni  Ni33  1  0.16722495  0.83494164  0.50144754  1
  Ni  Ni34  1  1.00088397  0.66835226  0.66915837  1
  Ni  Ni35  1  0.16849731  0.83493153  0.83549193  1
  Ni  Ni36  1  0.50215925  0.16972880  0.50143574  1
  Ni  Ni37  1  0.33508619  0.00235032  0.66915366  1
  Ni  Ni38  1  0.50216023  0.16884667  0.83579169  1
  Ni  Ni39  1  0.50191546  0.50116474  0.50187789  1
  Ni  Ni40  1  0.33519188  0.33458395  0.66920347  1
  Ni  Ni41  1  0.50153415  0.50180415  0.83510798  1
  Fe  Fe42  1  0.50214242  0.83562716  0.50160949  1
  Fe  Fe43  1  0.33491473  0.66845414  0.66815994  1
  Ni  Ni44  1  0.50180456  0.83490870  0.83467483  1
  Ni  Ni45  1  0.83466428  0.16789590  0.50228572  1
  Ni  Ni46  1  0.66789626  1.00101031  0.66911143  1
  Ni  Ni47  1  0.83494540  0.16823992  0.83458077  1
  Ni  Ni48  1  0.83467956  0.50255379  0.50107499  1
  Ni  Ni49  1  0.66818485  0.33628626  0.66919838  1
  Ni  Ni50  1  0.83495922  0.50195545  0.83561053  1
  Ni  Ni51  1  0.83596843  0.83518004  0.50184972  1
  Ni  Ni52  1  0.66952613  0.66832716  0.66902461  1
  Ni  Ni53  1  0.83529619  0.83552133  0.83517493  1
" 