3950,Ni12Fe32Cr54_6,-216.329919404819, 174.895072236389,Ni12Fe32Cr54,"# generated using pymatgen
 data_Cr31Fe17Ni6
_symmetry_space_group_name_H-M   'P 1'
_cell_length_a   7.53547396
_cell_length_b   7.53547396
_cell_length_c   10.65676947
_cell_angle_alpha   90.00000000
_cell_angle_beta   90.00000000
_cell_angle_gamma   90.00000000
_symmetry_Int_Tables_number   1
_chemical_formula_structural   Cr31Fe17Ni6
_chemical_formula_sum   'Cr31 Fe17 Ni6'
_cell_volume   605.12726018
_cell_formula_units_Z   1
loop_
 _symmetry_equiv_pos_site_id
 _symmetry_equiv_pos_as_xyz
  1  'x, y, z'
loop_
 _atom_site_type_symbol
 _atom_site_label
 _atom_site_symmetry_multiplicity
 _atom_site_fract_x
 _atom_site_fract_y
 _atom_site_fract_z
 _atom_site_occupancy
  Fe  Fe0  1  0.99504244  0.99388181  0.99528001  1
  Cr  Cr1  1  0.16355504  0.15996209  0.15974259  1
  Cr  Cr2  1  0.99383860  0.99398439  0.32812319  1
  Cr  Cr3  1  -0.00302810  0.32910978  -0.00433218  1
  Cr  Cr4  1  0.16450318  0.49821892  0.16243952  1
  Cr  Cr5  1  -0.00310794  0.32983162  0.33331830  1
  Cr  Cr6  1  0.99506262  0.66534252  0.99418338  1
  Cr  Cr7  1  0.16488288  0.82859011  0.16028791  1
  Cr  Cr8  1  0.99382456  0.66247920  0.32905379  1
  Ni  Ni9  1  0.33171758  0.99468631  -0.00345291  1
  Fe  Fe10  1  0.49550585  0.16379270  0.15872782  1
  Cr  Cr11  1  0.33164122  0.99427613  0.32834813  1
  Fe  Fe12  1  0.33290157  0.33140789  -0.00314809  1
  Ni  Ni13  1  0.49657494  0.49820773  0.16060035  1
  Cr  Cr14  1  0.32973200  0.33075986  0.32622113  1
  Ni  Ni15  1  0.33209286  0.66380247  -0.00362408  1
  Fe  Fe16  1  0.49523301  0.82706665  0.16024764  1
  Fe  Fe17  1  0.33312060  0.66168427  0.32790821  1
  Fe  Fe18  1  0.65997576  0.99457027  -0.00322960  1
  Cr  Cr19  1  0.82570740  0.16259440  0.16109956  1
  Cr  Cr20  1  0.66118005  0.99065324  0.32831950  1
  Ni  Ni21  1  0.65623049  0.32799519  -0.00352109  1
  Cr  Cr22  1  0.82477736  0.49497692  0.16275697  1
  Cr  Cr23  1  0.66000607  0.33001773  0.33069674  1
  Cr  Cr24  1  0.66057692  0.66303910  -0.00437755  1
  Fe  Fe25  1  0.82654559  0.82822944  0.16133568  1
  Fe  Fe26  1  0.65938726  0.66155795  0.32950953  1
  Cr  Cr27  1  0.16312174  0.15973472  0.49610098  1
  Cr  Cr28  1  0.99381583  0.99303942  0.66272297  1
  Cr  Cr29  1  0.16428960  0.15903375  0.83052575  1
  Fe  Fe30  1  0.16222072  0.49830890  0.49649090  1
  Cr  Cr31  1  -0.00374407  0.33123782  0.65807561  1
  Cr  Cr32  1  0.16306504  0.49943271  0.82835424  1
  Cr  Cr33  1  0.16621487  0.82609080  0.49760621  1
  Ni  Ni34  1  0.99539393  0.66296410  0.66045034  1
  Cr  Cr35  1  0.16407469  0.82805524  0.82801174  1
  Cr  Cr36  1  0.49641060  0.15956056  0.49700883  1
  Fe  Fe37  1  0.32928917  0.99368065  0.66228262  1
  Cr  Cr38  1  0.49619282  0.16172022  0.83166514  1
  Fe  Fe39  1  0.49498565  0.49892099  0.49413361  1
  Cr  Cr40  1  0.32974275  0.33049895  0.66372187  1
  Fe  Fe41  1  0.49411527  0.49565930  0.83227767  1
  Fe  Fe42  1  0.49638068  0.82461573  0.49551093  1
  Fe  Fe43  1  0.32857589  0.66134982  0.66158118  1
  Cr  Cr44  1  0.49258849  0.82865406  0.82700166  1
  Fe  Fe45  1  0.82814637  0.16271922  0.49538079  1
  Cr  Cr46  1  0.66199744  0.99308303  0.66085792  1
  Cr  Cr47  1  0.82614611  0.16298810  0.83008970  1
  Ni  Ni48  1  0.82709331  0.49937153  0.49543122  1
  Cr  Cr49  1  0.66037351  0.33056751  0.66158821  1
  Cr  Cr50  1  0.82637120  0.49546077  0.82906591  1
  Fe  Fe51  1  0.82875965  0.82578373  0.49564912  1
  Cr  Cr52  1  0.66234494  0.66252600  0.66205188  1
  Fe  Fe53  1  0.82937879  0.82904845  0.82867333  1
" 