6127,Ni12Fe32Cr54_12,-216.269123992305, 176.699634119168,Ni12Fe32Cr54,"# generated using pymatgen
 data_Cr31Fe17Ni6
_symmetry_space_group_name_H-M   'P 1'
_cell_length_a   7.54017237
_cell_length_b   7.54017237
_cell_length_c   10.66341403
_cell_angle_alpha   90.00000000
_cell_angle_beta   90.00000000
_cell_angle_gamma   90.00000000
_symmetry_Int_Tables_number   1
_chemical_formula_structural   Cr31Fe17Ni6
_chemical_formula_sum   'Cr31 Fe17 Ni6'
_cell_volume   606.25986744
_cell_formula_units_Z   1
loop_
 _symmetry_equiv_pos_site_id
 _symmetry_equiv_pos_as_xyz
  1  'x, y, z'
loop_
 _atom_site_type_symbol
 _atom_site_label
 _atom_site_symmetry_multiplicity
 _atom_site_fract_x
 _atom_site_fract_y
 _atom_site_fract_z
 _atom_site_occupancy
  Cr  Cr0  1  -0.00441078  -0.00446605  0.99442764  1
  Cr  Cr1  1  0.16260724  0.16494872  0.16101779  1
  Cr  Cr2  1  0.99375913  -0.00445815  0.32817820  1
  Cr  Cr3  1  0.99369907  0.32865527  0.99458063  1
  Ni  Ni4  1  0.16242011  0.49424759  0.16239307  1
  Cr  Cr5  1  0.99216985  0.32938378  0.32979749  1
  Cr  Cr6  1  -0.00433390  0.66126636  0.99473166  1
  Cr  Cr7  1  0.16033063  0.82581378  0.16281304  1
  Ni  Ni8  1  0.99382257  0.65943954  0.32712457  1
  Cr  Cr9  1  0.32854165  -0.00442004  0.99304983  1
  Fe  Fe10  1  0.49581917  0.16323433  0.16247555  1
  Cr  Cr11  1  0.33031891  0.99345450  0.32971616  1
  Fe  Fe12  1  0.32870219  0.32854884  -0.00388825  1
  Fe  Fe13  1  0.49447678  0.49457402  0.16248784  1
  Cr  Cr14  1  0.33095251  0.33034905  0.32685623  1
  Cr  Cr15  1  0.32803117  0.66169901  -0.00296740  1
  Cr  Cr16  1  0.49766070  0.82846664  0.16366654  1
  Fe  Fe17  1  0.32792681  0.66047297  0.32794755  1
  Cr  Cr18  1  0.66139854  -0.00245267  -0.00373401  1
  Fe  Fe19  1  0.82736598  0.16313321  0.16325974  1
  Fe  Fe20  1  0.66269107  -0.00357760  0.32930541  1
  Cr  Cr21  1  0.66143215  0.32815000  -0.00370453  1
  Fe  Fe22  1  0.82952455  0.49542606  0.16334593  1
  Fe  Fe23  1  0.66302083  0.32885021  0.32844248  1
  Cr  Cr24  1  0.66185620  0.65981392  0.99449432  1
  Cr  Cr25  1  0.82751716  0.82860423  0.16252577  1
  Fe  Fe26  1  0.66213892  0.66014542  0.32941977  1
  Cr  Cr27  1  0.16128616  0.16280155  0.49688281  1
  Cr  Cr28  1  -0.00437001  -0.00359245  0.66286470  1
  Fe  Fe29  1  0.16279838  0.16036634  0.82837316  1
  Cr  Cr30  1  0.16204185  0.49515582  0.49358488  1
  Cr  Cr31  1  0.99270731  0.32765594  0.66111374  1
  Cr  Cr32  1  0.16197542  0.49355781  0.82977414  1
  Cr  Cr33  1  0.16189288  0.82736175  0.49406370  1
  Cr  Cr34  1  0.99394261  0.66124075  0.66331218  1
  Ni  Ni35  1  0.16193243  0.83054352  0.82816876  1
  Cr  Cr36  1  0.49711233  0.16123251  0.49587899  1
  Fe  Fe37  1  0.33005038  0.99444305  0.66288470  1
  Fe  Fe38  1  0.49497282  0.16060454  0.82741203  1
  Fe  Fe39  1  0.49783549  0.49664824  0.49475914  1
  Cr  Cr40  1  0.32918225  0.32726356  0.66266063  1
  Cr  Cr41  1  0.49587566  0.49361600  0.82874033  1
  Fe  Fe42  1  0.49721477  0.82831840  0.49581795  1
  Cr  Cr43  1  0.33033160  0.66399184  0.65979527  1
  Cr  Cr44  1  0.49693993  0.82952739  0.82560268  1
  Ni  Ni45  1  0.82460919  0.16182918  0.49442539  1
  Ni  Ni46  1  0.66065907  -0.00478112  0.66096749  1
  Fe  Fe47  1  0.82758048  0.16138239  0.82719815  1
  Fe  Fe48  1  0.82684312  0.49536437  0.49433987  1
  Cr  Cr49  1  0.66356127  0.32928423  0.66121173  1
  Fe  Fe50  1  0.82779051  0.49566835  0.82760650  1
  Cr  Cr51  1  0.82571773  0.82847029  0.49466170  1
  Ni  Ni52  1  0.66089629  0.66253061  0.66000570  1
  Cr  Cr53  1  0.82733427  0.82836559  0.82828406  1
" 