1559,Ni12Fe32Cr54_19,-216.291534997729, 180.341237720554,Ni12Fe32Cr54,"# generated using pymatgen
 data_Cr31Fe17Ni6
_symmetry_space_group_name_H-M   'P 1'
_cell_length_a   7.53327299
_cell_length_b   7.53327299
_cell_length_c   10.65365683
_cell_angle_alpha   90.00000000
_cell_angle_beta   90.00000000
_cell_angle_gamma   90.00000000
_symmetry_Int_Tables_number   1
_chemical_formula_structural   Cr31Fe17Ni6
_chemical_formula_sum   'Cr31 Fe17 Ni6'
_cell_volume   604.59717588
_cell_formula_units_Z   1
loop_
 _symmetry_equiv_pos_site_id
 _symmetry_equiv_pos_as_xyz
  1  'x, y, z'
loop_
 _atom_site_type_symbol
 _atom_site_label
 _atom_site_symmetry_multiplicity
 _atom_site_fract_x
 _atom_site_fract_y
 _atom_site_fract_z
 _atom_site_occupancy
  Cr  Cr0  1  -0.00436796  -0.00390133  -0.00319070  1
  Fe  Fe1  1  0.16317871  0.16242234  0.16132603  1
  Cr  Cr2  1  0.99305188  -0.00384915  0.32498042  1
  Cr  Cr3  1  0.99494973  0.32606004  0.99472649  1
  Cr  Cr4  1  0.16213277  0.49829976  0.16011933  1
  Cr  Cr5  1  0.99479316  0.32883253  0.32946372  1
  Fe  Fe6  1  0.99431761  0.66486776  0.99551985  1
  Fe  Fe7  1  0.16204134  0.82855462  0.16020055  1
  Cr  Cr8  1  0.99467937  0.66158624  0.32967835  1
  Fe  Fe9  1  0.32892959  0.99436064  0.99453279  1
  Cr  Cr10  1  0.49712591  0.16338032  0.16353103  1
  Cr  Cr11  1  0.32940270  0.99527698  0.32657713  1
  Cr  Cr12  1  0.32965631  0.32878574  0.99538837  1
  Fe  Fe13  1  0.49704450  0.49648042  0.16051060  1
  Cr  Cr14  1  0.33067876  0.33208325  0.33102319  1
  Fe  Fe15  1  0.32972236  0.66555808  0.99511217  1
  Cr  Cr16  1  0.49524732  0.82901342  0.16161771  1
  Cr  Cr17  1  0.33231338  0.65997544  0.32957117  1
  Cr  Cr18  1  0.66229434  0.99451918  0.99406436  1
  Fe  Fe19  1  0.82686778  0.16210107  0.16266507  1
  Ni  Ni20  1  0.66370412  0.99489015  0.32702647  1
  Fe  Fe21  1  0.66186895  0.32931930  -0.00398041  1
  Cr  Cr22  1  0.82759190  0.49634405  0.15916313  1
  Fe  Fe23  1  0.66253668  0.33000182  0.32943531  1
  Ni  Ni24  1  0.65931597  0.66285268  -0.00376009  1
  Fe  Fe25  1  0.82702878  0.82800384  0.16157067  1
  Fe  Fe26  1  0.66244862  0.66169791  0.32742527  1
  Cr  Cr27  1  0.16452193  0.16284257  0.49669026  1
  Cr  Cr28  1  0.99510846  0.99558722  0.66447484  1
  Ni  Ni29  1  0.16479962  0.16021653  0.83011382  1
  Fe  Fe30  1  0.16298036  0.49523750  0.49647389  1
  Cr  Cr31  1  -0.00411606  0.32930844  0.66205482  1
  Cr  Cr32  1  0.16174818  0.49685317  0.82956267  1
  Cr  Cr33  1  0.16219295  0.82871753  0.49365329  1
  Cr  Cr34  1  -0.00376084  0.66173776  0.66110280  1
  Ni  Ni35  1  0.16411770  0.82892395  0.83341519  1
  Cr  Cr36  1  0.49674784  0.16181537  0.49683685  1
  Cr  Cr37  1  0.32899497  0.99328149  0.66672194  1
  Cr  Cr38  1  0.49593505  0.16210329  0.82682778  1
  Fe  Fe39  1  0.49921797  0.49514884  0.49733479  1
  Fe  Fe40  1  0.33063227  0.32888208  0.66312456  1
  Cr  Cr41  1  0.49748182  0.49563681  0.83164681  1
  Cr  Cr42  1  0.49849369  0.83056457  0.49609885  1
  Cr  Cr43  1  0.33110630  0.66101563  0.66219606  1
  Fe  Fe44  1  0.49503928  0.82776551  0.83015803  1
  Cr  Cr45  1  0.82574258  0.16132175  0.49572802  1
  Ni  Ni46  1  0.66039606  -0.00438003  0.66347913  1
  Cr  Cr47  1  0.82672977  0.16399616  0.82701456  1
  Fe  Fe48  1  0.82504855  0.49490539  0.49620940  1
  Ni  Ni49  1  0.66079721  0.33101107  0.66141063  1
  Cr  Cr50  1  0.82790748  0.49672765  0.83055262  1
  Cr  Cr51  1  0.82632693  0.82806042  0.49506698  1
  Fe  Fe52  1  0.66177062  0.66150573  0.66285962  1
  Cr  Cr53  1  0.82812636  0.82633813  0.82753549  1
" 