5976,Ni12Fe57Cr29_4,-223.070415624993, 167.238787861583,Ni12Fe57Cr29,"# generated using pymatgen
 data_Cr17Fe31Ni6
_symmetry_space_group_name_H-M   'P 1'
_cell_length_a   7.48381428
_cell_length_b   7.48381428
_cell_length_c   10.58371165
_cell_angle_alpha   90.00000000
_cell_angle_beta   90.00000000
_cell_angle_gamma   90.00000000
_symmetry_Int_Tables_number   1
_chemical_formula_structural   Cr17Fe31Ni6
_chemical_formula_sum   'Cr17 Fe31 Ni6'
_cell_volume   592.76697753
_cell_formula_units_Z   1
loop_
 _symmetry_equiv_pos_site_id
 _symmetry_equiv_pos_as_xyz
  1  'x, y, z'
loop_
 _atom_site_type_symbol
 _atom_site_label
 _atom_site_symmetry_multiplicity
 _atom_site_fract_x
 _atom_site_fract_y
 _atom_site_fract_z
 _atom_site_occupancy
  Cr  Cr0  1  0.99870774  -0.00051406  0.00075147  1
  Fe  Fe1  1  0.16493307  0.16759492  0.16699470  1
  Fe  Fe2  1  0.99871332  0.99705571  0.33033101  1
  Fe  Fe3  1  0.99729253  0.33118419  0.99859638  1
  Fe  Fe4  1  0.16380106  0.49807858  0.16881699  1
  Fe  Fe5  1  0.00029027  0.33454269  0.33075085  1
  Cr  Cr6  1  0.99697994  0.66302745  0.00027144  1
  Fe  Fe7  1  0.16340588  0.83100472  0.16827333  1
  Ni  Ni8  1  0.99711628  0.66530863  0.33287145  1
  Cr  Cr9  1  0.33346375  0.00032339  0.99747178  1
  Fe  Fe10  1  0.50124837  0.16656571  0.16690752  1
  Cr  Cr11  1  0.33354910  0.00019764  0.33188814  1
  Cr  Cr12  1  0.33218433  0.32971536  -0.00092763  1
  Cr  Cr13  1  0.49942177  0.49905618  0.16614332  1
  Ni  Ni14  1  0.33236424  0.33170381  0.33208232  1
  Cr  Cr15  1  0.32996793  0.66669390  0.00002494  1
  Cr  Cr16  1  0.50124550  0.83040034  0.16455176  1
  Fe  Fe17  1  0.32852508  0.66443299  0.33246043  1
  Fe  Fe18  1  0.66500963  0.00008502  0.99838908  1
  Fe  Fe19  1  0.83062488  0.16630411  0.16687662  1
  Fe  Fe20  1  0.66706788  0.99850128  0.33236438  1
  Fe  Fe21  1  0.66917879  0.33101744  0.99850558  1
  Fe  Fe22  1  0.83270141  0.49869128  0.16630831  1
  Fe  Fe23  1  0.66613799  0.33207385  0.33184623  1
  Fe  Fe24  1  0.66669467  0.66568931  0.99754276  1
  Fe  Fe25  1  0.83233300  0.83148573  0.16772958  1
  Fe  Fe26  1  0.66779673  0.66591440  0.33381134  1
  Cr  Cr27  1  0.16398280  0.16601912  0.50072591  1
  Fe  Fe28  1  0.99866959  0.99884129  0.66594863  1
  Ni  Ni29  1  0.16339028  0.16617347  0.82966832  1
  Fe  Fe30  1  0.16382274  0.49987566  0.49794921  1
  Fe  Fe31  1  0.99762028  0.33325595  0.66669872  1
  Cr  Cr32  1  0.16450922  0.49598122  0.82949075  1
  Fe  Fe33  1  0.16423868  0.82979040  0.49920049  1
  Fe  Fe34  1  0.99601290  0.66416769  0.66336220  1
  Cr  Cr35  1  0.16694128  0.83476886  0.82920477  1
  Fe  Fe36  1  0.49821922  0.16596155  0.49757159  1
  Fe  Fe37  1  0.33338291  0.99878598  0.66607836  1
  Fe  Fe38  1  0.49839428  0.16445819  0.83196408  1
  Cr  Cr39  1  0.49808060  0.50063108  0.49713103  1
  Fe  Fe40  1  0.33233382  0.33096882  0.66515432  1
  Cr  Cr41  1  0.50120925  0.50255223  0.83348432  1
  Fe  Fe42  1  0.49925315  0.83245704  0.49979451  1
  Fe  Fe43  1  0.33476327  0.66751730  0.66456905  1
  Ni  Ni44  1  0.50076214  0.83244950  0.83141379  1
  Cr  Cr45  1  0.83448822  0.16429794  0.49682270  1
  Cr  Cr46  1  0.66332807  0.99867634  0.66530142  1
  Fe  Fe47  1  0.83350073  0.16752515  0.83276332  1
  Fe  Fe48  1  0.83444608  0.50117120  0.49909846  1
  Cr  Cr49  1  0.66609823  0.33311158  0.66611691  1
  Ni  Ni50  1  0.83113062  0.49680846  0.83242083  1
  Fe  Fe51  1  0.83293983  0.82936707  0.49835589  1
  Ni  Ni52  1  0.66764597  0.66598840  0.66531072  1
  Cr  Cr53  1  0.82959016  0.83177342  0.83227508  1
" 