8066,Ni12Fe88_2,-241.985906940013, 196.025680099251,Ni12Fe88,"# generated using pymatgen
 data_FeNi8
_symmetry_space_group_name_H-M   'P 1'
_cell_length_a   7.43774850
_cell_length_b   7.43774850
_cell_length_c   10.51856481
_cell_angle_alpha   90.00000000
_cell_angle_beta   90.00000000
_cell_angle_gamma   90.00000000
_symmetry_Int_Tables_number   1
_chemical_formula_structural   FeNi8
_chemical_formula_sum   'Fe6 Ni48'
_cell_volume   581.88808674
_cell_formula_units_Z   6
loop_
 _symmetry_equiv_pos_site_id
 _symmetry_equiv_pos_as_xyz
  1  'x, y, z'
loop_
 _atom_site_type_symbol
 _atom_site_label
 _atom_site_symmetry_multiplicity
 _atom_site_fract_x
 _atom_site_fract_y
 _atom_site_fract_z
 _atom_site_occupancy
  Ni  Ni0  1  1.00185883  1.00161628  0.00275762  1
  Ni  Ni1  1  0.16889084  0.16932715  0.16898163  1
  Ni  Ni2  1  1.00169180  1.00109336  0.33488185  1
  Ni  Ni3  1  1.00131020  0.33540994  1.00195958  1
  Ni  Ni4  1  0.16836828  0.49980010  0.16814324  1
  Ni  Ni5  1  1.00111421  0.33576022  0.33555108  1
  Ni  Ni6  1  1.00179297  0.66884948  1.00098012  1
  Fe  Fe7  1  0.16936792  0.83411462  0.16805452  1
  Ni  Ni8  1  0.00264965  0.66895133  0.33581655  1
  Ni  Ni9  1  0.33539562  1.00160143  0.00215543  1
  Ni  Ni10  1  0.50002328  0.16770526  0.16815633  1
  Ni  Ni11  1  0.33565252  1.00133580  0.33538183  1
  Ni  Ni12  1  0.33591938  0.33543974  1.00177992  1
  Ni  Ni13  1  0.50151701  0.50229688  0.16907927  1
  Ni  Ni14  1  0.33629920  0.33543250  0.33573383  1
  Ni  Ni15  1  0.33557613  0.66874017  1.00176319  1
  Ni  Ni16  1  0.50376961  0.83597146  0.16865894  1
  Ni  Ni17  1  0.33464057  0.66885335  0.33548524  1
  Ni  Ni18  1  0.66859392  0.00208257  1.00103115  1
  Fe  Fe19  1  0.83412354  0.16944680  0.16859658  1
  Ni  Ni20  1  0.66844680  0.00308900  0.33594695  1
  Ni  Ni21  1  0.66851538  0.33577313  0.00216037  1
  Ni  Ni22  1  0.83607643  0.50371492  0.16867259  1
  Ni  Ni23  1  0.66824411  0.33473144  0.33537114  1
  Ni  Ni24  1  0.66863118  0.66832491  0.00260420  1
  Ni  Ni25  1  0.83425306  0.83539668  0.16822593  1
  Fe  Fe26  1  0.66889027  0.66879963  0.33528847  1
  Ni  Ni27  1  0.16864854  0.16942355  0.50160819  1
  Ni  Ni28  1  0.00237339  1.00185046  0.66829661  1
  Ni  Ni29  1  0.16810512  0.16886612  0.83532658  1
  Ni  Ni30  1  0.16863578  0.50031918  0.50247327  1
  Ni  Ni31  1  1.00079922  0.33489494  0.66831225  1
  Ni  Ni32  1  0.16891405  0.50080996  0.83528748  1
  Fe  Fe33  1  0.16863745  0.83508318  0.50264691  1
  Ni  Ni34  1  1.00164263  0.66909480  0.66923406  1
  Ni  Ni35  1  0.16890683  0.83625236  0.83573343  1
  Ni  Ni36  1  0.50100009  0.16793461  0.50253355  1
  Ni  Ni37  1  0.33485288  1.00158708  0.66854545  1
  Fe  Fe38  1  0.50180054  0.16908899  0.83551068  1
  Ni  Ni39  1  0.50138481  0.50255946  0.50111069  1
  Ni  Ni40  1  0.33630062  0.33524702  0.66846834  1
  Ni  Ni41  1  0.50185711  0.50340145  0.83573164  1
  Ni  Ni42  1  0.50298166  0.83540982  0.50158248  1
  Ni  Ni43  1  0.33578921  0.66907435  0.66878135  1
  Ni  Ni44  1  0.50258333  0.83476435  0.83556089  1
  Ni  Ni45  1  0.83630331  0.16797074  0.50099509  1
  Fe  Fe46  1  0.66904052  1.00192237  0.66834180  1
  Ni  Ni47  1  0.83700492  0.16811091  0.83593851  1
  Ni  Ni48  1  0.83592015  0.50254983  0.50190030  1
  Ni  Ni49  1  0.66891068  0.33584111  0.66836219  1
  Ni  Ni50  1  0.83511354  0.50217965  0.83534770  1
  Ni  Ni51  1  0.83434975  0.83540423  0.50238348  1
  Ni  Ni52  1  0.66846645  0.66750940  0.66794870  1
  Ni  Ni53  1  0.83442433  0.83555150  0.83518040  1
" 