8535,Ni12Fe88_19,-242.167380414601, 196.988889370288,Ni12Fe88,"# generated using pymatgen
 data_FeNi8
_symmetry_space_group_name_H-M   'P 1'
_cell_length_a   7.44006193
_cell_length_b   7.44006193
_cell_length_c   10.52183648
_cell_angle_alpha   90.00000000
_cell_angle_beta   90.00000000
_cell_angle_gamma   90.00000000
_symmetry_Int_Tables_number   1
_chemical_formula_structural   FeNi8
_chemical_formula_sum   'Fe6 Ni48'
_cell_volume   582.43122312
_cell_formula_units_Z   6
loop_
 _symmetry_equiv_pos_site_id
 _symmetry_equiv_pos_as_xyz
  1  'x, y, z'
loop_
 _atom_site_type_symbol
 _atom_site_label
 _atom_site_symmetry_multiplicity
 _atom_site_fract_x
 _atom_site_fract_y
 _atom_site_fract_z
 _atom_site_occupancy
  Ni  Ni0  1  0.00193573  0.00209572  0.00184408  1
  Ni  Ni1  1  0.16866489  0.16829847  0.16879212  1
  Ni  Ni2  1  1.00084028  0.00185835  0.33524153  1
  Ni  Ni3  1  0.00192138  0.33487359  0.00192227  1
  Ni  Ni4  1  0.16870840  0.50257771  0.16786440  1
  Ni  Ni5  1  0.00276174  0.33431301  0.33516344  1
  Ni  Ni6  1  0.00190746  0.66849897  0.00224761  1
  Ni  Ni7  1  0.16832677  0.83456062  0.16922269  1
  Ni  Ni8  1  0.00219423  0.66909956  0.33489715  1
  Ni  Ni9  1  0.33489723  0.00191614  0.00283490  1
  Ni  Ni10  1  0.50241859  0.16864779  0.16838197  1
  Fe  Fe11  1  0.33484159  0.00237908  0.33506105  1
  Ni  Ni12  1  0.33510942  0.33523429  1.00150262  1
  Ni  Ni13  1  0.50200155  0.50187903  0.16867201  1
  Ni  Ni14  1  0.33486192  0.33590923  0.33486975  1
  Ni  Ni15  1  0.33530152  0.66830552  0.00201675  1
  Ni  Ni16  1  0.50202507  0.83494306  0.16881923  1
  Ni  Ni17  1  0.33506066  0.66761520  0.33485447  1
  Ni  Ni18  1  0.66858173  0.00196204  0.00192235  1
  Ni  Ni19  1  0.83438470  0.16824719  0.16868053  1
  Ni  Ni20  1  0.66948462  1.00160088  0.33480653  1
  Ni  Ni21  1  0.66840545  0.33525040  0.00237155  1
  Ni  Ni22  1  0.83474015  0.50223829  0.16953343  1
  Ni  Ni23  1  0.66793118  0.33447050  0.33497393  1
  Ni  Ni24  1  0.66820021  0.66828264  0.00229771  1
  Ni  Ni25  1  0.83508324  0.83496158  0.16788832  1
  Ni  Ni26  1  0.66815353  0.66934686  0.33528542  1
  Ni  Ni27  1  0.16895822  0.16855662  0.50246816  1
  Ni  Ni28  1  1.00176925  0.00192795  0.66836333  1
  Ni  Ni29  1  0.16893023  0.16746177  0.83416706  1
  Ni  Ni30  1  0.16934590  0.50288106  0.50260022  1
  Ni  Ni31  1  0.00227108  0.33465181  0.66830275  1
  Ni  Ni32  1  0.16854427  0.50316646  0.83501307  1
  Ni  Ni33  1  0.16738794  0.83399378  0.50160743  1
  Ni  Ni34  1  0.00202213  0.66870755  0.66826698  1
  Ni  Ni35  1  0.16850506  0.83478960  0.83457750  1
  Ni  Ni36  1  0.50271334  0.16919045  0.50205373  1
  Ni  Ni37  1  0.33522109  1.00172099  0.66758019  1
  Ni  Ni38  1  0.50247041  0.16887846  0.83501122  1
  Fe  Fe39  1  0.50127398  0.50129704  0.50175121  1
  Ni  Ni40  1  0.33509503  0.33522302  0.66897679  1
  Ni  Ni41  1  0.50245359  0.50149419  0.83462076  1
  Fe  Fe42  1  0.50124934  0.83646315  0.50131689  1
  Ni  Ni43  1  0.33540183  0.66861469  0.66860633  1
  Fe  Fe44  1  0.50090748  0.83533392  0.83587207  1
  Ni  Ni45  1  0.83382718  0.16715154  0.50216705  1
  Ni  Ni46  1  0.66831615  1.00162199  0.66886327  1
  Ni  Ni47  1  0.83404377  0.16886762  0.83458384  1
  Fe  Fe48  1  0.83679403  0.50090014  0.50149664  1
  Ni  Ni49  1  0.66820373  0.33492800  0.66793689  1
  Ni  Ni50  1  0.83444985  0.50187832  0.83421964  1
  Ni  Ni51  1  0.83524088  0.83499600  0.50254965  1
  Ni  Ni52  1  0.66798670  0.66889788  0.66786295  1
  Fe  Fe53  1  0.83580540  0.83497138  0.83512766  1
" 