4880,Ni12Fe57Cr29_7,-223.034587434151, 170.497791721399,Ni12Fe57Cr29,"# generated using pymatgen
 data_Cr17Fe31Ni6
_symmetry_space_group_name_H-M   'P 1'
_cell_length_a   7.47866219
_cell_length_b   7.47866219
_cell_length_c   10.57642550
_cell_angle_alpha   90.00000000
_cell_angle_beta   90.00000000
_cell_angle_gamma   90.00000000
_symmetry_Int_Tables_number   1
_chemical_formula_structural   Cr17Fe31Ni6
_chemical_formula_sum   'Cr17 Fe31 Ni6'
_cell_volume   591.54358396
_cell_formula_units_Z   1
loop_
 _symmetry_equiv_pos_site_id
 _symmetry_equiv_pos_as_xyz
  1  'x, y, z'
loop_
 _atom_site_type_symbol
 _atom_site_label
 _atom_site_symmetry_multiplicity
 _atom_site_fract_x
 _atom_site_fract_y
 _atom_site_fract_z
 _atom_site_occupancy
  Fe  Fe0  1  0.99659999  0.99805474  0.99844343  1
  Fe  Fe1  1  0.16561419  0.16447560  0.16466299  1
  Cr  Cr2  1  0.00025027  0.99784824  0.33518294  1
  Cr  Cr3  1  0.00166503  0.33314729  0.99904567  1
  Fe  Fe4  1  0.16401935  0.49972407  0.16546692  1
  Fe  Fe5  1  0.00109097  0.33460567  0.33197125  1
  Fe  Fe6  1  0.99850273  0.66504719  -0.00053137  1
  Cr  Cr7  1  0.16541517  0.83300649  0.16342720  1
  Ni  Ni8  1  0.99914039  0.66672484  0.33127650  1
  Fe  Fe9  1  0.33319319  0.00167503  0.99701954  1
  Cr  Cr10  1  0.49693323  0.16505628  0.16431347  1
  Fe  Fe11  1  0.33023941  0.00007975  0.33515354  1
  Fe  Fe12  1  0.33218603  0.33411364  0.99726586  1
  Fe  Fe13  1  0.49862660  0.50124206  0.16524419  1
  Cr  Cr14  1  0.33081219  0.33048270  0.33088172  1
  Fe  Fe15  1  0.33231321  0.66172675  0.99849908  1
  Cr  Cr16  1  0.49791441  0.83357863  0.16670228  1
  Cr  Cr17  1  0.33018021  0.66477056  0.33470959  1
  Fe  Fe18  1  0.66774077  0.99866920  0.99750405  1
  Cr  Cr19  1  0.83389050  0.16660943  0.16564646  1
  Cr  Cr20  1  0.66638871  0.99777017  0.33403862  1
  Cr  Cr21  1  0.66379261  0.33365914  0.99701539  1
  Fe  Fe22  1  0.83469040  0.50288541  0.16776327  1
  Cr  Cr23  1  0.66403314  0.33221737  0.33151742  1
  Cr  Cr24  1  0.66675741  0.66712368  0.00036479  1
  Ni  Ni25  1  0.83513051  0.82989326  0.16494228  1
  Fe  Fe26  1  0.66954663  0.66654042  0.33137537  1
  Fe  Fe27  1  0.16789941  0.16643845  0.50211453  1
  Fe  Fe28  1  -0.00073237  0.00110612  0.66464489  1
  Fe  Fe29  1  0.16700660  0.16661824  0.83127923  1
  Fe  Fe30  1  0.16648232  0.49857637  0.50059995  1
  Fe  Fe31  1  0.00013931  0.33133698  0.66731748  1
  Fe  Fe32  1  0.16802158  0.49716229  0.83174792  1
  Ni  Ni33  1  0.16450882  0.83388063  0.50025691  1
  Cr  Cr34  1  -0.00035304  0.66814986  0.66595428  1
  Cr  Cr35  1  0.16708894  0.83240312  0.83460698  1
  Ni  Ni36  1  0.49824271  0.16588704  0.50220565  1
  Fe  Fe37  1  0.33211912  0.00011533  0.66559722  1
  Fe  Fe38  1  0.49733216  0.16467214  0.83040224  1
  Cr  Cr39  1  0.50135648  0.49786087  0.50181375  1
  Ni  Ni40  1  0.33190907  0.33014012  0.66812110  1
  Fe  Fe41  1  0.49743930  0.50031647  0.82947436  1
  Cr  Cr42  1  0.49653145  0.83339846  0.50030062  1
  Fe  Fe43  1  0.33303239  0.66459663  0.66633009  1
  Fe  Fe44  1  0.50063146  0.83293649  0.83131621  1
  Fe  Fe45  1  0.83225083  0.16454522  0.50192118  1
  Fe  Fe46  1  0.66589281  0.00016980  0.66616717  1
  Fe  Fe47  1  0.83337599  0.16397839  0.83133082  1
  Cr  Cr48  1  0.83429548  0.49737502  0.49760217  1
  Fe  Fe49  1  0.66511568  0.33183503  0.66756558  1
  Fe  Fe50  1  0.83234590  0.49975592  0.83041086  1
  Fe  Fe51  1  0.83247463  0.83167459  0.50000087  1
  Ni  Ni52  1  0.66617546  0.66831642  0.66721427  1
  Fe  Fe53  1  0.83081845  0.83409460  0.83286943  1
" 