6276,Ni12Fe88_4,-242.256083670878, 197.153870505138,Ni12Fe88,"# generated using pymatgen
 data_FeNi8
_symmetry_space_group_name_H-M   'P 1'
_cell_length_a   7.43916519
_cell_length_b   7.43916519
_cell_length_c   10.52056831
_cell_angle_alpha   90.00000000
_cell_angle_beta   90.00000000
_cell_angle_gamma   90.00000000
_symmetry_Int_Tables_number   1
_chemical_formula_structural   FeNi8
_chemical_formula_sum   'Fe6 Ni48'
_cell_volume   582.22065180
_cell_formula_units_Z   6
loop_
 _symmetry_equiv_pos_site_id
 _symmetry_equiv_pos_as_xyz
  1  'x, y, z'
loop_
 _atom_site_type_symbol
 _atom_site_label
 _atom_site_symmetry_multiplicity
 _atom_site_fract_x
 _atom_site_fract_y
 _atom_site_fract_z
 _atom_site_occupancy
  Ni  Ni0  1  0.00207591  0.00307116  1.00142776  1
  Ni  Ni1  1  0.16837930  0.16889144  0.16888881  1
  Ni  Ni2  1  0.00206500  0.00223343  0.33545123  1
  Ni  Ni3  1  1.00174261  0.33466783  1.00172958  1
  Ni  Ni4  1  0.16986076  0.49987223  0.16919497  1
  Ni  Ni5  1  1.00175232  0.33518922  0.33566282  1
  Fe  Fe6  1  1.00130300  0.66798276  1.00180161  1
  Fe  Fe7  1  0.16774285  0.83454834  0.16874494  1
  Ni  Ni8  1  0.00191054  0.66803327  0.33484324  1
  Ni  Ni9  1  0.33483246  1.00103980  0.00216366  1
  Fe  Fe10  1  0.50258185  0.16945662  0.16758149  1
  Ni  Ni11  1  0.33509503  0.00190006  0.33447352  1
  Ni  Ni12  1  0.33446163  0.33576827  1.00092088  1
  Ni  Ni13  1  0.50116715  0.50333739  0.16848113  1
  Ni  Ni14  1  0.33520535  0.33515373  0.33568555  1
  Ni  Ni15  1  0.33594765  0.66877074  1.00184496  1
  Ni  Ni16  1  0.50254284  0.83455958  0.16927531  1
  Ni  Ni17  1  0.33524526  0.66855264  0.33519953  1
  Ni  Ni18  1  0.66869435  1.00138446  1.00128093  1
  Ni  Ni19  1  0.83674615  0.16755573  0.16890074  1
  Ni  Ni20  1  0.66845495  0.00214481  0.33532297  1
  Ni  Ni21  1  0.66955272  0.33592793  0.00200297  1
  Ni  Ni22  1  0.83458862  0.50197797  0.16923932  1
  Ni  Ni23  1  0.66887406  0.33538504  0.33451077  1
  Ni  Ni24  1  0.66738214  0.66844946  1.00130797  1
  Ni  Ni25  1  0.83320006  0.83615416  0.16883133  1
  Ni  Ni26  1  0.66829562  0.66828435  0.33575629  1
  Ni  Ni27  1  0.16842402  0.16801636  0.50204242  1
  Ni  Ni28  1  0.00255719  0.00215421  0.66869257  1
  Ni  Ni29  1  0.16862544  0.16836677  0.83462087  1
  Ni  Ni30  1  0.16965805  0.50172783  0.50165073  1
  Ni  Ni31  1  1.00094535  0.33530994  0.66822531  1
  Ni  Ni32  1  0.16934929  0.50151539  0.83479313  1
  Ni  Ni33  1  0.16829533  0.83582778  0.50074136  1
  Ni  Ni34  1  0.00256595  0.66816025  0.66901874  1
  Ni  Ni35  1  0.16894600  0.83572370  0.83619299  1
  Fe  Fe36  1  0.50232071  0.16902071  0.50234899  1
  Ni  Ni37  1  0.33463866  1.00056911  0.66904104  1
  Ni  Ni38  1  0.50165971  0.16832433  0.83590828  1
  Ni  Ni39  1  0.50170519  0.50224640  0.50159902  1
  Fe  Fe40  1  0.33529615  0.33538175  0.66878592  1
  Ni  Ni41  1  0.50164718  0.50221801  0.83543861  1
  Fe  Fe42  1  0.50176000  0.83485202  0.50184518  1
  Ni  Ni43  1  0.33490614  0.66948746  0.66852096  1
  Ni  Ni44  1  0.50198859  0.83505503  0.83444906  1
  Ni  Ni45  1  0.83575151  0.16769867  0.50151710  1
  Ni  Ni46  1  0.66838360  0.00231984  0.66906128  1
  Ni  Ni47  1  0.83535523  0.16799988  0.83519683  1
  Ni  Ni48  1  0.83433093  0.50205653  0.50111620  1
  Ni  Ni49  1  0.66984467  0.33551819  0.66919123  1
  Ni  Ni50  1  0.83462608  0.50184182  0.83532093  1
  Ni  Ni51  1  0.83519780  0.83584752  0.50198015  1
  Ni  Ni52  1  0.66808963  0.66784927  0.66850061  1
  Ni  Ni53  1  0.83462894  0.83581635  0.83487375  1
" 