5712,Ni12Fe88_6,-242.083154689668, 196.143153108309,Ni12Fe88,"# generated using pymatgen
 data_FeNi8
_symmetry_space_group_name_H-M   'P 1'
_cell_length_a   7.43763279
_cell_length_b   7.43763279
_cell_length_c   10.51840117
_cell_angle_alpha   90.00000000
_cell_angle_beta   90.00000000
_cell_angle_gamma   90.00000000
_symmetry_Int_Tables_number   1
_chemical_formula_structural   FeNi8
_chemical_formula_sum   'Fe6 Ni48'
_cell_volume   581.86092942
_cell_formula_units_Z   6
loop_
 _symmetry_equiv_pos_site_id
 _symmetry_equiv_pos_as_xyz
  1  'x, y, z'
loop_
 _atom_site_type_symbol
 _atom_site_label
 _atom_site_symmetry_multiplicity
 _atom_site_fract_x
 _atom_site_fract_y
 _atom_site_fract_z
 _atom_site_occupancy
  Ni  Ni0  1  0.00280500  1.00186257  1.00163946  1
  Fe  Fe1  1  0.16867426  0.16802336  0.16928865  1
  Ni  Ni2  1  0.00220794  0.00241546  0.33533888  1
  Fe  Fe3  1  1.00137062  0.33603798  1.00192534  1
  Ni  Ni4  1  0.16872422  0.50228568  0.16879540  1
  Ni  Ni5  1  1.00157112  0.33524964  0.33451284  1
  Ni  Ni6  1  0.00281422  0.66870468  1.00164894  1
  Ni  Ni7  1  0.16846955  0.83496296  0.16887445  1
  Ni  Ni8  1  0.00265678  0.66822339  0.33584431  1
  Ni  Ni9  1  0.33494134  1.00173908  0.00220645  1
  Ni  Ni10  1  0.50267483  0.16861571  0.16964263  1
  Ni  Ni11  1  0.33508426  1.00167071  0.33503650  1
  Fe  Fe12  1  0.33644409  0.33539279  0.00239755  1
  Ni  Ni13  1  0.50165813  0.50128391  0.16846151  1
  Ni  Ni14  1  0.33542920  0.33562460  0.33541116  1
  Ni  Ni15  1  0.33459589  0.66900539  1.00163141  1
  Ni  Ni16  1  0.50191052  0.83599805  0.16803873  1
  Ni  Ni17  1  0.33505128  0.66856661  0.33500446  1
  Ni  Ni18  1  0.66820092  0.00345079  1.00150129  1
  Ni  Ni19  1  0.83464992  0.16844252  0.16789720  1
  Ni  Ni20  1  0.66865593  0.00280653  0.33506579  1
  Ni  Ni21  1  0.66861847  0.33521872  1.00193911  1
  Ni  Ni22  1  0.83559193  0.50147915  0.16915243  1
  Ni  Ni23  1  0.66896925  0.33525813  0.33551515  1
  Ni  Ni24  1  0.66852514  0.66734530  0.00208344  1
  Ni  Ni25  1  0.83556042  0.83601378  0.16886949  1
  Ni  Ni26  1  0.66823045  0.66786449  0.33454270  1
  Ni  Ni27  1  0.16775934  0.16879374  0.50108360  1
  Ni  Ni28  1  0.00299910  0.00277124  0.66899758  1
  Ni  Ni29  1  0.16950016  0.16865837  0.83613549  1
  Ni  Ni30  1  0.16876692  0.50109121  0.50228527  1
  Ni  Ni31  1  1.00121784  0.33523474  0.66937623  1
  Ni  Ni32  1  0.16853049  0.50128426  0.83487624  1
  Ni  Ni33  1  0.16889878  0.83599765  0.50227839  1
  Ni  Ni34  1  0.00264754  0.66796464  0.66844010  1
  Ni  Ni35  1  0.16832000  0.83597674  0.83479532  1
  Fe  Fe36  1  0.50222069  0.16820470  0.50165998  1
  Ni  Ni37  1  0.33484573  1.00139863  0.66874398  1
  Ni  Ni38  1  0.50104105  0.16875092  0.83440515  1
  Ni  Ni39  1  0.50194907  0.50237856  0.50190012  1
  Fe  Fe40  1  0.33485509  0.33539743  0.66825510  1
  Ni  Ni41  1  0.50210509  0.50117407  0.83559083  1
  Ni  Ni42  1  0.50217996  0.83498671  0.50186136  1
  Ni  Ni43  1  0.33519828  0.66931328  0.66930671  1
  Ni  Ni44  1  0.50232717  0.83598365  0.83602440  1
  Ni  Ni45  1  0.83622365  0.16859941  0.50264474  1
  Ni  Ni46  1  0.66805338  0.00276833  0.66927310  1
  Fe  Fe47  1  0.83502479  0.16846296  0.83509750  1
  Ni  Ni48  1  0.83519535  0.50129241  0.50144272  1
  Ni  Ni49  1  0.66935384  0.33561836  0.66839978  1
  Ni  Ni50  1  0.83527420  0.50243579  0.83529294  1
  Ni  Ni51  1  0.83485432  0.83602071  0.50186828  1
  Ni  Ni52  1  0.66807749  0.66762344  0.66929474  1
  Ni  Ni53  1  0.83527630  0.83505734  0.83518638  1
" 