1670,Ni12Fe54Cr33_7,-222.438824352871, 173.519983416224,Ni12Fe54Cr33,"# generated using pymatgen
 data_Cr19Fe29Ni6
_symmetry_space_group_name_H-M   'P 1'
_cell_length_a   7.48773438
_cell_length_b   7.48773438
_cell_length_c   10.58925551
_cell_angle_alpha   90.00000000
_cell_angle_beta   90.00000000
_cell_angle_gamma   90.00000000
_symmetry_Int_Tables_number   1
_chemical_formula_structural   Cr19Fe29Ni6
_chemical_formula_sum   'Cr19 Fe29 Ni6'
_cell_volume   593.69895812
_cell_formula_units_Z   1
loop_
 _symmetry_equiv_pos_site_id
 _symmetry_equiv_pos_as_xyz
  1  'x, y, z'
loop_
 _atom_site_type_symbol
 _atom_site_label
 _atom_site_symmetry_multiplicity
 _atom_site_fract_x
 _atom_site_fract_y
 _atom_site_fract_z
 _atom_site_occupancy
  Ni  Ni0  1  0.00120392  -0.00086073  0.00035936  1
  Ni  Ni1  1  0.16648612  0.16717425  0.16629163  1
  Fe  Fe2  1  -0.00078692  -0.00129383  0.32931074  1
  Cr  Cr3  1  0.99529082  0.33076511  -0.00065073  1
  Fe  Fe4  1  0.16451131  0.49866212  0.16706915  1
  Fe  Fe5  1  -0.00111716  0.33126602  0.32884534  1
  Cr  Cr6  1  -0.00095904  0.66653462  0.00168222  1
  Ni  Ni7  1  0.16601556  0.83164146  0.16630557  1
  Fe  Fe8  1  -0.00083327  0.66605639  0.33044104  1
  Cr  Cr9  1  0.32955724  0.99770153  0.00103930  1
  Fe  Fe10  1  0.49878891  0.16537330  0.16682094  1
  Cr  Cr11  1  0.32978187  0.99812461  0.33137141  1
  Fe  Fe12  1  0.33038073  0.33151208  0.00108044  1
  Fe  Fe13  1  0.49648726  0.49995507  0.16686653  1
  Fe  Fe14  1  0.33237567  0.33281026  0.33004949  1
  Fe  Fe15  1  0.33259441  0.66388155  0.00203300  1
  Fe  Fe16  1  0.49747877  0.83049475  0.16575277  1
  Fe  Fe17  1  0.33209537  0.66445906  0.33000548  1
  Fe  Fe18  1  0.66723595  0.00150481  0.00083377  1
  Fe  Fe19  1  0.83488268  0.16514680  0.16627300  1
  Fe  Fe20  1  0.66539912  -0.00126621  0.33011972  1
  Cr  Cr21  1  0.66404307  0.33488981  0.00141137  1
  Ni  Ni22  1  0.83136733  0.49871907  0.16907512  1
  Fe  Fe23  1  0.66478802  0.33291541  0.32943757  1
  Fe  Fe24  1  0.66423382  0.66478757  0.00166689  1
  Cr  Cr25  1  0.83031636  0.83318407  0.16510204  1
  Fe  Fe26  1  0.66454912  0.66382586  0.33118643  1
  Fe  Fe27  1  0.16496387  0.16670174  0.49645873  1
  Cr  Cr28  1  0.00079485  0.99750205  0.66565663  1
  Fe  Fe29  1  0.16379913  0.16519876  0.83328508  1
  Cr  Cr30  1  0.16481204  0.49639510  0.49614573  1
  Fe  Fe31  1  0.00190288  0.32948995  0.66551432  1
  Cr  Cr32  1  0.16902148  0.49713082  0.83340426  1
  Fe  Fe33  1  0.16364535  0.83128237  0.49490557  1
  Cr  Cr34  1  0.99720959  0.66666283  0.66268223  1
  Fe  Fe35  1  0.16427015  0.83191946  0.83440320  1
  Cr  Cr36  1  0.49824632  0.16566030  0.49727693  1
  Cr  Cr37  1  0.32834831  0.99797457  0.66392797  1
  Cr  Cr38  1  0.49879342  0.16427857  0.83187497  1
  Fe  Fe39  1  0.49840967  0.49837324  0.49704926  1
  Ni  Ni40  1  0.33410579  0.33219483  0.66488288  1
  Fe  Fe41  1  0.49934058  0.49851961  0.83253050  1
  Cr  Cr42  1  0.50063563  0.83139435  0.49883610  1
  Fe  Fe43  1  0.33245158  0.66268391  0.66472575  1
  Cr  Cr44  1  0.49864622  0.83014419  0.83347917  1
  Cr  Cr45  1  0.83326266  0.16473247  0.49621542  1
  Fe  Fe46  1  0.66686046  -0.00043934  0.66512009  1
  Ni  Ni47  1  0.83317737  0.16347647  0.83348749  1
  Fe  Fe48  1  0.83008071  0.49975017  0.49474754  1
  Cr  Cr49  1  0.66667435  0.33547580  0.66490312  1
  Cr  Cr50  1  0.83467833  0.49930842  0.83049365  1
  Fe  Fe51  1  0.83262774  0.83115213  0.49534797  1
  Fe  Fe52  1  0.66333478  0.66580429  0.66394260  1
  Cr  Cr53  1  0.82914532  0.83467379  0.83432891  1
" 