6030,Ni12Fe54Cr33_17,-222.620536974745, 172.399276639334,Ni12Fe54Cr33,"# generated using pymatgen
 data_Cr19Fe29Ni6
_symmetry_space_group_name_H-M   'P 1'
_cell_length_a   7.48813961
_cell_length_b   7.48813961
_cell_length_c   10.58982859
_cell_angle_alpha   90.00000000
_cell_angle_beta   90.00000000
_cell_angle_gamma   90.00000000
_symmetry_Int_Tables_number   1
_chemical_formula_structural   Cr19Fe29Ni6
_chemical_formula_sum   'Cr19 Fe29 Ni6'
_cell_volume   593.79535539
_cell_formula_units_Z   1
loop_
 _symmetry_equiv_pos_site_id
 _symmetry_equiv_pos_as_xyz
  1  'x, y, z'
loop_
 _atom_site_type_symbol
 _atom_site_label
 _atom_site_symmetry_multiplicity
 _atom_site_fract_x
 _atom_site_fract_y
 _atom_site_fract_z
 _atom_site_occupancy
  Cr  Cr0  1  0.99730426  -0.00105949  0.99519670  1
  Fe  Fe1  1  0.16429260  0.16511860  0.16269287  1
  Fe  Fe2  1  -0.00029563  -0.00023489  0.33076756  1
  Fe  Fe3  1  0.00113081  0.33235158  0.00036651  1
  Fe  Fe4  1  0.16338782  0.49750491  0.16347849  1
  Cr  Cr5  1  0.00005673  0.33172667  0.33047779  1
  Fe  Fe6  1  0.00020483  0.66337379  0.99710885  1
  Cr  Cr7  1  0.16766589  0.83133349  0.16489225  1
  Fe  Fe8  1  -0.00080218  0.66500463  0.33262591  1
  Fe  Fe9  1  0.33342514  0.00135573  0.99794715  1
  Fe  Fe10  1  0.49907374  0.16213542  0.16614049  1
  Fe  Fe11  1  0.33162334  0.00018661  0.33084712  1
  Fe  Fe12  1  0.32958855  0.33140580  0.99849312  1
  Fe  Fe13  1  0.49908389  0.49879023  0.16534195  1
  Cr  Cr14  1  0.33117521  0.33177150  0.33104196  1
  Fe  Fe15  1  0.33042671  0.66301712  -0.00100626  1
  Fe  Fe16  1  0.49916373  0.83474946  0.16565199  1
  Cr  Cr17  1  0.33059605  0.66407448  0.33272963  1
  Fe  Fe18  1  0.66411890  -0.00048884  -0.00015572  1
  Ni  Ni19  1  0.83067200  0.16669485  0.16610893  1
  Ni  Ni20  1  0.66552788  -0.00087428  0.32723152  1
  Cr  Cr21  1  0.66345117  0.32902802  0.00107740  1
  Fe  Fe22  1  0.83308099  0.49766428  0.16564227  1
  Fe  Fe23  1  0.66460093  0.33061040  0.32893202  1
  Cr  Cr24  1  0.66518394  0.66658172  0.99789520  1
  Cr  Cr25  1  0.83221349  0.83234250  0.16605358  1
  Fe  Fe26  1  0.66508955  0.66415271  0.32913919  1
  Fe  Fe27  1  0.16530221  0.16486070  0.50113075  1
  Fe  Fe28  1  0.00213292  -0.00000215  0.66753272  1
  Ni  Ni29  1  0.16886404  0.16740062  0.83124663  1
  Ni  Ni30  1  0.16562845  0.49824366  0.50046501  1
  Fe  Fe31  1  0.00172133  0.33071708  0.66484912  1
  Fe  Fe32  1  0.16708326  0.49753249  0.83201587  1
  Fe  Fe33  1  0.16519326  0.83299232  0.49822616  1
  Cr  Cr34  1  0.00124262  0.66814278  0.66574962  1
  Fe  Fe35  1  0.16427761  0.83329076  0.83247579  1
  Cr  Cr36  1  0.49797260  0.16478566  0.49903547  1
  Fe  Fe37  1  0.32836250  -0.00001784  0.66663784  1
  Fe  Fe38  1  0.49586873  0.16742661  0.83145792  1
  Cr  Cr39  1  0.49914888  0.49839764  0.50232777  1
  Fe  Fe40  1  0.32962663  0.33187120  0.66681137  1
  Fe  Fe41  1  0.49622140  0.49573277  0.82995567  1
  Cr  Cr42  1  0.49757890  0.83252333  0.49645754  1
  Fe  Fe43  1  0.33186357  0.66394932  0.66563573  1
  Cr  Cr44  1  0.49646407  0.83119129  0.83351318  1
  Cr  Cr45  1  0.83272909  0.16556616  0.49933706  1
  Cr  Cr46  1  0.66648625  0.99848395  0.67054883  1
  Cr  Cr47  1  0.83392131  0.16659492  0.83089182  1
  Cr  Cr48  1  0.83117863  0.49739209  0.49739298  1
  Ni  Ni49  1  0.66201666  0.33245108  0.66597860  1
  Cr  Cr50  1  0.83286391  0.49770344  0.83058125  1
  Cr  Cr51  1  0.83186010  0.83285756  0.49652287  1
  Fe  Fe52  1  0.66474355  0.66446523  0.66764438  1
  Ni  Ni53  1  0.83255570  0.83107886  0.83280812  1
" 