8008,Ni12Fe81Cr6_1,-227.085500664079, 160.579397388094,Ni12Fe81Cr6,"# generated using pymatgen
 data_Cr5Fe43Ni6
_symmetry_space_group_name_H-M   'P 1'
_cell_length_a   7.42981110
_cell_length_b   7.42981110
_cell_length_c   10.50733963
_cell_angle_alpha   90.00000000
_cell_angle_beta   90.00000000
_cell_angle_gamma   90.00000000
_symmetry_Int_Tables_number   1
_chemical_formula_structural   Cr5Fe43Ni6
_chemical_formula_sum   'Cr5 Fe43 Ni6'
_cell_volume   580.02713952
_cell_formula_units_Z   1
loop_
 _symmetry_equiv_pos_site_id
 _symmetry_equiv_pos_as_xyz
  1  'x, y, z'
loop_
 _atom_site_type_symbol
 _atom_site_label
 _atom_site_symmetry_multiplicity
 _atom_site_fract_x
 _atom_site_fract_y
 _atom_site_fract_z
 _atom_site_occupancy
  Fe  Fe0  1  1.00244409  0.00392181  1.00232198  1
  Fe  Fe1  1  0.17015542  0.16923832  0.16945078  1
  Fe  Fe2  1  0.00357404  1.00200846  0.33511427  1
  Fe  Fe3  1  1.00250569  0.33437950  1.00241581  1
  Fe  Fe4  1  0.17098771  0.50119907  0.17016192  1
  Fe  Fe5  1  0.00339828  0.33714148  0.33535456  1
  Cr  Cr6  1  1.00182472  0.67033434  0.00318962  1
  Fe  Fe7  1  0.16880544  0.83708289  0.16982585  1
  Fe  Fe8  1  0.00424067  0.66836942  0.33586650  1
  Fe  Fe9  1  0.33512316  0.00327012  1.00141440  1
  Ni  Ni10  1  0.50284970  0.17020284  0.16977841  1
  Fe  Fe11  1  0.33581804  0.00362908  0.33716613  1
  Fe  Fe12  1  0.33587003  0.33583377  0.00345292  1
  Fe  Fe13  1  0.50141221  0.49938434  0.16854398  1
  Ni  Ni14  1  0.33618492  0.33476606  0.33595244  1
  Fe  Fe15  1  0.33654345  0.66841355  1.00171077  1
  Cr  Cr16  1  0.50093289  0.83674621  0.16734017  1
  Fe  Fe17  1  0.33376897  0.66814071  0.33677919  1
  Fe  Fe18  1  0.66995054  0.00324191  1.00215010  1
  Fe  Fe19  1  0.83508172  0.16884088  0.16925637  1
  Fe  Fe20  1  0.66812212  0.00446413  0.33567607  1
  Fe  Fe21  1  0.66914216  0.33579833  1.00225289  1
  Fe  Fe22  1  0.83512063  0.50072039  0.16964870  1
  Fe  Fe23  1  0.66789627  0.33508667  0.33551211  1
  Fe  Fe24  1  0.66848882  0.66847734  1.00195733  1
  Fe  Fe25  1  0.83689324  0.83795737  0.16907236  1
  Cr  Cr26  1  0.67075651  0.66791187  0.33643962  1
  Fe  Fe27  1  0.17192050  0.16986411  0.50175314  1
  Cr  Cr28  1  0.00427267  1.00087242  0.67043553  1
  Fe  Fe29  1  0.17008981  0.16959280  0.83631813  1
  Fe  Fe30  1  0.16913062  0.50262851  0.50210408  1
  Fe  Fe31  1  0.00289885  0.33787599  0.66974765  1
  Fe  Fe32  1  0.16989541  0.50181990  0.83525299  1
  Fe  Fe33  1  0.16998462  0.83502076  0.50203542  1
  Fe  Fe34  1  1.00218496  0.66732601  0.66912086  1
  Fe  Fe35  1  0.17092150  0.83610367  0.83566206  1
  Fe  Fe36  1  0.50126361  0.16936946  0.50223769  1
  Ni  Ni37  1  0.33668885  0.00272124  0.66867080  1
  Fe  Fe38  1  0.50253165  0.16918335  0.83584203  1
  Fe  Fe39  1  0.50256606  0.50163031  0.50323165  1
  Fe  Fe40  1  0.33611787  0.33498984  0.66875114  1
  Fe  Fe41  1  0.50277825  0.50228494  0.83574286  1
  Ni  Ni42  1  0.50047907  0.83703491  0.50433848  1
  Fe  Fe43  1  0.33642075  0.66980939  0.66902516  1
  Fe  Fe44  1  0.50216705  0.83605221  0.83525293  1
  Cr  Cr45  1  0.83480962  0.17160148  0.50158986  1
  Fe  Fe46  1  0.66602753  1.00201151  0.66968905  1
  Fe  Fe47  1  0.83489686  0.17020433  0.83619619  1
  Ni  Ni48  1  0.83784590  0.50234257  0.50417081  1
  Ni  Ni49  1  0.66801901  0.33801393  0.66923023  1
  Fe  Fe50  1  0.83484418  0.50145764  0.83424346  1
  Fe  Fe51  1  0.83532943  0.83373125  0.50235649  1
  Fe  Fe52  1  0.66891298  0.66935432  0.66841724  1
  Fe  Fe53  1  0.83442875  0.83586009  0.83609664  1
" 