3295,Ni12Fe54Cr33_11,-222.380002495952, 174.331014040328,Ni12Fe54Cr33,"# generated using pymatgen
 data_Cr19Fe29Ni6
_symmetry_space_group_name_H-M   'P 1'
_cell_length_a   7.48578589
_cell_length_b   7.48578589
_cell_length_c   10.58649993
_cell_angle_alpha   90.00000000
_cell_angle_beta   90.00000000
_cell_angle_gamma   90.00000000
_symmetry_Int_Tables_number   1
_chemical_formula_structural   Cr19Fe29Ni6
_chemical_formula_sum   'Cr19 Fe29 Ni6'
_cell_volume   593.23559411
_cell_formula_units_Z   1
loop_
 _symmetry_equiv_pos_site_id
 _symmetry_equiv_pos_as_xyz
  1  'x, y, z'
loop_
 _atom_site_type_symbol
 _atom_site_label
 _atom_site_symmetry_multiplicity
 _atom_site_fract_x
 _atom_site_fract_y
 _atom_site_fract_z
 _atom_site_occupancy
  Fe  Fe0  1  0.99864084  0.99824484  -0.00041342  1
  Ni  Ni1  1  0.16503322  0.16619371  0.16882717  1
  Fe  Fe2  1  0.00105099  -0.00021993  0.33392042  1
  Cr  Cr3  1  0.00001926  0.33455313  0.99865370  1
  Fe  Fe4  1  0.16521874  0.49469970  0.16786048  1
  Ni  Ni5  1  0.00140600  0.33157654  0.33484317  1
  Fe  Fe6  1  0.99620200  0.66714567  -0.00019347  1
  Cr  Cr7  1  0.16446867  0.83297651  0.16812403  1
  Cr  Cr8  1  -0.00004631  0.66204147  0.33085218  1
  Cr  Cr9  1  0.33326098  -0.00057603  0.00123877  1
  Fe  Fe10  1  0.49690223  0.16472173  0.16666365  1
  Fe  Fe11  1  0.33203795  0.00027950  0.33311390  1
  Fe  Fe12  1  0.33087531  0.33155635  0.00131631  1
  Cr  Cr13  1  0.49963801  0.49965586  0.16427515  1
  Fe  Fe14  1  0.33031779  0.33298502  0.33275127  1
  Cr  Cr15  1  0.32887885  0.66357478  -0.00035360  1
  Fe  Fe16  1  0.50033387  0.83412543  0.16786600  1
  Fe  Fe17  1  0.33334151  0.66394940  0.33349277  1
  Fe  Fe18  1  0.66736076  0.99725369  -0.00064942  1
  Cr  Cr19  1  0.83360055  0.16486691  0.16640910  1
  Fe  Fe20  1  0.66412241  0.99766237  0.33228580  1
  Fe  Fe21  1  0.66427136  0.33227361  -0.00022425  1
  Fe  Fe22  1  0.83378909  0.49916400  0.16656363  1
  Cr  Cr23  1  0.66569377  0.33270009  0.33405008  1
  Fe  Fe24  1  0.66676432  0.66690847  0.00075383  1
  Fe  Fe25  1  0.82960045  0.83128603  0.16711505  1
  Ni  Ni26  1  0.66367307  0.66628550  0.33280392  1
  Ni  Ni27  1  0.16765995  0.16630342  0.49754085  1
  Cr  Cr28  1  -0.00078177  -0.00105820  0.66577895  1
  Cr  Cr29  1  0.16497439  0.16613399  0.82981474  1
  Ni  Ni30  1  0.16917726  0.49770717  0.49795741  1
  Fe  Fe31  1  0.00138417  0.33305535  0.66262582  1
  Fe  Fe32  1  0.16828391  0.49774573  0.82969637  1
  Ni  Ni33  1  0.16889841  0.83206787  0.49803292  1
  Cr  Cr34  1  0.00156223  0.66409474  0.66478818  1
  Cr  Cr35  1  0.16546718  0.83158201  0.83012368  1
  Fe  Fe36  1  0.49413725  0.16485755  0.49743031  1
  Fe  Fe37  1  0.33168760  -0.00058533  0.66174453  1
  Cr  Cr38  1  0.49788365  0.16803660  0.83431716  1
  Fe  Fe39  1  0.49661079  0.50089798  0.49710582  1
  Fe  Fe40  1  0.33077089  0.33296359  0.66241328  1
  Fe  Fe41  1  0.49560874  0.49838727  0.83224228  1
  Fe  Fe42  1  0.49511863  0.83156570  0.49694231  1
  Fe  Fe43  1  0.33417081  0.66365161  0.66204512  1
  Cr  Cr44  1  0.49933450  0.82860970  0.82981980  1
  Cr  Cr45  1  0.83444689  0.16686743  0.49844042  1
  Cr  Cr46  1  0.66259552  -0.00051628  0.66524016  1
  Fe  Fe47  1  0.83134498  0.16427164  0.83362298  1
  Fe  Fe48  1  0.83570030  0.49922052  0.49748270  1
  Cr  Cr49  1  0.66399328  0.33282444  0.66285030  1
  Cr  Cr50  1  0.82904353  0.49917531  0.83076054  1
  Cr  Cr51  1  0.83097635  0.83094441  0.49640932  1
  Fe  Fe52  1  0.66442873  0.66484602  0.66172937  1
  Fe  Fe53  1  0.83148026  0.83287949  0.83351257  1
" 