7838,Ni12Fe54Cr33_1,-222.470870399781, 170.51870329561,Ni12Fe54Cr33,"# generated using pymatgen
 data_Cr19Fe29Ni6
_symmetry_space_group_name_H-M   'P 1'
_cell_length_a   7.49395033
_cell_length_b   7.49395033
_cell_length_c   10.59804620
_cell_angle_alpha   90.00000000
_cell_angle_beta   90.00000000
_cell_angle_gamma   90.00000000
_symmetry_Int_Tables_number   1
_chemical_formula_structural   Cr19Fe29Ni6
_chemical_formula_sum   'Cr19 Fe29 Ni6'
_cell_volume   595.17876674
_cell_formula_units_Z   1
loop_
 _symmetry_equiv_pos_site_id
 _symmetry_equiv_pos_as_xyz
  1  'x, y, z'
loop_
 _atom_site_type_symbol
 _atom_site_label
 _atom_site_symmetry_multiplicity
 _atom_site_fract_x
 _atom_site_fract_y
 _atom_site_fract_z
 _atom_site_occupancy
  Fe  Fe0  1  -0.00027777  -0.00009619  0.99730935  1
  Fe  Fe1  1  0.16336062  0.16341933  0.16274458  1
  Fe  Fe2  1  0.99809725  0.00130695  0.33169229  1
  Ni  Ni3  1  0.99379271  0.32987406  0.00022187  1
  Cr  Cr4  1  0.16299024  0.49765623  0.16311019  1
  Fe  Fe5  1  -0.00158398  0.33053233  0.33045037  1
  Fe  Fe6  1  0.99801655  0.66327193  0.99680196  1
  Cr  Cr7  1  0.16095624  0.82924559  0.16581983  1
  Fe  Fe8  1  0.99580346  0.66316261  0.33199352  1
  Ni  Ni9  1  0.32972228  0.99405623  -0.00087734  1
  Cr  Cr10  1  0.49913553  0.16271686  0.16166956  1
  Fe  Fe11  1  0.33152428  0.99653833  0.33076820  1
  Fe  Fe12  1  0.33042883  0.32992215  0.99807180  1
  Cr  Cr13  1  0.49628290  0.49618626  0.16210928  1
  Cr  Cr14  1  0.33245978  0.33007119  0.33160735  1
  Ni  Ni15  1  0.33277724  0.66949204  -0.00158273  1
  Fe  Fe16  1  0.49698052  0.83033945  0.16406332  1
  Fe  Fe17  1  0.33371191  0.66644154  0.33105195  1
  Fe  Fe18  1  0.66392654  -0.00088866  0.99778701  1
  Fe  Fe19  1  0.83390735  0.16504045  0.16316251  1
  Fe  Fe20  1  0.66402569  0.99805044  0.33073337  1
  Ni  Ni21  1  0.66941275  0.33296892  -0.00147243  1
  Fe  Fe22  1  0.83186847  0.49881499  0.16368473  1
  Cr  Cr23  1  0.66947661  0.33298455  0.32964292  1
  Fe  Fe24  1  0.66398560  0.66376150  0.99785186  1
  Cr  Cr25  1  0.83041627  0.83200531  0.16324162  1
  Fe  Fe26  1  0.66390765  0.66559675  0.33099223  1
  Fe  Fe27  1  0.16224007  0.16329346  0.49623000  1
  Cr  Cr28  1  0.00031393  -0.00021078  0.66699851  1
  Fe  Fe29  1  0.16409219  0.16333531  0.83594536  1
  Cr  Cr30  1  0.16569418  0.49810010  0.49702397  1
  Cr  Cr31  1  0.99532342  0.32988863  0.66412407  1
  Cr  Cr32  1  0.16658198  0.49626420  0.83474447  1
  Fe  Fe33  1  0.16471098  0.83189686  0.49484364  1
  Cr  Cr34  1  -0.00015906  0.66494453  0.66689852  1
  Ni  Ni35  1  0.16333916  0.83027014  0.83472831  1
  Cr  Cr36  1  0.49830082  0.16414544  0.50017876  1
  Cr  Cr37  1  0.32886394  0.99482562  0.66547075  1
  Cr  Cr38  1  0.49846111  0.16724522  0.83244664  1
  Fe  Fe39  1  0.50170655  0.50105373  0.49700485  1
  Fe  Fe40  1  0.33001290  0.33162511  0.66501529  1
  Fe  Fe41  1  0.49988101  0.50128231  0.83526234  1
  Fe  Fe42  1  0.49919211  0.82964215  0.49577658  1
  Cr  Cr43  1  0.33458134  0.66680871  0.66492923  1
  Fe  Fe44  1  0.49642734  0.83167146  0.83435354  1
  Fe  Fe45  1  0.83267418  0.16590556  0.49625148  1
  Fe  Fe46  1  0.66456665  0.99760048  0.66599925  1
  Fe  Fe47  1  0.83280856  0.16587966  0.83473769  1
  Ni  Ni48  1  0.83259235  0.50114978  0.49613868  1
  Cr  Cr49  1  0.66681517  0.33540950  0.66459672  1
  Fe  Fe50  1  0.83144010  0.49762290  0.83404647  1
  Cr  Cr51  1  0.83177661  0.83309620  0.49917084  1
  Fe  Fe52  1  0.66546727  0.66562596  0.66484831  1
  Cr  Cr53  1  0.83026165  0.83222864  0.83265856  1
" 