5753,Ni12Fe57Cr29_11,-223.257990596881, 166.799035353217,Ni12Fe57Cr29,"# generated using pymatgen
 data_Cr17Fe31Ni6
_symmetry_space_group_name_H-M   'P 1'
_cell_length_a   7.48431621
_cell_length_b   7.48431621
_cell_length_c   10.58442149
_cell_angle_alpha   90.00000000
_cell_angle_beta   90.00000000
_cell_angle_gamma   90.00000000
_symmetry_Int_Tables_number   1
_chemical_formula_structural   Cr17Fe31Ni6
_chemical_formula_sum   'Cr17 Fe31 Ni6'
_cell_volume   592.88625504
_cell_formula_units_Z   1
loop_
 _symmetry_equiv_pos_site_id
 _symmetry_equiv_pos_as_xyz
  1  'x, y, z'
loop_
 _atom_site_type_symbol
 _atom_site_label
 _atom_site_symmetry_multiplicity
 _atom_site_fract_x
 _atom_site_fract_y
 _atom_site_fract_z
 _atom_site_occupancy
  Cr  Cr0  1  0.00095499  0.00060442  0.00110206  1
  Ni  Ni1  1  0.16434101  0.16794136  0.16425133  1
  Fe  Fe2  1  0.99737377  -0.00041657  0.33110478  1
  Ni  Ni3  1  0.99882319  0.33085282  -0.00097492  1
  Cr  Cr4  1  0.16467736  0.49560124  0.16716739  1
  Fe  Fe5  1  0.99767743  0.33214034  0.33099655  1
  Cr  Cr6  1  0.99738946  0.66457951  0.99868685  1
  Cr  Cr7  1  0.16437840  0.83239786  0.16653262  1
  Fe  Fe8  1  -0.00084068  0.66481585  0.33229175  1
  Fe  Fe9  1  0.33177274  0.00301978  0.99823233  1
  Cr  Cr10  1  0.49884896  0.16697683  0.16260735  1
  Cr  Cr11  1  0.32996763  0.99795328  0.33246482  1
  Ni  Ni12  1  0.33281612  0.32975209  0.99754360  1
  Fe  Fe13  1  0.49943285  0.49602969  0.16542643  1
  Fe  Fe14  1  0.33201415  0.33425079  0.33139177  1
  Cr  Cr15  1  0.33265871  0.66465332  -0.00073204  1
  Cr  Cr16  1  0.50075217  0.83291992  0.16493402  1
  Fe  Fe17  1  0.33167148  0.66384857  0.33388888  1
  Fe  Fe18  1  0.66488416  0.00201820  0.99881827  1
  Fe  Fe19  1  0.83362127  0.16730321  0.16526446  1
  Fe  Fe20  1  0.66781086  -0.00008554  0.33285195  1
  Ni  Ni21  1  0.66489998  0.33262269  -0.00027570  1
  Ni  Ni22  1  0.83228396  0.49681840  0.16510675  1
  Fe  Fe23  1  0.66684851  0.33246470  0.33152036  1
  Cr  Cr24  1  0.66649126  0.66223390  -0.00062304  1
  Fe  Fe25  1  0.83268844  0.83316253  0.16675939  1
  Cr  Cr26  1  0.66469499  0.66318396  0.33155142  1
  Cr  Cr27  1  0.16420893  0.16763767  0.49936149  1
  Fe  Fe28  1  -0.00087763  -0.00103030  0.66561887  1
  Fe  Fe29  1  0.16727086  0.16649251  0.83273465  1
  Fe  Fe30  1  0.16556904  0.50004518  0.49873134  1
  Fe  Fe31  1  -0.00057136  0.33277392  0.66597571  1
  Fe  Fe32  1  0.16537092  0.49719512  0.83179552  1
  Fe  Fe33  1  0.16624218  0.83052571  0.49924400  1
  Fe  Fe34  1  -0.00073004  0.66479643  0.66566568  1
  Fe  Fe35  1  0.16593244  0.83284781  0.83052511  1
  Cr  Cr36  1  0.50036657  0.16487438  0.49960397  1
  Fe  Fe37  1  0.33247309  0.99838958  0.66590240  1
  Fe  Fe38  1  0.49769313  0.16623066  0.83307097  1
  Fe  Fe39  1  0.49759010  0.50000065  0.49880501  1
  Fe  Fe40  1  0.33158902  0.33276681  0.66713626  1
  Fe  Fe41  1  0.49852453  0.49640285  0.83230940  1
  Fe  Fe42  1  0.49792585  0.83156684  0.50035811  1
  Fe  Fe43  1  0.33232858  0.66538420  0.66504007  1
  Cr  Cr44  1  0.49925809  0.83443948  0.83088812  1
  Fe  Fe45  1  0.83233034  0.16564252  0.49886590  1
  Ni  Ni46  1  0.66476101  0.99801593  0.66369893  1
  Cr  Cr47  1  0.83161900  0.16694035  0.83188584  1
  Fe  Fe48  1  0.83337973  0.49736835  0.49827550  1
  Cr  Cr49  1  0.66597468  0.33334908  0.66491241  1
  Fe  Fe50  1  0.83264334  0.49773333  0.83287380  1
  Cr  Cr51  1  0.83160085  0.83310840  0.50011794  1
  Fe  Fe52  1  0.66493907  0.66568765  0.66490062  1
  Cr  Cr53  1  0.83135725  0.83087449  0.83151572  1
" 