5076,Ni12Fe57Cr29_3,-223.443344536119, 171.156178269702,Ni12Fe57Cr29,"# generated using pymatgen
 data_Cr17Fe31Ni6
_symmetry_space_group_name_H-M   'P 1'
_cell_length_a   7.48887549
_cell_length_b   7.48887549
_cell_length_c   10.59086928
_cell_angle_alpha   90.00000000
_cell_angle_beta   90.00000000
_cell_angle_gamma   90.00000000
_symmetry_Int_Tables_number   1
_chemical_formula_structural   Cr17Fe31Ni6
_chemical_formula_sum   'Cr17 Fe31 Ni6'
_cell_volume   593.97043331
_cell_formula_units_Z   1
loop_
 _symmetry_equiv_pos_site_id
 _symmetry_equiv_pos_as_xyz
  1  'x, y, z'
loop_
 _atom_site_type_symbol
 _atom_site_label
 _atom_site_symmetry_multiplicity
 _atom_site_fract_x
 _atom_site_fract_y
 _atom_site_fract_z
 _atom_site_occupancy
  Ni  Ni0  1  0.00063202  -0.00143706  0.00018419  1
  Cr  Cr1  1  0.16480254  0.16402409  0.16446572  1
  Fe  Fe2  1  -0.00034266  0.99674198  0.33103196  1
  Fe  Fe3  1  -0.00077477  0.33023089  -0.00044920  1
  Fe  Fe4  1  0.16748634  0.49795982  0.16526610  1
  Fe  Fe5  1  -0.00123319  0.32992940  0.33106420  1
  Fe  Fe6  1  -0.00100653  0.66722813  0.00060731  1
  Fe  Fe7  1  0.16577230  0.83145153  0.16432496  1
  Fe  Fe8  1  -0.00021128  0.66837942  0.33066696  1
  Fe  Fe9  1  0.33464836  -0.00119378  -0.00096044  1
  Ni  Ni10  1  0.49819365  0.16463588  0.16573499  1
  Fe  Fe11  1  0.33103362  0.99841143  0.33112191  1
  Fe  Fe12  1  0.33245725  0.33070267  0.00012089  1
  Ni  Ni13  1  0.49534445  0.49903059  0.16590916  1
  Fe  Fe14  1  0.33387658  0.33058705  0.33005028  1
  Fe  Fe15  1  0.33185574  0.66649485  0.00056873  1
  Fe  Fe16  1  0.49569257  0.83376263  0.16373302  1
  Fe  Fe17  1  0.33080648  0.66706729  0.32920071  1
  Fe  Fe18  1  0.66409309  -0.00130436  0.00112620  1
  Ni  Ni19  1  0.83227619  0.16338145  0.16447228  1
  Cr  Cr20  1  0.66524110  0.99812552  0.32813521  1
  Cr  Cr21  1  0.66241504  0.33201275  0.00013370  1
  Cr  Cr22  1  0.83403896  0.49631735  0.16599356  1
  Fe  Fe23  1  0.66305939  0.33079262  0.32876924  1
  Cr  Cr24  1  0.66272875  0.66681866  -0.00085164  1
  Fe  Fe25  1  0.83379491  0.83425874  0.16318644  1
  Cr  Cr26  1  0.66462129  0.66582773  0.32986459  1
  Fe  Fe27  1  0.16776370  0.16335894  0.49729523  1
  Ni  Ni28  1  0.00038511  0.99817953  0.66256218  1
  Fe  Fe29  1  0.16688343  0.16199220  0.83375979  1
  Cr  Cr30  1  0.16628125  0.49971013  0.49552541  1
  Cr  Cr31  1  0.00235684  0.32841655  0.66693210  1
  Cr  Cr32  1  0.16644638  0.49817230  0.83617263  1
  Fe  Fe33  1  0.16344864  0.83367665  0.49841084  1
  Fe  Fe34  1  0.00030746  0.66738584  0.66408002  1
  Cr  Cr35  1  0.16653089  0.83300418  0.83240019  1
  Fe  Fe36  1  0.49655508  0.16596457  0.49747540  1
  Fe  Fe37  1  0.33103514  0.00085169  0.66572265  1
  Fe  Fe38  1  0.49636796  0.16330710  0.83250880  1
  Cr  Cr39  1  0.49836323  0.49790177  0.49919950  1
  Fe  Fe40  1  0.33259112  0.32914268  0.66626089  1
  Fe  Fe41  1  0.49761213  0.50031250  0.83101915  1
  Cr  Cr42  1  0.49567793  0.83381183  0.49948684  1
  Fe  Fe43  1  0.33103977  0.66607005  0.66649052  1
  Ni  Ni44  1  0.49682033  0.83385921  0.83212592  1
  Cr  Cr45  1  0.83069028  0.16469114  0.49608333  1
  Fe  Fe46  1  0.66472203  -0.00031461  0.66540996  1
  Cr  Cr47  1  0.83241607  0.16333140  0.83551755  1
  Cr  Cr48  1  0.83153627  0.49780848  0.49974147  1
  Fe  Fe49  1  0.66327210  0.32854870  0.66663647  1
  Cr  Cr50  1  0.83268012  0.49853214  0.83002689  1
  Fe  Fe51  1  0.83292955  0.83161674  0.49954180  1
  Fe  Fe52  1  0.66385181  0.66763854  0.66630688  1
  Cr  Cr53  1  0.83143612  0.83409536  0.83113948  1
" 