4163,Ni12Fe81Cr6_9,-227.254646860977, 160.893035718561,Ni12Fe81Cr6,"# generated using pymatgen
 data_Cr5Fe43Ni6
_symmetry_space_group_name_H-M   'P 1'
_cell_length_a   7.43237485
_cell_length_b   7.43237485
_cell_length_c   10.51096531
_cell_angle_alpha   90.00000000
_cell_angle_beta   90.00000000
_cell_angle_gamma   90.00000000
_symmetry_Int_Tables_number   1
_chemical_formula_structural   Cr5Fe43Ni6
_chemical_formula_sum   'Cr5 Fe43 Ni6'
_cell_volume   580.62778319
_cell_formula_units_Z   1
loop_
 _symmetry_equiv_pos_site_id
 _symmetry_equiv_pos_as_xyz
  1  'x, y, z'
loop_
 _atom_site_type_symbol
 _atom_site_label
 _atom_site_symmetry_multiplicity
 _atom_site_fract_x
 _atom_site_fract_y
 _atom_site_fract_z
 _atom_site_occupancy
  Fe  Fe0  1  0.00416814  0.00551992  0.00259512  1
  Fe  Fe1  1  0.16843337  0.16703214  0.16887659  1
  Ni  Ni2  1  0.00270226  1.00125734  0.33473235  1
  Fe  Fe3  1  1.00194185  0.33327486  1.00131623  1
  Cr  Cr4  1  0.16988652  0.50018780  0.17104210  1
  Fe  Fe5  1  0.99980402  0.33461172  0.33556022  1
  Cr  Cr6  1  0.00390859  0.66871562  1.00140258  1
  Fe  Fe7  1  0.17092458  0.83806292  0.17002174  1
  Fe  Fe8  1  1.00132033  0.66954441  0.33697170  1
  Fe  Fe9  1  0.33544214  0.00264095  1.00167367  1
  Fe  Fe10  1  0.50292758  0.16906115  0.16906289  1
  Fe  Fe11  1  0.33690658  1.00208959  0.33487807  1
  Fe  Fe12  1  0.33608366  0.33457062  1.00103647  1
  Fe  Fe13  1  0.50423894  0.50234621  0.16925424  1
  Fe  Fe14  1  0.33765249  0.33462255  0.33560909  1
  Fe  Fe15  1  0.33790441  0.66978743  1.00171907  1
  Fe  Fe16  1  0.50088903  0.83559505  0.16916870  1
  Fe  Fe17  1  0.33687937  0.67028537  0.33638463  1
  Fe  Fe18  1  0.66737871  0.00371019  0.00256641  1
  Fe  Fe19  1  0.83563874  0.17038326  0.16993224  1
  Ni  Ni20  1  0.66870655  0.00444321  0.33706167  1
  Fe  Fe21  1  0.66897089  0.33573024  1.00207409  1
  Fe  Fe22  1  0.83316274  0.49985587  0.16987321  1
  Ni  Ni23  1  0.66866105  0.33524865  0.33503254  1
  Fe  Fe24  1  0.66609175  0.66755844  0.00235692  1
  Cr  Cr25  1  0.83405937  0.83630915  0.17067530  1
  Fe  Fe26  1  0.66879680  0.66881104  0.33629988  1
  Cr  Cr27  1  0.16977725  0.17025489  0.50134478  1
  Fe  Fe28  1  1.00216499  0.00305615  0.66878445  1
  Ni  Ni29  1  0.17017828  0.17020528  0.83671774  1
  Fe  Fe30  1  0.16906125  0.50399149  0.50212407  1
  Fe  Fe31  1  1.00135458  0.33626537  0.67012777  1
  Fe  Fe32  1  0.17006239  0.50075023  0.83515496  1
  Fe  Fe33  1  0.16867401  0.83432703  0.50203216  1
  Fe  Fe34  1  0.00251984  0.66767797  0.66843912  1
  Fe  Fe35  1  0.17171184  0.83749797  0.83493747  1
  Fe  Fe36  1  0.50470649  0.16934670  0.50257636  1
  Fe  Fe37  1  0.33691758  0.00265368  0.67044182  1
  Ni  Ni38  1  0.50077062  0.16971561  0.83482824  1
  Fe  Fe39  1  0.50260078  0.50162120  0.50230581  1
  Fe  Fe40  1  0.33689914  0.33584133  0.67035568  1
  Fe  Fe41  1  0.50227655  0.50120514  0.83543664  1
  Fe  Fe42  1  0.50233313  0.83603100  0.50205559  1
  Fe  Fe43  1  0.33613346  0.66850826  0.66890047  1
  Fe  Fe44  1  0.50029921  0.83672564  0.83577700  1
  Fe  Fe45  1  0.83363694  0.16895708  0.50165536  1
  Fe  Fe46  1  0.66791250  0.00381974  0.66805776  1
  Fe  Fe47  1  0.83542973  0.17072514  0.83541110  1
  Fe  Fe48  1  0.83533385  0.50160944  0.50243027  1
  Ni  Ni49  1  0.66878848  0.33516477  0.66964709  1
  Fe  Fe50  1  0.83466404  0.49881832  0.83469110  1
  Fe  Fe51  1  0.83599089  0.83642947  0.50177924  1
  Fe  Fe52  1  0.66834221  0.66769678  0.66834235  1
  Cr  Cr53  1  0.83393716  0.83580627  0.83442559  1
" 