8793,Ni12Fe54Cr33_9,-222.618960519226, 166.761765298103,Ni12Fe54Cr33,"# generated using pymatgen
 data_Cr19Fe29Ni6
_symmetry_space_group_name_H-M   'P 1'
_cell_length_a   7.49433831
_cell_length_b   7.49433831
_cell_length_c   10.59859487
_cell_angle_alpha   90.00000000
_cell_angle_beta   90.00000000
_cell_angle_gamma   90.00000000
_symmetry_Int_Tables_number   1
_chemical_formula_structural   Cr19Fe29Ni6
_chemical_formula_sum   'Cr19 Fe29 Ni6'
_cell_volume   595.27121146
_cell_formula_units_Z   1
loop_
 _symmetry_equiv_pos_site_id
 _symmetry_equiv_pos_as_xyz
  1  'x, y, z'
loop_
 _atom_site_type_symbol
 _atom_site_label
 _atom_site_symmetry_multiplicity
 _atom_site_fract_x
 _atom_site_fract_y
 _atom_site_fract_z
 _atom_site_occupancy
  Fe  Fe0  1  0.99672162  0.99809146  -0.00132178  1
  Fe  Fe1  1  0.16702143  0.16233124  0.16580870  1
  Fe  Fe2  1  -0.00104102  0.00023781  0.33124318  1
  Cr  Cr3  1  0.00064476  0.33154194  0.00363238  1
  Fe  Fe4  1  0.16545409  0.49909100  0.16736939  1
  Fe  Fe5  1  0.99683188  0.32979746  0.32909196  1
  Cr  Cr6  1  0.99628287  0.66518521  -0.00113330  1
  Cr  Cr7  1  0.16474881  0.83370046  0.16422802  1
  Fe  Fe8  1  -0.00060623  0.66430946  0.33011275  1
  Fe  Fe9  1  0.33374594  -0.00175746  -0.00063716  1
  Ni  Ni10  1  0.49826647  0.16195776  0.16318586  1
  Fe  Fe11  1  0.33266622  0.99725327  0.33132595  1
  Cr  Cr12  1  0.33015913  0.32938006  0.99652420  1
  Cr  Cr13  1  0.49973227  0.49954908  0.16438750  1
  Cr  Cr14  1  0.32944685  0.33001706  0.33031591  1
  Cr  Cr15  1  0.33055391  0.66361316  -0.00152509  1
  Ni  Ni16  1  0.49798192  0.83413715  0.16692559  1
  Fe  Fe17  1  0.33109488  0.66705092  0.33124021  1
  Ni  Ni18  1  0.66532631  0.99617311  0.00015925  1
  Fe  Fe19  1  0.82936349  0.16128641  0.16665503  1
  Fe  Fe20  1  0.66513113  -0.00060319  0.32998937  1
  Cr  Cr21  1  0.66429368  0.33070712  -0.00120633  1
  Fe  Fe22  1  0.83040430  0.50031302  0.16717097  1
  Fe  Fe23  1  0.66612846  0.32853929  0.32966843  1
  Ni  Ni24  1  0.66503319  0.66935251  -0.00007550  1
  Fe  Fe25  1  0.82774081  0.83304331  0.16592432  1
  Fe  Fe26  1  0.66513550  0.66701914  0.33018329  1
  Fe  Fe27  1  0.16192846  0.16534699  0.49759164  1
  Fe  Fe28  1  -0.00044545  -0.00156697  0.66402185  1
  Fe  Fe29  1  0.16605577  0.16423719  0.83090321  1
  Fe  Fe30  1  0.16315275  0.49797848  0.49841629  1
  Fe  Fe31  1  0.00072105  0.32953117  0.66373018  1
  Fe  Fe32  1  0.16474982  0.49800561  0.82918506  1
  Fe  Fe33  1  0.16570919  0.83102803  0.49621740  1
  Fe  Fe34  1  0.00152903  0.66612122  0.66545631  1
  Fe  Fe35  1  0.16245515  0.83234039  0.83119241  1
  Cr  Cr36  1  0.49934799  0.16552496  0.49711778  1
  Cr  Cr37  1  0.33072268  0.99813659  0.66276060  1
  Fe  Fe38  1  0.49803381  0.16413479  0.83265133  1
  Cr  Cr39  1  0.49641836  0.50037004  0.49872991  1
  Fe  Fe40  1  0.32953003  0.33278728  0.66654086  1
  Ni  Ni41  1  0.49568461  0.49902601  0.83116888  1
  Fe  Fe42  1  0.49804932  0.83175625  0.49454625  1
  Fe  Fe43  1  0.32946230  0.66455768  0.66580458  1
  Cr  Cr44  1  0.49691501  0.83176682  0.83450381  1
  Ni  Ni45  1  0.83592151  0.16404777  0.49610477  1
  Cr  Cr46  1  0.66575591  0.99773308  0.66316561  1
  Cr  Cr47  1  0.83424865  0.16228934  0.83124942  1
  Cr  Cr48  1  0.83186437  0.49566733  0.49683713  1
  Cr  Cr49  1  0.66418635  0.32963136  0.66503200  1
  Cr  Cr50  1  0.83037905  0.49818233  0.83192067  1
  Cr  Cr51  1  0.83431118  0.83241545  0.49807156  1
  Cr  Cr52  1  0.66508229  0.66715766  0.66644318  1
  Fe  Fe53  1  0.83164739  0.83215464  0.83307348  1
" 