895,Ni12Fe81Cr6_16,-227.081620026914, 161.972054312356,Ni12Fe81Cr6,"# generated using pymatgen
 data_Cr5Fe43Ni6
_symmetry_space_group_name_H-M   'P 1'
_cell_length_a   7.42971687
_cell_length_b   7.42971687
_cell_length_c   10.50720636
_cell_angle_alpha   90.00000000
_cell_angle_beta   90.00000000
_cell_angle_gamma   90.00000000
_symmetry_Int_Tables_number   1
_chemical_formula_structural   Cr5Fe43Ni6
_chemical_formula_sum   'Cr5 Fe43 Ni6'
_cell_volume   580.00506945
_cell_formula_units_Z   1
loop_
 _symmetry_equiv_pos_site_id
 _symmetry_equiv_pos_as_xyz
  1  'x, y, z'
loop_
 _atom_site_type_symbol
 _atom_site_label
 _atom_site_symmetry_multiplicity
 _atom_site_fract_x
 _atom_site_fract_y
 _atom_site_fract_z
 _atom_site_occupancy
  Fe  Fe0  1  1.00155820  0.00383977  1.00111847  1
  Fe  Fe1  1  0.16959642  0.17119361  0.16940015  1
  Fe  Fe2  1  1.00197563  0.00416434  0.33738986  1
  Ni  Ni3  1  0.00354782  0.33441618  1.00219096  1
  Fe  Fe4  1  0.16896734  0.49959107  0.16915436  1
  Ni  Ni5  1  1.00224229  0.33581839  0.33645538  1
  Fe  Fe6  1  1.00251145  0.66875803  1.00245226  1
  Cr  Cr7  1  0.16902101  0.83573235  0.16969456  1
  Fe  Fe8  1  1.00231742  0.66838773  0.33672877  1
  Fe  Fe9  1  0.33460790  0.00427336  0.00432034  1
  Ni  Ni10  1  0.50292541  0.16931912  0.16982451  1
  Ni  Ni11  1  0.33732715  0.00277459  0.33739393  1
  Fe  Fe12  1  0.33506333  0.33679707  0.00320790  1
  Fe  Fe13  1  0.50237455  0.50226628  0.16842770  1
  Fe  Fe14  1  0.33557021  0.33497944  0.33550174  1
  Fe  Fe15  1  0.33551357  0.66646767  1.00201506  1
  Fe  Fe16  1  0.50390251  0.83688773  0.16929716  1
  Fe  Fe17  1  0.33604121  0.66835631  0.33677178  1
  Fe  Fe18  1  0.67137208  0.00338732  0.00451241  1
  Fe  Fe19  1  0.83605876  0.16966951  0.16964035  1
  Fe  Fe20  1  0.66917593  0.00369458  0.33584421  1
  Fe  Fe21  1  0.66908334  0.33584560  0.00412874  1
  Fe  Fe22  1  0.83619560  0.50160498  0.16894742  1
  Fe  Fe23  1  0.66914368  0.33463657  0.33591403  1
  Fe  Fe24  1  0.66950764  0.66830492  0.00384600  1
  Fe  Fe25  1  0.83338143  0.83626161  0.16897599  1
  Fe  Fe26  1  0.66917771  0.66920787  0.33581444  1
  Fe  Fe27  1  0.16936414  0.17000755  0.50110221  1
  Cr  Cr28  1  1.00202199  0.00335345  0.67029238  1
  Fe  Fe29  1  0.16859828  0.17090443  0.83704070  1
  Fe  Fe30  1  0.16807363  0.50163819  0.50222742  1
  Fe  Fe31  1  0.00305948  0.33628984  0.66796972  1
  Fe  Fe32  1  0.17162469  0.50222987  0.83615506  1
  Fe  Fe33  1  0.16985497  0.83589178  0.50121029  1
  Fe  Fe34  1  0.00344153  0.66857001  0.66835254  1
  Fe  Fe35  1  0.16897244  0.83440057  0.83686889  1
  Fe  Fe36  1  0.50282082  0.16866733  0.50190953  1
  Fe  Fe37  1  0.33576411  1.00244098  0.66686984  1
  Cr  Cr38  1  0.50296009  0.17086062  0.83453695  1
  Fe  Fe39  1  0.50320043  0.50206583  0.50340812  1
  Fe  Fe40  1  0.33522467  0.33695065  0.66882466  1
  Ni  Ni41  1  0.50106116  0.50245448  0.83602995  1
  Fe  Fe42  1  0.50276032  0.83680326  0.50246610  1
  Fe  Fe43  1  0.33508425  0.66814594  0.66875517  1
  Cr  Cr44  1  0.50147477  0.83495335  0.83637355  1
  Ni  Ni45  1  0.83486926  0.17071944  0.50185674  1
  Fe  Fe46  1  0.66966830  0.00282045  0.66717755  1
  Fe  Fe47  1  0.83626259  0.16899346  0.83635239  1
  Fe  Fe48  1  0.83626211  0.50157750  0.50239338  1
  Fe  Fe49  1  0.66925113  0.33561297  0.66748739  1
  Cr  Cr50  1  0.83605915  0.50178634  0.83459353  1
  Fe  Fe51  1  0.83492179  0.83551472  0.50182998  1
  Fe  Fe52  1  0.66900946  0.66910443  0.66787440  1
  Fe  Fe53  1  0.83583681  0.83626853  0.83673505  1
" 