6105,Ni12Fe54Cr33_18,-222.302405182914, 175.948285425093,Ni12Fe54Cr33,"# generated using pymatgen
 data_Cr19Fe29Ni6
_symmetry_space_group_name_H-M   'P 1'
_cell_length_a   7.48475150
_cell_length_b   7.48475150
_cell_length_c   10.58503708
_cell_angle_alpha   90.00000000
_cell_angle_beta   90.00000000
_cell_angle_gamma   90.00000000
_symmetry_Int_Tables_number   1
_chemical_formula_structural   Cr19Fe29Ni6
_chemical_formula_sum   'Cr19 Fe29 Ni6'
_cell_volume   592.98970763
_cell_formula_units_Z   1
loop_
 _symmetry_equiv_pos_site_id
 _symmetry_equiv_pos_as_xyz
  1  'x, y, z'
loop_
 _atom_site_type_symbol
 _atom_site_label
 _atom_site_symmetry_multiplicity
 _atom_site_fract_x
 _atom_site_fract_y
 _atom_site_fract_z
 _atom_site_occupancy
  Fe  Fe0  1  -0.00029465  0.99745585  -0.00083272  1
  Fe  Fe1  1  0.16710102  0.16521864  0.16487525  1
  Fe  Fe2  1  -0.00065545  0.00038605  0.33328881  1
  Cr  Cr3  1  0.00115618  0.33295881  0.00096669  1
  Fe  Fe4  1  0.16488936  0.49916594  0.16498281  1
  Fe  Fe5  1  0.99797305  0.33217765  0.33306366  1
  Fe  Fe6  1  0.00099581  0.66552498  -0.00065167  1
  Fe  Fe7  1  0.16650838  0.83206652  0.16476275  1
  Fe  Fe8  1  -0.00031213  0.66388650  0.33206100  1
  Fe  Fe9  1  0.33308075  -0.00073442  0.00105205  1
  Ni  Ni10  1  0.49859105  0.16537760  0.16345509  1
  Cr  Cr11  1  0.33151636  0.99740912  0.33178224  1
  Ni  Ni12  1  0.33161417  0.33220660  -0.00087642  1
  Cr  Cr13  1  0.49847357  0.49706978  0.16574451  1
  Cr  Cr14  1  0.33087642  0.33297351  0.33241962  1
  Fe  Fe15  1  0.33084430  0.66465219  0.99866074  1
  Fe  Fe16  1  0.49787866  0.83417372  0.16561704  1
  Fe  Fe17  1  0.33192934  0.66469890  0.33265053  1
  Fe  Fe18  1  0.66366300  -0.00021485  -0.00103534  1
  Cr  Cr19  1  0.83034314  0.16609757  0.16642743  1
  Fe  Fe20  1  0.66558245  0.00053538  0.33129655  1
  Fe  Fe21  1  0.66280064  0.33124519  0.00029723  1
  Fe  Fe22  1  0.83241610  0.49799717  0.16679466  1
  Ni  Ni23  1  0.66845044  0.33351109  0.33280427  1
  Cr  Cr24  1  0.66479557  0.66752921  0.99692229  1
  Cr  Cr25  1  0.83392973  0.83156645  0.16523809  1
  Fe  Fe26  1  0.66484072  0.66332981  0.33238048  1
  Ni  Ni27  1  0.16413179  0.16573987  0.49942005  1
  Cr  Cr28  1  -0.00084835  -0.00113411  0.66394626  1
  Cr  Cr29  1  0.16861022  0.16566290  0.83255569  1
  Fe  Fe30  1  0.16615345  0.49854985  0.49866580  1
  Cr  Cr31  1  0.00076029  0.33264125  0.66239829  1
  Fe  Fe32  1  0.16782517  0.49842720  0.83280261  1
  Fe  Fe33  1  0.16555489  0.83194324  0.49838793  1
  Fe  Fe34  1  0.99857277  0.66460735  0.66504191  1
  Cr  Cr35  1  0.16414670  0.83106043  0.83251350  1
  Cr  Cr36  1  0.49823277  0.16887108  0.50048384  1
  Fe  Fe37  1  0.33104119  0.00053063  0.66439982  1
  Cr  Cr38  1  0.49735084  0.16783458  0.83242506  1
  Ni  Ni39  1  0.50022370  0.49808770  0.50001575  1
  Ni  Ni40  1  0.33219289  0.33406657  0.66497270  1
  Fe  Fe41  1  0.49684324  0.49798507  0.83172286  1
  Cr  Cr42  1  0.49797101  0.82983223  0.49726530  1
  Cr  Cr43  1  0.33346012  0.66337691  0.66512340  1
  Fe  Fe44  1  0.49962605  0.83175565  0.83253958  1
  Fe  Fe45  1  0.83240776  0.16781986  0.49676995  1
  Cr  Cr46  1  0.66570248  0.99695663  0.66675806  1
  Cr  Cr47  1  0.83048912  0.16442975  0.83342069  1
  Fe  Fe48  1  0.83071647  0.49743105  0.49803004  1
  Fe  Fe49  1  0.66335664  0.33480413  0.66349550  1
  Cr  Cr50  1  0.83127724  0.50123175  0.83153223  1
  Cr  Cr51  1  0.83425564  0.83049710  0.49866128  1
  Fe  Fe52  1  0.66548649  0.66297921  0.66592227  1
  Fe  Fe53  1  0.83160757  0.83188334  0.83271811  1
" 