4421,Ni12Fe81Cr6_18,-227.332203036086, 159.033117174028,Ni12Fe81Cr6,"# generated using pymatgen
 data_Cr5Fe43Ni6
_symmetry_space_group_name_H-M   'P 1'
_cell_length_a   7.43352467
_cell_length_b   7.43352467
_cell_length_c   10.51259141
_cell_angle_alpha   90.00000000
_cell_angle_beta   90.00000000
_cell_angle_gamma   90.00000000
_symmetry_Int_Tables_number   1
_chemical_formula_structural   Cr5Fe43Ni6
_chemical_formula_sum   'Cr5 Fe43 Ni6'
_cell_volume   580.89730238
_cell_formula_units_Z   1
loop_
 _symmetry_equiv_pos_site_id
 _symmetry_equiv_pos_as_xyz
  1  'x, y, z'
loop_
 _atom_site_type_symbol
 _atom_site_label
 _atom_site_symmetry_multiplicity
 _atom_site_fract_x
 _atom_site_fract_y
 _atom_site_fract_z
 _atom_site_occupancy
  Fe  Fe0  1  0.00333815  1.00105115  0.00282661  1
  Fe  Fe1  1  0.16926608  0.16926127  0.16899509  1
  Ni  Ni2  1  1.00159499  1.00054738  0.33273852  1
  Cr  Cr3  1  0.00235875  0.33651817  1.00219757  1
  Fe  Fe4  1  0.17033415  0.50378904  0.16831013  1
  Fe  Fe5  1  1.00187667  0.33637592  0.33299518  1
  Ni  Ni6  1  1.00123846  0.67011276  1.00172899  1
  Fe  Fe7  1  0.16756266  0.83398864  0.16729492  1
  Fe  Fe8  1  1.00068292  0.66794720  0.33322983  1
  Fe  Fe9  1  0.33415528  1.00220070  0.00242490  1
  Fe  Fe10  1  0.50360444  0.17071102  0.16755588  1
  Cr  Cr11  1  0.33703487  1.00155075  0.33526346  1
  Ni  Ni12  1  0.33696938  0.33482216  1.00212486  1
  Fe  Fe13  1  0.50220286  0.50195632  0.16857659  1
  Fe  Fe14  1  0.33646313  0.33752293  0.33343181  1
  Fe  Fe15  1  0.33394017  0.66772166  1.00104982  1
  Fe  Fe16  1  0.50343376  0.83402362  0.16740484  1
  Fe  Fe17  1  0.33689953  0.66611436  0.33563280  1
  Fe  Fe18  1  0.66931905  0.00262292  1.00201255  1
  Fe  Fe19  1  0.83402999  0.16835426  0.17067813  1
  Fe  Fe20  1  0.66985201  1.00172891  0.33403764  1
  Fe  Fe21  1  0.66789958  0.33666958  0.00285019  1
  Fe  Fe22  1  0.83438824  0.50392796  0.16939880  1
  Ni  Ni23  1  0.66806092  0.33739894  0.33465351  1
  Fe  Fe24  1  0.66926840  0.66757419  1.00221123  1
  Fe  Fe25  1  0.83563133  0.83497355  0.16806297  1
  Fe  Fe26  1  0.66904626  0.66961670  0.33555740  1
  Cr  Cr27  1  0.16846185  0.17002501  0.50346961  1
  Fe  Fe28  1  1.00217026  0.99995690  0.67127527  1
  Fe  Fe29  1  0.17057451  0.16780458  0.83483612  1
  Fe  Fe30  1  0.16894826  0.50213533  0.50290104  1
  Fe  Fe31  1  0.00246656  0.33866327  0.67152558  1
  Fe  Fe32  1  0.17070715  0.50456811  0.83569137  1
  Cr  Cr33  1  0.16801216  0.83373871  0.50246779  1
  Fe  Fe34  1  0.00243659  0.66821813  0.67182916  1
  Ni  Ni35  1  0.16928558  0.83548934  0.83692812  1
  Fe  Fe36  1  0.50298532  0.17048061  0.50293587  1
  Fe  Fe37  1  0.33733494  1.00056236  0.67109752  1
  Fe  Fe38  1  0.50137966  0.16847396  0.83638580  1
  Fe  Fe39  1  0.50176935  0.50181042  0.50220952  1
  Fe  Fe40  1  0.33691231  0.33771031  0.67129387  1
  Fe  Fe41  1  0.50085684  0.50319929  0.83590012  1
  Fe  Fe42  1  0.50488669  0.83470723  0.50393299  1
  Ni  Ni43  1  0.33605741  0.66890594  0.66961456  1
  Fe  Fe44  1  0.50122092  0.83489503  0.83554744  1
  Cr  Cr45  1  0.83508288  0.16895655  0.50130201  1
  Fe  Fe46  1  0.66705599  1.00028137  0.67021372  1
  Fe  Fe47  1  0.83514726  0.16709895  0.83400285  1
  Fe  Fe48  1  0.83601913  0.50395155  0.50174233  1
  Fe  Fe49  1  0.66722331  0.33778550  0.66917718  1
  Fe  Fe50  1  0.83527212  0.50477018  0.83525735  1
  Fe  Fe51  1  0.83467023  0.83442131  0.50165373  1
  Fe  Fe52  1  0.66812099  0.66879032  0.66900566  1
  Fe  Fe53  1  0.83625148  0.83527948  0.83632100  1
" 