1587,Ni12Fe88_12,-241.937869820154, 195.418948850402,Ni12Fe88,"# generated using pymatgen
 data_FeNi8
_symmetry_space_group_name_H-M   'P 1'
_cell_length_a   7.43789795
_cell_length_b   7.43789795
_cell_length_c   10.51877616
_cell_angle_alpha   90.00000000
_cell_angle_beta   90.00000000
_cell_angle_gamma   90.00000000
_symmetry_Int_Tables_number   1
_chemical_formula_structural   FeNi8
_chemical_formula_sum   'Fe6 Ni48'
_cell_volume   581.92316274
_cell_formula_units_Z   6
loop_
 _symmetry_equiv_pos_site_id
 _symmetry_equiv_pos_as_xyz
  1  'x, y, z'
loop_
 _atom_site_type_symbol
 _atom_site_label
 _atom_site_symmetry_multiplicity
 _atom_site_fract_x
 _atom_site_fract_y
 _atom_site_fract_z
 _atom_site_occupancy
  Ni  Ni0  1  0.00301290  0.00268091  0.00244688  1
  Ni  Ni1  1  0.16862570  0.17013335  0.16904063  1
  Ni  Ni2  1  0.00268291  0.00284948  0.33471072  1
  Ni  Ni3  1  1.00114810  0.33524966  1.00162346  1
  Ni  Ni4  1  0.16864006  0.50153135  0.16821017  1
  Ni  Ni5  1  1.00074730  0.33525087  0.33544553  1
  Ni  Ni6  1  0.00278206  0.66791169  0.00214295  1
  Ni  Ni7  1  0.16804820  0.83427969  0.16862863  1
  Ni  Ni8  1  0.00269047  0.66766293  0.33504742  1
  Ni  Ni9  1  0.33525481  1.00101150  0.00215788  1
  Ni  Ni10  1  0.50249937  0.16896626  0.16904867  1
  Ni  Ni11  1  0.33526207  1.00094038  0.33547237  1
  Fe  Fe12  1  0.33504426  0.33488408  1.00109954  1
  Fe  Fe13  1  0.50166539  0.50238943  0.16870939  1
  Fe  Fe14  1  0.33496467  0.33523808  0.33622857  1
  Ni  Ni15  1  0.33528950  0.66971707  1.00153227  1
  Ni  Ni16  1  0.50309777  0.83567248  0.16862147  1
  Ni  Ni17  1  0.33519878  0.66974548  0.33543457  1
  Ni  Ni18  1  0.66764462  0.00270150  0.00202339  1
  Ni  Ni19  1  0.83476866  0.16814136  0.16790187  1
  Ni  Ni20  1  0.66793582  0.00283218  0.33509366  1
  Ni  Ni21  1  0.66938538  0.33521762  1.00172526  1
  Fe  Fe22  1  0.83596604  0.50179636  0.16791900  1
  Ni  Ni23  1  0.66983223  0.33513681  0.33539877  1
  Ni  Ni24  1  0.66779646  0.66796001  0.00221929  1
  Ni  Ni25  1  0.83474675  0.83546929  0.16863352  1
  Ni  Ni26  1  0.66796897  0.66782838  0.33506228  1
  Ni  Ni27  1  0.16809247  0.16962441  0.50141899  1
  Ni  Ni28  1  0.00276791  0.00237602  0.66868691  1
  Ni  Ni29  1  0.16916190  0.16932931  0.83543256  1
  Ni  Ni30  1  0.16906805  0.50178150  0.50260060  1
  Ni  Ni31  1  1.00190429  0.33519767  0.66870719  1
  Ni  Ni32  1  0.16812075  0.50148822  0.83505343  1
  Ni  Ni33  1  0.16763184  0.83450601  0.50175085  1
  Ni  Ni34  1  0.00253041  0.66829013  0.66862621  1
  Ni  Ni35  1  0.16762713  0.83505405  0.83549922  1
  Ni  Ni36  1  0.50272724  0.16927995  0.50179064  1
  Ni  Ni37  1  0.33513206  1.00173701  0.66824659  1
  Ni  Ni38  1  0.50181619  0.16898354  0.83504875  1
  Ni  Ni39  1  0.50135153  0.50175942  0.50181252  1
  Ni  Ni40  1  0.33542949  0.33528048  0.66862579  1
  Ni  Ni41  1  0.50235978  0.50146906  0.83582050  1
  Ni  Ni42  1  0.50321303  0.83485659  0.50214526  1
  Ni  Ni43  1  0.33543844  0.66885512  0.66900749  1
  Ni  Ni44  1  0.50321220  0.83539730  0.83510503  1
  Ni  Ni45  1  0.83503635  0.16774375  0.50250050  1
  Ni  Ni46  1  0.66800439  0.00240985  0.66872126  1
  Fe  Fe47  1  0.83538422  0.16853343  0.83529413  1
  Fe  Fe48  1  0.83522766  0.50201972  0.50258286  1
  Ni  Ni49  1  0.66855033  0.33545038  0.66875614  1
  Ni  Ni50  1  0.83537755  0.50297868  0.83511178  1
  Ni  Ni51  1  0.83503091  0.83580026  0.50137615  1
  Ni  Ni52  1  0.66789393  0.66800321  0.66863964  1
  Ni  Ni53  1  0.83502567  0.83441170  0.83587581  1
" 