5352,Ni12Fe81Cr6_2,-227.209418943834, 158.623201390545,Ni12Fe81Cr6,"# generated using pymatgen
 data_Cr5Fe43Ni6
_symmetry_space_group_name_H-M   'P 1'
_cell_length_a   7.43284731
_cell_length_b   7.43284731
_cell_length_c   10.51163348
_cell_angle_alpha   90.00000000
_cell_angle_beta   90.00000000
_cell_angle_gamma   90.00000000
_symmetry_Int_Tables_number   1
_chemical_formula_structural   Cr5Fe43Ni6
_chemical_formula_sum   'Cr5 Fe43 Ni6'
_cell_volume   580.73851842
_cell_formula_units_Z   1
loop_
 _symmetry_equiv_pos_site_id
 _symmetry_equiv_pos_as_xyz
  1  'x, y, z'
loop_
 _atom_site_type_symbol
 _atom_site_label
 _atom_site_symmetry_multiplicity
 _atom_site_fract_x
 _atom_site_fract_y
 _atom_site_fract_z
 _atom_site_occupancy
  Cr  Cr0  1  0.00322524  1.00048231  0.00386160  1
  Fe  Fe1  1  0.17014408  0.16814546  0.17035127  1
  Fe  Fe2  1  0.00244832  1.00160065  0.33505934  1
  Fe  Fe3  1  0.99989547  0.33617177  1.00121096  1
  Cr  Cr4  1  0.16791558  0.50227033  0.16777023  1
  Fe  Fe5  1  1.00129184  0.33525071  0.33638791  1
  Fe  Fe6  1  1.00075834  0.66842014  1.00171649  1
  Ni  Ni7  1  0.16970645  0.83504617  0.16983558  1
  Fe  Fe8  1  1.00152926  0.67019276  0.33617175  1
  Fe  Fe9  1  0.33786046  1.00221523  0.00288784  1
  Fe  Fe10  1  0.50151602  0.16898017  0.16881358  1
  Fe  Fe11  1  0.33590431  1.00199631  0.33534701  1
  Fe  Fe12  1  0.33697190  0.33416179  1.00094807  1
  Fe  Fe13  1  0.50293454  0.50320353  0.16895775  1
  Fe  Fe14  1  0.33687583  0.33498299  0.33689595  1
  Fe  Fe15  1  0.33666784  0.67033404  1.00220450  1
  Fe  Fe16  1  0.50148072  0.83500061  0.16908413  1
  Fe  Fe17  1  0.33621899  0.66996385  0.33573016  1
  Fe  Fe18  1  0.66761521  0.00328038  0.00275034  1
  Fe  Fe19  1  0.83533821  0.17008856  0.16964872  1
  Fe  Fe20  1  0.66864192  0.00230569  0.33546253  1
  Ni  Ni21  1  0.66758386  0.33702691  0.00327081  1
  Fe  Fe22  1  0.83382839  0.50288379  0.16805188  1
  Fe  Fe23  1  0.66843914  0.33547380  0.33519050  1
  Fe  Fe24  1  0.66981729  0.66884242  1.00137307  1
  Fe  Fe25  1  0.83532941  0.83413107  0.17031628  1
  Fe  Fe26  1  0.66904376  0.66887966  0.33642736  1
  Fe  Fe27  1  0.16974866  0.16893381  0.50056975  1
  Cr  Cr28  1  0.00279565  0.00262719  0.66887173  1
  Fe  Fe29  1  0.16938639  0.17033141  0.83659934  1
  Fe  Fe30  1  0.16896247  0.50243145  0.50079571  1
  Fe  Fe31  1  1.00152205  0.33841076  0.66909382  1
  Fe  Fe32  1  0.16914943  0.50249752  0.83707185  1
  Fe  Fe33  1  0.17061771  0.83556703  0.50055856  1
  Fe  Fe34  1  1.00147864  0.66666170  0.66904468  1
  Fe  Fe35  1  0.17086049  0.83388536  0.83663722  1
  Ni  Ni36  1  0.50281872  0.16701405  0.50107051  1
  Fe  Fe37  1  0.33901966  1.00108017  0.66899165  1
  Ni  Ni38  1  0.50272571  0.16663120  0.83666712  1
  Fe  Fe39  1  0.50254272  0.50380208  0.50049472  1
  Cr  Cr40  1  0.33665595  0.33599826  0.66908449  1
  Fe  Fe41  1  0.50440344  0.50315250  0.83743613  1
  Fe  Fe42  1  0.50282294  0.83551088  0.50246738  1
  Fe  Fe43  1  0.33619710  0.67056081  0.66879382  1
  Fe  Fe44  1  0.50352391  0.83444198  0.83534027  1
  Fe  Fe45  1  0.83495719  0.16870866  0.50019193  1
  Fe  Fe46  1  0.66637442  1.00165794  0.66876174  1
  Fe  Fe47  1  0.83357523  0.17083364  0.83729901  1
  Fe  Fe48  1  0.83542674  0.50319297  0.50219916  1
  Cr  Cr49  1  0.66785075  0.33687133  0.66843301  1
  Ni  Ni50  1  0.83706374  0.50329745  0.83615512  1
  Fe  Fe51  1  0.83342871  0.83527213  0.50185986  1
  Ni  Ni52  1  0.66847871  0.66909783  0.66879083  1
  Fe  Fe53  1  0.83286392  0.83443221  0.83522841  1
" 