872,Ni12Fe57Cr29_0,-223.387333314808, 177.958190405455,Ni12Fe57Cr29,"# generated using pymatgen
 data_Cr17Fe31Ni6
_symmetry_space_group_name_H-M   'P 1'
_cell_length_a   7.47764056
_cell_length_b   7.47764056
_cell_length_c   10.57498069
_cell_angle_alpha   90.00000000
_cell_angle_beta   90.00000000
_cell_angle_gamma   90.00000000
_symmetry_Int_Tables_number   1
_chemical_formula_structural   Cr17Fe31Ni6
_chemical_formula_sum   'Cr17 Fe31 Ni6'
_cell_volume   591.30119113
_cell_formula_units_Z   1
loop_
 _symmetry_equiv_pos_site_id
 _symmetry_equiv_pos_as_xyz
  1  'x, y, z'
loop_
 _atom_site_type_symbol
 _atom_site_label
 _atom_site_symmetry_multiplicity
 _atom_site_fract_x
 _atom_site_fract_y
 _atom_site_fract_z
 _atom_site_occupancy
  Cr  Cr0  1  0.00114788  0.99828541  0.00182526  1
  Fe  Fe1  1  0.16899721  0.16579543  0.16592395  1
  Cr  Cr2  1  0.00034637  0.00048593  0.33290469  1
  Cr  Cr3  1  0.00070823  0.33283867  -0.00037212  1
  Fe  Fe4  1  0.16807741  0.49974536  0.16609695  1
  Fe  Fe5  1  0.99870734  0.33054661  0.33231647  1
  Fe  Fe6  1  -0.00016813  0.66572239  -0.00059946  1
  Fe  Fe7  1  0.16919137  0.83225996  0.16602832  1
  Cr  Cr8  1  0.99758890  0.66758604  0.33205555  1
  Ni  Ni9  1  0.33242564  0.99889940  -0.00003786  1
  Fe  Fe10  1  0.49885220  0.16429392  0.16563355  1
  Ni  Ni11  1  0.33284842  0.99754833  0.33202216  1
  Fe  Fe12  1  0.33201905  0.33124077  0.00067270  1
  Ni  Ni13  1  0.49812264  0.49958574  0.16655582  1
  Cr  Cr14  1  0.33430102  0.33295918  0.32828171  1
  Cr  Cr15  1  0.33476940  0.66498716  0.99835116  1
  Fe  Fe16  1  0.49927651  0.83309400  0.16657042  1
  Fe  Fe17  1  0.33540508  0.66829443  0.33163473  1
  Fe  Fe18  1  0.66305081  0.99740401  0.00174032  1
  Fe  Fe19  1  0.83003411  0.16558210  0.16712859  1
  Fe  Fe20  1  0.66509413  0.99789606  0.33228704  1
  Cr  Cr21  1  0.66374765  0.33640041  0.99882663  1
  Cr  Cr22  1  0.83315674  0.50146765  0.16719388  1
  Fe  Fe23  1  0.66636549  0.33296333  0.33225718  1
  Fe  Fe24  1  0.66566789  0.66707417  -0.00058149  1
  Fe  Fe25  1  0.82937079  0.83282990  0.16581586  1
  Fe  Fe26  1  0.66231854  0.66696640  0.33407059  1
  Fe  Fe27  1  0.16517995  0.16577847  0.49797324  1
  Cr  Cr28  1  0.00011176  -0.00063559  0.66333903  1
  Fe  Fe29  1  0.16577579  0.16639618  0.83392343  1
  Cr  Cr30  1  0.16587404  0.50080085  0.49866438  1
  Fe  Fe31  1  0.99771425  0.33469903  0.66645245  1
  Fe  Fe32  1  0.16384592  0.50021957  0.83175929  1
  Fe  Fe33  1  0.16806959  0.83229544  0.49843521  1
  Fe  Fe34  1  0.00013992  0.66514897  0.66568690  1
  Fe  Fe35  1  0.16709697  0.83129866  0.83315605  1
  Cr  Cr36  1  0.50090079  0.16503362  0.49856395  1
  Cr  Cr37  1  0.33066921  0.99647138  0.66550411  1
  Cr  Cr38  1  0.49818145  0.16358472  0.83489402  1
  Ni  Ni39  1  0.49987932  0.50046610  0.49841007  1
  Cr  Cr40  1  0.33357761  0.33445753  0.66998130  1
  Fe  Fe41  1  0.50109523  0.50086816  0.83265952  1
  Fe  Fe42  1  0.49943807  0.83042621  0.49734205  1
  Fe  Fe43  1  0.33212972  0.66631674  0.66651346  1
  Fe  Fe44  1  0.49916863  0.83195680  0.83372276  1
  Fe  Fe45  1  0.83216325  0.16784512  0.49941912  1
  Fe  Fe46  1  0.66618250  0.99833927  0.66412182  1
  Cr  Cr47  1  0.83031951  0.16627999  0.82994149  1
  Fe  Fe48  1  0.83018334  0.49852928  0.49958480  1
  Fe  Fe49  1  0.66776911  0.33369638  0.66539704  1
  Ni  Ni50  1  0.83567773  0.50125989  0.83081808  1
  Ni  Ni51  1  0.83197654  0.83354081  0.49882546  1
  Cr  Cr52  1  0.66457933  0.66350256  0.66553064  1
  Cr  Cr53  1  0.83262914  0.83042247  0.83652907  1
" 