4327,Ni12Fe32Cr54_1,-216.247069692783, 175.961634484056,Ni12Fe32Cr54,"# generated using pymatgen
 data_Cr31Fe17Ni6
_symmetry_space_group_name_H-M   'P 1'
_cell_length_a   7.53638298
_cell_length_b   7.53638298
_cell_length_c   10.65805503
_cell_angle_alpha   90.00000000
_cell_angle_beta   90.00000000
_cell_angle_gamma   90.00000000
_symmetry_Int_Tables_number   1
_chemical_formula_structural   Cr31Fe17Ni6
_chemical_formula_sum   'Cr31 Fe17 Ni6'
_cell_volume   605.34628127
_cell_formula_units_Z   1
loop_
 _symmetry_equiv_pos_site_id
 _symmetry_equiv_pos_as_xyz
  1  'x, y, z'
loop_
 _atom_site_type_symbol
 _atom_site_label
 _atom_site_symmetry_multiplicity
 _atom_site_fract_x
 _atom_site_fract_y
 _atom_site_fract_z
 _atom_site_occupancy
  Cr  Cr0  1  0.99508663  0.99481595  0.99506618  1
  Cr  Cr1  1  0.16253140  0.16363792  0.16118741  1
  Cr  Cr2  1  0.99504821  -0.00442253  0.32915332  1
  Ni  Ni3  1  0.99207355  0.33108612  -0.00450093  1
  Cr  Cr4  1  0.15909850  0.49640611  0.16246616  1
  Cr  Cr5  1  0.99355127  0.32958926  0.32895536  1
  Ni  Ni6  1  0.99383588  0.65898432  0.99495851  1
  Cr  Cr7  1  0.16315674  0.82602985  0.16219445  1
  Fe  Fe8  1  -0.00412962  0.65972623  0.32949189  1
  Fe  Fe9  1  0.32938415  0.99530928  0.99382678  1
  Cr  Cr10  1  0.49771395  0.16163432  0.16074023  1
  Fe  Fe11  1  0.32831216  0.99416073  0.32877287  1
  Cr  Cr12  1  0.32981621  0.32940549  0.99292941  1
  Cr  Cr13  1  0.49676882  0.49468159  0.16311909  1
  Cr  Cr14  1  0.32927811  0.33230396  0.33156430  1
  Cr  Cr15  1  0.32789274  0.66151717  0.99419711  1
  Cr  Cr16  1  0.49464798  0.82981775  0.16351361  1
  Ni  Ni17  1  0.32818177  0.65987893  0.33145367  1
  Ni  Ni18  1  0.66174782  -0.00218452  0.99476822  1
  Fe  Fe19  1  0.82775698  0.16445743  0.15958164  1
  Cr  Cr20  1  0.66449834  -0.00348512  0.32934965  1
  Fe  Fe21  1  0.66534862  0.32856521  0.99485768  1
  Fe  Fe22  1  0.82970192  0.49358855  0.16111872  1
  Fe  Fe23  1  0.66321810  0.33103648  0.32959907  1
  Cr  Cr24  1  0.66293277  0.66021040  0.99403098  1
  Cr  Cr25  1  0.82846843  0.82639549  0.16161865  1
  Cr  Cr26  1  0.66179778  0.65877236  0.33042148  1
  Cr  Cr27  1  0.16313316  0.16567585  0.49721182  1
  Cr  Cr28  1  -0.00447497  0.99446869  0.66165275  1
  Cr  Cr29  1  0.16269672  0.16549355  0.82804454  1
  Fe  Fe30  1  0.16142350  0.49678730  0.49703929  1
  Fe  Fe31  1  -0.00416145  0.33177506  0.66145059  1
  Cr  Cr32  1  0.15960939  0.49529056  0.82723484  1
  Cr  Cr33  1  0.16292458  0.82515097  0.49412631  1
  Fe  Fe34  1  -0.00440434  0.65806715  0.66212327  1
  Fe  Fe35  1  0.16078824  0.82708853  0.82935115  1
  Cr  Cr36  1  0.49439292  0.16316967  0.49480114  1
  Cr  Cr37  1  0.32770655  -0.00344708  0.66441625  1
  Fe  Fe38  1  0.49592175  0.16355708  0.82930736  1
  Fe  Fe39  1  0.49511259  0.49623442  0.49628835  1
  Ni  Ni40  1  0.32913525  0.33484430  0.66139971  1
  Fe  Fe41  1  0.49585105  0.49396105  0.82716004  1
  Cr  Cr42  1  0.49484080  0.82664858  0.49369873  1
  Fe  Fe43  1  0.32948409  0.65957434  0.66153421  1
  Cr  Cr44  1  0.49618009  0.82874275  0.82948079  1
  Cr  Cr45  1  0.82861211  0.16531914  0.49567914  1
  Cr  Cr46  1  0.66300529  0.99435137  0.66170760  1
  Cr  Cr47  1  0.82802016  0.16467408  0.82992144  1
  Ni  Ni48  1  0.83031749  0.49635688  0.49677408  1
  Cr  Cr49  1  0.66001855  0.33228098  0.66192943  1
  Fe  Fe50  1  0.82984720  0.49512558  0.82879032  1
  Cr  Cr51  1  0.82840362  0.82454099  0.49773480  1
  Fe  Fe52  1  0.66105031  0.65862236  0.66160214  1
  Cr  Cr53  1  0.82844382  0.82532476  0.82670208  1
" 