8873,Ni12Fe81Cr6_12,-227.11961806583, 158.25770269395,Ni12Fe81Cr6,"# generated using pymatgen
 data_Cr5Fe43Ni6
_symmetry_space_group_name_H-M   'P 1'
_cell_length_a   7.43269129
_cell_length_b   7.43269129
_cell_length_c   10.51141283
_cell_angle_alpha   90.00000000
_cell_angle_beta   90.00000000
_cell_angle_gamma   90.00000000
_symmetry_Int_Tables_number   1
_chemical_formula_structural   Cr5Fe43Ni6
_chemical_formula_sum   'Cr5 Fe43 Ni6'
_cell_volume   580.70194957
_cell_formula_units_Z   1
loop_
 _symmetry_equiv_pos_site_id
 _symmetry_equiv_pos_as_xyz
  1  'x, y, z'
loop_
 _atom_site_type_symbol
 _atom_site_label
 _atom_site_symmetry_multiplicity
 _atom_site_fract_x
 _atom_site_fract_y
 _atom_site_fract_z
 _atom_site_occupancy
  Fe  Fe0  1  0.00231148  1.00189127  1.00161341  1
  Fe  Fe1  1  0.16653654  0.17001656  0.16848695  1
  Fe  Fe2  1  0.00240827  0.00253680  0.33608815  1
  Fe  Fe3  1  1.00201327  0.33386987  0.99972395  1
  Fe  Fe4  1  0.16922391  0.50240678  0.16806997  1
  Fe  Fe5  1  0.00245993  0.33523977  0.33887297  1
  Ni  Ni6  1  1.00182952  0.67009797  1.00156347  1
  Fe  Fe7  1  0.16835245  0.83467706  0.16917216  1
  Fe  Fe8  1  0.00302779  0.66983257  0.33631994  1
  Fe  Fe9  1  0.33244080  0.99977026  1.00186549  1
  Cr  Cr10  1  0.50238630  0.16722493  0.16862401  1
  Fe  Fe11  1  0.33393499  1.00117319  0.33769584  1
  Fe  Fe12  1  0.33215702  0.33560784  1.00149662  1
  Cr  Cr13  1  0.50326419  0.50266013  0.16836515  1
  Fe  Fe14  1  0.33357992  0.33557785  0.33783840  1
  Fe  Fe15  1  0.33451902  0.67174401  1.00178916  1
  Fe  Fe16  1  0.50337576  0.83475478  0.16955859  1
  Fe  Fe17  1  0.33448941  0.66984256  0.33729924  1
  Fe  Fe18  1  0.67198808  0.99973336  1.00126693  1
  Fe  Fe19  1  0.83714221  0.16807302  0.16834919  1
  Fe  Fe20  1  0.67057408  1.00141029  0.33742773  1
  Fe  Fe21  1  0.67225679  0.33575128  1.00024371  1
  Cr  Cr22  1  0.83767384  0.50365730  0.16861903  1
  Fe  Fe23  1  0.67095813  0.33533406  0.33852366  1
  Fe  Fe24  1  0.67020218  0.67107882  0.99860346  1
  Fe  Fe25  1  0.83519855  0.83728437  0.16898160  1
  Fe  Fe26  1  0.66984509  0.67000320  0.33905688  1
  Fe  Fe27  1  0.16748821  0.16916772  0.50439394  1
  Fe  Fe28  1  1.00120176  1.00200824  0.66949634  1
  Ni  Ni29  1  0.16868863  0.16806771  0.83464171  1
  Fe  Fe30  1  0.16713269  0.50248224  0.50397535  1
  Ni  Ni31  1  0.00276411  0.33372756  0.66949267  1
  Cr  Cr32  1  0.16776357  0.50478361  0.83414637  1
  Fe  Fe33  1  0.16690852  0.83462053  0.50276873  1
  Fe  Fe34  1  0.99920281  0.66893618  0.66862582  1
  Fe  Fe35  1  0.16762614  0.83887325  0.83505709  1
  Fe  Fe36  1  0.50336305  0.16926158  0.50248085  1
  Fe  Fe37  1  0.33388646  1.00113593  0.66719573  1
  Cr  Cr38  1  0.50212078  0.16809282  0.83421881  1
  Fe  Fe39  1  0.50384759  0.50315069  0.50274972  1
  Fe  Fe40  1  0.33565430  0.33633914  0.66717803  1
  Fe  Fe41  1  0.50329258  0.50223936  0.83575770  1
  Fe  Fe42  1  0.50368151  0.83495080  0.50370236  1
  Fe  Fe43  1  0.33591256  0.66921300  0.66750869  1
  Fe  Fe44  1  0.50133685  0.83545659  0.83419250  1
  Fe  Fe45  1  0.83647667  0.16963569  0.50405639  1
  Fe  Fe46  1  0.67166801  1.00180708  0.66807799  1
  Ni  Ni47  1  0.83601699  0.16750903  0.83502827  1
  Ni  Ni48  1  0.83663243  0.50360641  0.50401572  1
  Fe  Fe49  1  0.67191376  0.33748035  0.66790078  1
  Fe  Fe50  1  0.83513424  0.50050890  0.83403492  1
  Fe  Fe51  1  0.83577240  0.83472253  0.50334535  1
  Ni  Ni52  1  0.66793441  0.66974490  0.67040209  1
  Fe  Fe53  1  0.83723221  0.83603103  0.83484316  1
" 