1056,Ni12Fe88_10,-241.97716364955, 196.184390570789,Ni12Fe88,"# generated using pymatgen
 data_FeNi8
_symmetry_space_group_name_H-M   'P 1'
_cell_length_a   7.43739129
_cell_length_b   7.43739129
_cell_length_c   10.51805963
_cell_angle_alpha   90.00000000
_cell_angle_beta   90.00000000
_cell_angle_gamma   90.00000000
_symmetry_Int_Tables_number   1
_chemical_formula_structural   FeNi8
_chemical_formula_sum   'Fe6 Ni48'
_cell_volume   581.80425155
_cell_formula_units_Z   6
loop_
 _symmetry_equiv_pos_site_id
 _symmetry_equiv_pos_as_xyz
  1  'x, y, z'
loop_
 _atom_site_type_symbol
 _atom_site_label
 _atom_site_symmetry_multiplicity
 _atom_site_fract_x
 _atom_site_fract_y
 _atom_site_fract_z
 _atom_site_occupancy
  Ni  Ni0  1  0.00213567  0.00305873  0.00233967  1
  Ni  Ni1  1  0.16955289  0.16847019  0.16798468  1
  Ni  Ni2  1  0.00266484  0.00281684  0.33516956  1
  Ni  Ni3  1  0.00205114  0.33481603  1.00197986  1
  Ni  Ni4  1  0.16811742  0.50155988  0.16953912  1
  Ni  Ni5  1  1.00151759  0.33499424  0.33533814  1
  Fe  Fe6  1  0.00202170  0.66863570  0.00260226  1
  Ni  Ni7  1  0.16810184  0.83584799  0.16865898  1
  Ni  Ni8  1  0.00240134  0.66814558  0.33550312  1
  Ni  Ni9  1  0.33474913  1.00106419  1.00148207  1
  Ni  Ni10  1  0.50118316  0.16873586  0.16864331  1
  Ni  Ni11  1  0.33471160  1.00058983  0.33531910  1
  Ni  Ni12  1  0.33446567  0.33634388  0.00223401  1
  Ni  Ni13  1  0.50243286  0.50108944  0.16835231  1
  Fe  Fe14  1  0.33565634  0.33472843  0.33507218  1
  Ni  Ni15  1  0.33604313  0.66860961  0.00237448  1
  Ni  Ni16  1  0.50205203  0.83604483  0.16865338  1
  Ni  Ni17  1  0.33571896  0.66930969  0.33506104  1
  Ni  Ni18  1  0.66906828  1.00129866  0.00203199  1
  Fe  Fe19  1  0.83516933  0.16861318  0.16858221  1
  Ni  Ni20  1  0.66860795  1.00183949  0.33558247  1
  Ni  Ni21  1  0.66940927  0.33610151  1.00167151  1
  Ni  Ni22  1  0.83547563  0.50252083  0.16825532  1
  Ni  Ni23  1  0.67014888  0.33597738  0.33515433  1
  Ni  Ni24  1  0.66738302  0.66857445  1.00198636  1
  Ni  Ni25  1  0.83580970  0.83450541  0.16908637  1
  Ni  Ni26  1  0.66793978  0.66817734  0.33532204  1
  Ni  Ni27  1  0.16890398  0.16787696  0.50260863  1
  Ni  Ni28  1  0.00200351  0.00331052  0.66837867  1
  Fe  Fe29  1  0.16862618  0.16885191  0.83532651  1
  Fe  Fe30  1  0.16874642  0.50202193  0.50196144  1
  Ni  Ni31  1  1.00158540  0.33437990  0.66866291  1
  Ni  Ni32  1  0.16841435  0.50255461  0.83497566  1
  Ni  Ni33  1  0.16835047  0.83631610  0.50162311  1
  Fe  Fe34  1  1.00181756  0.66905952  0.66835446  1
  Ni  Ni35  1  0.16819368  0.83485400  0.83576141  1
  Ni  Ni36  1  0.50158234  0.16908345  0.50233335  1
  Ni  Ni37  1  0.33458304  1.00096102  0.66917522  1
  Ni  Ni38  1  0.50221324  0.16907010  0.83493661  1
  Ni  Ni39  1  0.50287221  0.50129725  0.50184458  1
  Ni  Ni40  1  0.33468430  0.33622363  0.66835710  1
  Ni  Ni41  1  0.50167480  0.50098943  0.83570807  1
  Ni  Ni42  1  0.50149639  0.83549820  0.50199863  1
  Ni  Ni43  1  0.33632424  0.66888515  0.66864293  1
  Ni  Ni44  1  0.50166568  0.83591984  0.83532910  1
  Ni  Ni45  1  0.83556423  0.16914115  0.50126460  1
  Ni  Ni46  1  0.66932963  1.00157674  0.66826914  1
  Ni  Ni47  1  0.83463120  0.16872953  0.83569062  1
  Ni  Ni48  1  0.83489837  0.50189246  0.50244014  1
  Ni  Ni49  1  0.66961232  0.33597920  0.66903899  1
  Ni  Ni50  1  0.83582137  0.50176944  0.83535008  1
  Ni  Ni51  1  0.83611137  0.83497465  0.50198891  1
  Ni  Ni52  1  0.66727771  0.66842783  0.66867770  1
  Ni  Ni53  1  0.83608836  0.83554775  0.83498303  1
" 