5678,Ni12Fe81Cr6_15,-227.161896737273, 157.1177951606,Ni12Fe81Cr6,"# generated using pymatgen
 data_Cr5Fe43Ni6
_symmetry_space_group_name_H-M   'P 1'
_cell_length_a   7.43210996
_cell_length_b   7.43210996
_cell_length_c   10.51059070
_cell_angle_alpha   90.00000000
_cell_angle_beta   90.00000000
_cell_angle_gamma   90.00000000
_symmetry_Int_Tables_number   1
_chemical_formula_structural   Cr5Fe43Ni6
_chemical_formula_sum   'Cr5 Fe43 Ni6'
_cell_volume   580.56570482
_cell_formula_units_Z   1
loop_
 _symmetry_equiv_pos_site_id
 _symmetry_equiv_pos_as_xyz
  1  'x, y, z'
loop_
 _atom_site_type_symbol
 _atom_site_label
 _atom_site_symmetry_multiplicity
 _atom_site_fract_x
 _atom_site_fract_y
 _atom_site_fract_z
 _atom_site_occupancy
  Fe  Fe0  1  1.00185030  1.00156439  0.00303375  1
  Fe  Fe1  1  0.16853334  0.16628455  0.16816884  1
  Fe  Fe2  1  0.00278337  1.00147001  0.33554315  1
  Fe  Fe3  1  0.00273705  0.33614172  0.00252221  1
  Fe  Fe4  1  0.16813894  0.50496376  0.16654751  1
  Cr  Cr5  1  1.00187807  0.33538705  0.33392321  1
  Ni  Ni6  1  1.00174771  0.66909797  1.00219255  1
  Fe  Fe7  1  0.16784219  0.83529946  0.16858534  1
  Fe  Fe8  1  0.00236758  0.67067223  0.33517771  1
  Fe  Fe9  1  0.33369992  0.00281902  0.00256385  1
  Fe  Fe10  1  0.50383906  0.16738080  0.16785296  1
  Fe  Fe11  1  0.33468752  1.00138213  0.33679167  1
  Fe  Fe12  1  0.33431741  0.33651469  0.00275093  1
  Fe  Fe13  1  0.50387330  0.50381058  0.16832680  1
  Cr  Cr14  1  0.33504157  0.33451632  0.33571708  1
  Fe  Fe15  1  0.33362439  0.66768289  0.00238373  1
  Fe  Fe16  1  0.50272431  0.83579438  0.16867931  1
  Fe  Fe17  1  0.33534203  0.67008264  0.33588916  1
  Fe  Fe18  1  0.67143964  0.00240592  0.00360847  1
  Fe  Fe19  1  0.83463468  0.16746763  0.16792637  1
  Fe  Fe20  1  0.66958156  0.00270402  0.33505335  1
  Fe  Fe21  1  0.66990428  0.33616331  0.00241899  1
  Fe  Fe22  1  0.83504857  0.50434502  0.16780032  1
  Fe  Fe23  1  0.66900999  0.33553117  0.33553017  1
  Fe  Fe24  1  0.67086872  0.66855487  0.00331257  1
  Ni  Ni25  1  0.83527718  0.83552579  0.16916411  1
  Fe  Fe26  1  0.66933336  0.66885993  0.33577486  1
  Ni  Ni27  1  0.16851681  0.16864206  0.50381053  1
  Fe  Fe28  1  0.00296476  1.00097207  0.66881332  1
  Fe  Fe29  1  0.16955514  0.16879822  0.83474776  1
  Fe  Fe30  1  0.16701467  0.50223157  0.50344346  1
  Fe  Fe31  1  0.00338149  0.33608279  0.66876524  1
  Ni  Ni32  1  0.16751316  0.50085594  0.83550649  1
  Fe  Fe33  1  0.16782712  0.83744050  0.50212267  1
  Ni  Ni34  1  1.00150398  0.66886311  0.66872080  1
  Fe  Fe35  1  0.16667175  0.83545062  0.83588927  1
  Fe  Fe36  1  0.50274554  0.16794623  0.50345599  1
  Ni  Ni37  1  0.33571209  0.00488266  0.66864541  1
  Fe  Fe38  1  0.50137775  0.17116824  0.83563044  1
  Fe  Fe39  1  0.50309939  0.50109193  0.50167159  1
  Fe  Fe40  1  0.33471805  0.33539608  0.66884336  1
  Fe  Fe41  1  0.50141531  0.49942224  0.83736609  1
  Fe  Fe42  1  0.50156241  0.83839146  0.50164523  1
  Cr  Cr43  1  0.33409388  0.66984077  0.66895947  1
  Cr  Cr44  1  0.50323519  0.83689447  0.83752342  1
  Fe  Fe45  1  0.83575834  0.16837150  0.50308783  1
  Fe  Fe46  1  0.66980365  0.00328410  0.66860082  1
  Fe  Fe47  1  0.83601445  0.16951726  0.83578098  1
  Fe  Fe48  1  0.83691861  0.50155923  0.50242740  1
  Fe  Fe49  1  0.66884121  0.33427313  0.66909911  1
  Fe  Fe50  1  0.83782684  0.50192789  0.83670663  1
  Fe  Fe51  1  0.83767219  0.83682500  0.50083409  1
  Cr  Cr52  1  0.67126257  0.66889943  0.67012869  1
  Fe  Fe53  1  0.83979209  0.83547366  0.83745937  1
" 