4362,Ni12Fe54Cr33_4,-222.610707661409, 171.158292396583,Ni12Fe54Cr33,"# generated using pymatgen
 data_Cr19Fe29Ni6
_symmetry_space_group_name_H-M   'P 1'
_cell_length_a   7.49174343
_cell_length_b   7.49174343
_cell_length_c   10.59492517
_cell_angle_alpha   90.00000000
_cell_angle_beta   90.00000000
_cell_angle_gamma   90.00000000
_symmetry_Int_Tables_number   1
_chemical_formula_structural   Cr19Fe29Ni6
_chemical_formula_sum   'Cr19 Fe29 Ni6'
_cell_volume   594.65309747
_cell_formula_units_Z   1
loop_
 _symmetry_equiv_pos_site_id
 _symmetry_equiv_pos_as_xyz
  1  'x, y, z'
loop_
 _atom_site_type_symbol
 _atom_site_label
 _atom_site_symmetry_multiplicity
 _atom_site_fract_x
 _atom_site_fract_y
 _atom_site_fract_z
 _atom_site_occupancy
  Fe  Fe0  1  0.99760558  0.99797451  -0.00092559  1
  Cr  Cr1  1  0.16614924  0.16571311  0.16189326  1
  Ni  Ni2  1  0.99453740  0.99663612  0.33231584  1
  Fe  Fe3  1  0.00262338  0.33300118  0.99561753  1
  Fe  Fe4  1  0.16740181  0.49733370  0.16621691  1
  Cr  Cr5  1  0.99680820  0.33099538  0.33224807  1
  Fe  Fe6  1  -0.00040251  0.66525663  0.99716236  1
  Cr  Cr7  1  0.16089627  0.83064621  0.16656507  1
  Fe  Fe8  1  0.99748097  0.66617542  0.33307409  1
  Cr  Cr9  1  0.33264259  0.99745863  0.99511447  1
  Ni  Ni10  1  0.49856979  0.16671747  0.16599594  1
  Cr  Cr11  1  0.33040573  0.99596627  0.33037026  1
  Fe  Fe12  1  0.33324059  0.33098069  0.99677190  1
  Fe  Fe13  1  0.49679618  0.49716637  0.16620717  1
  Fe  Fe14  1  0.33178033  0.33262680  0.33194690  1
  Cr  Cr15  1  0.33115077  0.66585129  0.99831869  1
  Fe  Fe16  1  0.49940439  0.83024877  0.16639490  1
  Fe  Fe17  1  0.32980854  0.66238630  0.33225243  1
  Cr  Cr18  1  0.66303541  0.99817094  0.00048987  1
  Fe  Fe19  1  0.83189176  0.16428285  0.16570833  1
  Fe  Fe20  1  0.66667160  -0.00074047  0.32993534  1
  Cr  Cr21  1  0.66636579  0.33067095  0.99682370  1
  Cr  Cr22  1  0.83254259  0.50259605  0.15993188  1
  Fe  Fe23  1  0.66494936  0.33122656  0.33019721  1
  Fe  Fe24  1  0.66294979  0.66698211  0.99777165  1
  Fe  Fe25  1  0.82993360  0.83437621  0.16622368  1
  Fe  Fe26  1  0.66629833  0.66663662  0.33168232  1
  Cr  Cr27  1  0.16524237  0.16420029  0.49939755  1
  Fe  Fe28  1  0.99814589  0.99732938  0.66370397  1
  Fe  Fe29  1  0.16574922  0.16425114  0.83076807  1
  Ni  Ni30  1  0.16294445  0.50064369  0.49717247  1
  Ni  Ni31  1  0.00057843  0.33217876  0.66631681  1
  Fe  Fe32  1  0.16331194  0.49888431  0.83112788  1
  Fe  Fe33  1  0.16232712  0.82972812  0.49780766  1
  Fe  Fe34  1  0.00185610  0.66339399  0.66557351  1
  Fe  Fe35  1  0.16570053  0.83249718  0.82968574  1
  Cr  Cr36  1  0.50043866  0.16429353  0.49891804  1
  Fe  Fe37  1  0.33016023  0.99702971  0.66798267  1
  Ni  Ni38  1  0.49641980  0.16304857  0.82974113  1
  Fe  Fe39  1  0.49520711  0.49940834  0.49659891  1
  Cr  Cr40  1  0.33052604  0.33340645  0.66505190  1
  Cr  Cr41  1  0.49906693  0.49868873  0.83145205  1
  Cr  Cr42  1  0.49848375  0.83170059  0.50085115  1
  Fe  Fe43  1  0.32690656  0.66567223  0.66549026  1
  Ni  Ni44  1  0.49714692  0.83293104  0.83057410  1
  Fe  Fe45  1  0.83384157  0.16254282  0.49951559  1
  Fe  Fe46  1  0.66548705  -0.00130826  0.66738114  1
  Cr  Cr47  1  0.83423324  0.16504638  0.83029973  1
  Cr  Cr48  1  0.83160323  0.49994020  0.50173985  1
  Cr  Cr49  1  0.66794153  0.33123654  0.66414239  1
  Fe  Fe50  1  0.83520976  0.49802516  0.83231949  1
  Fe  Fe51  1  0.83390453  0.83365970  0.49896818  1
  Cr  Cr52  1  0.66414710  0.66624585  0.66840587  1
  Cr  Cr53  1  0.83287951  0.82898592  0.83370676  1
" 