2331,Ni12Fe81Cr6_8,-227.109972612787, 160.428836295839,Ni12Fe81Cr6,"# generated using pymatgen
 data_Cr5Fe43Ni6
_symmetry_space_group_name_H-M   'P 1'
_cell_length_a   7.43004070
_cell_length_b   7.43004070
_cell_length_c   10.50766433
_cell_angle_alpha   90.00000000
_cell_angle_beta   90.00000000
_cell_angle_gamma   90.00000000
_symmetry_Int_Tables_number   1
_chemical_formula_structural   Cr5Fe43Ni6
_chemical_formula_sum   'Cr5 Fe43 Ni6'
_cell_volume   580.08091449
_cell_formula_units_Z   1
loop_
 _symmetry_equiv_pos_site_id
 _symmetry_equiv_pos_as_xyz
  1  'x, y, z'
loop_
 _atom_site_type_symbol
 _atom_site_label
 _atom_site_symmetry_multiplicity
 _atom_site_fract_x
 _atom_site_fract_y
 _atom_site_fract_z
 _atom_site_occupancy
  Fe  Fe0  1  0.00566138  0.00302061  1.00039221  1
  Fe  Fe1  1  0.17108341  0.16862287  0.16850007  1
  Fe  Fe2  1  0.00339185  1.00175388  0.33755114  1
  Ni  Ni3  1  0.00307432  0.33783131  0.00252181  1
  Fe  Fe4  1  0.16881885  0.50197293  0.16914787  1
  Fe  Fe5  1  0.00508212  0.33502083  0.33531859  1
  Fe  Fe6  1  0.00408266  0.66978051  1.00248586  1
  Fe  Fe7  1  0.16945304  0.83717385  0.16923228  1
  Fe  Fe8  1  1.00231101  0.67055859  0.33485788  1
  Ni  Ni9  1  0.33556640  1.00161717  1.00221115  1
  Fe  Fe10  1  0.49892560  0.16876971  0.16927213  1
  Ni  Ni11  1  0.33524745  1.00151499  0.33576855  1
  Ni  Ni12  1  0.33455105  0.33574171  0.00318771  1
  Fe  Fe13  1  0.50170870  0.50300337  0.16795368  1
  Fe  Fe14  1  0.33529422  0.33430142  0.33429899  1
  Fe  Fe15  1  0.33535127  0.66909876  0.00252890  1
  Fe  Fe16  1  0.50082725  0.83570099  0.16999233  1
  Fe  Fe17  1  0.33716626  0.67034665  0.33469194  1
  Cr  Cr18  1  0.66731873  0.99958229  1.00233823  1
  Cr  Cr19  1  0.83704524  0.16789389  0.16782093  1
  Fe  Fe20  1  0.66739179  1.00068839  0.33607734  1
  Fe  Fe21  1  0.66722874  0.33682269  1.00199848  1
  Fe  Fe22  1  0.83683696  0.50477959  0.16797878  1
  Cr  Cr23  1  0.66952841  0.33770155  0.33627918  1
  Fe  Fe24  1  0.66804836  0.66664314  1.00152553  1
  Fe  Fe25  1  0.83665763  0.83319940  0.16975864  1
  Fe  Fe26  1  0.66812716  0.67221434  0.33661531  1
  Fe  Fe27  1  0.17038544  0.16631160  0.50191200  1
  Ni  Ni28  1  0.00376666  1.00235991  0.66948790  1
  Fe  Fe29  1  0.16996860  0.16859336  0.83721594  1
  Cr  Cr30  1  0.17084416  0.50407041  0.50237734  1
  Cr  Cr31  1  0.00295536  0.33539474  0.66868714  1
  Fe  Fe32  1  0.17017338  0.50265430  0.83691185  1
  Fe  Fe33  1  0.16943479  0.83808202  0.50253055  1
  Fe  Fe34  1  1.00122998  0.67169229  0.66995380  1
  Fe  Fe35  1  0.16958038  0.83650785  0.83572132  1
  Fe  Fe36  1  0.50045248  0.16801165  0.50285241  1
  Fe  Fe37  1  0.33570534  1.00193099  0.66931407  1
  Fe  Fe38  1  0.50059081  0.16997921  0.83606026  1
  Fe  Fe39  1  0.50316169  0.50393297  0.50408629  1
  Fe  Fe40  1  0.33794213  0.33511295  0.67079186  1
  Fe  Fe41  1  0.50224734  0.50255457  0.83566790  1
  Fe  Fe42  1  0.50167105  0.83553862  0.50264636  1
  Fe  Fe43  1  0.33572993  0.67057439  0.67022423  1
  Fe  Fe44  1  0.50130389  0.83456833  0.83466044  1
  Fe  Fe45  1  0.83641846  0.16671292  0.50228692  1
  Fe  Fe46  1  0.67051199  1.00206422  0.66964174  1
  Fe  Fe47  1  0.83653375  0.16904163  0.83678161  1
  Fe  Fe48  1  0.83467090  0.50531783  0.50293164  1
  Fe  Fe49  1  0.66820786  0.33539275  0.66866423  1
  Fe  Fe50  1  0.83476226  0.50357169  0.83652496  1
  Fe  Fe51  1  0.83619274  0.83543567  0.50349566  1
  Ni  Ni52  1  0.66802188  0.66895272  0.66856769  1
  Fe  Fe53  1  0.83623616  0.83476427  0.83417766  1
" 