4306,Ni12Fe88_18,-242.274482996837, 197.021024267366,Ni12Fe88,"# generated using pymatgen
 data_FeNi8
_symmetry_space_group_name_H-M   'P 1'
_cell_length_a   7.43954014
_cell_length_b   7.43954014
_cell_length_c   10.52109856
_cell_angle_alpha   90.00000000
_cell_angle_beta   90.00000000
_cell_angle_gamma   90.00000000
_symmetry_Int_Tables_number   1
_chemical_formula_structural   FeNi8
_chemical_formula_sum   'Fe6 Ni48'
_cell_volume   582.30869087
_cell_formula_units_Z   6
loop_
 _symmetry_equiv_pos_site_id
 _symmetry_equiv_pos_as_xyz
  1  'x, y, z'
loop_
 _atom_site_type_symbol
 _atom_site_label
 _atom_site_symmetry_multiplicity
 _atom_site_fract_x
 _atom_site_fract_y
 _atom_site_fract_z
 _atom_site_occupancy
  Ni  Ni0  1  1.00176755  1.00128910  0.00211226  1
  Ni  Ni1  1  0.16844849  0.16870989  0.16824337  1
  Ni  Ni2  1  1.00170030  1.00134025  0.33467711  1
  Ni  Ni3  1  1.00058990  0.33505752  1.00131587  1
  Ni  Ni4  1  0.16810576  0.50159797  0.16862269  1
  Ni  Ni5  1  1.00132615  0.33530610  0.33508822  1
  Ni  Ni6  1  0.00199757  0.66913799  0.00205318  1
  Ni  Ni7  1  0.16846913  0.83523209  0.16903621  1
  Ni  Ni8  1  1.00151985  0.66881612  0.33466538  1
  Ni  Ni9  1  0.33467897  1.00128524  1.00172310  1
  Ni  Ni10  1  0.50185724  0.16836715  0.16853619  1
  Ni  Ni11  1  0.33512485  1.00173929  0.33495854  1
  Ni  Ni12  1  0.33638254  0.33541456  0.00207916  1
  Ni  Ni13  1  0.50148140  0.50122745  0.16898406  1
  Ni  Ni14  1  0.33576604  0.33526521  0.33421455  1
  Ni  Ni15  1  0.33479320  0.66879363  1.00165230  1
  Ni  Ni16  1  0.50130375  0.83600078  0.16901390  1
  Ni  Ni17  1  0.33529907  0.66850807  0.33545248  1
  Fe  Fe18  1  0.66854244  0.00248106  0.00185490  1
  Ni  Ni19  1  0.83521143  0.16867788  0.16926672  1
  Ni  Ni20  1  0.66873693  0.00193021  0.33475623  1
  Ni  Ni21  1  0.66858179  0.33524630  0.00205688  1
  Ni  Ni22  1  0.83593862  0.50128587  0.16852553  1
  Ni  Ni23  1  0.66842933  0.33542507  0.33518878  1
  Fe  Fe24  1  0.66822221  0.66788166  1.00163484  1
  Ni  Ni25  1  0.83572793  0.83562024  0.16851029  1
  Ni  Ni26  1  0.66874015  0.66817526  0.33506679  1
  Fe  Fe27  1  0.16965226  0.16829406  0.50078261  1
  Ni  Ni28  1  0.00195586  1.00097331  0.66877486  1
  Fe  Fe29  1  0.16873129  0.16819742  0.83639502  1
  Ni  Ni30  1  0.16813025  0.50213563  0.50166653  1
  Fe  Fe31  1  0.00201974  0.33586113  0.66873543  1
  Ni  Ni32  1  0.16833573  0.50245460  0.83513523  1
  Ni  Ni33  1  0.16798126  0.83482000  0.50166267  1
  Ni  Ni34  1  1.00166838  0.66960172  0.66884430  1
  Ni  Ni35  1  0.16832291  0.83449499  0.83484355  1
  Ni  Ni36  1  0.50194813  0.16833322  0.50166458  1
  Ni  Ni37  1  0.33453273  0.00234059  0.66884998  1
  Ni  Ni38  1  0.50258024  0.16846599  0.83539336  1
  Ni  Ni39  1  0.50156590  0.50072170  0.50204162  1
  Ni  Ni40  1  0.33633602  0.33495856  0.66929086  1
  Ni  Ni41  1  0.50127886  0.50089272  0.83460695  1
  Ni  Ni42  1  0.50192308  0.83649098  0.50248112  1
  Ni  Ni43  1  0.33485516  0.66823547  0.66843070  1
  Ni  Ni44  1  0.50114036  0.83625150  0.83416269  1
  Fe  Fe45  1  0.83430149  0.16806519  0.50161270  1
  Ni  Ni46  1  0.66902361  0.00239003  0.66909219  1
  Ni  Ni47  1  0.83435784  0.16852726  0.83439073  1
  Ni  Ni48  1  0.83589696  0.50206055  0.50211104  1
  Ni  Ni49  1  0.66789065  0.33525700  0.66829829  1
  Ni  Ni50  1  0.83597807  0.50124671  0.83487123  1
  Ni  Ni51  1  0.83563485  0.83517170  0.50204522  1
  Ni  Ni52  1  0.66901684  0.66790958  0.66923894  1
  Ni  Ni53  1  0.83603059  0.83586805  0.83511974  1
" 