2695,Ni12Fe57Cr29_6,-223.415939351572, 176.9228429975,Ni12Fe57Cr29,"# generated using pymatgen
 data_Cr17Fe31Ni6
_symmetry_space_group_name_H-M   'P 1'
_cell_length_a   7.48232086
_cell_length_b   7.48232086
_cell_length_c   10.58159964
_cell_angle_alpha   90.00000000
_cell_angle_beta   90.00000000
_cell_angle_gamma   90.00000000
_symmetry_Int_Tables_number   1
_chemical_formula_structural   Cr17Fe31Ni6
_chemical_formula_sum   'Cr17 Fe31 Ni6'
_cell_volume   592.41218303
_cell_formula_units_Z   1
loop_
 _symmetry_equiv_pos_site_id
 _symmetry_equiv_pos_as_xyz
  1  'x, y, z'
loop_
 _atom_site_type_symbol
 _atom_site_label
 _atom_site_symmetry_multiplicity
 _atom_site_fract_x
 _atom_site_fract_y
 _atom_site_fract_z
 _atom_site_occupancy
  Fe  Fe0  1  0.99650695  -0.00000305  0.99887562  1
  Cr  Cr1  1  0.16717039  0.16629389  0.16729088  1
  Fe  Fe2  1  -0.00046838  0.00148415  0.33298277  1
  Fe  Fe3  1  0.99896951  0.33226033  -0.00098755  1
  Fe  Fe4  1  0.16694566  0.49723359  0.16451056  1
  Ni  Ni5  1  -0.00045830  0.33063109  0.33371946  1
  Fe  Fe6  1  -0.00098219  0.66468622  -0.00080665  1
  Cr  Cr7  1  0.16421310  0.83407666  0.16547708  1
  Cr  Cr8  1  0.00067888  0.66549282  0.33301929  1
  Fe  Fe9  1  0.33400975  0.00026633  0.99847386  1
  Fe  Fe10  1  0.49893481  0.16750071  0.16370058  1
  Fe  Fe11  1  0.33053978  0.00065703  0.33414217  1
  Ni  Ni12  1  0.33439732  0.33598108  -0.00027800  1
  Fe  Fe13  1  0.49746614  0.49707074  0.16312741  1
  Fe  Fe14  1  0.33038887  0.33238671  0.33169621  1
  Fe  Fe15  1  0.33380094  0.66212151  0.99805309  1
  Cr  Cr16  1  0.50014845  0.83258010  0.16528555  1
  Cr  Cr17  1  0.33278899  0.66483299  0.33274841  1
  Fe  Fe18  1  0.66642142  0.00031067  -0.00077329  1
  Fe  Fe19  1  0.83234038  0.16481116  0.16448359  1
  Cr  Cr20  1  0.66717625  -0.00004321  0.33075877  1
  Ni  Ni21  1  0.66397911  0.33080583  0.00037780  1
  Cr  Cr22  1  0.83136499  0.49981397  0.16623077  1
  Cr  Cr23  1  0.66650598  0.33218209  0.33097083  1
  Fe  Fe24  1  0.66411738  0.66457096  0.99801903  1
  Fe  Fe25  1  0.83249319  0.83364581  0.16461680  1
  Fe  Fe26  1  0.66556661  0.66452192  0.33297672  1
  Fe  Fe27  1  0.16451636  0.16642826  0.49873387  1
  Cr  Cr28  1  0.99800948  0.00074826  0.66466575  1
  Cr  Cr29  1  0.16714555  0.16725620  0.83146449  1
  Fe  Fe30  1  0.16419232  0.49642012  0.49951318  1
  Ni  Ni31  1  0.99875422  0.33314464  0.66442350  1
  Fe  Fe32  1  0.16708009  0.49750437  0.83291990  1
  Fe  Fe33  1  0.16750594  0.83409008  0.49932833  1
  Fe  Fe34  1  0.99880185  0.66357362  0.66488576  1
  Cr  Cr35  1  0.16553730  0.83256869  0.83376083  1
  Cr  Cr36  1  0.49448750  0.16468841  0.49982377  1
  Ni  Ni37  1  0.33365635  0.99644160  0.66363888  1
  Cr  Cr38  1  0.49746030  0.16545781  0.83290889  1
  Fe  Fe39  1  0.49924297  0.50046027  0.49946799  1
  Fe  Fe40  1  0.32998603  0.33241515  0.66597973  1
  Ni  Ni41  1  0.49953203  0.49976181  0.83422551  1
  Fe  Fe42  1  0.49800346  0.83212312  0.49974080  1
  Cr  Cr43  1  0.33277313  0.66584149  0.66632868  1
  Fe  Fe44  1  0.50041394  0.83137085  0.83258355  1
  Fe  Fe45  1  0.83546202  0.16765790  0.49893297  1
  Fe  Fe46  1  0.66474095  0.99753540  0.66601345  1
  Fe  Fe47  1  0.83192756  0.16559113  0.83351357  1
  Fe  Fe48  1  0.83351301  0.49747378  0.49953231  1
  Cr  Cr49  1  0.66763413  0.33182493  0.66536318  1
  Cr  Cr50  1  0.83253172  0.50031740  0.83081011  1
  Cr  Cr51  1  0.83159456  0.82870112  0.49889882  1
  Fe  Fe52  1  0.66541119  0.66668940  0.66594428  1
  Fe  Fe53  1  0.82995644  0.83262851  0.83279251  1
" 