8028,Ni12Fe57Cr29_8,-223.485223351701, 170.33968692086,Ni12Fe57Cr29,"# generated using pymatgen
 data_Cr17Fe31Ni6
_symmetry_space_group_name_H-M   'P 1'
_cell_length_a   7.48857833
_cell_length_b   7.48857833
_cell_length_c   10.59044903
_cell_angle_alpha   90.00000000
_cell_angle_beta   90.00000000
_cell_angle_gamma   90.00000000
_symmetry_Int_Tables_number   1
_chemical_formula_structural   Cr17Fe31Ni6
_chemical_formula_sum   'Cr17 Fe31 Ni6'
_cell_volume   593.89973017
_cell_formula_units_Z   1
loop_
 _symmetry_equiv_pos_site_id
 _symmetry_equiv_pos_as_xyz
  1  'x, y, z'
loop_
 _atom_site_type_symbol
 _atom_site_label
 _atom_site_symmetry_multiplicity
 _atom_site_fract_x
 _atom_site_fract_y
 _atom_site_fract_z
 _atom_site_occupancy
  Fe  Fe0  1  -0.00012813  0.99791533  0.99814753  1
  Fe  Fe1  1  0.16323867  0.16425189  0.16371462  1
  Fe  Fe2  1  -0.00089329  0.00000437  0.33249105  1
  Cr  Cr3  1  0.99814242  0.33158315  0.99670729  1
  Fe  Fe4  1  0.16493426  0.50146406  0.16416394  1
  Fe  Fe5  1  -0.00142221  0.33120011  0.33271558  1
  Cr  Cr6  1  0.00199551  0.66554735  0.99737779  1
  Ni  Ni7  1  0.16427677  0.83487470  0.16555689  1
  Fe  Fe8  1  0.00003050  0.66503751  0.33355754  1
  Fe  Fe9  1  0.33032335  0.99726667  0.00027940  1
  Fe  Fe10  1  0.50164547  0.16296101  0.16342199  1
  Cr  Cr11  1  0.33343588  0.99689786  0.32991860  1
  Fe  Fe12  1  0.33120111  0.33391208  -0.00071907  1
  Cr  Cr13  1  0.49989666  0.49614854  0.16326566  1
  Cr  Cr14  1  0.33108992  0.33136088  0.32906784  1
  Ni  Ni15  1  0.33092891  0.67009313  0.99854698  1
  Fe  Fe16  1  0.49841603  0.83165191  0.16235517  1
  Cr  Cr17  1  0.32961495  0.66704446  0.33125845  1
  Fe  Fe18  1  0.66506975  0.99715175  0.99815779  1
  Fe  Fe19  1  0.83146968  0.16478413  0.16575820  1
  Fe  Fe20  1  0.66578091  0.00075645  0.33269320  1
  Ni  Ni21  1  0.66661077  0.32729632  0.99821537  1
  Cr  Cr22  1  0.83083785  0.49879666  0.16721314  1
  Ni  Ni23  1  0.66820232  0.32912001  0.33303705  1
  Fe  Fe24  1  0.66450673  0.66493796  0.99749777  1
  Cr  Cr25  1  0.83427071  0.83300499  0.16657195  1
  Cr  Cr26  1  0.66335232  0.66732827  0.33521885  1
  Fe  Fe27  1  0.16363991  0.16466770  0.49963093  1
  Fe  Fe28  1  -0.00108490  0.99822520  0.66428073  1
  Cr  Cr29  1  0.16645028  0.16176689  0.82945922  1
  Fe  Fe30  1  0.16604182  0.49781183  0.49923133  1
  Cr  Cr31  1  0.99812829  0.33208229  0.66731930  1
  Fe  Fe32  1  0.16981474  0.50005641  0.83188641  1
  Fe  Fe33  1  0.16426496  0.83341477  0.49950217  1
  Cr  Cr34  1  0.99836298  0.66525749  0.66720111  1
  Ni  Ni35  1  0.16374156  0.83301613  0.83069012  1
  Cr  Cr36  1  0.49637253  0.16775833  0.49932297  1
  Fe  Fe37  1  0.32981533  0.99678225  0.66392742  1
  Cr  Cr38  1  0.49597069  0.16665530  0.83306267  1
  Fe  Fe39  1  0.49763669  0.49906672  0.49953622  1
  Ni  Ni40  1  0.33020110  0.33339972  0.66428165  1
  Cr  Cr41  1  0.49994814  0.49861303  0.83144782  1
  Fe  Fe42  1  0.49729471  0.83156336  0.50062249  1
  Fe  Fe43  1  0.33227466  0.66592934  0.66563929  1
  Fe  Fe44  1  0.49471613  0.83208778  0.83298255  1
  Fe  Fe45  1  0.83403896  0.16391887  0.49660561  1
  Cr  Cr46  1  0.66509534  0.99675021  0.66578846  1
  Fe  Fe47  1  0.83169919  0.16192213  0.83360318  1
  Fe  Fe48  1  0.83279097  0.49770966  0.49671892  1
  Cr  Cr49  1  0.66759599  0.33098766  0.66484371  1
  Fe  Fe50  1  0.83097994  0.49965949  0.83381864  1
  Fe  Fe51  1  0.83379515  0.83336975  0.49792088  1
  Fe  Fe52  1  0.66460497  0.66453217  0.66358031  1
  Fe  Fe53  1  0.83135326  0.83297521  0.83327650  1
" 