8935,Ni12Fe54Cr33_5,-222.725488691383, 170.832864980028,Ni12Fe54Cr33,"# generated using pymatgen
 data_Cr19Fe29Ni6
_symmetry_space_group_name_H-M   'P 1'
_cell_length_a   7.49059581
_cell_length_b   7.49059581
_cell_length_c   10.59330218
_cell_angle_alpha   90.00000000
_cell_angle_beta   90.00000000
_cell_angle_gamma   90.00000000
_symmetry_Int_Tables_number   1
_chemical_formula_structural   Cr19Fe29Ni6
_chemical_formula_sum   'Cr19 Fe29 Ni6'
_cell_volume   594.37986332
_cell_formula_units_Z   1
loop_
 _symmetry_equiv_pos_site_id
 _symmetry_equiv_pos_as_xyz
  1  'x, y, z'
loop_
 _atom_site_type_symbol
 _atom_site_label
 _atom_site_symmetry_multiplicity
 _atom_site_fract_x
 _atom_site_fract_y
 _atom_site_fract_z
 _atom_site_occupancy
  Fe  Fe0  1  0.99718421  0.00075026  0.99802343  1
  Fe  Fe1  1  0.16514518  0.16671566  0.16478747  1
  Fe  Fe2  1  -0.00041681  0.00091121  0.32990636  1
  Fe  Fe3  1  0.00099226  0.32946726  -0.00037472  1
  Fe  Fe4  1  0.16516574  0.49431406  0.16324116  1
  Ni  Ni5  1  -0.00154310  0.33208746  0.33022976  1
  Fe  Fe6  1  -0.00154801  0.66538337  -0.00066271  1
  Cr  Cr7  1  0.16575018  0.83545371  0.16477372  1
  Cr  Cr8  1  0.99751678  0.66393143  0.33485514  1
  Fe  Fe9  1  0.33449661  0.00217906  -0.00155333  1
  Ni  Ni10  1  0.49645955  0.16333238  0.16449450  1
  Ni  Ni11  1  0.33325280  -0.00053810  0.32917947  1
  Ni  Ni12  1  0.33019542  0.32858500  0.99813983  1
  Fe  Fe13  1  0.49677958  0.49552782  0.16446951  1
  Cr  Cr14  1  0.32992110  0.33065807  0.33183036  1
  Cr  Cr15  1  0.33297322  0.66427913  -0.00036991  1
  Fe  Fe16  1  0.49953415  0.83452836  0.16553215  1
  Cr  Cr17  1  0.33194820  0.66479815  0.32967613  1
  Fe  Fe18  1  0.66334161  -0.00026740  -0.00087970  1
  Fe  Fe19  1  0.83368573  0.16288106  0.16479076  1
  Cr  Cr20  1  0.66491225  0.99711466  0.33026543  1
  Cr  Cr21  1  0.66318614  0.32854751  0.99748225  1
  Cr  Cr22  1  0.83173108  0.49672957  0.16534132  1
  Cr  Cr23  1  0.66549902  0.33036122  0.33211010  1
  Cr  Cr24  1  0.66412523  0.66931498  0.00020163  1
  Fe  Fe25  1  0.83150430  0.83472013  0.16440683  1
  Fe  Fe26  1  0.66574004  0.66482615  0.33120915  1
  Cr  Cr27  1  0.16715729  0.16149057  0.49640085  1
  Fe  Fe28  1  0.99768223  0.99826351  0.66635463  1
  Fe  Fe29  1  0.16644509  0.16508389  0.83204942  1
  Fe  Fe30  1  0.16340698  0.49764586  0.49965111  1
  Cr  Cr31  1  -0.00124681  0.33206418  0.66394025  1
  Cr  Cr32  1  0.16496771  0.49879423  0.83278007  1
  Cr  Cr33  1  0.16636634  0.83484680  0.50014516  1
  Fe  Fe34  1  0.99708215  0.66693381  0.66328331  1
  Cr  Cr35  1  0.16612263  0.83456357  0.83094280  1
  Fe  Fe36  1  0.49747936  0.16363845  0.49978576  1
  Ni  Ni37  1  0.33472807  -0.00033866  0.66722674  1
  Fe  Fe38  1  0.49610840  0.16448010  0.83191917  1
  Cr  Cr39  1  0.50173926  0.49748533  0.50049566  1
  Fe  Fe40  1  0.33356265  0.32920322  0.66666240  1
  Fe  Fe41  1  0.49708334  0.49752346  0.83018614  1
  Cr  Cr42  1  0.49644271  0.83378434  0.49735230  1
  Fe  Fe43  1  0.33240151  0.66506561  0.66586214  1
  Fe  Fe44  1  0.49977055  0.83285167  0.82966153  1
  Cr  Cr45  1  0.83132201  0.16677803  0.49711773  1
  Fe  Fe46  1  0.66481862  -0.00086168  0.66638043  1
  Fe  Fe47  1  0.83268858  0.16177186  0.83133578  1
  Ni  Ni48  1  0.83097422  0.49930056  0.49935128  1
  Fe  Fe49  1  0.66291747  0.32964678  0.66586418  1
  Cr  Cr50  1  0.82976832  0.49765857  0.83187446  1
  Fe  Fe51  1  0.83068656  0.83044686  0.50034358  1
  Fe  Fe52  1  0.66591356  0.66671135  0.66571327  1
  Fe  Fe53  1  0.83119875  0.83369558  0.83133381  1
" 