5475,Ni12Fe32Cr54_17,-216.207964280335, 177.430179564492,Ni12Fe32Cr54,"# generated using pymatgen
 data_Cr31Fe17Ni6
_symmetry_space_group_name_H-M   'P 1'
_cell_length_a   7.53304030
_cell_length_b   7.53304030
_cell_length_c   10.65332776
_cell_angle_alpha   90.00000000
_cell_angle_beta   90.00000000
_cell_angle_gamma   90.00000000
_symmetry_Int_Tables_number   1
_chemical_formula_structural   Cr31Fe17Ni6
_chemical_formula_sum   'Cr31 Fe17 Ni6'
_cell_volume   604.54115342
_cell_formula_units_Z   1
loop_
 _symmetry_equiv_pos_site_id
 _symmetry_equiv_pos_as_xyz
  1  'x, y, z'
loop_
 _atom_site_type_symbol
 _atom_site_label
 _atom_site_symmetry_multiplicity
 _atom_site_fract_x
 _atom_site_fract_y
 _atom_site_fract_z
 _atom_site_occupancy
  Ni  Ni0  1  0.99463453  -0.00384558  0.99555876  1
  Ni  Ni1  1  0.16377951  0.15986624  0.16236204  1
  Cr  Cr2  1  0.99472225  -0.00428895  0.32773112  1
  Cr  Cr3  1  -0.00371264  0.32509175  0.99551258  1
  Cr  Cr4  1  0.16118924  0.49408633  0.16422747  1
  Fe  Fe5  1  -0.00279531  0.32779781  0.32870992  1
  Cr  Cr6  1  0.99393373  0.66607845  -0.00336027  1
  Cr  Cr7  1  0.16443378  0.83267424  0.16061128  1
  Cr  Cr8  1  0.99362710  0.66370916  0.32944964  1
  Ni  Ni9  1  0.32917946  -0.00301074  -0.00238114  1
  Fe  Fe10  1  0.49264659  0.16127682  0.16132676  1
  Fe  Fe11  1  0.32934538  -0.00133383  0.32743199  1
  Cr  Cr12  1  0.33096104  0.32763722  -0.00287957  1
  Cr  Cr13  1  0.49731011  0.49521510  0.16045011  1
  Fe  Fe14  1  0.32844287  0.32710891  0.32940791  1
  Fe  Fe15  1  0.32921186  0.66447796  0.99458724  1
  Cr  Cr16  1  0.49426047  0.83164680  0.16112216  1
  Cr  Cr17  1  0.32948263  0.65875687  0.33124728  1
  Fe  Fe18  1  0.66364841  -0.00330545  0.99474670  1
  Cr  Cr19  1  0.82932183  0.16330224  0.15980452  1
  Cr  Cr20  1  0.66290326  -0.00420046  0.33037986  1
  Fe  Fe21  1  0.66251722  0.32563497  0.99466349  1
  Cr  Cr22  1  0.82827945  0.49428604  0.16276768  1
  Cr  Cr23  1  0.65817962  0.32773718  0.32899584  1
  Cr  Cr24  1  0.66185834  0.66301482  -0.00430520  1
  Fe  Fe25  1  0.82980038  0.83107997  0.16142848  1
  Cr  Cr26  1  0.66390247  0.66344527  0.32940661  1
  Cr  Cr27  1  0.16183266  0.16353381  0.49407934  1
  Cr  Cr28  1  0.99105304  -0.00346208  0.66336277  1
  Cr  Cr29  1  0.15943851  0.16003019  0.83041140  1
  Fe  Fe30  1  0.16314240  0.49484971  0.49517920  1
  Fe  Fe31  1  0.99389911  0.32794152  0.66244722  1
  Cr  Cr32  1  0.16201442  0.49683939  0.82783820  1
  Cr  Cr33  1  0.16332011  0.82943400  0.49507491  1
  Cr  Cr34  1  0.99452388  0.66361037  0.66076668  1
  Cr  Cr35  1  0.16564262  0.83022874  0.83144271  1
  Fe  Fe36  1  0.49739073  0.16367134  0.49580346  1
  Cr  Cr37  1  0.33060491  -0.00265064  0.66154353  1
  Cr  Cr38  1  0.49960595  0.16021054  0.82971619  1
  Ni  Ni39  1  0.49594450  0.49288797  0.49652074  1
  Cr  Cr40  1  0.33063874  0.33032776  0.66045411  1
  Fe  Fe41  1  0.49665125  0.49513920  0.82918036  1
  Cr  Cr42  1  0.49578902  0.83034154  0.49598859  1
  Cr  Cr43  1  0.33083287  0.65926353  0.66418036  1
  Fe  Fe44  1  0.49685130  0.83011426  0.83068456  1
  Fe  Fe45  1  0.82711453  0.16159930  0.49720948  1
  Fe  Fe46  1  0.66396877  -0.00347842  0.66199330  1
  Ni  Ni47  1  0.82599257  0.16121635  0.82781147  1
  Cr  Cr48  1  0.82917533  0.49285860  0.49511250  1
  Fe  Fe49  1  0.66273662  0.32721334  0.66153165  1
  Cr  Cr50  1  0.82705231  0.49103225  0.82889867  1
  Ni  Ni51  1  0.82744497  0.83047229  0.49616720  1
  Cr  Cr52  1  0.66176142  0.66338100  0.66169425  1
  Fe  Fe53  1  0.82798221  0.83292330  0.82937221  1
" 