2994,Ni12Fe57Cr29_15,-223.186023929399, 174.676102999997,Ni12Fe57Cr29,"# generated using pymatgen
 data_Cr17Fe31Ni6
_symmetry_space_group_name_H-M   'P 1'
_cell_length_a   7.47786923
_cell_length_b   7.47786923
_cell_length_c   10.57530408
_cell_angle_alpha   90.00000000
_cell_angle_beta   90.00000000
_cell_angle_gamma   90.00000000
_symmetry_Int_Tables_number   1
_chemical_formula_structural   Cr17Fe31Ni6
_chemical_formula_sum   'Cr17 Fe31 Ni6'
_cell_volume   591.35543925
_cell_formula_units_Z   1
loop_
 _symmetry_equiv_pos_site_id
 _symmetry_equiv_pos_as_xyz
  1  'x, y, z'
loop_
 _atom_site_type_symbol
 _atom_site_label
 _atom_site_symmetry_multiplicity
 _atom_site_fract_x
 _atom_site_fract_y
 _atom_site_fract_z
 _atom_site_occupancy
  Ni  Ni0  1  0.99905016  0.00048175  0.00108661  1
  Fe  Fe1  1  0.16276349  0.16516580  0.16570985  1
  Cr  Cr2  1  0.99718765  0.99826677  0.33136242  1
  Fe  Fe3  1  0.99655507  0.33213279  -0.00032667  1
  Fe  Fe4  1  0.16310754  0.50119858  0.16602922  1
  Fe  Fe5  1  0.99757951  0.33351425  0.33075644  1
  Fe  Fe6  1  -0.00060529  0.66508331  0.00157621  1
  Fe  Fe7  1  0.16598066  0.83225258  0.16568403  1
  Fe  Fe8  1  0.00092927  0.66581150  0.33156353  1
  Fe  Fe9  1  0.32991816  0.99797656  0.00141294  1
  Cr  Cr10  1  0.49766028  0.16645397  0.16779254  1
  Ni  Ni11  1  0.33261364  0.99688462  0.33182241  1
  Cr  Cr12  1  0.32801552  0.33597125  0.99914891  1
  Fe  Fe13  1  0.50150266  0.50223292  0.16592945  1
  Cr  Cr14  1  0.32879082  0.33604985  0.33322775  1
  Fe  Fe15  1  0.33193253  0.66920414  -0.00009134  1
  Fe  Fe16  1  0.49815197  0.82912590  0.16657713  1
  Fe  Fe17  1  0.33109890  0.67059058  0.33319385  1
  Cr  Cr18  1  0.66800874  0.99559246  -0.00016234  1
  Fe  Fe19  1  0.83454999  0.16888595  0.16484999  1
  Cr  Cr20  1  0.66714149  0.99598206  0.33494708  1
  Fe  Fe21  1  0.67010859  0.33315413  -0.00003078  1
  Ni  Ni22  1  0.83236942  0.50013643  0.16521274  1
  Fe  Fe23  1  0.66844021  0.33197145  0.33146774  1
  Fe  Fe24  1  0.66736771  0.66430700  0.00134791  1
  Fe  Fe25  1  0.83393081  0.82948838  0.16447517  1
  Fe  Fe26  1  0.66605765  0.66614182  0.33012886  1
  Cr  Cr27  1  0.16735696  0.16096204  0.49894525  1
  Fe  Fe28  1  0.00040794  0.99813852  0.66511071  1
  Fe  Fe29  1  0.16305552  0.16447601  0.83421242  1
  Fe  Fe30  1  0.16503580  0.50425496  0.49883509  1
  Cr  Cr31  1  0.00072423  0.33304517  0.66862137  1
  Fe  Fe32  1  0.16434984  0.50229083  0.83335261  1
  Ni  Ni33  1  0.16588111  0.83228230  0.49978660  1
  Fe  Fe34  1  0.00187084  0.66597741  0.66424276  1
  Cr  Cr35  1  0.16619287  0.83485340  0.83178638  1
  Fe  Fe36  1  0.49986310  0.16423508  0.49879958  1
  Fe  Fe37  1  0.33312078  0.99659749  0.66380231  1
  Cr  Cr38  1  0.49823808  0.16572286  0.83036326  1
  Cr  Cr39  1  0.50185558  0.49750557  0.49738372  1
  Cr  Cr40  1  0.33054457  0.33631239  0.66540157  1
  Cr  Cr41  1  0.50318754  0.49941146  0.83413530  1
  Fe  Fe42  1  0.49428749  0.83226034  0.49844144  1
  Ni  Ni43  1  0.32993759  0.66715490  0.66489883  1
  Fe  Fe44  1  0.49704016  0.83191843  0.83316708  1
  Fe  Fe45  1  0.83256404  0.16675035  0.49974071  1
  Cr  Cr46  1  0.66794005  0.99851106  0.66267562  1
  Fe  Fe47  1  0.83450035  0.16685082  0.83369443  1
  Cr  Cr48  1  0.83221690  0.49953142  0.49880160  1
  Ni  Ni49  1  0.66821352  0.33053122  0.66605805  1
  Fe  Fe50  1  0.83416737  0.49724880  0.83457792  1
  Fe  Fe51  1  0.83624885  0.83153733  0.49960698  1
  Cr  Cr52  1  0.66461634  0.66861787  0.66721879  1
  Cr  Cr53  1  0.83730228  0.82989204  0.83257483  1
" 