6092,Ni12Fe32Cr54_7,-216.325921125914, 178.047182731609,Ni12Fe32Cr54,"# generated using pymatgen
 data_Cr31Fe17Ni6
_symmetry_space_group_name_H-M   'P 1'
_cell_length_a   7.53758594
_cell_length_b   7.53758594
_cell_length_c   10.65975626
_cell_angle_alpha   90.00000000
_cell_angle_beta   90.00000000
_cell_angle_gamma   90.00000000
_symmetry_Int_Tables_number   1
_chemical_formula_structural   Cr31Fe17Ni6
_chemical_formula_sum   'Cr31 Fe17 Ni6'
_cell_volume   605.63620211
_cell_formula_units_Z   1
loop_
 _symmetry_equiv_pos_site_id
 _symmetry_equiv_pos_as_xyz
  1  'x, y, z'
loop_
 _atom_site_type_symbol
 _atom_site_label
 _atom_site_symmetry_multiplicity
 _atom_site_fract_x
 _atom_site_fract_y
 _atom_site_fract_z
 _atom_site_occupancy
  Cr  Cr0  1  -0.00110577  0.99494271  0.99521899  1
  Cr  Cr1  1  0.16098423  0.16369385  0.16580486  1
  Ni  Ni2  1  -0.00196386  0.99460243  0.32878029  1
  Cr  Cr3  1  0.99360467  0.33113207  0.99444258  1
  Cr  Cr4  1  0.16325559  0.49506106  0.16171318  1
  Fe  Fe5  1  0.99443414  0.32843304  0.33045172  1
  Fe  Fe6  1  0.99381909  0.66120385  0.99475399  1
  Fe  Fe7  1  0.16126248  0.82847221  0.16336457  1
  Cr  Cr8  1  -0.00396503  0.65941609  0.32745886  1
  Cr  Cr9  1  0.32804926  0.99437674  0.99446388  1
  Cr  Cr10  1  0.49553163  0.16497264  0.16192256  1
  Cr  Cr11  1  0.32745637  0.99286033  0.32700814  1
  Cr  Cr12  1  0.32843849  0.32639415  0.99443810  1
  Cr  Cr13  1  0.49502641  0.49505253  0.16343990  1
  Fe  Fe14  1  0.32824090  0.33014173  0.33159410  1
  Cr  Cr15  1  0.32615833  0.66526105  -0.00372348  1
  Cr  Cr16  1  0.49780046  0.82572828  0.16285475  1
  Fe  Fe17  1  0.32990936  0.66035768  0.33109915  1
  Cr  Cr18  1  0.65916330  -0.00290760  0.99211013  1
  Cr  Cr19  1  0.82885684  0.16045782  0.16494198  1
  Cr  Cr20  1  0.66004977  -0.00394064  0.32987630  1
  Cr  Cr21  1  0.66406499  0.33026917  0.99386349  1
  Fe  Fe22  1  0.82722793  0.49493941  0.16240223  1
  Ni  Ni23  1  0.66301686  0.33449605  0.32914593  1
  Fe  Fe24  1  0.66335433  0.66107379  0.99447217  1
  Cr  Cr25  1  0.82971873  0.82772606  0.16183439  1
  Fe  Fe26  1  0.66196784  0.65995132  0.33063215  1
  Fe  Fe27  1  0.16282105  0.16330697  0.49481590  1
  Cr  Cr28  1  -0.00338106  -0.00325119  0.66255507  1
  Ni  Ni29  1  0.16412499  0.16195596  0.82593974  1
  Fe  Fe30  1  0.16489798  0.49328151  0.49553085  1
  Cr  Cr31  1  0.99467372  0.33016642  0.66132404  1
  Cr  Cr32  1  0.16407271  0.49479241  0.82687324  1
  Cr  Cr33  1  0.16098394  0.82739141  0.49609853  1
  Cr  Cr34  1  -0.00412486  0.65898898  0.66333807  1
  Fe  Fe35  1  0.16283964  0.82698008  0.82734123  1
  Cr  Cr36  1  0.49384017  0.16593418  0.49551572  1
  Cr  Cr37  1  0.32949020  0.99410485  0.66493592  1
  Fe  Fe38  1  0.49325668  0.16406759  0.82731763  1
  Fe  Fe39  1  0.49345857  0.49587749  0.49457794  1
  Ni  Ni40  1  0.32782312  0.32986997  0.66017792  1
  Cr  Cr41  1  0.49305096  0.49598604  0.82767143  1
  Fe  Fe42  1  0.49324202  0.82692952  0.49490054  1
  Ni  Ni43  1  0.32959915  0.66077364  0.65930196  1
  Fe  Fe44  1  0.49350192  0.82574373  0.82779401  1
  Cr  Cr45  1  0.83045948  0.16032801  0.49356142  1
  Cr  Cr46  1  0.65959028  -0.00401391  0.66392354  1
  Fe  Fe47  1  0.83116336  0.16407378  0.82855328  1
  Fe  Fe48  1  0.82778083  0.49407342  0.49373522  1
  Cr  Cr49  1  0.66379497  0.32948956  0.66448310  1
  Ni  Ni50  1  0.82794628  0.49832868  0.83069801  1
  Cr  Cr51  1  0.82828954  0.82938881  0.49470568  1
  Cr  Cr52  1  0.66111892  0.66048238  0.65891255  1
  Cr  Cr53  1  0.82865639  0.82811017  0.82838083  1
" 