8284,Ni12Fe57Cr29_13,-223.196624539706, 171.064949801016,Ni12Fe57Cr29,"# generated using pymatgen
 data_Cr17Fe31Ni6
_symmetry_space_group_name_H-M   'P 1'
_cell_length_a   7.48079091
_cell_length_b   7.48079091
_cell_length_c   10.57943596
_cell_angle_alpha   90.00000000
_cell_angle_beta   90.00000000
_cell_angle_gamma   90.00000000
_symmetry_Int_Tables_number   1
_chemical_formula_structural   Cr17Fe31Ni6
_chemical_formula_sum   'Cr17 Fe31 Ni6'
_cell_volume   592.04885554
_cell_formula_units_Z   1
loop_
 _symmetry_equiv_pos_site_id
 _symmetry_equiv_pos_as_xyz
  1  'x, y, z'
loop_
 _atom_site_type_symbol
 _atom_site_label
 _atom_site_symmetry_multiplicity
 _atom_site_fract_x
 _atom_site_fract_y
 _atom_site_fract_z
 _atom_site_occupancy
  Cr  Cr0  1  0.00172303  0.99740158  0.99799103  1
  Fe  Fe1  1  0.16772237  0.16455675  0.16807871  1
  Fe  Fe2  1  -0.00017644  0.99661069  0.33316544  1
  Fe  Fe3  1  0.99823645  0.33347250  -0.00068276  1
  Cr  Cr4  1  0.16490258  0.49903026  0.16468819  1
  Fe  Fe5  1  0.00114299  0.33438303  0.33232549  1
  Fe  Fe6  1  0.00112139  0.66551467  0.99864473  1
  Fe  Fe7  1  0.16745856  0.83165137  0.16833271  1
  Fe  Fe8  1  0.00038958  0.66632698  0.33303744  1
  Cr  Cr9  1  0.33078889  0.99502842  0.00223929  1
  Fe  Fe10  1  0.49720207  0.16591622  0.16594507  1
  Fe  Fe11  1  0.33370616  0.99596216  0.33013894  1
  Fe  Fe12  1  0.33412110  0.33306377  0.00085184  1
  Fe  Fe13  1  0.49913858  0.50106705  0.16668629  1
  Fe  Fe14  1  0.33202710  0.33488524  0.33089650  1
  Fe  Fe15  1  0.33164322  0.66609391  -0.00005939  1
  Ni  Ni16  1  0.49761571  0.83124675  0.16845715  1
  Ni  Ni17  1  0.33170472  0.66880442  0.33193123  1
  Cr  Cr18  1  0.66503624  0.00006738  0.99676748  1
  Cr  Cr19  1  0.83398422  0.16593082  0.16552951  1
  Fe  Fe20  1  0.66343019  0.99513325  0.33260906  1
  Ni  Ni21  1  0.66633132  0.33363588  0.00164337  1
  Fe  Fe22  1  0.83136679  0.50013386  0.16592835  1
  Cr  Cr23  1  0.66630338  0.33367610  0.33019576  1
  Cr  Cr24  1  0.66349754  0.66426879  0.00114228  1
  Cr  Cr25  1  0.83216133  0.82906733  0.16809304  1
  Ni  Ni26  1  0.66336217  0.66702974  0.33192517  1
  Cr  Cr27  1  0.16619745  0.16585127  0.49765384  1
  Fe  Fe28  1  0.99744615  0.99603561  0.66581524  1
  Cr  Cr29  1  0.16611865  0.16717961  0.83183211  1
  Fe  Fe30  1  0.16717539  0.50196788  0.49868758  1
  Fe  Fe31  1  0.00079711  0.33496502  0.66533587  1
  Fe  Fe32  1  0.16655631  0.50125796  0.83232228  1
  Fe  Fe33  1  0.16699323  0.82975212  0.49906116  1
  Fe  Fe34  1  -0.00013455  0.66697933  0.66579065  1
  Fe  Fe35  1  0.16651168  0.82856857  0.83051049  1
  Cr  Cr36  1  0.49719767  0.16186658  0.49933789  1
  Fe  Fe37  1  0.33290820  0.99422532  0.66591804  1
  Cr  Cr38  1  0.49804300  0.16480425  0.83170470  1
  Cr  Cr39  1  0.49672692  0.50279750  0.49949202  1
  Fe  Fe40  1  0.33008912  0.33636034  0.66545980  1
  Cr  Cr41  1  0.49705661  0.50033977  0.83261934  1
  Fe  Fe42  1  0.49873394  0.83062716  0.49813571  1
  Ni  Ni43  1  0.32976705  0.66853275  0.66626419  1
  Fe  Fe44  1  0.49795300  0.83086192  0.83031029  1
  Fe  Fe45  1  0.83352652  0.16304960  0.49834702  1
  Fe  Fe46  1  0.66649291  0.99425039  0.66594675  1
  Fe  Fe47  1  0.83291272  0.16628269  0.83233730  1
  Cr  Cr48  1  0.83446756  0.50391103  0.49644492  1
  Cr  Cr49  1  0.66881873  0.33193042  0.66552618  1
  Cr  Cr50  1  0.83435295  0.50146554  0.83563768  1
  Fe  Fe51  1  0.83099836  0.83395780  0.49851445  1
  Ni  Ni52  1  0.66439630  0.66965016  0.66507737  1
  Fe  Fe53  1  0.83235288  0.83296760  0.82981230  1
" 