6506,Ni12Fe32Cr54_13,-216.550312404975, 179.915360807666,Ni12Fe32Cr54,"# generated using pymatgen
 data_Cr31Fe17Ni6
_symmetry_space_group_name_H-M   'P 1'
_cell_length_a   7.53740766
_cell_length_b   7.53740766
_cell_length_c   10.65950414
_cell_angle_alpha   90.00000000
_cell_angle_beta   90.00000000
_cell_angle_gamma   90.00000000
_symmetry_Int_Tables_number   1
_chemical_formula_structural   Cr31Fe17Ni6
_chemical_formula_sum   'Cr31 Fe17 Ni6'
_cell_volume   605.59323092
_cell_formula_units_Z   1
loop_
 _symmetry_equiv_pos_site_id
 _symmetry_equiv_pos_as_xyz
  1  'x, y, z'
loop_
 _atom_site_type_symbol
 _atom_site_label
 _atom_site_symmetry_multiplicity
 _atom_site_fract_x
 _atom_site_fract_y
 _atom_site_fract_z
 _atom_site_occupancy
  Fe  Fe0  1  -0.00299109  0.99526167  0.99519765  1
  Fe  Fe1  1  0.16034966  0.16208727  0.16194458  1
  Cr  Cr2  1  0.99480197  -0.00383794  0.32843892  1
  Fe  Fe3  1  0.99502531  0.33026138  0.99396284  1
  Cr  Cr4  1  0.15970198  0.49514028  0.16312141  1
  Ni  Ni5  1  0.99504938  0.32961479  0.32802672  1
  Cr  Cr6  1  -0.00339576  0.66184966  0.99052083  1
  Cr  Cr7  1  0.16309117  0.82998386  0.16230126  1
  Ni  Ni8  1  0.99433286  0.66033367  0.33015093  1
  Fe  Fe9  1  0.32695817  0.99325632  -0.00434680  1
  Cr  Cr10  1  0.49333934  0.16036195  0.16029360  1
  Fe  Fe11  1  0.32827612  0.99510733  0.32885188  1
  Cr  Cr12  1  0.32413456  0.32936799  -0.00387246  1
  Cr  Cr13  1  0.49659571  0.49785602  0.16033347  1
  Cr  Cr14  1  0.32728702  0.32696621  0.32843791  1
  Fe  Fe15  1  0.32715978  0.66317208  0.99381332  1
  Fe  Fe16  1  0.49391371  0.82827436  0.16183001  1
  Cr  Cr17  1  0.33016378  0.66271220  0.32895014  1
  Cr  Cr18  1  0.66280259  0.99315637  -0.00370465  1
  Cr  Cr19  1  0.83168909  0.16380626  0.16058203  1
  Cr  Cr20  1  0.65837266  0.99292094  0.32859562  1
  Cr  Cr21  1  0.66248444  0.32868757  0.99184147  1
  Cr  Cr22  1  0.82917169  0.49520018  0.16597970  1
  Cr  Cr23  1  0.66127825  0.32731774  0.33337639  1
  Cr  Cr24  1  0.66369330  0.66413399  -0.00406215  1
  Cr  Cr25  1  0.82909667  0.82687632  0.16351752  1
  Fe  Fe26  1  0.66276091  0.66017729  0.33113148  1
  Cr  Cr27  1  0.16100775  0.15972889  0.49352282  1
  Fe  Fe28  1  -0.00347180  0.99438591  0.66252242  1
  Cr  Cr29  1  0.16134257  0.15899781  0.83027209  1
  Cr  Cr30  1  0.16212054  0.49730622  0.49342785  1
  Cr  Cr31  1  0.99528226  0.33020630  0.66208392  1
  Ni  Ni32  1  0.16118027  0.49776934  0.82924553  1
  Cr  Cr33  1  0.16307077  0.82872645  0.49830065  1
  Cr  Cr34  1  -0.00264035  0.66251173  0.66545350  1
  Fe  Fe35  1  0.16247896  0.82719188  0.82790277  1
  Fe  Fe36  1  0.49508187  0.16204606  0.49639053  1
  Fe  Fe37  1  0.32799678  0.99288277  0.66173100  1
  Cr  Cr38  1  0.49529209  0.16192858  0.82607587  1
  Ni  Ni39  1  0.49849907  0.49617002  0.49727554  1
  Cr  Cr40  1  0.32904804  0.33089384  0.66061076  1
  Cr  Cr41  1  0.49491004  0.49630841  0.82839222  1
  Fe  Fe42  1  0.49327175  0.82643403  0.49667321  1
  Ni  Ni43  1  0.32829938  0.66268437  0.66416989  1
  Cr  Cr44  1  0.49215666  0.82825500  0.82941988  1
  Fe  Fe45  1  0.82875972  0.16483101  0.49541490  1
  Cr  Cr46  1  0.66315270  -0.00300840  0.66023958  1
  Cr  Cr47  1  0.82942781  0.16165235  0.82804628  1
  Fe  Fe48  1  0.82924137  0.49490358  0.49420360  1
  Fe  Fe49  1  0.66277725  0.33179662  0.66012200  1
  Ni  Ni50  1  0.83089096  0.49537537  0.82788161  1
  Cr  Cr51  1  0.83033087  0.82765352  0.49364423  1
  Cr  Cr52  1  0.66289509  0.66228435  0.66150839  1
  Fe  Fe53  1  0.83041524  0.82799914  0.82821624  1
" 