4655,Ni12Fe32Cr54_11,-216.204713790129, 180.902951237838,Ni12Fe32Cr54,"# generated using pymatgen
 data_Cr31Fe17Ni6
_symmetry_space_group_name_H-M   'P 1'
_cell_length_a   7.53000299
_cell_length_b   7.53000299
_cell_length_c   10.64903235
_cell_angle_alpha   90.00000000
_cell_angle_beta   90.00000000
_cell_angle_gamma   90.00000000
_symmetry_Int_Tables_number   1
_chemical_formula_structural   Cr31Fe17Ni6
_chemical_formula_sum   'Cr31 Fe17 Ni6'
_cell_volume   603.81019731
_cell_formula_units_Z   1
loop_
 _symmetry_equiv_pos_site_id
 _symmetry_equiv_pos_as_xyz
  1  'x, y, z'
loop_
 _atom_site_type_symbol
 _atom_site_label
 _atom_site_symmetry_multiplicity
 _atom_site_fract_x
 _atom_site_fract_y
 _atom_site_fract_z
 _atom_site_occupancy
  Fe  Fe0  1  -0.00259563  -0.00414483  -0.00312681  1
  Ni  Ni1  1  0.16408454  0.16016798  0.16048195  1
  Fe  Fe2  1  0.00021067  0.99562552  0.32920022  1
  Ni  Ni3  1  -0.00287001  0.32893112  -0.00397696  1
  Cr  Cr4  1  0.16319646  0.49718060  0.16121706  1
  Cr  Cr5  1  -0.00219235  0.32882908  0.33046932  1
  Ni  Ni6  1  0.99546890  0.65892475  0.99509745  1
  Fe  Fe7  1  0.16207346  0.83116919  0.16285257  1
  Cr  Cr8  1  -0.00260383  0.66185437  0.33300011  1
  Cr  Cr9  1  0.33125627  -0.00222676  -0.00355329  1
  Fe  Fe10  1  0.49419467  0.16371746  0.16290258  1
  Ni  Ni11  1  0.32851397  0.99542659  0.32767517  1
  Fe  Fe12  1  0.32850341  0.32863801  -0.00297873  1
  Fe  Fe13  1  0.49592036  0.49398115  0.16227098  1
  Cr  Cr14  1  0.32681334  0.32730357  0.32705037  1
  Cr  Cr15  1  0.32988487  0.66461214  -0.00184109  1
  Fe  Fe16  1  0.49296909  0.82977760  0.16422239  1
  Fe  Fe17  1  0.32838064  0.66503105  0.32817671  1
  Cr  Cr18  1  0.65913866  -0.00414088  -0.00388719  1
  Cr  Cr19  1  0.83129817  0.16244882  0.16270094  1
  Cr  Cr20  1  0.66030177  -0.00403290  0.32826552  1
  Fe  Fe21  1  0.66236778  0.32924896  -0.00416765  1
  Cr  Cr22  1  0.82781306  0.49569626  0.15987993  1
  Fe  Fe23  1  0.66100274  0.32851106  0.32755152  1
  Cr  Cr24  1  0.66187759  0.66466904  0.99374806  1
  Cr  Cr25  1  0.83293182  0.82933193  0.16239881  1
  Cr  Cr26  1  0.66195344  0.66395780  0.32819936  1
  Cr  Cr27  1  0.16380513  0.15919917  0.49791930  1
  Ni  Ni28  1  0.99544610  0.99543137  0.66044694  1
  Cr  Cr29  1  0.16234111  0.16170970  0.82920051  1
  Fe  Fe30  1  0.16515490  0.49502524  0.49613788  1
  Cr  Cr31  1  -0.00197115  0.32983034  0.66185719  1
  Cr  Cr32  1  0.16352474  0.49567034  0.83062808  1
  Fe  Fe33  1  0.16218509  0.83082722  0.49541000  1
  Cr  Cr34  1  0.99556362  0.66134752  0.66069353  1
  Cr  Cr35  1  0.16150291  0.83017250  0.82987072  1
  Cr  Cr36  1  0.49504955  0.16382602  0.49784468  1
  Fe  Fe37  1  0.32623215  0.99553625  0.66238329  1
  Cr  Cr38  1  0.49420657  0.16441251  0.82550949  1
  Cr  Cr39  1  0.49452402  0.49483293  0.49430916  1
  Ni  Ni40  1  0.32852330  0.32854271  0.66232820  1
  Cr  Cr41  1  0.49597977  0.49459595  0.82893210  1
  Cr  Cr42  1  0.49282417  0.82928929  0.49659648  1
  Cr  Cr43  1  0.32828423  0.66173738  0.66154099  1
  Fe  Fe44  1  0.49353440  0.83002603  0.82859062  1
  Cr  Cr45  1  0.82872144  0.16070822  0.49458393  1
  Cr  Cr46  1  0.66188438  0.99449683  0.66372661  1
  Cr  Cr47  1  0.83048887  0.16295915  0.83021647  1
  Cr  Cr48  1  0.82590838  0.49521667  0.49601766  1
  Fe  Fe49  1  0.66323070  0.32987656  0.66264534  1
  Fe  Fe50  1  0.83085185  0.49399585  0.83131085  1
  Fe  Fe51  1  0.83042445  0.83113881  0.49605525  1
  Cr  Cr52  1  0.66357832  0.66407119  0.66538492  1
  Cr  Cr53  1  0.83257084  0.82929924  0.83029412  1
" 