7849,Ni12Fe32Cr54_16,-216.092685734267, 180.049666427833,Ni12Fe32Cr54,"# generated using pymatgen
 data_Cr31Fe17Ni6
_symmetry_space_group_name_H-M   'P 1'
_cell_length_a   7.53170722
_cell_length_b   7.53170722
_cell_length_c   10.65144250
_cell_angle_alpha   90.00000000
_cell_angle_beta   90.00000000
_cell_angle_gamma   90.00000000
_symmetry_Int_Tables_number   1
_chemical_formula_structural   Cr31Fe17Ni6
_chemical_formula_sum   'Cr31 Fe17 Ni6'
_cell_volume   604.22026392
_cell_formula_units_Z   1
loop_
 _symmetry_equiv_pos_site_id
 _symmetry_equiv_pos_as_xyz
  1  'x, y, z'
loop_
 _atom_site_type_symbol
 _atom_site_label
 _atom_site_symmetry_multiplicity
 _atom_site_fract_x
 _atom_site_fract_y
 _atom_site_fract_z
 _atom_site_occupancy
  Cr  Cr0  1  -0.00239183  -0.00339872  -0.00120679  1
  Ni  Ni1  1  0.16228732  0.16278978  0.16465618  1
  Fe  Fe2  1  0.99315779  0.99532190  0.32997540  1
  Cr  Cr3  1  -0.00417330  0.32931579  0.99334457  1
  Cr  Cr4  1  0.16407607  0.49494992  0.16417586  1
  Cr  Cr5  1  -0.00352852  0.32772418  0.33132968  1
  Fe  Fe6  1  0.99417778  0.66162737  0.99541072  1
  Cr  Cr7  1  0.15979381  0.82954125  0.16277896  1
  Cr  Cr8  1  0.99227353  0.66181321  0.32937151  1
  Cr  Cr9  1  0.32797777  -0.00326223  0.99369981  1
  Cr  Cr10  1  0.49811214  0.16499494  0.16178971  1
  Cr  Cr11  1  0.32916979  -0.00310369  0.32839139  1
  Cr  Cr12  1  0.32771272  0.32663754  -0.00401664  1
  Fe  Fe13  1  0.49651918  0.49403699  0.16155423  1
  Fe  Fe14  1  0.32974310  0.32670849  0.32896060  1
  Cr  Cr15  1  0.32923297  0.66342183  -0.00404521  1
  Cr  Cr16  1  0.49751331  0.82845819  0.16218719  1
  Cr  Cr17  1  0.33100727  0.66339786  0.32956264  1
  Cr  Cr18  1  0.66129026  0.99469259  0.99536244  1
  Cr  Cr19  1  0.82832853  0.16110757  0.16418232  1
  Ni  Ni20  1  0.66310269  0.99508455  0.33251648  1
  Ni  Ni21  1  0.66290495  0.33179027  0.99352201  1
  Cr  Cr22  1  0.82707828  0.49468040  0.15849327  1
  Cr  Cr23  1  0.66469003  0.32969589  0.33165239  1
  Fe  Fe24  1  0.66360582  0.66130024  0.99532042  1
  Fe  Fe25  1  0.82848564  0.83066626  0.16360155  1
  Cr  Cr26  1  0.66413188  0.66440423  0.32886960  1
  Fe  Fe27  1  0.16085564  0.16132231  0.49537342  1
  Fe  Fe28  1  0.99254325  -0.00336871  0.66118544  1
  Fe  Fe29  1  0.16129239  0.16174066  0.82882894  1
  Cr  Cr30  1  0.16316596  0.49649547  0.49653334  1
  Cr  Cr31  1  0.99512751  0.33060610  0.66311668  1
  Fe  Fe32  1  0.16095138  0.49700437  0.82830662  1
  Cr  Cr33  1  0.16123040  0.82959744  0.49811018  1
  Fe  Fe34  1  0.99310769  0.66337939  0.66088502  1
  Cr  Cr35  1  0.16028097  0.82670723  0.82655369  1
  Fe  Fe36  1  0.49799674  0.15947561  0.49579157  1
  Cr  Cr37  1  0.33079935  -0.00394887  0.66423056  1
  Fe  Fe38  1  0.49767914  0.16220523  0.82879681  1
  Cr  Cr39  1  0.49458492  0.49387503  0.49335896  1
  Cr  Cr40  1  0.32757095  0.32675569  0.66332173  1
  Cr  Cr41  1  0.49600453  0.49404504  0.83083792  1
  Fe  Fe42  1  0.49824779  0.83086693  0.49591541  1
  Fe  Fe43  1  0.33020598  0.66118613  0.66216888  1
  Cr  Cr44  1  0.49649589  0.82875905  0.82639429  1
  Fe  Fe45  1  0.82897623  0.16016806  0.49628892  1
  Ni  Ni46  1  0.66274922  0.99450526  0.65915341  1
  Cr  Cr47  1  0.82631133  0.16214559  0.82815146  1
  Ni  Ni48  1  0.82916320  0.49665747  0.49789792  1
  Cr  Cr49  1  0.66387520  0.32816637  0.66163361  1
  Fe  Fe50  1  0.82915739  0.49808990  0.82932685  1
  Ni  Ni51  1  0.82898938  0.83358062  0.49542274  1
  Cr  Cr52  1  0.66421537  0.66378098  0.65921667  1
  Cr  Cr53  1  0.83034857  0.83001036  0.82996400  1
" 