1490,Ni12Fe81Cr6_3,-227.096732634532, 157.7024642071,Ni12Fe81Cr6,"# generated using pymatgen
 data_Cr5Fe43Ni6
_symmetry_space_group_name_H-M   'P 1'
_cell_length_a   7.43025633
_cell_length_b   7.43025633
_cell_length_c   10.50796928
_cell_angle_alpha   90.00000000
_cell_angle_beta   90.00000000
_cell_angle_gamma   90.00000000
_symmetry_Int_Tables_number   1
_chemical_formula_structural   Cr5Fe43Ni6
_chemical_formula_sum   'Cr5 Fe43 Ni6'
_cell_volume   580.13141940
_cell_formula_units_Z   1
loop_
 _symmetry_equiv_pos_site_id
 _symmetry_equiv_pos_as_xyz
  1  'x, y, z'
loop_
 _atom_site_type_symbol
 _atom_site_label
 _atom_site_symmetry_multiplicity
 _atom_site_fract_x
 _atom_site_fract_y
 _atom_site_fract_z
 _atom_site_occupancy
  Fe  Fe0  1  1.00168253  0.00329072  0.00372254  1
  Fe  Fe1  1  0.16913959  0.16855951  0.16960045  1
  Ni  Ni2  1  1.00196237  1.00202332  0.33461207  1
  Fe  Fe3  1  1.00096438  0.33430412  0.00398678  1
  Fe  Fe4  1  0.16914671  0.50092073  0.16933536  1
  Fe  Fe5  1  0.00278374  0.33593683  0.33517823  1
  Cr  Cr6  1  1.00223430  0.66995651  0.00333263  1
  Fe  Fe7  1  0.16920726  0.83794809  0.16954298  1
  Fe  Fe8  1  1.00157723  0.67021488  0.33663270  1
  Fe  Fe9  1  0.33639103  1.00148763  0.00368518  1
  Fe  Fe10  1  0.50212567  0.16893283  0.16937824  1
  Ni  Ni11  1  0.33604958  0.00354106  0.33479907  1
  Fe  Fe12  1  0.33711238  0.33610343  0.00395111  1
  Fe  Fe13  1  0.50332562  0.50175744  0.16821952  1
  Fe  Fe14  1  0.33577313  0.33427551  0.33533021  1
  Fe  Fe15  1  0.33804312  0.66983530  0.00347725  1
  Fe  Fe16  1  0.50289154  0.83673882  0.16851614  1
  Cr  Cr17  1  0.33494968  0.66970388  0.33680193  1
  Fe  Fe18  1  0.66935244  1.00235590  1.00238537  1
  Fe  Fe19  1  0.83616177  0.16899327  0.16926729  1
  Fe  Fe20  1  0.66921445  1.00208077  0.33605200  1
  Fe  Fe21  1  0.66935070  0.33595355  0.00248547  1
  Fe  Fe22  1  0.83495412  0.50168899  0.16971206  1
  Fe  Fe23  1  0.66887259  0.33483115  0.33564948  1
  Fe  Fe24  1  0.66754910  0.66911760  1.00201931  1
  Fe  Fe25  1  0.83532700  0.83674466  0.17065427  1
  Fe  Fe26  1  0.67087690  0.67051417  0.33645211  1
  Cr  Cr27  1  0.16966510  0.17031208  0.50209088  1
  Fe  Fe28  1  1.00007991  0.99960880  0.66851595  1
  Cr  Cr29  1  0.16859277  0.16882514  0.83619529  1
  Ni  Ni30  1  0.16871316  0.50221404  0.50307119  1
  Fe  Fe31  1  1.00002750  0.33797512  0.66826069  1
  Cr  Cr32  1  0.16987055  0.50228902  0.83461433  1
  Fe  Fe33  1  0.16755633  0.83486434  0.50293936  1
  Ni  Ni34  1  1.00173102  0.66976878  0.66734631  1
  Fe  Fe35  1  0.16968276  0.83644279  0.83494071  1
  Fe  Fe36  1  0.50359014  0.16893052  0.50220434  1
  Fe  Fe37  1  0.33740870  0.99997450  0.66880521  1
  Fe  Fe38  1  0.50368574  0.16934951  0.83584300  1
  Fe  Fe39  1  0.50331055  0.50225197  0.50352851  1
  Fe  Fe40  1  0.33780403  0.33794817  0.66814447  1
  Fe  Fe41  1  0.50412275  0.50251029  0.83568385  1
  Fe  Fe42  1  0.50305679  0.83624460  0.50323151  1
  Fe  Fe43  1  0.33622329  0.66950473  0.66805365  1
  Fe  Fe44  1  0.50227551  0.83556586  0.83568233  1
  Fe  Fe45  1  0.83513166  0.16889037  0.50216255  1
  Fe  Fe46  1  0.66993782  1.00117964  0.66898786  1
  Fe  Fe47  1  0.83456044  0.16941156  0.83599512  1
  Fe  Fe48  1  0.83651756  0.50339935  0.50308595  1
  Fe  Fe49  1  0.66959772  0.33678684  0.66929242  1
  Fe  Fe50  1  0.83369032  0.50200635  0.83463153  1
  Ni  Ni51  1  0.83440996  0.83527906  0.50178052  1
  Ni  Ni52  1  0.66996081  0.66833797  0.66983830  1
  Fe  Fe53  1  0.83546999  0.83600977  0.83398622  1
" 