81,Ni12Fe81Cr6_17,-227.239126226989, 157.147733945483,Ni12Fe81Cr6,"# generated using pymatgen
 data_Cr5Fe43Ni6
_symmetry_space_group_name_H-M   'P 1'
_cell_length_a   7.43222842
_cell_length_b   7.43222842
_cell_length_c   10.51075823
_cell_angle_alpha   90.00000000
_cell_angle_beta   90.00000000
_cell_angle_gamma   90.00000000
_symmetry_Int_Tables_number   1
_chemical_formula_structural   Cr5Fe43Ni6
_chemical_formula_sum   'Cr5 Fe43 Ni6'
_cell_volume   580.59346590
_cell_formula_units_Z   1
loop_
 _symmetry_equiv_pos_site_id
 _symmetry_equiv_pos_as_xyz
  1  'x, y, z'
loop_
 _atom_site_type_symbol
 _atom_site_label
 _atom_site_symmetry_multiplicity
 _atom_site_fract_x
 _atom_site_fract_y
 _atom_site_fract_z
 _atom_site_occupancy
  Fe  Fe0  1  1.00131510  0.00339597  0.00304077  1
  Fe  Fe1  1  0.16716525  0.17094930  0.16846021  1
  Fe  Fe2  1  0.99925166  1.00061863  0.33512990  1
  Ni  Ni3  1  0.00254583  0.33567592  1.00056568  1
  Ni  Ni4  1  0.16922300  0.50339722  0.16895105  1
  Fe  Fe5  1  0.00235882  0.33636625  0.33460549  1
  Ni  Ni6  1  0.00308063  0.66955037  1.00209419  1
  Ni  Ni7  1  0.16919736  0.83569615  0.16905661  1
  Fe  Fe8  1  0.00329735  0.67009966  0.33462121  1
  Fe  Fe9  1  0.33556951  0.00372416  0.00447474  1
  Fe  Fe10  1  0.50232098  0.17049318  0.16772673  1
  Cr  Cr11  1  0.33531166  1.00209704  0.33546094  1
  Fe  Fe12  1  0.33462013  0.33710226  0.00286174  1
  Fe  Fe13  1  0.50025891  0.50297538  0.16887678  1
  Fe  Fe14  1  0.33700770  0.33913974  0.33448886  1
  Fe  Fe15  1  0.33533745  0.66668963  0.00395826  1
  Fe  Fe16  1  0.50290825  0.83316281  0.16835700  1
  Fe  Fe17  1  0.33611659  0.66745322  0.33475923  1
  Fe  Fe18  1  0.67049782  0.00291100  0.00258604  1
  Fe  Fe19  1  0.83702770  0.16806421  0.16787092  1
  Fe  Fe20  1  0.67013245  1.00127866  0.33510822  1
  Ni  Ni21  1  0.66775012  0.33499749  1.00175833  1
  Cr  Cr22  1  0.83471348  0.50146654  0.16815967  1
  Fe  Fe23  1  0.66732009  0.33482643  0.33520185  1
  Fe  Fe24  1  0.66932892  0.66821531  1.00210838  1
  Fe  Fe25  1  0.83701496  0.83520742  0.16886143  1
  Ni  Ni26  1  0.66865321  0.66850826  0.33573981  1
  Cr  Cr27  1  0.16927367  0.16989873  0.50279377  1
  Cr  Cr28  1  1.00146127  1.00224773  0.66923718  1
  Fe  Fe29  1  0.17015521  0.17156049  0.83607182  1
  Fe  Fe30  1  0.16880106  0.50372258  0.50142218  1
  Fe  Fe31  1  1.00124007  0.33844043  0.67070442  1
  Fe  Fe32  1  0.16880924  0.50120386  0.83712142  1
  Fe  Fe33  1  0.16883941  0.83218607  0.50232738  1
  Fe  Fe34  1  1.00120525  0.66621148  0.66938597  1
  Cr  Cr35  1  0.17042410  0.83566070  0.83610655  1
  Fe  Fe36  1  0.50505265  0.17021429  0.50323295  1
  Fe  Fe37  1  0.33939674  1.00220487  0.66851818  1
  Fe  Fe38  1  0.50199885  0.16872003  0.83655473  1
  Fe  Fe39  1  0.50277936  0.50206066  0.50213110  1
  Fe  Fe40  1  0.33651893  0.33686889  0.66994806  1
  Fe  Fe41  1  0.50257666  0.50277216  0.83594083  1
  Fe  Fe42  1  0.50346355  0.83447625  0.50265742  1
  Fe  Fe43  1  0.33638643  0.66792179  0.66822419  1
  Fe  Fe44  1  0.50429196  0.83537769  0.83603179  1
  Fe  Fe45  1  0.83333611  0.17035003  0.50143573  1
  Fe  Fe46  1  0.66771383  1.00234097  0.66925880  1
  Fe  Fe47  1  0.83481274  0.17007341  0.83741556  1
  Fe  Fe48  1  0.83550975  0.50201964  0.50102409  1
  Fe  Fe49  1  0.66964972  0.33570171  0.67051035  1
  Fe  Fe50  1  0.83560171  0.50274822  0.83759489  1
  Fe  Fe51  1  0.83471604  0.83438739  0.50109810  1
  Fe  Fe52  1  0.66968470  0.66891076  0.66795135  1
  Fe  Fe53  1  0.83346812  0.83414906  0.83690927  1
" 