7185,Ni12Fe81Cr6_7,-227.29956815776, 148.584099266607,Ni12Fe81Cr6,"# generated using pymatgen
 data_Cr5Fe43Ni6
_symmetry_space_group_name_H-M   'P 1'
_cell_length_a   7.43923986
_cell_length_b   7.43923986
_cell_length_c   10.52067390
_cell_angle_alpha   90.00000000
_cell_angle_beta   90.00000000
_cell_angle_gamma   90.00000000
_symmetry_Int_Tables_number   1
_chemical_formula_structural   Cr5Fe43Ni6
_chemical_formula_sum   'Cr5 Fe43 Ni6'
_cell_volume   582.23818280
_cell_formula_units_Z   1
loop_
 _symmetry_equiv_pos_site_id
 _symmetry_equiv_pos_as_xyz
  1  'x, y, z'
loop_
 _atom_site_type_symbol
 _atom_site_label
 _atom_site_symmetry_multiplicity
 _atom_site_fract_x
 _atom_site_fract_y
 _atom_site_fract_z
 _atom_site_occupancy
  Fe  Fe0  1  0.00210878  0.00250057  1.00134982  1
  Fe  Fe1  1  0.16907183  0.16805854  0.16855295  1
  Fe  Fe2  1  1.00056312  0.00258818  0.33540892  1
  Fe  Fe3  1  0.00211330  0.33398894  1.00133240  1
  Cr  Cr4  1  0.16978999  0.50091379  0.16731967  1
  Fe  Fe5  1  1.00092042  0.33419553  0.33575048  1
  Fe  Fe6  1  1.00007668  0.66912077  1.00023130  1
  Cr  Cr7  1  0.16786464  0.83647431  0.16873076  1
  Fe  Fe8  1  1.00019782  0.66882589  0.33651401  1
  Fe  Fe9  1  0.33491328  0.00249231  1.00127256  1
  Ni  Ni10  1  0.50197773  0.16959524  0.17007184  1
  Fe  Fe11  1  0.33646076  0.00258444  0.33545617  1
  Fe  Fe12  1  0.33454453  0.33359884  0.00242530  1
  Ni  Ni13  1  0.50249223  0.50180800  0.16989759  1
  Fe  Fe14  1  0.33644867  0.33454109  0.33540442  1
  Fe  Fe15  1  0.33656984  0.66951716  1.00132412  1
  Ni  Ni16  1  0.50340587  0.83420199  0.16863723  1
  Fe  Fe17  1  0.33717021  0.66848185  0.33616190  1
  Cr  Cr18  1  0.66780099  1.00039900  0.00268004  1
  Ni  Ni19  1  0.83579252  0.16787614  0.17059155  1
  Fe  Fe20  1  0.66858699  1.00186456  0.33382317  1
  Cr  Cr21  1  0.66907424  0.33547771  0.00419774  1
  Fe  Fe22  1  0.83301906  0.50281290  0.16922843  1
  Fe  Fe23  1  0.66824586  0.33491128  0.33418476  1
  Fe  Fe24  1  0.66895957  0.66947936  0.00346667  1
  Ni  Ni25  1  0.83434519  0.83593785  0.16915822  1
  Fe  Fe26  1  0.66824322  0.66883371  0.33433973  1
  Fe  Fe27  1  0.16853591  0.16859123  0.50187443  1
  Fe  Fe28  1  0.00214442  1.00156801  0.66885779  1
  Fe  Fe29  1  0.16874422  0.16814190  0.83518075  1
  Fe  Fe30  1  0.16849923  0.50183090  0.50165491  1
  Fe  Fe31  1  1.00179222  0.33522643  0.66852129  1
  Fe  Fe32  1  0.16703910  0.50247480  0.83540577  1
  Fe  Fe33  1  0.16853567  0.83518498  0.50228368  1
  Fe  Fe34  1  0.00217299  0.66881443  0.66885527  1
  Ni  Ni35  1  0.16765601  0.83558122  0.83457463  1
  Fe  Fe36  1  0.50181555  0.16855465  0.50153372  1
  Fe  Fe37  1  0.33494594  1.00156409  0.66888076  1
  Fe  Fe38  1  0.49983981  0.16656388  0.83412265  1
  Fe  Fe39  1  0.50185257  0.50186764  0.50163529  1
  Fe  Fe40  1  0.33455766  0.33448240  0.66777475  1
  Cr  Cr41  1  0.50143850  0.50192544  0.83489122  1
  Fe  Fe42  1  0.50185240  0.83518459  0.50144930  1
  Fe  Fe43  1  0.33417648  0.66955975  0.66811513  1
  Fe  Fe44  1  0.50047890  0.83591632  0.83488230  1
  Fe  Fe45  1  0.83525566  0.16859148  0.50144947  1
  Fe  Fe46  1  0.66851267  0.00194665  0.66873112  1
  Fe  Fe47  1  0.83702352  0.16826511  0.83418405  1
  Fe  Fe48  1  0.83525541  0.50186779  0.50204403  1
  Fe  Fe49  1  0.66925859  0.33445442  0.66804530  1
  Fe  Fe50  1  0.83794491  0.50311982  0.83435367  1
  Fe  Fe51  1  0.83521860  0.83514795  0.50136472  1
  Fe  Fe52  1  0.66925519  0.66920347  0.66780118  1
  Fe  Fe53  1  0.83636606  0.83421626  0.83494661  1
" 