7639,Ni12Fe88_0,-242.09249041607, 196.168080313205,Ni12Fe88,"# generated using pymatgen
 data_FeNi8
_symmetry_space_group_name_H-M   'P 1'
_cell_length_a   7.43731950
_cell_length_b   7.43731950
_cell_length_c   10.51795811
_cell_angle_alpha   90.00000000
_cell_angle_beta   90.00000000
_cell_angle_gamma   90.00000000
_symmetry_Int_Tables_number   1
_chemical_formula_structural   FeNi8
_chemical_formula_sum   'Fe6 Ni48'
_cell_volume   581.78740414
_cell_formula_units_Z   6
loop_
 _symmetry_equiv_pos_site_id
 _symmetry_equiv_pos_as_xyz
  1  'x, y, z'
loop_
 _atom_site_type_symbol
 _atom_site_label
 _atom_site_symmetry_multiplicity
 _atom_site_fract_x
 _atom_site_fract_y
 _atom_site_fract_z
 _atom_site_occupancy
  Fe  Fe0  1  0.00243703  0.00222196  0.00299602  1
  Ni  Ni1  1  0.16857733  0.16773982  0.16849757  1
  Ni  Ni2  1  1.00173147  1.00100302  0.33544326  1
  Ni  Ni3  1  1.00183451  0.33628297  0.00295013  1
  Fe  Fe4  1  0.16919447  0.50222802  0.16850246  1
  Fe  Fe5  1  1.00192853  0.33488017  0.33564376  1
  Ni  Ni6  1  0.00212511  0.66812152  1.00194440  1
  Ni  Ni7  1  0.16888648  0.83603089  0.16951308  1
  Ni  Ni8  1  1.00166364  0.66928309  0.33527053  1
  Ni  Ni9  1  0.33590732  0.00212093  0.00238781  1
  Ni  Ni10  1  0.50148664  0.16887784  0.16866736  1
  Ni  Ni11  1  0.33508815  0.00278977  0.33545144  1
  Ni  Ni12  1  0.33486103  0.33445541  1.00126720  1
  Ni  Ni13  1  0.50289740  0.50255484  0.16822479  1
  Ni  Ni14  1  0.33574564  0.33473116  0.33524859  1
  Ni  Ni15  1  0.33417731  0.66941319  0.00212780  1
  Ni  Ni16  1  0.50149873  0.83457707  0.16908784  1
  Ni  Ni17  1  0.33444368  0.66843396  0.33531460  1
  Ni  Ni18  1  0.66804210  0.00248740  0.00269871  1
  Ni  Ni19  1  0.83602113  0.16910770  0.16928972  1
  Ni  Ni20  1  0.66915862  0.00240020  0.33489792  1
  Ni  Ni21  1  0.66931686  0.33450751  1.00160546  1
  Ni  Ni22  1  0.83465921  0.50213776  0.16926487  1
  Ni  Ni23  1  0.66818070  0.33478697  0.33576496  1
  Ni  Ni24  1  0.66967766  0.66903742  1.00185104  1
  Ni  Ni25  1  0.83570504  0.83475225  0.16792344  1
  Ni  Ni26  1  0.66982709  0.66880797  0.33532857  1
  Ni  Ni27  1  0.16860744  0.16902792  0.50226429  1
  Fe  Fe28  1  1.00192499  0.00264893  0.66781318  1
  Ni  Ni29  1  0.16772334  0.16805834  0.83536045  1
  Ni  Ni30  1  0.16866834  0.50144354  0.50148486  1
  Ni  Ni31  1  0.00215407  0.33645243  0.66791670  1
  Ni  Ni32  1  0.16801465  0.50226724  0.83608837  1
  Fe  Fe33  1  0.16883764  0.83497719  0.50159652  1
  Ni  Ni34  1  0.00221072  0.66766884  0.66865261  1
  Ni  Ni35  1  0.16927337  0.83571679  0.83452975  1
  Ni  Ni36  1  0.50148744  0.16829879  0.50199456  1
  Ni  Ni37  1  0.33613172  0.00227367  0.66808723  1
  Ni  Ni38  1  0.50203463  0.16798750  0.83533090  1
  Ni  Ni39  1  0.50181051  0.50282897  0.50283111  1
  Ni  Ni40  1  0.33448064  0.33471864  0.66952135  1
  Ni  Ni41  1  0.50236854  0.50298660  0.83492002  1
  Ni  Ni42  1  0.50242924  0.83486369  0.50115903  1
  Ni  Ni43  1  0.33413029  0.66900114  0.66850300  1
  Ni  Ni44  1  0.50093082  0.83500722  0.83574466  1
  Ni  Ni45  1  0.83594359  0.16842544  0.50146966  1
  Ni  Ni46  1  0.66789435  0.00244520  0.66830137  1
  Ni  Ni47  1  0.83626416  0.16944842  0.83540693  1
  Ni  Ni48  1  0.83550479  0.50249983  0.50187174  1
  Ni  Ni49  1  0.66933506  0.33435091  0.66863722  1
  Ni  Ni50  1  0.83560224  0.50131062  0.83492840  1
  Ni  Ni51  1  0.83469067  0.83505277  0.50237732  1
  Ni  Ni52  1  0.66957232  0.66922681  0.66870088  1
  Fe  Fe53  1  0.83482467  0.83516492  0.83526776  1
" 