2482,Ni12Fe54Cr33_3,-222.315204736607, 177.915699257773,Ni12Fe54Cr33,"# generated using pymatgen
 data_Cr19Fe29Ni6
_symmetry_space_group_name_H-M   'P 1'
_cell_length_a   7.48511152
_cell_length_b   7.48511152
_cell_length_c   10.58554622
_cell_angle_alpha   90.00000000
_cell_angle_beta   90.00000000
_cell_angle_gamma   90.00000000
_symmetry_Int_Tables_number   1
_chemical_formula_structural   Cr19Fe29Ni6
_chemical_formula_sum   'Cr19 Fe29 Ni6'
_cell_volume   593.07528075
_cell_formula_units_Z   1
loop_
 _symmetry_equiv_pos_site_id
 _symmetry_equiv_pos_as_xyz
  1  'x, y, z'
loop_
 _atom_site_type_symbol
 _atom_site_label
 _atom_site_symmetry_multiplicity
 _atom_site_fract_x
 _atom_site_fract_y
 _atom_site_fract_z
 _atom_site_occupancy
  Fe  Fe0  1  0.99830153  0.99717641  0.00027438  1
  Fe  Fe1  1  0.16303221  0.16220232  0.16459747  1
  Fe  Fe2  1  0.99752516  0.99662153  0.33015049  1
  Fe  Fe3  1  -0.00105285  0.33186505  0.00009095  1
  Fe  Fe4  1  0.16383432  0.49788508  0.16398722  1
  Cr  Cr5  1  0.00185652  0.33041952  0.33187972  1
  Cr  Cr6  1  0.99650850  0.66565005  0.00201611  1
  Fe  Fe7  1  0.16497459  0.83554291  0.16507809  1
  Fe  Fe8  1  0.99740923  0.66557260  0.32933311  1
  Ni  Ni9  1  0.33009573  0.99824433  -0.00064731  1
  Cr  Cr10  1  0.50041580  0.16568213  0.16712732  1
  Fe  Fe11  1  0.33089674  0.99866767  0.32944161  1
  Cr  Cr12  1  0.33165204  0.33196078  -0.00030775  1
  Fe  Fe13  1  0.50257894  0.49979993  0.16575761  1
  Fe  Fe14  1  0.33360537  0.33333984  0.33086338  1
  Fe  Fe15  1  0.33178459  0.66805225  0.00015813  1
  Fe  Fe16  1  0.50032802  0.83295641  0.16613603  1
  Cr  Cr17  1  0.33375850  0.66441269  0.32723488  1
  Cr  Cr18  1  0.66485419  0.99582782  0.99867703  1
  Ni  Ni19  1  0.83260062  0.16511912  0.16460439  1
  Fe  Fe20  1  0.66764624  0.99674358  0.32903744  1
  Fe  Fe21  1  0.66643800  0.33263074  -0.00012553  1
  Fe  Fe22  1  0.83064785  0.49768095  0.16795358  1
  Fe  Fe23  1  0.66616793  0.33560923  0.32989408  1
  Cr  Cr24  1  0.66639903  0.66513986  0.00014174  1
  Ni  Ni25  1  0.83403437  0.83254577  0.17015199  1
  Ni  Ni26  1  0.66640570  0.66799777  0.33128963  1
  Fe  Fe27  1  0.16643772  0.16300695  0.49571598  1
  Cr  Cr28  1  0.99848185  0.99815779  0.66494959  1
  Fe  Fe29  1  0.16516799  0.16521635  0.83556855  1
  Fe  Fe30  1  0.16838745  0.49807107  0.49729379  1
  Cr  Cr31  1  0.00223561  0.33224751  0.66662445  1
  Ni  Ni32  1  0.16820949  0.50087699  0.83259685  1
  Cr  Cr33  1  0.16484957  0.82885716  0.49680915  1
  Cr  Cr34  1  0.99697560  0.66554678  0.66348035  1
  Fe  Fe35  1  0.16406788  0.83136534  0.83464377  1
  Cr  Cr36  1  0.50045332  0.16546780  0.49485686  1
  Cr  Cr37  1  0.33211639  -0.00009554  0.66838803  1
  Fe  Fe38  1  0.49647702  0.16508714  0.83478255  1
  Fe  Fe39  1  0.49981072  0.50067610  0.49644839  1
  Cr  Cr40  1  0.33155197  0.33212545  0.66124006  1
  Fe  Fe41  1  0.49841020  0.50108073  0.83328886  1
  Cr  Cr42  1  0.49879349  0.83248999  0.49944963  1
  Fe  Fe43  1  0.33216453  0.66404958  0.66710035  1
  Fe  Fe44  1  0.49695745  0.83046901  0.83280807  1
  Cr  Cr45  1  0.83032381  0.16376368  0.49793310  1
  Fe  Fe46  1  0.66524854  0.99766639  0.66802300  1
  Cr  Cr47  1  0.83089343  0.16592371  0.83580153  1
  Cr  Cr48  1  0.83234367  0.50024087  0.49860582  1
  Cr  Cr49  1  0.66340076  0.33398375  0.66850048  1
  Fe  Fe50  1  0.83404744  0.50128308  0.83324344  1
  Fe  Fe51  1  0.82989219  0.83231122  0.49629961  1
  Fe  Fe52  1  0.66313371  0.66746006  0.66681376  1
  Ni  Ni53  1  0.83130993  0.83216528  0.82877876  1
" 