3434,Ni12Fe54Cr33_6,-222.226445537003, 168.878878947693,Ni12Fe54Cr33,"# generated using pymatgen
 data_Cr19Fe29Ni6
_symmetry_space_group_name_H-M   'P 1'
_cell_length_a   7.49056368
_cell_length_b   7.49056368
_cell_length_c   10.59325675
_cell_angle_alpha   90.00000000
_cell_angle_beta   90.00000000
_cell_angle_gamma   90.00000000
_symmetry_Int_Tables_number   1
_chemical_formula_structural   Cr19Fe29Ni6
_chemical_formula_sum   'Cr19 Fe29 Ni6'
_cell_volume   594.37221480
_cell_formula_units_Z   1
loop_
 _symmetry_equiv_pos_site_id
 _symmetry_equiv_pos_as_xyz
  1  'x, y, z'
loop_
 _atom_site_type_symbol
 _atom_site_label
 _atom_site_symmetry_multiplicity
 _atom_site_fract_x
 _atom_site_fract_y
 _atom_site_fract_z
 _atom_site_occupancy
  Fe  Fe0  1  0.99705240  0.99377486  -0.00113131  1
  Cr  Cr1  1  0.16439997  0.16236364  0.16064867  1
  Cr  Cr2  1  0.99747491  0.99714638  0.33424432  1
  Fe  Fe3  1  0.99586340  0.33235392  -0.00133317  1
  Fe  Fe4  1  0.16530773  0.49817922  0.16365806  1
  Cr  Cr5  1  -0.00128405  0.33109109  0.33086399  1
  Cr  Cr6  1  -0.00032668  0.66301998  0.99675598  1
  Fe  Fe7  1  0.16740235  0.83129310  0.16345057  1
  Cr  Cr8  1  0.00097770  0.66654083  0.32918432  1
  Fe  Fe9  1  0.33079631  0.99222272  0.99687920  1
  Cr  Cr10  1  0.49701906  0.16651310  0.16077383  1
  Fe  Fe11  1  0.33164028  0.99662580  0.33358900  1
  Fe  Fe12  1  0.33186248  0.33842277  0.99642656  1
  Cr  Cr13  1  0.49790082  0.50314968  0.16626071  1
  Cr  Cr14  1  0.33168367  0.32868715  0.33449661  1
  Fe  Fe15  1  0.33538698  0.66619743  0.99559792  1
  Fe  Fe16  1  0.49836570  0.83301259  0.16408384  1
  Fe  Fe17  1  0.33246830  0.67016559  0.33189623  1
  Cr  Cr18  1  0.66375156  0.99664820  -0.00040178  1
  Ni  Ni19  1  0.83428300  0.16176753  0.16219296  1
  Cr  Cr20  1  0.66219947  -0.00035006  0.33203434  1
  Fe  Fe21  1  0.66637867  0.33653696  0.99798998  1
  Fe  Fe22  1  0.83093908  0.49739215  0.16247849  1
  Cr  Cr23  1  0.66503991  0.32769971  0.33082323  1
  Ni  Ni24  1  0.66509183  0.66583950  0.99570237  1
  Ni  Ni25  1  0.83362461  0.83097082  0.16316224  1
  Cr  Cr26  1  0.66746319  0.66995261  0.33048945  1
  Fe  Fe27  1  0.16686732  0.16296066  0.50244170  1
  Fe  Fe28  1  0.99834303  0.99755775  0.66386042  1
  Cr  Cr29  1  0.16358626  0.16221771  0.83385368  1
  Cr  Cr30  1  0.16606531  0.50026955  0.49850794  1
  Fe  Fe31  1  -0.00124505  0.33032239  0.66523404  1
  Fe  Fe32  1  0.16784210  0.49603624  0.83083831  1
  Fe  Fe33  1  0.16836519  0.83323998  0.50053511  1
  Cr  Cr34  1  -0.00136252  0.66573812  0.66836245  1
  Fe  Fe35  1  0.16783834  0.83062428  0.83159274  1
  Ni  Ni36  1  0.49711819  0.16186205  0.50279027  1
  Fe  Fe37  1  0.33212366  0.99678961  0.66565520  1
  Cr  Cr38  1  0.49740080  0.16753043  0.83408599  1
  Cr  Cr39  1  0.49924637  0.50129649  0.49897341  1
  Fe  Fe40  1  0.33215900  0.33235061  0.66586306  1
  Ni  Ni41  1  0.49862458  0.50255207  0.82973459  1
  Ni  Ni42  1  0.49678317  0.83460094  0.49969686  1
  Fe  Fe43  1  0.33350058  0.66736184  0.66674942  1
  Fe  Fe44  1  0.49853929  0.83158266  0.83010727  1
  Fe  Fe45  1  0.82903665  0.16421293  0.50194758  1
  Fe  Fe46  1  0.66388537  0.99689224  0.66485997  1
  Cr  Cr47  1  0.83308687  0.16227776  0.83237966  1
  Cr  Cr48  1  0.83099062  0.49972981  0.49919896  1
  Fe  Fe49  1  0.66383226  0.33181663  0.66589921  1
  Fe  Fe50  1  0.82832502  0.49676231  0.83070375  1
  Fe  Fe51  1  0.82884831  0.83322440  0.50103338  1
  Fe  Fe52  1  0.66320148  0.66803367  0.66736013  1
  Fe  Fe53  1  0.82947063  0.83017510  0.83215376  1
" 