4512,Ni12Fe57Cr29_16,-223.4021929138, 172.93171481376,Ni12Fe57Cr29,"# generated using pymatgen
 data_Cr17Fe31Ni6
_symmetry_space_group_name_H-M   'P 1'
_cell_length_a   7.48210352
_cell_length_b   7.48210352
_cell_length_c   10.58129228
_cell_angle_alpha   90.00000000
_cell_angle_beta   90.00000000
_cell_angle_gamma   90.00000000
_symmetry_Int_Tables_number   1
_chemical_formula_structural   Cr17Fe31Ni6
_chemical_formula_sum   'Cr17 Fe31 Ni6'
_cell_volume   592.36056209
_cell_formula_units_Z   1
loop_
 _symmetry_equiv_pos_site_id
 _symmetry_equiv_pos_as_xyz
  1  'x, y, z'
loop_
 _atom_site_type_symbol
 _atom_site_label
 _atom_site_symmetry_multiplicity
 _atom_site_fract_x
 _atom_site_fract_y
 _atom_site_fract_z
 _atom_site_occupancy
  Ni  Ni0  1  0.00177369  0.99645921  -0.00004870  1
  Ni  Ni1  1  0.16749953  0.16354716  0.16381730  1
  Cr  Cr2  1  0.00153555  0.99747368  0.33242257  1
  Ni  Ni3  1  0.00030971  0.33331513  0.99856380  1
  Cr  Cr4  1  0.16571557  0.49646177  0.16562992  1
  Fe  Fe5  1  -0.00000099  0.33168654  0.33165873  1
  Fe  Fe6  1  0.99837989  0.66671902  0.99733590  1
  Fe  Fe7  1  0.16602186  0.83417419  0.16416217  1
  Fe  Fe8  1  0.99739481  0.66755736  0.33434739  1
  Fe  Fe9  1  0.33100811  0.99885534  0.00010949  1
  Fe  Fe10  1  0.49594640  0.16482901  0.16723091  1
  Ni  Ni11  1  0.33428805  -0.00019198  0.33012539  1
  Fe  Fe12  1  0.33049875  0.33021041  0.99893575  1
  Cr  Cr13  1  0.49864596  0.50227928  0.16555083  1
  Fe  Fe14  1  0.33279686  0.32745402  0.33093065  1
  Fe  Fe15  1  0.33167748  0.66750320  0.99718551  1
  Fe  Fe16  1  0.49783565  0.83473909  0.16521665  1
  Cr  Cr17  1  0.33152037  0.66961663  0.33466840  1
  Cr  Cr18  1  0.66443879  0.99834852  0.99873529  1
  Cr  Cr19  1  0.83573243  0.16380286  0.16581040  1
  Fe  Fe20  1  0.66290260  0.99746220  0.33307290  1
  Cr  Cr21  1  0.66384522  0.33408132  0.99727968  1
  Cr  Cr22  1  0.83217056  0.50204270  0.16785256  1
  Fe  Fe23  1  0.66460994  0.32970103  0.33336766  1
  Fe  Fe24  1  0.66706477  0.66750209  0.99665248  1
  Fe  Fe25  1  0.83362187  0.83162110  0.16589064  1
  Fe  Fe26  1  0.66729956  0.67007088  0.33385576  1
  Cr  Cr27  1  0.16553708  0.16685767  0.49843845  1
  Cr  Cr28  1  0.99856045  0.99669444  0.66439465  1
  Cr  Cr29  1  0.16421845  0.16680041  0.83472521  1
  Cr  Cr30  1  0.16606741  0.49774489  0.49919122  1
  Fe  Fe31  1  0.99748299  0.33416609  0.66645106  1
  Fe  Fe32  1  0.16679907  0.50050544  0.83360483  1
  Fe  Fe33  1  0.16589916  0.83239814  0.49790163  1
  Cr  Cr34  1  0.00016711  0.66601374  0.66496889  1
  Fe  Fe35  1  0.16707195  0.83130811  0.83493921  1
  Fe  Fe36  1  0.50134683  0.16390174  0.49756260  1
  Cr  Cr37  1  0.33379013  0.99707593  0.66465484  1
  Fe  Fe38  1  0.49812927  0.16446173  0.83110897  1
  Cr  Cr39  1  0.49855609  0.49989758  0.49908288  1
  Fe  Fe40  1  0.33367322  0.33379480  0.66758030  1
  Fe  Fe41  1  0.49659318  0.49921931  0.83233799  1
  Fe  Fe42  1  0.50005230  0.83542856  0.49871903  1
  Fe  Fe43  1  0.33230849  0.66602502  0.66773177  1
  Ni  Ni44  1  0.49870504  0.82917452  0.83252054  1
  Fe  Fe45  1  0.82910707  0.16672554  0.49896402  1
  Fe  Fe46  1  0.66498774  0.99784683  0.66515847  1
  Cr  Cr47  1  0.83405337  0.16387185  0.83006189  1
  Fe  Fe48  1  0.83231033  0.49838224  0.49689897  1
  Fe  Fe49  1  0.66556018  0.33045971  0.66576961  1
  Fe  Fe50  1  0.83364759  0.49988564  0.83392484  1
  Ni  Ni51  1  0.82835442  0.83368878  0.49771196  1
  Cr  Cr52  1  0.66568246  0.66450096  0.66730137  1
  Fe  Fe53  1  0.83247470  0.83151763  0.83360385  1
" 