5381,Ni12Fe32Cr54_15,-216.065290782811, 175.566172466946,Ni12Fe32Cr54,"# generated using pymatgen
 data_Cr31Fe17Ni6
_symmetry_space_group_name_H-M   'P 1'
_cell_length_a   7.53561601
_cell_length_b   7.53561601
_cell_length_c   10.65697036
_cell_angle_alpha   90.00000000
_cell_angle_beta   90.00000000
_cell_angle_gamma   90.00000000
_symmetry_Int_Tables_number   1
_chemical_formula_structural   Cr31Fe17Ni6
_chemical_formula_sum   'Cr31 Fe17 Ni6'
_cell_volume   605.16148241
_cell_formula_units_Z   1
loop_
 _symmetry_equiv_pos_site_id
 _symmetry_equiv_pos_as_xyz
  1  'x, y, z'
loop_
 _atom_site_type_symbol
 _atom_site_label
 _atom_site_symmetry_multiplicity
 _atom_site_fract_x
 _atom_site_fract_y
 _atom_site_fract_z
 _atom_site_occupancy
  Ni  Ni0  1  -0.00390821  -0.00252969  -0.00433534  1
  Fe  Fe1  1  0.15884955  0.16308314  0.16107647  1
  Cr  Cr2  1  -0.00435341  -0.00194645  0.32511471  1
  Cr  Cr3  1  0.99322518  0.32607997  -0.00401139  1
  Fe  Fe4  1  0.16333396  0.49082541  0.16219545  1
  Fe  Fe5  1  0.99369271  0.32873398  0.32660997  1
  Cr  Cr6  1  -0.00176682  0.66307633  -0.00316513  1
  Fe  Fe7  1  0.16064027  0.83055945  0.16096917  1
  Cr  Cr8  1  -0.00079531  0.66023558  0.32934826  1
  Cr  Cr9  1  0.32865585  0.99333463  -0.00334066  1
  Cr  Cr10  1  0.49269887  0.16493530  0.16296298  1
  Cr  Cr11  1  0.32717900  0.99387541  0.32664703  1
  Fe  Fe12  1  0.32888328  0.32846068  -0.00193675  1
  Fe  Fe13  1  0.49822638  0.49351009  0.16095703  1
  Fe  Fe14  1  0.32868967  0.33063364  0.32765994  1
  Cr  Cr15  1  0.32992709  0.66268474  -0.00122596  1
  Fe  Fe16  1  0.49771507  0.82827448  0.16101450  1
  Cr  Cr17  1  0.32857465  0.66169674  0.32612982  1
  Fe  Fe18  1  0.66387137  -0.00365629  -0.00311312  1
  Ni  Ni19  1  0.82779358  0.16412648  0.15927994  1
  Cr  Cr20  1  0.66210995  -0.00032774  0.32469476  1
  Ni  Ni21  1  0.66124046  0.32749275  -0.00424902  1
  Cr  Cr22  1  0.82829814  0.49672779  0.16146719  1
  Ni  Ni23  1  0.66284209  0.33034501  0.32926562  1
  Ni  Ni24  1  0.65874410  0.66138767  -0.00292088  1
  Cr  Cr25  1  0.82841986  0.82905429  0.16051651  1
  Cr  Cr26  1  0.66072546  0.66007540  0.33010709  1
  Cr  Cr27  1  0.16379242  0.16245230  0.49490362  1
  Fe  Fe28  1  -0.00397766  0.99406914  0.66358372  1
  Cr  Cr29  1  0.16310777  0.16086310  0.82869125  1
  Fe  Fe30  1  0.16254960  0.49421705  0.49402457  1
  Cr  Cr31  1  0.99261759  0.32740149  0.66309960  1
  Cr  Cr32  1  0.16346192  0.49456243  0.83147034  1
  Fe  Fe33  1  0.16186783  0.82945670  0.49534992  1
  Cr  Cr34  1  -0.00213989  0.66056863  0.66028911  1
  Fe  Fe35  1  0.16229943  0.82973798  0.82959457  1
  Cr  Cr36  1  0.49275111  0.16361467  0.49441968  1
  Fe  Fe37  1  0.32706554  0.99471829  0.66286159  1
  Cr  Cr38  1  0.49319751  0.16178500  0.82935913  1
  Fe  Fe39  1  0.49645541  0.49437716  0.49346908  1
  Cr  Cr40  1  0.32938721  0.33089699  0.66177003  1
  Cr  Cr41  1  0.49579146  0.49450980  0.83305479  1
  Cr  Cr42  1  0.49515907  0.83124241  0.49550159  1
  Cr  Cr43  1  0.32815600  0.66494608  0.66218688  1
  Fe  Fe44  1  0.49591646  0.82757994  0.83043927  1
  Cr  Cr45  1  0.82928686  0.16155762  0.49375967  1
  Cr  Cr46  1  0.66212181  -0.00258499  0.66463794  1
  Fe  Fe47  1  0.82787415  0.16197837  0.83248607  1
  Ni  Ni48  1  0.83158255  0.49316624  0.49266083  1
  Cr  Cr49  1  0.66433833  0.32858634  0.66157376  1
  Cr  Cr50  1  0.82746852  0.49863971  0.83162030  1
  Cr  Cr51  1  0.83021941  0.82626316  0.49391503  1
  Cr  Cr52  1  0.66151168  0.66000427  0.65999541  1
  Cr  Cr53  1  0.82894554  0.82896174  0.83188450  1
" 