1256,Ni12Fe57Cr29_12,-223.004063514771, 161.682833865776,Ni12Fe57Cr29,"# generated using pymatgen
 data_Cr17Fe31Ni6
_symmetry_space_group_name_H-M   'P 1'
_cell_length_a   7.48756737
_cell_length_b   7.48756737
_cell_length_c   10.58901933
_cell_angle_alpha   90.00000000
_cell_angle_beta   90.00000000
_cell_angle_gamma   90.00000000
_symmetry_Int_Tables_number   1
_chemical_formula_structural   Cr17Fe31Ni6
_chemical_formula_sum   'Cr17 Fe31 Ni6'
_cell_volume   593.65923420
_cell_formula_units_Z   1
loop_
 _symmetry_equiv_pos_site_id
 _symmetry_equiv_pos_as_xyz
  1  'x, y, z'
loop_
 _atom_site_type_symbol
 _atom_site_label
 _atom_site_symmetry_multiplicity
 _atom_site_fract_x
 _atom_site_fract_y
 _atom_site_fract_z
 _atom_site_occupancy
  Cr  Cr0  1  0.00248684  -0.00111803  -0.00123257  1
  Fe  Fe1  1  0.16363770  0.16591151  0.16716702  1
  Ni  Ni2  1  0.00230674  -0.00128811  0.33318349  1
  Ni  Ni3  1  -0.00003838  0.33460247  0.99712063  1
  Cr  Cr4  1  0.16504526  0.49959115  0.16587853  1
  Ni  Ni5  1  -0.00092783  0.33063029  0.33486251  1
  Fe  Fe6  1  -0.00018328  0.66548500  0.99602203  1
  Fe  Fe7  1  0.16661824  0.83247942  0.16781391  1
  Fe  Fe8  1  0.00145713  0.66599617  0.33432083  1
  Cr  Cr9  1  0.32998641  0.99711316  -0.00084156  1
  Cr  Cr10  1  0.49850870  0.16448872  0.16710177  1
  Ni  Ni11  1  0.32828662  0.99579577  0.33098123  1
  Fe  Fe12  1  0.32978403  0.33139457  0.99637304  1
  Cr  Cr13  1  0.49583163  0.50053104  0.16270770  1
  Cr  Cr14  1  0.32993050  0.32963598  0.33505881  1
  Fe  Fe15  1  0.33036938  0.66550635  0.99585676  1
  Fe  Fe16  1  0.49614370  0.83110326  0.16718481  1
  Fe  Fe17  1  0.32723252  0.66813340  0.33236237  1
  Cr  Cr18  1  0.66361891  0.99656813  -0.00128804  1
  Cr  Cr19  1  0.83534258  0.16547191  0.16585997  1
  Fe  Fe20  1  0.66688972  0.00024300  0.33393304  1
  Fe  Fe21  1  0.66519445  0.33287823  0.99621990  1
  Cr  Cr22  1  0.83476035  0.49722137  0.16311126  1
  Cr  Cr23  1  0.66832454  0.33251820  0.33340289  1
  Fe  Fe24  1  0.66573962  0.66468773  0.99630181  1
  Cr  Cr25  1  0.83390810  0.83342156  0.16682975  1
  Cr  Cr26  1  0.66623065  0.66478630  0.33269889  1
  Fe  Fe27  1  0.16462532  0.16252321  0.49915274  1
  Fe  Fe28  1  -0.00021750  0.99831170  0.66364075  1
  Fe  Fe29  1  0.16661011  0.16707289  0.83046288  1
  Fe  Fe30  1  0.16057536  0.49812858  0.49868618  1
  Fe  Fe31  1  0.00137030  0.33141603  0.66407112  1
  Fe  Fe32  1  0.16378356  0.49722406  0.83305335  1
  Fe  Fe33  1  0.16338412  0.83483879  0.49827307  1
  Fe  Fe34  1  0.99764504  0.66584257  0.66535710  1
  Fe  Fe35  1  0.16432986  0.83220016  0.83029469  1
  Fe  Fe36  1  0.49804970  0.16197589  0.49936680  1
  Ni  Ni37  1  0.33012547  -0.00039797  0.66652447  1
  Fe  Fe38  1  0.49615048  0.16550538  0.83075108  1
  Cr  Cr39  1  0.49439100  0.49944365  0.49862374  1
  Fe  Fe40  1  0.32972099  0.32928554  0.66569597  1
  Fe  Fe41  1  0.49879836  0.49839822  0.83319821  1
  Cr  Cr42  1  0.49722160  0.83459708  0.49715258  1
  Cr  Cr43  1  0.33017394  0.66609369  0.66537060  1
  Fe  Fe44  1  0.49899478  0.83219328  0.83022549  1
  Ni  Ni45  1  0.83554868  0.16275278  0.49778028  1
  Fe  Fe46  1  0.66488472  0.99803180  0.66513789  1
  Cr  Cr47  1  0.83377044  0.16404544  0.83305777  1
  Fe  Fe48  1  0.83594456  0.49845485  0.49919306  1
  Cr  Cr49  1  0.66643724  0.33325805  0.66329886  1
  Fe  Fe50  1  0.83326587  0.50011645  0.83307104  1
  Fe  Fe51  1  0.83455995  0.83395685  0.49876754  1
  Fe  Fe52  1  0.66702172  0.66772117  0.66603559  1
  Fe  Fe53  1  0.83235570  0.82922749  0.83077260  1
" 