4720,Ni12Fe81Cr6_13,-227.151799174872, 159.434469451305,Ni12Fe81Cr6,"# generated using pymatgen
 data_Cr5Fe43Ni6
_symmetry_space_group_name_H-M   'P 1'
_cell_length_a   7.42900609
_cell_length_b   7.42900609
_cell_length_c   10.50620117
_cell_angle_alpha   90.00000000
_cell_angle_beta   90.00000000
_cell_angle_gamma   90.00000000
_symmetry_Int_Tables_number   1
_chemical_formula_structural   Cr5Fe43Ni6
_chemical_formula_sum   'Cr5 Fe43 Ni6'
_cell_volume   579.83862366
_cell_formula_units_Z   1
loop_
 _symmetry_equiv_pos_site_id
 _symmetry_equiv_pos_as_xyz
  1  'x, y, z'
loop_
 _atom_site_type_symbol
 _atom_site_label
 _atom_site_symmetry_multiplicity
 _atom_site_fract_x
 _atom_site_fract_y
 _atom_site_fract_z
 _atom_site_occupancy
  Fe  Fe0  1  1.00111057  1.00110034  0.00308839  1
  Fe  Fe1  1  0.16843927  0.16839789  0.17090843  1
  Ni  Ni2  1  0.00434470  0.00275614  0.33413762  1
  Cr  Cr3  1  1.00192695  0.33540758  0.00348379  1
  Fe  Fe4  1  0.16947880  0.50328640  0.17033551  1
  Fe  Fe5  1  0.00393135  0.33536625  0.33565819  1
  Fe  Fe6  1  0.00308948  0.67102507  0.00276417  1
  Ni  Ni7  1  0.16823104  0.83492520  0.17025892  1
  Fe  Fe8  1  0.00368379  0.66881598  0.33510581  1
  Cr  Cr9  1  0.33504696  1.00204112  0.00266674  1
  Fe  Fe10  1  0.50258098  0.16872690  0.16910589  1
  Fe  Fe11  1  0.33463195  0.00314319  0.33459712  1
  Fe  Fe12  1  0.33743000  0.33740552  1.00246494  1
  Fe  Fe13  1  0.50186474  0.50328740  0.16891635  1
  Fe  Fe14  1  0.33399580  0.33595652  0.33651903  1
  Fe  Fe15  1  0.33542408  0.66783718  0.00282760  1
  Fe  Fe16  1  0.50330713  0.83566751  0.17008484  1
  Fe  Fe17  1  0.33459219  0.66857638  0.33542736  1
  Fe  Fe18  1  0.67101877  0.00310863  0.00278644  1
  Ni  Ni19  1  0.83571297  0.16704935  0.16864530  1
  Fe  Fe20  1  0.66999514  0.00289747  0.33407823  1
  Fe  Fe21  1  0.66783235  0.33542822  0.00302656  1
  Fe  Fe22  1  0.83633542  0.50401572  0.16907069  1
  Cr  Cr23  1  0.66955621  0.33699143  0.33677614  1
  Fe  Fe24  1  0.66916687  0.66914255  1.00246492  1
  Fe  Fe25  1  0.83666388  0.83670636  0.16969308  1
  Fe  Fe26  1  0.66940395  0.66945536  0.33475535  1
  Fe  Fe27  1  0.16925560  0.16940878  0.50265589  1
  Ni  Ni28  1  0.00393621  0.00315700  0.67097243  1
  Fe  Fe29  1  0.16902450  0.16896664  0.83411950  1
  Ni  Ni30  1  0.17005100  0.50132615  0.50241181  1
  Fe  Fe31  1  0.00277375  0.33563171  0.66923132  1
  Fe  Fe32  1  0.16997691  0.50322378  0.83475381  1
  Fe  Fe33  1  0.16919341  0.83538836  0.50205884  1
  Fe  Fe34  1  0.00355917  0.66876078  0.66980906  1
  Fe  Fe35  1  0.16820961  0.83548985  0.83544027  1
  Fe  Fe36  1  0.50146922  0.17090838  0.50335017  1
  Fe  Fe37  1  0.33469460  0.00326351  0.67031849  1
  Fe  Fe38  1  0.50322497  0.16995381  0.83522861  1
  Ni  Ni39  1  0.50048101  0.50155755  0.50384064  1
  Fe  Fe40  1  0.33541366  0.33589437  0.66869849  1
  Fe  Fe41  1  0.50259503  0.50255893  0.83547697  1
  Cr  Cr42  1  0.50213945  0.83572282  0.50202880  1
  Fe  Fe43  1  0.33465297  0.66851997  0.66942821  1
  Fe  Fe44  1  0.50337313  0.83516795  0.83500104  1
  Fe  Fe45  1  0.83695940  0.17023076  0.50278765  1
  Fe  Fe46  1  0.66973468  0.00404974  0.67080997  1
  Fe  Fe47  1  0.83543178  0.16818558  0.83540527  1
  Fe  Fe48  1  0.83630855  0.50209467  0.50335228  1
  Fe  Fe49  1  0.66949269  0.33559427  0.66879555  1
  Fe  Fe50  1  0.83510806  0.50337259  0.83526410  1
  Cr  Cr51  1  0.83683696  0.83715257  0.50158289  1
  Fe  Fe52  1  0.66946822  0.66803751  0.67045731  1
  Fe  Fe53  1  0.83609836  0.83612248  0.83533141  1
" 