7978,Ni12Fe81Cr6_4,-227.41855504455, 160.073535564794,Ni12Fe81Cr6,"# generated using pymatgen
 data_Cr5Fe43Ni6
_symmetry_space_group_name_H-M   'P 1'
_cell_length_a   7.43465121
_cell_length_b   7.43465121
_cell_length_c   10.51418458
_cell_angle_alpha   90.00000000
_cell_angle_beta   90.00000000
_cell_angle_gamma   90.00000000
_symmetry_Int_Tables_number   1
_chemical_formula_structural   Cr5Fe43Ni6
_chemical_formula_sum   'Cr5 Fe43 Ni6'
_cell_volume   581.16144464
_cell_formula_units_Z   1
loop_
 _symmetry_equiv_pos_site_id
 _symmetry_equiv_pos_as_xyz
  1  'x, y, z'
loop_
 _atom_site_type_symbol
 _atom_site_label
 _atom_site_symmetry_multiplicity
 _atom_site_fract_x
 _atom_site_fract_y
 _atom_site_fract_z
 _atom_site_occupancy
  Fe  Fe0  1  0.00350808  1.00099992  1.00211095  1
  Ni  Ni1  1  0.16919874  0.16879325  0.16769564  1
  Fe  Fe2  1  0.00433640  1.00024359  0.33486473  1
  Fe  Fe3  1  0.00362446  0.33699632  1.00065401  1
  Fe  Fe4  1  0.16735507  0.50091880  0.16965425  1
  Fe  Fe5  1  0.00447193  0.33730770  0.33625152  1
  Fe  Fe6  1  1.00000029  0.66878971  0.00273545  1
  Ni  Ni7  1  0.16972620  0.83586817  0.16914955  1
  Fe  Fe8  1  1.00170542  0.66922359  0.33574113  1
  Fe  Fe9  1  0.33605321  0.00442498  0.00293126  1
  Fe  Fe10  1  0.50033749  0.16873207  0.16830700  1
  Fe  Fe11  1  0.33418718  0.00328195  0.33377444  1
  Fe  Fe12  1  0.33664896  0.33453006  0.00236120  1
  Fe  Fe13  1  0.50231822  0.50034582  0.16900474  1
  Fe  Fe14  1  0.33506219  0.33501234  0.33505171  1
  Cr  Cr15  1  0.33531122  0.67041919  0.00413992  1
  Fe  Fe16  1  0.50257869  0.83759679  0.17054139  1
  Fe  Fe17  1  0.33447774  0.66791292  0.33428319  1
  Fe  Fe18  1  0.66746703  1.00075409  1.00127532  1
  Cr  Cr19  1  0.83629898  0.17030288  0.16855415  1
  Fe  Fe20  1  0.66847851  1.00070602  0.33512006  1
  Ni  Ni21  1  0.66973898  0.33524691  1.00185035  1
  Fe  Fe22  1  0.83696632  0.50351188  0.16902611  1
  Fe  Fe23  1  0.66737557  0.33787134  0.33473323  1
  Fe  Fe24  1  0.67011512  0.66808202  0.00261718  1
  Fe  Fe25  1  0.83761231  0.83527973  0.16967026  1
  Fe  Fe26  1  0.67038353  0.66815787  0.33521683  1
  Fe  Fe27  1  0.17021243  0.16757884  0.50047508  1
  Fe  Fe28  1  0.00346635  0.99887558  0.66941329  1
  Fe  Fe29  1  0.16954543  0.16819192  0.83723641  1
  Fe  Fe30  1  0.16882058  0.50442436  0.50197279  1
  Cr  Cr31  1  1.00092219  0.33451060  0.66908737  1
  Fe  Fe32  1  0.16976728  0.50334567  0.83489310  1
  Fe  Fe33  1  0.16588267  0.83463530  0.50153074  1
  Fe  Fe34  1  0.00223967  0.66970598  0.66826325  1
  Fe  Fe35  1  0.16881087  0.83533245  0.83556003  1
  Fe  Fe36  1  0.50212261  0.17028827  0.50211752  1
  Fe  Fe37  1  0.33372199  0.00347612  0.66987071  1
  Fe  Fe38  1  0.50260531  0.16925070  0.83593318  1
  Fe  Fe39  1  0.50338952  0.50138359  0.50243334  1
  Fe  Fe40  1  0.33607827  0.33636348  0.66868176  1
  Fe  Fe41  1  0.50212296  0.50225956  0.83536781  1
  Cr  Cr42  1  0.50036053  0.83501089  0.50260789  1
  Ni  Ni43  1  0.33515620  0.66932018  0.66822331  1
  Fe  Fe44  1  0.50198786  0.83531795  0.83361571  1
  Cr  Cr45  1  0.83495591  0.16811584  0.50136064  1
  Fe  Fe46  1  0.66902774  1.00141736  0.67014652  1
  Fe  Fe47  1  0.83437444  0.16785442  0.83714971  1
  Ni  Ni48  1  0.83503749  0.50281255  0.50175783  1
  Fe  Fe49  1  0.66598844  0.33722779  0.67023587  1
  Fe  Fe50  1  0.83441131  0.50276028  0.83623021  1
  Ni  Ni51  1  0.83541856  0.83409980  0.50243867  1
  Fe  Fe52  1  0.67024881  0.66741548  0.66893837  1
  Fe  Fe53  1  0.83563893  0.83536726  0.83479543  1
" 