5181,Ni12Fe88_1,-242.200110338203, 197.077430125889,Ni12Fe88,"# generated using pymatgen
 data_FeNi8
_symmetry_space_group_name_H-M   'P 1'
_cell_length_a   7.44087025
_cell_length_b   7.44087025
_cell_length_c   10.52297962
_cell_angle_alpha   90.00000000
_cell_angle_beta   90.00000000
_cell_angle_gamma   90.00000000
_symmetry_Int_Tables_number   1
_chemical_formula_structural   FeNi8
_chemical_formula_sum   'Fe6 Ni48'
_cell_volume   582.62107770
_cell_formula_units_Z   6
loop_
 _symmetry_equiv_pos_site_id
 _symmetry_equiv_pos_as_xyz
  1  'x, y, z'
loop_
 _atom_site_type_symbol
 _atom_site_label
 _atom_site_symmetry_multiplicity
 _atom_site_fract_x
 _atom_site_fract_y
 _atom_site_fract_z
 _atom_site_occupancy
  Ni  Ni0  1  0.00184574  1.00160888  1.00162175  1
  Ni  Ni1  1  0.16942319  0.16762378  0.16944657  1
  Ni  Ni2  1  0.00201598  0.00198953  0.33518599  1
  Ni  Ni3  1  1.00167639  0.33461010  1.00155959  1
  Fe  Fe4  1  0.16939448  0.50241822  0.16834121  1
  Ni  Ni5  1  1.00154308  0.33476749  0.33508582  1
  Ni  Ni6  1  1.00122880  0.66895794  1.00128636  1
  Ni  Ni7  1  0.16811786  0.83623008  0.16853648  1
  Ni  Ni8  1  1.00157459  0.66860566  0.33522554  1
  Ni  Ni9  1  0.33497248  0.00176532  1.00161323  1
  Ni  Ni10  1  0.50061424  0.16854850  0.16854586  1
  Ni  Ni11  1  0.33509646  1.00167766  0.33513746  1
  Ni  Ni12  1  0.33551205  0.33483711  1.00117862  1
  Ni  Ni13  1  0.50365383  0.50134415  0.16938601  1
  Ni  Ni14  1  0.33518381  0.33469886  0.33565967  1
  Ni  Ni15  1  0.33601041  0.66876542  1.00157570  1
  Ni  Ni16  1  0.50183864  0.83538517  0.16896200  1
  Ni  Ni17  1  0.33544547  0.66883223  0.33504372  1
  Ni  Ni18  1  0.66836114  1.00111852  1.00119481  1
  Fe  Fe19  1  0.83428783  0.16731203  0.16833876  1
  Ni  Ni20  1  0.66821026  1.00164247  0.33549136  1
  Ni  Ni21  1  0.66816512  0.33545676  1.00173345  1
  Ni  Ni22  1  0.83463835  0.50240269  0.16854337  1
  Ni  Ni23  1  0.66844546  0.33514928  0.33486980  1
  Ni  Ni24  1  0.66821432  0.66852789  1.00160763  1
  Ni  Ni25  1  0.83531848  0.83319014  0.16938458  1
  Ni  Ni26  1  0.66837469  0.66832038  0.33571961  1
  Ni  Ni27  1  0.16903993  0.16780467  0.50179592  1
  Ni  Ni28  1  0.00234129  0.00218648  0.66834465  1
  Ni  Ni29  1  0.16875753  0.16811981  0.83411327  1
  Ni  Ni30  1  0.16689590  0.50260209  0.50105504  1
  Ni  Ni31  1  1.00125755  0.33451173  0.66832270  1
  Ni  Ni32  1  0.16806705  0.50202605  0.83521822  1
  Ni  Ni33  1  0.16899489  0.83488010  0.50141213  1
  Ni  Ni34  1  1.00158625  0.66880536  0.66859944  1
  Ni  Ni35  1  0.16842837  0.83517099  0.83530804  1
  Ni  Ni36  1  0.50191177  0.16783937  0.50153856  1
  Ni  Ni37  1  0.33436892  1.00161620  0.66868109  1
  Ni  Ni38  1  0.50152100  0.16854712  0.83524222  1
  Fe  Fe39  1  0.50070329  0.50015674  0.50183180  1
  Ni  Ni40  1  0.33519181  0.33472620  0.66838371  1
  Ni  Ni41  1  0.50233648  0.50167959  0.83450626  1
  Fe  Fe42  1  0.50089281  0.83530610  0.50163285  1
  Ni  Ni43  1  0.33521555  0.66881597  0.66871388  1
  Ni  Ni44  1  0.50159961  0.83510484  0.83513701  1
  Ni  Ni45  1  0.83428252  0.16998916  0.50072038  1
  Fe  Fe46  1  0.66850464  0.00271153  0.66905231  1
  Ni  Ni47  1  0.83494400  0.16889136  0.83561470  1
  Ni  Ni48  1  0.83480974  0.50206819  0.50182882  1
  Ni  Ni49  1  0.66864657  0.33558771  0.66861946  1
  Ni  Ni50  1  0.83487843  0.50201195  0.83493275  1
  Fe  Fe51  1  0.83698392  0.83588560  0.50153766  1
  Ni  Ni52  1  0.66842287  0.66773280  0.66822803  1
  Ni  Ni53  1  0.83524151  0.83442343  0.83434157  1
" 