7021,Ni12Fe32Cr54_0,-216.091394568521, 175.104215330165,Ni12Fe32Cr54,"# generated using pymatgen
 data_Cr31Fe17Ni6
_symmetry_space_group_name_H-M   'P 1'
_cell_length_a   7.53098830
_cell_length_b   7.53098830
_cell_length_c   10.65042579
_cell_angle_alpha   90.00000000
_cell_angle_beta   90.00000000
_cell_angle_gamma   90.00000000
_symmetry_Int_Tables_number   1
_chemical_formula_structural   Cr31Fe17Ni6
_chemical_formula_sum   'Cr31 Fe17 Ni6'
_cell_volume   604.04725625
_cell_formula_units_Z   1
loop_
 _symmetry_equiv_pos_site_id
 _symmetry_equiv_pos_as_xyz
  1  'x, y, z'
loop_
 _atom_site_type_symbol
 _atom_site_label
 _atom_site_symmetry_multiplicity
 _atom_site_fract_x
 _atom_site_fract_y
 _atom_site_fract_z
 _atom_site_occupancy
  Cr  Cr0  1  0.99268038  -0.00320871  0.99542604  1
  Cr  Cr1  1  0.16199067  0.16107683  0.16145098  1
  Fe  Fe2  1  0.99549408  0.99524349  0.33097473  1
  Fe  Fe3  1  0.99254880  0.32939761  0.99458399  1
  Fe  Fe4  1  0.16236740  0.49527874  0.16257983  1
  Cr  Cr5  1  -0.00404516  0.32881987  0.32869305  1
  Cr  Cr6  1  0.99397907  0.66116267  -0.00260725  1
  Cr  Cr7  1  0.16194896  0.83057977  0.16462130  1
  Fe  Fe8  1  0.99395431  0.66338031  0.32977331  1
  Cr  Cr9  1  0.33201960  -0.00189076  0.99417192  1
  Ni  Ni10  1  0.49650599  0.16278500  0.16499236  1
  Fe  Fe11  1  0.33019113  -0.00262089  0.33005688  1
  Cr  Cr12  1  0.32902635  0.32872177  -0.00134039  1
  Fe  Fe13  1  0.49745968  0.49410538  0.16268670  1
  Cr  Cr14  1  0.33103547  0.32763046  0.32747755  1
  Cr  Cr15  1  0.32988903  0.66079300  0.99418198  1
  Cr  Cr16  1  0.49602861  0.82894479  0.15958431  1
  Cr  Cr17  1  0.32735759  0.66088208  0.32955927  1
  Cr  Cr18  1  0.66300624  -0.00343217  0.99470027  1
  Cr  Cr19  1  0.82879667  0.16368844  0.16214187  1
  Cr  Cr20  1  0.66439878  -0.00277866  0.32842523  1
  Cr  Cr21  1  0.66185885  0.32719246  0.99552342  1
  Cr  Cr22  1  0.82751052  0.49526752  0.16208046  1
  Ni  Ni23  1  0.66245112  0.32629101  0.32999538  1
  Ni  Ni24  1  0.66404998  0.66107749  0.99536553  1
  Fe  Fe25  1  0.82866123  0.82991957  0.16209503  1
  Cr  Cr26  1  0.66465848  0.66291684  0.32731950  1
  Fe  Fe27  1  0.16129823  0.16044425  0.49539024  1
  Fe  Fe28  1  0.99296756  -0.00261452  0.66149235  1
  Cr  Cr29  1  0.15880535  0.16251607  0.83002703  1
  Cr  Cr30  1  0.16141175  0.49503149  0.49621166  1
  Fe  Fe31  1  0.99227519  0.32633485  0.66280945  1
  Cr  Cr32  1  0.15920440  0.49367567  0.82988324  1
  Fe  Fe33  1  0.16016171  0.83180015  0.49462502  1
  Cr  Cr34  1  0.99475210  0.66237767  0.66128864  1
  Cr  Cr35  1  0.16435959  0.83090299  0.82807994  1
  Fe  Fe36  1  0.49844773  0.16250470  0.49517634  1
  Cr  Cr37  1  0.33115953  -0.00215773  0.66282986  1
  Fe  Fe38  1  0.49927513  0.16294094  0.82799359  1
  Cr  Cr39  1  0.49879730  0.49440533  0.49488417  1
  Cr  Cr40  1  0.32922108  0.32777544  0.66157581  1
  Cr  Cr41  1  0.49876810  0.49727959  0.82814940  1
  Cr  Cr42  1  0.49547941  0.83052076  0.49753919  1
  Cr  Cr43  1  0.32814363  0.66198128  0.66348156  1
  Fe  Fe44  1  0.49894025  0.83098463  0.82872248  1
  Fe  Fe45  1  0.82796610  0.16147727  0.49727426  1
  Ni  Ni46  1  0.66491609  0.00042857  0.66317604  1
  Ni  Ni47  1  0.82785204  0.16476642  0.82595021  1
  Cr  Cr48  1  0.82700621  0.49225617  0.49722752  1
  Fe  Fe49  1  0.66391947  0.32614132  0.66298675  1
  Ni  Ni50  1  0.82760822  0.49204781  0.82869552  1
  Fe  Fe51  1  0.82971038  0.83158262  0.49634680  1
  Cr  Cr52  1  0.66464424  0.66461657  0.66421736  1
  Cr  Cr53  1  0.82784611  0.82951646  0.83021304  1
" 