3407,Ni12Fe32Cr54_5,-216.266538053918, 178.63502809617,Ni12Fe32Cr54,"# generated using pymatgen
 data_Cr31Fe17Ni6
_symmetry_space_group_name_H-M   'P 1'
_cell_length_a   7.52991140
_cell_length_b   7.52991140
_cell_length_c   10.64890283
_cell_angle_alpha   90.00000000
_cell_angle_beta   90.00000000
_cell_angle_gamma   90.00000000
_symmetry_Int_Tables_number   1
_chemical_formula_structural   Cr31Fe17Ni6
_chemical_formula_sum   'Cr31 Fe17 Ni6'
_cell_volume   603.78816585
_cell_formula_units_Z   1
loop_
 _symmetry_equiv_pos_site_id
 _symmetry_equiv_pos_as_xyz
  1  'x, y, z'
loop_
 _atom_site_type_symbol
 _atom_site_label
 _atom_site_symmetry_multiplicity
 _atom_site_fract_x
 _atom_site_fract_y
 _atom_site_fract_z
 _atom_site_occupancy
  Ni  Ni0  1  0.99560734  0.99371817  0.99334579  1
  Cr  Cr1  1  0.16330860  0.16117832  0.16092793  1
  Cr  Cr2  1  0.99435621  -0.00359146  0.33018047  1
  Cr  Cr3  1  0.99408209  0.32844691  0.99523120  1
  Cr  Cr4  1  0.16149406  0.49609687  0.15962784  1
  Cr  Cr5  1  0.99310163  0.32994062  0.32976596  1
  Fe  Fe6  1  0.99382218  0.66249262  0.99394297  1
  Cr  Cr7  1  0.16253574  0.83046932  0.15909178  1
  Cr  Cr8  1  0.99561935  0.66100681  0.32863480  1
  Fe  Fe9  1  0.32994749  -0.00276959  0.99388082  1
  Cr  Cr10  1  0.49681278  0.16248384  0.16437513  1
  Fe  Fe11  1  0.33132755  -0.00304741  0.33071331  1
  Cr  Cr12  1  0.33100319  0.33193606  0.99240553  1
  Fe  Fe13  1  0.49689819  0.49559726  0.16243207  1
  Cr  Cr14  1  0.32953296  0.32984401  0.33049564  1
  Fe  Fe15  1  0.32844675  0.66277534  0.99468498  1
  Cr  Cr16  1  0.49628395  0.83081884  0.16291768  1
  Cr  Cr17  1  0.32843943  0.66253675  0.32806053  1
  Cr  Cr18  1  0.66521736  -0.00315600  0.99049635  1
  Cr  Cr19  1  0.82766538  0.16273067  0.16306959  1
  Ni  Ni20  1  0.66153509  -0.00096675  0.33213038  1
  Cr  Cr21  1  0.66217306  0.32988796  -0.00389396  1
  Fe  Fe22  1  0.82724929  0.49579058  0.16222406  1
  Fe  Fe23  1  0.66339736  0.32755272  0.33076047  1
  Cr  Cr24  1  0.66163785  0.66046891  0.99428676  1
  Cr  Cr25  1  0.82871521  0.82934427  0.16019938  1
  Cr  Cr26  1  0.66324850  0.66102235  0.32896662  1
  Cr  Cr27  1  0.16269872  0.16386484  0.49709702  1
  Ni  Ni28  1  0.99294572  -0.00326877  0.66407824  1
  Cr  Cr29  1  0.16195007  0.16409518  0.82889604  1
  Cr  Cr30  1  0.15960811  0.49414048  0.50098251  1
  Fe  Fe31  1  0.99429675  0.32762710  0.66398520  1
  Fe  Fe32  1  0.16115489  0.49677393  0.82809836  1
  Cr  Cr33  1  0.16069880  0.82927091  0.49568713  1
  Fe  Fe34  1  0.99247398  0.66333598  0.66473452  1
  Cr  Cr35  1  0.15930260  0.82905629  0.83146522  1
  Ni  Ni36  1  0.49938782  0.16437164  0.49356090  1
  Cr  Cr37  1  0.32987627  -0.00314518  0.66055436  1
  Ni  Ni38  1  0.49593309  0.16679010  0.82868491  1
  Cr  Cr39  1  0.49825366  0.49371231  0.49710224  1
  Fe  Fe40  1  0.33062765  0.32654208  0.66402901  1
  Fe  Fe41  1  0.49613489  0.49543588  0.82771355  1
  Cr  Cr42  1  0.49887865  0.83087199  0.49455470  1
  Cr  Cr43  1  0.32947731  0.66009049  0.66341369  1
  Cr  Cr44  1  0.49830176  0.82909693  0.82913480  1
  Fe  Fe45  1  0.82678351  0.16266259  0.49627473  1
  Cr  Cr46  1  0.66460421  -0.00292210  0.66500273  1
  Fe  Fe47  1  0.83056317  0.15947480  0.82893965  1
  Fe  Fe48  1  0.82824163  0.49353946  0.49774337  1
  Cr  Cr49  1  0.66257377  0.32801666  0.66422076  1
  Fe  Fe50  1  0.83005544  0.49695848  0.82782596  1
  Cr  Cr51  1  0.82826147  0.82765713  0.49865787  1
  Fe  Fe52  1  0.66599934  0.66246377  0.66481844  1
  Ni  Ni53  1  0.83204747  0.82546835  0.82837936  1
" 