6170,Ni12Fe32Cr54_14,-216.279330738527, 175.646313359312,Ni12Fe32Cr54,"# generated using pymatgen
 data_Cr31Fe17Ni6
_symmetry_space_group_name_H-M   'P 1'
_cell_length_a   7.53749239
_cell_length_b   7.53749239
_cell_length_c   10.65962396
_cell_angle_alpha   90.00000000
_cell_angle_beta   90.00000000
_cell_angle_gamma   90.00000000
_symmetry_Int_Tables_number   1
_chemical_formula_structural   Cr31Fe17Ni6
_chemical_formula_sum   'Cr31 Fe17 Ni6'
_cell_volume   605.61365347
_cell_formula_units_Z   1
loop_
 _symmetry_equiv_pos_site_id
 _symmetry_equiv_pos_as_xyz
  1  'x, y, z'
loop_
 _atom_site_type_symbol
 _atom_site_label
 _atom_site_symmetry_multiplicity
 _atom_site_fract_x
 _atom_site_fract_y
 _atom_site_fract_z
 _atom_site_occupancy
  Cr  Cr0  1  0.99472381  -0.00397649  -0.00130350  1
  Cr  Cr1  1  0.16373701  0.16319115  0.16456885  1
  Cr  Cr2  1  0.99335283  -0.00261613  0.32699102  1
  Cr  Cr3  1  0.99133623  0.32792467  0.99255090  1
  Cr  Cr4  1  0.16234103  0.49677622  0.16070236  1
  Cr  Cr5  1  0.99386734  0.32633459  0.33172518  1
  Ni  Ni6  1  0.99331962  0.66357549  -0.00392486  1
  Fe  Fe7  1  0.16173835  0.82744275  0.16113939  1
  Cr  Cr8  1  0.99401274  0.66284027  0.32699746  1
  Cr  Cr9  1  0.33124812  0.99329264  -0.00404964  1
  Fe  Fe10  1  0.49856569  0.16248332  0.16088017  1
  Cr  Cr11  1  0.32935101  0.99518544  0.32882959  1
  Cr  Cr12  1  0.33203392  0.32773332  -0.00143469  1
  Fe  Fe13  1  0.49669375  0.49400630  0.16146357  1
  Fe  Fe14  1  0.32907257  0.32946798  0.32953259  1
  Fe  Fe15  1  0.33000944  0.66230703  -0.00347786  1
  Fe  Fe16  1  0.49651688  0.82837685  0.16178606  1
  Cr  Cr17  1  0.33272565  0.66059317  0.32951469  1
  Fe  Fe18  1  0.66299356  -0.00415383  -0.00294246  1
  Ni  Ni19  1  0.82419719  0.16147094  0.15928848  1
  Cr  Cr20  1  0.66289717  -0.00431123  0.32617465  1
  Ni  Ni21  1  0.66268480  0.32738702  -0.00461018  1
  Cr  Cr22  1  0.82859938  0.49604738  0.16065960  1
  Cr  Cr23  1  0.66125420  0.33043615  0.32633399  1
  Cr  Cr24  1  0.66095877  0.66098352  -0.00318980  1
  Fe  Fe25  1  0.82820232  0.82921958  0.16080048  1
  Fe  Fe26  1  0.66022725  0.66302847  0.32783890  1
  Fe  Fe27  1  0.16073522  0.16230231  0.49522320  1
  Cr  Cr28  1  0.99340124  -0.00182520  0.65999786  1
  Cr  Cr29  1  0.16300294  0.16294567  0.82664472  1
  Fe  Fe30  1  0.16286823  0.49461636  0.49480250  1
  Fe  Fe31  1  0.99328957  0.32916027  0.66155056  1
  Cr  Cr32  1  0.16005235  0.49592315  0.83134528  1
  Cr  Cr33  1  0.16162709  0.82773161  0.49520049  1
  Cr  Cr34  1  0.99408920  0.66028466  0.66354598  1
  Cr  Cr35  1  0.16253893  0.82732095  0.83262471  1
  Cr  Cr36  1  0.49661811  0.16139608  0.49475036  1
  Cr  Cr37  1  0.33055574  0.99322841  0.66243900  1
  Cr  Cr38  1  0.49917160  0.16020818  0.82989655  1
  Fe  Fe39  1  0.49680271  0.49555717  0.49417611  1
  Cr  Cr40  1  0.32851440  0.32973958  0.65785676  1
  Cr  Cr41  1  0.49594856  0.49360817  0.83009107  1
  Ni  Ni42  1  0.49587259  0.82814214  0.49504205  1
  Cr  Cr43  1  0.33149022  0.66274689  0.66362274  1
  Ni  Ni44  1  0.49952289  0.82897247  0.82974362  1
  Ni  Ni45  1  0.82671039  0.16470832  0.49839200  1
  Fe  Fe46  1  0.66130781  0.99471562  0.66092854  1
  Fe  Fe47  1  0.82639295  0.16244727  0.82823867  1
  Cr  Cr48  1  0.82817094  0.49578048  0.49568237  1
  Fe  Fe49  1  0.66443564  0.32694833  0.66312944  1
  Fe  Fe50  1  0.82577157  0.49498616  0.82945649  1
  Cr  Cr51  1  0.82545202  0.83002737  0.49223056  1
  Cr  Cr52  1  0.65969659  0.66136415  0.65925848  1
  Cr  Cr53  1  0.82696011  0.82957710  0.82894519  1
" 