6840,Ni12Fe57Cr29_14,-222.996740755723, 169.475935080594,Ni12Fe57Cr29,"# generated using pymatgen
 data_Cr17Fe31Ni6
_symmetry_space_group_name_H-M   'P 1'
_cell_length_a   7.48191946
_cell_length_b   7.48191946
_cell_length_c   10.58103197
_cell_angle_alpha   90.00000000
_cell_angle_beta   90.00000000
_cell_angle_gamma   90.00000000
_symmetry_Int_Tables_number   1
_chemical_formula_structural   Cr17Fe31Ni6
_chemical_formula_sum   'Cr17 Fe31 Ni6'
_cell_volume   592.31684544
_cell_formula_units_Z   1
loop_
 _symmetry_equiv_pos_site_id
 _symmetry_equiv_pos_as_xyz
  1  'x, y, z'
loop_
 _atom_site_type_symbol
 _atom_site_label
 _atom_site_symmetry_multiplicity
 _atom_site_fract_x
 _atom_site_fract_y
 _atom_site_fract_z
 _atom_site_occupancy
  Fe  Fe0  1  -0.00003853  -0.00082622  -0.00040813  1
  Cr  Cr1  1  0.16651891  0.16660953  0.16498667  1
  Fe  Fe2  1  0.99797804  0.00031205  0.33163672  1
  Ni  Ni3  1  0.00036270  0.33335013  0.00003161  1
  Fe  Fe4  1  0.16390729  0.50126584  0.16353006  1
  Cr  Cr5  1  0.99812411  0.33451612  0.33340907  1
  Fe  Fe6  1  0.00170659  0.66527663  0.00017013  1
  Fe  Fe7  1  0.16729502  0.82929157  0.16526213  1
  Ni  Ni8  1  0.00007080  0.66334725  0.32983470  1
  Fe  Fe9  1  0.33214161  0.99837514  0.99840213  1
  Fe  Fe10  1  0.50205601  0.16492442  0.16582768  1
  Cr  Cr11  1  0.33360122  0.99815025  0.32922730  1
  Fe  Fe12  1  0.33187242  0.33288430  0.99876572  1
  Cr  Cr13  1  0.49675839  0.49625982  0.16784158  1
  Fe  Fe14  1  0.33158420  0.33491835  0.33305984  1
  Ni  Ni15  1  0.32937750  0.66745308  0.99850032  1
  Fe  Fe16  1  0.49791158  0.83257986  0.16460864  1
  Fe  Fe17  1  0.32996690  0.66195355  0.33015698  1
  Ni  Ni18  1  0.66212462  0.00159905  0.00054268  1
  Fe  Fe19  1  0.83059590  0.16810208  0.16352511  1
  Fe  Fe20  1  0.66873561  0.00136342  0.33036199  1
  Fe  Fe21  1  0.66522018  0.33099948  0.00155190  1
  Fe  Fe22  1  0.83376471  0.49708367  0.16488982  1
  Ni  Ni23  1  0.66745661  0.33214313  0.33220999  1
  Cr  Cr24  1  0.66492720  0.66726593  -0.00051323  1
  Cr  Cr25  1  0.83520387  0.83367257  0.16689022  1
  Fe  Fe26  1  0.66837843  0.66225821  0.33142597  1
  Fe  Fe27  1  0.16413799  0.16602188  0.49951267  1
  Fe  Fe28  1  0.00044319  -0.00092195  0.66589826  1
  Fe  Fe29  1  0.16552325  0.16814056  0.83498913  1
  Fe  Fe30  1  0.16609632  0.49989547  0.49964182  1
  Fe  Fe31  1  0.00024653  0.33206678  0.66541649  1
  Fe  Fe32  1  0.16398889  0.49881327  0.83402343  1
  Cr  Cr33  1  0.16281336  0.83175785  0.49752676  1
  Ni  Ni34  1  0.00175141  0.66072967  0.66721731  1
  Fe  Fe35  1  0.16629731  0.82974325  0.83329238  1
  Cr  Cr36  1  0.49784855  0.17044878  0.49704286  1
  Cr  Cr37  1  0.33191662  -0.00054323  0.67040659  1
  Fe  Fe38  1  0.49880185  0.16599280  0.83505972  1
  Fe  Fe39  1  0.49851774  0.49885016  0.49698533  1
  Fe  Fe40  1  0.32919100  0.33411935  0.66499781  1
  Cr  Cr41  1  0.49562619  0.49611219  0.83012069  1
  Cr  Cr42  1  0.49885286  0.82870665  0.49539043  1
  Fe  Fe43  1  0.32968048  0.66486892  0.66684659  1
  Fe  Fe44  1  0.49813155  0.83267128  0.83534199  1
  Fe  Fe45  1  0.83304606  0.16688695  0.49924972  1
  Cr  Cr46  1  0.66293466  -0.00030182  0.66614265  1
  Cr  Cr47  1  0.83260932  0.16551592  0.83371941  1
  Fe  Fe48  1  0.83322447  0.49920675  0.49875250  1
  Fe  Fe49  1  0.66721194  0.33303111  0.66324504  1
  Cr  Cr50  1  0.83227013  0.49808690  0.83502082  1
  Cr  Cr51  1  0.83550658  0.83298774  0.49806194  1
  Cr  Cr52  1  0.66574537  0.66509601  0.66496985  1
  Cr  Cr53  1  0.83631644  0.83321951  0.83173217  1
" 