1033,Ni12Fe57Cr29_9,-223.380033477717, 174.456643693083,Ni12Fe57Cr29,"# generated using pymatgen
 data_Cr17Fe31Ni6
_symmetry_space_group_name_H-M   'P 1'
_cell_length_a   7.48097607
_cell_length_b   7.48097607
_cell_length_c   10.57969782
_cell_angle_alpha   90.00000000
_cell_angle_beta   90.00000000
_cell_angle_gamma   90.00000000
_symmetry_Int_Tables_number   1
_chemical_formula_structural   Cr17Fe31Ni6
_chemical_formula_sum   'Cr17 Fe31 Ni6'
_cell_volume   592.09282035
_cell_formula_units_Z   1
loop_
 _symmetry_equiv_pos_site_id
 _symmetry_equiv_pos_as_xyz
  1  'x, y, z'
loop_
 _atom_site_type_symbol
 _atom_site_label
 _atom_site_symmetry_multiplicity
 _atom_site_fract_x
 _atom_site_fract_y
 _atom_site_fract_z
 _atom_site_occupancy
  Ni  Ni0  1  0.00175084  0.00134208  0.99863742  1
  Fe  Fe1  1  0.16900328  0.16421513  0.16577742  1
  Fe  Fe2  1  -0.00015673  0.00291508  0.33255488  1
  Cr  Cr3  1  0.99905063  0.33210784  0.00110061  1
  Fe  Fe4  1  0.16654786  0.49764787  0.16782179  1
  Fe  Fe5  1  0.00115950  0.32986342  0.33037634  1
  Cr  Cr6  1  -0.00083510  0.66436810  -0.00079795  1
  Cr  Cr7  1  0.16523859  0.83472411  0.16460356  1
  Fe  Fe8  1  -0.00066375  0.66506384  0.33212344  1
  Ni  Ni9  1  0.33375120  0.00115446  0.99697422  1
  Ni  Ni10  1  0.49852728  0.16626769  0.16482130  1
  Ni  Ni11  1  0.33315974  0.00108632  0.33352118  1
  Fe  Fe12  1  0.33144512  0.32839829  0.99880708  1
  Cr  Cr13  1  0.49708026  0.49700157  0.16421863  1
  Fe  Fe14  1  0.33120313  0.32829407  0.33164560  1
  Fe  Fe15  1  0.33128742  0.66824531  0.99746049  1
  Cr  Cr16  1  0.49897423  0.83510771  0.16427373  1
  Fe  Fe17  1  0.33264472  0.66732184  0.33190965  1
  Fe  Fe18  1  0.66582160  0.00283269  0.99872276  1
  Fe  Fe19  1  0.83158695  0.16477515  0.16521089  1
  Fe  Fe20  1  0.66358566  0.00028335  0.33394512  1
  Fe  Fe21  1  0.66566290  0.32856870  -0.00024158  1
  Fe  Fe22  1  0.83136460  0.49898688  0.16735971  1
  Cr  Cr23  1  0.66584141  0.33039661  0.33251971  1
  Fe  Fe24  1  0.66542940  0.66648161  0.99829289  1
  Cr  Cr25  1  0.83293783  0.83594622  0.16735305  1
  Fe  Fe26  1  0.66477976  0.66764880  0.33354351  1
  Fe  Fe27  1  0.16619674  0.16625122  0.49901894  1
  Fe  Fe28  1  0.00048779  0.00230543  0.66718778  1
  Fe  Fe29  1  0.16662999  0.16388817  0.83211021  1
  Cr  Cr30  1  0.16749170  0.49727486  0.49857289  1
  Fe  Fe31  1  -0.00081055  0.32838939  0.66659729  1
  Cr  Cr32  1  0.16891657  0.49804149  0.83011997  1
  Cr  Cr33  1  0.16454395  0.83518552  0.50002278  1
  Cr  Cr34  1  -0.00083623  0.66623348  0.66782901  1
  Ni  Ni35  1  0.16688212  0.83628207  0.83275982  1
  Fe  Fe36  1  0.49567342  0.16469404  0.49799311  1
  Fe  Fe37  1  0.33124500  -0.00061461  0.66674941  1
  Fe  Fe38  1  0.49716794  0.16390975  0.83320081  1
  Cr  Cr39  1  0.49715829  0.49690712  0.50021804  1
  Ni  Ni40  1  0.33217326  0.32690343  0.66480546  1
  Cr  Cr41  1  0.49981918  0.49536479  0.83259177  1
  Fe  Fe42  1  0.49786818  0.83298535  0.49636741  1
  Fe  Fe43  1  0.33341714  0.66814106  0.66668797  1
  Fe  Fe44  1  0.49653261  0.83333580  0.83394652  1
  Fe  Fe45  1  0.83519064  0.16413378  0.49892058  1
  Cr  Cr46  1  0.66251167  -0.00031446  0.66289084  1
  Fe  Fe47  1  0.83318335  0.16712264  0.83255053  1
  Cr  Cr48  1  0.83265969  0.49698580  0.50061869  1
  Fe  Fe49  1  0.66524361  0.32961051  0.66640402  1
  Fe  Fe50  1  0.83204110  0.49696044  0.83230045  1
  Fe  Fe51  1  0.83231056  0.83396026  0.49644800  1
  Cr  Cr52  1  0.66560455  0.66761921  0.66554095  1
  Cr  Cr53  1  0.83424944  0.83712874  0.83474131  1
" 