406,Ni12Fe32Cr54_10,-216.153512438477, 177.65038569162,Ni12Fe32Cr54,"# generated using pymatgen
 data_Cr31Fe17Ni6
_symmetry_space_group_name_H-M   'P 1'
_cell_length_a   7.53157638
_cell_length_b   7.53157638
_cell_length_c   10.65125747
_cell_angle_alpha   90.00000000
_cell_angle_beta   90.00000000
_cell_angle_gamma   90.00000000
_symmetry_Int_Tables_number   1
_chemical_formula_structural   Cr31Fe17Ni6
_chemical_formula_sum   'Cr31 Fe17 Ni6'
_cell_volume   604.18877503
_cell_formula_units_Z   1
loop_
 _symmetry_equiv_pos_site_id
 _symmetry_equiv_pos_as_xyz
  1  'x, y, z'
loop_
 _atom_site_type_symbol
 _atom_site_label
 _atom_site_symmetry_multiplicity
 _atom_site_fract_x
 _atom_site_fract_y
 _atom_site_fract_z
 _atom_site_occupancy
  Cr  Cr0  1  -0.00354556  0.99437574  0.99541949  1
  Fe  Fe1  1  0.16475130  0.16348902  0.16492950  1
  Cr  Cr2  1  0.99524247  0.99236224  0.32656541  1
  Cr  Cr3  1  -0.00374032  0.33086424  -0.00239223  1
  Fe  Fe4  1  0.16269833  0.49457779  0.16146749  1
  Fe  Fe5  1  -0.00155601  0.33098719  0.32836458  1
  Ni  Ni6  1  -0.00415592  0.66085613  -0.00393656  1
  Cr  Cr7  1  0.16307542  0.82829985  0.15984000  1
  Cr  Cr8  1  -0.00343774  0.65923776  0.32797607  1
  Fe  Fe9  1  0.32816899  0.99284857  -0.00346877  1
  Cr  Cr10  1  0.49331175  0.16356794  0.16440088  1
  Ni  Ni11  1  0.32616736  -0.00126588  0.33008725  1
  Cr  Cr12  1  0.32945462  0.32747276  -0.00354607  1
  Cr  Cr13  1  0.49434815  0.49809211  0.15991339  1
  Ni  Ni14  1  0.32531838  0.32892765  0.33063662  1
  Ni  Ni15  1  0.32659764  0.66112372  0.99497392  1
  Cr  Cr16  1  0.49509248  0.82592220  0.16208645  1
  Cr  Cr17  1  0.32417395  0.65994316  0.33067258  1
  Cr  Cr18  1  0.66245862  -0.00057010  -0.00166763  1
  Cr  Cr19  1  0.83423820  0.16498605  0.16383831  1
  Cr  Cr20  1  0.66124298  -0.00289072  0.32875987  1
  Fe  Fe21  1  0.66477685  0.33310218  -0.00381513  1
  Fe  Fe22  1  0.82905243  0.49896255  0.16137977  1
  Cr  Cr23  1  0.66181194  0.32948062  0.32903809  1
  Ni  Ni24  1  0.66527401  0.66175511  0.99443835  1
  Fe  Fe25  1  0.82838799  0.82533429  0.15977653  1
  Cr  Cr26  1  0.66511497  0.66146639  0.33094366  1
  Cr  Cr27  1  0.16208079  0.16303103  0.49522798  1
  Fe  Fe28  1  -0.00142940  0.99372303  0.66219270  1
  Cr  Cr29  1  0.16140598  0.16000285  0.82757442  1
  Fe  Fe30  1  0.15939702  0.49314608  0.49583469  1
  Fe  Fe31  1  -0.00277526  0.33165504  0.66198688  1
  Cr  Cr32  1  0.16216552  0.49460380  0.82955402  1
  Fe  Fe33  1  0.16114376  0.83034500  0.49479886  1
  Cr  Cr34  1  -0.00280197  0.66278653  0.66206270  1
  Fe  Fe35  1  0.16310474  0.82730135  0.83127878  1
  Fe  Fe36  1  0.49417518  0.16417417  0.49454678  1
  Fe  Fe37  1  0.32758914  0.99500638  0.66094810  1
  Cr  Cr38  1  0.49381001  0.16269332  0.82979641  1
  Cr  Cr39  1  0.49498680  0.49567481  0.49657988  1
  Fe  Fe40  1  0.32787475  0.32849207  0.66142264  1
  Cr  Cr41  1  0.49652361  0.49846874  0.83140993  1
  Cr  Cr42  1  0.49339191  0.82866715  0.49340201  1
  Cr  Cr43  1  0.32541296  0.66239659  0.66106407  1
  Cr  Cr44  1  0.49466918  0.82693466  0.83152935  1
  Cr  Cr45  1  0.83460500  0.16422892  0.49613890  1
  Cr  Cr46  1  0.66094664  -0.00250044  0.65958522  1
  Cr  Cr47  1  0.83222776  0.16483828  0.82692979  1
  Ni  Ni48  1  0.83208155  0.49403629  0.49764115  1
  Cr  Cr49  1  0.66164777  0.32965394  0.66449581  1
  Fe  Fe50  1  0.82986033  0.49754285  0.82963496  1
  Cr  Cr51  1  0.82964866  0.82799489  0.49504972  1
  Fe  Fe52  1  0.66306746  0.66187718  0.66206036  1
  Cr  Cr53  1  0.82953716  0.82858729  0.82924247  1
" 