3322,Ni12Fe81Cr6_14,-226.809162542959, 160.038773504659,Ni12Fe81Cr6,"# generated using pymatgen
 data_Cr5Fe43Ni6
_symmetry_space_group_name_H-M   'P 1'
_cell_length_a   7.42825494
_cell_length_b   7.42825494
_cell_length_c   10.50513889
_cell_angle_alpha   90.00000000
_cell_angle_beta   90.00000000
_cell_angle_gamma   90.00000000
_symmetry_Int_Tables_number   1
_chemical_formula_structural   Cr5Fe43Ni6
_chemical_formula_sum   'Cr5 Fe43 Ni6'
_cell_volume   579.66275924
_cell_formula_units_Z   1
loop_
 _symmetry_equiv_pos_site_id
 _symmetry_equiv_pos_as_xyz
  1  'x, y, z'
loop_
 _atom_site_type_symbol
 _atom_site_label
 _atom_site_symmetry_multiplicity
 _atom_site_fract_x
 _atom_site_fract_y
 _atom_site_fract_z
 _atom_site_occupancy
  Fe  Fe0  1  1.00229836  1.00165331  1.00133028  1
  Cr  Cr1  1  0.16937292  0.16790775  0.17169860  1
  Fe  Fe2  1  0.99988239  1.00055904  0.33782304  1
  Fe  Fe3  1  1.00230098  0.33388660  1.00036537  1
  Cr  Cr4  1  0.16971384  0.50438717  0.16867490  1
  Fe  Fe5  1  0.99977845  0.33551491  0.33829922  1
  Fe  Fe6  1  0.00302557  0.67230913  1.00057872  1
  Fe  Fe7  1  0.16914651  0.83576869  0.16953692  1
  Fe  Fe8  1  1.00101153  0.67172424  0.33757636  1
  Ni  Ni9  1  0.33623911  1.00203302  0.00285198  1
  Fe  Fe10  1  0.50437086  0.16915544  0.16952250  1
  Fe  Fe11  1  0.33757775  0.99894109  0.33617879  1
  Fe  Fe12  1  0.33803384  0.33514200  1.00080637  1
  Fe  Fe13  1  0.50258342  0.50283068  0.16884154  1
  Fe  Fe14  1  0.33873186  0.33765970  0.33679188  1
  Fe  Fe15  1  0.33754167  0.67098626  1.00094001  1
  Fe  Fe16  1  0.50269848  0.83574091  0.16956896  1
  Fe  Fe17  1  0.33824292  0.67093856  0.33729767  1
  Fe  Fe18  1  0.66871937  0.00271415  0.00345643  1
  Fe  Fe19  1  0.83449190  0.16769321  0.17029702  1
  Ni  Ni20  1  0.66987775  1.00137540  0.33483566  1
  Fe  Fe21  1  0.66735264  0.33442192  1.00106546  1
  Cr  Cr22  1  0.83491165  0.50331904  0.16855775  1
  Fe  Fe23  1  0.66976439  0.33597078  0.33621007  1
  Fe  Fe24  1  0.66706476  0.67071155  1.00211724  1
  Fe  Fe25  1  0.83602979  0.83728503  0.16966857  1
  Ni  Ni26  1  0.66907200  0.66944083  0.33660596  1
  Fe  Fe27  1  0.16690371  0.16885586  0.50120710  1
  Fe  Fe28  1  1.00100413  1.00224109  0.66837925  1
  Fe  Fe29  1  0.16967362  0.17038152  0.83766371  1
  Fe  Fe30  1  0.16876727  0.50182707  0.50211199  1
  Fe  Fe31  1  1.00245093  0.33514293  0.66890068  1
  Fe  Fe32  1  0.16961224  0.50277515  0.83637302  1
  Ni  Ni33  1  0.16884007  0.83455014  0.50132805  1
  Fe  Fe34  1  0.00352429  0.67017190  0.66884839  1
  Fe  Fe35  1  0.16953175  0.83463262  0.83623571  1
  Cr  Cr36  1  0.50480211  0.16924716  0.50246028  1
  Cr  Cr37  1  0.33538065  1.00219216  0.66893589  1
  Fe  Fe38  1  0.50320143  0.16983319  0.83665683  1
  Fe  Fe39  1  0.50318255  0.50485376  0.50354494  1
  Fe  Fe40  1  0.33551321  0.33893192  0.67055815  1
  Ni  Ni41  1  0.50282759  0.50314456  0.83620535  1
  Fe  Fe42  1  0.50422617  0.83473512  0.50139866  1
  Fe  Fe43  1  0.33565906  0.66760281  0.66903002  1
  Fe  Fe44  1  0.50352468  0.83493169  0.83703247  1
  Ni  Ni45  1  0.83568022  0.16920225  0.50236721  1
  Fe  Fe46  1  0.67258167  1.00203056  0.66905957  1
  Fe  Fe47  1  0.83498008  0.16979579  0.83476861  1
  Fe  Fe48  1  0.83583169  0.50292834  0.50225325  1
  Fe  Fe49  1  0.67014595  0.33675015  0.67043636  1
  Fe  Fe50  1  0.83508217  0.50311706  0.83643771  1
  Fe  Fe51  1  0.83506227  0.83708425  0.50225147  1
  Fe  Fe52  1  0.66842480  0.66905565  0.66919894  1
  Fe  Fe53  1  0.83475340  0.83491731  0.83586155  1
" 