5688,Ni12Fe81Cr6_0,-227.00698336782, 157.536663462828,Ni12Fe81Cr6,"# generated using pymatgen
 data_Cr5Fe43Ni6
_symmetry_space_group_name_H-M   'P 1'
_cell_length_a   7.43065975
_cell_length_b   7.43065975
_cell_length_c   10.50853980
_cell_angle_alpha   90.00000000
_cell_angle_beta   90.00000000
_cell_angle_gamma   90.00000000
_symmetry_Int_Tables_number   1
_chemical_formula_structural   Cr5Fe43Ni6
_chemical_formula_sum   'Cr5 Fe43 Ni6'
_cell_volume   580.22591799
_cell_formula_units_Z   1
loop_
 _symmetry_equiv_pos_site_id
 _symmetry_equiv_pos_as_xyz
  1  'x, y, z'
loop_
 _atom_site_type_symbol
 _atom_site_label
 _atom_site_symmetry_multiplicity
 _atom_site_fract_x
 _atom_site_fract_y
 _atom_site_fract_z
 _atom_site_occupancy
  Fe  Fe0  1  1.00064197  0.00264925  1.00113154  1
  Fe  Fe1  1  0.16923906  0.17060581  0.16932073  1
  Fe  Fe2  1  1.00068277  0.00268612  0.33607435  1
  Fe  Fe3  1  1.00165786  0.33605292  1.00227277  1
  Fe  Fe4  1  0.16913899  0.50087006  0.16922987  1
  Fe  Fe5  1  1.00136628  0.33631109  0.33529417  1
  Fe  Fe6  1  1.00100330  0.66864332  1.00134393  1
  Cr  Cr7  1  0.16888424  0.83597457  0.16871048  1
  Fe  Fe8  1  1.00191647  0.66834562  0.33672429  1
  Fe  Fe9  1  0.33704649  0.00261391  1.00188870  1
  Fe  Fe10  1  0.50202742  0.16893231  0.16922999  1
  Fe  Fe11  1  0.33730180  1.00232163  0.33568166  1
  Fe  Fe12  1  0.33629975  0.33636140  1.00199033  1
  Fe  Fe13  1  0.50251985  0.50293466  0.16904534  1
  Fe  Fe14  1  0.33577877  0.33583972  0.33474124  1
  Fe  Fe15  1  0.33699321  0.66837058  1.00186023  1
  Fe  Fe16  1  0.50415461  0.83547925  0.16892710  1
  Fe  Fe17  1  0.33559764  0.66918581  0.33576651  1
  Fe  Fe18  1  0.66965985  1.00195865  1.00196395  1
  Fe  Fe19  1  0.83607937  0.16896822  0.16926584  1
  Fe  Fe20  1  0.66936017  0.00286902  0.33610446  1
  Fe  Fe21  1  0.66938929  0.33599899  1.00215339  1
  Fe  Fe22  1  0.83568782  0.50299786  0.16892750  1
  Fe  Fe23  1  0.67019821  0.33460860  0.33547522  1
  Ni  Ni24  1  0.66987339  0.66947252  0.00268056  1
  Fe  Fe25  1  0.83401545  0.83538032  0.16832150  1
  Fe  Fe26  1  0.66983089  0.66986860  0.33499662  1
  Cr  Cr27  1  0.16773936  0.16927853  0.50319897  1
  Fe  Fe28  1  1.00067301  0.00367072  0.67014233  1
  Fe  Fe29  1  0.16835796  0.16886355  0.83534341  1
  Fe  Fe30  1  0.16811753  0.50234373  0.50190718  1
  Fe  Fe31  1  0.00273618  0.33503386  0.66978145  1
  Fe  Fe32  1  0.16912326  0.50128208  0.83620749  1
  Fe  Fe33  1  0.16955663  0.83540855  0.50130422  1
  Cr  Cr34  1  1.00106263  0.66938103  0.66862459  1
  Fe  Fe35  1  0.16873491  0.83719720  0.83677413  1
  Fe  Fe36  1  0.50333705  0.16713802  0.50184399  1
  Fe  Fe37  1  0.33707246  1.00165338  0.66977581  1
  Fe  Fe38  1  0.50228021  0.16813884  0.83627466  1
  Cr  Cr39  1  0.50160250  0.50384947  0.50256409  1
  Ni  Ni40  1  0.33442201  0.33431899  0.67048260  1
  Fe  Fe41  1  0.50301126  0.50350747  0.83603633  1
  Fe  Fe42  1  0.50302850  0.83771373  0.50261951  1
  Fe  Fe43  1  0.33718016  0.66905850  0.66972000  1
  Fe  Fe44  1  0.50412445  0.83569833  0.83580065  1
  Ni  Ni45  1  0.83608005  0.16788209  0.50185544  1
  Fe  Fe46  1  0.66960081  1.00107928  0.66927873  1
  Ni  Ni47  1  0.83718480  0.16764347  0.83632970  1
  Fe  Fe48  1  0.83721320  0.50202902  0.50102992  1
  Cr  Cr49  1  0.66950286  0.33497460  0.66989994  1
  Fe  Fe50  1  0.83520881  0.50312826  0.83738766  1
  Fe  Fe51  1  0.83476000  0.83674337  0.50242133  1
  Ni  Ni52  1  0.66939640  0.67175291  0.66954652  1
  Ni  Ni53  1  0.83476678  0.83714888  0.83694576  1
" 