2432,Ni12Fe54Cr33_12,-222.476055880123, 172.287195040393,Ni12Fe54Cr33,"# generated using pymatgen
 data_Cr19Fe29Ni6
_symmetry_space_group_name_H-M   'P 1'
_cell_length_a   7.49114154
_cell_length_b   7.49114154
_cell_length_c   10.59407396
_cell_angle_alpha   90.00000000
_cell_angle_beta   90.00000000
_cell_angle_gamma   90.00000000
_symmetry_Int_Tables_number   1
_chemical_formula_structural   Cr19Fe29Ni6
_chemical_formula_sum   'Cr19 Fe29 Ni6'
_cell_volume   594.50978339
_cell_formula_units_Z   1
loop_
 _symmetry_equiv_pos_site_id
 _symmetry_equiv_pos_as_xyz
  1  'x, y, z'
loop_
 _atom_site_type_symbol
 _atom_site_label
 _atom_site_symmetry_multiplicity
 _atom_site_fract_x
 _atom_site_fract_y
 _atom_site_fract_z
 _atom_site_occupancy
  Cr  Cr0  1  -0.00094190  -0.00002697  -0.00078312  1
  Fe  Fe1  1  0.16330402  0.16436869  0.16355258  1
  Fe  Fe2  1  0.99807861  0.99777296  0.32994000  1
  Ni  Ni3  1  0.99611799  0.33276374  -0.00157229  1
  Fe  Fe4  1  0.16177922  0.49742485  0.16302110  1
  Cr  Cr5  1  0.00081142  0.32911048  0.32643136  1
  Fe  Fe6  1  0.99692697  0.66415724  0.99712752  1
  Cr  Cr7  1  0.16633348  0.83070128  0.16420681  1
  Cr  Cr8  1  0.99693712  0.66389527  0.32900671  1
  Fe  Fe9  1  0.33175703  0.99725002  0.99484200  1
  Cr  Cr10  1  0.49992528  0.16584269  0.15987467  1
  Cr  Cr11  1  0.33132933  0.00020039  0.33130729  1
  Cr  Cr12  1  0.32570997  0.33106663  -0.00145377  1
  Cr  Cr13  1  0.49750347  0.49982291  0.16854993  1
  Fe  Fe14  1  0.33146580  0.33046057  0.33218935  1
  Cr  Cr15  1  0.33194821  0.66598104  0.99657071  1
  Fe  Fe16  1  0.50254743  0.83306268  0.16291548  1
  Cr  Cr17  1  0.33337078  0.66516076  0.33323473  1
  Fe  Fe18  1  0.66625385  0.99698972  0.99811984  1
  Ni  Ni19  1  0.83207720  0.16451406  0.16327700  1
  Cr  Cr20  1  0.66585654  0.99629303  0.33178234  1
  Fe  Fe21  1  0.66686593  0.33565350  0.99789134  1
  Fe  Fe22  1  0.83103466  0.49895094  0.16105444  1
  Cr  Cr23  1  0.66620891  0.33132890  0.33247652  1
  Ni  Ni24  1  0.66622219  0.66854718  0.00036396  1
  Ni  Ni25  1  0.83299266  0.83280916  0.16464317  1
  Fe  Fe26  1  0.66656213  0.66629920  0.33160674  1
  Fe  Fe27  1  0.16533266  0.16514177  0.50044383  1
  Fe  Fe28  1  -0.00105976  0.99721522  0.66749279  1
  Fe  Fe29  1  0.16404364  0.16425186  0.83056546  1
  Cr  Cr30  1  0.16771270  0.49986161  0.50118453  1
  Fe  Fe31  1  0.99779306  0.33182626  0.66822072  1
  Fe  Fe32  1  0.16189786  0.49855543  0.83017581  1
  Fe  Fe33  1  0.16288266  0.83459878  0.50101108  1
  Fe  Fe34  1  -0.00140529  0.66664267  0.66705088  1
  Ni  Ni35  1  0.16567256  0.83085263  0.82891879  1
  Fe  Fe36  1  0.49663707  0.16704337  0.50067782  1
  Fe  Fe37  1  0.33109317  -0.00147904  0.66563779  1
  Fe  Fe38  1  0.49493213  0.16302941  0.83287395  1
  Fe  Fe39  1  0.49854563  0.49602555  0.50055913  1
  Fe  Fe40  1  0.33271788  0.32919753  0.66648262  1
  Cr  Cr41  1  0.50041761  0.49693858  0.82990865  1
  Fe  Fe42  1  0.49693874  0.83169301  0.49911893  1
  Fe  Fe43  1  0.33235021  0.66718551  0.66655645  1
  Fe  Fe44  1  0.49894252  0.83253074  0.83311757  1
  Cr  Cr45  1  0.83357421  0.16225675  0.49975715  1
  Cr  Cr46  1  0.66414401  0.99763540  0.66641854  1
  Cr  Cr47  1  0.82815475  0.16722074  0.83263518  1
  Cr  Cr48  1  0.83118619  0.49639099  0.50049029  1
  Ni  Ni49  1  0.66399325  0.33074333  0.66662055  1
  Fe  Fe50  1  0.83322883  0.50117761  0.83237389  1
  Fe  Fe51  1  0.83518432  0.83080356  0.49760367  1
  Cr  Cr52  1  0.66633755  0.66594825  0.66280887  1
  Fe  Fe53  1  0.83293285  0.82947086  0.83427795  1
" 