4999,Ni12Fe32Cr54_9,-216.056314534352, 180.203807399109,Ni12Fe32Cr54,"# generated using pymatgen
 data_Cr31Fe17Ni6
_symmetry_space_group_name_H-M   'P 1'
_cell_length_a   7.52927275
_cell_length_b   7.52927275
_cell_length_c   10.64799963
_cell_angle_alpha   90.00000000
_cell_angle_beta   90.00000000
_cell_angle_gamma   90.00000000
_symmetry_Int_Tables_number   1
_chemical_formula_structural   Cr31Fe17Ni6
_chemical_formula_sum   'Cr31 Fe17 Ni6'
_cell_volume   603.63454642
_cell_formula_units_Z   1
loop_
 _symmetry_equiv_pos_site_id
 _symmetry_equiv_pos_as_xyz
  1  'x, y, z'
loop_
 _atom_site_type_symbol
 _atom_site_label
 _atom_site_symmetry_multiplicity
 _atom_site_fract_x
 _atom_site_fract_y
 _atom_site_fract_z
 _atom_site_occupancy
  Cr  Cr0  1  0.99519098  -0.00326461  -0.00196026  1
  Cr  Cr1  1  0.16286511  0.16072554  0.16536290  1
  Fe  Fe2  1  0.99385524  -0.00307503  0.32840476  1
  Fe  Fe3  1  0.99431134  0.32815742  -0.00110497  1
  Cr  Cr4  1  0.16506017  0.49578488  0.16542891  1
  Cr  Cr5  1  0.99305167  0.33130054  0.32810814  1
  Cr  Cr6  1  -0.00358862  0.66013133  -0.00210493  1
  Cr  Cr7  1  0.16369162  0.83068129  0.16441568  1
  Fe  Fe8  1  0.99554179  0.66372253  0.32925782  1
  Cr  Cr9  1  0.33046582  0.99380637  0.99287724  1
  Fe  Fe10  1  0.49790885  0.15981548  0.16451251  1
  Ni  Ni11  1  0.33101959  0.99269744  0.32645131  1
  Cr  Cr12  1  0.33195319  0.32850786  -0.00046878  1
  Fe  Fe13  1  0.49978960  0.49503663  0.16316288  1
  Fe  Fe14  1  0.33289994  0.32782508  0.32667125  1
  Cr  Cr15  1  0.32937844  0.66310798  -0.00392693  1
  Ni  Ni16  1  0.49587386  0.82715476  0.16256195  1
  Fe  Fe17  1  0.33190713  0.66297984  0.32762489  1
  Cr  Cr18  1  0.66144740  -0.00166946  -0.00412148  1
  Ni  Ni19  1  0.82668335  0.16590294  0.16210789  1
  Cr  Cr20  1  0.66296876  -0.00369540  0.33090711  1
  Ni  Ni21  1  0.66600392  0.32986276  0.00103083  1
  Fe  Fe22  1  0.82780804  0.49467079  0.16202783  1
  Ni  Ni23  1  0.66242745  0.32918730  0.32503383  1
  Fe  Fe24  1  0.66125359  0.66196236  -0.00040386  1
  Cr  Cr25  1  0.82798829  0.83039723  0.16446769  1
  Cr  Cr26  1  0.66364411  0.66169607  0.32773709  1
  Cr  Cr27  1  0.16486685  0.16254853  0.49150468  1
  Cr  Cr28  1  0.99467193  -0.00354813  0.66258319  1
  Cr  Cr29  1  0.16150915  0.16295774  0.83059532  1
  Fe  Fe30  1  0.16043361  0.49770800  0.49269443  1
  Fe  Fe31  1  0.99572634  0.32993205  0.66157315  1
  Cr  Cr32  1  0.16091421  0.49420764  0.82692144  1
  Cr  Cr33  1  0.16174659  0.83055320  0.49169961  1
  Fe  Fe34  1  0.99485983  0.66326326  0.66117978  1
  Fe  Fe35  1  0.16056691  0.82713110  0.82932235  1
  Cr  Cr36  1  0.49438779  0.16279641  0.49302948  1
  Cr  Cr37  1  0.33112047  0.99498642  0.66720076  1
  Fe  Fe38  1  0.49901510  0.16544680  0.83058477  1
  Cr  Cr39  1  0.49410723  0.49500720  0.49198387  1
  Cr  Cr40  1  0.32681545  0.33033776  0.65952125  1
  Cr  Cr41  1  0.49772760  0.49591988  0.83198728  1
  Fe  Fe42  1  0.49542298  0.82984472  0.49296426  1
  Cr  Cr43  1  0.32669018  0.66318255  0.66153327  1
  Fe  Fe44  1  0.49661308  0.82782570  0.83059774  1
  Cr  Cr45  1  0.82927130  0.16155995  0.49610678  1
  Cr  Cr46  1  0.66222691  0.99498354  0.66142339  1
  Fe  Fe47  1  0.82806502  0.16517933  0.83181969  1
  Cr  Cr48  1  0.82798236  0.49781429  0.49728345  1
  Cr  Cr49  1  0.66301380  0.32789720  0.66251830  1
  Cr  Cr50  1  0.82761246  0.49528068  0.83168923  1
  Ni  Ni51  1  0.83155006  0.82746227  0.49435353  1
  Cr  Cr52  1  0.66072973  0.66511225  0.66038658  1
  Cr  Cr53  1  0.82781286  0.82806016  0.82974156  1
" 