72,Ni12Fe54Cr33_0,-222.793205215907, 172.590159528667,Ni12Fe54Cr33,"# generated using pymatgen
 data_Cr19Fe29Ni6
_symmetry_space_group_name_H-M   'P 1'
_cell_length_a   7.49922476
_cell_length_b   7.49922476
_cell_length_c   10.60550537
_cell_angle_alpha   90.00000000
_cell_angle_beta   90.00000000
_cell_angle_gamma   90.00000000
_symmetry_Int_Tables_number   1
_chemical_formula_structural   Cr19Fe29Ni6
_chemical_formula_sum   'Cr19 Fe29 Ni6'
_cell_volume   596.43635634
_cell_formula_units_Z   1
loop_
 _symmetry_equiv_pos_site_id
 _symmetry_equiv_pos_as_xyz
  1  'x, y, z'
loop_
 _atom_site_type_symbol
 _atom_site_label
 _atom_site_symmetry_multiplicity
 _atom_site_fract_x
 _atom_site_fract_y
 _atom_site_fract_z
 _atom_site_occupancy
  Fe  Fe0  1  0.99427428  0.99782159  0.99487558  1
  Fe  Fe1  1  0.16199290  0.16526979  0.16270083  1
  Cr  Cr2  1  -0.00140401  0.00027974  0.33144723  1
  Fe  Fe3  1  0.99546530  0.32767995  0.99759081  1
  Cr  Cr4  1  0.16405172  0.49767933  0.15906054  1
  Ni  Ni5  1  0.99653536  0.32844359  0.33071586  1
  Fe  Fe6  1  0.99461393  0.66724777  0.99518229  1
  Cr  Cr7  1  0.16430409  0.82827381  0.16207253  1
  Cr  Cr8  1  -0.00100220  0.66570586  0.33398542  1
  Cr  Cr9  1  0.32718168  0.99715707  0.99753093  1
  Cr  Cr10  1  0.50069512  0.16119424  0.16416434  1
  Cr  Cr11  1  0.32952193  0.99617145  0.33282812  1
  Fe  Fe12  1  0.33599279  0.33153312  0.99745763  1
  Fe  Fe13  1  0.50029672  0.49856275  0.16102058  1
  Cr  Cr14  1  0.33034723  0.33124111  0.33047855  1
  Fe  Fe15  1  0.33569858  0.66491282  0.99531037  1
  Fe  Fe16  1  0.49909901  0.82806975  0.16198212  1
  Cr  Cr17  1  0.33586354  0.66495294  0.33150181  1
  Fe  Fe18  1  0.66478548  0.99771913  0.99537714  1
  Fe  Fe19  1  0.83223277  0.16575391  0.16276769  1
  Fe  Fe20  1  0.66361823  0.99578972  0.33108092  1
  Ni  Ni21  1  0.66715146  0.33344478  0.99661747  1
  Cr  Cr22  1  0.83377035  0.49878309  0.16665337  1
  Fe  Fe23  1  0.66396048  0.33183373  0.32971697  1
  Ni  Ni24  1  0.66401961  0.66359215  0.99572667  1
  Cr  Cr25  1  0.82849986  0.83252375  0.16272276  1
  Fe  Fe26  1  0.66310000  0.66467445  0.33120160  1
  Fe  Fe27  1  0.16291865  0.16428364  0.50078795  1
  Fe  Fe28  1  -0.00195004  0.99779331  0.66664357  1
  Fe  Fe29  1  0.16398288  0.16242980  0.83013266  1
  Cr  Cr30  1  0.16382920  0.49877055  0.49973692  1
  Fe  Fe31  1  -0.00138467  0.32857366  0.66503210  1
  Cr  Cr32  1  0.16460063  0.49812167  0.83472991  1
  Fe  Fe33  1  0.16625848  0.83293973  0.50263720  1
  Fe  Fe34  1  -0.00113171  0.66729073  0.66609420  1
  Ni  Ni35  1  0.16386583  0.83005495  0.83051827  1
  Cr  Cr36  1  0.49671604  0.16275156  0.50045783  1
  Fe  Fe37  1  0.33057544  0.99430162  0.66625127  1
  Cr  Cr38  1  0.49941475  0.16480228  0.82916515  1
  Fe  Fe39  1  0.49989015  0.49966857  0.50034324  1
  Fe  Fe40  1  0.33075113  0.33251744  0.66559774  1
  Fe  Fe41  1  0.49835097  0.50113344  0.83176006  1
  Ni  Ni42  1  0.49737073  0.83223621  0.49821648  1
  Fe  Fe43  1  0.33355894  0.66720499  0.66609043  1
  Ni  Ni44  1  0.49752073  0.83357743  0.83258418  1
  Cr  Cr45  1  0.82740605  0.16517765  0.49729614  1
  Fe  Fe46  1  0.66413114  0.99445314  0.66658366  1
  Fe  Fe47  1  0.83225584  0.16222023  0.83083518  1
  Cr  Cr48  1  0.83245979  0.49775671  0.49754355  1
  Fe  Fe49  1  0.66442257  0.33271300  0.66637651  1
  Cr  Cr50  1  0.83316568  0.49797150  0.82935614  1
  Cr  Cr51  1  0.82950216  0.83057512  0.49937048  1
  Fe  Fe52  1  0.66107486  0.66658469  0.66676128  1
  Fe  Fe53  1  0.82992784  0.83193528  0.83147803  1
" 