5647,Ni12Fe81Cr6_5,-227.09727015409, 163.456982399545,Ni12Fe81Cr6,"# generated using pymatgen
 data_Cr5Fe43Ni6
_symmetry_space_group_name_H-M   'P 1'
_cell_length_a   7.42425671
_cell_length_b   7.42425671
_cell_length_c   10.49948453
_cell_angle_alpha   90.00000000
_cell_angle_beta   90.00000000
_cell_angle_gamma   90.00000000
_symmetry_Int_Tables_number   1
_chemical_formula_structural   Cr5Fe43Ni6
_chemical_formula_sum   'Cr5 Fe43 Ni6'
_cell_volume   578.72725902
_cell_formula_units_Z   1
loop_
 _symmetry_equiv_pos_site_id
 _symmetry_equiv_pos_as_xyz
  1  'x, y, z'
loop_
 _atom_site_type_symbol
 _atom_site_label
 _atom_site_symmetry_multiplicity
 _atom_site_fract_x
 _atom_site_fract_y
 _atom_site_fract_z
 _atom_site_occupancy
  Cr  Cr0  1  1.00217147  1.00209797  0.00291722  1
  Fe  Fe1  1  0.16950432  0.16853290  0.17145511  1
  Fe  Fe2  1  0.00346103  1.00236491  0.33648914  1
  Fe  Fe3  1  1.00212727  0.33703960  0.00358216  1
  Fe  Fe4  1  0.16817036  0.50445506  0.17012493  1
  Fe  Fe5  1  0.00347571  0.33555220  0.33617584  1
  Fe  Fe6  1  0.00368111  0.66870589  0.00352909  1
  Fe  Fe7  1  0.16844814  0.83565969  0.17122906  1
  Fe  Fe8  1  0.00345009  0.67073024  0.33662016  1
  Fe  Fe9  1  0.33711954  1.00211189  1.00260135  1
  Fe  Fe10  1  0.50400251  0.16943741  0.17058802  1
  Ni  Ni11  1  0.33531864  0.00404675  0.33600247  1
  Cr  Cr12  1  0.33691414  0.33670571  0.00309510  1
  Fe  Fe13  1  0.50439366  0.50261225  0.17086468  1
  Fe  Fe14  1  0.33658229  0.33593753  0.33620952  1
  Fe  Fe15  1  0.33521071  0.67046008  1.00193928  1
  Cr  Cr16  1  0.50231994  0.83707725  0.16970901  1
  Fe  Fe17  1  0.33544759  0.66919276  0.33762600  1
  Fe  Fe18  1  0.66879143  0.00366206  1.00230246  1
  Fe  Fe19  1  0.83513881  0.16970742  0.17026915  1
  Fe  Fe20  1  0.67013099  0.00349811  0.33652789  1
  Fe  Fe21  1  0.67054346  0.33512917  0.00366578  1
  Fe  Fe22  1  0.83608624  0.50366344  0.16919469  1
  Fe  Fe23  1  0.66858984  0.33594533  0.33655904  1
  Fe  Fe24  1  0.66975508  0.66985104  0.00325377  1
  Ni  Ni25  1  0.83699767  0.83526931  0.16990647  1
  Fe  Fe26  1  0.66974807  0.66920087  0.33692498  1
  Fe  Fe27  1  0.17103051  0.16809632  0.50196370  1
  Ni  Ni28  1  1.00244576  1.00042211  0.66886569  1
  Fe  Fe29  1  0.16994990  0.16869778  0.83522585  1
  Fe  Fe30  1  0.17066387  0.50461597  0.50235601  1
  Cr  Cr31  1  0.00431366  0.33537041  0.66941029  1
  Fe  Fe32  1  0.17092838  0.50480158  0.83616620  1
  Ni  Ni33  1  0.16906847  0.83708797  0.50269591  1
  Ni  Ni34  1  0.00339199  0.67295819  0.66891511  1
  Fe  Fe35  1  0.16968105  0.83514887  0.83418024  1
  Fe  Fe36  1  0.50201898  0.16933867  0.50251853  1
  Fe  Fe37  1  0.33444106  1.00228052  0.66881444  1
  Fe  Fe38  1  0.50395490  0.16890108  0.83553597  1
  Ni  Ni39  1  0.50345807  0.50213325  0.50355205  1
  Fe  Fe40  1  0.33714891  0.33660965  0.66965360  1
  Fe  Fe41  1  0.50203361  0.50366076  0.83486721  1
  Fe  Fe42  1  0.50191959  0.83591933  0.50228219  1
  Fe  Fe43  1  0.33484128  0.66975619  0.66907715  1
  Fe  Fe44  1  0.50308185  0.83608599  0.83671454  1
  Fe  Fe45  1  0.83559257  0.16857922  0.50242784  1
  Fe  Fe46  1  0.67112438  1.00261122  0.66981526  1
  Fe  Fe47  1  0.83474432  0.16765452  0.83594591  1
  Fe  Fe48  1  0.83557826  0.50451419  0.50255625  1
  Fe  Fe49  1  0.66782654  0.33565932  0.66843264  1
  Cr  Cr50  1  0.83632673  0.50308057  0.83739501  1
  Fe  Fe51  1  0.83681471  0.83555204  0.50299095  1
  Fe  Fe52  1  0.66978183  0.67037199  0.66847297  1
  Fe  Fe53  1  0.83587755  0.83706431  0.83542499  1
" 