5856,Ni12Fe54Cr33_14,-222.550776938522, 171.751865948544,Ni12Fe54Cr33,"# generated using pymatgen
 data_Cr19Fe29Ni6
_symmetry_space_group_name_H-M   'P 1'
_cell_length_a   7.49745403
_cell_length_b   7.49745403
_cell_length_c   10.60300117
_cell_angle_alpha   90.00000000
_cell_angle_beta   90.00000000
_cell_angle_gamma   90.00000000
_symmetry_Int_Tables_number   1
_chemical_formula_structural   Cr19Fe29Ni6
_chemical_formula_sum   'Cr19 Fe29 Ni6'
_cell_volume   596.01396001
_cell_formula_units_Z   1
loop_
 _symmetry_equiv_pos_site_id
 _symmetry_equiv_pos_as_xyz
  1  'x, y, z'
loop_
 _atom_site_type_symbol
 _atom_site_label
 _atom_site_symmetry_multiplicity
 _atom_site_fract_x
 _atom_site_fract_y
 _atom_site_fract_z
 _atom_site_occupancy
  Fe  Fe0  1  0.99738374  -0.00132010  -0.00198322  1
  Fe  Fe1  1  0.16369090  0.16953603  0.16415311  1
  Fe  Fe2  1  -0.00092104  0.00239760  0.33034871  1
  Ni  Ni3  1  0.00214951  0.33216005  0.99717441  1
  Ni  Ni4  1  0.16567485  0.49749207  0.16429762  1
  Ni  Ni5  1  -0.00020398  0.33436811  0.33261514  1
  Ni  Ni6  1  0.00139873  0.66177028  -0.00154251  1
  Cr  Cr7  1  0.16296015  0.83088555  0.16402679  1
  Fe  Fe8  1  0.00137271  0.66127456  0.33098069  1
  Fe  Fe9  1  0.33073685  0.99708794  -0.00063737  1
  Fe  Fe10  1  0.49617424  0.16520430  0.16233692  1
  Cr  Cr11  1  0.33283616  -0.00020443  0.32792397  1
  Fe  Fe12  1  0.32990025  0.33203488  -0.00078315  1
  Cr  Cr13  1  0.49714573  0.49451023  0.16445104  1
  Ni  Ni14  1  0.32842513  0.33285843  0.32922272  1
  Fe  Fe15  1  0.32955898  0.66375885  0.99752034  1
  Fe  Fe16  1  0.49695599  0.83000955  0.16302536  1
  Fe  Fe17  1  0.33048940  0.66233050  0.33100215  1
  Ni  Ni18  1  0.66086815  -0.00105252  0.99787827  1
  Cr  Cr19  1  0.83116234  0.16577348  0.16264861  1
  Cr  Cr20  1  0.66343137  0.99575762  0.32976473  1
  Fe  Fe21  1  0.66630892  0.33042085  -0.00186546  1
  Cr  Cr22  1  0.83301884  0.49809063  0.16536655  1
  Fe  Fe23  1  0.66469055  0.33087157  0.33228769  1
  Cr  Cr24  1  0.66383059  0.66737431  -0.00129858  1
  Cr  Cr25  1  0.83323342  0.82956785  0.16514082  1
  Fe  Fe26  1  0.66238285  0.66086583  0.33243938  1
  Cr  Cr27  1  0.16519279  0.16401337  0.49708049  1
  Fe  Fe28  1  0.99650636  -0.00103775  0.66500232  1
  Cr  Cr29  1  0.16514823  0.16264503  0.83164756  1
  Fe  Fe30  1  0.16509035  0.49787030  0.49529503  1
  Fe  Fe31  1  0.99525073  0.33015863  0.66445583  1
  Fe  Fe32  1  0.16602260  0.49821585  0.83440701  1
  Cr  Cr33  1  0.16514019  0.83071703  0.49860762  1
  Cr  Cr34  1  -0.00069430  0.66057529  0.66639486  1
  Fe  Fe35  1  0.16701219  0.82968936  0.83278473  1
  Cr  Cr36  1  0.49750249  0.16774838  0.49839726  1
  Fe  Fe37  1  0.33263629  0.99527400  0.66551637  1
  Cr  Cr38  1  0.49825674  0.16738156  0.83240773  1
  Fe  Fe39  1  0.49623321  0.49943666  0.49548001  1
  Cr  Cr40  1  0.32784796  0.33429938  0.66432064  1
  Fe  Fe41  1  0.49565673  0.49924653  0.83244666  1
  Fe  Fe42  1  0.49655547  0.83093632  0.49782446  1
  Fe  Fe43  1  0.33162697  0.66503767  0.66576385  1
  Fe  Fe44  1  0.49581707  0.83248443  0.83193320  1
  Fe  Fe45  1  0.83208965  0.16621916  0.49730581  1
  Fe  Fe46  1  0.66572824  -0.00074189  0.66527140  1
  Fe  Fe47  1  0.83166770  0.16463526  0.83341376  1
  Fe  Fe48  1  0.83168347  0.49518076  0.49659054  1
  Fe  Fe49  1  0.66662385  0.33205452  0.66432983  1
  Cr  Cr50  1  0.82990352  0.49634371  0.83466973  1
  Cr  Cr51  1  0.83363850  0.83014186  0.49442329  1
  Cr  Cr52  1  0.66350768  0.66589250  0.66388340  1
  Cr  Cr53  1  0.83419970  0.83225778  0.83435164  1
" 