3080,Ni12Fe57Cr29_1,-223.20755287733, 169.926673366022,Ni12Fe57Cr29,"# generated using pymatgen
 data_Cr17Fe31Ni6
_symmetry_space_group_name_H-M   'P 1'
_cell_length_a   7.48029278
_cell_length_b   7.48029278
_cell_length_c   10.57873150
_cell_angle_alpha   90.00000000
_cell_angle_beta   90.00000000
_cell_angle_gamma   90.00000000
_symmetry_Int_Tables_number   1
_chemical_formula_structural   Cr17Fe31Ni6
_chemical_formula_sum   'Cr17 Fe31 Ni6'
_cell_volume   591.93059448
_cell_formula_units_Z   1
loop_
 _symmetry_equiv_pos_site_id
 _symmetry_equiv_pos_as_xyz
  1  'x, y, z'
loop_
 _atom_site_type_symbol
 _atom_site_label
 _atom_site_symmetry_multiplicity
 _atom_site_fract_x
 _atom_site_fract_y
 _atom_site_fract_z
 _atom_site_occupancy
  Fe  Fe0  1  -0.00039575  0.99780687  -0.00005151  1
  Cr  Cr1  1  0.16381048  0.16316636  0.16634272  1
  Ni  Ni2  1  -0.00014038  0.99725824  0.33024310  1
  Fe  Fe3  1  0.99869794  0.33229400  0.99901546  1
  Cr  Cr4  1  0.16853183  0.50210062  0.16441416  1
  Cr  Cr5  1  0.00098818  0.33166897  0.33443715  1
  Fe  Fe6  1  0.99808559  0.66740033  0.99871575  1
  Ni  Ni7  1  0.16569397  0.83318796  0.16366748  1
  Cr  Cr8  1  -0.00065017  0.66937577  0.33194993  1
  Fe  Fe9  1  0.33065611  0.99871753  0.99757924  1
  Fe  Fe10  1  0.49631140  0.16580462  0.16669175  1
  Fe  Fe11  1  0.33186063  0.99774717  0.33224575  1
  Fe  Fe12  1  0.33226148  0.33178609  0.99846962  1
  Ni  Ni13  1  0.49757287  0.50020995  0.16598495  1
  Fe  Fe14  1  0.33179629  0.33440592  0.33372063  1
  Fe  Fe15  1  0.33252343  0.66685141  0.99874615  1
  Cr  Cr16  1  0.49535426  0.83086023  0.16605455  1
  Fe  Fe17  1  0.33256434  0.66485559  0.33316322  1
  Cr  Cr18  1  0.66549407  0.99855314  0.00024828  1
  Ni  Ni19  1  0.83262950  0.16380687  0.16659845  1
  Fe  Fe20  1  0.66836496  0.99761365  0.33120422  1
  Cr  Cr21  1  0.66362110  0.33352626  0.00298049  1
  Fe  Fe22  1  0.83318829  0.50020055  0.16390739  1
  Cr  Cr23  1  0.66202263  0.33356660  0.32817917  1
  Fe  Fe24  1  0.66687684  0.66565727  0.00013839  1
  Fe  Fe25  1  0.83562247  0.83393793  0.16491287  1
  Cr  Cr26  1  0.66467318  0.66644606  0.33170478  1
  Fe  Fe27  1  0.16725638  0.16540981  0.49755405  1
  Cr  Cr28  1  0.00155706  0.99674262  0.66490739  1
  Fe  Fe29  1  0.16771675  0.16595744  0.83438691  1
  Ni  Ni30  1  0.16797396  0.50042162  0.50104131  1
  Fe  Fe31  1  0.00165151  0.33457296  0.66637535  1
  Fe  Fe32  1  0.16313791  0.49965439  0.83268090  1
  Cr  Cr33  1  0.16895089  0.83133194  0.49630928  1
  Fe  Fe34  1  0.00120012  0.66420738  0.66711197  1
  Fe  Fe35  1  0.16660422  0.83142117  0.83437432  1
  Cr  Cr36  1  0.50120581  0.16224132  0.49798778  1
  Fe  Fe37  1  0.33413178  0.99667806  0.66725956  1
  Fe  Fe38  1  0.49703622  0.16402871  0.83160945  1
  Fe  Fe39  1  0.49632662  0.50239889  0.49910329  1
  Cr  Cr40  1  0.33124811  0.33177452  0.66412935  1
  Cr  Cr41  1  0.49953413  0.50224755  0.83188654  1
  Ni  Ni42  1  0.49860329  0.83161849  0.50168411  1
  Fe  Fe43  1  0.33175398  0.66787105  0.66527051  1
  Fe  Fe44  1  0.49859872  0.83385705  0.83100195  1
  Cr  Cr45  1  0.83314615  0.16405081  0.49938055  1
  Fe  Fe46  1  0.66285006  0.99605795  0.66688540  1
  Cr  Cr47  1  0.83291761  0.16795058  0.83008198  1
  Cr  Cr48  1  0.83351103  0.49782847  0.50431397  1
  Fe  Fe49  1  0.66554585  0.33274538  0.66694244  1
  Fe  Fe50  1  0.83452399  0.50176853  0.83150283  1
  Fe  Fe51  1  0.83010034  0.83282441  0.49940834  1
  Fe  Fe52  1  0.66503841  0.66869872  0.66535177  1
  Fe  Fe53  1  0.83205527  0.82902599  0.83238637  1
" 