7631,Ni12Fe57Cr29_17,-223.411327006181, 176.9460128901,Ni12Fe57Cr29,"# generated using pymatgen
 data_Cr17Fe31Ni6
_symmetry_space_group_name_H-M   'P 1'
_cell_length_a   7.47898387
_cell_length_b   7.47898387
_cell_length_c   10.57688042
_cell_angle_alpha   90.00000000
_cell_angle_beta   90.00000000
_cell_angle_gamma   90.00000000
_symmetry_Int_Tables_number   1
_chemical_formula_structural   Cr17Fe31Ni6
_chemical_formula_sum   'Cr17 Fe31 Ni6'
_cell_volume   591.61991895
_cell_formula_units_Z   1
loop_
 _symmetry_equiv_pos_site_id
 _symmetry_equiv_pos_as_xyz
  1  'x, y, z'
loop_
 _atom_site_type_symbol
 _atom_site_label
 _atom_site_symmetry_multiplicity
 _atom_site_fract_x
 _atom_site_fract_y
 _atom_site_fract_z
 _atom_site_occupancy
  Fe  Fe0  1  -0.00051952  0.99831504  0.00015772  1
  Fe  Fe1  1  0.16839490  0.16356099  0.16514137  1
  Fe  Fe2  1  0.00037214  0.99626410  0.33051802  1
  Fe  Fe3  1  0.00005430  0.33463168  -0.00044955  1
  Fe  Fe4  1  0.16842554  0.50101566  0.16473769  1
  Cr  Cr5  1  0.00317364  0.33229655  0.33203598  1
  Fe  Fe6  1  -0.00007524  0.66479615  0.00051811  1
  Ni  Ni7  1  0.16488783  0.83119398  0.16620756  1
  Fe  Fe8  1  0.00071136  0.66802067  0.33018301  1
  Fe  Fe9  1  0.33219269  0.99795749  0.00154415  1
  Cr  Cr10  1  0.50039232  0.16776495  0.16599511  1
  Ni  Ni11  1  0.33040923  0.99893776  0.33008057  1
  Fe  Fe12  1  0.33271135  0.33499354  -0.00069231  1
  Ni  Ni13  1  0.49844520  0.49931139  0.16564839  1
  Fe  Fe14  1  0.33295328  0.33324146  0.33068407  1
  Fe  Fe15  1  0.33221036  0.66437506  0.00025387  1
  Ni  Ni16  1  0.49371412  0.83114312  0.16389381  1
  Fe  Fe17  1  0.33078283  0.66632513  0.32923047  1
  Fe  Fe18  1  0.66554105  0.99886072  0.00009903  1
  Cr  Cr19  1  0.83261487  0.16793484  0.16483299  1
  Cr  Cr20  1  0.66627889  0.99508539  0.33256747  1
  Ni  Ni21  1  0.66647590  0.33638568  -0.00037044  1
  Fe  Fe22  1  0.83250071  0.50094059  0.16468542  1
  Fe  Fe23  1  0.66575124  0.33326990  0.33008860  1
  Cr  Cr24  1  0.66520026  0.66795575  -0.00072520  1
  Fe  Fe25  1  0.83371040  0.83204994  0.16420681  1
  Cr  Cr26  1  0.66586977  0.66728630  0.32846480  1
  Cr  Cr27  1  0.16575182  0.16165618  0.49936707  1
  Fe  Fe28  1  0.99834631  0.99794944  0.66641351  1
  Fe  Fe29  1  0.16491482  0.16577222  0.83389745  1
  Fe  Fe30  1  0.16688885  0.50048971  0.49952635  1
  Fe  Fe31  1  0.99877155  0.33440097  0.66640114  1
  Fe  Fe32  1  0.16489191  0.49829326  0.83355379  1
  Cr  Cr33  1  0.16467860  0.82885015  0.49862818  1
  Fe  Fe34  1  0.00091078  0.66399746  0.66691154  1
  Cr  Cr35  1  0.16693221  0.83042607  0.83210507  1
  Cr  Cr36  1  0.50221669  0.16725638  0.49760292  1
  Fe  Fe37  1  0.33295073  0.99735833  0.66705702  1
  Cr  Cr38  1  0.50034485  0.16585140  0.83420340  1
  Cr  Cr39  1  0.49874511  0.49863941  0.49675597  1
  Cr  Cr40  1  0.32841272  0.33309426  0.66688303  1
  Fe  Fe41  1  0.49782937  0.49987533  0.83437071  1
  Cr  Cr42  1  0.49371730  0.83240699  0.50071824  1
  Ni  Ni43  1  0.33213350  0.66421043  0.66780939  1
  Fe  Fe44  1  0.49831509  0.83315030  0.83325000  1
  Fe  Fe45  1  0.83312976  0.16387877  0.50083897  1
  Fe  Fe46  1  0.66633893  0.99919214  0.66571908  1
  Cr  Cr47  1  0.83205231  0.16834459  0.83219349  1
  Cr  Cr48  1  0.83328820  0.49788537  0.49932363  1
  Fe  Fe49  1  0.66586917  0.33401271  0.66743399  1
  Fe  Fe50  1  0.83417941  0.49961791  0.83339071  1
  Fe  Fe51  1  0.83346914  0.83391285  0.50042530  1
  Cr  Cr52  1  0.66536618  0.66848352  0.66939357  1
  Fe  Fe53  1  0.83328398  0.83398869  0.83319767  1
" 