7683,Ni12Fe88_9,-242.01728064582, 195.828363619561,Ni12Fe88,"# generated using pymatgen
 data_FeNi8
_symmetry_space_group_name_H-M   'P 1'
_cell_length_a   7.43799406
_cell_length_b   7.43799406
_cell_length_c   10.51891208
_cell_angle_alpha   90.00000000
_cell_angle_beta   90.00000000
_cell_angle_gamma   90.00000000
_symmetry_Int_Tables_number   1
_chemical_formula_structural   FeNi8
_chemical_formula_sum   'Fe6 Ni48'
_cell_volume   581.94572173
_cell_formula_units_Z   6
loop_
 _symmetry_equiv_pos_site_id
 _symmetry_equiv_pos_as_xyz
  1  'x, y, z'
loop_
 _atom_site_type_symbol
 _atom_site_label
 _atom_site_symmetry_multiplicity
 _atom_site_fract_x
 _atom_site_fract_y
 _atom_site_fract_z
 _atom_site_occupancy
  Ni  Ni0  1  1.00112855  1.00151258  1.00083129  1
  Ni  Ni1  1  0.16811941  0.16763206  0.16842695  1
  Ni  Ni2  1  0.00205021  1.00166134  0.33623414  1
  Ni  Ni3  1  0.00267498  0.33520818  1.00152946  1
  Fe  Fe4  1  0.16888305  0.50219024  0.16784045  1
  Ni  Ni5  1  0.00268586  0.33564485  0.33496892  1
  Ni  Ni6  1  0.00226533  0.66918644  1.00190465  1
  Ni  Ni7  1  0.16882764  0.83652521  0.16886250  1
  Ni  Ni8  1  0.00218651  0.66872932  0.33492286  1
  Fe  Fe9  1  0.33550984  0.00201201  1.00192819  1
  Ni  Ni10  1  0.50135542  0.16963456  0.16959550  1
  Ni  Ni11  1  0.33543133  0.00201836  0.33451630  1
  Ni  Ni12  1  0.33525639  0.33546529  1.00155842  1
  Ni  Ni13  1  0.50269663  0.50222512  0.16856823  1
  Ni  Ni14  1  0.33479820  0.33525407  0.33596356  1
  Ni  Ni15  1  0.33495029  0.66813734  1.00072628  1
  Ni  Ni16  1  0.50100296  0.83398679  0.16883428  1
  Ni  Ni17  1  0.33471647  0.66851805  0.33625165  1
  Ni  Ni18  1  0.66883567  1.00186082  0.00204664  1
  Ni  Ni19  1  0.83632703  0.16928214  0.16897416  1
  Ni  Ni20  1  0.66852242  1.00151926  0.33549343  1
  Ni  Ni21  1  0.66793343  0.33436936  1.00120385  1
  Ni  Ni22  1  0.83383340  0.50150218  0.16854232  1
  Ni  Ni23  1  0.66833330  0.33491975  0.33569849  1
  Ni  Ni24  1  0.66864999  0.66963159  1.00161689  1
  Ni  Ni25  1  0.83598861  0.83506375  0.16936991  1
  Ni  Ni26  1  0.66873792  0.66918982  0.33508751  1
  Ni  Ni27  1  0.16837915  0.16789930  0.50189483  1
  Fe  Fe28  1  1.00102545  0.00284028  0.66856331  1
  Ni  Ni29  1  0.16847977  0.16856135  0.83547275  1
  Fe  Fe30  1  0.16730028  0.50257457  0.50249876  1
  Ni  Ni31  1  0.00267323  0.33670713  0.66922193  1
  Ni  Ni32  1  0.16884660  0.50168866  0.83494238  1
  Ni  Ni33  1  0.16937788  0.83716724  0.50234721  1
  Ni  Ni34  1  1.00157846  0.66859142  0.66892350  1
  Ni  Ni35  1  0.16875762  0.83567665  0.83462460  1
  Fe  Fe36  1  0.50271780  0.16749521  0.50209808  1
  Ni  Ni37  1  0.33593099  0.00237442  0.66950253  1
  Ni  Ni38  1  0.50154142  0.16920372  0.83484169  1
  Ni  Ni39  1  0.50287912  0.50218708  0.50223224  1
  Ni  Ni40  1  0.33468215  0.33384503  0.66836481  1
  Ni  Ni41  1  0.50240333  0.50182379  0.83509485  1
  Ni  Ni42  1  0.50105598  0.83340931  0.50151252  1
  Fe  Fe43  1  0.33643586  0.66810513  0.66894893  1
  Ni  Ni44  1  0.50162105  0.83470515  0.83553165  1
  Ni  Ni45  1  0.83708640  0.16982721  0.50178918  1
  Ni  Ni46  1  0.66742742  1.00109489  0.66845957  1
  Ni  Ni47  1  0.83569938  0.16935289  0.83504391  1
  Ni  Ni48  1  0.83345703  0.50140333  0.50180104  1
  Ni  Ni49  1  0.66847212  0.33493398  0.66910799  1
  Ni  Ni50  1  0.83482912  0.50166925  0.83553580  1
  Ni  Ni51  1  0.83548677  0.83481830  0.50152388  1
  Ni  Ni52  1  0.67009188  0.66960594  0.66915821  1
  Ni  Ni53  1  0.83552764  0.83502298  0.83493172  1
" 