124,Ni12Fe81Cr6_6,-227.188626414453, 156.543442299228,Ni12Fe81Cr6,"# generated using pymatgen
 data_Cr5Fe43Ni6
_symmetry_space_group_name_H-M   'P 1'
_cell_length_a   7.43122418
_cell_length_b   7.43122418
_cell_length_c   10.50933802
_cell_angle_alpha   90.00000000
_cell_angle_beta   90.00000000
_cell_angle_gamma   90.00000000
_symmetry_Int_Tables_number   1
_chemical_formula_structural   Cr5Fe43Ni6
_chemical_formula_sum   'Cr5 Fe43 Ni6'
_cell_volume   580.35814810
_cell_formula_units_Z   1
loop_
 _symmetry_equiv_pos_site_id
 _symmetry_equiv_pos_as_xyz
  1  'x, y, z'
loop_
 _atom_site_type_symbol
 _atom_site_label
 _atom_site_symmetry_multiplicity
 _atom_site_fract_x
 _atom_site_fract_y
 _atom_site_fract_z
 _atom_site_occupancy
  Fe  Fe0  1  0.00433522  0.00272594  1.00173851  1
  Fe  Fe1  1  0.16888257  0.16885639  0.16899329  1
  Fe  Fe2  1  0.00294282  0.00290496  0.33675130  1
  Fe  Fe3  1  0.00314305  0.33659144  1.00214298  1
  Fe  Fe4  1  0.16812242  0.50174338  0.16984695  1
  Fe  Fe5  1  1.00211982  0.33597974  0.33585570  1
  Fe  Fe6  1  1.00034638  0.66791157  1.00135020  1
  Fe  Fe7  1  0.16987914  0.83663329  0.16991627  1
  Fe  Fe8  1  0.00273233  0.66834696  0.33714187  1
  Fe  Fe9  1  0.33520093  0.00332990  1.00211812  1
  Fe  Fe10  1  0.50093509  0.16885886  0.17072068  1
  Fe  Fe11  1  0.33570542  1.00239002  0.33556077  1
  Fe  Fe12  1  0.33485822  0.33444798  0.00251670  1
  Fe  Fe13  1  0.50281492  0.50286173  0.17097996  1
  Fe  Fe14  1  0.33606490  0.33603021  0.33594765  1
  Cr  Cr15  1  0.33630247  0.66952198  0.00268137  1
  Fe  Fe16  1  0.50105656  0.83551406  0.16967567  1
  Fe  Fe17  1  0.33597445  0.66880761  0.33595182  1
  Cr  Cr18  1  0.66898529  1.00197286  1.00150684  1
  Fe  Fe19  1  0.83741675  0.17060685  0.17068460  1
  Fe  Fe20  1  0.66858389  0.00299683  0.33652839  1
  Cr  Cr21  1  0.67016497  0.33699221  0.00281555  1
  Fe  Fe22  1  0.83629707  0.50185867  0.16940573  1
  Fe  Fe23  1  0.66904573  0.33624584  0.33606058  1
  Ni  Ni24  1  0.66913144  0.66819557  1.00095230  1
  Cr  Cr25  1  0.83573901  0.83386342  0.16781572  1
  Fe  Fe26  1  0.66852569  0.66798617  0.33683014  1
  Fe  Fe27  1  0.16855041  0.16963376  0.50244055  1
  Fe  Fe28  1  0.00244046  1.00195508  0.66873862  1
  Fe  Fe29  1  0.16913150  0.16908018  0.83579718  1
  Fe  Fe30  1  0.16778589  0.50216487  0.50154557  1
  Fe  Fe31  1  1.00207199  0.33650233  0.66923136  1
  Fe  Fe32  1  0.16745847  0.50127976  0.83583495  1
  Fe  Fe33  1  0.16759140  0.83543101  0.50151720  1
  Fe  Fe34  1  1.00002388  0.66877761  0.66873405  1
  Fe  Fe35  1  0.16754954  0.83687278  0.83579601  1
  Fe  Fe36  1  0.50349441  0.16973149  0.50237384  1
  Fe  Fe37  1  0.33599376  0.00374735  0.66955395  1
  Fe  Fe38  1  0.50124138  0.16900206  0.83413681  1
  Ni  Ni39  1  0.50336690  0.50087087  0.50187145  1
  Fe  Fe40  1  0.33600025  0.33434434  0.66876605  1
  Fe  Fe41  1  0.50403901  0.50248993  0.83476542  1
  Fe  Fe42  1  0.50439430  0.83538744  0.50213961  1
  Cr  Cr43  1  0.33568428  0.66879142  0.66804106  1
  Ni  Ni44  1  0.50337251  0.83722681  0.83587251  1
  Fe  Fe45  1  0.83518667  0.16954140  0.50231923  1
  Fe  Fe46  1  0.66879999  1.00169387  0.66931713  1
  Fe  Fe47  1  0.83686320  0.16909217  0.83422787  1
  Ni  Ni48  1  0.83524665  0.50364949  0.50161969  1
  Fe  Fe49  1  0.66916115  0.33676966  0.66895813  1
  Ni  Ni50  1  0.83660055  0.50402865  0.83612946  1
  Ni  Ni51  1  0.83620530  0.83507137  0.50355291  1
  Fe  Fe52  1  0.67094279  0.66877136  0.66940386  1
  Fe  Fe53  1  0.83565473  0.83407644  0.83498376  1
" 