171,Ni12Fe57Cr29_2,-223.169497270042, 176.865311240951,Ni12Fe57Cr29,"# generated using pymatgen
 data_Cr17Fe31Ni6
_symmetry_space_group_name_H-M   'P 1'
_cell_length_a   7.47870504
_cell_length_b   7.47870504
_cell_length_c   10.57648610
_cell_angle_alpha   90.00000000
_cell_angle_beta   90.00000000
_cell_angle_gamma   90.00000000
_symmetry_Int_Tables_number   1
_chemical_formula_structural   Cr17Fe31Ni6
_chemical_formula_sum   'Cr17 Fe31 Ni6'
_cell_volume   591.55375169
_cell_formula_units_Z   1
loop_
 _symmetry_equiv_pos_site_id
 _symmetry_equiv_pos_as_xyz
  1  'x, y, z'
loop_
 _atom_site_type_symbol
 _atom_site_label
 _atom_site_symmetry_multiplicity
 _atom_site_fract_x
 _atom_site_fract_y
 _atom_site_fract_z
 _atom_site_occupancy
  Cr  Cr0  1  -0.00000434  0.00224207  -0.00052515  1
  Ni  Ni1  1  0.16534792  0.16586055  0.16579172  1
  Fe  Fe2  1  0.99710131  0.00416260  0.33057426  1
  Cr  Cr3  1  0.99828145  0.33429626  0.99788235  1
  Cr  Cr4  1  0.16680521  0.49869510  0.16530656  1
  Ni  Ni5  1  0.99834492  0.33372809  0.33376983  1
  Fe  Fe6  1  -0.00029244  0.66801030  0.99588995  1
  Cr  Cr7  1  0.16063741  0.83261745  0.16616194  1
  Fe  Fe8  1  0.99827459  0.66304352  0.33428135  1
  Ni  Ni9  1  0.33240999  0.99917178  0.99898580  1
  Fe  Fe10  1  0.49646500  0.16588680  0.16703388  1
  Cr  Cr11  1  0.33288426  0.99737134  0.33215217  1
  Fe  Fe12  1  0.33118765  0.32766883  -0.00003254  1
  Cr  Cr13  1  0.49932346  0.49645050  0.16443241  1
  Fe  Fe14  1  0.33140685  0.33097694  0.33225080  1
  Fe  Fe15  1  0.33137227  0.66913258  0.99738597  1
  Fe  Fe16  1  0.49557433  0.83158597  0.16554401  1
  Fe  Fe17  1  0.33203720  0.66299673  0.33407154  1
  Cr  Cr18  1  0.66352780  0.99871192  0.00346582  1
  Fe  Fe19  1  0.83417500  0.16863798  0.16860915  1
  Fe  Fe20  1  0.66737624  0.00274292  0.32995925  1
  Fe  Fe21  1  0.66682549  0.32933051  0.00168814  1
  Fe  Fe22  1  0.83488087  0.49917328  0.16778485  1
  Ni  Ni23  1  0.67012166  0.33305094  0.33097733  1
  Cr  Cr24  1  0.66772458  0.66535024  0.99903789  1
  Fe  Fe25  1  0.83167051  0.83154853  0.16912375  1
  Fe  Fe26  1  0.66651532  0.66540951  0.33147621  1
  Cr  Cr27  1  0.16378450  0.16534378  0.50078362  1
  Fe  Fe28  1  -0.00074902  0.99867375  0.66821973  1
  Fe  Fe29  1  0.16739225  0.16530810  0.83164270  1
  Ni  Ni30  1  0.16492485  0.49851798  0.49746499  1
  Fe  Fe31  1  0.99912127  0.33211399  0.66622587  1
  Fe  Fe32  1  0.16730859  0.49879673  0.83301619  1
  Fe  Fe33  1  0.16569569  0.83100510  0.49736288  1
  Cr  Cr34  1  0.00000692  0.66301949  0.66755436  1
  Fe  Fe35  1  0.16867335  0.83395499  0.83367355  1
  Cr  Cr36  1  0.50176566  0.16663375  0.50228886  1
  Fe  Fe37  1  0.33173818  0.99858660  0.66740058  1
  Cr  Cr38  1  0.49996567  0.16662179  0.83167798  1
  Cr  Cr39  1  0.49914762  0.49642836  0.49725342  1
  Fe  Fe40  1  0.32870156  0.33468749  0.66597025  1
  Cr  Cr41  1  0.49872413  0.49717708  0.83488804  1
  Fe  Fe42  1  0.49919841  0.83322468  0.49832562  1
  Cr  Cr43  1  0.33302595  0.66860492  0.66328651  1
  Ni  Ni44  1  0.49983549  0.83370950  0.83249644  1
  Fe  Fe45  1  0.83305134  0.16994362  0.49892067  1
  Fe  Fe46  1  0.66717069  0.99816693  0.66696093  1
  Fe  Fe47  1  0.83171621  0.16561592  0.83053653  1
  Fe  Fe48  1  0.83453120  0.49689499  0.49732301  1
  Fe  Fe49  1  0.67023654  0.33272074  0.66562722  1
  Fe  Fe50  1  0.83166709  0.49734342  0.83249114  1
  Cr  Cr51  1  0.83427109  0.83672421  0.49651835  1
  Cr  Cr52  1  0.66546832  0.66569564  0.66492620  1
  Fe  Fe53  1  0.83156570  0.83454698  0.83199884  1
" 