4617,Ni12Fe88_17,-242.091539268334, 197.122752482898,Ni12Fe88,"# generated using pymatgen
 data_FeNi8
_symmetry_space_group_name_H-M   'P 1'
_cell_length_a   7.44042733
_cell_length_b   7.44042733
_cell_length_c   10.52235324
_cell_angle_alpha   90.00000000
_cell_angle_beta   90.00000000
_cell_angle_gamma   90.00000000
_symmetry_Int_Tables_number   1
_chemical_formula_structural   FeNi8
_chemical_formula_sum   'Fe6 Ni48'
_cell_volume   582.51704175
_cell_formula_units_Z   6
loop_
 _symmetry_equiv_pos_site_id
 _symmetry_equiv_pos_as_xyz
  1  'x, y, z'
loop_
 _atom_site_type_symbol
 _atom_site_label
 _atom_site_symmetry_multiplicity
 _atom_site_fract_x
 _atom_site_fract_y
 _atom_site_fract_z
 _atom_site_occupancy
  Fe  Fe0  1  1.00174102  1.00167618  0.00243830  1
  Ni  Ni1  1  0.16882365  0.16812911  0.16856659  1
  Ni  Ni2  1  0.00225781  1.00167510  0.33495522  1
  Ni  Ni3  1  0.00194457  0.33561626  0.00228329  1
  Ni  Ni4  1  0.16834343  0.50210728  0.16858310  1
  Fe  Fe5  1  1.00119611  0.33517446  0.33510101  1
  Ni  Ni6  1  0.00232458  0.66749572  1.00104614  1
  Ni  Ni7  1  0.16843875  0.83513246  0.16831313  1
  Ni  Ni8  1  0.00264257  0.66884394  0.33616456  1
  Ni  Ni9  1  0.33549060  1.00169466  1.00105703  1
  Ni  Ni10  1  0.50169019  0.16835666  0.16841095  1
  Ni  Ni11  1  0.33449643  1.00129624  0.33616414  1
  Ni  Ni12  1  0.33412588  0.33466712  0.00186163  1
  Ni  Ni13  1  0.50209723  0.50175449  0.16790254  1
  Fe  Fe14  1  0.33611832  0.33516812  0.33509667  1
  Ni  Ni15  1  0.33412805  0.66901402  0.00189587  1
  Ni  Ni16  1  0.50163330  0.83527714  0.16880957  1
  Ni  Ni17  1  0.33411559  0.66922027  0.33492072  1
  Ni  Ni18  1  0.66781257  0.00206883  0.00229911  1
  Ni  Ni19  1  0.83490666  0.16852402  0.16840735  1
  Ni  Ni20  1  0.66860983  0.00264966  0.33534101  1
  Ni  Ni21  1  0.66927962  0.33427756  1.00063828  1
  Ni  Ni22  1  0.83500360  0.50209395  0.16842625  1
  Ni  Ni23  1  0.66920730  0.33457938  0.33580329  1
  Ni  Ni24  1  0.66893031  0.66903304  0.00187057  1
  Ni  Ni25  1  0.83527059  0.83472537  0.16881235  1
  Ni  Ni26  1  0.66859740  0.66811619  0.33536430  1
  Ni  Ni27  1  0.16850631  0.16842399  0.50146763  1
  Fe  Fe28  1  1.00126005  0.00230474  0.66774268  1
  Ni  Ni29  1  0.16818066  0.16865303  0.83523878  1
  Ni  Ni30  1  0.16864507  0.50189746  0.50154526  1
  Ni  Ni31  1  0.00224624  0.33431915  0.66774947  1
  Ni  Ni32  1  0.16852529  0.50144711  0.83520904  1
  Ni  Ni33  1  0.16848918  0.83508139  0.50230532  1
  Fe  Fe34  1  1.00077649  0.66681906  0.66851004  1
  Ni  Ni35  1  0.16835142  0.83522714  0.83487664  1
  Ni  Ni36  1  0.50193472  0.16875669  0.50203889  1
  Fe  Fe37  1  0.33676723  0.00264845  0.66851196  1
  Ni  Ni38  1  0.50181993  0.16875274  0.83495783  1
  Ni  Ni39  1  0.50187810  0.50186665  0.50202794  1
  Ni  Ni40  1  0.33385386  0.33596397  0.66815752  1
  Ni  Ni41  1  0.50163607  0.50177721  0.83537541  1
  Ni  Ni42  1  0.50181082  0.83490327  0.50136505  1
  Ni  Ni43  1  0.33438128  0.66859777  0.66854079  1
  Ni  Ni44  1  0.50207213  0.83498627  0.83527850  1
  Ni  Ni45  1  0.83514811  0.16838924  0.50150943  1
  Ni  Ni46  1  0.66927829  1.00174394  0.66770258  1
  Ni  Ni47  1  0.83549708  0.16824239  0.83531851  1
  Ni  Ni48  1  0.83471309  0.50173945  0.50202358  1
  Ni  Ni49  1  0.66925198  0.33430483  0.66896393  1
  Ni  Ni50  1  0.83500500  0.50161294  0.83495777  1
  Ni  Ni51  1  0.83500631  0.83511544  0.50126719  1
  Ni  Ni52  1  0.66746481  0.66932927  0.66811782  1
  Ni  Ni53  1  0.83487484  0.83532949  0.83530781  1
" 