6433,Ni12Fe57Cr29_10,-223.253653668226, 171.090290690737,Ni12Fe57Cr29,"# generated using pymatgen
 data_Cr17Fe31Ni6
_symmetry_space_group_name_H-M   'P 1'
_cell_length_a   7.47666409
_cell_length_b   7.47666409
_cell_length_c   10.57359975
_cell_angle_alpha   90.00000000
_cell_angle_beta   90.00000000
_cell_angle_gamma   90.00000000
_symmetry_Int_Tables_number   1
_chemical_formula_structural   Cr17Fe31Ni6
_chemical_formula_sum   'Cr17 Fe31 Ni6'
_cell_volume   591.06957514
_cell_formula_units_Z   1
loop_
 _symmetry_equiv_pos_site_id
 _symmetry_equiv_pos_as_xyz
  1  'x, y, z'
loop_
 _atom_site_type_symbol
 _atom_site_label
 _atom_site_symmetry_multiplicity
 _atom_site_fract_x
 _atom_site_fract_y
 _atom_site_fract_z
 _atom_site_occupancy
  Cr  Cr0  1  0.00044957  0.00034229  0.00187527  1
  Fe  Fe1  1  0.16758042  0.16780290  0.16966073  1
  Ni  Ni2  1  0.00148614  0.99882657  0.33449291  1
  Cr  Cr3  1  0.00102016  0.33581668  -0.00025407  1
  Fe  Fe4  1  0.16511426  0.49834823  0.16969482  1
  Fe  Fe5  1  0.00158778  0.33133812  0.33226140  1
  Cr  Cr6  1  0.00057741  0.66248693  0.00006938  1
  Fe  Fe7  1  0.16680634  0.83171845  0.17103824  1
  Ni  Ni8  1  0.00023290  0.66246940  0.33198047  1
  Cr  Cr9  1  0.33486186  -0.00022297  0.00344656  1
  Fe  Fe10  1  0.49927382  0.16802646  0.16870797  1
  Ni  Ni11  1  0.33355522  0.00128248  0.33220556  1
  Fe  Fe12  1  0.33385850  0.33222667  -0.00046029  1
  Cr  Cr13  1  0.50060888  0.49827771  0.16835579  1
  Fe  Fe14  1  0.33018267  0.33181607  0.33432468  1
  Cr  Cr15  1  0.33132184  0.66468513  0.99934755  1
  Fe  Fe16  1  0.49989368  0.83132445  0.16815337  1
  Fe  Fe17  1  0.33126706  0.66881448  0.33318923  1
  Cr  Cr18  1  0.66325037  0.00013951  0.99852167  1
  Cr  Cr19  1  0.83292003  0.16822205  0.16740315  1
  Cr  Cr20  1  0.66444816  -0.00034637  0.33667956  1
  Fe  Fe21  1  0.66533263  0.33492093  0.99815190  1
  Ni  Ni22  1  0.83108762  0.49879313  0.16734311  1
  Fe  Fe23  1  0.66583445  0.33213364  0.33404026  1
  Fe  Fe24  1  0.66553480  0.66410228  0.99820554  1
  Cr  Cr25  1  0.83394719  0.82996294  0.16848071  1
  Fe  Fe26  1  0.66559438  0.66706595  0.33416486  1
  Fe  Fe27  1  0.16634755  0.16776546  0.49892747  1
  Fe  Fe28  1  0.99727676  -0.00005094  0.66307557  1
  Cr  Cr29  1  0.16649292  0.16602894  0.82988302  1
  Fe  Fe30  1  0.16604594  0.49917797  0.49919285  1
  Fe  Fe31  1  0.99776347  0.33308214  0.66505255  1
  Fe  Fe32  1  0.16803575  0.49929527  0.82914928  1
  Cr  Cr33  1  0.16591586  0.83372123  0.50146410  1
  Ni  Ni34  1  0.00100593  0.66123952  0.66609568  1
  Cr  Cr35  1  0.16695213  0.83436824  0.82917465  1
  Fe  Fe36  1  0.49590293  0.16923772  0.49870933  1
  Fe  Fe37  1  0.33456624  -0.00054228  0.66387728  1
  Fe  Fe38  1  0.49892205  0.16680724  0.83099259  1
  Fe  Fe39  1  0.49563500  0.49907439  0.49716452  1
  Fe  Fe40  1  0.33366791  0.33481175  0.66399302  1
  Fe  Fe41  1  0.49891844  0.49821752  0.83227000  1
  Fe  Fe42  1  0.49708302  0.83117846  0.49857227  1
  Fe  Fe43  1  0.33354517  0.66405091  0.66598498  1
  Ni  Ni44  1  0.49821593  0.83154872  0.83173169  1
  Fe  Fe45  1  0.83603384  0.16592247  0.49831607  1
  Cr  Cr46  1  0.66454585  0.00151275  0.66259887  1
  Fe  Fe47  1  0.83087504  0.16776168  0.83146231  1
  Cr  Cr48  1  0.83091026  0.49831136  0.49579456  1
  Fe  Fe49  1  0.66594345  0.33418603  0.66514923  1
  Fe  Fe50  1  0.83146118  0.49784103  0.83130488  1
  Fe  Fe51  1  0.83591628  0.83107117  0.49819206  1
  Cr  Cr52  1  0.66544676  0.66718411  0.66440316  1
  Cr  Cr53  1  0.83421885  0.83209567  0.83166032  1
" 