3377,Ni12Fe88_8,-242.139981642542, 196.185126472228,Ni12Fe88,"# generated using pymatgen
 data_FeNi8
_symmetry_space_group_name_H-M   'P 1'
_cell_length_a   7.43990699
_cell_length_b   7.43990699
_cell_length_c   10.52161737
_cell_angle_alpha   90.00000000
_cell_angle_beta   90.00000000
_cell_angle_gamma   90.00000000
_symmetry_Int_Tables_number   1
_chemical_formula_structural   FeNi8
_chemical_formula_sum   'Fe6 Ni48'
_cell_volume   582.39483830
_cell_formula_units_Z   6
loop_
 _symmetry_equiv_pos_site_id
 _symmetry_equiv_pos_as_xyz
  1  'x, y, z'
loop_
 _atom_site_type_symbol
 _atom_site_label
 _atom_site_symmetry_multiplicity
 _atom_site_fract_x
 _atom_site_fract_y
 _atom_site_fract_z
 _atom_site_occupancy
  Ni  Ni0  1  1.00107651  1.00180271  1.00162112  1
  Ni  Ni1  1  0.16842138  0.16846030  0.16775302  1
  Ni  Ni2  1  1.00073297  0.00262835  0.33571766  1
  Ni  Ni3  1  1.00176464  0.33553496  1.00074349  1
  Ni  Ni4  1  0.16805099  0.50150746  0.16813341  1
  Ni  Ni5  1  0.00255129  0.33504882  0.33610528  1
  Ni  Ni6  1  1.00141244  0.66808815  0.00225147  1
  Ni  Ni7  1  0.16842511  0.83550338  0.16861374  1
  Ni  Ni8  1  1.00111865  0.66780048  0.33527535  1
  Ni  Ni9  1  0.33568063  0.00225383  1.00129488  1
  Ni  Ni10  1  0.50164129  0.16830860  0.16859664  1
  Ni  Ni11  1  0.33579411  0.00263505  0.33615323  1
  Ni  Ni12  1  0.33530757  0.33550534  1.00170108  1
  Ni  Ni13  1  0.50200566  0.50167590  0.16769868  1
  Ni  Ni14  1  0.33443584  0.33543390  0.33527431  1
  Ni  Ni15  1  0.33533818  0.66772793  1.00136124  1
  Ni  Ni16  1  0.50179349  0.83548192  0.16770316  1
  Ni  Ni17  1  0.33579155  0.66740374  0.33572176  1
  Ni  Ni18  1  0.66868368  0.00185349  1.00176469  1
  Ni  Ni19  1  0.83543569  0.16866986  0.16775056  1
  Ni  Ni20  1  0.66894032  1.00127237  0.33528619  1
  Ni  Ni21  1  0.66840539  0.33514177  0.00206203  1
  Ni  Ni22  1  0.83544624  0.50169648  0.16811992  1
  Fe  Fe23  1  0.66870703  0.33530744  0.33450736  1
  Ni  Ni24  1  0.66871143  0.66841978  1.00057868  1
  Ni  Ni25  1  0.83525780  0.83509975  0.16814677  1
  Ni  Ni26  1  0.66855362  0.66922172  0.33611152  1
  Ni  Ni27  1  0.16876571  0.16819123  0.50264884  1
  Ni  Ni28  1  1.00042223  1.00092830  0.66817249  1
  Fe  Fe29  1  0.16958816  0.16795284  0.83511439  1
  Ni  Ni30  1  0.16833464  0.50182102  0.50188585  1
  Fe  Fe31  1  0.00341489  0.33492337  0.66793654  1
  Ni  Ni32  1  0.16789358  0.50223565  0.83531248  1
  Ni  Ni33  1  0.16827645  0.83535151  0.50179854  1
  Ni  Ni34  1  1.00148649  0.66820496  0.66793024  1
  Ni  Ni35  1  0.16797632  0.83493392  0.83506328  1
  Ni  Ni36  1  0.50209183  0.16874504  0.50143160  1
  Ni  Ni37  1  0.33591573  0.00257117  0.66805170  1
  Ni  Ni38  1  0.50185431  0.16850985  0.83551977  1
  Ni  Ni39  1  0.50198666  0.50108023  0.50237001  1
  Ni  Ni40  1  0.33586014  0.33578164  0.66849724  1
  Ni  Ni41  1  0.50175826  0.50070778  0.83545865  1
  Ni  Ni42  1  0.50157673  0.83578776  0.50271233  1
  Ni  Ni43  1  0.33433222  0.66718693  0.66838158  1
  Ni  Ni44  1  0.50141093  0.83634457  0.83505948  1
  Ni  Ni45  1  0.83475835  0.16863342  0.50235657  1
  Ni  Ni46  1  0.66906738  0.00258404  0.66849385  1
  Fe  Fe47  1  0.83437301  0.16787765  0.83573765  1
  Ni  Ni48  1  0.83518964  0.50158616  0.50231129  1
  Fe  Fe49  1  0.66773982  0.33488722  0.66907858  1
  Ni  Ni50  1  0.83584811  0.50197325  0.83498603  1
  Ni  Ni51  1  0.83548158  0.83530078  0.50196641  1
  Fe  Fe52  1  0.66764762  0.67007689  0.66881026  1
  Ni  Ni53  1  0.83596108  0.83483475  0.83536254  1
" 