7223,Ni12Fe54Cr33_8,-222.679521257709, 168.551763478831,Ni12Fe54Cr33,"# generated using pymatgen
 data_Cr19Fe29Ni6
_symmetry_space_group_name_H-M   'P 1'
_cell_length_a   7.49965703
_cell_length_b   7.49965703
_cell_length_c   10.60611669
_cell_angle_alpha   90.00000000
_cell_angle_beta   90.00000000
_cell_angle_gamma   90.00000000
_symmetry_Int_Tables_number   1
_chemical_formula_structural   Cr19Fe29Ni6
_chemical_formula_sum   'Cr19 Fe29 Ni6'
_cell_volume   596.53950214
_cell_formula_units_Z   1
loop_
 _symmetry_equiv_pos_site_id
 _symmetry_equiv_pos_as_xyz
  1  'x, y, z'
loop_
 _atom_site_type_symbol
 _atom_site_label
 _atom_site_symmetry_multiplicity
 _atom_site_fract_x
 _atom_site_fract_y
 _atom_site_fract_z
 _atom_site_occupancy
  Fe  Fe0  1  0.99704871  -0.00100272  -0.00062672  1
  Fe  Fe1  1  0.16143662  0.16219287  0.16508896  1
  Fe  Fe2  1  0.00063978  0.99506758  0.33048173  1
  Fe  Fe3  1  -0.00110781  0.32687171  0.99684644  1
  Cr  Cr4  1  0.16564535  0.49743721  0.16350925  1
  Fe  Fe5  1  0.00223045  0.33054712  0.33237676  1
  Cr  Cr6  1  0.99708848  0.66646188  -0.00133202  1
  Ni  Ni7  1  0.16269239  0.83174542  0.16645564  1
  Fe  Fe8  1  -0.00014903  0.66770558  0.33176299  1
  Cr  Cr9  1  0.32864989  0.99713511  -0.00008876  1
  Cr  Cr10  1  0.49727361  0.16448160  0.16708281  1
  Ni  Ni11  1  0.32720033  0.99545060  0.33014771  1
  Fe  Fe12  1  0.33151784  0.32978158  0.99718681  1
  Fe  Fe13  1  0.49650521  0.50093253  0.16674586  1
  Fe  Fe14  1  0.32921635  0.33173960  0.33207960  1
  Cr  Cr15  1  0.33234948  0.66789071  -0.00053435  1
  Fe  Fe16  1  0.49720493  0.82957932  0.16849043  1
  Ni  Ni17  1  0.32922876  0.66707588  0.33147517  1
  Cr  Cr18  1  0.66422226  -0.00203089  -0.00185969  1
  Fe  Fe19  1  0.83560045  0.16148577  0.16581501  1
  Fe  Fe20  1  0.66386716  0.99427520  0.32930562  1
  Cr  Cr21  1  0.66594172  0.33099177  0.99666917  1
  Cr  Cr22  1  0.83325999  0.49811809  0.16500638  1
  Cr  Cr23  1  0.66652206  0.33304251  0.33082072  1
  Cr  Cr24  1  0.66398003  0.66435737  -0.00183294  1
  Ni  Ni25  1  0.83213529  0.83299948  0.16731891  1
  Fe  Fe26  1  0.66320910  0.66717382  0.33015703  1
  Fe  Fe27  1  0.16515913  0.16181463  0.49651600  1
  Fe  Fe28  1  0.99740396  -0.00181569  0.66420971  1
  Ni  Ni29  1  0.16368692  0.16561765  0.83222618  1
  Fe  Fe30  1  0.16697232  0.49879769  0.49553231  1
  Cr  Cr31  1  0.99780859  0.33112598  0.66244205  1
  Cr  Cr32  1  0.16532473  0.49661483  0.83263862  1
  Ni  Ni33  1  0.16365173  0.82928357  0.49645053  1
  Cr  Cr34  1  0.99757728  0.66539296  0.66148991  1
  Cr  Cr35  1  0.16309657  0.83136363  0.83084533  1
  Cr  Cr36  1  0.49733149  0.16412175  0.49791926  1
  Cr  Cr37  1  0.32866840  0.99761936  0.66490355  1
  Fe  Fe38  1  0.49492204  0.16487384  0.83068977  1
  Fe  Fe39  1  0.49532979  0.50003191  0.49705958  1
  Fe  Fe40  1  0.33007325  0.33213582  0.66488045  1
  Fe  Fe41  1  0.49626851  0.49795456  0.82997929  1
  Cr  Cr42  1  0.49838223  0.83185260  0.49708154  1
  Fe  Fe43  1  0.33204915  0.66229372  0.66249908  1
  Fe  Fe44  1  0.49864117  0.83103243  0.82894199  1
  Cr  Cr45  1  0.83072904  0.16137329  0.49573057  1
  Fe  Fe46  1  0.66702994  0.99593700  0.66675437  1
  Fe  Fe47  1  0.83478778  0.16260366  0.83070887  1
  Fe  Fe48  1  0.83103461  0.50118673  0.49578123  1
  Cr  Cr49  1  0.66426943  0.33250631  0.66592574  1
  Fe  Fe50  1  0.83217292  0.49802971  0.83099444  1
  Fe  Fe51  1  0.83214932  0.83087856  0.49579275  1
  Fe  Fe52  1  0.66383652  0.66541657  0.66560826  1
  Fe  Fe53  1  0.83083448  0.83305093  0.83045077  1
" 