5320,Ni12Fe54Cr33_13,-222.764653467652, 174.523902711673,Ni12Fe54Cr33,"# generated using pymatgen
 data_Cr19Fe29Ni6
_symmetry_space_group_name_H-M   'P 1'
_cell_length_a   7.48777902
_cell_length_b   7.48777902
_cell_length_c   10.58931864
_cell_angle_alpha   90.00000000
_cell_angle_beta   90.00000000
_cell_angle_gamma   90.00000000
_symmetry_Int_Tables_number   1
_chemical_formula_structural   Cr19Fe29Ni6
_chemical_formula_sum   'Cr19 Fe29 Ni6'
_cell_volume   593.70957716
_cell_formula_units_Z   1
loop_
 _symmetry_equiv_pos_site_id
 _symmetry_equiv_pos_as_xyz
  1  'x, y, z'
loop_
 _atom_site_type_symbol
 _atom_site_label
 _atom_site_symmetry_multiplicity
 _atom_site_fract_x
 _atom_site_fract_y
 _atom_site_fract_z
 _atom_site_occupancy
  Cr  Cr0  1  -0.00025144  0.99761978  0.00065233  1
  Ni  Ni1  1  0.16626403  0.16476571  0.16489107  1
  Fe  Fe2  1  0.00185416  0.00019800  0.32957389  1
  Fe  Fe3  1  0.00276465  0.33281038  -0.00031446  1
  Fe  Fe4  1  0.16942402  0.49864754  0.16257989  1
  Cr  Cr5  1  0.00006315  0.33185064  0.32688597  1
  Fe  Fe6  1  0.00125579  0.66420771  0.99705217  1
  Fe  Fe7  1  0.16813199  0.83278965  0.16617497  1
  Cr  Cr8  1  0.99836349  0.66497107  0.32997187  1
  Fe  Fe9  1  0.33139841  0.00037532  0.99752202  1
  Cr  Cr10  1  0.49891360  0.16440200  0.16414235  1
  Ni  Ni11  1  0.33212795  -0.00066014  0.33171767  1
  Ni  Ni12  1  0.32932766  0.33155785  0.99788143  1
  Ni  Ni13  1  0.49476018  0.49889268  0.16699984  1
  Cr  Cr14  1  0.33243422  0.33101001  0.33369826  1
  Fe  Fe15  1  0.32946330  0.66302757  0.99789471  1
  Cr  Cr16  1  0.49679360  0.83050657  0.16365330  1
  Fe  Fe17  1  0.33241561  0.66604419  0.33226434  1
  Fe  Fe18  1  0.66376166  0.99783397  0.99558474  1
  Fe  Fe19  1  0.83164600  0.16419552  0.16574159  1
  Fe  Fe20  1  0.66232930  -0.00108218  0.33382800  1
  Cr  Cr21  1  0.66387360  0.33306506  0.00135782  1
  Cr  Cr22  1  0.83131788  0.49816698  0.16264336  1
  Fe  Fe23  1  0.66373989  0.33142990  0.33138067  1
  Cr  Cr24  1  0.66675101  0.66700673  0.99487087  1
  Cr  Cr25  1  0.83070377  0.83519671  0.16701029  1
  Cr  Cr26  1  0.66414172  0.66368273  0.33584511  1
  Fe  Fe27  1  0.16643549  0.16397671  0.49799686  1
  Fe  Fe28  1  -0.00125751  0.99818246  0.66664736  1
  Fe  Fe29  1  0.16583198  0.16732481  0.83406564  1
  Cr  Cr30  1  0.16554778  0.49792461  0.50000651  1
  Fe  Fe31  1  -0.00068046  0.33062536  0.66582694  1
  Fe  Fe32  1  0.16186976  0.49819469  0.83166421  1
  Cr  Cr33  1  0.16483028  0.83380829  0.49580895  1
  Fe  Fe34  1  0.99708524  0.66667358  0.66603993  1
  Fe  Fe35  1  0.16402752  0.83061975  0.83256908  1
  Fe  Fe36  1  0.49769957  0.16312597  0.49853354  1
  Cr  Cr37  1  0.33014233  0.00162121  0.66793021  1
  Fe  Fe38  1  0.49729060  0.16495348  0.83480021  1
  Fe  Fe39  1  0.50053213  0.49738386  0.50029038  1
  Fe  Fe40  1  0.33198046  0.33065709  0.66615421  1
  Cr  Cr41  1  0.49621412  0.49711503  0.83100042  1
  Ni  Ni42  1  0.49842748  0.83268485  0.49814092  1
  Cr  Cr43  1  0.33343314  0.66774204  0.66429194  1
  Fe  Fe44  1  0.49843298  0.83312661  0.83317345  1
  Cr  Cr45  1  0.83367523  0.16480423  0.49519817  1
  Cr  Cr46  1  0.66388651  0.99696705  0.66757192  1
  Cr  Cr47  1  0.83257787  0.16671456  0.83543846  1
  Fe  Fe48  1  0.83171208  0.49882829  0.50082423  1
  Fe  Fe49  1  0.66458755  0.33183053  0.66449136  1
  Fe  Fe50  1  0.83413022  0.49977952  0.83048576  1
  Fe  Fe51  1  0.83160430  0.83151004  0.50058608  1
  Fe  Fe52  1  0.66679204  0.66485421  0.66455417  1
  Ni  Ni53  1  0.83466723  0.83170433  0.82965009  1
" 