5986,Ni12Fe81Cr6_11,-227.269522975514, 160.417428029222,Ni12Fe81Cr6,"# generated using pymatgen
 data_Cr5Fe43Ni6
_symmetry_space_group_name_H-M   'P 1'
_cell_length_a   7.43086962
_cell_length_b   7.43086962
_cell_length_c   10.50883660
_cell_angle_alpha   90.00000000
_cell_angle_beta   90.00000000
_cell_angle_gamma   90.00000000
_symmetry_Int_Tables_number   1
_chemical_formula_structural   Cr5Fe43Ni6
_chemical_formula_sum   'Cr5 Fe43 Ni6'
_cell_volume   580.27508243
_cell_formula_units_Z   1
loop_
 _symmetry_equiv_pos_site_id
 _symmetry_equiv_pos_as_xyz
  1  'x, y, z'
loop_
 _atom_site_type_symbol
 _atom_site_label
 _atom_site_symmetry_multiplicity
 _atom_site_fract_x
 _atom_site_fract_y
 _atom_site_fract_z
 _atom_site_occupancy
  Cr  Cr0  1  0.00264215  0.00354378  1.00216367  1
  Fe  Fe1  1  0.16665510  0.16893734  0.17051087  1
  Ni  Ni2  1  1.00182205  0.00333057  0.33698960  1
  Fe  Fe3  1  1.00180650  0.33634084  1.00133864  1
  Fe  Fe4  1  0.16999089  0.50327919  0.16998805  1
  Fe  Fe5  1  0.00277224  0.33367835  0.33642994  1
  Fe  Fe6  1  0.00459310  0.66742958  1.00043991  1
  Fe  Fe7  1  0.17135103  0.83509581  0.16950321  1
  Fe  Fe8  1  0.00323602  0.67056210  0.33766963  1
  Fe  Fe9  1  0.33599476  0.99988532  1.00086962  1
  Cr  Cr10  1  0.50267760  0.16735329  0.16991574  1
  Fe  Fe11  1  0.33520179  1.00134751  0.33676372  1
  Cr  Cr12  1  0.33467026  0.33760814  1.00117095  1
  Fe  Fe13  1  0.50174864  0.50511799  0.16980418  1
  Fe  Fe14  1  0.33485420  0.33548372  0.33628230  1
  Fe  Fe15  1  0.33532905  0.67132614  1.00228489  1
  Fe  Fe16  1  0.50125077  0.83411415  0.16986014  1
  Fe  Fe17  1  0.33610645  0.67047124  0.33589211  1
  Fe  Fe18  1  0.66714538  0.00266168  1.00142288  1
  Fe  Fe19  1  0.83654061  0.16942919  0.17052778  1
  Ni  Ni20  1  0.67089514  1.00197318  0.33727017  1
  Fe  Fe21  1  0.67103536  0.33567109  1.00077447  1
  Cr  Cr22  1  0.83634761  0.50136811  0.16912428  1
  Fe  Fe23  1  0.66967666  0.33458235  0.33725812  1
  Fe  Fe24  1  0.66738149  0.66896313  1.00077261  1
  Cr  Cr25  1  0.83497744  0.83577504  0.17028407  1
  Fe  Fe26  1  0.66796386  0.67090227  0.33804697  1
  Fe  Fe27  1  0.16882659  0.16777643  0.50267878  1
  Fe  Fe28  1  0.00280321  1.00218939  0.66919431  1
  Ni  Ni29  1  0.16993440  0.16887167  0.83446332  1
  Fe  Fe30  1  0.16914095  0.50359246  0.50233326  1
  Fe  Fe31  1  0.00276663  0.33550287  0.66953310  1
  Fe  Fe32  1  0.16820023  0.50328242  0.83497953  1
  Fe  Fe33  1  0.16876610  0.83593529  0.50267834  1
  Fe  Fe34  1  1.00235985  0.66960952  0.66919613  1
  Ni  Ni35  1  0.17001119  0.83564932  0.83507662  1
  Fe  Fe36  1  0.50338452  0.16766700  0.50189846  1
  Fe  Fe37  1  0.33544142  1.00221785  0.66966763  1
  Fe  Fe38  1  0.50208946  0.16772055  0.83525454  1
  Fe  Fe39  1  0.50297023  0.50360356  0.50244367  1
  Fe  Fe40  1  0.33546490  0.33546296  0.66963486  1
  Fe  Fe41  1  0.50214867  0.50317987  0.83505210  1
  Ni  Ni42  1  0.50374319  0.83627400  0.50147541  1
  Fe  Fe43  1  0.33584343  0.66962278  0.66912367  1
  Fe  Fe44  1  0.50117444  0.83640449  0.83537294  1
  Fe  Fe45  1  0.83509310  0.16729125  0.50166937  1
  Fe  Fe46  1  0.66906123  1.00181280  0.66786141  1
  Fe  Fe47  1  0.83608581  0.16946143  0.83510882  1
  Fe  Fe48  1  0.83519192  0.50366050  0.50231295  1
  Fe  Fe49  1  0.66907282  0.33590611  0.66927181  1
  Fe  Fe50  1  0.83695447  0.50236584  0.83615439  1
  Ni  Ni51  1  0.83496795  0.83510108  0.50250161  1
  Fe  Fe52  1  0.66910069  0.66958361  0.66848100  1
  Fe  Fe53  1  0.83618884  0.83547627  0.83467585  1
" 