4115,Ni12Fe57Cr29_19,-223.234644728419, 165.250787040354,Ni12Fe57Cr29,"# generated using pymatgen
 data_Cr17Fe31Ni6
_symmetry_space_group_name_H-M   'P 1'
_cell_length_a   7.48815885
_cell_length_b   7.48815885
_cell_length_c   10.58985580
_cell_angle_alpha   90.00000000
_cell_angle_beta   90.00000000
_cell_angle_gamma   90.00000000
_symmetry_Int_Tables_number   1
_chemical_formula_structural   Cr17Fe31Ni6
_chemical_formula_sum   'Cr17 Fe31 Ni6'
_cell_volume   593.79993265
_cell_formula_units_Z   1
loop_
 _symmetry_equiv_pos_site_id
 _symmetry_equiv_pos_as_xyz
  1  'x, y, z'
loop_
 _atom_site_type_symbol
 _atom_site_label
 _atom_site_symmetry_multiplicity
 _atom_site_fract_x
 _atom_site_fract_y
 _atom_site_fract_z
 _atom_site_occupancy
  Ni  Ni0  1  0.99800990  0.00169862  0.00168242  1
  Ni  Ni1  1  0.16739714  0.16471154  0.16614557  1
  Fe  Fe2  1  0.00022847  0.99716691  0.33109710  1
  Fe  Fe3  1  0.00054164  0.32972739  0.00059195  1
  Ni  Ni4  1  0.16925449  0.49771266  0.16439478  1
  Cr  Cr5  1  0.00010744  0.33158918  0.33366280  1
  Cr  Cr6  1  -0.00071543  0.66619845  0.00243819  1
  Ni  Ni7  1  0.16667294  0.83329563  0.16659409  1
  Cr  Cr8  1  0.99789375  0.66642348  0.33121373  1
  Cr  Cr9  1  0.33228539  0.00001566  -0.00078784  1
  Fe  Fe10  1  0.49598046  0.16628858  0.16660004  1
  Fe  Fe11  1  0.32995120  0.99788326  0.33053335  1
  Fe  Fe12  1  0.33207677  0.33163966  0.00091401  1
  Fe  Fe13  1  0.49536465  0.49675229  0.16693663  1
  Fe  Fe14  1  0.33155139  0.33304948  0.33042013  1
  Cr  Cr15  1  0.33320819  0.66446463  -0.00039150  1
  Fe  Fe16  1  0.49748540  0.83275063  0.16760841  1
  Fe  Fe17  1  0.33216281  0.66488528  0.33071715  1
  Fe  Fe18  1  0.66561045  -0.00064098  0.99851628  1
  Cr  Cr19  1  0.83074660  0.16321244  0.16340580  1
  Fe  Fe20  1  0.66557600  0.99588826  0.33179000  1
  Fe  Fe21  1  0.66330120  0.32934174  0.99769875  1
  Cr  Cr22  1  0.83059733  0.49839284  0.16525937  1
  Fe  Fe23  1  0.66306831  0.33357970  0.33182435  1
  Cr  Cr24  1  0.66329432  0.66473498  0.00038633  1
  Fe  Fe25  1  0.83377016  0.83443333  0.16619707  1
  Fe  Fe26  1  0.66364032  0.66612012  0.33274914  1
  Fe  Fe27  1  0.16566450  0.16508093  0.49735731  1
  Cr  Cr28  1  0.99842476  0.99833842  0.66275219  1
  Cr  Cr29  1  0.16469811  0.16721999  0.83296538  1
  Fe  Fe30  1  0.16579193  0.49944111  0.49989569  1
  Fe  Fe31  1  -0.00090960  0.33374242  0.66332150  1
  Cr  Cr32  1  0.16628315  0.49859690  0.83182626  1
  Fe  Fe33  1  0.16482374  0.83111413  0.49777795  1
  Ni  Ni34  1  0.99732875  0.66289361  0.66149750  1
  Cr  Cr35  1  0.16524861  0.83003485  0.83150772  1
  Cr  Cr36  1  0.49782197  0.16597396  0.49631930  1
  Cr  Cr37  1  0.33420983  0.99855034  0.66503777  1
  Fe  Fe38  1  0.50152167  0.16683328  0.83153732  1
  Fe  Fe39  1  0.49953922  0.50051600  0.49848550  1
  Fe  Fe40  1  0.33180254  0.33434588  0.66425120  1
  Fe  Fe41  1  0.49850403  0.49735474  0.83043578  1
  Fe  Fe42  1  0.50035625  0.83020942  0.49770950  1
  Fe  Fe43  1  0.33221219  0.66405749  0.66384211  1
  Fe  Fe44  1  0.49964096  0.83149536  0.83061299  1
  Cr  Cr45  1  0.83092164  0.16445321  0.49929100  1
  Fe  Fe46  1  0.66561466  0.99672601  0.66522364  1
  Fe  Fe47  1  0.83085028  0.16544046  0.83315537  1
  Fe  Fe48  1  0.83038589  0.50077768  0.50029526  1
  Fe  Fe49  1  0.66490096  0.33260451  0.66575298  1
  Cr  Cr50  1  0.83225297  0.49688968  0.83037580  1
  Ni  Ni51  1  0.83069782  0.82974267  0.49777113  1
  Fe  Fe52  1  0.66517464  0.66634441  0.66360811  1
  Cr  Cr53  1  0.83105659  0.83378612  0.83307500  1
" 