104,Ni12Fe54Cr33_19,-222.386210912474, 170.503561131352,Ni12Fe54Cr33,"# generated using pymatgen
 data_Cr19Fe29Ni6
_symmetry_space_group_name_H-M   'P 1'
_cell_length_a   7.48954830
_cell_length_b   7.48954830
_cell_length_c   10.59182078
_cell_angle_alpha   90.00000000
_cell_angle_beta   90.00000000
_cell_angle_gamma   90.00000000
_symmetry_Int_Tables_number   1
_chemical_formula_structural   Cr19Fe29Ni6
_chemical_formula_sum   'Cr19 Fe29 Ni6'
_cell_volume   594.13053714
_cell_formula_units_Z   1
loop_
 _symmetry_equiv_pos_site_id
 _symmetry_equiv_pos_as_xyz
  1  'x, y, z'
loop_
 _atom_site_type_symbol
 _atom_site_label
 _atom_site_symmetry_multiplicity
 _atom_site_fract_x
 _atom_site_fract_y
 _atom_site_fract_z
 _atom_site_occupancy
  Fe  Fe0  1  0.99680298  0.99559536  0.99764882  1
  Fe  Fe1  1  0.16674370  0.16574186  0.16630889  1
  Cr  Cr2  1  0.99781210  0.99686162  0.33140450  1
  Cr  Cr3  1  0.99782983  0.33158513  0.99827781  1
  Fe  Fe4  1  0.16393350  0.50098086  0.16577934  1
  Fe  Fe5  1  0.00153378  0.33349855  0.33194629  1
  Ni  Ni6  1  0.99758651  0.66962925  -0.00124872  1
  Fe  Fe7  1  0.16390508  0.82884912  0.16500916  1
  Ni  Ni8  1  0.00163101  0.66569689  0.33148230  1
  Cr  Cr9  1  0.33128552  0.99728582  0.99787276  1
  Fe  Fe10  1  0.49800067  0.16239252  0.16620848  1
  Fe  Fe11  1  0.33171198  0.99790054  0.32878956  1
  Cr  Cr12  1  0.33519377  0.33137550  -0.00144174  1
  Cr  Cr13  1  0.49723705  0.50057954  0.16424079  1
  Fe  Fe14  1  0.32684051  0.33195162  0.33074292  1
  Fe  Fe15  1  0.33014380  0.66663310  0.99777833  1
  Fe  Fe16  1  0.49951741  0.83373555  0.16540072  1
  Fe  Fe17  1  0.32833481  0.66554485  0.33053581  1
  Fe  Fe18  1  0.66707225  0.99742411  0.99607697  1
  Cr  Cr19  1  0.83122232  0.16274767  0.16375822  1
  Fe  Fe20  1  0.66637250  0.99671495  0.33202978  1
  Fe  Fe21  1  0.66554660  0.33128878  0.99546582  1
  Cr  Cr22  1  0.83349027  0.50007466  0.16313326  1
  Cr  Cr23  1  0.66450206  0.32966250  0.33101172  1
  Fe  Fe24  1  0.66555363  0.66686162  0.99687102  1
  Fe  Fe25  1  0.83237886  0.83036836  0.16454823  1
  Cr  Cr26  1  0.66747219  0.66753382  0.33425739  1
  Fe  Fe27  1  0.16407778  0.16743063  0.49887883  1
  Cr  Cr28  1  0.99626548  0.99685435  0.66612242  1
  Cr  Cr29  1  0.16362059  0.16294661  0.82929353  1
  Fe  Fe30  1  0.16363193  0.49815782  0.49841369  1
  Fe  Fe31  1  0.99769336  0.33205816  0.66551080  1
  Cr  Cr32  1  0.16359588  0.50052177  0.83129687  1
  Cr  Cr33  1  0.16513747  0.83147463  0.50035496  1
  Ni  Ni34  1  0.99744790  0.66550605  0.66533605  1
  Fe  Fe35  1  0.16206037  0.83089974  0.83261366  1
  Cr  Cr36  1  0.49644455  0.16261368  0.49835355  1
  Fe  Fe37  1  0.33393440  -0.00140371  0.66708844  1
  Fe  Fe38  1  0.50082520  0.16314412  0.83088846  1
  Cr  Cr39  1  0.49601481  0.49918688  0.49948471  1
  Fe  Fe40  1  0.33001246  0.33014607  0.66522756  1
  Fe  Fe41  1  0.50125308  0.49880160  0.83308956  1
  Cr  Cr42  1  0.50008123  0.83377261  0.49843071  1
  Cr  Cr43  1  0.33197026  0.66531603  0.66747032  1
  Fe  Fe44  1  0.50118730  0.83358563  0.83105967  1
  Fe  Fe45  1  0.83190083  0.16238413  0.49983193  1
  Ni  Ni46  1  0.66580178  -0.00129143  0.66516962  1
  Ni  Ni47  1  0.82916490  0.16327949  0.83276927  1
  Cr  Cr48  1  0.83562183  0.49991569  0.50002020  1
  Cr  Cr49  1  0.66515719  0.33149911  0.66872993  1
  Fe  Fe50  1  0.83215865  0.50037462  0.83242732  1
  Ni  Ni51  1  0.83303559  0.83250726  0.49923173  1
  Fe  Fe52  1  0.66902610  0.66934137  0.66661132  1
  Fe  Fe53  1  0.83210885  0.83134743  0.83129099  1
" 