8476,Ni12Fe57Cr29_5,-223.770981476486, 169.652356674443,Ni12Fe57Cr29,"# generated using pymatgen
 data_Cr17Fe31Ni6
_symmetry_space_group_name_H-M   'P 1'
_cell_length_a   7.49064965
_cell_length_b   7.49064965
_cell_length_c   10.59337833
_cell_angle_alpha   90.00000000
_cell_angle_beta   90.00000000
_cell_angle_gamma   90.00000000
_symmetry_Int_Tables_number   1
_chemical_formula_structural   Cr17Fe31Ni6
_chemical_formula_sum   'Cr17 Fe31 Ni6'
_cell_volume   594.39268034
_cell_formula_units_Z   1
loop_
 _symmetry_equiv_pos_site_id
 _symmetry_equiv_pos_as_xyz
  1  'x, y, z'
loop_
 _atom_site_type_symbol
 _atom_site_label
 _atom_site_symmetry_multiplicity
 _atom_site_fract_x
 _atom_site_fract_y
 _atom_site_fract_z
 _atom_site_occupancy
  Cr  Cr0  1  0.99839349  0.99776227  0.99792300  1
  Cr  Cr1  1  0.16491565  0.16618651  0.16681594  1
  Fe  Fe2  1  0.00050987  0.99624828  0.33318478  1
  Fe  Fe3  1  0.99593025  0.33160498  0.99616304  1
  Cr  Cr4  1  0.16480330  0.49958321  0.16236243  1
  Fe  Fe5  1  0.99791940  0.33222160  0.33198142  1
  Cr  Cr6  1  0.99797848  0.66407540  0.99673476  1
  Fe  Fe7  1  0.16687299  0.83158651  0.16771802  1
  Fe  Fe8  1  0.00148094  0.66704544  0.33271291  1
  Cr  Cr9  1  0.33307587  0.99712959  0.99799579  1
  Cr  Cr10  1  0.50028407  0.16336220  0.16260577  1
  Ni  Ni11  1  0.33170455  0.99540640  0.33350625  1
  Fe  Fe12  1  0.33247494  0.33431099  0.99451899  1
  Cr  Cr13  1  0.49808470  0.50051271  0.16562743  1
  Cr  Cr14  1  0.33252628  0.33104788  0.33602296  1
  Fe  Fe15  1  0.33177352  0.66598374  0.99539716  1
  Fe  Fe16  1  0.49557217  0.83157153  0.16765534  1
  Fe  Fe17  1  0.33107554  0.66765920  0.33422203  1
  Fe  Fe18  1  0.66640801  0.99802361  0.99481344  1
  Fe  Fe19  1  0.83158033  0.16693875  0.16654140  1
  Fe  Fe20  1  0.66186438  0.99762863  0.33381829  1
  Fe  Fe21  1  0.66700660  0.33070403  0.99604393  1
  Fe  Fe22  1  0.83122983  0.49635958  0.16741303  1
  Fe  Fe23  1  0.66495496  0.33062137  0.33180576  1
  Cr  Cr24  1  0.66483128  0.66446141  0.99699821  1
  Cr  Cr25  1  0.82829247  0.83228600  0.16858012  1
  Fe  Fe26  1  0.66146150  0.66651444  0.33483386  1
  Cr  Cr27  1  0.16421389  0.16311799  0.50156381  1
  Fe  Fe28  1  -0.00093387  0.99426117  0.66570519  1
  Cr  Cr29  1  0.16538904  0.16568223  0.82758443  1
  Cr  Cr30  1  0.16456514  0.50042635  0.50277073  1
  Fe  Fe31  1  0.99626975  0.33309889  0.66673517  1
  Fe  Fe32  1  0.16656632  0.49995851  0.82895912  1
  Ni  Ni33  1  0.16699046  0.83159138  0.49960443  1
  Fe  Fe34  1  -0.00040576  0.66802477  0.66641751  1
  Fe  Fe35  1  0.16698423  0.83068769  0.82802974  1
  Cr  Cr36  1  0.49815501  0.16435939  0.50179335  1
  Ni  Ni37  1  0.33102604  -0.00143324  0.66382066  1
  Fe  Fe38  1  0.49819761  0.16592203  0.82991225  1
  Fe  Fe39  1  0.49783990  0.50121029  0.50137606  1
  Ni  Ni40  1  0.33160109  0.33337814  0.66608717  1
  Fe  Fe41  1  0.49820851  0.49860213  0.82911035  1
  Ni  Ni42  1  0.49832947  0.83006567  0.49805376  1
  Fe  Fe43  1  0.33632924  0.66814905  0.66473413  1
  Fe  Fe44  1  0.49701908  0.83014751  0.82859754  1
  Cr  Cr45  1  0.83217889  0.16423844  0.49884108  1
  Cr  Cr46  1  0.66519927  0.99468474  0.66677516  1
  Fe  Fe47  1  0.83074544  0.16613858  0.83030997  1
  Cr  Cr48  1  0.82993028  0.49995256  0.49763544  1
  Fe  Fe49  1  0.66241676  0.33302821  0.66685834  1
  Fe  Fe50  1  0.83153792  0.49768326  0.82819280  1
  Fe  Fe51  1  0.83312107  0.83104038  0.49790861  1
  Ni  Ni52  1  0.66821120  0.66389854  0.66374815  1
  Fe  Fe53  1  0.83223520  0.83017569  0.82980557  1
" 