4566,Ni12Fe88_13,-242.171364038476, 196.577031569656,Ni12Fe88,"# generated using pymatgen
 data_FeNi8
_symmetry_space_group_name_H-M   'P 1'
_cell_length_a   7.43832331
_cell_length_b   7.43832331
_cell_length_c   10.51937770
_cell_angle_alpha   90.00000000
_cell_angle_beta   90.00000000
_cell_angle_gamma   90.00000000
_symmetry_Int_Tables_number   1
_chemical_formula_structural   FeNi8
_chemical_formula_sum   'Fe6 Ni48'
_cell_volume   582.02300474
_cell_formula_units_Z   6
loop_
 _symmetry_equiv_pos_site_id
 _symmetry_equiv_pos_as_xyz
  1  'x, y, z'
loop_
 _atom_site_type_symbol
 _atom_site_label
 _atom_site_symmetry_multiplicity
 _atom_site_fract_x
 _atom_site_fract_y
 _atom_site_fract_z
 _atom_site_occupancy
  Ni  Ni0  1  0.00245481  0.00346433  0.00194047  1
  Ni  Ni1  1  0.16891054  0.16856491  0.16833789  1
  Ni  Ni2  1  0.00276499  0.00238423  0.33530528  1
  Ni  Ni3  1  1.00095601  0.33386276  0.00193633  1
  Ni  Ni4  1  0.16820713  0.50148263  0.16882982  1
  Ni  Ni5  1  1.00152312  0.33441682  0.33566888  1
  Fe  Fe6  1  1.00143518  0.66937008  1.00192722  1
  Ni  Ni7  1  0.16852458  0.83566097  0.16953900  1
  Ni  Ni8  1  1.00179612  0.66900270  0.33439007  1
  Ni  Ni9  1  0.33445156  0.99988315  1.00115219  1
  Ni  Ni10  1  0.50156195  0.16797472  0.16865724  1
  Ni  Ni11  1  0.33420824  1.00161453  0.33563061  1
  Fe  Fe12  1  0.33623296  0.33466127  1.00184209  1
  Ni  Ni13  1  0.50208049  0.50188334  0.16913036  1
  Ni  Ni14  1  0.33555616  0.33506238  0.33395154  1
  Ni  Ni15  1  0.33582857  0.66948060  0.00236054  1
  Ni  Ni16  1  0.50213189  0.83572716  0.16916037  1
  Ni  Ni17  1  0.33614744  0.66887649  0.33551786  1
  Ni  Ni18  1  0.66887661  0.00231722  0.00270177  1
  Ni  Ni19  1  0.83538855  0.16844319  0.17005059  1
  Fe  Fe20  1  0.66828511  1.00163942  0.33525579  1
  Ni  Ni21  1  0.67015638  0.33546785  1.00152599  1
  Ni  Ni22  1  0.83545644  0.50220069  0.16884266  1
  Ni  Ni23  1  0.66854858  0.33617869  0.33561205  1
  Ni  Ni24  1  0.66640373  0.66801478  1.00151336  1
  Ni  Ni25  1  0.83493386  0.83519158  0.16829201  1
  Ni  Ni26  1  0.66798964  0.66769748  0.33509520  1
  Ni  Ni27  1  0.16939337  0.16936643  0.50202491  1
  Ni  Ni28  1  1.00171819  0.00222330  0.66853957  1
  Ni  Ni29  1  0.16860114  0.16880832  0.83521320  1
  Ni  Ni30  1  0.16805183  0.50026615  0.50145261  1
  Ni  Ni31  1  0.00220338  0.33452481  0.66829217  1
  Ni  Ni32  1  0.16825534  0.50163701  0.83539811  1
  Fe  Fe33  1  0.16882319  0.83401583  0.50169056  1
  Ni  Ni34  1  0.00247587  0.66909529  0.66937990  1
  Ni  Ni35  1  0.16844048  0.83541568  0.83400191  1
  Ni  Ni36  1  0.50009077  0.16855632  0.50190693  1
  Fe  Fe37  1  0.33569812  0.00241769  0.66870042  1
  Ni  Ni38  1  0.50210104  0.16800928  0.83525184  1
  Ni  Ni39  1  0.50174478  0.50153466  0.50192863  1
  Ni  Ni40  1  0.33527234  0.33628536  0.66955488  1
  Ni  Ni41  1  0.50186774  0.50202184  0.83460132  1
  Ni  Ni42  1  0.50371050  0.83575998  0.50203360  1
  Ni  Ni43  1  0.33576831  0.66818479  0.66785158  1
  Ni  Ni44  1  0.50246953  0.83571902  0.83470701  1
  Fe  Fe45  1  0.83453748  0.16956921  0.50227250  1
  Ni  Ni46  1  0.66948939  1.00187612  0.66862413  1
  Ni  Ni47  1  0.83530958  0.16820768  0.83414915  1
  Ni  Ni48  1  0.83599849  0.50398316  0.50240512  1
  Ni  Ni49  1  0.66816520  0.33531819  0.66872279  1
  Ni  Ni50  1  0.83563059  0.50223122  0.83453442  1
  Ni  Ni51  1  0.83509896  0.83444513  0.50188569  1
  Ni  Ni52  1  0.66772131  0.66877620  0.66915051  1
  Ni  Ni53  1  0.83481736  0.83549225  0.83582426  1
" 