7790,Ni12Fe81Cr6_10,-227.303336187593, 161.215887051535,Ni12Fe81Cr6,"# generated using pymatgen
 data_Cr5Fe43Ni6
_symmetry_space_group_name_H-M   'P 1'
_cell_length_a   7.43114136
_cell_length_b   7.43114136
_cell_length_c   10.50922090
_cell_angle_alpha   90.00000000
_cell_angle_beta   90.00000000
_cell_angle_gamma   90.00000000
_symmetry_Int_Tables_number   1
_chemical_formula_structural   Cr5Fe43Ni6
_chemical_formula_sum   'Cr5 Fe43 Ni6'
_cell_volume   580.33874547
_cell_formula_units_Z   1
loop_
 _symmetry_equiv_pos_site_id
 _symmetry_equiv_pos_as_xyz
  1  'x, y, z'
loop_
 _atom_site_type_symbol
 _atom_site_label
 _atom_site_symmetry_multiplicity
 _atom_site_fract_x
 _atom_site_fract_y
 _atom_site_fract_z
 _atom_site_occupancy
  Fe  Fe0  1  0.00269478  0.00322786  1.00151688  1
  Fe  Fe1  1  0.16960644  0.17010233  0.16822222  1
  Fe  Fe2  1  1.00149675  0.00476653  0.33641124  1
  Fe  Fe3  1  0.00348764  0.33509902  1.00170447  1
  Fe  Fe4  1  0.16922832  0.49955157  0.16975450  1
  Fe  Fe5  1  0.00273131  0.33437864  0.33651382  1
  Fe  Fe6  1  1.00059312  0.66892376  1.00152099  1
  Cr  Cr7  1  0.16811080  0.83713804  0.16849561  1
  Cr  Cr8  1  1.00187390  0.66811074  0.33616833  1
  Ni  Ni9  1  0.33611466  0.00598845  1.00118562  1
  Fe  Fe10  1  0.50195547  0.17015949  0.16905600  1
  Fe  Fe11  1  0.33482140  0.00297829  0.33592112  1
  Fe  Fe12  1  0.33552551  0.33333134  1.00224324  1
  Fe  Fe13  1  0.50311602  0.50027844  0.16992060  1
  Fe  Fe14  1  0.33453441  0.33711878  0.33518365  1
  Cr  Cr15  1  0.33518426  0.66855775  1.00074389  1
  Cr  Cr16  1  0.50420028  0.83673518  0.17065263  1
  Fe  Fe17  1  0.33705152  0.66715486  0.33735891  1
  Fe  Fe18  1  0.66908911  0.00296034  1.00178462  1
  Fe  Fe19  1  0.83568611  0.16871903  0.16926620  1
  Fe  Fe20  1  0.67093306  1.00225115  0.33573882  1
  Fe  Fe21  1  0.66823541  0.33542461  0.00263648  1
  Fe  Fe22  1  0.83490219  0.50209040  0.16820533  1
  Fe  Fe23  1  0.66998340  0.33661170  0.33475245  1
  Fe  Fe24  1  0.67085766  0.66886604  1.00120750  1
  Fe  Fe25  1  0.83496390  0.83643769  0.16833656  1
  Fe  Fe26  1  0.66818900  0.66838454  0.33692295  1
  Fe  Fe27  1  0.16728301  0.16991899  0.50312875  1
  Fe  Fe28  1  1.00203700  1.00216491  0.66931756  1
  Ni  Ni29  1  0.16953821  0.16899046  0.83578899  1
  Ni  Ni30  1  0.16885822  0.50236911  0.50343950  1
  Ni  Ni31  1  0.00267182  0.33604537  0.66788903  1
  Fe  Fe32  1  0.16765025  0.50101193  0.83386954  1
  Fe  Fe33  1  0.16987920  0.83588188  0.50305456  1
  Ni  Ni34  1  1.00193150  0.66796309  0.66976932  1
  Fe  Fe35  1  0.16837764  0.83723708  0.83539170  1
  Cr  Cr36  1  0.50311213  0.16891226  0.50312137  1
  Fe  Fe37  1  0.33420866  1.00136070  0.67077944  1
  Fe  Fe38  1  0.50146669  0.16871212  0.83599347  1
  Fe  Fe39  1  0.50213017  0.50430731  0.50252251  1
  Fe  Fe40  1  0.33381910  0.33769436  0.66982391  1
  Fe  Fe41  1  0.50308338  0.50137881  0.83479944  1
  Fe  Fe42  1  0.50213658  0.83340774  0.50237239  1
  Fe  Fe43  1  0.33498514  0.66819254  0.66882832  1
  Fe  Fe44  1  0.50264365  0.83716060  0.83523192  1
  Fe  Fe45  1  0.83809371  0.16991224  0.50248462  1
  Fe  Fe46  1  0.67100557  1.00099762  0.66972982  1
  Fe  Fe47  1  0.83659419  0.16944014  0.83549328  1
  Fe  Fe48  1  0.83561527  0.50170679  0.50406871  1
  Fe  Fe49  1  0.67097793  0.33764287  0.66986050  1
  Fe  Fe50  1  0.83651480  0.50219112  0.83496911  1
  Fe  Fe51  1  0.83523065  0.83562740  0.50365920  1
  Ni  Ni52  1  0.66922396  0.66927027  0.66839810  1
  Fe  Fe53  1  0.83622540  0.83561601  0.83525059  1
" 