482,Ni12Fe54Cr33_16,-222.634598701256, 174.45804747605,Ni12Fe54Cr33,"# generated using pymatgen
 data_Cr19Fe29Ni6
_symmetry_space_group_name_H-M   'P 1'
_cell_length_a   7.49072758
_cell_length_b   7.49072758
_cell_length_c   10.59348853
_cell_angle_alpha   90.00000000
_cell_angle_beta   90.00000000
_cell_angle_gamma   90.00000000
_symmetry_Int_Tables_number   1
_chemical_formula_structural   Cr19Fe29Ni6
_chemical_formula_sum   'Cr19 Fe29 Ni6'
_cell_volume   594.41123139
_cell_formula_units_Z   1
loop_
 _symmetry_equiv_pos_site_id
 _symmetry_equiv_pos_as_xyz
  1  'x, y, z'
loop_
 _atom_site_type_symbol
 _atom_site_label
 _atom_site_symmetry_multiplicity
 _atom_site_fract_x
 _atom_site_fract_y
 _atom_site_fract_z
 _atom_site_occupancy
  Fe  Fe0  1  0.99699329  0.99778358  -0.00098346  1
  Fe  Fe1  1  0.16279897  0.16535728  0.16742845  1
  Ni  Ni2  1  0.99607987  0.00059898  0.32967920  1
  Cr  Cr3  1  -0.00095160  0.33090617  -0.00062540  1
  Fe  Fe4  1  0.16582688  0.49655735  0.16629874  1
  Fe  Fe5  1  -0.00030958  0.33094542  0.33194292  1
  Fe  Fe6  1  0.99702213  0.66572648  0.99745354  1
  Cr  Cr7  1  0.16378156  0.83231907  0.16441185  1
  Cr  Cr8  1  0.99678364  0.66451532  0.33333104  1
  Cr  Cr9  1  0.33075846  -0.00124280  0.99779913  1
  Cr  Cr10  1  0.50010106  0.16548970  0.16533822  1
  Fe  Fe11  1  0.33142961  -0.00116206  0.33096618  1
  Cr  Cr12  1  0.33166429  0.33365959  -0.00117908  1
  Fe  Fe13  1  0.49927282  0.49876355  0.16465875  1
  Fe  Fe14  1  0.32997292  0.33233360  0.33147646  1
  Cr  Cr15  1  0.33265104  0.66284467  -0.00149673  1
  Fe  Fe16  1  0.50142919  0.83101161  0.16555904  1
  Cr  Cr17  1  0.33478355  0.66268989  0.33205535  1
  Fe  Fe18  1  0.66727560  0.99814764  -0.00052013  1
  Fe  Fe19  1  0.83249542  0.16319459  0.16566213  1
  Fe  Fe20  1  0.66644292  0.99622465  0.33134337  1
  Ni  Ni21  1  0.66558841  0.33338998  0.99727656  1
  Cr  Cr22  1  0.83070550  0.49811902  0.16424614  1
  Fe  Fe23  1  0.66559296  0.33265102  0.33167804  1
  Fe  Fe24  1  0.66569290  0.66380358  0.99792585  1
  Fe  Fe25  1  0.83028298  0.83404924  0.16491559  1
  Fe  Fe26  1  0.66504916  0.66638562  0.33247051  1
  Cr  Cr27  1  0.16430461  0.16482923  0.49726109  1
  Fe  Fe28  1  -0.00100471  -0.00136914  0.66575338  1
  Fe  Fe29  1  0.16424500  0.16454619  0.83004573  1
  Ni  Ni30  1  0.16359682  0.49969197  0.49876299  1
  Ni  Ni31  1  -0.00126830  0.33382033  0.66462001  1
  Fe  Fe32  1  0.16446796  0.49913069  0.82963910  1
  Cr  Cr33  1  0.16550888  0.83086102  0.50189480  1
  Fe  Fe34  1  -0.00116705  0.66276779  0.66511618  1
  Fe  Fe35  1  0.16334973  0.83158179  0.83064268  1
  Cr  Cr36  1  0.49964225  0.16497364  0.49905887  1
  Fe  Fe37  1  0.33019025  0.99763899  0.66588119  1
  Cr  Cr38  1  0.50006778  0.16775637  0.83085994  1
  Fe  Fe39  1  0.49845110  0.49848426  0.49874759  1
  Cr  Cr40  1  0.33070842  0.33360037  0.66720500  1
  Ni  Ni41  1  0.50017185  0.49810119  0.83257961  1
  Fe  Fe42  1  0.49835451  0.83094954  0.49794523  1
  Fe  Fe43  1  0.33076838  0.66334647  0.66507883  1
  Cr  Cr44  1  0.49641579  0.83080218  0.83227086  1
  Cr  Cr45  1  0.83131013  0.16751643  0.49744917  1
  Cr  Cr46  1  0.66570229  0.99762955  0.66369661  1
  Cr  Cr47  1  0.83101677  0.16717391  0.83200407  1
  Fe  Fe48  1  0.83269895  0.49745370  0.49905195  1
  Ni  Ni49  1  0.66680953  0.33472165  0.66543664  1
  Fe  Fe50  1  0.83019563  0.49838891  0.83156388  1
  Fe  Fe51  1  0.83213982  0.83133932  0.49734111  1
  Cr  Cr52  1  0.66532467  0.66365067  0.66263370  1
  Fe  Fe53  1  0.83343160  0.83019686  0.83299410  1
" 