6242,Ni12Fe54Cr33_10,-222.602193703296, 167.838338217111,Ni12Fe54Cr33,"# generated using pymatgen
 data_Cr19Fe29Ni6
_symmetry_space_group_name_H-M   'P 1'
_cell_length_a   7.49768581
_cell_length_b   7.49768581
_cell_length_c   10.60332896
_cell_angle_alpha   90.00000000
_cell_angle_beta   90.00000000
_cell_angle_gamma   90.00000000
_symmetry_Int_Tables_number   1
_chemical_formula_structural   Cr19Fe29Ni6
_chemical_formula_sum   'Cr19 Fe29 Ni6'
_cell_volume   596.06923900
_cell_formula_units_Z   1
loop_
 _symmetry_equiv_pos_site_id
 _symmetry_equiv_pos_as_xyz
  1  'x, y, z'
loop_
 _atom_site_type_symbol
 _atom_site_label
 _atom_site_symmetry_multiplicity
 _atom_site_fract_x
 _atom_site_fract_y
 _atom_site_fract_z
 _atom_site_occupancy
  Fe  Fe0  1  0.99657560  0.99743686  -0.00108822  1
  Fe  Fe1  1  0.16673893  0.16195796  0.16478220  1
  Fe  Fe2  1  0.99680325  -0.00187634  0.33149807  1
  Cr  Cr3  1  0.99717204  0.33114910  -0.00099418  1
  Cr  Cr4  1  0.16958137  0.49765477  0.16480042  1
  Cr  Cr5  1  0.99538696  0.33168081  0.33053435  1
  Cr  Cr6  1  -0.00148034  0.66484673  0.99755562  1
  Fe  Fe7  1  0.16674452  0.83308694  0.16457585  1
  Cr  Cr8  1  -0.00069693  0.66490585  0.33251523  1
  Fe  Fe9  1  0.33164770  0.99789625  -0.00051204  1
  Fe  Fe10  1  0.49939745  0.16508832  0.16448297  1
  Fe  Fe11  1  0.33176412  0.99779756  0.33120961  1
  Fe  Fe12  1  0.33430312  0.33004284  -0.00015970  1
  Ni  Ni13  1  0.49879782  0.49559090  0.16495728  1
  Fe  Fe14  1  0.33459173  0.32923898  0.33046893  1
  Fe  Fe15  1  0.33421991  0.66568295  -0.00164276  1
  Cr  Cr16  1  0.49941540  0.82970419  0.16446397  1
  Fe  Fe17  1  0.33382460  0.66637177  0.33156947  1
  Ni  Ni18  1  0.66229822  0.99762287  0.99612613  1
  Fe  Fe19  1  0.82720483  0.16411858  0.16448941  1
  Ni  Ni20  1  0.66217157  -0.00002401  0.33414590  1
  Fe  Fe21  1  0.66295110  0.33073539  0.00081170  1
  Fe  Fe22  1  0.82630280  0.49776832  0.16452889  1
  Fe  Fe23  1  0.66333268  0.33021480  0.33028663  1
  Fe  Fe24  1  0.66359253  0.66578504  -0.00183466  1
  Cr  Cr25  1  0.83095885  0.83485554  0.16407286  1
  Fe  Fe26  1  0.66411662  0.66466462  0.33123306  1
  Cr  Cr27  1  0.16563906  0.16307898  0.49933618  1
  Fe  Fe28  1  0.99723927  0.99492381  0.66345384  1
  Cr  Cr29  1  0.16593550  0.16426564  0.83081436  1
  Cr  Cr30  1  0.16755984  0.49849338  0.50164062  1
  Cr  Cr31  1  0.99701234  0.33245439  0.66454642  1
  Cr  Cr32  1  0.16870776  0.49731230  0.82752441  1
  Fe  Fe33  1  0.16622896  0.83126413  0.49930283  1
  Fe  Fe34  1  0.99717329  0.66774561  0.66364768  1
  Cr  Cr35  1  0.16341263  0.83248220  0.83135206  1
  Fe  Fe36  1  0.49808323  0.16275228  0.49754705  1
  Fe  Fe37  1  0.33307324  0.99698811  0.66324693  1
  Cr  Cr38  1  0.49683622  0.16416447  0.83083841  1
  Cr  Cr39  1  0.49754314  0.49839096  0.49616692  1
  Ni  Ni40  1  0.33258763  0.33137017  0.66425574  1
  Cr  Cr41  1  0.49636782  0.49934180  0.83291429  1
  Fe  Fe42  1  0.49733969  0.83276825  0.49758029  1
  Ni  Ni43  1  0.33210073  0.66876563  0.66435129  1
  Fe  Fe44  1  0.50004497  0.83142989  0.83143549  1
  Fe  Fe45  1  0.82905313  0.16216851  0.49676379  1
  Fe  Fe46  1  0.66332675  0.99444931  0.66343793  1
  Cr  Cr47  1  0.83107513  0.15896511  0.83237283  1
  Fe  Fe48  1  0.83022308  0.49946515  0.49805371  1
  Cr  Cr49  1  0.66451657  0.32830027  0.66250760  1
  Cr  Cr50  1  0.82881859  0.50171988  0.83121207  1
  Fe  Fe51  1  0.83005890  0.83245800  0.49857833  1
  Fe  Fe52  1  0.66344491  0.66720682  0.66409545  1
  Ni  Ni53  1  0.82854964  0.83294575  0.82981490  1
" 