410,Ni12Fe32Cr54_3,-215.940187372234, 174.470307060888,Ni12Fe32Cr54,"# generated using pymatgen
 data_Cr31Fe17Ni6
_symmetry_space_group_name_H-M   'P 1'
_cell_length_a   7.53827558
_cell_length_b   7.53827558
_cell_length_c   10.66073156
_cell_angle_alpha   90.00000000
_cell_angle_beta   90.00000000
_cell_angle_gamma   90.00000000
_symmetry_Int_Tables_number   1
_chemical_formula_structural   Cr31Fe17Ni6
_chemical_formula_sum   'Cr31 Fe17 Ni6'
_cell_volume   605.80245321
_cell_formula_units_Z   1
loop_
 _symmetry_equiv_pos_site_id
 _symmetry_equiv_pos_as_xyz
  1  'x, y, z'
loop_
 _atom_site_type_symbol
 _atom_site_label
 _atom_site_symmetry_multiplicity
 _atom_site_fract_x
 _atom_site_fract_y
 _atom_site_fract_z
 _atom_site_occupancy
  Cr  Cr0  1  0.99414904  0.00062698  -0.00434043  1
  Cr  Cr1  1  0.16354007  0.16139289  0.16397762  1
  Cr  Cr2  1  -0.00401477  -0.00300257  0.33016312  1
  Cr  Cr3  1  0.99258156  0.32657226  0.99445818  1
  Cr  Cr4  1  0.16305922  0.49529101  0.16105908  1
  Cr  Cr5  1  0.99508520  0.32890857  0.32906337  1
  Cr  Cr6  1  0.99250041  0.65888517  -0.00382083  1
  Cr  Cr7  1  0.16191213  0.82918136  0.16118088  1
  Cr  Cr8  1  0.99368591  0.65978632  0.33205154  1
  Cr  Cr9  1  0.33171147  -0.00343864  0.99502862  1
  Ni  Ni10  1  0.49786614  0.16311495  0.16384166  1
  Ni  Ni11  1  0.33073451  -0.00161072  0.32787167  1
  Cr  Cr12  1  0.32728038  0.32442943  0.99357999  1
  Cr  Cr13  1  0.49583569  0.49142308  0.16347659  1
  Fe  Fe14  1  0.32895462  0.32556917  0.32855801  1
  Cr  Cr15  1  0.33267311  0.66466413  0.99490506  1
  Ni  Ni16  1  0.49584573  0.83139150  0.16233155  1
  Cr  Cr17  1  0.32955690  0.66431425  0.32868946  1
  Cr  Cr18  1  0.65948936  -0.00378164  -0.00408166  1
  Fe  Fe19  1  0.82476345  0.16459780  0.16237507  1
  Cr  Cr20  1  0.65938931  0.99458160  0.32582726  1
  Fe  Fe21  1  0.66199951  0.32651001  -0.00420704  1
  Fe  Fe22  1  0.82626375  0.49233752  0.16232341  1
  Fe  Fe23  1  0.66224584  0.32684307  0.32748572  1
  Cr  Cr24  1  0.66083478  0.66328086  -0.00369111  1
  Cr  Cr25  1  0.83044109  0.82983529  0.16284952  1
  Cr  Cr26  1  0.66265894  0.66264477  0.32857607  1
  Fe  Fe27  1  0.16410875  0.15915271  0.49585135  1
  Fe  Fe28  1  -0.00144933  0.99443489  0.66105058  1
  Ni  Ni29  1  0.16121881  0.15960142  0.82553842  1
  Fe  Fe30  1  0.16110043  0.49540846  0.49624936  1
  Cr  Cr31  1  -0.00463025  0.32870708  0.66266871  1
  Cr  Cr32  1  0.16209723  0.49630517  0.82970181  1
  Fe  Fe33  1  0.16197416  0.83160838  0.49702667  1
  Ni  Ni34  1  0.99272251  0.66138992  0.65784425  1
  Cr  Cr35  1  0.15946513  0.83020334  0.82874286  1
  Cr  Cr36  1  0.49537909  0.16318403  0.49451576  1
  Ni  Ni37  1  0.32939274  -0.00242481  0.66327841  1
  Fe  Fe38  1  0.49490137  0.15970348  0.82682459  1
  Cr  Cr39  1  0.49554798  0.49118285  0.49350959  1
  Cr  Cr40  1  0.32619091  0.32534477  0.66166045  1
  Cr  Cr41  1  0.49808483  0.49222921  0.82820971  1
  Cr  Cr42  1  0.49522686  0.83101837  0.49632868  1
  Cr  Cr43  1  0.32822402  0.66350446  0.66254381  1
  Fe  Fe44  1  0.49480019  0.83189203  0.82670840  1
  Cr  Cr45  1  0.82736497  0.15956523  0.49681787  1
  Fe  Fe46  1  0.66059372  -0.00320977  0.66307030  1
  Fe  Fe47  1  0.82803406  0.16308041  0.82693220  1
  Fe  Fe48  1  0.82854503  0.49474501  0.49656954  1
  Fe  Fe49  1  0.66250404  0.32752725  0.66298985  1
  Fe  Fe50  1  0.82910342  0.49436651  0.82724376  1
  Fe  Fe51  1  0.83009733  0.82886469  0.49712361  1
  Cr  Cr52  1  0.66307689  0.66271285  0.66089505  1
  Cr  Cr53  1  0.83016307  0.83043493  0.82545331  1
" 