4597,Ni12Fe88_5,-241.971846834919, 195.702985873596,Ni12Fe88,"# generated using pymatgen
 data_FeNi8
_symmetry_space_group_name_H-M   'P 1'
_cell_length_a   7.43866645
_cell_length_b   7.43866645
_cell_length_c   10.51986298
_cell_angle_alpha   90.00000000
_cell_angle_beta   90.00000000
_cell_angle_gamma   90.00000000
_symmetry_Int_Tables_number   1
_chemical_formula_structural   FeNi8
_chemical_formula_sum   'Fe6 Ni48'
_cell_volume   582.10355902
_cell_formula_units_Z   6
loop_
 _symmetry_equiv_pos_site_id
 _symmetry_equiv_pos_as_xyz
  1  'x, y, z'
loop_
 _atom_site_type_symbol
 _atom_site_label
 _atom_site_symmetry_multiplicity
 _atom_site_fract_x
 _atom_site_fract_y
 _atom_site_fract_z
 _atom_site_occupancy
  Ni  Ni0  1  1.00120416  0.00276515  1.00089256  1
  Ni  Ni1  1  0.16903741  0.16750917  0.16827799  1
  Ni  Ni2  1  1.00182540  0.00263341  0.33614846  1
  Ni  Ni3  1  0.00194300  0.33479756  0.00209291  1
  Ni  Ni4  1  0.16952042  0.50288906  0.16833851  1
  Ni  Ni5  1  0.00213391  0.33507623  0.33450978  1
  Ni  Ni6  1  0.00266772  0.66818037  1.00168206  1
  Ni  Ni7  1  0.16735558  0.83533639  0.16881230  1
  Ni  Ni8  1  0.00216233  0.66800264  0.33496392  1
  Fe  Fe9  1  0.33478115  1.00151617  1.00190260  1
  Ni  Ni10  1  0.50225296  0.16975581  0.16867280  1
  Ni  Ni11  1  0.33556474  0.00209103  0.33498392  1
  Fe  Fe12  1  0.33551142  0.33602304  0.00193985  1
  Ni  Ni13  1  0.50223521  0.50090572  0.16882654  1
  Ni  Ni14  1  0.33467082  0.33508601  0.33498304  1
  Ni  Ni15  1  0.33552376  0.66896172  1.00119840  1
  Fe  Fe16  1  0.50193886  0.83472373  0.16945915  1
  Ni  Ni17  1  0.33517921  0.66851918  0.33620169  1
  Ni  Ni18  1  0.66822369  0.00208730  0.00207984  1
  Ni  Ni19  1  0.83449801  0.16777844  0.16849219  1
  Ni  Ni20  1  0.66836970  0.00210316  0.33499178  1
  Ni  Ni21  1  0.66934662  0.33448410  1.00089273  1
  Ni  Ni22  1  0.83409968  0.50254885  0.16801906  1
  Ni  Ni23  1  0.66888093  0.33474442  0.33614904  1
  Ni  Ni24  1  0.66747813  0.66920266  1.00163870  1
  Ni  Ni25  1  0.83650994  0.83539887  0.16842650  1
  Ni  Ni26  1  0.66837788  0.66885941  0.33500914  1
  Ni  Ni27  1  0.16942500  0.16805917  0.50183639  1
  Fe  Fe28  1  0.00273850  1.00111362  0.66858931  1
  Ni  Ni29  1  0.16929485  0.16785980  0.83569977  1
  Ni  Ni30  1  0.16904395  0.50222233  0.50166809  1
  Ni  Ni31  1  0.00256163  0.33533577  0.66914052  1
  Ni  Ni32  1  0.16935291  0.50261392  0.83576498  1
  Ni  Ni33  1  0.16858737  0.83518098  0.50208757  1
  Ni  Ni34  1  1.00188978  0.66648684  0.66910515  1
  Ni  Ni35  1  0.16783932  0.83499361  0.83484771  1
  Ni  Ni36  1  0.50151956  0.16878063  0.50182632  1
  Ni  Ni37  1  0.33683887  0.00238824  0.66901922  1
  Ni  Ni38  1  0.50194904  0.16943018  0.83531599  1
  Ni  Ni39  1  0.50168201  0.50174882  0.50208770  1
  Ni  Ni40  1  0.33332519  0.33483606  0.66905707  1
  Ni  Ni41  1  0.50178572  0.50128167  0.83483225  1
  Ni  Ni42  1  0.50191566  0.83539884  0.50166892  1
  Ni  Ni43  1  0.33516619  0.66850633  0.66821002  1
  Fe  Fe44  1  0.50215435  0.83504330  0.83432284  1
  Ni  Ni45  1  0.83473827  0.16806989  0.50228710  1
  Ni  Ni46  1  0.66796321  1.00186464  0.66860254  1
  Ni  Ni47  1  0.83449467  0.16777544  0.83489560  1
  Ni  Ni48  1  0.83479922  0.50267239  0.50176893  1
  Fe  Fe49  1  0.66793488  0.33622692  0.66858835  1
  Ni  Ni50  1  0.83451784  0.50277471  0.83591448  1
  Ni  Ni51  1  0.83538542  0.83493837  0.50175922  1
  Ni  Ni52  1  0.66870023  0.67030081  0.66901964  1
  Ni  Ni53  1  0.83611830  0.83513172  0.83551347  1
" 