2101,Ni12Fe88_7,-241.970722846244, 195.820539200783,Ni12Fe88,"# generated using pymatgen
 data_FeNi8
_symmetry_space_group_name_H-M   'P 1'
_cell_length_a   7.43847581
_cell_length_b   7.43847581
_cell_length_c   10.51959338
_cell_angle_alpha   90.00000000
_cell_angle_beta   90.00000000
_cell_angle_gamma   90.00000000
_symmetry_Int_Tables_number   1
_chemical_formula_structural   FeNi8
_chemical_formula_sum   'Fe6 Ni48'
_cell_volume   582.05880507
_cell_formula_units_Z   6
loop_
 _symmetry_equiv_pos_site_id
 _symmetry_equiv_pos_as_xyz
  1  'x, y, z'
loop_
 _atom_site_type_symbol
 _atom_site_label
 _atom_site_symmetry_multiplicity
 _atom_site_fract_x
 _atom_site_fract_y
 _atom_site_fract_z
 _atom_site_occupancy
  Ni  Ni0  1  0.00220656  0.00228652  0.00280953  1
  Ni  Ni1  1  0.16885116  0.16903413  0.16969964  1
  Fe  Fe2  1  1.00164743  1.00146027  0.33524527  1
  Ni  Ni3  1  1.00191582  0.33464673  1.00152417  1
  Ni  Ni4  1  0.16885734  0.50225943  0.16868137  1
  Ni  Ni5  1  1.00133349  0.33604547  0.33568004  1
  Ni  Ni6  1  1.00154650  0.66882451  1.00152189  1
  Ni  Ni7  1  0.16853475  0.83440695  0.16845126  1
  Ni  Ni8  1  1.00147885  0.66779795  0.33521460  1
  Ni  Ni9  1  0.33506191  1.00192044  1.00158349  1
  Ni  Ni10  1  0.50242263  0.16868585  0.16790520  1
  Ni  Ni11  1  0.33582511  0.00194043  0.33521353  1
  Ni  Ni12  1  0.33506025  0.33470704  0.00203752  1
  Ni  Ni13  1  0.50139076  0.50154396  0.16991968  1
  Ni  Ni14  1  0.33500971  0.33437540  0.33585064  1
  Ni  Ni15  1  0.33579899  0.66913415  0.00203768  1
  Ni  Ni16  1  0.50208607  0.83550341  0.16907770  1
  Ni  Ni17  1  0.33480480  0.66942571  0.33538966  1
  Ni  Ni18  1  0.66847696  1.00155344  1.00126552  1
  Ni  Ni19  1  0.83440752  0.16836305  0.16925607  1
  Ni  Ni20  1  0.66764459  0.00195400  0.33568416  1
  Ni  Ni21  1  0.66874421  0.33533768  0.00239467  1
  Ni  Ni22  1  0.83551778  0.50191120  0.16829749  1
  Ni  Ni23  1  0.66933506  0.33502746  0.33496364  1
  Ni  Ni24  1  0.66837527  0.66887422  0.00239074  1
  Ni  Ni25  1  0.83510728  0.83543804  0.16918647  1
  Ni  Ni26  1  0.66978356  0.66880745  0.33515098  1
  Fe  Fe27  1  0.16727260  0.16872462  0.50210306  1
  Ni  Ni28  1  0.00263801  1.00176786  0.66767590  1
  Ni  Ni29  1  0.16839644  0.16900076  0.83404956  1
  Ni  Ni30  1  0.16885518  0.50318347  0.50228105  1
  Ni  Ni31  1  1.00121473  0.33496553  0.66864416  1
  Ni  Ni32  1  0.16970544  0.50230048  0.83478837  1
  Ni  Ni33  1  0.16833859  0.83339941  0.50214570  1
  Ni  Ni34  1  1.00136006  0.66899788  0.66912102  1
  Ni  Ni35  1  0.16804454  0.83449595  0.83522172  1
  Ni  Ni36  1  0.50242254  0.16901715  0.50237891  1
  Ni  Ni37  1  0.33466903  1.00179253  0.66879071  1
  Ni  Ni38  1  0.50252243  0.16935593  0.83549607  1
  Fe  Fe39  1  0.50285663  0.50195966  0.50171265  1
  Ni  Ni40  1  0.33551556  0.33448647  0.66793808  1
  Ni  Ni41  1  0.50071111  0.50156673  0.83443957  1
  Fe  Fe42  1  0.50237149  0.83513596  0.50160705  1
  Ni  Ni43  1  0.33549564  0.66950816  0.66822202  1
  Ni  Ni44  1  0.50221718  0.83489232  0.83424943  1
  Ni  Ni45  1  0.83283623  0.16862881  0.50180323  1
  Fe  Fe46  1  0.66883527  0.00218276  0.66865408  1
  Ni  Ni47  1  0.83486659  0.16765002  0.83470834  1
  Ni  Ni48  1  0.83645589  0.50193336  0.50261148  1
  Ni  Ni49  1  0.66893984  0.33583907  0.66858643  1
  Fe  Fe50  1  0.83493631  0.50191969  0.83529323  1
  Ni  Ni51  1  0.83622603  0.83520166  0.50186201  1
  Ni  Ni52  1  0.66919873  0.66830338  0.66821949  1
  Ni  Ni53  1  0.83558277  0.83623469  0.83467329  1
" 