7212,Ni12Fe32Cr54_18,-216.221117326096, 179.551063140668,Ni12Fe32Cr54,"# generated using pymatgen
 data_Cr31Fe17Ni6
_symmetry_space_group_name_H-M   'P 1'
_cell_length_a   7.52944877
_cell_length_b   7.52944877
_cell_length_c   10.64824857
_cell_angle_alpha   90.00000000
_cell_angle_beta   90.00000000
_cell_angle_gamma   90.00000000
_symmetry_Int_Tables_number   1
_chemical_formula_structural   Cr31Fe17Ni6
_chemical_formula_sum   'Cr31 Fe17 Ni6'
_cell_volume   603.67688466
_cell_formula_units_Z   1
loop_
 _symmetry_equiv_pos_site_id
 _symmetry_equiv_pos_as_xyz
  1  'x, y, z'
loop_
 _atom_site_type_symbol
 _atom_site_label
 _atom_site_symmetry_multiplicity
 _atom_site_fract_x
 _atom_site_fract_y
 _atom_site_fract_z
 _atom_site_occupancy
  Cr  Cr0  1  -0.00239908  0.99573402  0.99244280  1
  Cr  Cr1  1  0.16422140  0.16060419  0.16432442  1
  Cr  Cr2  1  -0.00353787  -0.00378234  0.33296576  1
  Cr  Cr3  1  -0.00340615  0.32957693  -0.00303999  1
  Fe  Fe4  1  0.16413906  0.49549517  0.16340042  1
  Cr  Cr5  1  -0.00071367  0.33015685  0.33104439  1
  Cr  Cr6  1  -0.00366029  0.66207962  -0.00036948  1
  Cr  Cr7  1  0.16592938  0.83011393  0.15911694  1
  Cr  Cr8  1  0.99563508  0.66087240  0.32958395  1
  Ni  Ni9  1  0.33164229  0.99493207  0.99463847  1
  Fe  Fe10  1  0.49509183  0.16052219  0.16331481  1
  Ni  Ni11  1  0.33267182  -0.00222346  0.32817011  1
  Cr  Cr12  1  0.33053932  0.32658523  -0.00306296  1
  Cr  Cr13  1  0.49623936  0.49463473  0.16287504  1
  Fe  Fe14  1  0.33032400  0.32999034  0.32897351  1
  Fe  Fe15  1  0.33104954  0.66299728  -0.00391357  1
  Fe  Fe16  1  0.49403129  0.83217108  0.16431192  1
  Fe  Fe17  1  0.32748199  0.66333495  0.32822128  1
  Cr  Cr18  1  0.65849990  -0.00374195  -0.00333824  1
  Cr  Cr19  1  0.82647524  0.16516470  0.16028057  1
  Fe  Fe20  1  0.66277039  -0.00117976  0.32923823  1
  Ni  Ni21  1  0.65807407  0.32897656  0.99489045  1
  Fe  Fe22  1  0.82756119  0.49405189  0.16330991  1
  Fe  Fe23  1  0.66379510  0.32835061  0.32918523  1
  Cr  Cr24  1  0.66096417  0.66244591  -0.00318377  1
  Cr  Cr25  1  0.82846926  0.83126294  0.16488277  1
  Cr  Cr26  1  0.66216732  0.66396760  0.33042936  1
  Fe  Fe27  1  0.16459646  0.16276028  0.49405330  1
  Cr  Cr28  1  -0.00403339  -0.00260806  0.66144446  1
  Cr  Cr29  1  0.16315090  0.16073524  0.82798221  1
  Fe  Fe30  1  0.16374311  0.49535606  0.49514093  1
  Cr  Cr31  1  -0.00302485  0.32875560  0.65913817  1
  Cr  Cr32  1  0.16406828  0.49889547  0.82946905  1
  Cr  Cr33  1  0.16540062  0.83015761  0.49868920  1
  Cr  Cr34  1  0.99421478  0.66151944  0.65871626  1
  Fe  Fe35  1  0.16502102  0.82912611  0.82888042  1
  Cr  Cr36  1  0.49617733  0.16294957  0.49172470  1
  Fe  Fe37  1  0.33093219  -0.00271941  0.66314915  1
  Ni  Ni38  1  0.49454050  0.16174086  0.83212874  1
  Cr  Cr39  1  0.49527909  0.49586817  0.49784250  1
  Cr  Cr40  1  0.32962802  0.32720551  0.66169749  1
  Fe  Fe41  1  0.49463286  0.49372019  0.83033722  1
  Cr  Cr42  1  0.49345346  0.82952521  0.49350553  1
  Fe  Fe43  1  0.32848899  0.66235544  0.66308598  1
  Cr  Cr44  1  0.49264053  0.82784612  0.82787216  1
  Ni  Ni45  1  0.82912748  0.16541606  0.49587435  1
  Cr  Cr46  1  0.66104175  -0.00321098  0.66082593  1
  Fe  Fe47  1  0.82582489  0.16286456  0.83002842  1
  Ni  Ni48  1  0.82855251  0.49204388  0.49355638  1
  Cr  Cr49  1  0.66043395  0.32823718  0.66614380  1
  Cr  Cr50  1  0.82780402  0.49332111  0.83207066  1
  Fe  Fe51  1  0.82768513  0.83028588  0.49499652  1
  Cr  Cr52  1  0.66198541  0.66190773  0.66114588  1
  Cr  Cr53  1  0.83081343  0.82908592  0.82804262  1
" 