2081,Ni12Fe54Cr33_15,-222.274386668498, 172.453070799587,Ni12Fe54Cr33,"# generated using pymatgen
 data_Cr19Fe29Ni6
_symmetry_space_group_name_H-M   'P 1'
_cell_length_a   7.48571081
_cell_length_b   7.48571081
_cell_length_c   10.58639375
_cell_angle_alpha   90.00000000
_cell_angle_beta   90.00000000
_cell_angle_gamma   90.00000000
_symmetry_Int_Tables_number   1
_chemical_formula_structural   Cr19Fe29Ni6
_chemical_formula_sum   'Cr19 Fe29 Ni6'
_cell_volume   593.21774556
_cell_formula_units_Z   1
loop_
 _symmetry_equiv_pos_site_id
 _symmetry_equiv_pos_as_xyz
  1  'x, y, z'
loop_
 _atom_site_type_symbol
 _atom_site_label
 _atom_site_symmetry_multiplicity
 _atom_site_fract_x
 _atom_site_fract_y
 _atom_site_fract_z
 _atom_site_occupancy
  Cr  Cr0  1  -0.00061352  -0.00093606  -0.00122104  1
  Fe  Fe1  1  0.16204118  0.16692330  0.16703198  1
  Fe  Fe2  1  0.99803052  0.00097162  0.33322699  1
  Cr  Cr3  1  0.99545525  0.33122617  0.99806544  1
  Fe  Fe4  1  0.16524974  0.49707469  0.16821748  1
  Fe  Fe5  1  0.99853531  0.32931507  0.33180058  1
  Fe  Fe6  1  0.99742777  0.66461162  0.99626619  1
  Cr  Cr7  1  0.16499725  0.82947233  0.16590568  1
  Fe  Fe8  1  0.99858540  0.66607754  0.33418400  1
  Fe  Fe9  1  0.33359872  0.99724754  0.99748904  1
  Cr  Cr10  1  0.50130613  0.16515569  0.16198490  1
  Cr  Cr11  1  0.33031561  0.99856286  0.33043712  1
  Cr  Cr12  1  0.33355258  0.33381621  0.00069535  1
  Fe  Fe13  1  0.50082080  0.50015748  0.16603371  1
  Fe  Fe14  1  0.33289444  0.33316804  0.33146746  1
  Cr  Cr15  1  0.33392469  0.66662290  0.99806684  1
  Fe  Fe16  1  0.50147359  0.83083397  0.16436310  1
  Fe  Fe17  1  0.33459647  0.66375049  0.33183536  1
  Fe  Fe18  1  0.66604383  -0.00031667  0.99796054  1
  Ni  Ni19  1  0.83059537  0.16664747  0.16749526  1
  Cr  Cr20  1  0.66624098  0.99874442  0.33506645  1
  Ni  Ni21  1  0.66677047  0.33401705  0.99862203  1
  Cr  Cr22  1  0.83195835  0.49930981  0.16612643  1
  Fe  Fe23  1  0.66506063  0.33273554  0.33256292  1
  Fe  Fe24  1  0.66541901  0.66381205  0.99604778  1
  Cr  Cr25  1  0.83080534  0.83194243  0.16496037  1
  Fe  Fe26  1  0.66319729  0.66405892  0.33417525  1
  Fe  Fe27  1  0.16506751  0.16662605  0.49810458  1
  Cr  Cr28  1  0.99770107  -0.00104684  0.66337935  1
  Cr  Cr29  1  0.16580897  0.16589108  0.83066731  1
  Cr  Cr30  1  0.16577244  0.49955966  0.50026216  1
  Fe  Fe31  1  0.99667641  0.33108438  0.66499506  1
  Cr  Cr32  1  0.16533259  0.49975831  0.82974155  1
  Fe  Fe33  1  0.16511780  0.83141340  0.49775214  1
  Cr  Cr34  1  0.99681512  0.66675414  0.66903298  1
  Ni  Ni35  1  0.16645138  0.83020552  0.83183163  1
  Fe  Fe36  1  0.49777662  0.16744223  0.49879745  1
  Cr  Cr37  1  0.33245623  0.99622117  0.66560500  1
  Cr  Cr38  1  0.50209420  0.16485785  0.83251653  1
  Fe  Fe39  1  0.49884861  0.49861567  0.49785725  1
  Fe  Fe40  1  0.33338495  0.33408370  0.66453805  1
  Ni  Ni41  1  0.50005650  0.50023296  0.83165879  1
  Fe  Fe42  1  0.49806547  0.83010765  0.49936750  1
  Fe  Fe43  1  0.33444080  0.66604815  0.66688973  1
  Ni  Ni44  1  0.50008952  0.83136611  0.83328004  1
  Fe  Fe45  1  0.83328043  0.16739045  0.49807116  1
  Fe  Fe46  1  0.66654419  0.99724611  0.66475464  1
  Ni  Ni47  1  0.82919568  0.16489860  0.83151878  1
  Fe  Fe48  1  0.83172872  0.49855547  0.49617348  1
  Cr  Cr49  1  0.66636609  0.33337939  0.66511539  1
  Fe  Fe50  1  0.82862167  0.49836719  0.83445374  1
  Fe  Fe51  1  0.83289363  0.83037283  0.49737762  1
  Cr  Cr52  1  0.66406894  0.66496540  0.66600425  1
  Fe  Fe53  1  0.82974546  0.83328512  0.83407083  1
" 