1146,Ni12Fe88_14,-242.151153737653, 197.124280039775,Ni12Fe88,"# generated using pymatgen
 data_FeNi8
_symmetry_space_group_name_H-M   'P 1'
_cell_length_a   7.43850002
_cell_length_b   7.43850002
_cell_length_c   10.51962761
_cell_angle_alpha   90.00000000
_cell_angle_beta   90.00000000
_cell_angle_gamma   90.00000000
_symmetry_Int_Tables_number   1
_chemical_formula_structural   FeNi8
_chemical_formula_sum   'Fe6 Ni48'
_cell_volume   582.06448674
_cell_formula_units_Z   6
loop_
 _symmetry_equiv_pos_site_id
 _symmetry_equiv_pos_as_xyz
  1  'x, y, z'
loop_
 _atom_site_type_symbol
 _atom_site_label
 _atom_site_symmetry_multiplicity
 _atom_site_fract_x
 _atom_site_fract_y
 _atom_site_fract_z
 _atom_site_occupancy
  Ni  Ni0  1  1.00166837  1.00158883  1.00187388  1
  Ni  Ni1  1  0.16981941  0.16806488  0.16838562  1
  Ni  Ni2  1  1.00139583  1.00041194  0.33518818  1
  Ni  Ni3  1  1.00166908  0.33496689  0.00275027  1
  Ni  Ni4  1  0.16899861  0.50262179  0.16843571  1
  Fe  Fe5  1  0.00275713  0.33442021  0.33487106  1
  Ni  Ni6  1  0.00198708  0.66920095  1.00114867  1
  Ni  Ni7  1  0.16818811  0.83499365  0.16803342  1
  Ni  Ni8  1  0.00253897  0.67000299  0.33603152  1
  Ni  Ni9  1  0.33502321  0.00202636  0.00198072  1
  Ni  Ni10  1  0.50189513  0.16892424  0.16844365  1
  Ni  Ni11  1  0.33493741  0.00194668  0.33582733  1
  Ni  Ni12  1  0.33581026  0.33533499  1.00176326  1
  Ni  Ni13  1  0.50185878  0.50105143  0.16777466  1
  Ni  Ni14  1  0.33737479  0.33581108  0.33561156  1
  Ni  Ni15  1  0.33501159  0.66842762  1.00186570  1
  Fe  Fe16  1  0.50152667  0.83583341  0.16849006  1
  Ni  Ni17  1  0.33407727  0.66797638  0.33545115  1
  Ni  Ni18  1  0.66906266  0.00233668  1.00162848  1
  Ni  Ni19  1  0.83418491  0.16822208  0.16809568  1
  Ni  Ni20  1  0.66944451  0.00354627  0.33582538  1
  Ni  Ni21  1  0.66828670  0.33501458  1.00139107  1
  Ni  Ni22  1  0.83491490  0.50254778  0.16882075  1
  Ni  Ni23  1  0.66763187  0.33469543  0.33559708  1
  Ni  Ni24  1  0.66871482  0.66847327  0.00268183  1
  Ni  Ni25  1  0.83564825  0.83504065  0.16813804  1
  Fe  Fe26  1  0.66797960  0.66900993  0.33541696  1
  Ni  Ni27  1  0.16928767  0.16845528  0.50163085  1
  Ni  Ni28  1  1.00155762  1.00172738  0.66867619  1
  Ni  Ni29  1  0.16910446  0.16918730  0.83575587  1
  Ni  Ni30  1  0.16871941  0.50214786  0.50178994  1
  Ni  Ni31  1  1.00167825  0.33442865  0.66747370  1
  Ni  Ni32  1  0.16782401  0.50181307  0.83536558  1
  Ni  Ni33  1  0.16888180  0.83506332  0.50257494  1
  Ni  Ni34  1  0.00202057  0.66959053  0.66863805  1
  Ni  Ni35  1  0.16910162  0.83473932  0.83533722  1
  Ni  Ni36  1  0.50183607  0.16854522  0.50228295  1
  Fe  Fe37  1  0.33464272  1.00179203  0.66873905  1
  Ni  Ni38  1  0.50179927  0.16799429  0.83530756  1
  Ni  Ni39  1  0.50186952  0.50182466  0.50254175  1
  Ni  Ni40  1  0.33594061  0.33571922  0.66835064  1
  Fe  Fe41  1  0.50205218  0.50232400  0.83519622  1
  Ni  Ni42  1  0.50166724  0.83541013  0.50094446  1
  Ni  Ni43  1  0.33553253  0.66831715  0.66834166  1
  Ni  Ni44  1  0.50209683  0.83559752  0.83616715  1
  Ni  Ni45  1  0.83474932  0.16861178  0.50191983  1
  Fe  Fe46  1  0.66901069  1.00161215  0.66865389  1
  Ni  Ni47  1  0.83481915  0.16908071  0.83564819  1
  Ni  Ni48  1  0.83521528  0.50208651  0.50139839  1
  Ni  Ni49  1  0.66816518  0.33522125  0.66877153  1
  Ni  Ni50  1  0.83584319  0.50217551  0.83536792  1
  Ni  Ni51  1  0.83507752  0.83502691  0.50238115  1
  Ni  Ni52  1  0.66820292  0.66820518  0.66755356  1
  Ni  Ni53  1  0.83451949  0.83443310  0.83529111  1
" 