3977,Ni12Fe32Cr54_2,-216.565568682186, 179.486910159774,Ni12Fe32Cr54,"# generated using pymatgen
 data_Cr31Fe17Ni6
_symmetry_space_group_name_H-M   'P 1'
_cell_length_a   7.54109613
_cell_length_b   7.54109613
_cell_length_c   10.66472042
_cell_angle_alpha   90.00000000
_cell_angle_beta   90.00000000
_cell_angle_gamma   90.00000000
_symmetry_Int_Tables_number   1
_chemical_formula_structural   Cr31Fe17Ni6
_chemical_formula_sum   'Cr31 Fe17 Ni6'
_cell_volume   606.48271678
_cell_formula_units_Z   1
loop_
 _symmetry_equiv_pos_site_id
 _symmetry_equiv_pos_as_xyz
  1  'x, y, z'
loop_
 _atom_site_type_symbol
 _atom_site_label
 _atom_site_symmetry_multiplicity
 _atom_site_fract_x
 _atom_site_fract_y
 _atom_site_fract_z
 _atom_site_occupancy
  Fe  Fe0  1  -0.00388347  0.99355324  -0.00274885  1
  Ni  Ni1  1  0.16326380  0.15901542  0.15965591  1
  Fe  Fe2  1  -0.00424322  0.99439090  0.32488772  1
  Fe  Fe3  1  -0.00230164  0.32883517  -0.00485169  1
  Cr  Cr4  1  0.16381328  0.49813815  0.16257599  1
  Cr  Cr5  1  -0.00308515  0.32800207  0.32767990  1
  Fe  Fe6  1  -0.00265889  0.66178034  -0.00483290  1
  Ni  Ni7  1  0.16363295  0.82913147  0.16181382  1
  Cr  Cr8  1  0.99248456  0.66485741  0.32642701  1
  Cr  Cr9  1  0.32824765  -0.00288319  0.99469666  1
  Ni  Ni10  1  0.49530151  0.16122617  0.15977233  1
  Cr  Cr11  1  0.32849574  -0.00417318  0.32704484  1
  Fe  Fe12  1  0.32765202  0.32900084  -0.00305959  1
  Fe  Fe13  1  0.49333053  0.49409958  0.15952015  1
  Cr  Cr14  1  0.32940869  0.32624887  0.32678182  1
  Fe  Fe15  1  0.32750074  0.66187823  -0.00383024  1
  Fe  Fe16  1  0.49220317  0.82886964  0.15991556  1
  Fe  Fe17  1  0.33111799  0.66318974  0.32623438  1
  Fe  Fe18  1  0.66107530  0.99470585  -0.00209494  1
  Cr  Cr19  1  0.82757185  0.16125558  0.16108351  1
  Cr  Cr20  1  0.65987393  0.99223680  0.32624730  1
  Fe  Fe21  1  0.66005862  0.32829475  -0.00385588  1
  Cr  Cr22  1  0.82810627  0.49311662  0.15991081  1
  Cr  Cr23  1  0.65831657  0.32979959  0.32737793  1
  Cr  Cr24  1  0.66426555  0.66237587  -0.00372876  1
  Fe  Fe25  1  0.83151185  0.83011062  0.15948070  1
  Cr  Cr26  1  0.66126128  0.66254684  0.32794978  1
  Cr  Cr27  1  0.15985869  0.16068761  0.49385738  1
  Cr  Cr28  1  -0.00337224  -0.00436047  0.66222595  1
  Fe  Fe29  1  0.16056396  0.16444064  0.83272472  1
  Cr  Cr30  1  0.16408554  0.49769692  0.49301247  1
  Cr  Cr31  1  -0.00309592  0.32976882  0.66573380  1
  Ni  Ni32  1  0.16066010  0.49448905  0.83307340  1
  Cr  Cr33  1  0.16319039  0.82748476  0.49306549  1
  Cr  Cr34  1  0.99186714  0.65961390  0.66532700  1
  Cr  Cr35  1  0.16300754  0.82673425  0.82922957  1
  Fe  Fe36  1  0.49441254  0.16189028  0.49410775  1
  Cr  Cr37  1  0.32838402  -0.00218051  0.66231991  1
  Cr  Cr38  1  0.49713651  0.16164236  0.82950166  1
  Fe  Fe39  1  0.49436812  0.49689383  0.49532467  1
  Cr  Cr40  1  0.32609665  0.32679207  0.66307720  1
  Cr  Cr41  1  0.49460553  0.49570443  0.82977718  1
  Fe  Fe42  1  0.49593433  0.82626107  0.49525987  1
  Cr  Cr43  1  0.32892520  0.66107045  0.66224862  1
  Cr  Cr44  1  0.49512294  0.82798566  0.82774452  1
  Cr  Cr45  1  0.82688416  0.15986311  0.49261155  1
  Cr  Cr46  1  0.66014049  0.99239075  0.65986210  1
  Cr  Cr47  1  0.82709414  0.16248852  0.83182888  1
  Cr  Cr48  1  0.82795268  0.49424513  0.49602025  1
  Cr  Cr49  1  0.66159360  0.33089106  0.66104370  1
  Ni  Ni50  1  0.82921038  0.49464257  0.83087533  1
  Fe  Fe51  1  0.82857028  0.82746727  0.49561709  1
  Ni  Ni52  1  0.66206287  0.66125394  0.66056137  1
  Cr  Cr53  1  0.82729693  0.82941717  0.82879339  1
" 