1980,Ni12Fe88_3,-241.968069356799, 196.285106949833,Ni12Fe88,"# generated using pymatgen
 data_FeNi8
_symmetry_space_group_name_H-M   'P 1'
_cell_length_a   7.43558718
_cell_length_b   7.43558718
_cell_length_c   10.51550824
_cell_angle_alpha   90.00000000
_cell_angle_beta   90.00000000
_cell_angle_gamma   90.00000000
_symmetry_Int_Tables_number   1
_chemical_formula_structural   FeNi8
_chemical_formula_sum   'Fe6 Ni48'
_cell_volume   581.38096472
_cell_formula_units_Z   6
loop_
 _symmetry_equiv_pos_site_id
 _symmetry_equiv_pos_as_xyz
  1  'x, y, z'
loop_
 _atom_site_type_symbol
 _atom_site_label
 _atom_site_symmetry_multiplicity
 _atom_site_fract_x
 _atom_site_fract_y
 _atom_site_fract_z
 _atom_site_occupancy
  Ni  Ni0  1  0.00223953  1.00180328  1.00178851  1
  Ni  Ni1  1  0.16933799  0.16888804  0.16891382  1
  Ni  Ni2  1  0.00262935  0.00268415  0.33558339  1
  Ni  Ni3  1  0.00307529  0.33553324  1.00208042  1
  Ni  Ni4  1  0.16853762  0.50122209  0.16858965  1
  Ni  Ni5  1  0.00262831  0.33487821  0.33499761  1
  Ni  Ni6  1  0.00217913  0.66900614  0.00226325  1
  Ni  Ni7  1  0.16845221  0.83624191  0.16862107  1
  Fe  Fe8  1  1.00209642  0.66878204  0.33533944  1
  Fe  Fe9  1  0.33519505  0.00250715  0.00236940  1
  Ni  Ni10  1  0.50155187  0.16888936  0.16847761  1
  Ni  Ni11  1  0.33500922  1.00163473  0.33502536  1
  Ni  Ni12  1  0.33512051  0.33582735  1.00191467  1
  Ni  Ni13  1  0.50268748  0.50155921  0.16891396  1
  Ni  Ni14  1  0.33500919  0.33592988  0.33606951  1
  Fe  Fe15  1  0.33544794  0.66819778  1.00208846  1
  Ni  Ni16  1  0.50277570  0.83590159  0.16894804  1
  Ni  Ni17  1  0.33609323  0.66878053  0.33493597  1
  Ni  Ni18  1  0.66900259  1.00145913  0.00211907  1
  Fe  Fe19  1  0.83544857  0.16870681  0.16869969  1
  Ni  Ni20  1  0.66870977  1.00158003  0.33558189  1
  Ni  Ni21  1  0.66815124  0.33587568  0.00240873  1
  Ni  Ni22  1  0.83511392  0.50242848  0.16846182  1
  Ni  Ni23  1  0.66871090  0.33598224  0.33499957  1
  Ni  Ni24  1  0.66870978  0.66900587  1.00182752  1
  Ni  Ni25  1  0.83511403  0.83510469  0.16854946  1
  Ni  Ni26  1  0.66764085  0.66878205  0.33554819  1
  Ni  Ni27  1  0.16873820  0.16867633  0.50208728  1
  Ni  Ni28  1  0.00274130  0.00236737  0.66897174  1
  Ni  Ni29  1  0.16794967  0.16877650  0.83535250  1
  Ni  Ni30  1  0.16878368  0.50166081  0.50211556  1
  Ni  Ni31  1  1.00190080  0.33542189  0.66926238  1
  Ni  Ni32  1  0.16875857  0.50144217  0.83564169  1
  Ni  Ni33  1  0.16886439  0.83600699  0.50214243  1
  Ni  Ni34  1  0.00277858  0.66855861  0.66853593  1
  Ni  Ni35  1  0.16876098  0.83613024  0.83556992  1
  Ni  Ni36  1  0.50215251  0.16867504  0.50252195  1
  Ni  Ni37  1  0.33512446  1.00114348  0.66888982  1
  Fe  Fe38  1  0.50265322  0.16877823  0.83556313  1
  Ni  Ni39  1  0.50243877  0.50199402  0.50179651  1
  Fe  Fe40  1  0.33519903  0.33571899  0.66864124  1
  Ni  Ni41  1  0.50258366  0.50254178  0.83564514  1
  Ni  Ni42  1  0.50235540  0.83567701  0.50182591  1
  Ni  Ni43  1  0.33545772  0.66940097  0.66920706  1
  Ni  Ni44  1  0.50258126  0.83503038  0.83556685  1
  Ni  Ni45  1  0.83545592  0.16875936  0.50159226  1
  Ni  Ni46  1  0.66847992  1.00203207  0.66865127  1
  Ni  Ni47  1  0.83610902  0.16878379  0.83596169  1
  Ni  Ni48  1  0.83511803  0.50185924  0.50244024  1
  Ni  Ni49  1  0.66933624  0.33575882  0.66893963  1
  Ni  Ni50  1  0.83501029  0.50172462  0.83543774  1
  Ni  Ni51  1  0.83511788  0.83572984  0.50252934  1
  Ni  Ni52  1  0.66811121  0.66855884  0.66897006  1
  Ni  Ni53  1  0.83501026  0.83583963  0.83526334  1
" 