5240,Ni12Fe57Cr29_18,-223.283200490496, 171.775391970616,Ni12Fe57Cr29,"# generated using pymatgen
 data_Cr17Fe31Ni6
_symmetry_space_group_name_H-M   'P 1'
_cell_length_a   7.48201350
_cell_length_b   7.48201350
_cell_length_c   10.58116496
_cell_angle_alpha   90.00000000
_cell_angle_beta   90.00000000
_cell_angle_gamma   90.00000000
_symmetry_Int_Tables_number   1
_chemical_formula_structural   Cr17Fe31Ni6
_chemical_formula_sum   'Cr17 Fe31 Ni6'
_cell_volume   592.33917976
_cell_formula_units_Z   1
loop_
 _symmetry_equiv_pos_site_id
 _symmetry_equiv_pos_as_xyz
  1  'x, y, z'
loop_
 _atom_site_type_symbol
 _atom_site_label
 _atom_site_symmetry_multiplicity
 _atom_site_fract_x
 _atom_site_fract_y
 _atom_site_fract_z
 _atom_site_occupancy
  Cr  Cr0  1  0.00068488  0.00208279  -0.00003725  1
  Fe  Fe1  1  0.16513149  0.16977212  0.16755461  1
  Cr  Cr2  1  -0.00001589  0.00299055  0.33385196  1
  Fe  Fe3  1  0.00165847  0.33406824  0.00156376  1
  Ni  Ni4  1  0.16852682  0.49755629  0.16611289  1
  Fe  Fe5  1  0.99763711  0.33532489  0.33229541  1
  Fe  Fe6  1  0.00139591  0.66256912  -0.00079813  1
  Cr  Cr7  1  0.16816574  0.82791272  0.16826427  1
  Fe  Fe8  1  0.99893825  0.66290151  0.33424097  1
  Cr  Cr9  1  0.33124058  0.00066301  -0.00006901  1
  Fe  Fe10  1  0.49655707  0.16777286  0.16797572  1
  Fe  Fe11  1  0.33415328  0.99760969  0.33386978  1
  Fe  Fe12  1  0.33055061  0.33266496  -0.00093909  1
  Fe  Fe13  1  0.49645282  0.49863737  0.16963728  1
  Fe  Fe14  1  0.33232818  0.33370515  0.33257480  1
  Cr  Cr15  1  0.33391031  0.66298154  0.99513213  1
  Fe  Fe16  1  0.49670337  0.82997949  0.16891163  1
  Ni  Ni17  1  0.33354273  0.66226427  0.33551901  1
  Cr  Cr18  1  0.66431117  -0.00074022  -0.00032526  1
  Ni  Ni19  1  0.83103660  0.16959833  0.16605678  1
  Cr  Cr20  1  0.66800287  -0.00096287  0.33214958  1
  Cr  Cr21  1  0.66407809  0.33474680  0.00168619  1
  Fe  Fe22  1  0.83617847  0.49774856  0.16849685  1
  Fe  Fe23  1  0.66673443  0.33361471  0.33249840  1
  Cr  Cr24  1  0.66413288  0.66278648  0.00268404  1
  Cr  Cr25  1  0.83314737  0.83106581  0.16547146  1
  Ni  Ni26  1  0.66453101  0.66179301  0.33153341  1
  Fe  Fe27  1  0.16587967  0.16902394  0.49779962  1
  Cr  Cr28  1  -0.00026468  -0.00063209  0.66298180  1
  Fe  Fe29  1  0.16485062  0.16897262  0.83252843  1
  Fe  Fe30  1  0.16439979  0.49895198  0.49731108  1
  Fe  Fe31  1  -0.00038514  0.33501468  0.66250724  1
  Fe  Fe32  1  0.16399950  0.49880755  0.83193412  1
  Fe  Fe33  1  0.16603490  0.82934674  0.49742089  1
  Ni  Ni34  1  -0.00011808  0.66429120  0.66350929  1
  Fe  Fe35  1  0.16480846  0.82962802  0.83069358  1
  Fe  Fe36  1  0.49974125  0.16722783  0.49837800  1
  Cr  Cr37  1  0.33131002  -0.00058135  0.66450919  1
  Fe  Fe38  1  0.49887649  0.16687713  0.83193886  1
  Fe  Fe39  1  0.49969774  0.49757977  0.49687444  1
  Cr  Cr40  1  0.33252258  0.33476542  0.66649644  1
  Fe  Fe41  1  0.49958495  0.49748035  0.83120540  1
  Fe  Fe42  1  0.49904481  0.83120684  0.49690779  1
  Fe  Fe43  1  0.32906777  0.66580245  0.66436362  1
  Fe  Fe44  1  0.49877333  0.83253322  0.83067177  1
  Ni  Ni45  1  0.83050987  0.16889045  0.50096475  1
  Fe  Fe46  1  0.66438662  -0.00077730  0.66261026  1
  Cr  Cr47  1  0.83087095  0.16748368  0.82977463  1
  Fe  Fe48  1  0.83284603  0.49841078  0.49826690  1
  Fe  Fe49  1  0.66614231  0.33171997  0.66321006  1
  Cr  Cr50  1  0.83475929  0.49750736  0.83239033  1
  Fe  Fe51  1  0.83192466  0.83027345  0.49814626  1
  Cr  Cr52  1  0.66412725  0.66323368  0.66428425  1
  Cr  Cr53  1  0.83288770  0.83184774  0.83240212  1
" 