572,Ni12Fe88_16,-242.040098192925, 196.884925819389,Ni12Fe88,"# generated using pymatgen
 data_FeNi8
_symmetry_space_group_name_H-M   'P 1'
_cell_length_a   7.43782497
_cell_length_b   7.43782497
_cell_length_c   10.51867294
_cell_angle_alpha   90.00000000
_cell_angle_beta   90.00000000
_cell_angle_gamma   90.00000000
_symmetry_Int_Tables_number   1
_chemical_formula_structural   FeNi8
_chemical_formula_sum   'Fe6 Ni48'
_cell_volume   581.90603254
_cell_formula_units_Z   6
loop_
 _symmetry_equiv_pos_site_id
 _symmetry_equiv_pos_as_xyz
  1  'x, y, z'
loop_
 _atom_site_type_symbol
 _atom_site_label
 _atom_site_symmetry_multiplicity
 _atom_site_fract_x
 _atom_site_fract_y
 _atom_site_fract_z
 _atom_site_occupancy
  Fe  Fe0  1  0.00206718  1.00196327  1.00172376  1
  Ni  Ni1  1  0.16892208  0.16794172  0.16822162  1
  Ni  Ni2  1  1.00156629  0.00223646  0.33497124  1
  Ni  Ni3  1  0.00247241  0.33599118  1.00137761  1
  Fe  Fe4  1  0.16859663  0.50204819  0.16859745  1
  Ni  Ni5  1  0.00334354  0.33516276  0.33599526  1
  Ni  Ni6  1  1.00182188  0.66791138  0.00216311  1
  Ni  Ni7  1  0.16927105  0.83574347  0.16863086  1
  Ni  Ni8  1  1.00154069  0.66846811  0.33557151  1
  Ni  Ni9  1  0.33642265  0.00227886  1.00168588  1
  Ni  Ni10  1  0.50140739  0.16886458  0.16882988  1
  Ni  Ni11  1  0.33575616  0.00256986  0.33605157  1
  Ni  Ni12  1  0.33465448  0.33461005  0.00207860  1
  Ni  Ni13  1  0.50266789  0.50223704  0.16760540  1
  Ni  Ni14  1  0.33449471  0.33516184  0.33479601  1
  Ni  Ni15  1  0.33501092  0.66895110  1.00167586  1
  Ni  Ni16  1  0.50111544  0.83485509  0.16871975  1
  Ni  Ni17  1  0.33577176  0.66813339  0.33555741  1
  Ni  Ni18  1  0.66775836  1.00162162  0.00209233  1
  Ni  Ni19  1  0.83563012  0.16952982  0.16825948  1
  Ni  Ni20  1  0.66855997  1.00099010  0.33529586  1
  Ni  Ni21  1  0.66873587  0.33465052  1.00194335  1
  Ni  Ni22  1  0.83471883  0.50193901  0.16874577  1
  Fe  Fe23  1  0.66860520  0.33555532  0.33520467  1
  Ni  Ni24  1  0.66904515  0.66958599  1.00156803  1
  Ni  Ni25  1  0.83555228  0.83449498  0.16819345  1
  Ni  Ni26  1  0.66857199  0.66995330  0.33532379  1
  Ni  Ni27  1  0.16871770  0.16854371  0.50243960  1
  Ni  Ni28  1  1.00120762  1.00167990  0.66929061  1
  Ni  Ni29  1  0.16910003  0.16902102  0.83536047  1
  Ni  Ni30  1  0.16863354  0.50196857  0.50123119  1
  Ni  Ni31  1  0.00321742  0.33552346  0.66850984  1
  Ni  Ni32  1  0.16779123  0.50214888  0.83591916  1
  Ni  Ni33  1  0.16858631  0.83537023  0.50202332  1
  Ni  Ni34  1  1.00159730  0.66869523  0.66813431  1
  Ni  Ni35  1  0.16900639  0.83468150  0.83531603  1
  Ni  Ni36  1  0.50171703  0.16892515  0.50147585  1
  Fe  Fe37  1  0.33536165  0.00255149  0.66875835  1
  Ni  Ni38  1  0.50196190  0.16829754  0.83561344  1
  Ni  Ni39  1  0.50210807  0.50197828  0.50256967  1
  Ni  Ni40  1  0.33474060  0.33510291  0.66902817  1
  Fe  Fe41  1  0.50222175  0.50158536  0.83573320  1
  Ni  Ni42  1  0.50176935  0.83504136  0.50171293  1
  Fe  Fe43  1  0.33490816  0.66807440  0.66841227  1
  Ni  Ni44  1  0.50172731  0.83568202  0.83556573  1
  Ni  Ni45  1  0.83544939  0.16903057  0.50208145  1
  Ni  Ni46  1  0.66872976  1.00134189  0.66851423  1
  Ni  Ni47  1  0.83485166  0.16963992  0.83543618  1
  Ni  Ni48  1  0.83516102  0.50197575  0.50213692  1
  Ni  Ni49  1  0.66787633  0.33484769  0.66828636  1
  Ni  Ni50  1  0.83576723  0.50177840  0.83490886  1
  Ni  Ni51  1  0.83548002  0.83495890  0.50185337  1
  Ni  Ni52  1  0.66912850  0.66971250  0.66904840  1
  Ni  Ni53  1  0.83518278  0.83447530  0.83584150  1
" 