988,Ni12Fe88_15,-242.122684271908, 196.335247727683,Ni12Fe88,"# generated using pymatgen
 data_FeNi8
_symmetry_space_group_name_H-M   'P 1'
_cell_length_a   7.43868187
_cell_length_b   7.43868187
_cell_length_c   10.51988478
_cell_angle_alpha   90.00000000
_cell_angle_beta   90.00000000
_cell_angle_gamma   90.00000000
_symmetry_Int_Tables_number   1
_chemical_formula_structural   FeNi8
_chemical_formula_sum   'Fe6 Ni48'
_cell_volume   582.10717746
_cell_formula_units_Z   6
loop_
 _symmetry_equiv_pos_site_id
 _symmetry_equiv_pos_as_xyz
  1  'x, y, z'
loop_
 _atom_site_type_symbol
 _atom_site_label
 _atom_site_symmetry_multiplicity
 _atom_site_fract_x
 _atom_site_fract_y
 _atom_site_fract_z
 _atom_site_occupancy
  Ni  Ni0  1  0.00221152  0.00231615  0.00218323  1
  Ni  Ni1  1  0.16852892  0.16745721  0.16878980  1
  Ni  Ni2  1  0.00320016  0.00217990  0.33499574  1
  Ni  Ni3  1  1.00182615  0.33472081  0.00242393  1
  Ni  Ni4  1  0.16818394  0.50322253  0.16892285  1
  Fe  Fe5  1  1.00172486  0.33623709  0.33544909  1
  Ni  Ni6  1  0.00224433  0.66867145  0.00215244  1
  Ni  Ni7  1  0.16953644  0.83540332  0.16809985  1
  Ni  Ni8  1  0.00224874  0.67002842  0.33545523  1
  Ni  Ni9  1  0.33509475  1.00190034  1.00120852  1
  Ni  Ni10  1  0.50218773  0.16793207  0.16876011  1
  Ni  Ni11  1  0.33377153  0.00203236  0.33611776  1
  Ni  Ni12  1  0.33541907  0.33506574  0.00334031  1
  Ni  Ni13  1  0.50260263  0.50237498  0.16828342  1
  Fe  Fe14  1  0.33521508  0.33603862  0.33500300  1
  Ni  Ni15  1  0.33544513  0.66876017  0.00241122  1
  Ni  Ni16  1  0.50074781  0.83525000  0.16942021  1
  Ni  Ni17  1  0.33513941  0.66949010  0.33524347  1
  Ni  Ni18  1  0.66845909  0.00226428  0.00345810  1
  Ni  Ni19  1  0.83497074  0.16923429  0.16910957  1
  Fe  Fe20  1  0.66849528  1.00069660  0.33526697  1
  Ni  Ni21  1  0.66850048  0.33507426  1.00117609  1
  Ni  Ni22  1  0.83490427  0.50148669  0.16856046  1
  Ni  Ni23  1  0.66820333  0.33515160  0.33556632  1
  Ni  Ni24  1  0.66806391  0.66834797  0.00219185  1
  Fe  Fe25  1  0.83561383  0.83462479  0.16861906  1
  Ni  Ni26  1  0.66835711  0.66605527  0.33553314  1
  Ni  Ni27  1  0.16872743  0.16769120  0.50170951  1
  Ni  Ni28  1  1.00133775  1.00188461  0.66857086  1
  Ni  Ni29  1  0.16850330  0.16869234  0.83523975  1
  Ni  Ni30  1  0.16874485  0.50313369  0.50136465  1
  Ni  Ni31  1  0.00227881  0.33441680  0.66723454  1
  Ni  Ni32  1  0.16854637  0.50205292  0.83537299  1
  Ni  Ni33  1  0.16786908  0.83522186  0.50246021  1
  Ni  Ni34  1  0.00225261  0.66941288  0.66814387  1
  Ni  Ni35  1  0.16851777  0.83496187  0.83522659  1
  Ni  Ni36  1  0.50214209  0.16907840  0.50143929  1
  Fe  Fe37  1  0.33517331  0.00235721  0.66877433  1
  Ni  Ni38  1  0.50229262  0.16829665  0.83570305  1
  Ni  Ni39  1  0.50218720  0.50138278  0.50171290  1
  Ni  Ni40  1  0.33559370  0.33578151  0.66773799  1
  Ni  Ni41  1  0.50179702  0.50209530  0.83579496  1
  Fe  Fe42  1  0.50181336  0.83452415  0.50164065  1
  Ni  Ni43  1  0.33519475  0.66757192  0.66798239  1
  Ni  Ni44  1  0.50230268  0.83533485  0.83444338  1
  Ni  Ni45  1  0.83483617  0.16820885  0.50155789  1
  Ni  Ni46  1  0.66969752  0.00224096  0.66706272  1
  Ni  Ni47  1  0.83496313  0.16823001  0.83494801  1
  Ni  Ni48  1  0.83474236  0.50240550  0.50258738  1
  Ni  Ni49  1  0.66783054  0.33478960  0.66899847  1
  Ni  Ni50  1  0.83536944  0.50208332  0.83443773  1
  Ni  Ni51  1  0.83621526  0.83501340  0.50094957  1
  Ni  Ni52  1  0.66821784  0.66866182  0.66795169  1
  Ni  Ni53  1  0.83491525  0.83541704  0.83617129  1
" 