7283,Ni12Fe32Cr54_4,-216.398578167154, 181.723297910279,Ni12Fe32Cr54,"# generated using pymatgen
 data_Cr31Fe17Ni6
_symmetry_space_group_name_H-M   'P 1'
_cell_length_a   7.53231896
_cell_length_b   7.53231896
_cell_length_c   10.65230762
_cell_angle_alpha   90.00000000
_cell_angle_beta   90.00000000
_cell_angle_gamma   90.00000000
_symmetry_Int_Tables_number   1
_chemical_formula_structural   Cr31Fe17Ni6
_chemical_formula_sum   'Cr31 Fe17 Ni6'
_cell_volume   604.36750214
_cell_formula_units_Z   1
loop_
 _symmetry_equiv_pos_site_id
 _symmetry_equiv_pos_as_xyz
  1  'x, y, z'
loop_
 _atom_site_type_symbol
 _atom_site_label
 _atom_site_symmetry_multiplicity
 _atom_site_fract_x
 _atom_site_fract_y
 _atom_site_fract_z
 _atom_site_occupancy
  Fe  Fe0  1  -0.00403806  0.99432874  0.99387294  1
  Cr  Cr1  1  0.16138264  0.16026656  0.16491679  1
  Ni  Ni2  1  -0.00382979  0.99490189  0.33089415  1
  Fe  Fe3  1  -0.00355950  0.32753609  0.99447640  1
  Fe  Fe4  1  0.16046031  0.49542895  0.16218091  1
  Cr  Cr5  1  0.99549008  0.32716241  0.33021054  1
  Fe  Fe6  1  0.99540230  0.66493805  0.99283236  1
  Cr  Cr7  1  0.15893842  0.82838327  0.16421575  1
  Fe  Fe8  1  0.99352973  0.66353761  0.33094375  1
  Cr  Cr9  1  0.32883963  0.99483480  0.99229543  1
  Cr  Cr10  1  0.49616720  0.16117991  0.16342173  1
  Fe  Fe11  1  0.32823219  -0.00399845  0.33029363  1
  Cr  Cr12  1  0.32561124  0.32791834  0.99552583  1
  Cr  Cr13  1  0.49495408  0.49485077  0.16306747  1
  Fe  Fe14  1  0.32827324  0.32772869  0.32947790  1
  Cr  Cr15  1  0.32666449  0.66410545  0.99374362  1
  Cr  Cr16  1  0.49603242  0.83068130  0.16361145  1
  Cr  Cr17  1  0.32804778  0.66276459  0.32798605  1
  Ni  Ni18  1  0.66404834  0.99383168  0.99171610  1
  Cr  Cr19  1  0.82987442  0.15979681  0.15923641  1
  Cr  Cr20  1  0.66607491  0.99513703  0.33077683  1
  Cr  Cr21  1  0.66266519  0.32624026  0.99554117  1
  Cr  Cr22  1  0.83080639  0.49784188  0.15937772  1
  Cr  Cr23  1  0.66551969  0.32883057  0.33138028  1
  Cr  Cr24  1  0.66131135  0.66611295  0.99352390  1
  Cr  Cr25  1  0.83074692  0.83021585  0.15975687  1
  Cr  Cr26  1  0.66365836  0.66362713  0.33360454  1
  Cr  Cr27  1  0.16064726  0.16012344  0.49691003  1
  Fe  Fe28  1  0.99396839  0.99516901  0.66197243  1
  Fe  Fe29  1  0.16109781  0.16004062  0.82725181  1
  Cr  Cr30  1  0.16090317  0.49685699  0.49685059  1
  Ni  Ni31  1  0.99517801  0.32682941  0.66189627  1
  Cr  Cr32  1  0.15901362  0.49636481  0.82795994  1
  Cr  Cr33  1  0.16190415  0.83010801  0.49595870  1
  Ni  Ni34  1  0.99441298  0.66476286  0.66132425  1
  Fe  Fe35  1  0.15877764  0.83116028  0.82677347  1
  Cr  Cr36  1  0.49596460  0.16018122  0.49594744  1
  Fe  Fe37  1  0.32777632  0.99548287  0.66514349  1
  Fe  Fe38  1  0.49668146  0.16026171  0.82840689  1
  Cr  Cr39  1  0.49524187  0.49589763  0.49665294  1
  Cr  Cr40  1  0.32679395  0.32633269  0.66509601  1
  Cr  Cr41  1  0.49667454  0.49703555  0.82850371  1
  Fe  Fe42  1  0.49544155  0.83198241  0.49742607  1
  Cr  Cr43  1  0.32852017  0.66629188  0.66557918  1
  Ni  Ni44  1  0.49576752  0.83579882  0.82613442  1
  Ni  Ni45  1  0.83070484  0.15855940  0.49760018  1
  Fe  Fe46  1  0.66456962  0.99525089  0.66295760  1
  Cr  Cr47  1  0.83067430  0.15997283  0.83014913  1
  Fe  Fe48  1  0.83263917  0.49427263  0.49859040  1
  Cr  Cr49  1  0.66561318  0.32653414  0.66024347  1
  Cr  Cr50  1  0.83070407  0.49589408  0.82728338  1
  Fe  Fe51  1  0.83208961  0.83139423  0.49691209  1
  Cr  Cr52  1  0.66364821  0.66623342  0.65963140  1
  Fe  Fe53  1  0.82931939  0.82905641  0.82799556  1
" 