4704,Ni12Fe54Cr33_2,-222.788142853593, 174.4361252872,Ni12Fe54Cr33,"# generated using pymatgen
 data_Cr19Fe29Ni6
_symmetry_space_group_name_H-M   'P 1'
_cell_length_a   7.49863120
_cell_length_b   7.49863120
_cell_length_c   10.60466594
_cell_angle_alpha   90.00000000
_cell_angle_beta   90.00000000
_cell_angle_gamma   90.00000000
_symmetry_Int_Tables_number   1
_chemical_formula_structural   Cr19Fe29Ni6
_chemical_formula_sum   'Cr19 Fe29 Ni6'
_cell_volume   596.29474414
_cell_formula_units_Z   1
loop_
 _symmetry_equiv_pos_site_id
 _symmetry_equiv_pos_as_xyz
  1  'x, y, z'
loop_
 _atom_site_type_symbol
 _atom_site_label
 _atom_site_symmetry_multiplicity
 _atom_site_fract_x
 _atom_site_fract_y
 _atom_site_fract_z
 _atom_site_occupancy
  Cr  Cr0  1  0.99721581  -0.00050873  -0.00097488  1
  Cr  Cr1  1  0.16328635  0.16504600  0.16723147  1
  Fe  Fe2  1  0.99538795  -0.00202892  0.32996068  1
  Fe  Fe3  1  0.99511109  0.33323104  -0.00186551  1
  Cr  Cr4  1  0.16350368  0.50008567  0.16527008  1
  Fe  Fe5  1  0.99610724  0.33262562  0.33109216  1
  Fe  Fe6  1  0.99430409  0.66300775  -0.00180028  1
  Cr  Cr7  1  0.16490354  0.82852446  0.16732550  1
  Fe  Fe8  1  0.99596147  0.66275894  0.33086369  1
  Cr  Cr9  1  0.33267198  -0.00183506  -0.00072452  1
  Cr  Cr10  1  0.50203033  0.16546954  0.16615725  1
  Fe  Fe11  1  0.33304514  0.99723930  0.33266744  1
  Cr  Cr12  1  0.32920860  0.32965479  0.99293040  1
  Cr  Cr13  1  0.49860293  0.49643857  0.16556396  1
  Ni  Ni14  1  0.32899611  0.33083643  0.33550675  1
  Cr  Cr15  1  0.33519663  0.66571630  -0.00144203  1
  Fe  Fe16  1  0.50239567  0.83185215  0.16630949  1
  Fe  Fe17  1  0.33269916  0.66297423  0.33353280  1
  Fe  Fe18  1  0.66487870  0.99599421  -0.00093551  1
  Ni  Ni19  1  0.82915274  0.16519302  0.16504793  1
  Fe  Fe20  1  0.66515364  0.99677703  0.33018880  1
  Fe  Fe21  1  0.66694376  0.33197868  -0.00208087  1
  Ni  Ni22  1  0.83132651  0.49689713  0.16244208  1
  Fe  Fe23  1  0.66564415  0.33280294  0.33121264  1
  Fe  Fe24  1  0.66774150  0.66563781  -0.00167741  1
  Ni  Ni25  1  0.83124497  0.83171438  0.16359698  1
  Cr  Cr26  1  0.66558089  0.66503533  0.33171592  1
  Fe  Fe27  1  0.16644929  0.16542216  0.49577261  1
  Fe  Fe28  1  0.99558909  0.99648722  0.66454651  1
  Fe  Fe29  1  0.16407184  0.16564176  0.83047822  1
  Fe  Fe30  1  0.16706315  0.49705024  0.49641917  1
  Cr  Cr31  1  0.00131942  0.33124541  0.66356103  1
  Fe  Fe32  1  0.16335344  0.49743204  0.83070387  1
  Cr  Cr33  1  0.16273998  0.82853774  0.49689982  1
  Fe  Fe34  1  0.99740393  0.66395101  0.66422511  1
  Cr  Cr35  1  0.16252396  0.82746252  0.83044489  1
  Cr  Cr36  1  0.50041163  0.16626934  0.49718958  1
  Cr  Cr37  1  0.33070382  0.00020067  0.66606968  1
  Fe  Fe38  1  0.49831390  0.16432777  0.83085615  1
  Ni  Ni39  1  0.49450445  0.49874712  0.49810846  1
  Fe  Fe40  1  0.33151817  0.33434312  0.66432013  1
  Fe  Fe41  1  0.49839281  0.49840598  0.83040948  1
  Ni  Ni42  1  0.49622017  0.82941512  0.49772282  1
  Fe  Fe43  1  0.33215648  0.66151137  0.66382359  1
  Fe  Fe44  1  0.50094121  0.83163419  0.83050561  1
  Cr  Cr45  1  0.83083739  0.16305414  0.49588526  1
  Fe  Fe46  1  0.66481608  0.99616816  0.66436382  1
  Cr  Cr47  1  0.82782447  0.16388386  0.83209061  1
  Fe  Fe48  1  0.83101378  0.49974970  0.49587741  1
  Cr  Cr49  1  0.66365943  0.33539916  0.66307835  1
  Fe  Fe50  1  0.83218814  0.50013552  0.83364897  1
  Fe  Fe51  1  0.82914011  0.83089570  0.49697489  1
  Cr  Cr52  1  0.66520499  0.66612951  0.66300922  1
  Fe  Fe53  1  0.82962257  0.82965919  0.83217805  1
" 