427,Ni12Fe81Cr6_19,-227.303967497116, 159.864940112388,Ni12Fe81Cr6,"# generated using pymatgen
 data_Cr5Fe43Ni6
_symmetry_space_group_name_H-M   'P 1'
_cell_length_a   7.43265139
_cell_length_b   7.43265139
_cell_length_c   10.51135641
_cell_angle_alpha   90.00000000
_cell_angle_beta   90.00000000
_cell_angle_gamma   90.00000000
_symmetry_Int_Tables_number   1
_chemical_formula_structural   Cr5Fe43Ni6
_chemical_formula_sum   'Cr5 Fe43 Ni6'
_cell_volume   580.69259757
_cell_formula_units_Z   1
loop_
 _symmetry_equiv_pos_site_id
 _symmetry_equiv_pos_as_xyz
  1  'x, y, z'
loop_
 _atom_site_type_symbol
 _atom_site_label
 _atom_site_symmetry_multiplicity
 _atom_site_fract_x
 _atom_site_fract_y
 _atom_site_fract_z
 _atom_site_occupancy
  Fe  Fe0  1  0.00429930  0.00391845  0.00300303  1
  Fe  Fe1  1  0.16988506  0.16939615  0.16775279  1
  Fe  Fe2  1  0.00363055  1.00184537  0.33276503  1
  Fe  Fe3  1  0.00481874  0.33572388  1.00196170  1
  Fe  Fe4  1  0.16986070  0.50263247  0.16828978  1
  Fe  Fe5  1  1.00101660  0.33647042  0.33382587  1
  Fe  Fe6  1  0.00383004  0.66715169  0.00389961  1
  Fe  Fe7  1  0.16955424  0.83493954  0.16741194  1
  Fe  Fe8  1  0.00307717  0.66792652  0.33386782  1
  Ni  Ni9  1  0.33509101  1.00125141  0.00233498  1
  Fe  Fe10  1  0.50111695  0.17072932  0.16710217  1
  Fe  Fe11  1  0.33439984  1.00078605  0.33235378  1
  Fe  Fe12  1  0.33731552  0.33586000  1.00126413  1
  Fe  Fe13  1  0.50206961  0.50238329  0.16599747  1
  Fe  Fe14  1  0.33651739  0.33815276  0.33319769  1
  Ni  Ni15  1  0.33413061  0.66992188  1.00106493  1
  Fe  Fe16  1  0.50062993  0.83403399  0.16692783  1
  Fe  Fe17  1  0.33637024  0.66896889  0.33383265  1
  Fe  Fe18  1  0.66605304  0.00312710  0.00447833  1
  Fe  Fe19  1  0.83656915  0.17056549  0.16703069  1
  Cr  Cr20  1  0.66818499  0.00360662  0.33401291  1
  Ni  Ni21  1  0.67134057  0.33514284  1.00183074  1
  Fe  Fe22  1  0.83540190  0.50230809  0.16760436  1
  Fe  Fe23  1  0.66903748  0.33855064  0.33310871  1
  Fe  Fe24  1  0.66513427  0.66697824  0.00231397  1
  Fe  Fe25  1  0.83610836  0.83406755  0.16724213  1
  Fe  Fe26  1  0.66762505  0.66642821  0.33527701  1
  Cr  Cr27  1  0.16908461  0.16919622  0.50056005  1
  Fe  Fe28  1  0.00273862  0.00245388  0.67116874  1
  Ni  Ni29  1  0.17015650  0.16954894  0.83695657  1
  Fe  Fe30  1  0.16922066  0.50422850  0.50168760  1
  Fe  Fe31  1  1.00230936  0.33659349  0.67064155  1
  Fe  Fe32  1  0.16929159  0.50256866  0.83670286  1
  Fe  Fe33  1  0.17161897  0.83417215  0.50226891  1
  Fe  Fe34  1  0.00296308  0.66702750  0.66973291  1
  Fe  Fe35  1  0.17078441  0.83565842  0.83697863  1
  Cr  Cr36  1  0.50095157  0.17218313  0.50403094  1
  Fe  Fe37  1  0.33543197  1.00084380  0.67219232  1
  Fe  Fe38  1  0.50232727  0.16910683  0.83687672  1
  Fe  Fe39  1  0.50200586  0.50505059  0.50370816  1
  Fe  Fe40  1  0.33512355  0.33857076  0.67207442  1
  Ni  Ni41  1  0.50243439  0.50191745  0.83663827  1
  Fe  Fe42  1  0.49954436  0.83434961  0.50347120  1
  Fe  Fe43  1  0.33648240  0.66800711  0.67103632  1
  Fe  Fe44  1  0.49980772  0.83494857  0.83635791  1
  Fe  Fe45  1  0.83598514  0.17112243  0.50325500  1
  Fe  Fe46  1  0.66855115  1.00153743  0.66997211  1
  Fe  Fe47  1  0.83583307  0.17067202  0.83674639  1
  Fe  Fe48  1  0.83516171  0.49930807  0.50282802  1
  Fe  Fe49  1  0.66920789  0.33770843  0.67198398  1
  Fe  Fe50  1  0.83529768  0.50003425  0.83637518  1
  Cr  Cr51  1  0.83680093  0.83374191  0.50211059  1
  Ni  Ni52  1  0.66794347  0.66764095  0.66918605  1
  Cr  Cr53  1  0.83482213  0.83389042  0.83965494  1
" 