780,Ni13Fe87_15,-242.355477566963, 199.718247316604,Ni13Fe87,"# generated using pymatgen
 data_Fe7Ni47
_symmetry_space_group_name_H-M   'P 1'
_cell_length_a   7.43326975
_cell_length_b   7.43326975
_cell_length_c   10.51223089
_cell_angle_alpha   90.00000000
_cell_angle_beta   90.00000000
_cell_angle_gamma   90.00000000
_symmetry_Int_Tables_number   1
_chemical_formula_structural   Fe7Ni47
_chemical_formula_sum   'Fe7 Ni47'
_cell_volume   580.83754088
_cell_formula_units_Z   1
loop_
 _symmetry_equiv_pos_site_id
 _symmetry_equiv_pos_as_xyz
  1  'x, y, z'
loop_
 _atom_site_type_symbol
 _atom_site_label
 _atom_site_symmetry_multiplicity
 _atom_site_fract_x
 _atom_site_fract_y
 _atom_site_fract_z
 _atom_site_occupancy
  Fe  Fe0  1  0.00253981  1.00146278  0.00254725  1
  Ni  Ni1  1  0.16879535  0.16928430  0.16881338  1
  Ni  Ni2  1  1.00225205  1.00204544  0.33474427  1
  Ni  Ni3  1  0.00261367  0.33617150  0.00263028  1
  Ni  Ni4  1  0.16903224  0.50232524  0.16901211  1
  Ni  Ni5  1  1.00171047  0.33529430  0.33586745  1
  Ni  Ni6  1  1.00177730  0.66821764  0.00227474  1
  Ni  Ni7  1  0.16880154  0.83520047  0.16922345  1
  Ni  Ni8  1  0.00259222  0.66947768  0.33555837  1
  Ni  Ni9  1  0.33713604  0.00240369  1.00207889  1
  Ni  Ni10  1  0.50231771  0.16922831  0.16924871  1
  Ni  Ni11  1  0.33567616  1.00204580  0.33591766  1
  Ni  Ni12  1  0.33499813  0.33526455  0.00294018  1
  Ni  Ni13  1  0.50170914  0.50202516  0.16856361  1
  Ni  Ni14  1  0.33626629  0.33534732  0.33529425  1
  Ni  Ni15  1  0.33585302  0.66914816  0.00258292  1
  Ni  Ni16  1  0.50200965  0.83556766  0.16884948  1
  Ni  Ni17  1  0.33538438  0.66942359  0.33498525  1
  Ni  Ni18  1  0.66828200  1.00157499  0.00282434  1
  Ni  Ni19  1  0.83570529  0.16898916  0.16897039  1
  Fe  Fe20  1  0.66900098  0.00287811  0.33560446  1
  Fe  Fe21  1  0.66841511  0.33608794  0.00233559  1
  Ni  Ni22  1  0.83606867  0.50202185  0.16918427  1
  Ni  Ni23  1  0.66883565  0.33499543  0.33500522  1
  Ni  Ni24  1  0.66918434  0.67035664  0.00244304  1
  Ni  Ni25  1  0.83601283  0.83580469  0.16858314  1
  Fe  Fe26  1  0.66865797  0.66859005  0.33526633  1
  Ni  Ni27  1  0.16833692  0.16956188  0.50270700  1
  Ni  Ni28  1  1.00104186  1.00217480  0.66945133  1
  Fe  Fe29  1  0.16894396  0.16956367  0.83566611  1
  Ni  Ni30  1  0.16961323  0.50228571  0.50220122  1
  Ni  Ni31  1  0.00230706  0.33516709  0.66832176  1
  Ni  Ni32  1  0.16899297  0.50303038  0.83560300  1
  Ni  Ni33  1  0.16833589  0.83496737  0.50222861  1
  Ni  Ni34  1  0.00235840  0.66947475  0.66897987  1
  Ni  Ni35  1  0.16869064  0.83442098  0.83535948  1
  Ni  Ni36  1  0.50277845  0.16964681  0.50227612  1
  Fe  Fe37  1  0.33587395  1.00199552  0.66865190  1
  Ni  Ni38  1  0.50325171  0.16923174  0.83529428  1
  Ni  Ni39  1  0.50120380  0.50190856  0.50262709  1
  Ni  Ni40  1  0.33590681  0.33611990  0.66858694  1
  Ni  Ni41  1  0.50167274  0.50189746  0.83562760  1
  Ni  Ni42  1  0.50240202  0.83525680  0.50262600  1
  Ni  Ni43  1  0.33585473  0.66852160  0.66924744  1
  Ni  Ni44  1  0.50210625  0.83569490  0.83533519  1
  Ni  Ni45  1  0.83570118  0.16837116  0.50231885  1
  Ni  Ni46  1  0.66954939  1.00222453  0.66838932  1
  Ni  Ni47  1  0.83488635  0.16892444  0.83553018  1
  Fe  Fe48  1  0.83580142  0.50199322  0.50249657  1
  Ni  Ni49  1  0.66860285  0.33480931  0.66983925  1
  Ni  Ni50  1  0.83614639  0.50189279  0.83493509  1
  Ni  Ni51  1  0.83607882  0.83653975  0.50266986  1
  Ni  Ni52  1  0.66860256  0.66978359  0.66881372  1
  Ni  Ni53  1  0.83602356  0.83600079  0.83555912  1
" 