3134,Ni13Fe87_9,-242.321761049236, 199.203750856522,Ni13Fe87,"# generated using pymatgen
 data_Fe7Ni47
_symmetry_space_group_name_H-M   'P 1'
_cell_length_a   7.43440612
_cell_length_b   7.43440612
_cell_length_c   10.51383797
_cell_angle_alpha   90.00000000
_cell_angle_beta   90.00000000
_cell_angle_gamma   90.00000000
_symmetry_Int_Tables_number   1
_chemical_formula_structural   Fe7Ni47
_chemical_formula_sum   'Fe7 Ni47'
_cell_volume   581.10397149
_cell_formula_units_Z   1
loop_
 _symmetry_equiv_pos_site_id
 _symmetry_equiv_pos_as_xyz
  1  'x, y, z'
loop_
 _atom_site_type_symbol
 _atom_site_label
 _atom_site_symmetry_multiplicity
 _atom_site_fract_x
 _atom_site_fract_y
 _atom_site_fract_z
 _atom_site_occupancy
  Ni  Ni0  1  1.00173386  1.00162979  0.00220918  1
  Fe  Fe1  1  0.16948288  0.16948280  0.16872477  1
  Ni  Ni2  1  1.00198563  1.00192692  0.33541211  1
  Ni  Ni3  1  1.00135477  0.33571886  1.00203079  1
  Ni  Ni4  1  0.16866875  0.50315392  0.16817731  1
  Ni  Ni5  1  1.00160378  0.33565401  0.33568712  1
  Ni  Ni6  1  0.00273538  0.66924530  1.00197229  1
  Ni  Ni7  1  0.16960696  0.83488295  0.16842931  1
  Ni  Ni8  1  1.00204318  0.66900457  0.33601071  1
  Ni  Ni9  1  0.33603391  1.00151008  0.00223669  1
  Ni  Ni10  1  0.50343264  0.16887400  0.16785642  1
  Ni  Ni11  1  0.33586100  1.00187610  0.33536824  1
  Ni  Ni12  1  0.33641915  0.33584017  1.00208970  1
  Ni  Ni13  1  0.50208383  0.50214221  0.16912214  1
  Ni  Ni14  1  0.33617526  0.33563705  0.33562488  1
  Ni  Ni15  1  0.33514502  0.66923575  1.00203090  1
  Ni  Ni16  1  0.50081882  0.83556959  0.16848048  1
  Ni  Ni17  1  0.33577941  0.66907628  0.33595699  1
  Ni  Ni18  1  0.66881763  0.00289411  1.00166551  1
  Ni  Ni19  1  0.83515110  0.16981127  0.16875022  1
  Ni  Ni20  1  0.66874093  0.00231712  0.33626206  1
  Ni  Ni21  1  0.66881524  0.33483175  0.00239390  1
  Ni  Ni22  1  0.83583144  0.50054566  0.16822659  1
  Ni  Ni23  1  0.66881221  0.33557461  0.33563619  1
  Fe  Fe24  1  0.66820906  0.66885729  1.00200889  1
  Fe  Fe25  1  0.83526205  0.83520610  0.16908755  1
  Ni  Ni26  1  0.66875977  0.66869095  0.33505284  1
  Ni  Ni27  1  0.16827497  0.16885716  0.50151802  1
  Ni  Ni28  1  0.00268368  1.00187906  0.66896980  1
  Ni  Ni29  1  0.16732345  0.16841083  0.83638720  1
  Ni  Ni30  1  0.16891689  0.50224554  0.50273046  1
  Ni  Ni31  1  1.00142598  0.33510520  0.66886417  1
  Fe  Fe32  1  0.16890267  0.50275019  0.83564933  1
  Ni  Ni33  1  0.16891646  0.83548347  0.50273034  1
  Ni  Ni34  1  1.00172645  0.66960998  0.66860307  1
  Ni  Ni35  1  0.16891587  0.83623362  0.83542569  1
  Ni  Ni36  1  0.50240599  0.16923546  0.50293355  1
  Ni  Ni37  1  0.33497466  1.00182826  0.66898177  1
  Fe  Fe38  1  0.50190156  0.16804652  0.83594760  1
  Ni  Ni39  1  0.50215298  0.50225628  0.50144945  1
  Ni  Ni40  1  0.33630181  0.33522416  0.66887225  1
  Ni  Ni41  1  0.50203576  0.50282540  0.83601312  1
  Ni  Ni42  1  0.50177350  0.83509230  0.50235945  1
  Ni  Ni43  1  0.33605006  0.66952965  0.66859716  1
  Ni  Ni44  1  0.50165540  0.83400056  0.83574447  1
  Ni  Ni45  1  0.83590709  0.16923610  0.50235916  1
  Fe  Fe46  1  0.66922708  1.00182841  0.66870413  1
  Ni  Ni47  1  0.83689770  0.16879610  0.83547718  1
  Ni  Ni48  1  0.83551659  0.50161484  0.50266219  1
  Ni  Ni49  1  0.66885727  0.33617887  0.66855243  1
  Fe  Fe50  1  0.83571800  0.50252147  0.83523722  1
  Ni  Ni51  1  0.83589727  0.83573403  0.50178521  1
  Ni  Ni52  1  0.66880944  0.66827372  0.66916794  1
  Ni  Ni53  1  0.83601390  0.83655974  0.83631999  1
" 