6016,Ni13Fe87_11,-242.423802224506, 199.393020756468,Ni13Fe87,"# generated using pymatgen
 data_Fe7Ni47
_symmetry_space_group_name_H-M   'P 1'
_cell_length_a   7.43419326
_cell_length_b   7.43419326
_cell_length_c   10.51353693
_cell_angle_alpha   90.00000000
_cell_angle_beta   90.00000000
_cell_angle_gamma   90.00000000
_symmetry_Int_Tables_number   1
_chemical_formula_structural   Fe7Ni47
_chemical_formula_sum   'Fe7 Ni47'
_cell_volume   581.05405740
_cell_formula_units_Z   1
loop_
 _symmetry_equiv_pos_site_id
 _symmetry_equiv_pos_as_xyz
  1  'x, y, z'
loop_
 _atom_site_type_symbol
 _atom_site_label
 _atom_site_symmetry_multiplicity
 _atom_site_fract_x
 _atom_site_fract_y
 _atom_site_fract_z
 _atom_site_occupancy
  Ni  Ni0  1  1.00195120  1.00188587  0.00226603  1
  Ni  Ni1  1  0.16940814  0.16963707  0.16954202  1
  Ni  Ni2  1  1.00185035  1.00157797  0.33588691  1
  Ni  Ni3  1  1.00199848  0.33596308  0.00231784  1
  Ni  Ni4  1  0.16909829  0.50162204  0.16856583  1
  Ni  Ni5  1  1.00191370  0.33628682  0.33583149  1
  Ni  Ni6  1  1.00189290  0.66877959  0.00231641  1
  Fe  Fe7  1  0.16894154  0.83541254  0.16949574  1
  Ni  Ni8  1  0.00281733  0.66876318  0.33549013  1
  Ni  Ni9  1  0.33607084  1.00219219  0.00258915  1
  Ni  Ni10  1  0.50111021  0.16835955  0.16817338  1
  Ni  Ni11  1  0.33601117  1.00195979  0.33543769  1
  Ni  Ni12  1  0.33602456  0.33565648  0.00263991  1
  Ni  Ni13  1  0.50136164  0.50284092  0.16902625  1
  Ni  Ni14  1  0.33595132  0.33590750  0.33538629  1
  Ni  Ni15  1  0.33581824  0.66878024  1.00173472  1
  Ni  Ni16  1  0.50263679  0.83543022  0.16902545  1
  Ni  Ni17  1  0.33466906  0.66875966  0.33597385  1
  Ni  Ni18  1  0.66860562  1.00208811  1.00186835  1
  Ni  Ni19  1  0.83611140  0.16835894  0.16882081  1
  Ni  Ni20  1  0.66876827  0.00286513  0.33570726  1
  Ni  Ni21  1  0.66860484  0.33571455  1.00194083  1
  Ni  Ni22  1  0.83617003  0.50314935  0.16877030  1
  Ni  Ni23  1  0.66876720  0.33494075  0.33563538  1
  Ni  Ni24  1  0.66891376  0.66882595  0.00284219  1
  Ni  Ni25  1  0.83489114  0.83512184  0.16876896  1
  Fe  Fe26  1  0.66940485  0.66894001  0.33495777  1
  Ni  Ni27  1  0.16986161  0.16893202  0.50208413  1
  Ni  Ni28  1  0.00230515  1.00157668  0.66847804  1
  Ni  Ni29  1  0.16936387  0.16893259  0.83500297  1
  Ni  Ni30  1  0.16853599  0.50245992  0.50268700  1
  Ni  Ni31  1  0.00229652  0.33617365  0.66848451  1
  Fe  Fe32  1  0.16864244  0.50137868  0.83583537  1
  Ni  Ni33  1  0.16853096  0.83523730  0.50210898  1
  Ni  Ni34  1  1.00130232  0.66887941  0.66882828  1
  Fe  Fe35  1  0.16864372  0.83643814  0.83521295  1
  Ni  Ni36  1  0.50140385  0.16860563  0.50248097  1
  Ni  Ni37  1  0.33580678  0.00290342  0.66860079  1
  Ni  Ni38  1  0.50094931  0.16860843  0.83597529  1
  Fe  Fe39  1  0.50215380  0.50102223  0.50227390  1
  Ni  Ni40  1  0.33581352  0.33484546  0.66860885  1
  Ni  Ni41  1  0.50229239  0.50284339  0.83544404  1
  Fe  Fe42  1  0.50208653  0.83672385  0.50220845  1
  Fe  Fe43  1  0.33560617  0.66887687  0.66880699  1
  Ni  Ni44  1  0.50261638  0.83517794  0.83512089  1
  Ni  Ni45  1  0.83536278  0.16860863  0.50255407  1
  Ni  Ni46  1  0.66851562  1.00190945  0.66904982  1
  Ni  Ni47  1  0.83631576  0.16860767  0.83525407  1
  Ni  Ni48  1  0.83637363  0.50311000  0.50220433  1
  Ni  Ni49  1  0.66851942  0.33584575  0.66905351  1
  Ni  Ni50  1  0.83534653  0.50322474  0.83565080  1
  Ni  Ni51  1  0.83604621  0.83491210  0.50252932  1
  Ni  Ni52  1  0.66984495  0.66887263  0.66844548  1
  Ni  Ni53  1  0.83502355  0.83479669  0.83532787  1
" 