8419,Ni13Fe87_7,-242.37659721879, 199.392165103873,Ni13Fe87,"# generated using pymatgen
 data_Fe7Ni47
_symmetry_space_group_name_H-M   'P 1'
_cell_length_a   7.43441160
_cell_length_b   7.43441160
_cell_length_c   10.51384571
_cell_angle_alpha   90.00000000
_cell_angle_beta   90.00000000
_cell_angle_gamma   90.00000000
_symmetry_Int_Tables_number   1
_chemical_formula_structural   Fe7Ni47
_chemical_formula_sum   'Fe7 Ni47'
_cell_volume   581.10525529
_cell_formula_units_Z   1
loop_
 _symmetry_equiv_pos_site_id
 _symmetry_equiv_pos_as_xyz
  1  'x, y, z'
loop_
 _atom_site_type_symbol
 _atom_site_label
 _atom_site_symmetry_multiplicity
 _atom_site_fract_x
 _atom_site_fract_y
 _atom_site_fract_z
 _atom_site_occupancy
  Ni  Ni0  1  1.00153936  1.00086631  1.00204372  1
  Fe  Fe1  1  0.16919800  0.16802376  0.16920771  1
  Ni  Ni2  1  1.00130592  1.00125536  0.33594583  1
  Fe  Fe3  1  1.00164246  0.33552329  1.00164221  1
  Fe  Fe4  1  0.16919591  0.50308752  0.16925797  1
  Ni  Ni5  1  1.00125323  0.33626816  0.33538345  1
  Ni  Ni6  1  1.00215059  0.66967483  1.00204378  1
  Ni  Ni7  1  0.16941457  0.83558245  0.16937221  1
  Ni  Ni8  1  0.00280887  0.66906284  0.33564310  1
  Ni  Ni9  1  0.33569798  1.00208369  1.00204379  1
  Ni  Ni10  1  0.50236741  0.16924949  0.16930604  1
  Ni  Ni11  1  0.33601695  1.00150679  0.33552908  1
  Ni  Ni12  1  0.33696754  0.33603505  1.00199730  1
  Ni  Ni13  1  0.50232153  0.50170784  0.16925482  1
  Ni  Ni14  1  0.33632147  0.33626816  0.33583297  1
  Ni  Ni15  1  0.33508820  0.66846784  1.00204378  1
  Ni  Ni16  1  0.50112001  0.83562830  0.16864412  1
  Ni  Ni17  1  0.33450843  0.66881066  0.33522715  1
  Ni  Ni18  1  0.66934611  0.00274699  1.00215732  1
  Ni  Ni19  1  0.83505371  0.16950192  0.16911381  1
  Ni  Ni20  1  0.66926456  0.00306695  0.33511027  1
  Ni  Ni21  1  0.66813840  0.33542355  1.00209226  1
  Ni  Ni22  1  0.83510084  0.50145369  0.16906097  1
  Ni  Ni23  1  0.66901316  0.33476496  0.33543348  1
  Ni  Ni24  1  0.66934580  0.66841424  1.00215727  1
  Ni  Ni25  1  0.83604946  0.83562771  0.16932027  1
  Fe  Fe26  1  0.66907417  0.66907958  0.33472259  1
  Ni  Ni27  1  0.16862971  0.16930402  0.50175003  1
  Ni  Ni28  1  1.00145795  1.00136233  0.66859471  1
  Ni  Ni29  1  0.16916643  0.16895877  0.83565244  1
  Ni  Ni30  1  0.16862905  0.50165816  0.50175045  1
  Ni  Ni31  1  1.00146987  0.33626876  0.66920334  1
  Ni  Ni32  1  0.16916417  0.50204404  0.83572032  1
  Ni  Ni33  1  0.16983919  0.83562239  0.50229383  1
  Ni  Ni34  1  0.00296099  0.66895402  0.66889842  1
  Ni  Ni35  1  0.16941470  0.83558043  0.83491995  1
  Fe  Fe36  1  0.50226128  0.16829712  0.50213377  1
  Ni  Ni37  1  0.33586340  1.00161273  0.66901339  1
  Ni  Ni38  1  0.50194177  0.16901493  0.83528930  1
  Fe  Fe39  1  0.50158698  0.50220827  0.50213396  1
  Ni  Ni40  1  0.33610173  0.33626884  0.66875732  1
  Ni  Ni41  1  0.50189601  0.50194389  0.83533943  1
  Ni  Ni42  1  0.50148893  0.83572291  0.50168309  1
  Ni  Ni43  1  0.33435458  0.66870266  0.66931650  1
  Ni  Ni44  1  0.50158895  0.83562759  0.83625554  1
  Ni  Ni45  1  0.83606144  0.16960839  0.50198902  1
  Ni  Ni46  1  0.66926591  0.00310875  0.66931870  1
  Ni  Ni47  1  0.83547707  0.16926415  0.83547955  1
  Ni  Ni48  1  0.83615540  0.50125150  0.50198905  1
  Ni  Ni49  1  0.66901503  0.33476690  0.66906192  1
  Ni  Ni50  1  0.83552405  0.50169299  0.83553129  1
  Ni  Ni51  1  0.83525195  0.83572503  0.50168346  1
  Fe  Fe52  1  0.66907566  0.66914771  0.66960036  1
  Ni  Ni53  1  0.83557931  0.83562696  0.83557973  1
" 