4404,Ni13Fe87_1,-242.303207692166, 199.314183182155,Ni13Fe87,"# generated using pymatgen
 data_Fe7Ni47
_symmetry_space_group_name_H-M   'P 1'
_cell_length_a   7.43472994
_cell_length_b   7.43472994
_cell_length_c   10.51429591
_cell_angle_alpha   90.00000000
_cell_angle_beta   90.00000000
_cell_angle_gamma   90.00000000
_symmetry_Int_Tables_number   1
_chemical_formula_structural   Fe7Ni47
_chemical_formula_sum   'Fe7 Ni47'
_cell_volume   581.17990622
_cell_formula_units_Z   1
loop_
 _symmetry_equiv_pos_site_id
 _symmetry_equiv_pos_as_xyz
  1  'x, y, z'
loop_
 _atom_site_type_symbol
 _atom_site_label
 _atom_site_symmetry_multiplicity
 _atom_site_fract_x
 _atom_site_fract_y
 _atom_site_fract_z
 _atom_site_occupancy
  Ni  Ni0  1  1.00174955  0.00227354  0.00265223  1
  Ni  Ni1  1  0.16905876  0.16904849  0.16848321  1
  Ni  Ni2  1  1.00145278  0.00279981  0.33530686  1
  Ni  Ni3  1  0.00238907  0.33540143  1.00201336  1
  Ni  Ni4  1  0.16904617  0.50195723  0.16898712  1
  Ni  Ni5  1  0.00304396  0.33508236  0.33556217  1
  Ni  Ni6  1  1.00214007  0.66884540  0.00221204  1
  Ni  Ni7  1  0.16937928  0.83551516  0.16937523  1
  Ni  Ni8  1  1.00170302  0.66864068  0.33550680  1
  Ni  Ni9  1  0.33576462  0.00221618  1.00213100  1
  Ni  Ni10  1  0.50158175  0.16867100  0.16875268  1
  Ni  Ni11  1  0.33612509  0.00280476  0.33581541  1
  Ni  Ni12  1  0.33545512  0.33579282  0.00238362  1
  Ni  Ni13  1  0.50159395  0.50233539  0.16925481  1
  Ni  Ni14  1  0.33481090  0.33533164  0.33519189  1
  Ni  Ni15  1  0.33576457  0.66851399  0.00259989  1
  Ni  Ni16  1  0.50163967  0.83551415  0.16873494  1
  Ni  Ni17  1  0.33612990  0.66838175  0.33514714  1
  Ni  Ni18  1  0.66900793  1.00196453  0.00233416  1
  Ni  Ni19  1  0.83588090  0.16900210  0.16964109  1
  Ni  Ni20  1  0.66893595  1.00147872  0.33536279  1
  Ni  Ni21  1  0.66867700  0.33540456  0.00258756  1
  Ni  Ni22  1  0.83588199  0.50201753  0.16836229  1
  Fe  Fe23  1  0.66913421  0.33528048  0.33528557  1
  Ni  Ni24  1  0.66861573  0.66915184  1.00189279  1
  Ni  Ni25  1  0.83550142  0.83550146  0.16873496  1
  Ni  Ni26  1  0.66868596  0.66996564  0.33556310  1
  Ni  Ni27  1  0.16919055  0.16941615  0.50259162  1
  Ni  Ni28  1  1.00089068  0.00239166  0.66855928  1
  Fe  Fe29  1  0.16796123  0.16912468  0.83566913  1
  Fe  Fe30  1  0.16832186  0.50146561  0.50223744  1
  Ni  Ni31  1  0.00247928  0.33499510  0.66894540  1
  Ni  Ni32  1  0.16924880  0.50235938  0.83514411  1
  Fe  Fe33  1  0.16798888  0.83641992  0.50193725  1
  Ni  Ni34  1  1.00215692  0.66913686  0.66879679  1
  Ni  Ni35  1  0.16951100  0.83494993  0.83487534  1
  Ni  Ni36  1  0.50120578  0.16808497  0.50263954  1
  Fe  Fe37  1  0.33579506  1.00187629  0.66842280  1
  Fe  Fe38  1  0.50306178  0.16919951  0.83573326  1
  Fe  Fe39  1  0.50296508  0.50184863  0.50258812  1
  Ni  Ni40  1  0.33550225  0.33624874  0.66895066  1
  Ni  Ni41  1  0.50150731  0.50266992  0.83482483  1
  Ni  Ni42  1  0.50218951  0.83583906  0.50233812  1
  Ni  Ni43  1  0.33587693  0.66793235  0.66876844  1
  Ni  Ni44  1  0.50155190  0.83495431  0.83544658  1
  Ni  Ni45  1  0.83612330  0.16929564  0.50211966  1
  Ni  Ni46  1  0.66974127  1.00201500  0.66882831  1
  Ni  Ni47  1  0.83576722  0.16916322  0.83475537  1
  Ni  Ni48  1  0.83613455  0.50226191  0.50283022  1
  Ni  Ni49  1  0.66854355  0.33498807  0.66831065  1
  Ni  Ni50  1  0.83576394  0.50140661  0.83532647  1
  Ni  Ni51  1  0.83479402  0.83496386  0.50270995  1
  Ni  Ni52  1  0.66848561  0.66951388  0.66906520  1
  Ni  Ni53  1  0.83545744  0.83595116  0.83507575  1
" 