6803,Ni13Fe87_3,-242.705601971705, 200.719545431606,Ni13Fe87,"# generated using pymatgen
 data_Fe7Ni47
_symmetry_space_group_name_H-M   'P 1'
_cell_length_a   7.43601600
_cell_length_b   7.43601600
_cell_length_c   10.51611468
_cell_angle_alpha   90.00000000
_cell_angle_beta   90.00000000
_cell_angle_gamma   90.00000000
_symmetry_Int_Tables_number   1
_chemical_formula_structural   Fe7Ni47
_chemical_formula_sum   'Fe7 Ni47'
_cell_volume   581.48155651
_cell_formula_units_Z   1
loop_
 _symmetry_equiv_pos_site_id
 _symmetry_equiv_pos_as_xyz
  1  'x, y, z'
loop_
 _atom_site_type_symbol
 _atom_site_label
 _atom_site_symmetry_multiplicity
 _atom_site_fract_x
 _atom_site_fract_y
 _atom_site_fract_z
 _atom_site_occupancy
  Ni  Ni0  1  0.00243699  0.00294046  0.00243985  1
  Ni  Ni1  1  0.16875020  0.16875394  0.16813656  1
  Fe  Fe2  1  0.00233086  1.00183600  0.33460593  1
  Ni  Ni3  1  1.00146147  0.33547519  0.00213855  1
  Ni  Ni4  1  0.16838977  0.50244411  0.16849754  1
  Ni  Ni5  1  0.00270808  0.33618740  0.33537007  1
  Ni  Ni6  1  0.00243517  0.66784613  0.00249795  1
  Ni  Ni7  1  0.16911723  0.83505980  0.16899709  1
  Ni  Ni8  1  1.00173762  0.66712225  0.33501036  1
  Ni  Ni9  1  0.33572651  1.00166336  0.00244500  1
  Ni  Ni10  1  0.50208627  0.16802707  0.16875050  1
  Ni  Ni11  1  0.33679647  0.00263745  0.33531733  1
  Fe  Fe12  1  0.33519846  0.33513621  0.00242900  1
  Ni  Ni13  1  0.50208413  0.50281443  0.16825979  1
  Ni  Ni14  1  0.33398860  0.33467264  0.33512759  1
  Ni  Ni15  1  0.33505408  0.66979837  0.00249755  1
  Ni  Ni16  1  0.50208647  0.83542163  0.16875127  1
  Ni  Ni17  1  0.33527282  0.66894954  0.33562335  1
  Ni  Ni18  1  0.66809793  0.00263726  0.00219114  1
  Ni  Ni19  1  0.83542244  0.16875444  0.16864841  1
  Ni  Ni20  1  0.66773181  1.00166682  0.33506347  1
  Ni  Ni21  1  0.67005193  0.33480129  0.00274110  1
  Ni  Ni22  1  0.83578327  0.50244432  0.16900424  1
  Fe  Fe23  1  0.66815537  0.33595537  0.33536225  1
  Ni  Ni24  1  0.66877070  0.66882003  0.00224011  1
  Ni  Ni25  1  0.83505723  0.83506109  0.16778119  1
  Ni  Ni26  1  0.66924921  0.66993249  0.33536972  1
  Ni  Ni27  1  0.16896181  0.16963895  0.50265390  1
  Fe  Fe28  1  0.00208753  0.00265390  0.66928680  1
  Ni  Ni29  1  0.16875172  0.16880097  0.83547144  1
  Ni  Ni30  1  0.16854465  0.50166226  0.50234684  1
  Ni  Ni31  1  0.00208668  0.33614535  0.66875106  1
  Ni  Ni32  1  0.16747580  0.50263660  0.83541638  1
  Fe  Fe33  1  0.16925657  0.83485435  0.50214678  1
  Ni  Ni34  1  0.00208687  0.66730184  0.66875032  1
  Ni  Ni35  1  0.17003243  0.83482257  0.83497416  1
  Ni  Ni36  1  0.50173918  0.16794496  0.50239893  1
  Ni  Ni37  1  0.33650781  0.00244320  0.66849635  1
  Ni  Ni38  1  0.50243432  0.16722126  0.83510931  1
  Ni  Ni39  1  0.50173604  0.50294062  0.50295072  1
  Ni  Ni40  1  0.33455776  0.33456185  0.66899936  1
  Fe  Fe41  1  0.50184193  0.50183571  0.83513222  1
  Ni  Ni42  1  0.50271315  0.83537704  0.50204027  1
  Ni  Ni43  1  0.33492444  0.66925265  0.66813888  1
  Ni  Ni44  1  0.50146369  0.83608911  0.83546823  1
  Ni  Ni45  1  0.83555800  0.16866454  0.50239456  1
  Ni  Ni46  1  0.66766546  0.00244340  0.66900503  1
  Ni  Ni47  1  0.83507436  0.16977988  0.83521583  1
  Ni  Ni48  1  0.83597626  0.50263642  0.50209201  1
  Ni  Ni49  1  0.66961415  0.33456307  0.66778352  1
  Ni  Ni50  1  0.83634316  0.50166579  0.83516152  1
  Ni  Ni51  1  0.83428011  0.83495802  0.50289697  1
  Ni  Ni52  1  0.66924925  0.66925320  0.66865079  1
  Fe  Fe53  1  0.83573083  0.83566843  0.83564595  1
" 