3100,Ni13Fe87_13,-242.263347138121, 198.603164726672,Ni13Fe87,"# generated using pymatgen
 data_Fe7Ni47
_symmetry_space_group_name_H-M   'P 1'
_cell_length_a   7.43334836
_cell_length_b   7.43334836
_cell_length_c   10.51234206
_cell_angle_alpha   90.00000000
_cell_angle_beta   90.00000000
_cell_angle_gamma   90.00000000
_symmetry_Int_Tables_number   1
_chemical_formula_structural   Fe7Ni47
_chemical_formula_sum   'Fe7 Ni47'
_cell_volume   580.85596862
_cell_formula_units_Z   1
loop_
 _symmetry_equiv_pos_site_id
 _symmetry_equiv_pos_as_xyz
  1  'x, y, z'
loop_
 _atom_site_type_symbol
 _atom_site_label
 _atom_site_symmetry_multiplicity
 _atom_site_fract_x
 _atom_site_fract_y
 _atom_site_fract_z
 _atom_site_occupancy
  Ni  Ni0  1  0.00340122  1.00212545  0.00240356  1
  Fe  Fe1  1  0.16951344  0.16938284  0.16906458  1
  Ni  Ni2  1  0.00273625  0.00260118  0.33575329  1
  Ni  Ni3  1  1.00200125  0.33539311  0.00238901  1
  Ni  Ni4  1  0.16813555  0.50357520  0.16836416  1
  Ni  Ni5  1  0.00241901  0.33518984  0.33543160  1
  Ni  Ni6  1  1.00183714  0.66927880  0.00268770  1
  Ni  Ni7  1  0.16973758  0.83501150  0.16937641  1
  Fe  Fe8  1  1.00173353  0.66833416  0.33554619  1
  Ni  Ni9  1  0.33465080  1.00203687  0.00238707  1
  Ni  Ni10  1  0.50352936  0.16797709  0.16900450  1
  Ni  Ni11  1  0.33523781  0.00255702  0.33572044  1
  Ni  Ni12  1  0.33597772  0.33540402  0.00237709  1
  Ni  Ni13  1  0.50232147  0.50264965  0.16882987  1
  Ni  Ni14  1  0.33552045  0.33520384  0.33536089  1
  Ni  Ni15  1  0.33621736  0.66936727  0.00268944  1
  Ni  Ni16  1  0.50096280  0.83617937  0.16886958  1
  Fe  Fe17  1  0.33643246  0.66868569  0.33518144  1
  Fe  Fe18  1  0.66836069  0.00292976  0.00232472  1
  Ni  Ni19  1  0.83517906  0.16957216  0.16933126  1
  Ni  Ni20  1  0.66882914  1.00132441  0.33517732  1
  Ni  Ni21  1  0.66883200  0.33697577  0.00276081  1
  Ni  Ni22  1  0.83634127  0.50101364  0.16916119  1
  Ni  Ni23  1  0.66887237  0.33675086  0.33579386  1
  Ni  Ni24  1  0.66873355  0.66797035  1.00217048  1
  Fe  Fe25  1  0.83509338  0.83495629  0.16963133  1
  Ni  Ni26  1  0.66882253  0.66870980  0.33569597  1
  Ni  Ni27  1  0.16839110  0.16917543  0.50184615  1
  Ni  Ni28  1  0.00260268  0.00228475  0.66865155  1
  Ni  Ni29  1  0.16813907  0.16824671  0.83640717  1
  Ni  Ni30  1  0.16839385  0.50188230  0.50253657  1
  Ni  Ni31  1  0.00228992  0.33553047  0.66898794  1
  Ni  Ni32  1  0.16813786  0.50308791  0.83590148  1
  Fe  Fe33  1  0.16880434  0.83625395  0.50279490  1
  Ni  Ni34  1  1.00193010  0.66898638  0.66871107  1
  Ni  Ni35  1  0.16975575  0.83546714  0.83490052  1
  Ni  Ni36  1  0.50240716  0.16785641  0.50235383  1
  Ni  Ni37  1  0.33536962  1.00223665  0.66870593  1
  Ni  Ni38  1  0.50274232  0.16798220  0.83543365  1
  Ni  Ni39  1  0.50210712  0.50290644  0.50215103  1
  Ni  Ni40  1  0.33563774  0.33553069  0.66907041  1
  Ni  Ni41  1  0.50245632  0.50306355  0.83581736  1
  Ni  Ni42  1  0.50275639  0.83603827  0.50214802  1
  Ni  Ni43  1  0.33604512  0.66903815  0.66876991  1
  Ni  Ni44  1  0.50110545  0.83576110  0.83577414  1
  Ni  Ni45  1  0.83600215  0.16851342  0.50235456  1
  Ni  Ni46  1  0.66882741  1.00187027  0.66886240  1
  Ni  Ni47  1  0.83591814  0.16959392  0.83510607  1
  Ni  Ni48  1  0.83629939  0.50224561  0.50215293  1
  Ni  Ni49  1  0.66887318  0.33620906  0.66824592  1
  Ni  Ni50  1  0.83620645  0.50143742  0.83548930  1
  Ni  Ni51  1  0.83498700  0.83603773  0.50214753  1
  Ni  Ni52  1  0.66882349  0.66871516  0.66892843  1
  Fe  Fe53  1  0.83596677  0.83529810  0.83467259  1
" 