3075,Ni13Fe87_12,-242.273934065988, 199.004341425656,Ni13Fe87,"# generated using pymatgen
 data_Fe7Ni47
_symmetry_space_group_name_H-M   'P 1'
_cell_length_a   7.43443783
_cell_length_b   7.43443783
_cell_length_c   10.51388281
_cell_angle_alpha   90.00000000
_cell_angle_beta   90.00000000
_cell_angle_gamma   90.00000000
_symmetry_Int_Tables_number   1
_chemical_formula_structural   Fe7Ni47
_chemical_formula_sum   'Fe7 Ni47'
_cell_volume   581.11140667
_cell_formula_units_Z   1
loop_
 _symmetry_equiv_pos_site_id
 _symmetry_equiv_pos_as_xyz
  1  'x, y, z'
loop_
 _atom_site_type_symbol
 _atom_site_label
 _atom_site_symmetry_multiplicity
 _atom_site_fract_x
 _atom_site_fract_y
 _atom_site_fract_z
 _atom_site_occupancy
  Ni  Ni0  1  1.00194501  1.00183370  0.00258013  1
  Ni  Ni1  1  0.16902007  0.16907508  0.16895632  1
  Ni  Ni2  1  1.00178794  0.00233284  0.33514944  1
  Ni  Ni3  1  1.00188482  0.33577321  0.00262775  1
  Ni  Ni4  1  0.16810475  0.50170920  0.16817446  1
  Ni  Ni5  1  1.00179304  0.33533873  0.33508788  1
  Ni  Ni6  1  0.00344585  0.66897296  0.00290159  1
  Ni  Ni7  1  0.16843001  0.83579471  0.16907756  1
  Ni  Ni8  1  0.00334939  0.66890461  0.33547035  1
  Ni  Ni9  1  0.33609586  1.00156394  0.00277606  1
  Ni  Ni10  1  0.50198081  0.16907594  0.16837455  1
  Fe  Fe11  1  0.33559432  1.00165876  0.33565556  1
  Ni  Ni12  1  0.33616428  0.33605082  0.00283121  1
  Ni  Ni13  1  0.50283995  0.50165098  0.16938489  1
  Fe  Fe14  1  0.33522427  0.33576522  0.33529412  1
  Ni  Ni15  1  0.33488514  0.66896845  1.00219037  1
  Ni  Ni16  1  0.50251539  0.83585144  0.16848065  1
  Ni  Ni17  1  0.33535155  0.66896594  0.33547748  1
  Ni  Ni18  1  0.66853567  0.00311805  0.00251730  1
  Ni  Ni19  1  0.83557717  0.16940100  0.16880577  1
  Ni  Ni20  1  0.66904242  0.00266050  0.33541113  1
  Ni  Ni21  1  0.66853123  0.33455241  0.00257884  1
  Ni  Ni22  1  0.83563562  0.50224459  0.16892421  1
  Ni  Ni23  1  0.66909951  0.33494641  0.33536391  1
  Fe  Fe24  1  0.66892406  0.66879069  1.00206444  1
  Ni  Ni25  1  0.83563545  0.83493328  0.16892392  1
  Ni  Ni26  1  0.66787438  0.66897246  0.33483709  1
  Ni  Ni27  1  0.16998210  0.16932751  0.50230975  1
  Ni  Ni28  1  0.00230331  1.00197744  0.66884883  1
  Ni  Ni29  1  0.16995696  0.16837406  0.83531665  1
  Ni  Ni30  1  0.16713478  0.50150810  0.50315505  1
  Ni  Ni31  1  0.00224185  0.33557918  0.66886467  1
  Fe  Fe32  1  0.16948612  0.50281931  0.83552489  1
  Ni  Ni33  1  0.16842765  0.83574387  0.50257708  1
  Ni  Ni34  1  0.00278141  0.66902010  0.66820977  1
  Ni  Ni35  1  0.16834132  0.83687675  0.83492723  1
  Ni  Ni36  1  0.50132610  0.16837574  0.50263310  1
  Ni  Ni37  1  0.33579682  1.00176663  0.66865695  1
  Ni  Ni38  1  0.50078564  0.16932615  0.83557631  1
  Fe  Fe39  1  0.50180001  0.50305560  0.50249003  1
  Ni  Ni40  1  0.33579674  0.33573462  0.66865690  1
  Ni  Ni41  1  0.50364291  0.50128300  0.83461681  1
  Ni  Ni42  1  0.50288191  0.83670410  0.50290124  1
  Ni  Ni43  1  0.33547100  0.66908611  0.66891228  1
  Ni  Ni44  1  0.50234910  0.83596951  0.83519628  1
  Fe  Fe45  1  0.83608880  0.16829746  0.50150598  1
  Ni  Ni46  1  0.66847877  0.00230282  0.66865096  1
  Fe  Fe47  1  0.83490063  0.16829728  0.83614906  1
  Ni  Ni48  1  0.83622210  0.50306289  0.50213207  1
  Ni  Ni49  1  0.66854086  0.33525341  0.66863534  1
  Ni  Ni50  1  0.83493819  0.50289431  0.83551919  1
  Ni  Ni51  1  0.83527023  0.83384996  0.50245707  1
  Ni  Ni52  1  0.66832689  0.66902042  0.66889572  1
  Ni  Ni53  1  0.83589034  0.83401819  0.83519428  1
" 