4486,Ni13Fe87_10,-242.419724525146, 200.330335657658,Ni13Fe87,"# generated using pymatgen
 data_Fe7Ni47
_symmetry_space_group_name_H-M   'P 1'
_cell_length_a   7.43532902
_cell_length_b   7.43532902
_cell_length_c   10.51514314
_cell_angle_alpha   90.00000000
_cell_angle_beta   90.00000000
_cell_angle_gamma   90.00000000
_symmetry_Int_Tables_number   1
_chemical_formula_structural   Fe7Ni47
_chemical_formula_sum   'Fe7 Ni47'
_cell_volume   581.32041082
_cell_formula_units_Z   1
loop_
 _symmetry_equiv_pos_site_id
 _symmetry_equiv_pos_as_xyz
  1  'x, y, z'
loop_
 _atom_site_type_symbol
 _atom_site_label
 _atom_site_symmetry_multiplicity
 _atom_site_fract_x
 _atom_site_fract_y
 _atom_site_fract_z
 _atom_site_occupancy
  Ni  Ni0  1  0.00254203  1.00190557  0.00242862  1
  Ni  Ni1  1  0.16909940  0.16839605  0.16834962  1
  Ni  Ni2  1  0.00246180  1.00157302  0.33512047  1
  Ni  Ni3  1  1.00137760  0.33521585  0.00230747  1
  Ni  Ni4  1  0.16879909  0.50228631  0.16864270  1
  Fe  Fe5  1  1.00186052  0.33573940  0.33519564  1
  Ni  Ni6  1  0.00284552  0.66927748  0.00213491  1
  Ni  Ni7  1  0.16851054  0.83571657  0.16909308  1
  Ni  Ni8  1  0.00270159  0.66950806  0.33546447  1
  Ni  Ni9  1  0.33490363  1.00195241  1.00195272  1
  Ni  Ni10  1  0.50203235  0.16879758  0.16879952  1
  Ni  Ni11  1  0.33519370  1.00161641  0.33569527  1
  Ni  Ni12  1  0.33641685  0.33551756  0.00265945  1
  Ni  Ni13  1  0.50233320  0.50188371  0.16909429  1
  Fe  Fe14  1  0.33600514  0.33534834  0.33558400  1
  Ni  Ni15  1  0.33490475  0.66892795  0.00247850  1
  Ni  Ni16  1  0.50222150  0.83571672  0.16872360  1
  Ni  Ni17  1  0.33519366  0.66921920  0.33522914  1
  Fe  Fe18  1  0.66901396  0.00294591  0.00234224  1
  Ni  Ni19  1  0.83526718  0.16850995  0.16903077  1
  Ni  Ni20  1  0.66874393  0.00302365  0.33488997  1
  Ni  Ni21  1  0.66860484  0.33521473  1.00184077  1
  Ni  Ni22  1  0.83526752  0.50247368  0.16850641  1
  Ni  Ni23  1  0.66845652  0.33532117  0.33570865  1
  Fe  Fe24  1  0.66906919  0.66798523  0.00240247  1
  Ni  Ni25  1  0.83566872  0.83541556  0.16895608  1
  Ni  Ni26  1  0.66850386  0.66805469  0.33523325  1
  Ni  Ni27  1  0.16963529  0.16845456  0.50248002  1
  Ni  Ni28  1  1.00158874  1.00202921  0.66884899  1
  Ni  Ni29  1  0.16922245  0.16848194  0.83557257  1
  Ni  Ni30  1  0.16852429  0.50210622  0.50253118  1
  Ni  Ni31  1  0.00216606  0.33509314  0.66897024  1
  Ni  Ni32  1  0.16898189  0.50230510  0.83522920  1
  Ni  Ni33  1  0.16817642  0.83583862  0.50208469  1
  Ni  Ni34  1  0.00270072  0.66927609  0.66879951  1
  Ni  Ni35  1  0.16776292  0.83561276  0.83521956  1
  Ni  Ni36  1  0.50164518  0.16879878  0.50213468  1
  Fe  Fe37  1  0.33525435  0.00252063  0.66847281  1
  Ni  Ni38  1  0.50203281  0.16969058  0.83546471  1
  Ni  Ni39  1  0.50275464  0.50176169  0.50218513  1
  Ni  Ni40  1  0.33596038  0.33620682  0.66886183  1
  Ni  Ni41  1  0.50227498  0.50109448  0.83512223  1
  Ni  Ni42  1  0.50276208  0.83583894  0.50255118  1
  Ni  Ni43  1  0.33531698  0.66805730  0.66869157  1
  Fe  Fe44  1  0.50186070  0.83519319  0.83519425  1
  Fe  Fe45  1  0.83519779  0.16852911  0.50240122  1
  Ni  Ni46  1  0.66949145  0.00267151  0.66873924  1
  Ni  Ni47  1  0.83514330  0.16847431  0.83489031  1
  Ni  Ni48  1  0.83511913  0.50322288  0.50253648  1
  Ni  Ni49  1  0.66827226  0.33509325  0.66884893  1
  Ni  Ni50  1  0.83514281  0.50255395  0.83535655  1
  Ni  Ni51  1  0.83545995  0.83472819  0.50207619  1
  Ni  Ni52  1  0.66837932  0.66863405  0.66868924  1
  Ni  Ni53  1  0.83635458  0.83537003  0.83536351  1
" 