4810,Ni13Fe87_19,-242.387369600832, 199.187943177222,Ni13Fe87,"# generated using pymatgen
 data_Fe7Ni47
_symmetry_space_group_name_H-M   'P 1'
_cell_length_a   7.43418876
_cell_length_b   7.43418876
_cell_length_c   10.51353056
_cell_angle_alpha   90.00000000
_cell_angle_beta   90.00000000
_cell_angle_gamma   90.00000000
_symmetry_Int_Tables_number   1
_chemical_formula_structural   Fe7Ni47
_chemical_formula_sum   'Fe7 Ni47'
_cell_volume   581.05300183
_cell_formula_units_Z   1
loop_
 _symmetry_equiv_pos_site_id
 _symmetry_equiv_pos_as_xyz
  1  'x, y, z'
loop_
 _atom_site_type_symbol
 _atom_site_label
 _atom_site_symmetry_multiplicity
 _atom_site_fract_x
 _atom_site_fract_y
 _atom_site_fract_z
 _atom_site_occupancy
  Ni  Ni0  1  1.00163341  1.00086079  1.00198124  1
  Fe  Fe1  1  0.16860864  0.16907021  0.16923049  1
  Ni  Ni2  1  0.00258984  1.00182207  0.33550025  1
  Fe  Fe3  1  0.00247506  0.33534486  1.00185526  1
  Ni  Ni4  1  0.16939555  0.50355544  0.16905085  1
  Ni  Ni5  1  1.00130541  0.33535200  0.33478552  1
  Ni  Ni6  1  0.00264459  0.66991032  0.00242797  1
  Ni  Ni7  1  0.16871185  0.83424020  0.16893163  1
  Ni  Ni8  1  1.00169373  0.66945649  0.33570261  1
  Ni  Ni9  1  0.33543386  1.00220989  1.00200574  1
  Ni  Ni10  1  0.50280317  0.16957771  0.16887921  1
  Ni  Ni11  1  0.33472366  1.00220838  0.33515124  1
  Ni  Ni12  1  0.33705883  0.33579528  0.00243360  1
  Ni  Ni13  1  0.50152939  0.50085958  0.16898323  1
  Ni  Ni14  1  0.33634367  0.33529612  0.33537383  1
  Ni  Ni15  1  0.33435879  0.66862161  0.00243025  1
  Fe  Fe16  1  0.50217486  0.83485455  0.16887097  1
  Ni  Ni17  1  0.33557337  0.66912395  0.33537449  1
  Ni  Ni18  1  0.66956028  0.00355869  0.00263136  1
  Ni  Ni19  1  0.83375758  0.16889820  0.16892988  1
  Fe  Fe20  1  0.66910854  0.00250747  0.33577202  1
  Ni  Ni21  1  0.66827845  0.33478979  1.00215805  1
  Ni  Ni22  1  0.83570626  0.50220876  0.16902769  1
  Ni  Ni23  1  0.66897841  0.33619642  0.33564679  1
  Fe  Fe24  1  0.66891127  0.66950071  0.00228378  1
  Ni  Ni25  1  0.83646062  0.83552520  0.16893280  1
  Ni  Ni26  1  0.66936784  0.66783417  0.33472725  1
  Ni  Ni27  1  0.16993249  0.16945556  0.50173675  1
  Ni  Ni28  1  1.00200131  1.00189350  0.66914983  1
  Ni  Ni29  1  0.17005375  0.16928747  0.83597279  1
  Ni  Ni30  1  0.16832367  0.50252653  0.50192420  1
  Ni  Ni31  1  1.00167553  0.33543533  0.66940448  1
  Ni  Ni32  1  0.16844167  0.50259780  0.83565152  1
  Ni  Ni33  1  0.16961670  0.83464840  0.50264184  1
  Ni  Ni34  1  1.00199111  0.66930082  0.66849937  1
  Ni  Ni35  1  0.16966387  0.83474384  0.83505689  1
  Ni  Ni36  1  0.50215094  0.16822280  0.50237169  1
  Ni  Ni37  1  0.33538671  1.00220945  0.66947438  1
  Ni  Ni38  1  0.50222111  0.16805646  0.83538150  1
  Fe  Fe39  1  0.50228145  0.50228299  0.50152077  1
  Ni  Ni40  1  0.33591946  0.33532570  0.66882304  1
  Fe  Fe41  1  0.50191296  0.50191404  0.83593896  1
  Ni  Ni42  1  0.50183415  0.83651836  0.50146644  1
  Ni  Ni43  1  0.33528520  0.66909613  0.66882399  1
  Ni  Ni44  1  0.50183409  0.83675314  0.83629964  1
  Ni  Ni45  1  0.83454538  0.16951570  0.50237030  1
  Ni  Ni46  1  0.66924213  0.00252494  0.66856975  1
  Ni  Ni47  1  0.83435880  0.16928106  0.83532886  1
  Ni  Ni48  1  0.83641658  0.50221024  0.50166684  1
  Ni  Ni49  1  0.66903711  0.33533413  0.66882390  1
  Ni  Ni50  1  0.83636431  0.50221282  0.83593229  1
  Ni  Ni51  1  0.83517777  0.83490357  0.50237107  1
  Ni  Ni52  1  0.66935539  0.66877189  0.66973048  1
  Ni  Ni53  1  0.83512848  0.83513753  0.83532943  1
" 