1752,Ni13Fe87_2,-242.515111127145, 200.326405275823,Ni13Fe87,"# generated using pymatgen
 data_Fe7Ni47
_symmetry_space_group_name_H-M   'P 1'
_cell_length_a   7.43521247
_cell_length_b   7.43521247
_cell_length_c   10.51497831
_cell_angle_alpha   90.00000000
_cell_angle_beta   90.00000000
_cell_angle_gamma   90.00000000
_symmetry_Int_Tables_number   1
_chemical_formula_structural   Fe7Ni47
_chemical_formula_sum   'Fe7 Ni47'
_cell_volume   581.29307359
_cell_formula_units_Z   1
loop_
 _symmetry_equiv_pos_site_id
 _symmetry_equiv_pos_as_xyz
  1  'x, y, z'
loop_
 _atom_site_type_symbol
 _atom_site_label
 _atom_site_symmetry_multiplicity
 _atom_site_fract_x
 _atom_site_fract_y
 _atom_site_fract_z
 _atom_site_occupancy
  Ni  Ni0  1  0.00214603  0.00214289  1.00213344  1
  Ni  Ni1  1  0.16880160  0.16881831  0.16880857  1
  Ni  Ni2  1  0.00214366  1.00214052  0.33547910  1
  Ni  Ni3  1  1.00213484  0.33547764  1.00213366  1
  Ni  Ni4  1  0.16880163  0.50213974  0.16880857  1
  Ni  Ni5  1  0.00214150  0.33547764  0.33548172  1
  Ni  Ni6  1  0.00214672  0.66880199  1.00213803  1
  Fe  Fe7  1  0.16881389  0.83548449  0.16880694  1
  Ni  Ni8  1  0.00214436  0.66880436  0.33547451  1
  Ni  Ni9  1  0.33547733  1.00213317  1.00213694  1
  Ni  Ni10  1  0.50214674  0.16879455  0.16880857  1
  Ni  Ni11  1  0.33547732  1.00213983  0.33547844  1
  Fe  Fe12  1  0.33547069  0.33547241  1.00213850  1
  Fe  Fe13  1  0.50213793  0.50213343  0.16881040  1
  Ni  Ni14  1  0.33547593  0.33547478  0.33547320  1
  Ni  Ni15  1  0.33547377  0.66881456  1.00213347  1
  Ni  Ni16  1  0.50214606  0.83547632  0.16880790  1
  Ni  Ni17  1  0.33547377  0.66880790  0.33548192  1
  Ni  Ni18  1  0.66879916  0.00214505  1.00213651  1
  Ni  Ni19  1  0.83547416  0.16880711  0.16880790  1
  Ni  Ni20  1  0.66880153  0.00214268  0.33547603  1
  Ni  Ni21  1  0.66881173  0.33547408  1.00213628  1
  Fe  Fe22  1  0.83547479  0.50212931  0.16880694  1
  Ni  Ni23  1  0.66880507  0.33547408  0.33547910  1
  Ni  Ni24  1  0.66880201  0.66880338  1.00213280  1
  Fe  Fe25  1  0.83547352  0.83548512  0.16880749  1
  Ni  Ni26  1  0.66880438  0.66880575  0.33547974  1
  Ni  Ni27  1  0.16880470  0.16881039  0.50213347  1
  Ni  Ni28  1  0.00214329  1.00213359  0.66880997  1
  Ni  Ni29  1  0.16880359  0.16880928  0.83548046  1
  Ni  Ni30  1  0.16880401  0.50214142  0.50213806  1
  Ni  Ni31  1  1.00214041  0.33548385  0.66880712  1
  Ni  Ni32  1  0.16880290  0.50214253  0.83547588  1
  Ni  Ni33  1  0.16880685  0.83547070  0.50212998  1
  Ni  Ni34  1  0.00214326  0.66880507  0.66880997  1
  Ni  Ni35  1  0.16880647  0.83547070  0.83548463  1
  Ni  Ni36  1  0.50214327  0.16880467  0.50213303  1
  Ni  Ni37  1  0.33547898  0.00214261  0.66880712  1
  Ni  Ni38  1  0.50214437  0.16880356  0.83548090  1
  Ni  Ni39  1  0.50214041  0.50214359  0.50212932  1
  Ni  Ni40  1  0.33547902  0.33547199  0.66881235  1
  Ni  Ni41  1  0.50214151  0.50214470  0.83548461  1
  Ni  Ni42  1  0.50214329  0.83547425  0.50213740  1
  Fe  Fe43  1  0.33546838  0.66880695  0.66880808  1
  Ni  Ni44  1  0.50214367  0.83547425  0.83547721  1
  Ni  Ni45  1  0.83547454  0.16880751  0.50213632  1
  Ni  Ni46  1  0.66880024  0.00214547  0.66880997  1
  Ni  Ni47  1  0.83547454  0.16880713  0.83547829  1
  Ni  Ni48  1  0.83547809  0.50214144  0.50213283  1
  Ni  Ni49  1  0.66880309  0.33547201  0.66880712  1
  Ni  Ni50  1  0.83547809  0.50214182  0.83548178  1
  Ni  Ni51  1  0.83547237  0.83547356  0.50213283  1
  Fe  Fe52  1  0.66881330  0.66880750  0.66880751  1
  Ni  Ni53  1  0.83547237  0.83547356  0.83548223  1
" 