950,Ni13Fe87_5,-242.423751450965, 199.350401580477,Ni13Fe87,"# generated using pymatgen
 data_Fe7Ni47
_symmetry_space_group_name_H-M   'P 1'
_cell_length_a   7.43327636
_cell_length_b   7.43327636
_cell_length_c   10.51224025
_cell_angle_alpha   90.00000000
_cell_angle_beta   90.00000000
_cell_angle_gamma   90.00000000
_symmetry_Int_Tables_number   1
_chemical_formula_structural   Fe7Ni47
_chemical_formula_sum   'Fe7 Ni47'
_cell_volume   580.83909166
_cell_formula_units_Z   1
loop_
 _symmetry_equiv_pos_site_id
 _symmetry_equiv_pos_as_xyz
  1  'x, y, z'
loop_
 _atom_site_type_symbol
 _atom_site_label
 _atom_site_symmetry_multiplicity
 _atom_site_fract_x
 _atom_site_fract_y
 _atom_site_fract_z
 _atom_site_occupancy
  Ni  Ni0  1  0.00258513  0.00277857  1.00226304  1
  Ni  Ni1  1  0.16878004  0.16825081  0.16830004  1
  Ni  Ni2  1  1.00166460  0.00344478  0.33523951  1
  Ni  Ni3  1  1.00158336  0.33522676  0.00254019  1
  Fe  Fe4  1  0.16900139  0.50227403  0.16899554  1
  Ni  Ni5  1  0.00258348  0.33416070  0.33565178  1
  Ni  Ni6  1  0.00290716  0.66880682  0.00249722  1
  Ni  Ni7  1  0.16888011  0.83629063  0.16937875  1
  Fe  Fe8  1  1.00111585  0.66838111  0.33505266  1
  Ni  Ni9  1  0.33521579  1.00086707  0.00283740  1
  Ni  Ni10  1  0.50178332  0.16919537  0.16927182  1
  Fe  Fe11  1  0.33638981  0.00319906  0.33518773  1
  Fe  Fe12  1  0.33620313  0.33553022  0.00233351  1
  Ni  Ni13  1  0.50264842  0.50231936  0.16892855  1
  Ni  Ni14  1  0.33497142  0.33703874  0.33539755  1
  Ni  Ni15  1  0.33586059  0.66973627  1.00217332  1
  Ni  Ni16  1  0.50171069  0.83530835  0.16851102  1
  Ni  Ni17  1  0.33660606  0.66827088  0.33560878  1
  Ni  Ni18  1  0.66901203  1.00221314  0.00229743  1
  Ni  Ni19  1  0.83626422  0.16918426  0.16920378  1
  Ni  Ni20  1  0.67022128  1.00179957  0.33552677  1
  Ni  Ni21  1  0.66996313  0.33587015  0.00254011  1
  Ni  Ni22  1  0.83527882  0.50221254  0.16890051  1
  Ni  Ni23  1  0.66925810  0.33582977  0.33600472  1
  Ni  Ni24  1  0.66805143  0.66873257  0.00246179  1
  Ni  Ni25  1  0.83622289  0.83541186  0.16842810  1
  Ni  Ni26  1  0.66733716  0.66918514  0.33528421  1
  Ni  Ni27  1  0.16894699  0.16974478  0.50294366  1
  Ni  Ni28  1  1.00225660  0.00333964  0.66930964  1
  Fe  Fe29  1  0.16860184  0.16864167  0.83525593  1
  Ni  Ni30  1  0.16908923  0.50138064  0.50175383  1
  Ni  Ni31  1  0.00233520  0.33465135  0.66862100  1
  Ni  Ni32  1  0.16893422  0.50296001  0.83619649  1
  Fe  Fe33  1  0.16920942  0.83588622  0.50254422  1
  Fe  Fe34  1  1.00204041  0.66863898  0.66984073  1
  Ni  Ni35  1  0.16900147  0.83502144  0.83508181  1
  Ni  Ni36  1  0.50165027  0.16881488  0.50205693  1
  Ni  Ni37  1  0.33505118  1.00143892  0.66809475  1
  Ni  Ni38  1  0.50258565  0.16881678  0.83547651  1
  Ni  Ni39  1  0.50159136  0.50240696  0.50264978  1
  Ni  Ni40  1  0.33497157  0.33655302  0.66919855  1
  Ni  Ni41  1  0.50166523  0.50207094  0.83523841  1
  Ni  Ni42  1  0.50260047  0.83560434  0.50236714  1
  Ni  Ni43  1  0.33654720  0.66882053  0.66903646  1
  Ni  Ni44  1  0.50159075  0.83592118  0.83592666  1
  Ni  Ni45  1  0.83622519  0.16873281  0.50200590  1
  Ni  Ni46  1  0.66950384  1.00175924  0.66899093  1
  Ni  Ni47  1  0.83532282  0.16889759  0.83560493  1
  Ni  Ni48  1  0.83612191  0.50232247  0.50258224  1
  Ni  Ni49  1  0.66950391  0.33615726  0.66827000  1
  Ni  Ni50  1  0.83621774  0.50196769  0.83534066  1
  Ni  Ni51  1  0.83519024  0.83575429  0.50233345  1
  Ni  Ni52  1  0.66759341  0.66889778  0.66906864  1
  Ni  Ni53  1  0.83622030  0.83594786  0.83606269  1
" 