8672,Ni13Fe87_17,-242.224936183985, 198.797051817023,Ni13Fe87,"# generated using pymatgen
 data_Fe7Ni47
_symmetry_space_group_name_H-M   'P 1'
_cell_length_a   7.43391331
_cell_length_b   7.43391331
_cell_length_c   10.51314103
_cell_angle_alpha   90.00000000
_cell_angle_beta   90.00000000
_cell_angle_gamma   90.00000000
_symmetry_Int_Tables_number   1
_chemical_formula_structural   Fe7Ni47
_chemical_formula_sum   'Fe7 Ni47'
_cell_volume   580.98841814
_cell_formula_units_Z   1
loop_
 _symmetry_equiv_pos_site_id
 _symmetry_equiv_pos_as_xyz
  1  'x, y, z'
loop_
 _atom_site_type_symbol
 _atom_site_label
 _atom_site_symmetry_multiplicity
 _atom_site_fract_x
 _atom_site_fract_y
 _atom_site_fract_z
 _atom_site_occupancy
  Ni  Ni0  1  1.00206240  0.00357300  0.00269085  1
  Fe  Fe1  1  0.16824464  0.16820427  0.16892162  1
  Ni  Ni2  1  1.00173111  0.00292003  0.33581726  1
  Ni  Ni3  1  1.00208185  0.33483763  1.00210002  1
  Ni  Ni4  1  0.16872064  0.50252439  0.16818548  1
  Ni  Ni5  1  0.00279244  0.33582312  0.33568029  1
  Fe  Fe6  1  1.00220370  0.66967614  0.00281022  1
  Ni  Ni7  1  0.16917889  0.83388272  0.16913327  1
  Ni  Ni8  1  1.00192046  0.66782154  0.33545235  1
  Ni  Ni9  1  0.33531239  1.00184841  0.00233378  1
  Ni  Ni10  1  0.50259640  0.16911699  0.16791981  1
  Ni  Ni11  1  0.33609689  0.00232931  0.33531064  1
  Ni  Ni12  1  0.33491222  0.33591430  1.00187525  1
  Fe  Fe13  1  0.50270654  0.50321260  0.16858964  1
  Ni  Ni14  1  0.33429960  0.33591632  0.33557626  1
  Ni  Ni15  1  0.33660327  0.66898835  0.00256297  1
  Ni  Ni16  1  0.50185975  0.83681367  0.16825662  1
  Ni  Ni17  1  0.33607385  0.66849650  0.33562521  1
  Ni  Ni18  1  0.66915471  1.00184312  1.00139070  1
  Ni  Ni19  1  0.83413853  0.16938178  0.16885873  1
  Ni  Ni20  1  0.66873312  1.00122651  0.33580409  1
  Ni  Ni21  1  0.66959125  0.33602925  0.00292185  1
  Ni  Ni22  1  0.83697395  0.50174263  0.16842011  1
  Fe  Fe23  1  0.66906246  0.33510674  0.33576630  1
  Ni  Ni24  1  0.66815452  0.66905585  1.00198589  1
  Ni  Ni25  1  0.83567760  0.83558399  0.16865260  1
  Ni  Ni26  1  0.66883586  0.66946589  0.33574237  1
  Ni  Ni27  1  0.16900583  0.16919027  0.50152762  1
  Ni  Ni28  1  0.00268000  0.00321007  0.66825336  1
  Ni  Ni29  1  0.16865849  0.16869751  0.83636654  1
  Ni  Ni30  1  0.16871933  0.50256329  0.50313429  1
  Ni  Ni31  1  1.00188630  0.33498072  0.66891240  1
  Fe  Fe32  1  0.16956438  0.50232862  0.83559581  1
  Ni  Ni33  1  0.16869347  0.83488887  0.50176014  1
  Ni  Ni34  1  0.00240431  0.66836127  0.66930783  1
  Ni  Ni35  1  0.16859060  0.83542781  0.83594504  1
  Ni  Ni36  1  0.50231238  0.16899707  0.50304709  1
  Ni  Ni37  1  0.33523476  1.00148675  0.66909069  1
  Ni  Ni38  1  0.50254189  0.16998717  0.83567577  1
  Ni  Ni39  1  0.50201917  0.50199564  0.50097448  1
  Fe  Fe40  1  0.33599637  0.33525966  0.66866642  1
  Ni  Ni41  1  0.50200678  0.50176328  0.83640581  1
  Ni  Ni42  1  0.50197007  0.83559311  0.50263648  1
  Ni  Ni43  1  0.33623594  0.66923998  0.66842242  1
  Ni  Ni44  1  0.50181767  0.83491863  0.83577412  1
  Ni  Ni45  1  0.83540651  0.16914597  0.50216625  1
  Ni  Ni46  1  0.66876031  1.00219943  0.66949761  1
  Ni  Ni47  1  0.83553664  0.16904877  0.83578589  1
  Ni  Ni48  1  0.83602224  0.50222923  0.50245925  1
  Ni  Ni49  1  0.66986102  0.33601794  0.66831111  1
  Fe  Fe50  1  0.83434407  0.50194879  0.83532797  1
  Ni  Ni51  1  0.83603691  0.83523186  0.50227255  1
  Ni  Ni52  1  0.66800550  0.66845832  0.66870231  1
  Ni  Ni53  1  0.83631393  0.83583883  0.83594048  1
" 