222,Ni13Fe87_16,-242.179983603528, 198.290126988473,Ni13Fe87,"# generated using pymatgen
 data_Fe7Ni47
_symmetry_space_group_name_H-M   'P 1'
_cell_length_a   7.43451632
_cell_length_b   7.43451632
_cell_length_c   10.51399380
_cell_angle_alpha   90.00000000
_cell_angle_beta   90.00000000
_cell_angle_gamma   90.00000000
_symmetry_Int_Tables_number   1
_chemical_formula_structural   Fe7Ni47
_chemical_formula_sum   'Fe7 Ni47'
_cell_volume   581.12981113
_cell_formula_units_Z   1
loop_
 _symmetry_equiv_pos_site_id
 _symmetry_equiv_pos_as_xyz
  1  'x, y, z'
loop_
 _atom_site_type_symbol
 _atom_site_label
 _atom_site_symmetry_multiplicity
 _atom_site_fract_x
 _atom_site_fract_y
 _atom_site_fract_z
 _atom_site_occupancy
  Ni  Ni0  1  0.00421579  1.00197222  0.00223881  1
  Fe  Fe1  1  0.16938937  0.16890641  0.16878802  1
  Ni  Ni2  1  0.00280501  0.00228268  0.33545881  1
  Ni  Ni3  1  1.00196291  0.33528299  0.00244905  1
  Ni  Ni4  1  0.16876559  0.50275722  0.16803710  1
  Ni  Ni5  1  1.00211575  0.33576775  0.33460739  1
  Ni  Ni6  1  1.00057868  0.66926049  1.00099796  1
  Ni  Ni7  1  0.16817221  0.83423522  0.16872580  1
  Ni  Ni8  1  1.00207273  0.66849926  0.33644960  1
  Ni  Ni9  1  0.33488683  1.00215760  1.00171141  1
  Ni  Ni10  1  0.50289937  0.16970325  0.16838332  1
  Ni  Ni11  1  0.33544809  1.00180902  0.33596460  1
  Ni  Ni12  1  0.33592174  0.33396116  1.00128623  1
  Ni  Ni13  1  0.50146792  0.50122239  0.16916223  1
  Ni  Ni14  1  0.33539220  0.33546556  0.33632327  1
  Fe  Fe15  1  0.33477564  0.66809558  0.00228581  1
  Ni  Ni16  1  0.50171934  0.83564612  0.16786637  1
  Ni  Ni17  1  0.33574144  0.66922631  0.33445861  1
  Fe  Fe18  1  0.66977401  0.00310294  1.00200391  1
  Ni  Ni19  1  0.83517684  0.16911434  0.16854575  1
  Ni  Ni20  1  0.66838795  1.00188717  0.33524171  1
  Ni  Ni21  1  0.66866239  0.33752727  1.00197570  1
  Ni  Ni22  1  0.83615351  0.50199933  0.16850795  1
  Ni  Ni23  1  0.66913981  0.33617442  0.33563013  1
  Ni  Ni24  1  0.66889924  0.66818632  0.00244957  1
  Ni  Ni25  1  0.83664890  0.83563261  0.16882963  1
  Ni  Ni26  1  0.66875498  0.66850415  0.33558976  1
  Ni  Ni27  1  0.16834185  0.16917280  0.50156816  1
  Ni  Ni28  1  0.00330717  0.00374936  0.66883488  1
  Ni  Ni29  1  0.16828580  0.16858147  0.83604206  1
  Ni  Ni30  1  0.16917164  0.50243264  0.50311639  1
  Ni  Ni31  1  1.00172407  0.33471482  0.66957352  1
  Fe  Fe32  1  0.16898975  0.50169768  0.83571502  1
  Ni  Ni33  1  0.16889623  0.83502907  0.50228345  1
  Fe  Fe34  1  1.00126041  0.67029298  0.66827194  1
  Ni  Ni35  1  0.16820393  0.83559224  0.83535116  1
  Ni  Ni36  1  0.50286845  0.16901740  0.50314155  1
  Ni  Ni37  1  0.33470843  1.00088907  0.66885820  1
  Ni  Ni38  1  0.50248358  0.16975093  0.83512725  1
  Ni  Ni39  1  0.50164230  0.50217593  0.50151080  1
  Fe  Fe40  1  0.33642423  0.33446576  0.66865671  1
  Ni  Ni41  1  0.50172979  0.50188126  0.83582071  1
  Ni  Ni42  1  0.50195529  0.83527823  0.50224966  1
  Ni  Ni43  1  0.33655427  0.66979419  0.66989932  1
  Ni  Ni44  1  0.50204805  0.83481498  0.83659090  1
  Ni  Ni45  1  0.83547632  0.16881322  0.50224374  1
  Ni  Ni46  1  0.66854511  1.00171266  0.67010183  1
  Ni  Ni47  1  0.83607417  0.16875916  0.83594483  1
  Ni  Ni48  1  0.83580724  0.50165189  0.50234315  1
  Ni  Ni49  1  0.67023168  0.33658405  0.66895762  1
  Fe  Fe50  1  0.83433805  0.50205560  0.83569842  1
  Ni  Ni51  1  0.83561904  0.83626618  0.50224351  1
  Ni  Ni52  1  0.66732525  0.66830154  0.66849647  1
  Ni  Ni53  1  0.83620381  0.83628935  0.83553443  1
" 