3537,Ni13Fe87_18,-242.403616754606, 198.803158955772,Ni13Fe87,"# generated using pymatgen
 data_Fe7Ni47
_symmetry_space_group_name_H-M   'P 1'
_cell_length_a   7.43571528
_cell_length_b   7.43571528
_cell_length_c   10.51568939
_cell_angle_alpha   90.00000000
_cell_angle_beta   90.00000000
_cell_angle_gamma   90.00000000
_symmetry_Int_Tables_number   1
_chemical_formula_structural   Fe7Ni47
_chemical_formula_sum   'Fe7 Ni47'
_cell_volume   581.41101198
_cell_formula_units_Z   1
loop_
 _symmetry_equiv_pos_site_id
 _symmetry_equiv_pos_as_xyz
  1  'x, y, z'
loop_
 _atom_site_type_symbol
 _atom_site_label
 _atom_site_symmetry_multiplicity
 _atom_site_fract_x
 _atom_site_fract_y
 _atom_site_fract_z
 _atom_site_occupancy
  Ni  Ni0  1  0.00292016  0.00224623  0.00215701  1
  Fe  Fe1  1  0.16851075  0.16792347  0.16857151  1
  Ni  Ni2  1  0.00310465  0.00246845  0.33559056  1
  Ni  Ni3  1  1.00117018  0.33474586  0.00210740  1
  Fe  Fe4  1  0.16856529  0.50289819  0.16807762  1
  Ni  Ni5  1  1.00045175  0.33460840  0.33524920  1
  Ni  Ni6  1  1.00150999  0.66932747  0.00244147  1
  Ni  Ni7  1  0.16896701  0.83515794  0.16892093  1
  Ni  Ni8  1  1.00163854  0.66924178  0.33520073  1
  Ni  Ni9  1  0.33486458  1.00196164  1.00187346  1
  Ni  Ni10  1  0.50198729  0.16951568  0.16887691  1
  Ni  Ni11  1  0.33486485  1.00134696  0.33553334  1
  Ni  Ni12  1  0.33633291  0.33475195  0.00261708  1
  Ni  Ni13  1  0.50237335  0.50174410  0.16909825  1
  Fe  Fe14  1  0.33546754  0.33541354  0.33544026  1
  Ni  Ni15  1  0.33627967  0.66960565  0.00215737  1
  Ni  Ni16  1  0.50080682  0.83506100  0.16891963  1
  Ni  Ni17  1  0.33627230  0.67042857  0.33515206  1
  Fe  Fe18  1  0.66877694  0.00216391  1.00167750  1
  Ni  Ni19  1  0.83541410  0.16985344  0.16920473  1
  Fe  Fe20  1  0.66920811  1.00167234  0.33593096  1
  Ni  Ni21  1  0.66881627  0.33616147  1.00192310  1
  Ni  Ni22  1  0.83531698  0.50169266  0.16863641  1
  Ni  Ni23  1  0.66953297  0.33601612  0.33543752  1
  Ni  Ni24  1  0.66853072  0.66785670  0.00226407  1
  Ni  Ni25  1  0.83654910  0.83477269  0.16925983  1
  Ni  Ni26  1  0.66841149  0.66777521  0.33538008  1
  Ni  Ni27  1  0.16913554  0.16846381  0.50183039  1
  Ni  Ni28  1  0.00239916  0.00234965  0.66857166  1
  Ni  Ni29  1  0.16901605  0.16896657  0.83561726  1
  Fe  Fe30  1  0.16798193  0.50231623  0.50279956  1
  Ni  Ni31  1  1.00149560  0.33482167  0.66896245  1
  Ni  Ni32  1  0.16873078  0.50214968  0.83544986  1
  Ni  Ni33  1  0.16918833  0.83560552  0.50229090  1
  Ni  Ni34  1  1.00177379  0.66914940  0.66867845  1
  Ni  Ni35  1  0.16900922  0.83520473  0.83510898  1
  Ni  Ni36  1  0.50145971  0.16879930  0.50210130  1
  Ni  Ni37  1  0.33534161  1.00206423  0.66891236  1
  Ni  Ni38  1  0.50158000  0.16930037  0.83534291  1
  Fe  Fe39  1  0.50289736  0.50237072  0.50225325  1
  Ni  Ni40  1  0.33590835  0.33476902  0.66850201  1
  Ni  Ni41  1  0.50191394  0.50186439  0.83516938  1
  Ni  Ni42  1  0.50112135  0.83555951  0.50177293  1
  Ni  Ni43  1  0.33591439  0.66948860  0.66901177  1
  Ni  Ni44  1  0.50130075  0.83515579  0.83562713  1
  Ni  Ni45  1  0.83572524  0.16997953  0.50205772  1
  Ni  Ni46  1  0.66857976  0.00234262  0.66857170  1
  Ni  Ni47  1  0.83572503  0.16958005  0.83505761  1
  Ni  Ni48  1  0.83567872  0.50191308  0.50200632  1
  Ni  Ni49  1  0.66891777  0.33539469  0.66896098  1
  Ni  Ni50  1  0.83567580  0.50187122  0.83567776  1
  Ni  Ni51  1  0.83601275  0.83442614  0.50171839  1
  Ni  Ni52  1  0.66863330  0.66858425  0.66867773  1
  Ni  Ni53  1  0.83601102  0.83486936  0.83534184  1
" 