3073,Ni13Fe87_0,-242.480807848535, 199.597144594815,Ni13Fe87,"# generated using pymatgen
 data_Fe7Ni47
_symmetry_space_group_name_H-M   'P 1'
_cell_length_a   7.43485962
_cell_length_b   7.43485962
_cell_length_c   10.51447931
_cell_angle_alpha   90.00000000
_cell_angle_beta   90.00000000
_cell_angle_gamma   90.00000000
_symmetry_Int_Tables_number   1
_chemical_formula_structural   Fe7Ni47
_chemical_formula_sum   'Fe7 Ni47'
_cell_volume   581.21031865
_cell_formula_units_Z   1
loop_
 _symmetry_equiv_pos_site_id
 _symmetry_equiv_pos_as_xyz
  1  'x, y, z'
loop_
 _atom_site_type_symbol
 _atom_site_label
 _atom_site_symmetry_multiplicity
 _atom_site_fract_x
 _atom_site_fract_y
 _atom_site_fract_z
 _atom_site_occupancy
  Ni  Ni0  1  0.00273496  0.00221974  0.00216847  1
  Ni  Ni1  1  0.16883038  0.16888039  0.16920368  1
  Ni  Ni2  1  1.00149832  1.00148526  0.33539277  1
  Ni  Ni3  1  1.00187670  0.33475215  0.00298147  1
  Ni  Ni4  1  0.16919909  0.50247578  0.16943088  1
  Fe  Fe5  1  1.00162608  0.33546129  0.33493197  1
  Ni  Ni6  1  1.00181981  0.66952311  0.00247884  1
  Ni  Ni7  1  0.16846316  0.83513736  0.16838505  1
  Ni  Ni8  1  0.00240952  0.67049208  0.33497920  1
  Ni  Ni9  1  0.33462082  0.00252471  0.00303489  1
  Ni  Ni10  1  0.50190700  0.16930433  0.16898972  1
  Fe  Fe11  1  0.33574357  1.00191121  0.33521816  1
  Ni  Ni12  1  0.33608958  0.33505527  1.00211692  1
  Ni  Ni13  1  0.50190584  0.50241932  0.16837015  1
  Ni  Ni14  1  0.33653957  0.33581149  0.33503095  1
  Ni  Ni15  1  0.33584415  0.66891529  0.00247987  1
  Ni  Ni16  1  0.50221904  0.83476641  0.16991615  1
  Ni  Ni17  1  0.33525224  0.66790996  0.33498568  1
  Fe  Fe18  1  0.66876328  1.00209710  0.00216605  1
  Ni  Ni19  1  0.83575563  0.16856728  0.16898993  1
  Ni  Ni20  1  0.67012497  0.00277281  0.33484804  1
  Ni  Ni21  1  0.66852781  0.33597089  0.00236444  1
  Ni  Ni22  1  0.83538679  0.50278909  0.16924499  1
  Ni  Ni23  1  0.66754358  0.33489881  0.33534095  1
  Ni  Ni24  1  0.66883130  0.66805260  0.00273811  1
  Ni  Ni25  1  0.83581242  0.83513889  0.16904109  1
  Ni  Ni26  1  0.66883162  0.66882474  0.33529677  1
  Ni  Ni27  1  0.16883061  0.16815217  0.50231467  1
  Ni  Ni28  1  1.00206043  0.00226541  0.66893342  1
  Ni  Ni29  1  0.16883135  0.16955943  0.83497458  1
  Fe  Fe30  1  0.16921630  0.50197413  0.50244914  1
  Ni  Ni31  1  1.00211510  0.33476582  0.66847408  1
  Ni  Ni32  1  0.16913485  0.50168811  0.83479375  1
  Ni  Ni33  1  0.16754551  0.83561711  0.50282366  1
  Ni  Ni34  1  1.00205869  0.66945902  0.66903620  1
  Fe  Fe35  1  0.16889952  0.83550443  0.83543346  1
  Ni  Ni36  1  0.50201657  0.17036200  0.50258028  1
  Ni  Ni37  1  0.33523332  0.00263720  0.66805930  1
  Ni  Ni38  1  0.50155371  0.16900077  0.83492180  1
  Ni  Ni39  1  0.50195196  0.50175353  0.50252892  1
  Ni  Ni40  1  0.33591385  0.33513801  0.66934612  1
  Ni  Ni41  1  0.50162021  0.50261320  0.83559578  1
  Fe  Fe42  1  0.50239300  0.83628702  0.50250708  1
  Ni  Ni43  1  0.33560277  0.66872289  0.66903153  1
  Ni  Ni44  1  0.50278543  0.83487856  0.83436648  1
  Ni  Ni45  1  0.83564743  0.16777525  0.50257949  1
  Ni  Ni46  1  0.66920203  0.00258021  0.66921947  1
  Ni  Ni47  1  0.83610767  0.16839271  0.83492312  1
  Fe  Fe48  1  0.83517385  0.50191323  0.50244414  1
  Ni  Ni49  1  0.66846487  0.33513892  0.66878779  1
  Ni  Ni50  1  0.83573880  0.50291625  0.83473091  1
  Ni  Ni51  1  0.83661933  0.83567806  0.50221829  1
  Ni  Ni52  1  0.66883347  0.66877755  0.66846025  1
  Ni  Ni53  1  0.83518413  0.83518369  0.83523307  1
" 