2504,Ni13Fe87_14,-242.258000876027, 199.582653000113,Ni13Fe87,"# generated using pymatgen
 data_Fe7Ni47
_symmetry_space_group_name_H-M   'P 1'
_cell_length_a   7.43349989
_cell_length_b   7.43349989
_cell_length_c   10.51255636
_cell_angle_alpha   90.00000000
_cell_angle_beta   90.00000000
_cell_angle_gamma   90.00000000
_symmetry_Int_Tables_number   1
_chemical_formula_structural   Fe7Ni47
_chemical_formula_sum   'Fe7 Ni47'
_cell_volume   580.89149261
_cell_formula_units_Z   1
loop_
 _symmetry_equiv_pos_site_id
 _symmetry_equiv_pos_as_xyz
  1  'x, y, z'
loop_
 _atom_site_type_symbol
 _atom_site_label
 _atom_site_symmetry_multiplicity
 _atom_site_fract_x
 _atom_site_fract_y
 _atom_site_fract_z
 _atom_site_occupancy
  Ni  Ni0  1  0.00230955  1.00197580  1.00207548  1
  Ni  Ni1  1  0.16883529  0.16906598  0.16863411  1
  Ni  Ni2  1  1.00216580  1.00145608  0.33586523  1
  Ni  Ni3  1  1.00201924  0.33554299  0.00232861  1
  Ni  Ni4  1  0.16769911  0.50257060  0.16863396  1
  Fe  Fe5  1  1.00219529  0.33564833  0.33547538  1
  Ni  Ni6  1  0.00230596  0.66925387  1.00201705  1
  Ni  Ni7  1  0.16962949  0.83513365  0.16839464  1
  Ni  Ni8  1  1.00216192  0.66977473  0.33592393  1
  Ni  Ni9  1  0.33549515  1.00225623  1.00223995  1
  Ni  Ni10  1  0.50290141  0.16797474  0.16868196  1
  Ni  Ni11  1  0.33527578  0.00251587  0.33588070  1
  Ni  Ni12  1  0.33601487  0.33549168  1.00174784  1
  Fe  Fe13  1  0.50181516  0.50171111  0.16892272  1
  Ni  Ni14  1  0.33663909  0.33548932  0.33615398  1
  Ni  Ni15  1  0.33544626  0.66901789  1.00219720  1
  Ni  Ni16  1  0.50208642  0.83625217  0.16845758  1
  Ni  Ni17  1  0.33522382  0.66876033  0.33592606  1
  Ni  Ni18  1  0.66897128  0.00254494  1.00207731  1
  Ni  Ni19  1  0.83503327  0.16990347  0.16841287  1
  Ni  Ni20  1  0.66933252  0.00286397  0.33614713  1
  Ni  Ni21  1  0.66873049  0.33549367  0.00234938  1
  Ni  Ni22  1  0.83614860  0.50175103  0.16841235  1
  Ni  Ni23  1  0.66832172  0.33549462  0.33563724  1
  Ni  Ni24  1  0.66901780  0.66873018  1.00204658  1
  Fe  Fe25  1  0.83613390  0.83608406  0.16886436  1
  Ni  Ni26  1  0.66938403  0.66841102  0.33618291  1
  Ni  Ni27  1  0.16882791  0.16911340  0.50202474  1
  Ni  Ni28  1  0.00259925  1.00164766  0.66882707  1
  Ni  Ni29  1  0.16913081  0.16943227  0.83610447  1
  Ni  Ni30  1  0.16854228  0.50230413  0.50231111  1
  Ni  Ni31  1  1.00153870  0.33558700  0.66827458  1
  Ni  Ni32  1  0.16884047  0.50198476  0.83581760  1
  Ni  Ni33  1  0.16878094  0.83535284  0.50249378  1
  Ni  Ni34  1  0.00259638  0.66953403  0.66882996  1
  Ni  Ni35  1  0.16830432  0.83535279  0.83588056  1
  Ni  Ni36  1  0.50254259  0.16892004  0.50216607  1
  Ni  Ni37  1  0.33513392  1.00199657  0.66864819  1
  Ni  Ni38  1  0.50214480  0.16918161  0.83592407  1
  Ni  Ni39  1  0.50254278  0.50220988  0.50165596  1
  Ni  Ni40  1  0.33655695  0.33559713  0.66887145  1
  Ni  Ni41  1  0.50214088  0.50194769  0.83643456  1
  Ni  Ni42  1  0.50249063  0.83563940  0.50262926  1
  Ni  Ni43  1  0.33514600  0.66917594  0.66864812  1
  Ni  Ni44  1  0.50292443  0.83563986  0.83568565  1
  Ni  Ni45  1  0.83539857  0.16915997  0.50242998  1
  Fe  Fe46  1  0.66872936  0.00251366  0.66872431  1
  Fe  Fe47  1  0.83579556  0.16860525  0.83584525  1
  Ni  Ni48  1  0.83568490  0.50225756  0.50271672  1
  Ni  Ni49  1  0.66867177  0.33559720  0.66878588  1
  Fe  Fe50  1  0.83573624  0.50256923  0.83590383  1
  Ni  Ni51  1  0.83549621  0.83535294  0.50132601  1
  Fe  Fe52  1  0.66872133  0.66866110  0.66872530  1
  Ni  Ni53  1  0.83554099  0.83534995  0.83648122  1
" 