6614,Ni13Fe87_8,-241.981002599887, 197.146901403339,Ni13Fe87,"# generated using pymatgen
 data_Fe7Ni47
_symmetry_space_group_name_H-M   'P 1'
_cell_length_a   7.43197170
_cell_length_b   7.43197170
_cell_length_c   10.51039517
_cell_angle_alpha   90.00000000
_cell_angle_beta   90.00000000
_cell_angle_gamma   90.00000000
_symmetry_Int_Tables_number   1
_chemical_formula_structural   Fe7Ni47
_chemical_formula_sum   'Fe7 Ni47'
_cell_volume   580.53330320
_cell_formula_units_Z   1
loop_
 _symmetry_equiv_pos_site_id
 _symmetry_equiv_pos_as_xyz
  1  'x, y, z'
loop_
 _atom_site_type_symbol
 _atom_site_label
 _atom_site_symmetry_multiplicity
 _atom_site_fract_x
 _atom_site_fract_y
 _atom_site_fract_z
 _atom_site_occupancy
  Ni  Ni0  1  0.00310436  1.00169454  1.00195145  1
  Fe  Fe1  1  0.16908870  0.16940093  0.16890594  1
  Ni  Ni2  1  0.00293607  1.00185649  0.33594881  1
  Ni  Ni3  1  1.00166290  0.33579068  1.00226601  1
  Ni  Ni4  1  0.16891750  0.50218565  0.16918247  1
  Ni  Ni5  1  1.00146788  0.33555143  0.33558145  1
  Ni  Ni6  1  1.00072268  0.66959352  0.00261818  1
  Fe  Fe7  1  0.16875618  0.83554206  0.16981772  1
  Ni  Ni8  1  1.00148120  0.66966990  0.33559446  1
  Ni  Ni9  1  0.33547743  0.00285911  1.00194974  1
  Ni  Ni10  1  0.50220122  0.16846177  0.16882781  1
  Ni  Ni11  1  0.33538153  1.00216086  0.33625756  1
  Ni  Ni12  1  0.33687730  0.33456426  1.00226555  1
  Ni  Ni13  1  0.50115520  0.50252677  0.16886340  1
  Ni  Ni14  1  0.33683775  0.33524733  0.33589067  1
  Fe  Fe15  1  0.33567582  0.66795741  0.00236024  1
  Ni  Ni16  1  0.50257262  0.83608496  0.16915024  1
  Ni  Ni17  1  0.33651588  0.66967133  0.33504368  1
  Fe  Fe18  1  0.66956253  0.00277265  1.00183538  1
  Ni  Ni19  1  0.83591773  0.16847419  0.16875140  1
  Fe  Fe20  1  0.66903394  1.00232040  0.33616079  1
  Ni  Ni21  1  0.66854307  0.33695811  1.00230589  1
  Ni  Ni22  1  0.83699319  0.50257621  0.16882629  1
  Ni  Ni23  1  0.66877484  0.33671252  0.33546332  1
  Ni  Ni24  1  0.66971423  0.66817626  1.00183802  1
  Ni  Ni25  1  0.83557114  0.83603665  0.16913723  1
  Ni  Ni26  1  0.66908096  0.66820004  0.33632234  1
  Ni  Ni27  1  0.16901359  0.16919788  0.50194536  1
  Ni  Ni28  1  1.00215371  1.00173441  0.66917545  1
  Ni  Ni29  1  0.16897872  0.16985999  0.83600127  1
  Ni  Ni30  1  0.16904094  0.50227103  0.50232939  1
  Ni  Ni31  1  1.00157657  0.33591213  0.66922708  1
  Ni  Ni32  1  0.16891193  0.50148866  0.83556154  1
  Ni  Ni33  1  0.16904021  0.83561166  0.50241084  1
  Ni  Ni34  1  0.00240499  0.66943525  0.66887070  1
  Fe  Fe35  1  0.16875056  0.83601654  0.83495583  1
  Ni  Ni36  1  0.50177988  0.16861982  0.50246211  1
  Ni  Ni37  1  0.33614924  1.00204017  0.66886913  1
  Ni  Ni38  1  0.50158430  0.16838714  0.83579230  1
  Ni  Ni39  1  0.50143290  0.50252974  0.50206727  1
  Ni  Ni40  1  0.33672816  0.33560581  0.66891920  1
  Ni  Ni41  1  0.50131244  0.50264041  0.83614783  1
  Ni  Ni42  1  0.50201167  0.83593543  0.50211285  1
  Ni  Ni43  1  0.33558611  0.66943695  0.66942365  1
  Ni  Ni44  1  0.50277275  0.83605031  0.83581926  1
  Ni  Ni45  1  0.83628808  0.16862265  0.50246499  1
  Ni  Ni46  1  0.66877496  0.00287749  0.66922639  1
  Ni  Ni47  1  0.83652666  0.16839649  0.83586535  1
  Ni  Ni48  1  0.83660423  0.50250402  0.50206843  1
  Ni  Ni49  1  0.66877442  0.33536176  0.66930993  1
  Ni  Ni50  1  0.83684118  0.50269660  0.83618954  1
  Ni  Ni51  1  0.83602797  0.83595827  0.50211699  1
  Fe  Fe52  1  0.66896565  0.66919435  0.66914692  1
  Ni  Ni53  1  0.83537345  0.83599814  0.83583346  1
" 