8003,Ni13Fe87_6,-242.366727966101, 199.407002797391,Ni13Fe87,"# generated using pymatgen
 data_Fe7Ni47
_symmetry_space_group_name_H-M   'P 1'
_cell_length_a   7.43432340
_cell_length_b   7.43432340
_cell_length_c   10.51372097
_cell_angle_alpha   90.00000000
_cell_angle_beta   90.00000000
_cell_angle_gamma   90.00000000
_symmetry_Int_Tables_number   1
_chemical_formula_structural   Fe7Ni47
_chemical_formula_sum   'Fe7 Ni47'
_cell_volume   581.08457264
_cell_formula_units_Z   1
loop_
 _symmetry_equiv_pos_site_id
 _symmetry_equiv_pos_as_xyz
  1  'x, y, z'
loop_
 _atom_site_type_symbol
 _atom_site_label
 _atom_site_symmetry_multiplicity
 _atom_site_fract_x
 _atom_site_fract_y
 _atom_site_fract_z
 _atom_site_occupancy
  Ni  Ni0  1  0.00264676  1.00210183  1.00199288  1
  Ni  Ni1  1  0.16958251  0.16942033  0.16872611  1
  Ni  Ni2  1  0.00262422  0.00235814  0.33571030  1
  Ni  Ni3  1  0.00244243  0.33612751  0.00237028  1
  Ni  Ni4  1  0.16921705  0.50186671  0.16901736  1
  Ni  Ni5  1  0.00235911  0.33573508  0.33520770  1
  Ni  Ni6  1  1.00149015  0.66837448  1.00194027  1
  Fe  Fe7  1  0.16800758  0.83588108  0.16961809  1
  Ni  Ni8  1  0.00230213  0.66851253  0.33594741  1
  Ni  Ni9  1  0.33573315  0.00306352  0.00225673  1
  Ni  Ni10  1  0.50153981  0.16879208  0.16866134  1
  Ni  Ni11  1  0.33547271  0.00241297  0.33568733  1
  Ni  Ni12  1  0.33569298  0.33491363  1.00174353  1
  Ni  Ni13  1  0.50128330  0.50185734  0.16895154  1
  Ni  Ni14  1  0.33542851  0.33537089  0.33609376  1
  Fe  Fe15  1  0.33575038  0.66796191  1.00179483  1
  Fe  Fe16  1  0.50299713  0.83575110  0.16914692  1
  Ni  Ni17  1  0.33542763  0.66882198  0.33508381  1
  Ni  Ni18  1  0.66822168  1.00210949  1.00189609  1
  Ni  Ni19  1  0.83548123  0.16786970  0.16890112  1
  Ni  Ni20  1  0.66850497  0.00235419  0.33563645  1
  Ni  Ni21  1  0.66846516  0.33608656  0.00225086  1
  Ni  Ni22  1  0.83610075  0.50315109  0.16835100  1
  Ni  Ni23  1  0.66881955  0.33568942  0.33515503  1
  Ni  Ni24  1  0.66942835  0.66840403  1.00182519  1
  Ni  Ni25  1  0.83548048  0.83558178  0.16897010  1
  Ni  Ni26  1  0.66887638  0.66855841  0.33589543  1
  Ni  Ni27  1  0.16951410  0.16911154  0.50234647  1
  Ni  Ni28  1  0.00274901  0.00244376  0.66890250  1
  Fe  Fe29  1  0.16864003  0.16909507  0.83593858  1
  Ni  Ni30  1  0.16831450  0.50251525  0.50179107  1
  Ni  Ni31  1  1.00157486  0.33584394  0.66902891  1
  Ni  Ni32  1  0.16886005  0.50240541  0.83579284  1
  Ni  Ni33  1  0.16927121  0.83497767  0.50214830  1
  Ni  Ni34  1  0.00249648  0.66831626  0.66871326  1
  Fe  Fe35  1  0.16870373  0.83525139  0.83472136  1
  Ni  Ni36  1  0.50184659  0.16757732  0.50210279  1
  Ni  Ni37  1  0.33569711  1.00152040  0.66866542  1
  Ni  Ni38  1  0.50231943  0.16801120  0.83584115  1
  Fe  Fe39  1  0.50248808  0.50254552  0.50185855  1
  Fe  Fe40  1  0.33547168  0.33559592  0.66899077  1
  Ni  Ni41  1  0.50116244  0.50240236  0.83523712  1
  Ni  Ni42  1  0.50208960  0.83650847  0.50190398  1
  Ni  Ni43  1  0.33559059  0.66960479  0.66931063  1
  Ni  Ni44  1  0.50263386  0.83618652  0.83599049  1
  Ni  Ni45  1  0.83524213  0.16854486  0.50183798  1
  Ni  Ni46  1  0.66815531  0.00243720  0.66907502  1
  Ni  Ni47  1  0.83504044  0.16806545  0.83586392  1
  Ni  Ni48  1  0.83678527  0.50275788  0.50214822  1
  Ni  Ni49  1  0.66944403  0.33573700  0.66919125  1
  Ni  Ni50  1  0.83657580  0.50271479  0.83610331  1
  Ni  Ni51  1  0.83524142  0.83530061  0.50252768  1
  Ni  Ni52  1  0.66851883  0.66842820  0.66888020  1
  Ni  Ni53  1  0.83504527  0.83582133  0.83510471  1
" 