769,Ni13Fe87_4,-242.40046440736, 199.959907992243,Ni13Fe87,"# generated using pymatgen
 data_Fe7Ni47
_symmetry_space_group_name_H-M   'P 1'
_cell_length_a   7.43498228
_cell_length_b   7.43498228
_cell_length_c   10.51465277
_cell_angle_alpha   90.00000000
_cell_angle_beta   90.00000000
_cell_angle_gamma   90.00000000
_symmetry_Int_Tables_number   1
_chemical_formula_structural   Fe7Ni47
_chemical_formula_sum   'Fe7 Ni47'
_cell_volume   581.23908577
_cell_formula_units_Z   1
loop_
 _symmetry_equiv_pos_site_id
 _symmetry_equiv_pos_as_xyz
  1  'x, y, z'
loop_
 _atom_site_type_symbol
 _atom_site_label
 _atom_site_symmetry_multiplicity
 _atom_site_fract_x
 _atom_site_fract_y
 _atom_site_fract_z
 _atom_site_occupancy
  Ni  Ni0  1  0.00280501  0.00256299  0.00276714  1
  Ni  Ni1  1  0.16849270  0.16820176  0.16872759  1
  Fe  Fe2  1  0.00247322  1.00189332  0.33528440  1
  Ni  Ni3  1  1.00163316  0.33563899  0.00271602  1
  Ni  Ni4  1  0.16815356  0.50258643  0.16899900  1
  Fe  Fe5  1  1.00189213  0.33574946  0.33522795  1
  Ni  Ni6  1  0.00275753  0.66826755  0.00220869  1
  Ni  Ni7  1  0.16877728  0.83568008  0.16844409  1
  Ni  Ni8  1  0.00239319  0.66858710  0.33506178  1
  Ni  Ni9  1  0.33530255  1.00172559  0.00244495  1
  Ni  Ni10  1  0.50244202  0.16848886  0.16910761  1
  Ni  Ni11  1  0.33574597  0.00261096  0.33544065  1
  Fe  Fe12  1  0.33543257  0.33543433  1.00215370  1
  Ni  Ni13  1  0.50301452  0.50253550  0.16859492  1
  Ni  Ni14  1  0.33580201  0.33493246  0.33493727  1
  Ni  Ni15  1  0.33500890  0.66944421  0.00267392  1
  Ni  Ni16  1  0.50210460  0.83544500  0.16883246  1
  Ni  Ni17  1  0.33467145  0.66892340  0.33539114  1
  Ni  Ni18  1  0.66836126  0.00284988  0.00254498  1
  Ni  Ni19  1  0.83553401  0.16911136  0.16845672  1
  Ni  Ni20  1  0.66828124  0.00295437  0.33515994  1
  Ni  Ni21  1  0.66954164  0.33534627  0.00249309  1
  Ni  Ni22  1  0.83530020  0.50224914  0.16872829  1
  Ni  Ni23  1  0.66861689  0.33498180  0.33544058  1
  Ni  Ni24  1  0.66870253  0.66827327  0.00278032  1
  Ni  Ni25  1  0.83558740  0.83510835  0.16895665  1
  Ni  Ni26  1  0.66940576  0.66853558  0.33510536  1
  Ni  Ni27  1  0.16837317  0.16745594  0.50254061  1
  Ni  Ni28  1  0.00263438  0.00243795  0.66859920  1
  Ni  Ni29  1  0.16868944  0.16798068  0.83520026  1
  Fe  Fe30  1  0.16952260  0.50192292  0.50235976  1
  Ni  Ni31  1  0.00219813  0.33553812  0.66835920  1
  Ni  Ni32  1  0.16756756  0.50248720  0.83469113  1
  Ni  Ni33  1  0.16943986  0.83629848  0.50249304  1
  Ni  Ni34  1  0.00253148  0.66849355  0.66919780  1
  Ni  Ni35  1  0.16903378  0.83600135  0.83553347  1
  Ni  Ni36  1  0.50234078  0.16858996  0.50244515  1
  Ni  Ni37  1  0.33534523  0.00239083  0.66858374  1
  Ni  Ni38  1  0.50204004  0.16826679  0.83491457  1
  Ni  Ni39  1  0.50376391  0.50265444  0.50267393  1
  Ni  Ni40  1  0.33539819  0.33519812  0.66914113  1
  Ni  Ni41  1  0.50345751  0.50249410  0.83519942  1
  Ni  Ni42  1  0.50121356  0.83522471  0.50238846  1
  Ni  Ni43  1  0.33511011  0.66887815  0.66840238  1
  Ni  Ni44  1  0.50170185  0.83570841  0.83524815  1
  Ni  Ni45  1  0.83575446  0.17000483  0.50276474  1
  Ni  Ni46  1  0.66848685  0.00272700  0.66876689  1
  Fe  Fe47  1  0.83549269  0.16934914  0.83548812  1
  Ni  Ni48  1  0.83468501  0.50158700  0.50220664  1
  Ni  Ni49  1  0.66887561  0.33530229  0.66853706  1
  Ni  Ni50  1  0.83544417  0.50214898  0.83553365  1
  Fe  Fe51  1  0.83479388  0.83577677  0.50192754  1
  Ni  Ni52  1  0.66882866  0.66844250  0.66858553  1
  Fe  Fe53  1  0.83548844  0.83496649  0.83598387  1
" 