1611,Ni14Fe12Cr73_0,-209.127008676553, 178.927129155032,Ni14Fe12Cr73,"# generated using pymatgen
 data_Cr41Fe6Ni7
_symmetry_space_group_name_H-M   'P 1'
_cell_length_a   7.57129211
_cell_length_b   7.57129211
_cell_length_c   10.70742398
_cell_angle_alpha   90.00000000
_cell_angle_beta   90.00000000
_cell_angle_gamma   90.00000000
_symmetry_Int_Tables_number   1
_chemical_formula_structural   Cr41Fe6Ni7
_chemical_formula_sum   'Cr41 Fe6 Ni7'
_cell_volume   613.79734229
_cell_formula_units_Z   1
loop_
 _symmetry_equiv_pos_site_id
 _symmetry_equiv_pos_as_xyz
  1  'x, y, z'
loop_
 _atom_site_type_symbol
 _atom_site_label
 _atom_site_symmetry_multiplicity
 _atom_site_fract_x
 _atom_site_fract_y
 _atom_site_fract_z
 _atom_site_occupancy
  Fe  Fe0  1  -0.00461246  -0.00392598  -0.00582804  1
  Ni  Ni1  1  0.16302717  0.16095845  0.15923465  1
  Cr  Cr2  1  -0.00549950  -0.00601922  0.32498634  1
  Ni  Ni3  1  -0.00297716  0.32465423  0.99302194  1
  Cr  Cr4  1  0.16138188  0.48913654  0.15948655  1
  Cr  Cr5  1  0.99274138  0.32637227  0.32679824  1
  Cr  Cr6  1  -0.00563056  0.65876344  -0.00579416  1
  Cr  Cr7  1  0.16099516  0.83123144  0.16111682  1
  Cr  Cr8  1  -0.00624772  0.65919760  0.32643012  1
  Cr  Cr9  1  0.32697338  -0.00531520  -0.00560666  1
  Fe  Fe10  1  0.48926653  0.16051484  0.15967044  1
  Ni  Ni11  1  0.32780891  0.00001195  0.32533425  1
  Ni  Ni12  1  0.32116241  0.32327610  -0.00506743  1
  Cr  Cr13  1  0.49095356  0.49156989  0.15925378  1
  Fe  Fe14  1  0.32640227  0.32309274  0.32501301  1
  Cr  Cr15  1  0.32358870  0.65895347  0.98868881  1
  Cr  Cr16  1  0.49187008  0.82556985  0.15992738  1
  Cr  Cr17  1  0.32416529  0.66214932  0.32721505  1
  Cr  Cr18  1  0.65885480  -0.00500078  -0.00591664  1
  Cr  Cr19  1  0.83205416  0.16038468  0.15620641  1
  Cr  Cr20  1  0.65675472  -0.00356051  0.32569162  1
  Cr  Cr21  1  0.65895198  0.32395722  -0.00530359  1
  Cr  Cr22  1  0.82598606  0.49147139  0.16013472  1
  Cr  Cr23  1  0.65795210  0.32272348  0.32626084  1
  Cr  Cr24  1  0.66069932  0.66006757  -0.00664630  1
  Cr  Cr25  1  0.82661122  0.82826787  0.15890080  1
  Cr  Cr26  1  0.66141419  0.65927279  0.32544554  1
  Cr  Cr27  1  0.15986228  0.15981957  0.49262908  1
  Fe  Fe28  1  0.99276891  -0.00620515  0.65968856  1
  Cr  Cr29  1  0.15742805  0.16174147  0.82757691  1
  Cr  Cr30  1  0.16108877  0.48952208  0.49272421  1
  Ni  Ni31  1  -0.00602990  0.32562731  0.66108097  1
  Fe  Fe32  1  0.15732643  0.48978903  0.82777596  1
  Cr  Cr33  1  0.16091254  0.82988674  0.49140183  1
  Cr  Cr34  1  -0.00555776  0.65761632  0.65874818  1
  Cr  Cr35  1  0.15815438  0.83113719  0.82639448  1
  Fe  Fe36  1  0.49247293  0.15838071  0.49328663  1
  Cr  Cr37  1  0.32826076  -0.00607818  0.65870875  1
  Cr  Cr38  1  0.49213766  0.16039195  0.82668211  1
  Cr  Cr39  1  0.49263465  0.49276923  0.49247674  1
  Cr  Cr40  1  0.32477653  0.32571900  0.66035678  1
  Cr  Cr41  1  0.49142221  0.49261405  0.82775732  1
  Cr  Cr42  1  0.49331819  0.82605112  0.49442681  1
  Cr  Cr43  1  0.32436325  0.65943901  0.66332796  1
  Cr  Cr44  1  0.49508733  0.82571004  0.82435178  1
  Cr  Cr45  1  0.82833475  0.15894052  0.49806871  1
  Ni  Ni46  1  0.66034458  0.99254925  0.65892882  1
  Cr  Cr47  1  0.82986786  0.15906207  0.82528912  1
  Cr  Cr48  1  0.82518538  0.49190401  0.49321219  1
  Cr  Cr49  1  0.65992517  0.32417196  0.65854277  1
  Cr  Cr50  1  0.82618504  0.49110172  0.82624171  1
  Cr  Cr51  1  0.82544634  0.82803157  0.49456436  1
  Ni  Ni52  1  0.66151174  0.66172882  0.66000863  1
  Cr  Cr53  1  0.82637755  0.82905666  0.82534761  1
" 