3759,Ni14Fe52Cr33_16,-223.419129481257, 180.466862093629,Ni14Fe52Cr33,"# generated using pymatgen
 data_Cr19(Fe4Ni)7
_symmetry_space_group_name_H-M   'P 1'
_cell_length_a   7.48774233
_cell_length_b   7.48774233
_cell_length_c   10.58926676
_cell_angle_alpha   90.00000000
_cell_angle_beta   90.00000000
_cell_angle_gamma   90.00000000
_symmetry_Int_Tables_number   1
_chemical_formula_structural   Cr19(Fe4Ni)7
_chemical_formula_sum   'Cr19 Fe28 Ni7'
_cell_volume   593.70085076
_cell_formula_units_Z   1
loop_
 _symmetry_equiv_pos_site_id
 _symmetry_equiv_pos_as_xyz
  1  'x, y, z'
loop_
 _atom_site_type_symbol
 _atom_site_label
 _atom_site_symmetry_multiplicity
 _atom_site_fract_x
 _atom_site_fract_y
 _atom_site_fract_z
 _atom_site_occupancy
  Fe  Fe0  1  -0.00079754  0.99683307  0.99829778  1
  Ni  Ni1  1  0.16465303  0.16565853  0.16744959  1
  Fe  Fe2  1  0.00017690  0.00033209  0.33136958  1
  Fe  Fe3  1  -0.00030458  0.33317685  -0.00000109  1
  Cr  Cr4  1  0.16628890  0.49874997  0.16642155  1
  Ni  Ni5  1  0.00092777  0.33259718  0.33180370  1
  Fe  Fe6  1  0.00110918  0.66586352  0.99631635  1
  Fe  Fe7  1  0.16469137  0.83396077  0.16675143  1
  Fe  Fe8  1  0.00013167  0.66417295  0.33191115  1
  Cr  Cr9  1  0.33111616  0.00034800  -0.00031708  1
  Fe  Fe10  1  0.49629813  0.16669790  0.16566584  1
  Fe  Fe11  1  0.32992535  0.00157836  0.33106606  1
  Fe  Fe12  1  0.33119683  0.33140246  0.99829625  1
  Cr  Cr13  1  0.49921943  0.49669544  0.16664052  1
  Fe  Fe14  1  0.33212254  0.32992898  0.33349912  1
  Fe  Fe15  1  0.32923024  0.66588440  0.99678557  1
  Cr  Cr16  1  0.49683619  0.83055579  0.16559310  1
  Fe  Fe17  1  0.32996136  0.66442757  0.33353729  1
  Fe  Fe18  1  0.66513160  -0.00118128  0.99558228  1
  Cr  Cr19  1  0.83294965  0.16605385  0.16522922  1
  Cr  Cr20  1  0.66247839  -0.00071872  0.33552421  1
  Fe  Fe21  1  0.66448859  0.32975570  0.99789054  1
  Fe  Fe22  1  0.83441436  0.49625944  0.16632417  1
  Fe  Fe23  1  0.66552896  0.33042542  0.33344650  1
  Cr  Cr24  1  0.66924771  0.66478992  0.99674368  1
  Cr  Cr25  1  0.83479204  0.83212883  0.16581233  1
  Cr  Cr26  1  0.66646189  0.66398961  0.33477714  1
  Cr  Cr27  1  0.16336965  0.16651303  0.49907020  1
  Fe  Fe28  1  0.99743181  0.99666293  0.66529266  1
  Cr  Cr29  1  0.16425188  0.16806150  0.82977934  1
  Fe  Fe30  1  0.16764350  0.49713623  0.49825313  1
  Fe  Fe31  1  0.00010814  0.33436264  0.66414873  1
  Fe  Fe32  1  0.16410422  0.50055520  0.83157774  1
  Cr  Cr33  1  0.16416015  0.83057066  0.49688368  1
  Fe  Fe34  1  0.00074044  0.66480577  0.66721217  1
  Fe  Fe35  1  0.16512742  0.83013895  0.83170914  1
  Ni  Ni36  1  0.49763140  0.16829611  0.49650497  1
  Cr  Cr37  1  0.33423964  0.00035001  0.66695290  1
  Ni  Ni38  1  0.49819267  0.16597998  0.83497874  1
  Fe  Fe39  1  0.49308385  0.49664436  0.49842015  1
  Ni  Ni40  1  0.32890707  0.33331112  0.66458543  1
  Cr  Cr41  1  0.49502686  0.49800596  0.83128772  1
  Fe  Fe42  1  0.49635735  0.83218507  0.49848430  1
  Fe  Fe43  1  0.33102637  0.66370965  0.66540063  1
  Ni  Ni44  1  0.49918134  0.83064117  0.83197456  1
  Fe  Fe45  1  0.83278000  0.16468322  0.49725869  1
  Cr  Cr46  1  0.66375002  0.99735588  0.66525615  1
  Cr  Cr47  1  0.83275847  0.16387101  0.83100533  1
  Cr  Cr48  1  0.83371109  0.49752115  0.49684736  1
  Cr  Cr49  1  0.66368050  0.33088565  0.66339466  1
  Fe  Fe50  1  0.83443335  0.49921982  0.83199373  1
  Fe  Fe51  1  0.83388564  0.83487976  0.49931203  1
  Cr  Cr52  1  0.66680415  0.66760612  0.66418930  1
  Ni  Ni53  1  0.83471394  0.83105750  0.83118682  1
" 