1741,Ni14Fe52Cr33_1,-222.856096947642, 167.21448704195,Ni14Fe52Cr33,"# generated using pymatgen
 data_Cr19(Fe4Ni)7
_symmetry_space_group_name_H-M   'P 1'
_cell_length_a   7.49410271
_cell_length_b   7.49410271
_cell_length_c   10.59826169
_cell_angle_alpha   90.00000000
_cell_angle_beta   90.00000000
_cell_angle_gamma   90.00000000
_symmetry_Int_Tables_number   1
_chemical_formula_structural   Cr19(Fe4Ni)7
_chemical_formula_sum   'Cr19 Fe28 Ni7'
_cell_volume   595.21507396
_cell_formula_units_Z   1
loop_
 _symmetry_equiv_pos_site_id
 _symmetry_equiv_pos_as_xyz
  1  'x, y, z'
loop_
 _atom_site_type_symbol
 _atom_site_label
 _atom_site_symmetry_multiplicity
 _atom_site_fract_x
 _atom_site_fract_y
 _atom_site_fract_z
 _atom_site_occupancy
  Ni  Ni0  1  0.99609848  0.00016185  0.00138003  1
  Fe  Fe1  1  0.16190697  0.16714491  0.16564945  1
  Fe  Fe2  1  0.99759125  0.00036235  0.33045253  1
  Fe  Fe3  1  -0.00081581  0.32915006  -0.00107406  1
  Fe  Fe4  1  0.16629058  0.49750734  0.16483119  1
  Fe  Fe5  1  0.00234520  0.32964995  0.33061283  1
  Cr  Cr6  1  0.99757880  0.66671192  0.99469702  1
  Fe  Fe7  1  0.16323338  0.83142818  0.16472174  1
  Cr  Cr8  1  -0.00042892  0.66710630  0.33513999  1
  Cr  Cr9  1  0.32928295  0.00037154  -0.00084692  1
  Fe  Fe10  1  0.49934420  0.16655109  0.16534022  1
  Cr  Cr11  1  0.32965491  0.00191754  0.33205480  1
  Fe  Fe12  1  0.32894532  0.33185817  0.00024941  1
  Fe  Fe13  1  0.49617127  0.49693635  0.16438356  1
  Fe  Fe14  1  0.33065679  0.33363131  0.33306858  1
  Ni  Ni15  1  0.33164722  0.66494983  0.00451676  1
  Fe  Fe16  1  0.49882131  0.83132925  0.16457937  1
  Fe  Fe17  1  0.33166529  0.66362095  0.32991219  1
  Fe  Fe18  1  0.66724110  0.99666294  -0.00004232  1
  Fe  Fe19  1  0.83195858  0.16247647  0.16616131  1
  Fe  Fe20  1  0.66528268  -0.00125856  0.32932699  1
  Cr  Cr21  1  0.66542648  0.32995701  0.99636865  1
  Cr  Cr22  1  0.83281679  0.49504697  0.16477091  1
  Fe  Fe23  1  0.66138621  0.32879114  0.33066219  1
  Fe  Fe24  1  0.66573928  0.66741739  -0.00072287  1
  Fe  Fe25  1  0.83189206  0.83363547  0.16502945  1
  Cr  Cr26  1  0.66480755  0.66334808  0.33163655  1
  Ni  Ni27  1  0.16414206  0.16618644  0.49856515  1
  Ni  Ni28  1  0.99657390  -0.00085186  0.66306977  1
  Cr  Cr29  1  0.16252794  0.16467056  0.83027124  1
  Fe  Fe30  1  0.16591418  0.49329397  0.49812379  1
  Fe  Fe31  1  0.99793757  0.33008389  0.66431216  1
  Cr  Cr32  1  0.16369842  0.49594899  0.83182037  1
  Cr  Cr33  1  0.16510503  0.83331960  0.50061637  1
  Fe  Fe34  1  0.99702627  0.66328142  0.66557498  1
  Cr  Cr35  1  0.16681868  0.83380278  0.82911989  1
  Fe  Fe36  1  0.49717064  0.16762296  0.49926252  1
  Fe  Fe37  1  0.33082531  0.00243418  0.66200743  1
  Cr  Cr38  1  0.49841962  0.16366793  0.82700278  1
  Fe  Fe39  1  0.49690262  0.49340100  0.49791766  1
  Ni  Ni40  1  0.33200690  0.32842652  0.66136836  1
  Cr  Cr41  1  0.49779469  0.49876619  0.83474636  1
  Cr  Cr42  1  0.49985702  0.83345005  0.49915950  1
  Cr  Cr43  1  0.33098210  0.66139907  0.66231923  1
  Cr  Cr44  1  0.49819111  0.83298144  0.83365474  1
  Cr  Cr45  1  0.83136095  0.16615520  0.49508339  1
  Fe  Fe46  1  0.66746285  0.00035607  0.66414021  1
  Fe  Fe47  1  0.83278352  0.16407427  0.82975924  1
  Cr  Cr48  1  0.83184715  0.49551984  0.49884914  1
  Ni  Ni49  1  0.66436964  0.33041054  0.66390302  1
  Ni  Ni50  1  0.83189669  0.49507142  0.83093779  1
  Fe  Fe51  1  0.83265556  0.83469493  0.49952574  1
  Cr  Cr52  1  0.66837376  0.66263433  0.66723951  1
  Fe  Fe53  1  0.83334090  0.83525748  0.83131511  1
" 