358,Ni14Fe86_10,-242.262076849673, 199.376081111434,Ni14Fe86,"# generated using pymatgen
 data_Fe7Ni47
_symmetry_space_group_name_H-M   'P 1'
_cell_length_a   7.43286557
_cell_length_b   7.43286557
_cell_length_c   10.51165930
_cell_angle_alpha   90.00000000
_cell_angle_beta   90.00000000
_cell_angle_gamma   90.00000000
_symmetry_Int_Tables_number   1
_chemical_formula_structural   Fe7Ni47
_chemical_formula_sum   'Fe7 Ni47'
_cell_volume   580.74279886
_cell_formula_units_Z   1
loop_
 _symmetry_equiv_pos_site_id
 _symmetry_equiv_pos_as_xyz
  1  'x, y, z'
loop_
 _atom_site_type_symbol
 _atom_site_label
 _atom_site_symmetry_multiplicity
 _atom_site_fract_x
 _atom_site_fract_y
 _atom_site_fract_z
 _atom_site_occupancy
  Fe  Fe0  1  0.00264137  0.00258024  1.00183626  1
  Ni  Ni1  1  0.16807437  0.16850671  0.16913430  1
  Ni  Ni2  1  1.00193787  1.00199174  0.33507905  1
  Ni  Ni3  1  0.00235703  0.33615723  0.00244058  1
  Ni  Ni4  1  0.16831451  0.50299591  0.16877456  1
  Ni  Ni5  1  1.00215843  0.33594560  0.33594243  1
  Ni  Ni6  1  0.00270959  0.66861280  1.00208082  1
  Ni  Ni7  1  0.16958614  0.83539756  0.16874511  1
  Ni  Ni8  1  0.00345215  0.66896222  0.33594580  1
  Ni  Ni9  1  0.33666607  1.00210270  1.00203337  1
  Ni  Ni10  1  0.50298490  0.16876634  0.16870705  1
  Ni  Ni11  1  0.33618561  1.00190386  0.33618460  1
  Ni  Ni12  1  0.33549955  0.33529824  0.00278724  1
  Ni  Ni13  1  0.50295036  0.50294197  0.16920505  1
  Ni  Ni14  1  0.33585717  0.33592592  0.33532254  1
  Ni  Ni15  1  0.33518743  0.66949309  0.00239502  1
  Ni  Ni16  1  0.50141251  0.83518364  0.16835876  1
  Ni  Ni17  1  0.33464572  0.66906809  0.33532235  1
  Ni  Ni18  1  0.66816162  0.00245104  1.00222721  1
  Ni  Ni19  1  0.83584132  0.17004473  0.16874493  1
  Ni  Ni20  1  0.66876832  0.00319496  0.33563336  1
  Ni  Ni21  1  0.66904625  0.33468668  1.00208504  1
  Ni  Ni22  1  0.83563155  0.50142712  0.16842233  1
  Ni  Ni23  1  0.66888201  0.33439490  0.33563286  1
  Ni  Ni24  1  0.66900591  0.66976632  0.00259187  1
  Fe  Fe25  1  0.83563418  0.83557344  0.16837028  1
  Fe  Fe26  1  0.66842973  0.66841512  0.33563414  1
  Ni  Ni27  1  0.16785184  0.16850968  0.50212867  1
  Ni  Ni28  1  1.00141285  1.00214548  0.66920679  1
  Ni  Ni29  1  0.16796793  0.16843487  0.83562855  1
  Ni  Ni30  1  0.16823733  0.50299546  0.50249129  1
  Ni  Ni31  1  0.00259254  0.33524882  0.66851609  1
  Fe  Fe32  1  0.16954049  0.50227810  0.83563281  1
  Ni  Ni33  1  0.16937207  0.83539358  0.50251665  1
  Ni  Ni34  1  0.00294635  0.66950610  0.66887711  1
  Ni  Ni35  1  0.16858677  0.83564872  0.83563103  1
  Ni  Ni36  1  0.50309510  0.16883584  0.50252096  1
  Fe  Fe37  1  0.33550414  1.00225300  0.66904446  1
  Ni  Ni38  1  0.50290056  0.16958974  0.83567731  1
  Ni  Ni39  1  0.50298891  0.50294011  0.50198317  1
  Ni  Ni40  1  0.33573535  0.33620600  0.66878752  1
  Ni  Ni41  1  0.50288199  0.50281987  0.83571007  1
  Ni  Ni42  1  0.50151850  0.83511575  0.50287106  1
  Ni  Ni43  1  0.33542288  0.66859218  0.66918005  1
  Ni  Ni44  1  0.50230347  0.83448930  0.83567609  1
  Ni  Ni45  1  0.83594712  0.16998268  0.50255613  1
  Ni  Ni46  1  0.66947635  0.00245402  0.66904089  1
  Ni  Ni47  1  0.83602692  0.16900557  0.83558511  1
  Ni  Ni48  1  0.83567051  0.50142788  0.50292124  1
  Ni  Ni49  1  0.66857664  0.33468910  0.66918187  1
  Fe  Fe50  1  0.83513381  0.50242872  0.83567817  1
  Fe  Fe51  1  0.83591078  0.83592258  0.50322163  1
  Ni  Ni52  1  0.66853514  0.66976279  0.66867616  1
  Ni  Ni53  1  0.83600880  0.83570269  0.83558896  1
" 