4806,Ni14Fe86_8,-242.164716597425, 198.322062083739,Ni14Fe86,"# generated using pymatgen
 data_Fe7Ni47
_symmetry_space_group_name_H-M   'P 1'
_cell_length_a   7.43331551
_cell_length_b   7.43331551
_cell_length_c   10.51229561
_cell_angle_alpha   90.00000000
_cell_angle_beta   90.00000000
_cell_angle_gamma   90.00000000
_symmetry_Int_Tables_number   1
_chemical_formula_structural   Fe7Ni47
_chemical_formula_sum   'Fe7 Ni47'
_cell_volume   580.84826918
_cell_formula_units_Z   1
loop_
 _symmetry_equiv_pos_site_id
 _symmetry_equiv_pos_as_xyz
  1  'x, y, z'
loop_
 _atom_site_type_symbol
 _atom_site_label
 _atom_site_symmetry_multiplicity
 _atom_site_fract_x
 _atom_site_fract_y
 _atom_site_fract_z
 _atom_site_occupancy
  Ni  Ni0  1  0.00380247  0.00275446  1.00186930  1
  Ni  Ni1  1  0.16903226  0.16887788  0.16857140  1
  Ni  Ni2  1  0.00272715  0.00241172  0.33593988  1
  Ni  Ni3  1  1.00103490  0.33491602  1.00211661  1
  Ni  Ni4  1  0.16813949  0.50215089  0.16881714  1
  Ni  Ni5  1  1.00180472  0.33526293  0.33569673  1
  Ni  Ni6  1  0.00226958  0.66913195  1.00220553  1
  Ni  Ni7  1  0.16818713  0.83579200  0.16883879  1
  Ni  Ni8  1  1.00203610  0.66913524  0.33534830  1
  Ni  Ni9  1  0.33490505  1.00157760  0.00234799  1
  Ni  Ni10  1  0.50206865  0.16893860  0.16860001  1
  Ni  Ni11  1  0.33554828  1.00217807  0.33565579  1
  Fe  Fe12  1  0.33506297  0.33615335  1.00225572  1
  Ni  Ni13  1  0.50300856  0.50214156  0.16888798  1
  Ni  Ni14  1  0.33585609  0.33487641  0.33541318  1
  Ni  Ni15  1  0.33609022  0.67068756  1.00188652  1
  Ni  Ni16  1  0.50291106  0.83573183  0.16888689  1
  Ni  Ni17  1  0.33585641  0.66975214  0.33588569  1
  Fe  Fe18  1  0.66904489  1.00172956  0.00267589  1
  Fe  Fe19  1  0.83588507  0.16926406  0.16903350  1
  Ni  Ni20  1  0.66853371  0.00241370  0.33538561  1
  Ni  Ni21  1  0.66963945  0.33610223  1.00211762  1
  Ni  Ni22  1  0.83564977  0.50298452  0.16859487  1
  Ni  Ni23  1  0.66914680  0.33557009  0.33600496  1
  Ni  Ni24  1  0.66844408  0.66790611  1.00220493  1
  Ni  Ni25  1  0.83571935  0.83485102  0.16857178  1
  Ni  Ni26  1  0.66891478  0.66882735  0.33565738  1
  Ni  Ni27  1  0.16859146  0.16910613  0.50268889  1
  Fe  Fe28  1  0.00297448  0.00254579  0.66878411  1
  Ni  Ni29  1  0.16801306  0.16903120  0.83555238  1
  Ni  Ni30  1  0.16854298  0.50225662  0.50218731  1
  Ni  Ni31  1  1.00160261  0.33546098  0.66899211  1
  Ni  Ni32  1  0.16885111  0.50261298  0.83581310  1
  Ni  Ni33  1  0.16856860  0.83544453  0.50206758  1
  Ni  Ni34  1  1.00198745  0.66870559  0.66926183  1
  Ni  Ni35  1  0.16895542  0.83517454  0.83589697  1
  Ni  Ni36  1  0.50261509  0.16909358  0.50267728  1
  Ni  Ni37  1  0.33554595  1.00224998  0.66880304  1
  Ni  Ni38  1  0.50311203  0.16906547  0.83552853  1
  Ni  Ni39  1  0.50265080  0.50225661  0.50218748  1
  Ni  Ni40  1  0.33585577  0.33433228  0.66966641  1
  Ni  Ni41  1  0.50229223  0.50260288  0.83574224  1
  Ni  Ni42  1  0.50263813  0.83545727  0.50205647  1
  Ni  Ni43  1  0.33585560  0.67022370  0.66903367  1
  Ni  Ni44  1  0.50217149  0.83513985  0.83585304  1
  Ni  Ni45  1  0.83559928  0.16913000  0.50145550  1
  Fe  Fe46  1  0.66816582  0.00254730  0.66819227  1
  Ni  Ni47  1  0.83568260  0.16915360  0.83614326  1
  Ni  Ni48  1  0.83561320  0.50228145  0.50266161  1
  Ni  Ni49  1  0.66934677  0.33576780  0.66868188  1
  Fe  Fe50  1  0.83554002  0.50157986  0.83566277  1
  Ni  Ni51  1  0.83559941  0.83539623  0.50256138  1
  Ni  Ni52  1  0.66896278  0.66839889  0.66895266  1
  Fe  Fe53  1  0.83587185  0.83539100  0.83595119  1
" 