2743,Ni14Fe12Cr73_17,-209.132243909319, 178.318100567781,Ni14Fe12Cr73,"# generated using pymatgen
 data_Cr41Fe6Ni7
_symmetry_space_group_name_H-M   'P 1'
_cell_length_a   7.57118049
_cell_length_b   7.57118049
_cell_length_c   10.70726613
_cell_angle_alpha   90.00000000
_cell_angle_beta   90.00000000
_cell_angle_gamma   90.00000000
_symmetry_Int_Tables_number   1
_chemical_formula_structural   Cr41Fe6Ni7
_chemical_formula_sum   'Cr41 Fe6 Ni7'
_cell_volume   613.77019695
_cell_formula_units_Z   1
loop_
 _symmetry_equiv_pos_site_id
 _symmetry_equiv_pos_as_xyz
  1  'x, y, z'
loop_
 _atom_site_type_symbol
 _atom_site_label
 _atom_site_symmetry_multiplicity
 _atom_site_fract_x
 _atom_site_fract_y
 _atom_site_fract_z
 _atom_site_occupancy
  Ni  Ni0  1  0.99221636  0.99017737  0.99164834  1
  Cr  Cr1  1  0.15866277  0.15837927  0.15908508  1
  Cr  Cr2  1  -0.00627810  0.99133370  0.32514539  1
  Cr  Cr3  1  0.99152395  0.32496444  0.99056238  1
  Cr  Cr4  1  0.15854829  0.49489425  0.16126019  1
  Fe  Fe5  1  0.99011184  0.32810328  0.32730906  1
  Cr  Cr6  1  0.99230865  0.66318510  0.99249542  1
  Ni  Ni7  1  0.15785933  0.82680966  0.15855034  1
  Fe  Fe8  1  0.99220189  0.65913203  0.32596328  1
  Cr  Cr9  1  0.32473790  0.99241731  -0.00357159  1
  Ni  Ni10  1  0.49467754  0.15863307  0.16097601  1
  Cr  Cr11  1  0.32679127  0.99277448  0.32476462  1
  Cr  Cr12  1  0.32734386  0.32560982  -0.00573479  1
  Cr  Cr13  1  0.49390179  0.49235446  0.15875747  1
  Cr  Cr14  1  0.32748757  0.32513548  0.32561788  1
  Cr  Cr15  1  0.32543085  0.66142194  -0.00563414  1
  Fe  Fe16  1  0.49211091  0.82815902  0.15979871  1
  Cr  Cr17  1  0.32480213  0.66152651  0.32490071  1
  Cr  Cr18  1  0.66222982  0.99295465  -0.00517505  1
  Cr  Cr19  1  0.82576106  0.15880541  0.15996564  1
  Cr  Cr20  1  0.65880804  -0.00586596  0.32431352  1
  Cr  Cr21  1  0.66041291  0.32566000  0.99166484  1
  Cr  Cr22  1  0.82682326  0.49356752  0.16248159  1
  Ni  Ni23  1  0.66194646  0.32750863  0.32678832  1
  Cr  Cr24  1  0.66165064  0.66076688  0.99259154  1
  Fe  Fe25  1  0.82877026  0.82746306  0.15865447  1
  Cr  Cr26  1  0.66224778  0.65887821  0.32626972  1
  Cr  Cr27  1  0.15840522  0.16028098  0.49290751  1
  Cr  Cr28  1  0.99233155  0.99262575  0.66306152  1
  Cr  Cr29  1  0.15679359  0.15826595  0.82728215  1
  Cr  Cr30  1  0.15704569  0.49322965  0.49062379  1
  Cr  Cr31  1  0.99071057  0.32717804  0.65983537  1
  Cr  Cr32  1  0.16014062  0.49416004  0.82735332  1
  Cr  Cr33  1  0.15915784  0.82585521  0.49418816  1
  Cr  Cr34  1  0.99124508  0.65960797  0.66051632  1
  Fe  Fe35  1  0.15666586  0.82812225  0.82813839  1
  Cr  Cr36  1  0.49433856  0.15982044  0.49306478  1
  Cr  Cr37  1  0.32526296  0.99281350  0.65834359  1
  Cr  Cr38  1  0.49477542  0.15979841  0.82609340  1
  Cr  Cr39  1  0.49512993  0.49331144  0.49383938  1
  Cr  Cr40  1  0.32605811  0.32617329  0.65956410  1
  Cr  Cr41  1  0.49319624  0.49416377  0.82674801  1
  Cr  Cr42  1  0.49369830  0.82625087  0.49468928  1
  Cr  Cr43  1  0.32532162  0.66044901  0.66021022  1
  Cr  Cr44  1  0.49434672  0.82541016  0.82490681  1
  Cr  Cr45  1  0.82651243  0.16175207  0.49149952  1
  Cr  Cr46  1  0.66170739  -0.00672264  0.66024536  1
  Ni  Ni47  1  0.82828924  0.15637747  0.82754004  1
  Ni  Ni48  1  0.82717727  0.49227006  0.49098584  1
  Cr  Cr49  1  0.66254081  0.32726050  0.66063931  1
  Fe  Fe50  1  0.82647327  0.49310978  0.82608763  1
  Cr  Cr51  1  0.82653288  0.82494435  0.49203754  1
  Cr  Cr52  1  0.66273157  0.65879364  0.66051676  1
  Ni  Ni53  1  0.82896829  0.82859452  0.82827899  1
" 