1589,Ni14Fe52Cr33_6,-223.231228693853, 177.369731358794,Ni14Fe52Cr33,"# generated using pymatgen
 data_Cr19(Fe4Ni)7
_symmetry_space_group_name_H-M   'P 1'
_cell_length_a   7.49081637
_cell_length_b   7.49081637
_cell_length_c   10.59361411
_cell_angle_alpha   90.00000000
_cell_angle_beta   90.00000000
_cell_angle_gamma   90.00000000
_symmetry_Int_Tables_number   1
_chemical_formula_structural   Cr19(Fe4Ni)7
_chemical_formula_sum   'Cr19 Fe28 Ni7'
_cell_volume   594.43237004
_cell_formula_units_Z   1
loop_
 _symmetry_equiv_pos_site_id
 _symmetry_equiv_pos_as_xyz
  1  'x, y, z'
loop_
 _atom_site_type_symbol
 _atom_site_label
 _atom_site_symmetry_multiplicity
 _atom_site_fract_x
 _atom_site_fract_y
 _atom_site_fract_z
 _atom_site_occupancy
  Fe  Fe0  1  -0.00020800  -0.00039582  0.99822735  1
  Fe  Fe1  1  0.16494976  0.16511643  0.16419368  1
  Cr  Cr2  1  0.00218268  0.99733267  0.33010302  1
  Fe  Fe3  1  0.00014452  0.33016475  0.99797053  1
  Cr  Cr4  1  0.16685894  0.49609827  0.16505497  1
  Fe  Fe5  1  -0.00006863  0.33281769  0.33257570  1
  Ni  Ni6  1  0.00234999  0.66522736  0.99819543  1
  Fe  Fe7  1  0.16698038  0.83012245  0.16533818  1
  Cr  Cr8  1  -0.00060542  0.66397187  0.33520828  1
  Cr  Cr9  1  0.33000751  0.99798125  -0.00032092  1
  Fe  Fe10  1  0.49435634  0.16628284  0.16515870  1
  Fe  Fe11  1  0.33208331  0.99602487  0.33206400  1
  Fe  Fe12  1  0.33044869  0.33194876  0.99600243  1
  Fe  Fe13  1  0.49811846  0.50179930  0.16631470  1
  Fe  Fe14  1  0.33026595  0.33209336  0.33248298  1
  Fe  Fe15  1  0.33163962  0.66348867  -0.00109729  1
  Fe  Fe16  1  0.49555732  0.82794170  0.16646790  1
  Ni  Ni17  1  0.33095421  0.66679313  0.33147558  1
  Cr  Cr18  1  0.66438109  0.00382586  -0.00122226  1
  Fe  Fe19  1  0.83570299  0.16749366  0.16494407  1
  Cr  Cr20  1  0.66215690  -0.00048704  0.33163005  1
  Cr  Cr21  1  0.66337413  0.33129774  -0.00059459  1
  Fe  Fe22  1  0.83227719  0.49949159  0.16361194  1
  Cr  Cr23  1  0.66620839  0.33256127  0.32859257  1
  Fe  Fe24  1  0.66456120  0.66412917  0.00053543  1
  Cr  Cr25  1  0.83021806  0.83063518  0.16300479  1
  Ni  Ni26  1  0.66340825  0.66378915  0.33164769  1
  Fe  Fe27  1  0.16630331  0.16656189  0.49802682  1
  Fe  Fe28  1  0.00101347  -0.00016558  0.66491305  1
  Ni  Ni29  1  0.16338367  0.16731744  0.83243063  1
  Ni  Ni30  1  0.16578087  0.49664818  0.49729922  1
  Fe  Fe31  1  0.00212444  0.33111072  0.66532182  1
  Fe  Fe32  1  0.16556565  0.49718140  0.83456771  1
  Ni  Ni33  1  0.16699556  0.83198546  0.49653463  1
  Cr  Cr34  1  0.00114921  0.66551069  0.66059608  1
  Fe  Fe35  1  0.16350447  0.83381980  0.83310109  1
  Fe  Fe36  1  0.49498453  0.16425518  0.49808315  1
  Cr  Cr37  1  0.33060273  0.99839761  0.66281274  1
  Ni  Ni38  1  0.49576306  0.16512615  0.83142665  1
  Cr  Cr39  1  0.49632825  0.50049981  0.49739002  1
  Cr  Cr40  1  0.33184583  0.33130715  0.66790891  1
  Fe  Fe41  1  0.49649978  0.49699053  0.83376723  1
  Fe  Fe42  1  0.49703021  0.83069142  0.49690763  1
  Cr  Cr43  1  0.32694245  0.66516210  0.66779928  1
  Cr  Cr44  1  0.50049846  0.82965387  0.83129418  1
  Cr  Cr45  1  0.83380655  0.16416419  0.50187332  1
  Fe  Fe46  1  0.66427927  0.99764471  0.66468357  1
  Fe  Fe47  1  0.83408229  0.16445512  0.83057977  1
  Fe  Fe48  1  0.83274830  0.49928720  0.49841374  1
  Cr  Cr49  1  0.66460094  0.32995727  0.66769004  1
  Cr  Cr50  1  0.83311441  0.50004301  0.83206107  1
  Fe  Fe51  1  0.83040629  0.82969288  0.49882921  1
  Fe  Fe52  1  0.66454808  0.66588291  0.66220026  1
  Cr  Cr53  1  0.83212165  0.83360030  0.83025086  1
" 