3842,Ni14Fe86_17,-242.35243629113, 199.005289990273,Ni14Fe86,"# generated using pymatgen
 data_Fe7Ni47
_symmetry_space_group_name_H-M   'P 1'
_cell_length_a   7.43355747
_cell_length_b   7.43355747
_cell_length_c   10.51263779
_cell_angle_alpha   90.00000000
_cell_angle_beta   90.00000000
_cell_angle_gamma   90.00000000
_symmetry_Int_Tables_number   1
_chemical_formula_structural   Fe7Ni47
_chemical_formula_sum   'Fe7 Ni47'
_cell_volume   580.90499136
_cell_formula_units_Z   1
loop_
 _symmetry_equiv_pos_site_id
 _symmetry_equiv_pos_as_xyz
  1  'x, y, z'
loop_
 _atom_site_type_symbol
 _atom_site_label
 _atom_site_symmetry_multiplicity
 _atom_site_fract_x
 _atom_site_fract_y
 _atom_site_fract_z
 _atom_site_occupancy
  Ni  Ni0  1  1.00155509  0.00292008  0.00235254  1
  Ni  Ni1  1  0.16847762  0.16911233  0.16896859  1
  Fe  Fe2  1  0.00264553  0.00246154  0.33475305  1
  Ni  Ni3  1  0.00307294  0.33417276  1.00209601  1
  Ni  Ni4  1  0.16882555  0.50239793  0.16931140  1
  Ni  Ni5  1  0.00277755  0.33579842  0.33553450  1
  Fe  Fe6  1  1.00199265  0.66878804  0.00251641  1
  Ni  Ni7  1  0.16882831  0.83524855  0.16870152  1
  Ni  Ni8  1  0.00282814  0.66855942  0.33496341  1
  Fe  Fe9  1  0.33598458  0.00277606  0.00274818  1
  Ni  Ni10  1  0.50284229  0.16907353  0.16895491  1
  Ni  Ni11  1  0.33608846  1.00205330  0.33523890  1
  Ni  Ni12  1  0.33462575  0.33628122  0.00235314  1
  Ni  Ni13  1  0.50249981  0.50245165  0.16933924  1
  Ni  Ni14  1  0.33462402  0.33520989  0.33560592  1
  Ni  Ni15  1  0.33577143  0.66871695  0.00235319  1
  Ni  Ni16  1  0.50253881  0.83523998  0.16872230  1
  Ni  Ni17  1  0.33492161  0.66949431  0.33583078  1
  Ni  Ni18  1  0.67000710  1.00177045  0.00235346  1
  Ni  Ni19  1  0.83544550  0.16906816  0.16892128  1
  Ni  Ni20  1  0.66842574  1.00210359  0.33519749  1
  Ni  Ni21  1  0.66906231  0.33475712  1.00209567  1
  Ni  Ni22  1  0.83542571  0.50209488  0.16842098  1
  Ni  Ni23  1  0.66935614  0.33463560  0.33553424  1
  Ni  Ni24  1  0.66789836  0.67023191  1.00209559  1
  Ni  Ni25  1  0.83539070  0.83559053  0.16949733  1
  Ni  Ni26  1  0.66900821  0.67001896  0.33578862  1
  Ni  Ni27  1  0.16828787  0.16896730  0.50239742  1
  Fe  Fe28  1  1.00198430  0.00246339  0.66987124  1
  Ni  Ni29  1  0.16816844  0.16942432  0.83538799  1
  Ni  Ni30  1  0.16852690  0.50273257  0.50215260  1
  Ni  Ni31  1  0.00311592  0.33546101  0.66912235  1
  Ni  Ni32  1  0.16942173  0.50240307  0.83529948  1
  Ni  Ni33  1  0.16943314  0.83505531  0.50239857  1
  Ni  Ni34  1  0.00316902  0.66889386  0.66969729  1
  Ni  Ni35  1  0.16851383  0.83493030  0.83566039  1
  Ni  Ni36  1  0.50306376  0.16888185  0.50239611  1
  Fe  Fe37  1  0.33607448  1.00219801  0.66830501  1
  Ni  Ni38  1  0.50315019  0.16938370  0.83539968  1
  Ni  Ni39  1  0.50272570  0.50271522  0.50215195  1
  Ni  Ni40  1  0.33462507  0.33581430  0.66879933  1
  Ni  Ni41  1  0.50189818  0.50245066  0.83526651  1
  Ni  Ni42  1  0.50189817  0.83516036  0.50239722  1
  Ni  Ni43  1  0.33492203  0.66889508  0.66857405  1
  Ni  Ni44  1  0.50284512  0.83493045  0.83563139  1
  Ni  Ni45  1  0.83540635  0.16978258  0.50215297  1
  Ni  Ni46  1  0.66902477  1.00210627  0.66921043  1
  Ni  Ni47  1  0.83544490  0.16846853  0.83568666  1
  Ni  Ni48  1  0.83550467  0.50156923  0.50275357  1
  Ni  Ni49  1  0.66901779  0.33429882  0.66912234  1
  Fe  Fe50  1  0.83536462  0.50203883  0.83519959  1
  Fe  Fe51  1  0.83507199  0.83505216  0.50237194  1
  Ni  Ni52  1  0.66866716  0.67035277  0.66887165  1
  Ni  Ni53  1  0.83539613  0.83618504  0.83511576  1
" 