7447,Ni14Fe12Cr73_7,-209.26569093611, 183.285596854448,Ni14Fe12Cr73,"# generated using pymatgen
 data_Cr41Fe6Ni7
_symmetry_space_group_name_H-M   'P 1'
_cell_length_a   7.56156684
_cell_length_b   7.56156684
_cell_length_c   10.69367038
_cell_angle_alpha   90.00000000
_cell_angle_beta   90.00000000
_cell_angle_gamma   90.00000000
_symmetry_Int_Tables_number   1
_chemical_formula_structural   Cr41Fe6Ni7
_chemical_formula_sum   'Cr41 Fe6 Ni7'
_cell_volume   611.43512613
_cell_formula_units_Z   1
loop_
 _symmetry_equiv_pos_site_id
 _symmetry_equiv_pos_as_xyz
  1  'x, y, z'
loop_
 _atom_site_type_symbol
 _atom_site_label
 _atom_site_symmetry_multiplicity
 _atom_site_fract_x
 _atom_site_fract_y
 _atom_site_fract_z
 _atom_site_occupancy
  Ni  Ni0  1  0.99358046  0.99329022  0.99240202  1
  Cr  Cr1  1  0.15944581  0.16182057  0.15994608  1
  Cr  Cr2  1  0.99183065  0.99208345  0.32799020  1
  Fe  Fe3  1  -0.00578630  0.32662456  0.99331146  1
  Cr  Cr4  1  0.15891243  0.49239714  0.16129408  1
  Cr  Cr5  1  -0.00519772  0.32748395  0.32631199  1
  Cr  Cr6  1  -0.00586714  0.66190861  0.99336255  1
  Cr  Cr7  1  0.16072401  0.82703290  0.15935883  1
  Cr  Cr8  1  0.99246847  0.66168373  0.32748045  1
  Cr  Cr9  1  0.32413356  -0.00616018  0.99323229  1
  Cr  Cr10  1  0.49405136  0.15915815  0.16225504  1
  Cr  Cr11  1  0.32758046  -0.00400790  0.32678665  1
  Cr  Cr12  1  0.32735621  0.32822001  0.99326833  1
  Cr  Cr13  1  0.49379243  0.49428078  0.16094982  1
  Ni  Ni14  1  0.32850953  0.32798413  0.32802899  1
  Cr  Cr15  1  0.32581041  0.65918566  0.99145484  1
  Cr  Cr16  1  0.49465800  0.82781363  0.16164572  1
  Cr  Cr17  1  0.32702434  0.65770448  0.32746148  1
  Cr  Cr18  1  0.66303392  -0.00561310  -0.00624491  1
  Cr  Cr19  1  0.82775259  0.16096724  0.15881873  1
  Ni  Ni20  1  0.66147711  0.99326066  0.32793510  1
  Cr  Cr21  1  0.66031337  0.32816426  -0.00595562  1
  Fe  Fe22  1  0.82748356  0.49336177  0.15995972  1
  Cr  Cr23  1  0.65785644  0.32691753  0.32691724  1
  Cr  Cr24  1  0.66130571  0.65869346  0.99315406  1
  Cr  Cr25  1  0.82586851  0.82728808  0.16066209  1
  Cr  Cr26  1  0.66175891  0.66067677  0.32808811  1
  Cr  Cr27  1  0.16106525  0.16187366  0.49434920  1
  Cr  Cr28  1  -0.00565227  0.99203037  0.66028265  1
  Cr  Cr29  1  0.15873673  0.16101979  0.82695162  1
  Cr  Cr30  1  0.16107518  0.49218990  0.49321384  1
  Fe  Fe31  1  -0.00493980  0.32754056  0.66127778  1
  Ni  Ni32  1  0.15950202  0.49410328  0.82723508  1
  Cr  Cr33  1  0.16062671  0.82718640  0.49436219  1
  Cr  Cr34  1  -0.00622859  0.66199787  0.66041323  1
  Fe  Fe35  1  0.15954912  0.82716332  0.82709801  1
  Cr  Cr36  1  0.49306211  0.15977028  0.49263595  1
  Ni  Ni37  1  0.32543057  -0.00602040  0.66137952  1
  Cr  Cr38  1  0.49346191  0.15890755  0.82636060  1
  Ni  Ni39  1  0.49307689  0.49337564  0.49360290  1
  Cr  Cr40  1  0.32797590  0.32774939  0.66019246  1
  Fe  Fe41  1  0.49203278  0.49358735  0.82666791  1
  Cr  Cr42  1  0.49539582  0.82739250  0.49267990  1
  Cr  Cr43  1  0.32644779  0.65932843  0.66233111  1
  Cr  Cr44  1  0.49292436  0.82688776  0.82692601  1
  Cr  Cr45  1  0.82712236  0.15932541  0.49452254  1
  Cr  Cr46  1  0.66156369  0.99355087  0.65947180  1
  Cr  Cr47  1  0.82905578  0.16077903  0.82790235  1
  Cr  Cr48  1  0.82733513  0.49452275  0.49394514  1
  Cr  Cr49  1  0.65889300  0.32832753  0.66029021  1
  Cr  Cr50  1  0.82928365  0.49302275  0.82770825  1
  Ni  Ni51  1  0.82553985  0.82772864  0.49326890  1
  Cr  Cr52  1  0.66103113  0.65936885  0.66000915  1
  Fe  Fe53  1  0.82925710  0.82757120  0.82754762  1
" 