3436,Ni14Fe52Cr33_19,-223.120704875166, 174.399217331244,Ni14Fe52Cr33,"# generated using pymatgen
 data_Cr19(Fe4Ni)7
_symmetry_space_group_name_H-M   'P 1'
_cell_length_a   7.49366095
_cell_length_b   7.49366095
_cell_length_c   10.59763695
_cell_angle_alpha   90.00000000
_cell_angle_beta   90.00000000
_cell_angle_gamma   90.00000000
_symmetry_Int_Tables_number   1
_chemical_formula_structural   Cr19(Fe4Ni)7
_chemical_formula_sum   'Cr19 Fe28 Ni7'
_cell_volume   595.10982088
_cell_formula_units_Z   1
loop_
 _symmetry_equiv_pos_site_id
 _symmetry_equiv_pos_as_xyz
  1  'x, y, z'
loop_
 _atom_site_type_symbol
 _atom_site_label
 _atom_site_symmetry_multiplicity
 _atom_site_fract_x
 _atom_site_fract_y
 _atom_site_fract_z
 _atom_site_occupancy
  Fe  Fe0  1  0.00014263  0.99515716  0.00077657  1
  Ni  Ni1  1  0.16641658  0.16664282  0.16615068  1
  Cr  Cr2  1  0.99807386  -0.00043677  0.33410180  1
  Fe  Fe3  1  0.00138864  0.33312818  -0.00033459  1
  Fe  Fe4  1  0.16437210  0.49696995  0.16502001  1
  Cr  Cr5  1  0.99689604  0.33244687  0.33076574  1
  Ni  Ni6  1  -0.00095895  0.66052695  0.00081445  1
  Cr  Cr7  1  0.16353091  0.82994635  0.16838643  1
  Fe  Fe8  1  0.99426961  0.66424333  0.33178328  1
  Cr  Cr9  1  0.33512156  -0.00017129  0.00046571  1
  Ni  Ni10  1  0.49726087  0.16858365  0.16592109  1
  Fe  Fe11  1  0.33207707  0.00230882  0.33153437  1
  Fe  Fe12  1  0.32947359  0.33364365  -0.00007639  1
  Cr  Cr13  1  0.49750501  0.49704806  0.16863842  1
  Fe  Fe14  1  0.33268375  0.32787315  0.33208760  1
  Fe  Fe15  1  0.32933173  0.66279125  -0.00172953  1
  Cr  Cr16  1  0.49815388  0.82996323  0.16521284  1
  Fe  Fe17  1  0.33322609  0.66540549  0.33368287  1
  Fe  Fe18  1  0.66562669  0.99774775  -0.00003993  1
  Cr  Cr19  1  0.83093866  0.16455911  0.16052600  1
  Cr  Cr20  1  0.66278796  -0.00092869  0.32809687  1
  Fe  Fe21  1  0.66290238  0.33319290  0.00020534  1
  Fe  Fe22  1  0.83157030  0.49848862  0.16521333  1
  Ni  Ni23  1  0.66421936  0.33180540  0.33352368  1
  Cr  Cr24  1  0.66498681  0.66696880  0.99785758  1
  Ni  Ni25  1  0.83347348  0.82873229  0.16508896  1
  Fe  Fe26  1  0.66805721  0.66379834  0.33241690  1
  Fe  Fe27  1  0.16598173  0.16415865  0.49847207  1
  Fe  Fe28  1  0.99588580  0.99769544  0.66069756  1
  Cr  Cr29  1  0.16358505  0.16363841  0.82983935  1
  Cr  Cr30  1  0.16898518  0.49973471  0.49652213  1
  Cr  Cr31  1  -0.00084991  0.33180511  0.66380963  1
  Fe  Fe32  1  0.16444375  0.49782037  0.83308089  1
  Fe  Fe33  1  0.16637619  0.83361863  0.49827558  1
  Cr  Cr34  1  0.99764945  0.66310555  0.66324041  1
  Cr  Cr35  1  0.16533120  0.83010596  0.83052881  1
  Fe  Fe36  1  0.49901540  0.16548970  0.49798102  1
  Fe  Fe37  1  0.33241883  0.99793968  0.66270872  1
  Cr  Cr38  1  0.50069980  0.16744666  0.83202124  1
  Fe  Fe39  1  0.50134840  0.49738138  0.49753828  1
  Fe  Fe40  1  0.33360915  0.33033024  0.66254303  1
  Cr  Cr41  1  0.49567509  0.49919758  0.82832207  1
  Fe  Fe42  1  0.49846263  0.83211192  0.49834874  1
  Fe  Fe43  1  0.33436855  0.66699207  0.66276657  1
  Fe  Fe44  1  0.49871924  0.83316321  0.82968174  1
  Ni  Ni45  1  0.82870158  0.16367956  0.50093875  1
  Ni  Ni46  1  0.66097320  0.99726195  0.66488866  1
  Cr  Cr47  1  0.83117706  0.16377476  0.83323695  1
  Fe  Fe48  1  0.82869257  0.49704540  0.49732848  1
  Fe  Fe49  1  0.66417851  0.33034683  0.66099514  1
  Cr  Cr50  1  0.82922407  0.49625231  0.83127944  1
  Fe  Fe51  1  0.82904138  0.83249418  0.49842555  1
  Fe  Fe52  1  0.66353721  0.66682058  0.66276846  1
  Cr  Cr53  1  0.83335197  0.83426470  0.83178155  1
" 