958,Ni14Fe12Cr73_4,-209.283949528621, 178.7177053611,Ni14Fe12Cr73,"# generated using pymatgen
 data_Cr41Fe6Ni7
_symmetry_space_group_name_H-M   'P 1'
_cell_length_a   7.56917865
_cell_length_b   7.56917865
_cell_length_c   10.70443510
_cell_angle_alpha   90.00000000
_cell_angle_beta   90.00000000
_cell_angle_gamma   90.00000000
_symmetry_Int_Tables_number   1
_chemical_formula_structural   Cr41Fe6Ni7
_chemical_formula_sum   'Cr41 Fe6 Ni7'
_cell_volume   613.28347733
_cell_formula_units_Z   1
loop_
 _symmetry_equiv_pos_site_id
 _symmetry_equiv_pos_as_xyz
  1  'x, y, z'
loop_
 _atom_site_type_symbol
 _atom_site_label
 _atom_site_symmetry_multiplicity
 _atom_site_fract_x
 _atom_site_fract_y
 _atom_site_fract_z
 _atom_site_occupancy
  Cr  Cr0  1  0.99204909  0.99310941  0.99291081  1
  Cr  Cr1  1  0.15699735  0.16144642  0.15779646  1
  Cr  Cr2  1  -0.00610058  0.99302983  0.32660865  1
  Ni  Ni3  1  0.98934307  0.32752893  0.99013000  1
  Cr  Cr4  1  0.15789745  0.49318799  0.16018886  1
  Cr  Cr5  1  -0.00575921  0.32550954  0.32745550  1
  Cr  Cr6  1  0.99098734  0.66030287  0.99273313  1
  Cr  Cr7  1  0.15973813  0.82506501  0.16163602  1
  Fe  Fe8  1  0.99241500  0.65967137  0.32665519  1
  Cr  Cr9  1  0.32680723  -0.00524348  0.99210933  1
  Cr  Cr10  1  0.49746591  0.15975598  0.15724541  1
  Cr  Cr11  1  0.32504661  -0.00434832  0.32679812  1
  Cr  Cr12  1  0.32608043  0.32501536  0.99302163  1
  Cr  Cr13  1  0.49472416  0.49274987  0.15885996  1
  Cr  Cr14  1  0.32616426  0.32484711  0.32694942  1
  Cr  Cr15  1  0.32615923  0.65973062  -0.00593886  1
  Cr  Cr16  1  0.49455989  0.82730659  0.15801625  1
  Cr  Cr17  1  0.32585864  0.65926676  0.32592136  1
  Ni  Ni18  1  0.66115515  -0.00550831  0.99123310  1
  Cr  Cr19  1  0.82525501  0.16112698  0.15825995  1
  Cr  Cr20  1  0.66089146  -0.00644084  0.32635276  1
  Ni  Ni21  1  0.66243147  0.32579426  0.99157559  1
  Cr  Cr22  1  0.82703053  0.49064431  0.15766381  1
  Cr  Cr23  1  0.65945970  0.32650485  0.32780680  1
  Fe  Fe24  1  0.66240083  0.66031225  0.99120140  1
  Cr  Cr25  1  0.82553620  0.82780975  0.15948301  1
  Cr  Cr26  1  0.66188972  0.65977160  0.32791418  1
  Ni  Ni27  1  0.15821057  0.15872068  0.49814700  1
  Ni  Ni28  1  -0.00400109  -0.00458778  0.66081806  1
  Fe  Fe29  1  0.15830448  0.15869169  0.82484136  1
  Cr  Cr30  1  0.15852039  0.49219540  0.49267154  1
  Fe  Fe31  1  -0.00533555  0.32255524  0.66093477  1
  Cr  Cr32  1  0.15761070  0.48987271  0.82685000  1
  Cr  Cr33  1  0.15976930  0.82843760  0.49407865  1
  Cr  Cr34  1  0.99018452  0.66119043  0.66130122  1
  Cr  Cr35  1  0.15954498  0.82867159  0.82405952  1
  Cr  Cr36  1  0.49228831  0.15829672  0.49420013  1
  Ni  Ni37  1  0.32167009  -0.00243312  0.66047809  1
  Fe  Fe38  1  0.49469394  0.15841817  0.82734930  1
  Cr  Cr39  1  0.49271510  0.49374896  0.49288146  1
  Cr  Cr40  1  0.32580334  0.32322962  0.65991110  1
  Cr  Cr41  1  0.49497302  0.49179849  0.82850956  1
  Cr  Cr42  1  0.49143937  0.82754030  0.49485511  1
  Cr  Cr43  1  0.32688042  0.65991711  0.65963659  1
  Cr  Cr44  1  0.49414770  0.82867477  0.82685529  1
  Cr  Cr45  1  0.83010470  0.15964312  0.49335413  1
  Cr  Cr46  1  0.66154099  0.99302457  0.66002431  1
  Cr  Cr47  1  0.82773061  0.16075192  0.82746750  1
  Cr  Cr48  1  0.82859448  0.49157549  0.49430629  1
  Cr  Cr49  1  0.66063829  0.32748908  0.65940410  1
  Fe  Fe50  1  0.82621836  0.49348319  0.82893675  1
  Cr  Cr51  1  0.82862226  0.82811410  0.49331381  1
  Cr  Cr52  1  0.66270506  0.65947265  0.66219599  1
  Ni  Ni53  1  0.82563020  0.82924917  0.82771915  1
" 