854,Ni14Fe86_18,-242.549570463348, 199.93132560759,Ni14Fe86,"# generated using pymatgen
 data_Fe7Ni47
_symmetry_space_group_name_H-M   'P 1'
_cell_length_a   7.43578487
_cell_length_b   7.43578487
_cell_length_c   10.51578780
_cell_angle_alpha   90.00000000
_cell_angle_beta   90.00000000
_cell_angle_gamma   90.00000000
_symmetry_Int_Tables_number   1
_chemical_formula_structural   Fe7Ni47
_chemical_formula_sum   'Fe7 Ni47'
_cell_volume   581.42733566
_cell_formula_units_Z   1
loop_
 _symmetry_equiv_pos_site_id
 _symmetry_equiv_pos_as_xyz
  1  'x, y, z'
loop_
 _atom_site_type_symbol
 _atom_site_label
 _atom_site_symmetry_multiplicity
 _atom_site_fract_x
 _atom_site_fract_y
 _atom_site_fract_z
 _atom_site_occupancy
  Ni  Ni0  1  0.00247296  1.00181926  1.00200895  1
  Ni  Ni1  1  0.16884911  0.16930579  0.16839345  1
  Ni  Ni2  1  1.00203784  1.00160066  0.33576607  1
  Ni  Ni3  1  0.00285664  0.33552809  0.00243857  1
  Ni  Ni4  1  0.16912878  0.50180985  0.16867211  1
  Ni  Ni5  1  0.00319224  0.33562724  0.33566389  1
  Ni  Ni6  1  0.00224202  0.66895873  1.00183384  1
  Fe  Fe7  1  0.16773139  0.83543427  0.16825222  1
  Ni  Ni8  1  1.00174817  0.66907910  0.33598643  1
  Ni  Ni9  1  0.33520105  0.00215224  0.00212677  1
  Ni  Ni10  1  0.50202441  0.16930637  0.16839285  1
  Fe  Fe11  1  0.33543672  0.00308625  0.33600948  1
  Ni  Ni12  1  0.33520115  0.33557857  1.00177593  1
  Ni  Ni13  1  0.50173705  0.50180330  0.16867243  1
  Ni  Ni14  1  0.33520107  0.33562104  0.33571925  1
  Ni  Ni15  1  0.33548243  0.66857617  1.00196316  1
  Fe  Fe16  1  0.50313791  0.83543793  0.16825186  1
  Fe  Fe17  1  0.33538025  0.66773570  0.33552371  1
  Ni  Ni18  1  0.66863211  1.00153774  1.00172861  1
  Ni  Ni19  1  0.83543351  0.16786119  0.16877631  1
  Ni  Ni20  1  0.66907016  1.00131857  0.33604704  1
  Ni  Ni21  1  0.66824850  0.33580902  0.00215861  1
  Ni  Ni22  1  0.83544040  0.50296568  0.16827546  1
  Ni  Ni23  1  0.66791307  0.33590873  0.33594450  1
  Ni  Ni24  1  0.66858169  0.66895919  0.00233547  1
  Ni  Ni25  1  0.83544031  0.83547988  0.16872110  1
  Ni  Ni26  1  0.66907442  0.66907918  0.33548506  1
  Ni  Ni27  1  0.16863004  0.16891041  0.50219388  1
  Ni  Ni28  1  0.00278935  1.00207258  0.66853150  1
  Ni  Ni29  1  0.16855402  0.16902896  0.83571937  1
  Ni  Ni30  1  0.16891472  0.50200762  0.50181959  1
  Ni  Ni31  1  0.00311856  0.33512958  0.66820126  1
  Ni  Ni32  1  0.16966462  0.50210065  0.83581711  1
  Ni  Ni33  1  0.16830089  0.83538844  0.50192492  1
  Fe  Fe34  1  1.00189846  0.66902663  0.66845375  1
  Ni  Ni35  1  0.16827601  0.83517654  0.83603751  1
  Ni  Ni36  1  0.50228509  0.16891087  0.50225033  1
  Ni  Ni37  1  0.33498330  0.00234925  0.66836624  1
  Ni  Ni38  1  0.50236025  0.16902882  0.83566371  1
  Ni  Ni39  1  0.50205059  0.50206026  0.50186707  1
  Ni  Ni40  1  0.33498335  0.33518288  0.66881199  1
  Ni  Ni41  1  0.50130034  0.50215326  0.83576907  1
  Ni  Ni42  1  0.50266435  0.83533549  0.50197274  1
  Fe  Fe43  1  0.33595349  0.66877081  0.66925110  1
  Ni  Ni44  1  0.50268874  0.83512439  0.83598994  1
  Ni  Ni45  1  0.83539208  0.16829732  0.50158624  1
  Ni  Ni46  1  0.66853381  1.00096175  0.66853127  1
  Ni  Ni47  1  0.83539229  0.16763831  0.83594450  1
  Ni  Ni48  1  0.83534135  0.50238938  0.50198460  1
  Ni  Ni49  1  0.66820490  0.33624244  0.66820112  1
  Fe  Fe50  1  0.83517677  0.50189648  0.83563729  1
  Ni  Ni51  1  0.83534156  0.83562049  0.50210023  1
  Ni  Ni52  1  0.66848203  0.66910224  0.66848316  1
  Ni  Ni53  1  0.83534150  0.83623225  0.83548521  1
" 