2699,Ni14Fe52Cr33_15,-222.969337293466, 170.931695618245,Ni14Fe52Cr33,"# generated using pymatgen
 data_Cr19(Fe4Ni)7
_symmetry_space_group_name_H-M   'P 1'
_cell_length_a   7.48466518
_cell_length_b   7.48466518
_cell_length_c   10.58491500
_cell_angle_alpha   90.00000000
_cell_angle_beta   90.00000000
_cell_angle_gamma   90.00000000
_symmetry_Int_Tables_number   1
_chemical_formula_structural   Cr19(Fe4Ni)7
_chemical_formula_sum   'Cr19 Fe28 Ni7'
_cell_volume   592.96919133
_cell_formula_units_Z   1
loop_
 _symmetry_equiv_pos_site_id
 _symmetry_equiv_pos_as_xyz
  1  'x, y, z'
loop_
 _atom_site_type_symbol
 _atom_site_label
 _atom_site_symmetry_multiplicity
 _atom_site_fract_x
 _atom_site_fract_y
 _atom_site_fract_z
 _atom_site_occupancy
  Ni  Ni0  1  0.00079173  0.99794884  0.99743842  1
  Fe  Fe1  1  0.16432291  0.16414055  0.16564407  1
  Ni  Ni2  1  0.00175284  0.99624393  0.33272351  1
  Cr  Cr3  1  -0.00106890  0.33266547  0.99695896  1
  Fe  Fe4  1  0.16677024  0.49968944  0.16482042  1
  Cr  Cr5  1  0.00022863  0.33388862  0.33315638  1
  Fe  Fe6  1  0.00001924  0.66819865  -0.00112706  1
  Fe  Fe7  1  0.16332983  0.83220956  0.16543530  1
  Fe  Fe8  1  0.00035767  0.66838245  0.33206137  1
  Cr  Cr9  1  0.32948682  0.99564560  0.99865986  1
  Cr  Cr10  1  0.49542799  0.16668396  0.16801297  1
  Fe  Fe11  1  0.32912295  0.99576773  0.33084255  1
  Fe  Fe12  1  0.33149655  0.33281259  0.99829928  1
  Fe  Fe13  1  0.49676442  0.50010735  0.16432597  1
  Fe  Fe14  1  0.33101181  0.33587043  0.33247532  1
  Fe  Fe15  1  0.33120393  0.66544496  -0.00094099  1
  Fe  Fe16  1  0.49705928  0.82995069  0.16550513  1
  Fe  Fe17  1  0.32958442  0.66513717  0.33178723  1
  Cr  Cr18  1  0.66425272  0.99620427  0.99823677  1
  Cr  Cr19  1  0.83271217  0.16353380  0.16517188  1
  Cr  Cr20  1  0.66622230  0.99605645  0.33357691  1
  Fe  Fe21  1  0.66494588  0.33428420  0.99847885  1
  Fe  Fe22  1  0.83292862  0.50095488  0.16384529  1
  Cr  Cr23  1  0.66635785  0.33497439  0.33284780  1
  Fe  Fe24  1  0.66552847  0.66383412  -0.00023068  1
  Fe  Fe25  1  0.83573586  0.83117563  0.16451538  1
  Cr  Cr26  1  0.66428988  0.66566060  0.33073080  1
  Cr  Cr27  1  0.16662368  0.16481881  0.49805453  1
  Fe  Fe28  1  -0.00018732  0.99853439  0.66622943  1
  Ni  Ni29  1  0.16581834  0.16468346  0.83377219  1
  Fe  Fe30  1  0.16921583  0.50163262  0.50017697  1
  Cr  Cr31  1  0.00035395  0.33167604  0.66616603  1
  Cr  Cr32  1  0.16608260  0.50082974  0.83010352  1
  Fe  Fe33  1  0.16404810  0.82941779  0.49923718  1
  Ni  Ni34  1  -0.00010880  0.66742907  0.66391957  1
  Ni  Ni35  1  0.16326283  0.83083231  0.83199323  1
  Cr  Cr36  1  0.49737883  0.16682608  0.49713715  1
  Cr  Cr37  1  0.33060631  0.99646143  0.66889230  1
  Cr  Cr38  1  0.49827030  0.16772226  0.83200945  1
  Ni  Ni39  1  0.49623481  0.50013228  0.49929088  1
  Ni  Ni40  1  0.33259850  0.33338291  0.66513421  1
  Fe  Fe41  1  0.49809954  0.50160145  0.83179203  1
  Cr  Cr42  1  0.49826373  0.83096505  0.50101945  1
  Fe  Fe43  1  0.33104266  0.66346067  0.66551763  1
  Fe  Fe44  1  0.49661306  0.82845231  0.83164563  1
  Fe  Fe45  1  0.83305443  0.16277086  0.49890096  1
  Fe  Fe46  1  0.66791261  0.99846646  0.66554681  1
  Fe  Fe47  1  0.83492141  0.16363601  0.83288337  1
  Cr  Cr48  1  0.83412125  0.50338812  0.49943341  1
  Cr  Cr49  1  0.66667916  0.33287724  0.66524984  1
  Fe  Fe50  1  0.83206375  0.50040296  0.83192868  1
  Fe  Fe51  1  0.83514437  0.83379884  0.50044695  1
  Fe  Fe52  1  0.66431614  0.66483983  0.66583653  1
  Cr  Cr53  1  0.83338065  0.82994153  0.83087717  1
" 