1870,Ni14Fe12Cr73_19,-209.202221541121, 180.93937794776,Ni14Fe12Cr73,"# generated using pymatgen
 data_Cr41Fe6Ni7
_symmetry_space_group_name_H-M   'P 1'
_cell_length_a   7.56356305
_cell_length_b   7.56356305
_cell_length_c   10.69649345
_cell_angle_alpha   90.00000000
_cell_angle_beta   90.00000000
_cell_angle_gamma   90.00000000
_symmetry_Int_Tables_number   1
_chemical_formula_structural   Cr41Fe6Ni7
_chemical_formula_sum   'Cr41 Fe6 Ni7'
_cell_volume   611.91950015
_cell_formula_units_Z   1
loop_
 _symmetry_equiv_pos_site_id
 _symmetry_equiv_pos_as_xyz
  1  'x, y, z'
loop_
 _atom_site_type_symbol
 _atom_site_label
 _atom_site_symmetry_multiplicity
 _atom_site_fract_x
 _atom_site_fract_y
 _atom_site_fract_z
 _atom_site_occupancy
  Fe  Fe0  1  0.99319318  -0.00596796  -0.00633330  1
  Cr  Cr1  1  0.15862509  0.15936183  0.16030271  1
  Cr  Cr2  1  0.99148563  -0.00546456  0.32685605  1
  Cr  Cr3  1  0.99310039  0.32567824  0.99327277  1
  Cr  Cr4  1  0.15899993  0.49682245  0.16205511  1
  Fe  Fe5  1  0.99244347  0.32726789  0.32652858  1
  Ni  Ni6  1  0.99314721  0.66134230  -0.00579495  1
  Cr  Cr7  1  0.16067160  0.82467867  0.16020709  1
  Fe  Fe8  1  -0.00545740  0.66047811  0.32737668  1
  Cr  Cr9  1  0.32559372  -0.00564198  0.99361522  1
  Cr  Cr10  1  0.49715376  0.16047609  0.15992941  1
  Cr  Cr11  1  0.32709474  0.99230414  0.32605577  1
  Cr  Cr12  1  0.32654587  0.32621428  0.99154697  1
  Cr  Cr13  1  0.49431318  0.49323697  0.16071109  1
  Cr  Cr14  1  0.32631729  0.32929619  0.32778952  1
  Cr  Cr15  1  0.32669137  0.66028683  -0.00531390  1
  Fe  Fe16  1  0.49315555  0.82652639  0.16118504  1
  Ni  Ni17  1  0.32726921  0.65903118  0.32682871  1
  Cr  Cr18  1  0.66179313  -0.00582549  -0.00430367  1
  Ni  Ni19  1  0.82548087  0.16149085  0.16028107  1
  Cr  Cr20  1  0.66228405  0.99321201  0.32661696  1
  Ni  Ni21  1  0.66207619  0.32574487  -0.00463529  1
  Cr  Cr22  1  0.82754122  0.49120628  0.15972551  1
  Fe  Fe23  1  0.66099930  0.32684344  0.32599885  1
  Cr  Cr24  1  0.66125758  0.65990350  0.99290077  1
  Cr  Cr25  1  0.82866638  0.82751260  0.15876402  1
  Cr  Cr26  1  0.65945543  0.66063056  0.32863345  1
  Cr  Cr27  1  0.15983058  0.16126260  0.49497761  1
  Cr  Cr28  1  0.99327291  -0.00452366  0.66075200  1
  Ni  Ni29  1  0.15936417  0.16039545  0.82631392  1
  Cr  Cr30  1  0.15968162  0.49451352  0.49183430  1
  Ni  Ni31  1  -0.00510697  0.32567397  0.66063195  1
  Cr  Cr32  1  0.15850444  0.49311239  0.82696946  1
  Cr  Cr33  1  0.15964866  0.82508694  0.49210231  1
  Cr  Cr34  1  0.99157371  0.65976811  0.65950607  1
  Cr  Cr35  1  0.15914324  0.82785449  0.82855369  1
  Cr  Cr36  1  0.49463518  0.16122698  0.49380463  1
  Cr  Cr37  1  0.32575202  -0.00453270  0.66119473  1
  Cr  Cr38  1  0.49317446  0.16097276  0.82712516  1
  Fe  Fe39  1  0.49357187  0.49453324  0.49232497  1
  Cr  Cr40  1  0.32435083  0.32670034  0.66152186  1
  Cr  Cr41  1  0.49487712  0.49233252  0.82706395  1
  Cr  Cr42  1  0.49355406  0.82638868  0.49334282  1
  Cr  Cr43  1  0.32854085  0.65869094  0.65956979  1
  Cr  Cr44  1  0.49316229  0.82755245  0.82715334  1
  Cr  Cr45  1  0.82638983  0.16118832  0.49284582  1
  Cr  Cr46  1  0.66183623  0.99129165  0.65854043  1
  Cr  Cr47  1  0.82777579  0.16160683  0.82764553  1
  Cr  Cr48  1  0.82768829  0.49343592  0.49301019  1
  Cr  Cr49  1  0.66075472  0.32840311  0.65978233  1
  Cr  Cr50  1  0.82747686  0.49309812  0.82812410  1
  Ni  Ni51  1  0.82681330  0.82546620  0.49334590  1
  Cr  Cr52  1  0.66074683  0.66116608  0.65931732  1
  Cr  Cr53  1  0.82855356  0.82615340  0.82730992  1
" 