2688,Ni14Fe52Cr33_2,-223.383121267694, 175.33910558276,Ni14Fe52Cr33,"# generated using pymatgen
 data_Cr19(Fe4Ni)7
_symmetry_space_group_name_H-M   'P 1'
_cell_length_a   7.49481207
_cell_length_b   7.49481207
_cell_length_c   10.59926488
_cell_angle_alpha   90.00000000
_cell_angle_beta   90.00000000
_cell_angle_gamma   90.00000000
_symmetry_Int_Tables_number   1
_chemical_formula_structural   Cr19(Fe4Ni)7
_chemical_formula_sum   'Cr19 Fe28 Ni7'
_cell_volume   595.38411169
_cell_formula_units_Z   1
loop_
 _symmetry_equiv_pos_site_id
 _symmetry_equiv_pos_as_xyz
  1  'x, y, z'
loop_
 _atom_site_type_symbol
 _atom_site_label
 _atom_site_symmetry_multiplicity
 _atom_site_fract_x
 _atom_site_fract_y
 _atom_site_fract_z
 _atom_site_occupancy
  Cr  Cr0  1  -0.00045255  0.99651893  0.99716305  1
  Fe  Fe1  1  0.16516124  0.16717883  0.16575787  1
  Cr  Cr2  1  -0.00105217  0.99666056  0.33215799  1
  Cr  Cr3  1  0.99687730  0.33266178  0.99619245  1
  Cr  Cr4  1  0.16523025  0.49941692  0.16549769  1
  Cr  Cr5  1  0.99755584  0.33382953  0.33397428  1
  Ni  Ni6  1  0.99599243  0.66468099  -0.00007151  1
  Fe  Fe7  1  0.16227093  0.82935477  0.16510053  1
  Fe  Fe8  1  0.99524971  0.66679634  0.33053026  1
  Cr  Cr9  1  0.33205593  0.99761010  0.00113679  1
  Fe  Fe10  1  0.49821849  0.16873808  0.16651679  1
  Cr  Cr11  1  0.33309440  -0.00178878  0.32989700  1
  Fe  Fe12  1  0.33298053  0.33132468  -0.00148463  1
  Fe  Fe13  1  0.50135341  0.49711542  0.16654659  1
  Fe  Fe14  1  0.33494064  0.33039540  0.33364663  1
  Cr  Cr15  1  0.33413557  0.66603272  -0.00156078  1
  Fe  Fe16  1  0.50132535  0.82848547  0.16712912  1
  Fe  Fe17  1  0.33400769  0.66508245  0.33091715  1
  Cr  Cr18  1  0.66290809  0.99585547  -0.00026570  1
  Cr  Cr19  1  0.82830528  0.16444675  0.16466760  1
  Ni  Ni20  1  0.66252881  0.99607610  0.33042056  1
  Fe  Fe21  1  0.66347728  0.33601232  -0.00164997  1
  Ni  Ni22  1  0.82990862  0.50129182  0.16435355  1
  Fe  Fe23  1  0.66176774  0.33216094  0.33204007  1
  Fe  Fe24  1  0.66733758  0.66313067  -0.00160845  1
  Fe  Fe25  1  0.83077913  0.82739504  0.16584201  1
  Fe  Fe26  1  0.66537854  0.66414440  0.33125500  1
  Ni  Ni27  1  0.16746333  0.16404110  0.50101522  1
  Fe  Fe28  1  0.00108594  -0.00162968  0.66521045  1
  Fe  Fe29  1  0.16619082  0.16359143  0.82866911  1
  Cr  Cr30  1  0.16752647  0.49999157  0.49655589  1
  Cr  Cr31  1  0.99793910  0.33170079  0.66448950  1
  Cr  Cr32  1  0.16640298  0.49910399  0.83201929  1
  Fe  Fe33  1  0.16641164  0.83354846  0.49880513  1
  Cr  Cr34  1  0.99646801  0.66524237  0.66247519  1
  Fe  Fe35  1  0.16467177  0.83195219  0.83047684  1
  Ni  Ni36  1  0.49679856  0.16553897  0.49607775  1
  Fe  Fe37  1  0.32877798  0.00034024  0.66394981  1
  Cr  Cr38  1  0.49828927  0.16505644  0.83131058  1
  Ni  Ni39  1  0.49731678  0.49891516  0.49773686  1
  Ni  Ni40  1  0.33286022  0.33117947  0.66281952  1
  Fe  Fe41  1  0.49900598  0.49915632  0.82987463  1
  Cr  Cr42  1  0.49911064  0.83101578  0.49998729  1
  Fe  Fe43  1  0.33432602  0.66316334  0.66556361  1
  Fe  Fe44  1  0.49783515  0.82849349  0.82971986  1
  Cr  Cr45  1  0.82907437  0.16140819  0.49789730  1
  Cr  Cr46  1  0.66406728  0.99672005  0.66453493  1
  Fe  Fe47  1  0.83180933  0.16439882  0.83110159  1
  Fe  Fe48  1  0.82731396  0.50007552  0.49559294  1
  Cr  Cr49  1  0.66360042  0.33434962  0.66280187  1
  Fe  Fe50  1  0.82873573  0.50068153  0.83358946  1
  Fe  Fe51  1  0.83068031  0.82981315  0.49646718  1
  Fe  Fe52  1  0.66318484  0.66238062  0.66528051  1
  Fe  Fe53  1  0.83169578  0.82914210  0.83185449  1
" 