8716,Ni14Fe86_3,-242.376003179647, 199.39703782615,Ni14Fe86,"# generated using pymatgen
 data_Fe7Ni47
_symmetry_space_group_name_H-M   'P 1'
_cell_length_a   7.43558570
_cell_length_b   7.43558570
_cell_length_c   10.51550614
_cell_angle_alpha   90.00000000
_cell_angle_beta   90.00000000
_cell_angle_gamma   90.00000000
_symmetry_Int_Tables_number   1
_chemical_formula_structural   Fe7Ni47
_chemical_formula_sum   'Fe7 Ni47'
_cell_volume   581.38061681
_cell_formula_units_Z   1
loop_
 _symmetry_equiv_pos_site_id
 _symmetry_equiv_pos_as_xyz
  1  'x, y, z'
loop_
 _atom_site_type_symbol
 _atom_site_label
 _atom_site_symmetry_multiplicity
 _atom_site_fract_x
 _atom_site_fract_y
 _atom_site_fract_z
 _atom_site_occupancy
  Ni  Ni0  1  1.00201121  0.00288954  0.00276072  1
  Ni  Ni1  1  0.16872588  0.16883043  0.16887228  1
  Fe  Fe2  1  0.00211752  1.00211453  0.33544668  1
  Ni  Ni3  1  1.00086670  0.33532677  0.00216677  1
  Ni  Ni4  1  0.16933461  0.50151287  0.16902893  1
  Ni  Ni5  1  1.00181034  0.33641437  0.33524043  1
  Fe  Fe6  1  1.00187198  0.66908277  0.00245525  1
  Ni  Ni7  1  0.16944656  0.83600233  0.16838917  1
  Ni  Ni8  1  0.00242424  0.66781880  0.33475823  1
  Ni  Ni9  1  0.33550308  1.00042140  0.00227001  1
  Ni  Ni10  1  0.50192040  0.16847158  0.16862131  1
  Ni  Ni11  1  0.33605827  1.00145284  0.33488305  1
  Fe  Fe12  1  0.33510824  0.33468055  0.00233533  1
  Ni  Ni13  1  0.50186303  0.50242303  0.16878587  1
  Ni  Ni14  1  0.33486059  0.33556831  0.33434224  1
  Ni  Ni15  1  0.33524816  0.66963852  0.00252293  1
  Ni  Ni16  1  0.50211014  0.83545091  0.16898067  1
  Ni  Ni17  1  0.33490790  0.66932559  0.33554255  1
  Ni  Ni18  1  0.66883281  0.00278028  0.00222141  1
  Ni  Ni19  1  0.83570031  0.16858490  0.16857571  1
  Ni  Ni20  1  0.66816872  1.00206652  0.33488278  1
  Ni  Ni21  1  0.67034171  0.33507464  0.00246703  1
  Ni  Ni22  1  0.83514813  0.50170255  0.16873147  1
  Ni  Ni23  1  0.66967616  0.33526487  0.33518464  1
  Fe  Fe24  1  0.66868158  0.66936760  1.00199547  1
  Ni  Ni25  1  0.83478874  0.83606348  0.16892699  1
  Ni  Ni26  1  0.66901472  0.66901591  0.33469989  1
  Ni  Ni27  1  0.16812904  0.16894214  0.50212325  1
  Ni  Ni28  1  1.00201270  0.00217576  0.66864956  1
  Ni  Ni29  1  0.16795886  0.16938247  0.83535239  1
  Ni  Ni30  1  0.16957043  0.50132248  0.50237218  1
  Ni  Ni31  1  1.00176564  0.33579524  0.66893954  1
  Ni  Ni32  1  0.16952300  0.50060833  0.83494555  1
  Ni  Ni33  1  0.16962231  0.83608262  0.50296614  1
  Ni  Ni34  1  0.00231403  0.66837356  0.66942596  1
  Fe  Fe35  1  0.16859626  0.83514215  0.83529205  1
  Fe  Fe36  1  0.50211306  0.16872313  0.50153364  1
  Ni  Ni37  1  0.33540085  1.00146036  0.66919339  1
  Fe  Fe38  1  0.50298351  0.16902685  0.83575509  1
  Ni  Ni39  1  0.50186241  0.50313317  0.50231362  1
  Ni  Ni40  1  0.33504122  0.33590355  0.66948011  1
  Ni  Ni41  1  0.50162701  0.50332498  0.83524470  1
  Ni  Ni42  1  0.50217247  0.83463476  0.50206979  1
  Ni  Ni43  1  0.33520597  0.66898185  0.66828334  1
  Ni  Ni44  1  0.50276887  0.83483770  0.83529437  1
  Ni  Ni45  1  0.83636399  0.16863206  0.50242573  1
  Ni  Ni46  1  0.66893444  1.00201070  0.66924059  1
  Ni  Ni47  1  0.83671124  0.16824316  0.83534800  1
  Ni  Ni48  1  0.83491398  0.50163830  0.50267441  1
  Ni  Ni49  1  0.66954334  0.33560288  0.66869408  1
  Ni  Ni50  1  0.83519644  0.50170125  0.83494004  1
  Ni  Ni51  1  0.83455229  0.83607658  0.50242576  1
  Ni  Ni52  1  0.66882529  0.66873536  0.66917796  1
  Ni  Ni53  1  0.83399371  0.83640675  0.83499500  1
" 