8085,Ni14Fe12Cr73_12,-209.315811224558, 179.910771483356,Ni14Fe12Cr73,"# generated using pymatgen
 data_Cr41Fe6Ni7
_symmetry_space_group_name_H-M   'P 1'
_cell_length_a   7.57082321
_cell_length_b   7.57082321
_cell_length_c   10.70676086
_cell_angle_alpha   90.00000000
_cell_angle_beta   90.00000000
_cell_angle_gamma   90.00000000
_symmetry_Int_Tables_number   1
_chemical_formula_structural   Cr41Fe6Ni7
_chemical_formula_sum   'Cr41 Fe6 Ni7'
_cell_volume   613.68331007
_cell_formula_units_Z   1
loop_
 _symmetry_equiv_pos_site_id
 _symmetry_equiv_pos_as_xyz
  1  'x, y, z'
loop_
 _atom_site_type_symbol
 _atom_site_label
 _atom_site_symmetry_multiplicity
 _atom_site_fract_x
 _atom_site_fract_y
 _atom_site_fract_z
 _atom_site_occupancy
  Ni  Ni0  1  0.99249269  0.99194367  -0.00241502  1
  Ni  Ni1  1  0.15628547  0.15379466  0.15833071  1
  Fe  Fe2  1  -0.00506380  0.99082708  0.32422445  1
  Cr  Cr3  1  0.99288488  0.32419445  -0.00630250  1
  Cr  Cr4  1  0.15857795  0.49375234  0.16138431  1
  Cr  Cr5  1  0.99298211  0.32504372  0.32399553  1
  Cr  Cr6  1  -0.00566137  0.66116606  0.99313393  1
  Ni  Ni7  1  0.15575961  0.83077434  0.16011535  1
  Ni  Ni8  1  -0.00465956  0.66306023  0.32663420  1
  Ni  Ni9  1  0.32545702  0.99245000  -0.00466880  1
  Cr  Cr10  1  0.49097116  0.15819208  0.15936201  1
  Cr  Cr11  1  0.32490957  0.99149402  0.32558405  1
  Cr  Cr12  1  0.32500852  0.32510071  -0.00562499  1
  Cr  Cr13  1  0.49394782  0.49434350  0.15938036  1
  Cr  Cr14  1  0.32517964  0.32556253  0.32574837  1
  Cr  Cr15  1  0.32485848  0.66233843  -0.00566360  1
  Cr  Cr16  1  0.49353432  0.82748039  0.15718542  1
  Cr  Cr17  1  0.32306333  0.66265178  0.32676237  1
  Ni  Ni18  1  0.66146761  0.99256422  -0.00557179  1
  Fe  Fe19  1  0.82849076  0.15561851  0.15866729  1
  Cr  Cr20  1  0.66215851  -0.00595219  0.32669006  1
  Cr  Cr21  1  0.66161085  0.32471011  -0.00551235  1
  Cr  Cr22  1  0.82686622  0.49647657  0.15977697  1
  Cr  Cr23  1  0.66133365  0.32421853  0.32510841  1
  Fe  Fe24  1  0.66105920  0.66315245  -0.00581131  1
  Fe  Fe25  1  0.82946108  0.82897508  0.15957846  1
  Cr  Cr26  1  0.66104504  0.66150282  0.32501407  1
  Cr  Cr27  1  0.15962715  0.15892513  0.49353863  1
  Cr  Cr28  1  -0.00642396  0.99191214  0.65907050  1
  Cr  Cr29  1  0.16027655  0.15776200  0.82843205  1
  Fe  Fe30  1  0.15848974  0.49447776  0.49164281  1
  Cr  Cr31  1  -0.00654429  0.32710209  0.66102826  1
  Cr  Cr32  1  0.16026373  0.49195212  0.82476389  1
  Ni  Ni33  1  0.15718829  0.82587076  0.49052934  1
  Cr  Cr34  1  -0.00462616  0.66038670  0.65869125  1
  Cr  Cr35  1  0.15909017  0.82958448  0.82854515  1
  Cr  Cr36  1  0.49162729  0.16035733  0.49413190  1
  Cr  Cr37  1  0.32593877  0.99081612  0.65924296  1
  Cr  Cr38  1  0.49119219  0.15843483  0.82609758  1
  Cr  Cr39  1  0.49233899  0.49245220  0.49197715  1
  Fe  Fe40  1  0.32590926  0.32697337  0.65948153  1
  Cr  Cr41  1  0.49314555  0.49370072  0.82823938  1
  Cr  Cr42  1  0.49265718  0.82659413  0.49308604  1
  Cr  Cr43  1  0.32440864  0.66068294  0.65792700  1
  Cr  Cr44  1  0.49389381  0.82796700  0.82963587  1
  Cr  Cr45  1  0.82858671  0.15900066  0.49207595  1
  Cr  Cr46  1  0.66010965  -0.00672340  0.65877305  1
  Cr  Cr47  1  0.82801952  0.15732100  0.82743149  1
  Cr  Cr48  1  0.82804743  0.49434962  0.49210457  1
  Cr  Cr49  1  0.66063374  0.32553119  0.65953193  1
  Cr  Cr50  1  0.82626390  0.49504912  0.82733577  1
  Cr  Cr51  1  0.82951622  0.82579449  0.49143599  1
  Cr  Cr52  1  0.65952178  0.66080126  0.66143927  1
  Cr  Cr53  1  0.82673010  0.82739085  0.82860739  1
" 