6421,Ni14Fe86_6,-242.340643187803, 198.91455628285,Ni14Fe86,"# generated using pymatgen
 data_Fe7Ni47
_symmetry_space_group_name_H-M   'P 1'
_cell_length_a   7.43359403
_cell_length_b   7.43359403
_cell_length_c   10.51268949
_cell_angle_alpha   90.00000000
_cell_angle_beta   90.00000000
_cell_angle_gamma   90.00000000
_symmetry_Int_Tables_number   1
_chemical_formula_structural   Fe7Ni47
_chemical_formula_sum   'Fe7 Ni47'
_cell_volume   580.91356159
_cell_formula_units_Z   1
loop_
 _symmetry_equiv_pos_site_id
 _symmetry_equiv_pos_as_xyz
  1  'x, y, z'
loop_
 _atom_site_type_symbol
 _atom_site_label
 _atom_site_symmetry_multiplicity
 _atom_site_fract_x
 _atom_site_fract_y
 _atom_site_fract_z
 _atom_site_occupancy
  Ni  Ni0  1  0.00344876  1.00173843  1.00150015  1
  Fe  Fe1  1  0.16820014  0.16882339  0.16893357  1
  Ni  Ni2  1  1.00210340  1.00181985  0.33520695  1
  Ni  Ni3  1  0.00252393  0.33632823  0.00242737  1
  Ni  Ni4  1  0.16886867  0.50266821  0.16943359  1
  Ni  Ni5  1  0.00311389  0.33549884  0.33559154  1
  Ni  Ni6  1  1.00205757  0.66866163  0.00265426  1
  Ni  Ni7  1  0.16920179  0.83466591  0.16923451  1
  Ni  Ni8  1  0.00280306  0.66938182  0.33571987  1
  Ni  Ni9  1  0.33572694  0.00259252  0.00322756  1
  Ni  Ni10  1  0.50330411  0.16884757  0.16984789  1
  Fe  Fe11  1  0.33543033  1.00161693  0.33560495  1
  Fe  Fe12  1  0.33571905  0.33481968  1.00224895  1
  Ni  Ni13  1  0.50184623  0.50178420  0.16815984  1
  Ni  Ni14  1  0.33575049  0.33634954  0.33487748  1
  Fe  Fe15  1  0.33507209  0.66998623  0.00325497  1
  Ni  Ni16  1  0.50189908  0.83607017  0.16919025  1
  Ni  Ni17  1  0.33575153  0.66795017  0.33567311  1
  Ni  Ni18  1  0.66757330  1.00212193  1.00183775  1
  Ni  Ni19  1  0.83453199  0.16917826  0.16817431  1
  Ni  Ni20  1  0.66910569  1.00196125  0.33544534  1
  Ni  Ni21  1  0.66847614  0.33599736  1.00208790  1
  Ni  Ni22  1  0.83592285  0.50123770  0.16990438  1
  Ni  Ni23  1  0.66780803  0.33578353  0.33585224  1
  Ni  Ni24  1  0.66913573  0.66864630  0.00295512  1
  Ni  Ni25  1  0.83559425  0.83633659  0.16859173  1
  Ni  Ni26  1  0.66817891  0.66901958  0.33480966  1
  Ni  Ni27  1  0.16825863  0.16934856  0.50167899  1
  Ni  Ni28  1  0.00338363  1.00184821  0.67012246  1
  Ni  Ni29  1  0.16944840  0.16928769  0.83639752  1
  Ni  Ni30  1  0.16943523  0.50156996  0.50221270  1
  Ni  Ni31  1  0.00334074  0.33596651  0.66880785  1
  Ni  Ni32  1  0.16856146  0.50243940  0.83511878  1
  Ni  Ni33  1  0.16940312  0.83580874  0.50247217  1
  Ni  Ni34  1  1.00167260  0.66894814  0.66837693  1
  Ni  Ni35  1  0.17018169  0.83505412  0.83503252  1
  Fe  Fe36  1  0.50247637  0.16939059  0.50250756  1
  Ni  Ni37  1  0.33531723  0.00319591  0.66791767  1
  Ni  Ni38  1  0.50228325  0.16796024  0.83482375  1
  Ni  Ni39  1  0.50190586  0.50264345  0.50259908  1
  Ni  Ni40  1  0.33521314  0.33464538  0.66967958  1
  Fe  Fe41  1  0.50317480  0.50230648  0.83519632  1
  Ni  Ni42  1  0.50232272  0.83521514  0.50164093  1
  Fe  Fe43  1  0.33548374  0.66928238  0.66785721  1
  Ni  Ni44  1  0.50153937  0.83641028  0.83593919  1
  Ni  Ni45  1  0.83601534  0.16902391  0.50311849  1
  Ni  Ni46  1  0.66802630  1.00144254  0.66954195  1
  Ni  Ni47  1  0.83507513  0.16961588  0.83545776  1
  Ni  Ni48  1  0.83540963  0.50140007  0.50138324  1
  Ni  Ni49  1  0.66822014  0.33625298  0.66873048  1
  Ni  Ni50  1  0.83655620  0.50167666  0.83546276  1
  Ni  Ni51  1  0.83506765  0.83632571  0.50225945  1
  Ni  Ni52  1  0.66953402  0.66911591  0.66882886  1
  Ni  Ni53  1  0.83505439  0.83544809  0.83589931  1
" 