2955,Ni14Fe86_1,-242.147427426189, 199.021083403072,Ni14Fe86,"# generated using pymatgen
 data_Fe7Ni47
_symmetry_space_group_name_H-M   'P 1'
_cell_length_a   7.43194861
_cell_length_b   7.43194861
_cell_length_c   10.51036252
_cell_angle_alpha   90.00000000
_cell_angle_beta   90.00000000
_cell_angle_gamma   90.00000000
_symmetry_Int_Tables_number   1
_chemical_formula_structural   Fe7Ni47
_chemical_formula_sum   'Fe7 Ni47'
_cell_volume   580.52789289
_cell_formula_units_Z   1
loop_
 _symmetry_equiv_pos_site_id
 _symmetry_equiv_pos_as_xyz
  1  'x, y, z'
loop_
 _atom_site_type_symbol
 _atom_site_label
 _atom_site_symmetry_multiplicity
 _atom_site_fract_x
 _atom_site_fract_y
 _atom_site_fract_z
 _atom_site_occupancy
  Ni  Ni0  1  0.00314056  1.00213702  0.00313570  1
  Ni  Ni1  1  0.16869674  0.16975341  0.16871342  1
  Fe  Fe2  1  1.00176397  1.00176405  0.33569761  1
  Ni  Ni3  1  0.00288250  0.33608059  1.00232886  1
  Ni  Ni4  1  0.16977556  0.50212665  0.16876703  1
  Ni  Ni5  1  1.00202921  0.33648260  0.33548313  1
  Ni  Ni6  1  1.00200400  0.66886942  1.00200570  1
  Ni  Ni7  1  0.16898486  0.83520159  0.16846366  1
  Ni  Ni8  1  0.00289246  0.66793450  0.33634066  1
  Ni  Ni9  1  0.33535377  0.00266194  1.00217675  1
  Ni  Ni10  1  0.50299508  0.16939719  0.16848660  1
  Ni  Ni11  1  0.33612807  1.00148840  0.33597759  1
  Ni  Ni12  1  0.33499922  0.33492848  0.00298749  1
  Ni  Ni13  1  0.50186761  0.50242032  0.16859605  1
  Fe  Fe14  1  0.33624880  0.33634017  0.33557243  1
  Fe  Fe15  1  0.33543408  0.66916910  0.00262262  1
  Ni  Ni16  1  0.50298687  0.83527347  0.16911335  1
  Ni  Ni17  1  0.33527027  0.67027368  0.33520412  1
  Ni  Ni18  1  0.66858483  1.00178877  0.00239978  1
  Ni  Ni19  1  0.83539122  0.16862364  0.16865115  1
  Ni  Ni20  1  0.66775752  1.00235572  0.33574932  1
  Ni  Ni21  1  0.66920046  0.33608023  0.00240484  1
  Fe  Fe22  1  0.83571168  0.50237604  0.16902989  1
  Ni  Ni23  1  0.67012092  0.33561468  0.33578927  1
  Ni  Ni24  1  0.66973605  0.66921903  0.00297992  1
  Ni  Ni25  1  0.83510004  0.83634077  0.16849617  1
  Ni  Ni26  1  0.66892435  0.66911620  0.33579168  1
  Ni  Ni27  1  0.16901773  0.16953555  0.50241666  1
  Ni  Ni28  1  0.00287316  0.00302922  0.66850235  1
  Ni  Ni29  1  0.16854449  0.16975864  0.83595016  1
  Ni  Ni30  1  0.16933879  0.50212361  0.50266970  1
  Ni  Ni31  1  0.00254316  0.33530959  0.66927580  1
  Ni  Ni32  1  0.16888690  0.50166403  0.83564111  1
  Ni  Ni33  1  0.16943793  0.83542782  0.50267653  1
  Fe  Fe34  1  0.00240680  0.66902485  0.66910841  1
  Ni  Ni35  1  0.16972327  0.83565660  0.83595542  1
  Ni  Ni36  1  0.50271764  0.16917556  0.50272025  1
  Ni  Ni37  1  0.33511885  1.00178100  0.66892788  1
  Fe  Fe38  1  0.50228571  0.16849271  0.83573437  1
  Ni  Ni39  1  0.50239790  0.50248580  0.50287331  1
  Ni  Ni40  1  0.33475937  0.33586287  0.66803517  1
  Fe  Fe41  1  0.50268926  0.50268139  0.83542362  1
  Ni  Ni42  1  0.50264647  0.83543195  0.50205792  1
  Ni  Ni43  1  0.33600556  0.66943901  0.66917225  1
  Ni  Ni44  1  0.50272124  0.83557230  0.83591171  1
  Ni  Ni45  1  0.83534844  0.16927852  0.50271467  1
  Ni  Ni46  1  0.66908851  1.00178418  0.66893092  1
  Ni  Ni47  1  0.83587766  0.16942893  0.83572317  1
  Ni  Ni48  1  0.83535781  0.50205426  0.50209116  1
  Ni  Ni49  1  0.66977842  0.33618578  0.66888904  1
  Ni  Ni50  1  0.83581120  0.50174012  0.83623062  1
  Ni  Ni51  1  0.83498452  0.83574450  0.50291370  1
  Ni  Ni52  1  0.66852956  0.66911237  0.66831592  1
  Ni  Ni53  1  0.83464236  0.83591459  0.83568680  1
" 