4022,Ni14Fe12Cr73_13,-209.241406456083, 177.857630387755,Ni14Fe12Cr73,"# generated using pymatgen
 data_Cr41Fe6Ni7
_symmetry_space_group_name_H-M   'P 1'
_cell_length_a   7.57236015
_cell_length_b   7.57236015
_cell_length_c   10.70893443
_cell_angle_alpha   90.00000000
_cell_angle_beta   90.00000000
_cell_angle_gamma   90.00000000
_symmetry_Int_Tables_number   1
_chemical_formula_structural   Cr41Fe6Ni7
_chemical_formula_sum   'Cr41 Fe6 Ni7'
_cell_volume   614.05713509
_cell_formula_units_Z   1
loop_
 _symmetry_equiv_pos_site_id
 _symmetry_equiv_pos_as_xyz
  1  'x, y, z'
loop_
 _atom_site_type_symbol
 _atom_site_label
 _atom_site_symmetry_multiplicity
 _atom_site_fract_x
 _atom_site_fract_y
 _atom_site_fract_z
 _atom_site_occupancy
  Cr  Cr0  1  0.99254546  -0.00400760  -0.00392996  1
  Ni  Ni1  1  0.15970216  0.16409107  0.16042811  1
  Cr  Cr2  1  0.99272483  -0.00570593  0.32263472  1
  Ni  Ni3  1  0.98943173  0.32679075  0.99226329  1
  Cr  Cr4  1  0.15974302  0.49220653  0.16006796  1
  Cr  Cr5  1  -0.00502565  0.32587591  0.32803902  1
  Cr  Cr6  1  0.99222868  0.65813332  -0.00647502  1
  Cr  Cr7  1  0.15787366  0.82727206  0.15769575  1
  Cr  Cr8  1  0.99295613  0.65907893  0.32612174  1
  Cr  Cr9  1  0.32705431  0.99290498  0.99232956  1
  Cr  Cr10  1  0.49263296  0.16277009  0.16040854  1
  Cr  Cr11  1  0.32569342  -0.00643001  0.32545420  1
  Cr  Cr12  1  0.32538328  0.32675275  -0.00354622  1
  Fe  Fe13  1  0.49438543  0.49290080  0.15797572  1
  Fe  Fe14  1  0.32499470  0.32576215  0.32576351  1
  Cr  Cr15  1  0.32969619  0.65981225  0.99149659  1
  Cr  Cr16  1  0.49412350  0.82579319  0.15833803  1
  Cr  Cr17  1  0.32725267  0.65779480  0.32636945  1
  Cr  Cr18  1  0.65994075  0.99302484  0.99219124  1
  Cr  Cr19  1  0.82558388  0.16087456  0.15796247  1
  Cr  Cr20  1  0.65959576  0.99168585  0.32710198  1
  Ni  Ni21  1  0.66245537  0.32876504  0.99220333  1
  Cr  Cr22  1  0.82502601  0.49359319  0.15757829  1
  Cr  Cr23  1  0.65951359  0.32727614  0.32528030  1
  Fe  Fe24  1  0.66145107  0.65875823  0.99230615  1
  Ni  Ni25  1  0.82404405  0.82453502  0.15924482  1
  Cr  Cr26  1  0.65872984  0.66026922  0.32437927  1
  Fe  Fe27  1  0.16019244  0.15898297  0.49209832  1
  Cr  Cr28  1  0.99213897  -0.00435198  0.66051453  1
  Cr  Cr29  1  0.15918136  0.16056864  0.82829372  1
  Fe  Fe30  1  0.16077615  0.49256342  0.49240418  1
  Cr  Cr31  1  0.99224649  0.32655575  0.66104550  1
  Cr  Cr32  1  0.15738178  0.49265679  0.82613673  1
  Cr  Cr33  1  0.15930264  0.82611815  0.49453554  1
  Cr  Cr34  1  0.99281313  0.65709697  0.65892602  1
  Cr  Cr35  1  0.16080097  0.82623750  0.82680117  1
  Cr  Cr36  1  0.49216176  0.15948253  0.49216738  1
  Cr  Cr37  1  0.32817846  0.99198063  0.66167380  1
  Cr  Cr38  1  0.49431936  0.16027973  0.82662180  1
  Cr  Cr39  1  0.49288643  0.49181559  0.49051042  1
  Cr  Cr40  1  0.32496573  0.32710020  0.65637002  1
  Cr  Cr41  1  0.49528206  0.49165400  0.82958094  1
  Ni  Ni42  1  0.49019392  0.82592426  0.49365679  1
  Cr  Cr43  1  0.32846118  0.65952753  0.66067979  1
  Ni  Ni44  1  0.49671918  0.82570322  0.82645166  1
  Cr  Cr45  1  0.82571340  0.16009537  0.49414292  1
  Cr  Cr46  1  0.65890741  0.99222141  0.65935695  1
  Fe  Fe47  1  0.82598763  0.16156121  0.82908681  1
  Cr  Cr48  1  0.82671634  0.49318977  0.49385938  1
  Cr  Cr49  1  0.66159477  0.32661948  0.66274252  1
  Ni  Ni50  1  0.82574172  0.49014077  0.82935620  1
  Cr  Cr51  1  0.82600911  0.82632504  0.49053855  1
  Cr  Cr52  1  0.65847732  0.65967084  0.66041659  1
  Cr  Cr53  1  0.82761117  0.82419979  0.82684664  1
" 