3621,Ni14Fe12Cr73_15,-209.3626224393, 179.514559930564,Ni14Fe12Cr73,"# generated using pymatgen
 data_Cr41Fe6Ni7
_symmetry_space_group_name_H-M   'P 1'
_cell_length_a   7.56908576
_cell_length_b   7.56908576
_cell_length_c   10.70430374
_cell_angle_alpha   90.00000000
_cell_angle_beta   90.00000000
_cell_angle_gamma   90.00000000
_symmetry_Int_Tables_number   1
_chemical_formula_structural   Cr41Fe6Ni7
_chemical_formula_sum   'Cr41 Fe6 Ni7'
_cell_volume   613.26090024
_cell_formula_units_Z   1
loop_
 _symmetry_equiv_pos_site_id
 _symmetry_equiv_pos_as_xyz
  1  'x, y, z'
loop_
 _atom_site_type_symbol
 _atom_site_label
 _atom_site_symmetry_multiplicity
 _atom_site_fract_x
 _atom_site_fract_y
 _atom_site_fract_z
 _atom_site_occupancy
  Cr  Cr0  1  -0.00649313  0.99057129  0.99119185  1
  Cr  Cr1  1  0.15954638  0.15928971  0.16128572  1
  Cr  Cr2  1  0.99302494  0.99102651  0.32851789  1
  Cr  Cr3  1  0.99177231  0.32693325  0.99282562  1
  Cr  Cr4  1  0.15581875  0.49442628  0.15885179  1
  Cr  Cr5  1  0.99165982  0.32675013  0.32779327  1
  Ni  Ni6  1  -0.00670331  0.66218240  0.99185730  1
  Ni  Ni7  1  0.15655415  0.82374406  0.15699939  1
  Cr  Cr8  1  0.99309423  0.66164807  0.32432998  1
  Cr  Cr9  1  0.32372457  0.99264220  -0.00503676  1
  Ni  Ni10  1  0.49553001  0.16035971  0.15973848  1
  Cr  Cr11  1  0.32406930  0.99224038  0.32269368  1
  Cr  Cr12  1  0.32728515  0.32688016  -0.00503837  1
  Cr  Cr13  1  0.49447258  0.49460195  0.15962406  1
  Cr  Cr14  1  0.32789001  0.32841957  0.32604984  1
  Cr  Cr15  1  0.32325438  0.66105247  0.99180825  1
  Cr  Cr16  1  0.49423288  0.82930633  0.16049172  1
  Cr  Cr17  1  0.32593260  0.65897388  0.32831759  1
  Cr  Cr18  1  0.66276749  -0.00614192  0.98962463  1
  Cr  Cr19  1  0.82572755  0.15944407  0.16071132  1
  Cr  Cr20  1  0.66284661  0.99313826  0.32996042  1
  Cr  Cr21  1  0.66047965  0.32653146  -0.00661463  1
  Fe  Fe22  1  0.82767743  0.49380339  0.15864481  1
  Cr  Cr23  1  0.65947644  0.32837074  0.32652857  1
  Cr  Cr24  1  0.66305893  0.65956204  -0.00641605  1
  Cr  Cr25  1  0.82673519  0.82486530  0.15956169  1
  Cr  Cr26  1  0.66124101  0.65811100  0.32837313  1
  Cr  Cr27  1  0.15751690  0.16147824  0.49319858  1
  Cr  Cr28  1  0.99193017  0.99197978  0.66001699  1
  Cr  Cr29  1  0.15842349  0.16229918  0.82611232  1
  Cr  Cr30  1  0.15883051  0.49300373  0.49726460  1
  Fe  Fe31  1  0.99028513  0.32560981  0.66058987  1
  Cr  Cr32  1  0.15797407  0.49487726  0.82316920  1
  Cr  Cr33  1  0.15913343  0.82548183  0.49402199  1
  Fe  Fe34  1  0.99120204  0.66233817  0.66123653  1
  Fe  Fe35  1  0.15639086  0.82518531  0.82660876  1
  Cr  Cr36  1  0.49239744  0.15843903  0.49204894  1
  Cr  Cr37  1  0.32337262  0.99189471  0.66223494  1
  Cr  Cr38  1  0.49419629  0.15884556  0.82894796  1
  Ni  Ni39  1  0.49377479  0.49337228  0.49495853  1
  Cr  Cr40  1  0.32771901  0.32818440  0.65902503  1
  Cr  Cr41  1  0.49242489  0.49498582  0.82500045  1
  Cr  Cr42  1  0.49512674  0.82590358  0.49363522  1
  Fe  Fe43  1  0.32652579  0.66092966  0.65905948  1
  Cr  Cr44  1  0.49500396  0.82597268  0.82579822  1
  Fe  Fe45  1  0.82623097  0.15959719  0.49482940  1
  Cr  Cr46  1  0.66370260  0.99265557  0.66062332  1
  Ni  Ni47  1  0.82955895  0.15797574  0.82399466  1
  Cr  Cr48  1  0.82889674  0.49415405  0.49286876  1
  Cr  Cr49  1  0.66119208  0.32702073  0.66013211  1
  Cr  Cr50  1  0.82905244  0.49426999  0.82912314  1
  Ni  Ni51  1  0.82846310  0.82570373  0.49461418  1
  Cr  Cr52  1  0.66130499  0.65953225  0.65830176  1
  Ni  Ni53  1  0.83070954  0.82559249  0.82592532  1
" 