8843,Ni14Fe86_11,-242.521017482661, 199.644312869534,Ni14Fe86,"# generated using pymatgen
 data_Fe7Ni47
_symmetry_space_group_name_H-M   'P 1'
_cell_length_a   7.43591145
_cell_length_b   7.43591145
_cell_length_c   10.51596682
_cell_angle_alpha   90.00000000
_cell_angle_beta   90.00000000
_cell_angle_gamma   90.00000000
_symmetry_Int_Tables_number   1
_chemical_formula_structural   Fe7Ni47
_chemical_formula_sum   'Fe7 Ni47'
_cell_volume   581.45703083
_cell_formula_units_Z   1
loop_
 _symmetry_equiv_pos_site_id
 _symmetry_equiv_pos_as_xyz
  1  'x, y, z'
loop_
 _atom_site_type_symbol
 _atom_site_label
 _atom_site_symmetry_multiplicity
 _atom_site_fract_x
 _atom_site_fract_y
 _atom_site_fract_z
 _atom_site_occupancy
  Ni  Ni0  1  1.00175998  1.00116371  1.00148682  1
  Ni  Ni1  1  0.16731555  0.16802862  0.16900314  1
  Ni  Ni2  1  0.00209398  1.00149806  0.33568048  1
  Ni  Ni3  1  1.00140825  0.33620524  1.00124165  1
  Ni  Ni4  1  0.16851481  0.50230119  0.16906055  1
  Ni  Ni5  1  1.00168566  0.33597264  0.33597866  1
  Ni  Ni6  1  0.00264967  0.66890992  1.00184118  1
  Ni  Ni7  1  0.17000587  0.83595104  0.16876214  1
  Ni  Ni8  1  0.00209584  0.66880753  0.33562348  1
  Ni  Ni9  1  0.33600690  1.00135493  1.00178608  1
  Fe  Fe10  1  0.50163779  0.16927739  0.16870126  1
  Ni  Ni11  1  0.33577590  1.00163370  0.33543306  1
  Ni  Ni12  1  0.33630490  0.33596480  1.00154252  1
  Ni  Ni13  1  0.50272108  0.50344228  0.16911490  1
  Ni  Ni14  1  0.33607375  0.33573098  0.33573404  1
  Ni  Ni15  1  0.33487350  0.66896320  1.00130482  1
  Ni  Ni16  1  0.50124341  0.83482554  0.16881640  1
  Ni  Ni17  1  0.33553209  0.66891833  0.33621373  1
  Ni  Ni18  1  0.66851382  0.00259647  1.00120277  1
  Ni  Ni19  1  0.83617117  0.16950680  0.16876208  1
  Ni  Ni20  1  0.66841191  1.00204080  0.33626234  1
  Ni  Ni21  1  0.66856605  0.33507314  1.00178605  1
  Ni  Ni22  1  0.83504476  0.50075241  0.16881591  1
  Ni  Ni23  1  0.66851991  0.33572892  0.33573147  1
  Fe  Fe24  1  0.66836458  0.66854336  0.00227128  1
  Fe  Fe25  1  0.83621992  0.83518886  0.16852142  1
  Ni  Ni26  1  0.66865601  0.66851109  0.33538221  1
  Ni  Ni27  1  0.16793227  0.16807374  0.50180023  1
  Ni  Ni28  1  0.00265131  1.00097641  0.66911470  1
  Ni  Ni29  1  0.16816478  0.16830631  0.83547780  1
  Ni  Ni30  1  0.16817410  0.50242539  0.50144806  1
  Ni  Ni31  1  1.00140782  0.33616057  0.66906055  1
  Ni  Ni32  1  0.16840684  0.50214786  0.83577219  1
  Ni  Ni33  1  0.16966547  0.83578068  0.50169085  1
  Ni  Ni34  1  1.00175497  0.66914300  0.66881687  1
  Ni  Ni35  1  0.16900692  0.83582541  0.83582769  1
  Ni  Ni36  1  0.50272390  0.16812904  0.50115801  1
  Ni  Ni37  1  0.33546287  0.00211481  0.66906046  1
  Ni  Ni38  1  0.50244530  0.16836265  0.83606347  1
  Ni  Ni39  1  0.50278461  0.50267485  0.50163694  1
  Ni  Ni40  1  0.33664708  0.33496298  0.66900308  1
  Ni  Ni41  1  0.50244867  0.50233920  0.83552886  1
  Ni  Ni42  1  0.50124190  0.83547734  0.50188733  1
  Fe  Fe43  1  0.33441061  0.66830185  0.66876166  1
  Ni  Ni44  1  0.50179279  0.83557949  0.83557759  1
  Ni  Ni45  1  0.83562680  0.16961679  0.50204587  1
  Fe  Fe46  1  0.66899996  0.00338677  0.66909828  1
  Ni  Ni47  1  0.83567245  0.16896257  0.83547374  1
  Ni  Ni48  1  0.83532073  0.50094301  0.50169004  1
  Ni  Ni49  1  0.66822586  0.33585935  0.66876193  1
  Ni  Ni50  1  0.83542310  0.50149874  0.83577443  1
  Fe  Fe51  1  0.83598051  0.83536417  0.50211695  1
  Fe  Fe52  1  0.66903803  0.66793111  0.66852143  1
  Ni  Ni53  1  0.83547954  0.83582124  0.83582682  1
" 