6521,Ni14Fe12Cr73_2,-209.426150755859, 181.232385719982,Ni14Fe12Cr73,"# generated using pymatgen
 data_Cr41Fe6Ni7
_symmetry_space_group_name_H-M   'P 1'
_cell_length_a   7.56857993
_cell_length_b   7.56857993
_cell_length_c   10.70358839
_cell_angle_alpha   90.00000000
_cell_angle_beta   90.00000000
_cell_angle_gamma   90.00000000
_symmetry_Int_Tables_number   1
_chemical_formula_structural   Cr41Fe6Ni7
_chemical_formula_sum   'Cr41 Fe6 Ni7'
_cell_volume   613.13795845
_cell_formula_units_Z   1
loop_
 _symmetry_equiv_pos_site_id
 _symmetry_equiv_pos_as_xyz
  1  'x, y, z'
loop_
 _atom_site_type_symbol
 _atom_site_label
 _atom_site_symmetry_multiplicity
 _atom_site_fract_x
 _atom_site_fract_y
 _atom_site_fract_z
 _atom_site_occupancy
  Cr  Cr0  1  -0.00469495  -0.00552023  0.99232228  1
  Ni  Ni1  1  0.16037890  0.16503186  0.15929436  1
  Cr  Cr2  1  -0.00635258  0.99328895  0.32679181  1
  Fe  Fe3  1  -0.00520923  0.32656699  -0.00630440  1
  Cr  Cr4  1  0.15884770  0.49002816  0.16050721  1
  Ni  Ni5  1  -0.00658677  0.32669277  0.32319092  1
  Cr  Cr6  1  0.99176797  0.65808740  0.99326359  1
  Cr  Cr7  1  0.16080125  0.82782216  0.16102386  1
  Cr  Cr8  1  0.99164520  0.65881019  0.32695224  1
  Cr  Cr9  1  0.32677767  -0.00230886  -0.00561274  1
  Ni  Ni10  1  0.49146914  0.16289080  0.15986431  1
  Cr  Cr11  1  0.32721074  -0.00454920  0.32316478  1
  Cr  Cr12  1  0.32704115  0.32402321  0.99024397  1
  Fe  Fe13  1  0.49367100  0.49154971  0.15851910  1
  Cr  Cr14  1  0.32833113  0.32490145  0.32600820  1
  Cr  Cr15  1  0.32588836  0.65808331  0.99277247  1
  Cr  Cr16  1  0.49373141  0.82488235  0.15801438  1
  Cr  Cr17  1  0.32662734  0.65948182  0.32718485  1
  Cr  Cr18  1  0.65822360  -0.00448049  -0.00617643  1
  Cr  Cr19  1  0.82967195  0.16302624  0.16107996  1
  Cr  Cr20  1  0.65895164  -0.00506914  0.32565713  1
  Cr  Cr21  1  0.65864541  0.32660195  -0.00442425  1
  Fe  Fe22  1  0.82644169  0.49161417  0.15916495  1
  Cr  Cr23  1  0.66007655  0.32676274  0.32468481  1
  Ni  Ni24  1  0.66134353  0.65659498  -0.00567954  1
  Cr  Cr25  1  0.82517080  0.82559650  0.15744627  1
  Cr  Cr26  1  0.66147767  0.65798924  0.32512799  1
  Cr  Cr27  1  0.15746355  0.16170592  0.49175289  1
  Fe  Fe28  1  0.99287037  -0.00567515  0.66066126  1
  Fe  Fe29  1  0.16082220  0.16195973  0.82754683  1
  Cr  Cr30  1  0.16002883  0.49061288  0.49203735  1
  Cr  Cr31  1  -0.00546537  0.32796177  0.66242421  1
  Ni  Ni32  1  0.15897172  0.49003277  0.82745551  1
  Cr  Cr33  1  0.16072318  0.82773316  0.49203706  1
  Cr  Cr34  1  0.99320588  0.66039064  0.65990905  1
  Cr  Cr35  1  0.16020319  0.82621683  0.82686608  1
  Cr  Cr36  1  0.49442538  0.15912305  0.49404553  1
  Cr  Cr37  1  0.32718577  -0.00437400  0.66189897  1
  Ni  Ni38  1  0.49375156  0.15915989  0.82561898  1
  Cr  Cr39  1  0.49282209  0.49423354  0.49426805  1
  Cr  Cr40  1  0.32688910  0.32586919  0.66325917  1
  Cr  Cr41  1  0.49277485  0.49426794  0.82647081  1
  Cr  Cr42  1  0.49430259  0.82651418  0.49533344  1
  Cr  Cr43  1  0.32368212  0.65852609  0.65985213  1
  Cr  Cr44  1  0.49544059  0.82682856  0.82679982  1
  Cr  Cr45  1  0.82799060  0.16001133  0.49391649  1
  Ni  Ni46  1  0.66021219  -0.00647011  0.66153851  1
  Cr  Cr47  1  0.82685704  0.15946764  0.82514128  1
  Cr  Cr48  1  0.82703819  0.49072856  0.49199406  1
  Cr  Cr49  1  0.65865787  0.32453658  0.65966571  1
  Cr  Cr50  1  0.82694734  0.49259621  0.82949830  1
  Cr  Cr51  1  0.82467253  0.82919882  0.49741073  1
  Fe  Fe52  1  0.66002921  0.66051330  0.66101536  1
  Cr  Cr53  1  0.82394477  0.82772728  0.82529598  1
" 