7899,Ni14Fe52Cr33_17,-223.335400288576, 177.263781275762,Ni14Fe52Cr33,"# generated using pymatgen
 data_Cr19(Fe4Ni)7
_symmetry_space_group_name_H-M   'P 1'
_cell_length_a   7.49111146
_cell_length_b   7.49111146
_cell_length_c   10.59403142
_cell_angle_alpha   90.00000000
_cell_angle_beta   90.00000000
_cell_angle_gamma   90.00000000
_symmetry_Int_Tables_number   1
_chemical_formula_structural   Cr19(Fe4Ni)7
_chemical_formula_sum   'Cr19 Fe28 Ni7'
_cell_volume   594.50262212
_cell_formula_units_Z   1
loop_
 _symmetry_equiv_pos_site_id
 _symmetry_equiv_pos_as_xyz
  1  'x, y, z'
loop_
 _atom_site_type_symbol
 _atom_site_label
 _atom_site_symmetry_multiplicity
 _atom_site_fract_x
 _atom_site_fract_y
 _atom_site_fract_z
 _atom_site_occupancy
  Ni  Ni0  1  0.99651993  0.00188011  0.99793620  1
  Cr  Cr1  1  0.16385853  0.16363856  0.16437292  1
  Cr  Cr2  1  0.99637877  0.00260988  0.33442027  1
  Fe  Fe3  1  0.99481357  0.33060113  -0.00122391  1
  Cr  Cr4  1  0.16378720  0.49706846  0.16225701  1
  Ni  Ni5  1  -0.00147953  0.33040510  0.33220839  1
  Fe  Fe6  1  0.99668719  0.66504800  0.99794088  1
  Cr  Cr7  1  0.16555377  0.83454785  0.16660235  1
  Cr  Cr8  1  -0.00145092  0.66325351  0.33304106  1
  Fe  Fe9  1  0.33436645  0.00046122  0.99801596  1
  Fe  Fe10  1  0.50048496  0.16549946  0.16519660  1
  Fe  Fe11  1  0.33249622  0.00020034  0.33516040  1
  Fe  Fe12  1  0.33507205  0.32884061  -0.00053479  1
  Ni  Ni13  1  0.50141313  0.49565758  0.16644529  1
  Cr  Cr14  1  0.33193843  0.33240757  0.33047351  1
  Cr  Cr15  1  0.33256045  0.66164852  -0.00028342  1
  Cr  Cr16  1  0.49783047  0.83361528  0.16707994  1
  Fe  Fe17  1  0.33178687  0.66447629  0.33362167  1
  Fe  Fe18  1  0.66532625  0.00164584  0.99762237  1
  Fe  Fe19  1  0.82943794  0.16712390  0.16594527  1
  Ni  Ni20  1  0.66439407  0.00070229  0.33196731  1
  Ni  Ni21  1  0.66447254  0.32914311  0.00075805  1
  Fe  Fe22  1  0.83079782  0.49478846  0.16488044  1
  Fe  Fe23  1  0.66824020  0.32913052  0.33086397  1
  Cr  Cr24  1  0.66347892  0.66400989  0.99798427  1
  Cr  Cr25  1  0.83168341  0.83375314  0.16343013  1
  Cr  Cr26  1  0.66365674  0.66317521  0.33267625  1
  Ni  Ni27  1  0.16543715  0.16554450  0.49879034  1
  Cr  Cr28  1  0.99673404  0.00095177  0.66243292  1
  Cr  Cr29  1  0.16604788  0.16682550  0.83125662  1
  Fe  Fe30  1  0.16301967  0.49429877  0.49836902  1
  Fe  Fe31  1  -0.00159237  0.33244517  0.66179275  1
  Fe  Fe32  1  0.16424681  0.49705833  0.83172679  1
  Fe  Fe33  1  0.16609732  0.83348806  0.49823294  1
  Fe  Fe34  1  0.99826758  0.66526282  0.66280595  1
  Cr  Cr35  1  0.16430749  0.83283378  0.83325499  1
  Fe  Fe36  1  0.49971022  0.16468921  0.49814446  1
  Fe  Fe37  1  0.33267925  -0.00081701  0.66332050  1
  Fe  Fe38  1  0.49981178  0.16501007  0.83322855  1
  Fe  Fe39  1  0.49923288  0.49394925  0.49805366  1
  Fe  Fe40  1  0.33202654  0.32824897  0.66240102  1
  Cr  Cr41  1  0.49930666  0.49431564  0.83027094  1
  Fe  Fe42  1  0.49802337  0.83620886  0.49687531  1
  Cr  Cr43  1  0.33134578  0.66220157  0.66297968  1
  Fe  Fe44  1  0.49746657  0.83405502  0.83263495  1
  Ni  Ni45  1  0.83057090  0.16817018  0.49770921  1
  Cr  Cr46  1  0.66655572  -0.00006232  0.66835543  1
  Fe  Fe47  1  0.83109470  0.16638822  0.83354150  1
  Fe  Fe48  1  0.83277167  0.49462202  0.49908119  1
  Fe  Fe49  1  0.66574268  0.32992797  0.66377137  1
  Cr  Cr50  1  0.83247014  0.49696372  0.83017541  1
  Fe  Fe51  1  0.83019936  0.83449557  0.49726405  1
  Cr  Cr52  1  0.66501670  0.66724664  0.66379235  1
  Fe  Fe53  1  0.83257143  0.83361327  0.83414706  1
" 