6465,Ni14Fe52Cr33_4,-223.178704964545, 176.535285561405,Ni14Fe52Cr33,"# generated using pymatgen
 data_Cr19(Fe4Ni)7
_symmetry_space_group_name_H-M   'P 1'
_cell_length_a   7.49151439
_cell_length_b   7.49151439
_cell_length_c   10.59460126
_cell_angle_alpha   90.00000000
_cell_angle_beta   90.00000000
_cell_angle_gamma   90.00000000
_symmetry_Int_Tables_number   1
_chemical_formula_structural   Cr19(Fe4Ni)7
_chemical_formula_sum   'Cr19 Fe28 Ni7'
_cell_volume   594.59855932
_cell_formula_units_Z   1
loop_
 _symmetry_equiv_pos_site_id
 _symmetry_equiv_pos_as_xyz
  1  'x, y, z'
loop_
 _atom_site_type_symbol
 _atom_site_label
 _atom_site_symmetry_multiplicity
 _atom_site_fract_x
 _atom_site_fract_y
 _atom_site_fract_z
 _atom_site_occupancy
  Ni  Ni0  1  0.99794849  -0.00119854  -0.00127075  1
  Cr  Cr1  1  0.16724555  0.16390375  0.16630270  1
  Ni  Ni2  1  0.99536688  -0.00097723  0.33112518  1
  Cr  Cr3  1  0.99668116  0.32953882  -0.00087221  1
  Ni  Ni4  1  0.16048159  0.50193863  0.16532241  1
  Fe  Fe5  1  0.99780985  0.33228431  0.33193305  1
  Fe  Fe6  1  0.99824202  0.66453694  0.00093851  1
  Fe  Fe7  1  0.16325336  0.83137639  0.16389639  1
  Fe  Fe8  1  0.99741983  0.66314523  0.32979763  1
  Fe  Fe9  1  0.33126434  0.99771879  -0.00021543  1
  Ni  Ni10  1  0.50113294  0.16341329  0.16512772  1
  Fe  Fe11  1  0.32991093  -0.00122317  0.33172905  1
  Cr  Cr12  1  0.33097911  0.33560962  0.00034862  1
  Cr  Cr13  1  0.49850346  0.49603147  0.16183450  1
  Cr  Cr14  1  0.32895728  0.33491566  0.33157298  1
  Ni  Ni15  1  0.33110497  0.66546671  -0.00142018  1
  Cr  Cr16  1  0.49848497  0.83463493  0.16672557  1
  Cr  Cr17  1  0.33245464  0.66298483  0.33172879  1
  Cr  Cr18  1  0.67010800  -0.00068406  -0.00092389  1
  Fe  Fe19  1  0.83316880  0.16372021  0.16687198  1
  Fe  Fe20  1  0.66694890  -0.00120806  0.33110418  1
  Fe  Fe21  1  0.66756392  0.33133323  -0.00143734  1
  Fe  Fe22  1  0.83320992  0.49896606  0.16416804  1
  Cr  Cr23  1  0.66642304  0.33283754  0.32836387  1
  Cr  Cr24  1  0.66395562  0.66424049  0.99726451  1
  Fe  Fe25  1  0.83546201  0.83219827  0.16624651  1
  Fe  Fe26  1  0.66735088  0.66501930  0.33073084  1
  Fe  Fe27  1  0.16073497  0.16542085  0.49714887  1
  Cr  Cr28  1  0.99823596  0.00258430  0.66704109  1
  Fe  Fe29  1  0.16360837  0.16620395  0.83278535  1
  Fe  Fe30  1  0.16179178  0.49616133  0.49986830  1
  Fe  Fe31  1  0.99619255  0.33340192  0.66435434  1
  Cr  Cr32  1  0.16290714  0.50010644  0.83128190  1
  Cr  Cr33  1  0.16401941  0.83116191  0.49739777  1
  Fe  Fe34  1  0.99706743  0.66307233  0.66424683  1
  Cr  Cr35  1  0.16527723  0.83215892  0.83601686  1
  Cr  Cr36  1  0.49785417  0.16478880  0.49470529  1
  Fe  Fe37  1  0.33208225  -0.00141407  0.66537776  1
  Cr  Cr38  1  0.49755427  0.16653290  0.83512580  1
  Fe  Fe39  1  0.50114098  0.49961616  0.50020920  1
  Fe  Fe40  1  0.33088577  0.33104705  0.66383702  1
  Fe  Fe41  1  0.49896875  0.50015487  0.83023433  1
  Fe  Fe42  1  0.49921280  0.83056126  0.49778516  1
  Fe  Fe43  1  0.33333496  0.66560930  0.66480410  1
  Fe  Fe44  1  0.49748516  0.82897861  0.83151270  1
  Ni  Ni45  1  0.83180281  0.16703881  0.49709951  1
  Cr  Cr46  1  0.66666379  0.99645365  0.66482290  1
  Fe  Fe47  1  0.83295706  0.16807474  0.83107473  1
  Fe  Fe48  1  0.83208417  0.49611628  0.49973853  1
  Fe  Fe49  1  0.66684358  0.33189972  0.66429135  1
  Ni  Ni50  1  0.83019120  0.49626306  0.83030936  1
  Cr  Cr51  1  0.83202346  0.82975582  0.49611684  1
  Fe  Fe52  1  0.66477434  0.66183080  0.66548119  1
  Cr  Cr53  1  0.83469294  0.82771668  0.83215949  1
" 