3408,Ni14Fe86_16,-242.355039644487, 199.990840898456,Ni14Fe86,"# generated using pymatgen
 data_Fe7Ni47
_symmetry_space_group_name_H-M   'P 1'
_cell_length_a   7.43505249
_cell_length_b   7.43505249
_cell_length_c   10.51475207
_cell_angle_alpha   90.00000000
_cell_angle_beta   90.00000000
_cell_angle_gamma   90.00000000
_symmetry_Int_Tables_number   1
_chemical_formula_structural   Fe7Ni47
_chemical_formula_sum   'Fe7 Ni47'
_cell_volume   581.25555218
_cell_formula_units_Z   1
loop_
 _symmetry_equiv_pos_site_id
 _symmetry_equiv_pos_as_xyz
  1  'x, y, z'
loop_
 _atom_site_type_symbol
 _atom_site_label
 _atom_site_symmetry_multiplicity
 _atom_site_fract_x
 _atom_site_fract_y
 _atom_site_fract_z
 _atom_site_occupancy
  Ni  Ni0  1  1.00101134  0.00277420  1.00170902  1
  Ni  Ni1  1  0.16901277  0.16861234  0.16856815  1
  Ni  Ni2  1  1.00092528  0.00225649  0.33546627  1
  Ni  Ni3  1  0.00252132  0.33516543  0.00256237  1
  Ni  Ni4  1  0.16912952  0.50235611  0.16927439  1
  Ni  Ni5  1  0.00244618  0.33524199  0.33528831  1
  Fe  Fe6  1  0.00330662  0.66940396  1.00202884  1
  Ni  Ni7  1  0.16876379  0.83549003  0.16886156  1
  Ni  Ni8  1  0.00243751  0.66895678  0.33468042  1
  Ni  Ni9  1  0.33613842  1.00154942  0.00279988  1
  Ni  Ni10  1  0.50215153  0.16886888  0.16886262  1
  Fe  Fe11  1  0.33514013  0.00243644  0.33526772  1
  Ni  Ni12  1  0.33460773  0.33637153  1.00195011  1
  Ni  Ni13  1  0.50173737  0.50179830  0.16871644  1
  Ni  Ni14  1  0.33512507  0.33645575  0.33522563  1
  Ni  Ni15  1  0.33578239  0.66853547  1.00189672  1
  Ni  Ni16  1  0.50184794  0.83578597  0.16916289  1
  Ni  Ni17  1  0.33538475  0.66799813  0.33548140  1
  Ni  Ni18  1  0.66930442  1.00159799  0.00220252  1
  Ni  Ni19  1  0.83528664  0.16850411  0.16927461  1
  Ni  Ni20  1  0.66984172  1.00199730  0.33517537  1
  Fe  Fe21  1  0.66829131  0.33432861  1.00209078  1
  Ni  Ni22  1  0.83558758  0.50204840  0.16912954  1
  Ni  Ni23  1  0.66888358  0.33494450  0.33498538  1
  Fe  Fe24  1  0.66825435  0.66937999  1.00214612  1
  Ni  Ni25  1  0.83584407  0.83590193  0.16871335  1
  Ni  Ni26  1  0.66863391  0.66951270  0.33523932  1
  Ni  Ni27  1  0.16931264  0.16853659  0.50264940  1
  Fe  Fe28  1  1.00193472  1.00174900  0.66847943  1
  Fe  Fe29  1  0.16903716  0.16916025  0.83589081  1
  Ni  Ni30  1  0.16930444  0.50269990  0.50210312  1
  Ni  Ni31  1  1.00210004  0.33625549  0.66860833  1
  Ni  Ni32  1  0.16922189  0.50302534  0.83507435  1
  Ni  Ni33  1  0.16809725  0.83521724  0.50210098  1
  Ni  Ni34  1  0.00215590  0.66804832  0.66926709  1
  Ni  Ni35  1  0.16898163  0.83482492  0.83548972  1
  Ni  Ni36  1  0.50231115  0.16969448  0.50215537  1
  Ni  Ni37  1  0.33646330  1.00189761  0.66909268  1
  Ni  Ni38  1  0.50271128  0.16880684  0.83544124  1
  Ni  Ni39  1  0.50195522  0.50117276  0.50247091  1
  Ni  Ni40  1  0.33499603  0.33565648  0.66928231  1
  Ni  Ni41  1  0.50145537  0.50156187  0.83526700  1
  Fe  Fe42  1  0.50243518  0.83526407  0.50249289  1
  Ni  Ni43  1  0.33519247  0.66890071  0.66907593  1
  Ni  Ni44  1  0.50150657  0.83608253  0.83483780  1
  Ni  Ni45  1  0.83483126  0.16848444  0.50205092  1
  Ni  Ni46  1  0.66851078  1.00195258  0.66907628  1
  Ni  Ni47  1  0.83450999  0.16856452  0.83512374  1
  Ni  Ni48  1  0.83519490  0.50239398  0.50234642  1
  Ni  Ni49  1  0.66935722  0.33498953  0.66926695  1
  Ni  Ni50  1  0.83577744  0.50180943  0.83497569  1
  Ni  Ni51  1  0.83635847  0.83557536  0.50235541  1
  Ni  Ni52  1  0.66910756  0.66951225  0.66907550  1
  Ni  Ni53  1  0.83597149  0.83607934  0.83537857  1
" 