7143,Ni14Fe52Cr33_11,-223.320612875923, 172.547802554861,Ni14Fe52Cr33,"# generated using pymatgen
 data_Cr19(Fe4Ni)7
_symmetry_space_group_name_H-M   'P 1'
_cell_length_a   7.49079347
_cell_length_b   7.49079347
_cell_length_c   10.59358171
_cell_angle_alpha   90.00000000
_cell_angle_beta   90.00000000
_cell_angle_gamma   90.00000000
_symmetry_Int_Tables_number   1
_chemical_formula_structural   Cr19(Fe4Ni)7
_chemical_formula_sum   'Cr19 Fe28 Ni7'
_cell_volume   594.42691646
_cell_formula_units_Z   1
loop_
 _symmetry_equiv_pos_site_id
 _symmetry_equiv_pos_as_xyz
  1  'x, y, z'
loop_
 _atom_site_type_symbol
 _atom_site_label
 _atom_site_symmetry_multiplicity
 _atom_site_fract_x
 _atom_site_fract_y
 _atom_site_fract_z
 _atom_site_occupancy
  Cr  Cr0  1  0.00023147  0.99772439  -0.00151939  1
  Ni  Ni1  1  0.16938790  0.16669975  0.16682651  1
  Cr  Cr2  1  -0.00015500  0.00021550  0.33182489  1
  Fe  Fe3  1  0.99798632  0.33309532  0.99829369  1
  Cr  Cr4  1  0.16517563  0.49565089  0.16338958  1
  Fe  Fe5  1  -0.00061642  0.33218744  0.33250353  1
  Fe  Fe6  1  0.00016633  0.66191108  0.99710710  1
  Fe  Fe7  1  0.16674445  0.83328303  0.16468910  1
  Fe  Fe8  1  0.99731482  0.66235438  0.33240948  1
  Fe  Fe9  1  0.33333745  0.00039187  -0.00006054  1
  Fe  Fe10  1  0.49632632  0.16614771  0.16585380  1
  Fe  Fe11  1  0.33448826  0.00187543  0.33146550  1
  Ni  Ni12  1  0.33346168  0.33082411  -0.00073399  1
  Fe  Fe13  1  0.49882873  0.49487508  0.16450535  1
  Ni  Ni14  1  0.33257260  0.33044761  0.33293301  1
  Fe  Fe15  1  0.33038483  0.66450815  -0.00091045  1
  Fe  Fe16  1  0.49683299  0.83420646  0.16535853  1
  Cr  Cr17  1  0.33329309  0.66419360  0.33209744  1
  Fe  Fe18  1  0.66211399  0.00219304  -0.00109545  1
  Cr  Cr19  1  0.83050502  0.16677726  0.16470244  1
  Ni  Ni20  1  0.66293033  -0.00093647  0.33208071  1
  Ni  Ni21  1  0.66357816  0.33090043  -0.00151524  1
  Fe  Fe22  1  0.83144085  0.49652223  0.16538423  1
  Fe  Fe23  1  0.66317468  0.33115926  0.33242327  1
  Cr  Cr24  1  0.66551631  0.66238309  0.00055600  1
  Cr  Cr25  1  0.83016235  0.82972900  0.16709696  1
  Fe  Fe26  1  0.66452049  0.66403185  0.33170963  1
  Fe  Fe27  1  0.16552850  0.16743248  0.49669726  1
  Fe  Fe28  1  -0.00152069  -0.00091927  0.66512012  1
  Cr  Cr29  1  0.16517527  0.16771262  0.83107792  1
  Fe  Fe30  1  0.16341317  0.49609086  0.49750353  1
  Fe  Fe31  1  0.99771510  0.33336554  0.66432153  1
  Fe  Fe32  1  0.16252822  0.50003366  0.83332340  1
  Cr  Cr33  1  0.16381111  0.83155207  0.49991943  1
  Ni  Ni34  1  -0.00050261  0.66331997  0.66668542  1
  Fe  Fe35  1  0.16433516  0.82934720  0.83170802  1
  Ni  Ni36  1  0.49815454  0.16668598  0.49541407  1
  Cr  Cr37  1  0.33104562  -0.00084520  0.66311922  1
  Fe  Fe38  1  0.49965008  0.16574945  0.83446591  1
  Fe  Fe39  1  0.49865664  0.49671947  0.49612069  1
  Cr  Cr40  1  0.33151586  0.33234788  0.66263734  1
  Cr  Cr41  1  0.49636495  0.49586954  0.83336693  1
  Fe  Fe42  1  0.49938706  0.83400628  0.49622042  1
  Cr  Cr43  1  0.32975176  0.66382177  0.66529205  1
  Cr  Cr44  1  0.49800477  0.83313965  0.83209359  1
  Fe  Fe45  1  0.83108870  0.16631084  0.49703432  1
  Cr  Cr46  1  0.66627557  0.00138911  0.66602361  1
  Fe  Fe47  1  0.83036959  0.16754734  0.83338792  1
  Fe  Fe48  1  0.83331137  0.49694118  0.49751555  1
  Cr  Cr49  1  0.66621068  0.33068541  0.66552481  1
  Fe  Fe50  1  0.83478367  0.49648512  0.83242090  1
  Cr  Cr51  1  0.83056704  0.83099174  0.49835933  1
  Cr  Cr52  1  0.66568136  0.66321978  0.66179475  1
  Cr  Cr53  1  0.83340371  0.83205788  0.82988613  1
" 