8824,Ni14Fe12Cr73_8,-209.267688751835, 180.530371558859,Ni14Fe12Cr73,"# generated using pymatgen
 data_Cr41Fe6Ni7
_symmetry_space_group_name_H-M   'P 1'
_cell_length_a   7.56577933
_cell_length_b   7.56577933
_cell_length_c   10.69962774
_cell_angle_alpha   90.00000000
_cell_angle_beta   90.00000000
_cell_angle_gamma   90.00000000
_symmetry_Int_Tables_number   1
_chemical_formula_structural   Cr41Fe6Ni7
_chemical_formula_sum   'Cr41 Fe6 Ni7'
_cell_volume   612.45757169
_cell_formula_units_Z   1
loop_
 _symmetry_equiv_pos_site_id
 _symmetry_equiv_pos_as_xyz
  1  'x, y, z'
loop_
 _atom_site_type_symbol
 _atom_site_label
 _atom_site_symmetry_multiplicity
 _atom_site_fract_x
 _atom_site_fract_y
 _atom_site_fract_z
 _atom_site_occupancy
  Cr  Cr0  1  -0.00603581  -0.00546131  0.99324113  1
  Cr  Cr1  1  0.15804442  0.16026244  0.15932569  1
  Cr  Cr2  1  -0.00614257  -0.00508422  0.32689858  1
  Cr  Cr3  1  0.98943873  0.32715749  -0.00438406  1
  Cr  Cr4  1  0.16254283  0.49325347  0.15904104  1
  Cr  Cr5  1  0.99052171  0.32790916  0.32557369  1
  Cr  Cr6  1  -0.00582468  0.65835205  0.99021492  1
  Cr  Cr7  1  0.15841268  0.82648926  0.15959815  1
  Cr  Cr8  1  -0.00559519  0.65695996  0.32988996  1
  Cr  Cr9  1  0.32925678  0.99202663  0.99309574  1
  Cr  Cr10  1  0.49405727  0.16514474  0.16070043  1
  Cr  Cr11  1  0.32835219  0.99237524  0.32473611  1
  Cr  Cr12  1  0.32778040  0.32452680  0.99105015  1
  Cr  Cr13  1  0.49410281  0.49354377  0.16048657  1
  Cr  Cr14  1  0.32466344  0.32677184  0.32973656  1
  Cr  Cr15  1  0.32752057  0.66347505  -0.00631890  1
  Fe  Fe16  1  0.49522422  0.82673031  0.15940904  1
  Cr  Cr17  1  0.32556780  0.66175574  0.32660257  1
  Cr  Cr18  1  0.65774651  -0.00472039  -0.00613822  1
  Ni  Ni19  1  0.82217903  0.16205135  0.16079219  1
  Cr  Cr20  1  0.65879963  -0.00400180  0.32453492  1
  Ni  Ni21  1  0.66128031  0.32516061  0.99230438  1
  Cr  Cr22  1  0.82329075  0.49379618  0.15831026  1
  Ni  Ni23  1  0.66258705  0.32707668  0.32728170  1
  Cr  Cr24  1  0.65950711  0.66056158  0.99032141  1
  Cr  Cr25  1  0.82707050  0.82817541  0.16025853  1
  Cr  Cr26  1  0.66106492  0.65945152  0.32770283  1
  Cr  Cr27  1  0.16026374  0.15847621  0.49626137  1
  Fe  Fe28  1  -0.00549439  0.99221794  0.66088674  1
  Cr  Cr29  1  0.16064033  0.15937449  0.82532008  1
  Fe  Fe30  1  0.15930981  0.49297323  0.49428051  1
  Cr  Cr31  1  0.99225187  0.32909244  0.65910631  1
  Cr  Cr32  1  0.16132374  0.49313785  0.82791607  1
  Fe  Fe33  1  0.16002175  0.82694570  0.49501085  1
  Cr  Cr34  1  -0.00606817  0.65668228  0.65974943  1
  Ni  Ni35  1  0.16273599  0.82843654  0.82435859  1
  Cr  Cr36  1  0.49294885  0.16254801  0.49481051  1
  Cr  Cr37  1  0.32889486  0.99315088  0.66242431  1
  Fe  Fe38  1  0.49471330  0.15999599  0.82737945  1
  Cr  Cr39  1  0.49374006  0.49222338  0.49282970  1
  Fe  Fe40  1  0.32712201  0.32811053  0.66078840  1
  Cr  Cr41  1  0.49415839  0.49183340  0.82709190  1
  Cr  Cr42  1  0.49491000  0.82619697  0.49157639  1
  Cr  Cr43  1  0.32629861  0.66163496  0.65955076  1
  Ni  Ni44  1  0.49137730  0.82678651  0.82804624  1
  Cr  Cr45  1  0.82668697  0.15827805  0.49243287  1
  Cr  Cr46  1  0.65677311  -0.00625871  0.66262969  1
  Cr  Cr47  1  0.82770585  0.15937592  0.82751066  1
  Ni  Ni48  1  0.82650094  0.49240060  0.49244808  1
  Cr  Cr49  1  0.66248491  0.32670925  0.66098360  1
  Ni  Ni50  1  0.82478426  0.49106704  0.82794013  1
  Cr  Cr51  1  0.82876702  0.82711996  0.49572454  1
  Cr  Cr52  1  0.66062588  0.65908668  0.66152697  1
  Cr  Cr53  1  0.82876568  0.82632042  0.82480654  1
" 