3358,Ni14Fe52Cr33_7,-223.145613419935, 174.371768964792,Ni14Fe52Cr33,"# generated using pymatgen
 data_Cr19(Fe4Ni)7
_symmetry_space_group_name_H-M   'P 1'
_cell_length_a   7.48884564
_cell_length_b   7.48884564
_cell_length_c   10.59082707
_cell_angle_alpha   90.00000000
_cell_angle_beta   90.00000000
_cell_angle_gamma   90.00000000
_symmetry_Int_Tables_number   1
_chemical_formula_structural   Cr19(Fe4Ni)7
_chemical_formula_sum   'Cr19 Fe28 Ni7'
_cell_volume   593.96333146
_cell_formula_units_Z   1
loop_
 _symmetry_equiv_pos_site_id
 _symmetry_equiv_pos_as_xyz
  1  'x, y, z'
loop_
 _atom_site_type_symbol
 _atom_site_label
 _atom_site_symmetry_multiplicity
 _atom_site_fract_x
 _atom_site_fract_y
 _atom_site_fract_z
 _atom_site_occupancy
  Fe  Fe0  1  -0.00015878  -0.00037192  0.99800120  1
  Fe  Fe1  1  0.16537364  0.16439971  0.16279623  1
  Fe  Fe2  1  0.99688659  -0.00073025  0.33389887  1
  Cr  Cr3  1  0.99748638  0.33355902  0.00075244  1
  Fe  Fe4  1  0.16619348  0.50009226  0.16561928  1
  Cr  Cr5  1  0.99708095  0.33434561  0.33102937  1
  Cr  Cr6  1  0.99598040  0.66311143  0.99635957  1
  Cr  Cr7  1  0.16484067  0.82994312  0.16436717  1
  Ni  Ni8  1  0.99742940  0.66535245  0.33315604  1
  Fe  Fe9  1  0.33158144  0.00054297  0.99764284  1
  Fe  Fe10  1  0.50121093  0.16633323  0.16428128  1
  Cr  Cr11  1  0.33267714  -0.00117608  0.33208268  1
  Fe  Fe12  1  0.33505237  0.33245168  -0.00112575  1
  Fe  Fe13  1  0.50050129  0.49806872  0.16332950  1
  Cr  Cr14  1  0.33371290  0.33169804  0.33026329  1
  Fe  Fe15  1  0.33447976  0.66188519  0.99839265  1
  Cr  Cr16  1  0.49994493  0.82996634  0.16630304  1
  Fe  Fe17  1  0.33040967  0.66122122  0.33237045  1
  Fe  Fe18  1  0.66455667  -0.00016791  -0.00056702  1
  Fe  Fe19  1  0.82942469  0.16540088  0.16537626  1
  Fe  Fe20  1  0.66877043  0.00171036  0.33260110  1
  Fe  Fe21  1  0.66286870  0.33537012  0.99851258  1
  Fe  Fe22  1  0.82866031  0.49998699  0.16544066  1
  Ni  Ni23  1  0.66575377  0.33315775  0.32937977  1
  Ni  Ni24  1  0.66329295  0.66226867  0.99771269  1
  Cr  Cr25  1  0.83109014  0.83297131  0.16659932  1
  Fe  Fe26  1  0.66700195  0.66025668  0.33146653  1
  Fe  Fe27  1  0.16464831  0.16575272  0.49888026  1
  Cr  Cr28  1  0.00084223  0.99717466  0.66419133  1
  Ni  Ni29  1  0.16771900  0.16525234  0.83350562  1
  Fe  Fe30  1  0.16707017  0.50085270  0.49799871  1
  Cr  Cr31  1  0.99646267  0.33362169  0.66369415  1
  Cr  Cr32  1  0.16820218  0.49603463  0.83136138  1
  Fe  Fe33  1  0.16400094  0.82945795  0.49617513  1
  Cr  Cr34  1  0.99692473  0.66467380  0.66686383  1
  Fe  Fe35  1  0.16637570  0.83226605  0.83430370  1
  Cr  Cr36  1  0.50066725  0.16892654  0.50015430  1
  Cr  Cr37  1  0.33145946  -0.00135873  0.66774801  1
  Fe  Fe38  1  0.49762842  0.17086142  0.83288208  1
  Fe  Fe39  1  0.50055895  0.49765912  0.49979691  1
  Fe  Fe40  1  0.33351354  0.33305765  0.66594774  1
  Ni  Ni41  1  0.49955689  0.49761145  0.83060658  1
  Cr  Cr42  1  0.50023093  0.82736309  0.49597121  1
  Fe  Fe43  1  0.33393061  0.66215333  0.66442764  1
  Cr  Cr44  1  0.49845499  0.82895074  0.83373159  1
  Fe  Fe45  1  0.83025366  0.16675003  0.49744017  1
  Cr  Cr46  1  0.66354781  -0.00073779  0.66506220  1
  Cr  Cr47  1  0.83237817  0.16746327  0.83230810  1
  Fe  Fe48  1  0.82747905  0.49885251  0.49794992  1
  Ni  Ni49  1  0.66258606  0.33674208  0.66704340  1
  Ni  Ni50  1  0.82704012  0.49756185  0.83190494  1
  Fe  Fe51  1  0.83283973  0.83078576  0.49567975  1
  Fe  Fe52  1  0.66441847  0.66089356  0.66618521  1
  Cr  Cr53  1  0.83051741  0.83114020  0.83355431  1
" 