617,Ni14Fe12Cr73_10,-209.083143608908, 175.936151916106,Ni14Fe12Cr73,"# generated using pymatgen
 data_Cr41Fe6Ni7
_symmetry_space_group_name_H-M   'P 1'
_cell_length_a   7.57601526
_cell_length_b   7.57601526
_cell_length_c   10.71410353
_cell_angle_alpha   90.00000000
_cell_angle_beta   90.00000000
_cell_angle_gamma   90.00000000
_symmetry_Int_Tables_number   1
_chemical_formula_structural   Cr41Fe6Ni7
_chemical_formula_sum   'Cr41 Fe6 Ni7'
_cell_volume   614.94676445
_cell_formula_units_Z   1
loop_
 _symmetry_equiv_pos_site_id
 _symmetry_equiv_pos_as_xyz
  1  'x, y, z'
loop_
 _atom_site_type_symbol
 _atom_site_label
 _atom_site_symmetry_multiplicity
 _atom_site_fract_x
 _atom_site_fract_y
 _atom_site_fract_z
 _atom_site_occupancy
  Cr  Cr0  1  0.99253988  -0.00666316  0.99103570  1
  Cr  Cr1  1  0.15842961  0.15964431  0.16005916  1
  Fe  Fe2  1  -0.00510878  -0.00610482  0.32693324  1
  Ni  Ni3  1  -0.00501578  0.32680498  0.99258475  1
  Cr  Cr4  1  0.15938099  0.49176130  0.15691596  1
  Fe  Fe5  1  -0.00634085  0.32462162  0.32653948  1
  Cr  Cr6  1  0.99253615  0.65832990  0.99216899  1
  Cr  Cr7  1  0.16060545  0.82701689  0.16135927  1
  Cr  Cr8  1  0.99170841  0.65909134  0.32621632  1
  Cr  Cr9  1  0.32711474  -0.00700944  0.99216103  1
  Cr  Cr10  1  0.49193962  0.15908044  0.15974856  1
  Ni  Ni11  1  0.32390790  -0.00600103  0.32709344  1
  Fe  Fe12  1  0.32356369  0.32594262  0.99198141  1
  Cr  Cr13  1  0.49308006  0.49441827  0.15807799  1
  Cr  Cr14  1  0.32482618  0.32354931  0.32738323  1
  Fe  Fe15  1  0.32722364  0.65918905  0.99197453  1
  Cr  Cr16  1  0.49242298  0.82492741  0.16010509  1
  Cr  Cr17  1  0.32605057  0.66112066  0.32643293  1
  Cr  Cr18  1  0.65877238  0.99099728  0.99121580  1
  Cr  Cr19  1  0.82805621  0.16030636  0.16019913  1
  Cr  Cr20  1  0.65837299  0.99227065  0.32490656  1
  Cr  Cr21  1  0.65975139  0.32612795  -0.00670090  1
  Cr  Cr22  1  0.82596403  0.49224109  0.16000346  1
  Cr  Cr23  1  0.66040501  0.32687133  0.32696124  1
  Fe  Fe24  1  0.65927640  0.66078104  0.99156937  1
  Cr  Cr25  1  0.82539713  0.82587636  0.16056310  1
  Ni  Ni26  1  0.66066493  0.65974403  0.32563884  1
  Ni  Ni27  1  0.15832360  0.15811098  0.49122726  1
  Fe  Fe28  1  -0.00636408  -0.00635613  0.66035052  1
  Ni  Ni29  1  0.15850524  0.16000982  0.82676377  1
  Cr  Cr30  1  0.15932266  0.49150111  0.49296754  1
  Cr  Cr31  1  -0.00567495  0.32504220  0.65909774  1
  Cr  Cr32  1  0.16034536  0.49088645  0.82853873  1
  Cr  Cr33  1  0.15941814  0.82933396  0.49174968  1
  Cr  Cr34  1  0.99223921  0.66076415  0.66004428  1
  Cr  Cr35  1  0.15940176  0.82735066  0.82531659  1
  Cr  Cr36  1  0.49111062  0.15918381  0.49231522  1
  Cr  Cr37  1  0.32516949  -0.00606181  0.65948248  1
  Cr  Cr38  1  0.49141740  0.15901086  0.82636258  1
  Cr  Cr39  1  0.49390114  0.49364905  0.49287690  1
  Cr  Cr40  1  0.32489170  0.32440335  0.65920941  1
  Cr  Cr41  1  0.49194878  0.49467484  0.82746557  1
  Cr  Cr42  1  0.49221098  0.82559263  0.49114081  1
  Cr  Cr43  1  0.32566834  0.66008407  0.65964690  1
  Ni  Ni44  1  0.49476370  0.82477927  0.82759353  1
  Cr  Cr45  1  0.82894193  0.15928126  0.49240281  1
  Cr  Cr46  1  0.65988567  0.99185488  0.66230870  1
  Cr  Cr47  1  0.82873992  0.15806633  0.82582254  1
  Cr  Cr48  1  0.82520124  0.49260110  0.49149122  1
  Cr  Cr49  1  0.65920731  0.32553855  0.65816377  1
  Cr  Cr50  1  0.82612856  0.49353669  0.82692740  1
  Cr  Cr51  1  0.82679600  0.82654254  0.49269091  1
  Cr  Cr52  1  0.66051683  0.66103172  0.66057965  1
  Ni  Ni53  1  0.82411102  0.82630443  0.82598827  1
" 