1569,Ni14Fe12Cr73_11,-209.211025515007, 181.765441683317,Ni14Fe12Cr73,"# generated using pymatgen
 data_Cr41Fe6Ni7
_symmetry_space_group_name_H-M   'P 1'
_cell_length_a   7.57035897
_cell_length_b   7.57035897
_cell_length_c   10.70610432
_cell_angle_alpha   90.00000000
_cell_angle_beta   90.00000000
_cell_angle_gamma   90.00000000
_symmetry_Int_Tables_number   1
_chemical_formula_structural   Cr41Fe6Ni7
_chemical_formula_sum   'Cr41 Fe6 Ni7'
_cell_volume   613.57042418
_cell_formula_units_Z   1
loop_
 _symmetry_equiv_pos_site_id
 _symmetry_equiv_pos_as_xyz
  1  'x, y, z'
loop_
 _atom_site_type_symbol
 _atom_site_label
 _atom_site_symmetry_multiplicity
 _atom_site_fract_x
 _atom_site_fract_y
 _atom_site_fract_z
 _atom_site_occupancy
  Cr  Cr0  1  0.99169599  0.99113969  -0.00618982  1
  Cr  Cr1  1  0.15795421  0.15945384  0.15959945  1
  Fe  Fe2  1  0.99260972  0.99189609  0.32485531  1
  Fe  Fe3  1  0.99050923  0.32669043  0.99156758  1
  Cr  Cr4  1  0.15932407  0.49097068  0.15871357  1
  Cr  Cr5  1  0.99296272  0.33008715  0.32700347  1
  Cr  Cr6  1  0.99239643  0.66045593  -0.00573418  1
  Ni  Ni7  1  0.15722487  0.82863916  0.16124953  1
  Cr  Cr8  1  -0.00598680  0.66239566  0.32552279  1
  Cr  Cr9  1  0.32709360  -0.00668905  0.99148963  1
  Cr  Cr10  1  0.49378471  0.15938761  0.16215302  1
  Cr  Cr11  1  0.32861360  0.99222807  0.32575436  1
  Cr  Cr12  1  0.32897277  0.32490312  -0.00674824  1
  Cr  Cr13  1  0.49513950  0.49463383  0.15796899  1
  Cr  Cr14  1  0.32870197  0.32789311  0.33045438  1
  Cr  Cr15  1  0.32438176  0.66167770  -0.00390756  1
  Cr  Cr16  1  0.49536389  0.82559127  0.15758805  1
  Cr  Cr17  1  0.32445039  0.65914769  0.32680558  1
  Cr  Cr18  1  0.66042182  -0.00539177  0.99155550  1
  Cr  Cr19  1  0.82786473  0.15956087  0.16251467  1
  Ni  Ni20  1  0.66218759  0.99214476  0.32604779  1
  Cr  Cr21  1  0.66085959  0.32514653  0.99055143  1
  Cr  Cr22  1  0.82510901  0.49266684  0.15684682  1
  Cr  Cr23  1  0.65802556  0.32473741  0.32935249  1
  Ni  Ni24  1  0.66457961  0.65970880  0.99251713  1
  Fe  Fe25  1  0.82625161  0.82732124  0.16017908  1
  Cr  Cr26  1  0.66099828  0.65985352  0.32503345  1
  Cr  Cr27  1  0.15827833  0.16015627  0.49219104  1
  Cr  Cr28  1  0.99135187  0.99311254  0.66135242  1
  Cr  Cr29  1  0.15862826  0.16106063  0.82834731  1
  Fe  Fe30  1  0.15966080  0.49371748  0.49337892  1
  Cr  Cr31  1  0.99093154  0.32754434  0.66232642  1
  Cr  Cr32  1  0.15797024  0.49143485  0.82707906  1
  Cr  Cr33  1  0.15945681  0.82961630  0.49460092  1
  Cr  Cr34  1  0.99158608  0.65869556  0.65874264  1
  Cr  Cr35  1  0.16056264  0.82694234  0.82469030  1
  Fe  Fe36  1  0.49503471  0.15780432  0.49274875  1
  Cr  Cr37  1  0.32814317  -0.00455267  0.66283621  1
  Ni  Ni38  1  0.49412315  0.16161005  0.82502608  1
  Ni  Ni39  1  0.49439341  0.49347185  0.49411721  1
  Cr  Cr40  1  0.32880748  0.32637979  0.65608936  1
  Cr  Cr41  1  0.49525117  0.49618880  0.82809427  1
  Cr  Cr42  1  0.49562974  0.82441387  0.49574539  1
  Cr  Cr43  1  0.32548933  0.65798583  0.65711287  1
  Cr  Cr44  1  0.49478213  0.82470954  0.82579321  1
  Cr  Cr45  1  0.82825431  0.15857023  0.49070082  1
  Cr  Cr46  1  0.65983702  -0.00406595  0.66145133  1
  Fe  Fe47  1  0.82549823  0.16113716  0.82718358  1
  Cr  Cr48  1  0.82412150  0.49394258  0.49493021  1
  Cr  Cr49  1  0.65909530  0.32603975  0.66027034  1
  Ni  Ni50  1  0.82445606  0.49204103  0.82756598  1
  Cr  Cr51  1  0.82456520  0.82755006  0.49199546  1
  Ni  Ni52  1  0.66035395  0.65701807  0.66036916  1
  Cr  Cr53  1  0.82378290  0.82276099  0.82405223  1
" 