2563,Ni14Fe12Cr73_14,-209.430381016799, 183.470890186682,Ni14Fe12Cr73,"# generated using pymatgen
 data_Cr41Fe6Ni7
_symmetry_space_group_name_H-M   'P 1'
_cell_length_a   7.56647545
_cell_length_b   7.56647545
_cell_length_c   10.70061220
_cell_angle_alpha   90.00000000
_cell_angle_beta   90.00000000
_cell_angle_gamma   90.00000000
_symmetry_Int_Tables_number   1
_chemical_formula_structural   Cr41Fe6Ni7
_chemical_formula_sum   'Cr41 Fe6 Ni7'
_cell_volume   612.62664258
_cell_formula_units_Z   1
loop_
 _symmetry_equiv_pos_site_id
 _symmetry_equiv_pos_as_xyz
  1  'x, y, z'
loop_
 _atom_site_type_symbol
 _atom_site_label
 _atom_site_symmetry_multiplicity
 _atom_site_fract_x
 _atom_site_fract_y
 _atom_site_fract_z
 _atom_site_occupancy
  Ni  Ni0  1  -0.00541543  0.99012650  -0.00440453  1
  Cr  Cr1  1  0.16214436  0.15848145  0.15804864  1
  Cr  Cr2  1  -0.00514251  -0.00655978  0.32518039  1
  Cr  Cr3  1  -0.00468631  0.32868381  -0.00521354  1
  Ni  Ni4  1  0.16295493  0.49629177  0.16155058  1
  Cr  Cr5  1  -0.00431379  0.32970382  0.32689976  1
  Fe  Fe6  1  -0.00240592  0.66037338  -0.00424960  1
  Ni  Ni7  1  0.16174966  0.82362308  0.15865532  1
  Cr  Cr8  1  -0.00259957  0.65737454  0.32603708  1
  Cr  Cr9  1  0.32846767  0.99096120  0.99224614  1
  Cr  Cr10  1  0.49082872  0.16247423  0.16076081  1
  Cr  Cr11  1  0.32863309  0.98830963  0.32532236  1
  Ni  Ni12  1  0.32489590  0.33061635  -0.00393715  1
  Cr  Cr13  1  0.49164988  0.49317032  0.15991099  1
  Fe  Fe14  1  0.32485053  0.32899974  0.32518924  1
  Cr  Cr15  1  0.32764479  0.66125019  -0.00568284  1
  Ni  Ni16  1  0.49016847  0.82392604  0.16022979  1
  Fe  Fe17  1  0.32623951  0.66048662  0.32469703  1
  Cr  Cr18  1  0.65728388  0.99120999  -0.00483555  1
  Cr  Cr19  1  0.82745259  0.15846717  0.16060876  1
  Cr  Cr20  1  0.65679086  0.99120500  0.32630551  1
  Cr  Cr21  1  0.66024750  0.32687193  0.99268941  1
  Cr  Cr22  1  0.82574398  0.49679426  0.15719656  1
  Cr  Cr23  1  0.66253518  0.32700465  0.32659354  1
  Fe  Fe24  1  0.65718784  0.66238339  -0.00601525  1
  Cr  Cr25  1  0.82933019  0.82558703  0.15785147  1
  Cr  Cr26  1  0.65667422  0.66258239  0.32500364  1
  Cr  Cr27  1  0.16264586  0.15927401  0.49323175  1
  Cr  Cr28  1  -0.00613218  -0.00555731  0.66010979  1
  Cr  Cr29  1  0.16082396  0.15885862  0.82954970  1
  Fe  Fe30  1  0.16311074  0.49388288  0.49127257  1
  Cr  Cr31  1  0.99287661  0.32872269  0.65851072  1
  Cr  Cr32  1  0.16153583  0.49474567  0.82791900  1
  Cr  Cr33  1  0.16080324  0.82612786  0.49310254  1
  Cr  Cr34  1  -0.00444426  0.65701346  0.65928822  1
  Cr  Cr35  1  0.15837706  0.82702323  0.82759968  1
  Cr  Cr36  1  0.49143597  0.16205604  0.49285256  1
  Cr  Cr37  1  0.32999430  0.99026742  0.66252540  1
  Cr  Cr38  1  0.49146732  0.16317569  0.82696337  1
  Cr  Cr39  1  0.49138215  0.49366754  0.49167225  1
  Cr  Cr40  1  0.32398047  0.32864521  0.66113330  1
  Cr  Cr41  1  0.49339266  0.49357017  0.82828340  1
  Ni  Ni42  1  0.49049756  0.82427597  0.49198229  1
  Cr  Cr43  1  0.32788843  0.66178542  0.65866962  1
  Ni  Ni44  1  0.49495819  0.82485774  0.82763061  1
  Cr  Cr45  1  0.82610708  0.15947998  0.49349036  1
  Cr  Cr46  1  0.65672342  0.99181955  0.65877620  1
  Cr  Cr47  1  0.82739672  0.15868608  0.82592807  1
  Cr  Cr48  1  0.82380389  0.49510080  0.49512486  1
  Fe  Fe49  1  0.65891483  0.32719079  0.66036912  1
  Cr  Cr50  1  0.82497618  0.49660538  0.82783864  1
  Cr  Cr51  1  0.82735267  0.82574515  0.49295709  1
  Cr  Cr52  1  0.65732973  0.66236550  0.66168122  1
  Cr  Cr53  1  0.82909582  0.82542021  0.83010356  1
" 