8156,Ni14Fe86_7,-242.105092019895, 197.5454270122,Ni14Fe86,"# generated using pymatgen
 data_Fe7Ni47
_symmetry_space_group_name_H-M   'P 1'
_cell_length_a   7.43415272
_cell_length_b   7.43415272
_cell_length_c   10.51347960
_cell_angle_alpha   90.00000000
_cell_angle_beta   90.00000000
_cell_angle_gamma   90.00000000
_symmetry_Int_Tables_number   1
_chemical_formula_structural   Fe7Ni47
_chemical_formula_sum   'Fe7 Ni47'
_cell_volume   581.04455173
_cell_formula_units_Z   1
loop_
 _symmetry_equiv_pos_site_id
 _symmetry_equiv_pos_as_xyz
  1  'x, y, z'
loop_
 _atom_site_type_symbol
 _atom_site_label
 _atom_site_symmetry_multiplicity
 _atom_site_fract_x
 _atom_site_fract_y
 _atom_site_fract_z
 _atom_site_occupancy
  Ni  Ni0  1  0.00231844  1.00215767  0.00259457  1
  Ni  Ni1  1  0.16937415  0.16856382  0.16952161  1
  Ni  Ni2  1  0.00247307  0.00302977  0.33543559  1
  Ni  Ni3  1  0.00264132  0.33587699  0.00227168  1
  Ni  Ni4  1  0.16842256  0.50206105  0.16910065  1
  Ni  Ni5  1  0.00374873  0.33532209  0.33550788  1
  Ni  Ni6  1  1.00191599  0.66860365  0.00289802  1
  Ni  Ni7  1  0.16810393  0.83602807  0.16883977  1
  Fe  Fe8  1  0.00270037  0.66950826  0.33496274  1
  Ni  Ni9  1  0.33555745  0.00221695  0.00264365  1
  Ni  Ni10  1  0.50193476  0.16882100  0.16922233  1
  Ni  Ni11  1  0.33543533  0.00309149  0.33546080  1
  Ni  Ni12  1  0.33521532  0.33579552  0.00232155  1
  Ni  Ni13  1  0.50293451  0.50186015  0.16880217  1
  Ni  Ni14  1  0.33422740  0.33532130  0.33551262  1
  Ni  Ni15  1  0.33588034  0.66862435  0.00297660  1
  Ni  Ni16  1  0.50298767  0.83594602  0.16940910  1
  Fe  Fe17  1  0.33529472  0.66914818  0.33536910  1
  Ni  Ni18  1  0.66876555  1.00149597  0.00260027  1
  Fe  Fe19  1  0.83591295  0.16858723  0.16878884  1
  Ni  Ni20  1  0.66872231  1.00050829  0.33538360  1
  Ni  Ni21  1  0.66878554  0.33619509  0.00317665  1
  Ni  Ni22  1  0.83527830  0.50312706  0.16938051  1
  Fe  Fe23  1  0.66829488  0.33441871  0.33566891  1
  Ni  Ni24  1  0.66884181  0.66894541  1.00199912  1
  Ni  Ni25  1  0.83554430  0.83500692  0.16908463  1
  Ni  Ni26  1  0.66871990  0.66948947  0.33530633  1
  Ni  Ni27  1  0.16842178  0.16831908  0.50243095  1
  Ni  Ni28  1  0.00235225  0.00243012  0.66860242  1
  Ni  Ni29  1  0.16866747  0.16860361  0.83468349  1
  Ni  Ni30  1  0.16937716  0.50281078  0.50220397  1
  Ni  Ni31  1  0.00268619  0.33563216  0.66885722  1
  Ni  Ni32  1  0.16866942  0.50251110  0.83532842  1
  Ni  Ni33  1  0.16807311  0.83552646  0.50214208  1
  Ni  Ni34  1  1.00210976  0.66856808  0.66839431  1
  Ni  Ni35  1  0.16834740  0.83552255  0.83565093  1
  Ni  Ni36  1  0.50311577  0.16952660  0.50241197  1
  Ni  Ni37  1  0.33543281  0.00242337  0.66853586  1
  Ni  Ni38  1  0.50271034  0.16894741  0.83500613  1
  Ni  Ni39  1  0.50225326  0.50167424  0.50218897  1
  Ni  Ni40  1  0.33517515  0.33571579  0.66880333  1
  Ni  Ni41  1  0.50268851  0.50214769  0.83565091  1
  Fe  Fe42  1  0.50140460  0.83632931  0.50237549  1
  Ni  Ni43  1  0.33575992  0.66850509  0.66835161  1
  Ni  Ni44  1  0.50266772  0.83554309  0.83507379  1
  Ni  Ni45  1  0.83509733  0.16823719  0.50183179  1
  Ni  Ni46  1  0.66884250  1.00184963  0.66865390  1
  Ni  Ni47  1  0.83525921  0.16862480  0.83590595  1
  Fe  Fe48  1  0.83611021  0.50105843  0.50264981  1
  Ni  Ni49  1  0.66878445  0.33596173  0.66802794  1
  Ni  Ni50  1  0.83527957  0.50246769  0.83475319  1
  Fe  Fe51  1  0.83576588  0.83641533  0.50230955  1
  Ni  Ni52  1  0.66876470  0.66882458  0.66933267  1
  Ni  Ni53  1  0.83562246  0.83554409  0.83507457  1
" 