6034,Ni14Fe12Cr73_3,-209.26132236546, 177.504627086661,Ni14Fe12Cr73,"# generated using pymatgen
 data_Cr41Fe6Ni7
_symmetry_space_group_name_H-M   'P 1'
_cell_length_a   7.57403058
_cell_length_b   7.57403058
_cell_length_c   10.71129676
_cell_angle_alpha   90.00000000
_cell_angle_beta   90.00000000
_cell_angle_gamma   90.00000000
_symmetry_Int_Tables_number   1
_chemical_formula_structural   Cr41Fe6Ni7
_chemical_formula_sum   'Cr41 Fe6 Ni7'
_cell_volume   614.46359839
_cell_formula_units_Z   1
loop_
 _symmetry_equiv_pos_site_id
 _symmetry_equiv_pos_as_xyz
  1  'x, y, z'
loop_
 _atom_site_type_symbol
 _atom_site_label
 _atom_site_symmetry_multiplicity
 _atom_site_fract_x
 _atom_site_fract_y
 _atom_site_fract_z
 _atom_site_occupancy
  Fe  Fe0  1  -0.00588660  0.99177442  0.99206096  1
  Cr  Cr1  1  0.15927225  0.15894878  0.15971384  1
  Cr  Cr2  1  -0.00693138  0.99221869  0.32683540  1
  Cr  Cr3  1  -0.00646298  0.32655660  0.99236696  1
  Fe  Fe4  1  0.15945097  0.49447283  0.15875787  1
  Cr  Cr5  1  0.99163127  0.32624855  0.32613724  1
  Ni  Ni6  1  -0.00579339  0.66073897  -0.00580580  1
  Fe  Fe7  1  0.15839336  0.82514137  0.15842917  1
  Cr  Cr8  1  -0.00664682  0.66034387  0.32658471  1
  Cr  Cr9  1  0.32517146  -0.00633626  0.99254665  1
  Cr  Cr10  1  0.49369529  0.16083730  0.16097887  1
  Cr  Cr11  1  0.32546141  0.99205032  0.32485247  1
  Cr  Cr12  1  0.32613030  0.32514883  0.99104533  1
  Fe  Fe13  1  0.49312755  0.49205796  0.16087313  1
  Cr  Cr14  1  0.32811982  0.32764380  0.32650520  1
  Cr  Cr15  1  0.32458089  0.65999583  -0.00446257  1
  Cr  Cr16  1  0.49119725  0.82553444  0.15945819  1
  Cr  Cr17  1  0.32657263  0.65911660  0.32500055  1
  Cr  Cr18  1  0.65918690  -0.00623524  0.99105141  1
  Cr  Cr19  1  0.82584384  0.16059868  0.16064606  1
  Cr  Cr20  1  0.66028073  -0.00623298  0.32800850  1
  Cr  Cr21  1  0.65914501  0.32596587  -0.00667276  1
  Cr  Cr22  1  0.82647308  0.49245520  0.15891024  1
  Ni  Ni23  1  0.65792253  0.32770674  0.32609865  1
  Cr  Cr24  1  0.66059951  0.65908175  0.99260177  1
  Cr  Cr25  1  0.82835319  0.82575843  0.15768803  1
  Cr  Cr26  1  0.65888361  0.65768567  0.32816730  1
  Cr  Cr27  1  0.15945171  0.15984261  0.49445622  1
  Ni  Ni28  1  0.99258470  -0.00648923  0.66004169  1
  Ni  Ni29  1  0.16092387  0.15893952  0.82544847  1
  Cr  Cr30  1  0.16145717  0.49237223  0.49397784  1
  Cr  Cr31  1  -0.00533736  0.32415710  0.66031229  1
  Cr  Cr32  1  0.15925443  0.49177385  0.82593163  1
  Cr  Cr33  1  0.15789578  0.82659611  0.49259332  1
  Cr  Cr34  1  0.99160411  0.66120626  0.65823200  1
  Cr  Cr35  1  0.15793880  0.82748139  0.82801980  1
  Cr  Cr36  1  0.49342536  0.16138622  0.49253168  1
  Cr  Cr37  1  0.32582065  -0.00459019  0.66141799  1
  Ni  Ni38  1  0.49071955  0.15969696  0.82538905  1
  Ni  Ni39  1  0.49329219  0.49193461  0.49169978  1
  Fe  Fe40  1  0.32661306  0.32508014  0.66045105  1
  Cr  Cr41  1  0.49217318  0.49139374  0.82568115  1
  Cr  Cr42  1  0.49460213  0.82543298  0.49353178  1
  Cr  Cr43  1  0.32752597  0.65834115  0.65827121  1
  Cr  Cr44  1  0.49366902  0.82804565  0.82582062  1
  Cr  Cr45  1  0.82593807  0.15783473  0.49151460  1
  Fe  Fe46  1  0.66132574  0.99286315  0.65962761  1
  Cr  Cr47  1  0.82682756  0.15805936  0.82665579  1
  Cr  Cr48  1  0.82477617  0.49354307  0.49194508  1
  Cr  Cr49  1  0.65772140  0.32586879  0.66011799  1
  Cr  Cr50  1  0.82738585  0.49404973  0.82796252  1
  Ni  Ni51  1  0.82637279  0.82723604  0.49432392  1
  Cr  Cr52  1  0.65968322  0.66058890  0.65803767  1
  Cr  Cr53  1  0.82720896  0.82670392  0.82625566  1
" 