8306,Ni14Fe86_13,-242.275565189091, 199.527172772816,Ni14Fe86,"# generated using pymatgen
 data_Fe7Ni47
_symmetry_space_group_name_H-M   'P 1'
_cell_length_a   7.43520509
_cell_length_b   7.43520509
_cell_length_c   10.51496788
_cell_angle_alpha   90.00000000
_cell_angle_beta   90.00000000
_cell_angle_gamma   90.00000000
_symmetry_Int_Tables_number   1
_chemical_formula_structural   Fe7Ni47
_chemical_formula_sum   'Fe7 Ni47'
_cell_volume   581.29134351
_cell_formula_units_Z   1
loop_
 _symmetry_equiv_pos_site_id
 _symmetry_equiv_pos_as_xyz
  1  'x, y, z'
loop_
 _atom_site_type_symbol
 _atom_site_label
 _atom_site_symmetry_multiplicity
 _atom_site_fract_x
 _atom_site_fract_y
 _atom_site_fract_z
 _atom_site_occupancy
  Ni  Ni0  1  0.00214395  0.00214269  0.00214395  1
  Ni  Ni1  1  0.16880569  0.16880795  0.16880486  1
  Ni  Ni2  1  0.00214559  1.00213921  0.33547006  1
  Ni  Ni3  1  0.00214961  0.33547572  1.00213991  1
  Ni  Ni4  1  0.16880741  0.50214249  0.16880773  1
  Fe  Fe5  1  1.00213610  0.33547467  0.33546999  1
  Ni  Ni6  1  1.00213251  0.66880558  0.00214221  1
  Ni  Ni7  1  0.16880511  0.83547356  0.16880622  1
  Ni  Ni8  1  1.00214094  0.66881011  0.33547467  1
  Ni  Ni9  1  0.33547429  0.00215472  1.00214130  1
  Ni  Ni10  1  0.50214364  0.16880792  0.16880600  1
  Ni  Ni11  1  0.33547041  0.00214384  0.33547467  1
  Ni  Ni12  1  0.33547155  0.33546662  0.00214360  1
  Ni  Ni13  1  0.50214190  0.50214251  0.16880886  1
  Fe  Fe14  1  0.33547944  0.33547512  0.33547421  1
  Fe  Fe15  1  0.33547045  0.66881130  0.00214134  1
  Ni  Ni16  1  0.50214424  0.83547357  0.16880691  1
  Ni  Ni17  1  0.33547273  0.66880782  0.33547271  1
  Ni  Ni18  1  0.66880577  1.00213762  1.00213969  1
  Ni  Ni19  1  0.83547468  0.16880562  0.16880796  1
  Ni  Ni20  1  0.66880801  0.00214889  0.33547892  1
  Fe  Fe21  1  0.66881027  0.33546761  0.00214372  1
  Ni  Ni22  1  0.83547469  0.50214308  0.16880405  1
  Ni  Ni23  1  0.66880571  0.33547700  0.33546811  1
  Ni  Ni24  1  0.66881487  0.66880833  0.00214451  1
  Ni  Ni25  1  0.83547465  0.83547530  0.16880865  1
  Ni  Ni26  1  0.66881034  0.66879810  0.33547697  1
  Ni  Ni27  1  0.16880688  0.16880766  0.50214390  1
  Ni  Ni28  1  0.00214938  1.00213726  0.66880999  1
  Ni  Ni29  1  0.16880465  0.16881110  0.83547523  1
  Ni  Ni30  1  0.16880921  0.50214399  0.50214195  1
  Fe  Fe31  1  0.00214794  0.33547650  0.66880984  1
  Ni  Ni32  1  0.16881376  0.50214159  0.83547432  1
  Ni  Ni33  1  0.16880632  0.83547236  0.50214334  1
  Ni  Ni34  1  1.00213796  0.66881491  0.66880712  1
  Ni  Ni35  1  0.16880347  0.83547132  0.83547445  1
  Ni  Ni36  1  0.50214334  0.16880943  0.50214334  1
  Ni  Ni37  1  0.33546496  0.00214927  0.66880804  1
  Ni  Ni38  1  0.50214378  0.16881167  0.83547467  1
  Ni  Ni39  1  0.50214160  0.50214280  0.50214160  1
  Ni  Ni40  1  0.33548437  0.33547011  0.66880344  1
  Ni  Ni41  1  0.50213526  0.50214161  0.83547354  1
  Ni  Ni42  1  0.50214273  0.83547176  0.50214277  1
  Ni  Ni43  1  0.33547467  0.66880462  0.66881195  1
  Ni  Ni44  1  0.50214497  0.83547072  0.83547432  1
  Ni  Ni45  1  0.83547378  0.16880653  0.50214047  1
  Fe  Fe46  1  0.66880425  1.00213757  0.66880892  1
  Ni  Ni47  1  0.83547558  0.16880138  0.83547557  1
  Ni  Ni48  1  0.83547319  0.50214337  0.50214529  1
  Ni  Ni49  1  0.66879937  0.33548154  0.66881368  1
  Fe  Fe50  1  0.83547420  0.50214658  0.83547466  1
  Ni  Ni51  1  0.83547496  0.83547410  0.50214012  1
  Ni  Ni52  1  0.66881137  0.66879550  0.66880252  1
  Ni  Ni53  1  0.83547556  0.83547984  0.83547524  1
" 