538,Ni14Fe52Cr33_12,-222.985060049118, 178.364916309939,Ni14Fe52Cr33,"# generated using pymatgen
 data_Cr19(Fe4Ni)7
_symmetry_space_group_name_H-M   'P 1'
_cell_length_a   7.48327211
_cell_length_b   7.48327211
_cell_length_c   10.58294491
_cell_angle_alpha   90.00000000
_cell_angle_beta   90.00000000
_cell_angle_gamma   90.00000000
_symmetry_Int_Tables_number   1
_chemical_formula_structural   Cr19(Fe4Ni)7
_chemical_formula_sum   'Cr19 Fe28 Ni7'
_cell_volume   592.63815793
_cell_formula_units_Z   1
loop_
 _symmetry_equiv_pos_site_id
 _symmetry_equiv_pos_as_xyz
  1  'x, y, z'
loop_
 _atom_site_type_symbol
 _atom_site_label
 _atom_site_symmetry_multiplicity
 _atom_site_fract_x
 _atom_site_fract_y
 _atom_site_fract_z
 _atom_site_occupancy
  Ni  Ni0  1  -0.00025509  -0.00063107  0.00214808  1
  Fe  Fe1  1  0.16571386  0.16353068  0.16567484  1
  Cr  Cr2  1  -0.00080496  0.99798730  0.33282100  1
  Fe  Fe3  1  0.00080723  0.32904334  0.00265799  1
  Fe  Fe4  1  0.16549940  0.50230031  0.16532961  1
  Cr  Cr5  1  0.99863553  0.33123354  0.33078233  1
  Fe  Fe6  1  0.00165523  0.66634752  0.00154798  1
  Ni  Ni7  1  0.16891719  0.83420752  0.16653529  1
  Fe  Fe8  1  0.00206011  0.66559541  0.33233568  1
  Fe  Fe9  1  0.33294647  0.00055904  0.00333809  1
  Fe  Fe10  1  0.50032368  0.16284549  0.16531749  1
  Ni  Ni11  1  0.33286511  -0.00070366  0.32937305  1
  Cr  Cr12  1  0.33296824  0.33425338  -0.00069784  1
  Fe  Fe13  1  0.49751379  0.50216237  0.16660683  1
  Cr  Cr14  1  0.33329983  0.33110129  0.33123256  1
  Fe  Fe15  1  0.33219083  0.66890236  0.00248108  1
  Fe  Fe16  1  0.49938863  0.83314983  0.16616007  1
  Fe  Fe17  1  0.32969190  0.66782380  0.32963916  1
  Ni  Ni18  1  0.66632159  0.99832539  0.00011968  1
  Fe  Fe19  1  0.83203045  0.16265109  0.16428224  1
  Fe  Fe20  1  0.66418499  0.00197156  0.33056251  1
  Fe  Fe21  1  0.66493254  0.32787722  0.00136456  1
  Cr  Cr22  1  0.82987530  0.49476802  0.16508504  1
  Fe  Fe23  1  0.66514145  0.32794699  0.33191604  1
  Fe  Fe24  1  0.66433197  0.66651667  0.00076100  1
  Cr  Cr25  1  0.83426577  0.83190448  0.16521901  1
  Fe  Fe26  1  0.66643085  0.66655392  0.33166112  1
  Ni  Ni27  1  0.16556236  0.16587594  0.49875790  1
  Cr  Cr28  1  0.99841324  -0.00083980  0.66204978  1
  Fe  Fe29  1  0.16549711  0.16835472  0.83332015  1
  Fe  Fe30  1  0.16411239  0.49692493  0.49739491  1
  Fe  Fe31  1  -0.00082438  0.33240444  0.66257680  1
  Fe  Fe32  1  0.16295655  0.49836173  0.83341750  1
  Fe  Fe33  1  0.16723722  0.83409626  0.49522155  1
  Cr  Cr34  1  0.99715642  0.66625889  0.66141496  1
  Cr  Cr35  1  0.16532399  0.83579882  0.83642140  1
  Fe  Fe36  1  0.49851859  0.16362474  0.49657970  1
  Cr  Cr37  1  0.33279208  0.00330724  0.66690503  1
  Fe  Fe38  1  0.50052696  0.16452122  0.83486994  1
  Cr  Cr39  1  0.49806398  0.49963838  0.49672925  1
  Fe  Fe40  1  0.32871203  0.33284743  0.66515233  1
  Cr  Cr41  1  0.49917585  0.49975895  0.83274912  1
  Cr  Cr42  1  0.49747252  0.83273550  0.49725759  1
  Cr  Cr43  1  0.33009451  0.66485194  0.66642883  1
  Cr  Cr44  1  0.49908760  0.83312092  0.83407295  1
  Ni  Ni45  1  0.83263268  0.16604349  0.49678581  1
  Fe  Fe46  1  0.66666357  0.99733694  0.66426231  1
  Cr  Cr47  1  0.83572461  0.16520580  0.83530880  1
  Fe  Fe48  1  0.83165746  0.49772281  0.49644197  1
  Cr  Cr49  1  0.66332961  0.32927513  0.66424423  1
  Cr  Cr50  1  0.83311685  0.49713457  0.83502252  1
  Fe  Fe51  1  0.82919392  0.83288539  0.49619059  1
  Ni  Ni52  1  0.66676957  0.66389778  0.66441901  1
  Cr  Cr53  1  0.83156204  0.83209325  0.83321183  1
" 