6910,Ni14Fe12Cr73_18,-209.398952750949, 178.113340967233,Ni14Fe12Cr73,"# generated using pymatgen
 data_Cr41Fe6Ni7
_symmetry_space_group_name_H-M   'P 1'
_cell_length_a   7.57252519
_cell_length_b   7.57252519
_cell_length_c   10.70916783
_cell_angle_alpha   90.00000000
_cell_angle_beta   90.00000000
_cell_angle_gamma   90.00000000
_symmetry_Int_Tables_number   1
_chemical_formula_structural   Cr41Fe6Ni7
_chemical_formula_sum   'Cr41 Fe6 Ni7'
_cell_volume   614.09728586
_cell_formula_units_Z   1
loop_
 _symmetry_equiv_pos_site_id
 _symmetry_equiv_pos_as_xyz
  1  'x, y, z'
loop_
 _atom_site_type_symbol
 _atom_site_label
 _atom_site_symmetry_multiplicity
 _atom_site_fract_x
 _atom_site_fract_y
 _atom_site_fract_z
 _atom_site_occupancy
  Cr  Cr0  1  -0.00589443  -0.00688768  0.99097538  1
  Cr  Cr1  1  0.15833217  0.16253914  0.15956113  1
  Cr  Cr2  1  -0.00635961  -0.00621718  0.32744267  1
  Fe  Fe3  1  -0.00540991  0.32823040  -0.00602071  1
  Ni  Ni4  1  0.15619665  0.49130882  0.16205659  1
  Fe  Fe5  1  -0.00443999  0.32928645  0.32536772  1
  Fe  Fe6  1  0.99298839  0.65699270  -0.00588016  1
  Cr  Cr7  1  0.16026748  0.82363679  0.15952045  1
  Cr  Cr8  1  -0.00494322  0.65661886  0.32508522  1
  Cr  Cr9  1  0.32394682  -0.00455752  0.99148143  1
  Cr  Cr10  1  0.49243655  0.16039536  0.16056879  1
  Cr  Cr11  1  0.32470814  -0.00673797  0.32479353  1
  Cr  Cr12  1  0.32346017  0.32618294  0.99237468  1
  Cr  Cr13  1  0.49172999  0.49380905  0.16030681  1
  Fe  Fe14  1  0.32317494  0.32953906  0.32660403  1
  Cr  Cr15  1  0.32246565  0.65758311  -0.00595917  1
  Cr  Cr16  1  0.49139225  0.82505728  0.16121878  1
  Ni  Ni17  1  0.32212311  0.65293787  0.32613263  1
  Cr  Cr18  1  0.66083601  -0.00629324  0.99291281  1
  Cr  Cr19  1  0.82862813  0.16263849  0.16106138  1
  Cr  Cr20  1  0.66056944  -0.00547900  0.32648218  1
  Cr  Cr21  1  0.66162848  0.32756963  -0.00542125  1
  Ni  Ni22  1  0.83221648  0.49187389  0.15818929  1
  Cr  Cr23  1  0.66158869  0.32762839  0.32468728  1
  Cr  Cr24  1  0.66357109  0.65826336  0.99190205  1
  Cr  Cr25  1  0.82758711  0.82497663  0.15862996  1
  Cr  Cr26  1  0.66116036  0.65732876  0.32676659  1
  Cr  Cr27  1  0.15790706  0.16264217  0.49478469  1
  Ni  Ni28  1  -0.00595249  -0.00475858  0.66202327  1
  Ni  Ni29  1  0.15679218  0.16201285  0.82374394  1
  Fe  Fe30  1  0.16039430  0.49142863  0.49187312  1
  Fe  Fe31  1  -0.00410772  0.32505861  0.66031830  1
  Cr  Cr32  1  0.15860543  0.49009883  0.82565399  1
  Cr  Cr33  1  0.15996974  0.82586821  0.49239143  1
  Cr  Cr34  1  -0.00669195  0.66073642  0.65986869  1
  Cr  Cr35  1  0.15721594  0.82721971  0.82706695  1
  Cr  Cr36  1  0.49154523  0.16186421  0.49228096  1
  Cr  Cr37  1  0.32287997  -0.00426355  0.66244391  1
  Cr  Cr38  1  0.49072653  0.16176615  0.82604583  1
  Cr  Cr39  1  0.49008330  0.49269130  0.49396174  1
  Ni  Ni40  1  0.32072609  0.32601626  0.65897355  1
  Cr  Cr41  1  0.49200073  0.49245351  0.82430054  1
  Cr  Cr42  1  0.49109038  0.82449681  0.49059234  1
  Cr  Cr43  1  0.32411523  0.65682856  0.65815558  1
  Cr  Cr44  1  0.49391269  0.82488634  0.82707003  1
  Cr  Cr45  1  0.82985426  0.16099128  0.49371076  1
  Cr  Cr46  1  0.66212054  0.99289888  0.65975846  1
  Cr  Cr47  1  0.83054265  0.16023018  0.82493972  1
  Cr  Cr48  1  0.82947652  0.49056363  0.49373309  1
  Cr  Cr49  1  0.65828625  0.32681280  0.66015435  1
  Cr  Cr50  1  0.82865822  0.49330149  0.82802969  1
  Cr  Cr51  1  0.82822485  0.82756190  0.49495200  1
  Cr  Cr52  1  0.66169938  0.65934960  0.66060067  1
  Ni  Ni53  1  0.82988119  0.82693685  0.82564974  1
" 