4602,Ni14Fe86_5,-242.501009221848, 200.628844119225,Ni14Fe86,"# generated using pymatgen
 data_Fe7Ni47
_symmetry_space_group_name_H-M   'P 1'
_cell_length_a   7.43526344
_cell_length_b   7.43526344
_cell_length_c   10.51505040
_cell_angle_alpha   90.00000000
_cell_angle_beta   90.00000000
_cell_angle_gamma   90.00000000
_symmetry_Int_Tables_number   1
_chemical_formula_structural   Fe7Ni47
_chemical_formula_sum   'Fe7 Ni47'
_cell_volume   581.30502845
_cell_formula_units_Z   1
loop_
 _symmetry_equiv_pos_site_id
 _symmetry_equiv_pos_as_xyz
  1  'x, y, z'
loop_
 _atom_site_type_symbol
 _atom_site_label
 _atom_site_symmetry_multiplicity
 _atom_site_fract_x
 _atom_site_fract_y
 _atom_site_fract_z
 _atom_site_occupancy
  Ni  Ni0  1  1.00213142  1.00213548  1.00213518  1
  Ni  Ni1  1  0.16880484  0.16880654  0.16880507  1
  Ni  Ni2  1  1.00213093  1.00213274  0.33546983  1
  Ni  Ni3  1  0.00214301  0.33547454  0.00214185  1
  Ni  Ni4  1  0.16880261  0.50213685  0.16880351  1
  Ni  Ni5  1  0.00214253  0.33547382  0.33546795  1
  Ni  Ni6  1  0.00214077  0.66880216  0.00213963  1
  Ni  Ni7  1  0.16880427  0.83546880  0.16880041  1
  Ni  Ni8  1  1.00213373  0.66880563  0.33546849  1
  Ni  Ni9  1  0.33547835  0.00213772  0.00214151  1
  Ni  Ni10  1  0.50213770  0.16880375  0.16880406  1
  Fe  Fe11  1  0.33547261  0.00213971  0.33546886  1
  Ni  Ni12  1  0.33546620  0.33547174  1.00213572  1
  Ni  Ni13  1  0.50213490  0.50213461  0.16880271  1
  Ni  Ni14  1  0.33547129  0.33547158  0.33547017  1
  Ni  Ni15  1  0.33546620  0.66880272  0.00213983  1
  Ni  Ni16  1  0.50213603  0.83547382  0.16880573  1
  Fe  Fe17  1  0.33547071  0.66879945  0.33547072  1
  Ni  Ni18  1  0.66880241  1.00213547  0.00213963  1
  Ni  Ni19  1  0.83546964  0.16880541  0.16880271  1
  Ni  Ni20  1  0.66880549  1.00213331  0.33547072  1
  Fe  Fe21  1  0.66880636  0.33546381  0.00213970  1
  Ni  Ni22  1  0.83547466  0.50213518  0.16880770  1
  Ni  Ni23  1  0.66879836  0.33546879  0.33546883  1
  Fe  Fe24  1  0.66880593  0.66881097  0.00214014  1
  Ni  Ni25  1  0.83547188  0.83547159  0.16880460  1
  Ni  Ni26  1  0.66880773  0.66881008  0.33546916  1
  Fe  Fe27  1  0.16880452  0.16880868  0.50213696  1
  Fe  Fe28  1  1.00213552  1.00213509  0.66880592  1
  Ni  Ni29  1  0.16880874  0.16880841  0.83546748  1
  Ni  Ni30  1  0.16880290  0.50214209  0.50213796  1
  Ni  Ni31  1  0.00213878  0.33547878  0.66880238  1
  Ni  Ni32  1  0.16879882  0.50213772  0.83547072  1
  Ni  Ni33  1  0.16880513  0.83546239  0.50214018  1
  Ni  Ni34  1  1.00213711  0.66879879  0.66880406  1
  Ni  Ni35  1  0.16880875  0.83546605  0.83547159  1
  Ni  Ni36  1  0.50214410  0.16880490  0.50213795  1
  Ni  Ni37  1  0.33548071  1.00213685  0.66880494  1
  Ni  Ni38  1  0.50213655  0.16879794  0.83547017  1
  Ni  Ni39  1  0.50213476  0.50213273  0.50214240  1
  Ni  Ni40  1  0.33546855  0.33546885  0.66880629  1
  Fe  Fe41  1  0.50213278  0.50213739  0.83546612  1
  Ni  Ni42  1  0.50213531  0.83547454  0.50213850  1
  Ni  Ni43  1  0.33546798  0.66880648  0.66880163  1
  Ni  Ni44  1  0.50213430  0.83547877  0.83546795  1
  Ni  Ni45  1  0.83546237  0.16880714  0.50213875  1
  Ni  Ni46  1  0.66879717  1.00213518  0.66880184  1
  Ni  Ni47  1  0.83546689  0.16880786  0.83547072  1
  Ni  Ni48  1  0.83547452  0.50213331  0.50213707  1
  Ni  Ni49  1  0.66880485  0.33546605  0.66880319  1
  Ni  Ni50  1  0.83547961  0.50213547  0.83546741  1
  Ni  Ni51  1  0.83547173  0.83547174  0.50213908  1
  Ni  Ni52  1  0.66880709  0.66881095  0.66880507  1
  Ni  Ni53  1  0.83546913  0.83546885  0.83546849  1
" 