911,Ni14Fe52Cr33_14,-222.899915122218, 170.973857486366,Ni14Fe52Cr33,"# generated using pymatgen
 data_Cr19(Fe4Ni)7
_symmetry_space_group_name_H-M   'P 1'
_cell_length_a   7.48885760
_cell_length_b   7.48885760
_cell_length_c   10.59084399
_cell_angle_alpha   90.00000000
_cell_angle_beta   90.00000000
_cell_angle_gamma   90.00000000
_symmetry_Int_Tables_number   1
_chemical_formula_structural   Cr19(Fe4Ni)7
_chemical_formula_sum   'Cr19 Fe28 Ni7'
_cell_volume   593.96617877
_cell_formula_units_Z   1
loop_
 _symmetry_equiv_pos_site_id
 _symmetry_equiv_pos_as_xyz
  1  'x, y, z'
loop_
 _atom_site_type_symbol
 _atom_site_label
 _atom_site_symmetry_multiplicity
 _atom_site_fract_x
 _atom_site_fract_y
 _atom_site_fract_z
 _atom_site_occupancy
  Cr  Cr0  1  0.00028834  0.99716746  0.99602254  1
  Fe  Fe1  1  0.16796519  0.16356080  0.16276107  1
  Cr  Cr2  1  0.00233794  0.99760620  0.33429951  1
  Fe  Fe3  1  0.99719851  0.33195422  -0.00047663  1
  Fe  Fe4  1  0.16477889  0.50137018  0.16114386  1
  Cr  Cr5  1  0.00166479  0.33301436  0.32867233  1
  Fe  Fe6  1  0.99614106  0.66440644  -0.00110466  1
  Fe  Fe7  1  0.16719575  0.83054502  0.16353675  1
  Cr  Cr8  1  0.00028650  0.66459072  0.33098145  1
  Fe  Fe9  1  0.33405568  0.99802102  -0.00018996  1
  Fe  Fe10  1  0.49945144  0.16367189  0.16240149  1
  Fe  Fe11  1  0.33243947  0.99811076  0.33011030  1
  Fe  Fe12  1  0.33107530  0.32916136  0.00037853  1
  Cr  Cr13  1  0.49886505  0.50113650  0.16316059  1
  Cr  Cr14  1  0.33038399  0.33222109  0.33061994  1
  Fe  Fe15  1  0.33277069  0.66950528  -0.00058258  1
  Ni  Ni16  1  0.49554423  0.83423540  0.16486113  1
  Cr  Cr17  1  0.33241938  0.66536634  0.33444106  1
  Ni  Ni18  1  0.66451294  0.99722199  -0.00145103  1
  Cr  Cr19  1  0.83004113  0.16443975  0.16648541  1
  Fe  Fe20  1  0.66129033  0.99435154  0.33175090  1
  Ni  Ni21  1  0.66495444  0.33276585  0.99729909  1
  Ni  Ni22  1  0.83258700  0.49866989  0.16056185  1
  Cr  Cr23  1  0.66341303  0.33487064  0.33269829  1
  Fe  Fe24  1  0.66548689  0.66725325  0.99789365  1
  Cr  Cr25  1  0.82968852  0.83107218  0.16680319  1
  Fe  Fe26  1  0.66432088  0.66622355  0.33297477  1
  Fe  Fe27  1  0.16576099  0.16666390  0.50149703  1
  Fe  Fe28  1  0.00137722  0.99513443  0.66539715  1
  Fe  Fe29  1  0.16676395  0.16592146  0.83033063  1
  Ni  Ni30  1  0.16717592  0.49993604  0.50114482  1
  Fe  Fe31  1  0.00061642  0.33302990  0.66490524  1
  Cr  Cr32  1  0.16521464  0.50125720  0.83333239  1
  Fe  Fe33  1  0.16598182  0.83117866  0.50156598  1
  Fe  Fe34  1  -0.00073838  0.66803827  0.66456538  1
  Fe  Fe35  1  0.16756243  0.83287142  0.83079693  1
  Cr  Cr36  1  0.49769013  0.16406632  0.49781987  1
  Fe  Fe37  1  0.33045610  0.99654389  0.66579263  1
  Cr  Cr38  1  0.49789931  0.16471896  0.83409259  1
  Ni  Ni39  1  0.49387344  0.49939102  0.50178585  1
  Fe  Fe40  1  0.33087461  0.33207730  0.66391523  1
  Cr  Cr41  1  0.49582302  0.49909047  0.83143952  1
  Fe  Fe42  1  0.49967425  0.83034010  0.49741907  1
  Fe  Fe43  1  0.33040086  0.66804503  0.66358944  1
  Fe  Fe44  1  0.49648542  0.83162952  0.83548857  1
  Cr  Cr45  1  0.83242207  0.16208246  0.49907159  1
  Cr  Cr46  1  0.66486157  0.99500351  0.66685071  1
  Cr  Cr47  1  0.83231249  0.16495990  0.83005584  1
  Cr  Cr48  1  0.83289149  0.49968649  0.49883343  1
  Fe  Fe49  1  0.66414270  0.33256836  0.66515345  1
  Fe  Fe50  1  0.83176184  0.49886699  0.83400654  1
  Ni  Ni51  1  0.83316611  0.83229483  0.49819231  1
  Cr  Cr52  1  0.66364456  0.66490867  0.66559046  1
  Fe  Fe53  1  0.83211486  0.82854843  0.83268172  1
" 