7282,Ni14Fe52Cr33_18,-222.622070160976, 180.284636785287,Ni14Fe52Cr33,"# generated using pymatgen
 data_Cr19(Fe4Ni)7
_symmetry_space_group_name_H-M   'P 1'
_cell_length_a   7.48118497
_cell_length_b   7.48118497
_cell_length_c   10.57999325
_cell_angle_alpha   90.00000000
_cell_angle_beta   90.00000000
_cell_angle_gamma   90.00000000
_symmetry_Int_Tables_number   1
_chemical_formula_structural   Cr19(Fe4Ni)7
_chemical_formula_sum   'Cr19 Fe28 Ni7'
_cell_volume   592.14242323
_cell_formula_units_Z   1
loop_
 _symmetry_equiv_pos_site_id
 _symmetry_equiv_pos_as_xyz
  1  'x, y, z'
loop_
 _atom_site_type_symbol
 _atom_site_label
 _atom_site_symmetry_multiplicity
 _atom_site_fract_x
 _atom_site_fract_y
 _atom_site_fract_z
 _atom_site_occupancy
  Fe  Fe0  1  0.99578357  0.99845166  0.00057328  1
  Cr  Cr1  1  0.16401796  0.16338908  0.16453044  1
  Fe  Fe2  1  0.99787055  0.00107443  0.33228266  1
  Fe  Fe3  1  0.99807297  0.33307840  0.00160884  1
  Fe  Fe4  1  0.16694256  0.49768158  0.16724285  1
  Cr  Cr5  1  0.99684979  0.33327627  0.33471254  1
  Cr  Cr6  1  0.99635343  0.66607118  0.00298570  1
  Fe  Fe7  1  0.16709168  0.83512489  0.16738859  1
  Cr  Cr8  1  0.99898064  0.66511706  0.33039925  1
  Fe  Fe9  1  0.33510338  0.99726939  -0.00014853  1
  Cr  Cr10  1  0.49980875  0.16626860  0.16861778  1
  Ni  Ni11  1  0.33462634  -0.00030854  0.33275575  1
  Cr  Cr12  1  0.33331984  0.33149156  0.99619613  1
  Fe  Fe13  1  0.49912202  0.49931538  0.16748357  1
  Fe  Fe14  1  0.33145572  0.33226820  0.33405996  1
  Cr  Cr15  1  0.33276626  0.66621795  -0.00093238  1
  Fe  Fe16  1  0.49883904  0.83452502  0.16650761  1
  Fe  Fe17  1  0.33208211  0.66598643  0.33037580  1
  Fe  Fe18  1  0.66603849  0.99541018  -0.00036338  1
  Ni  Ni19  1  0.83245859  0.16379903  0.16532494  1
  Fe  Fe20  1  0.66720532  0.00148185  0.33266093  1
  Cr  Cr21  1  0.66560982  0.33104909  0.00111747  1
  Fe  Fe22  1  0.83115679  0.49551824  0.16487515  1
  Fe  Fe23  1  0.66661784  0.32895163  0.33322485  1
  Fe  Fe24  1  0.66448224  0.66821279  0.00015718  1
  Fe  Fe25  1  0.83124618  0.83743076  0.16434057  1
  Cr  Cr26  1  0.66841751  0.66601815  0.32945299  1
  Ni  Ni27  1  0.16428314  0.16621249  0.49741797  1
  Fe  Fe28  1  0.99666973  0.00287274  0.66462871  1
  Cr  Cr29  1  0.16322967  0.16594615  0.83538427  1
  Ni  Ni30  1  0.16934602  0.49737194  0.49981048  1
  Fe  Fe31  1  0.99827610  0.33004947  0.66133539  1
  Fe  Fe32  1  0.16416477  0.49967856  0.83090954  1
  Cr  Cr33  1  0.16808861  0.83339277  0.49667216  1
  Cr  Cr34  1  0.99874593  0.66453168  0.66379386  1
  Cr  Cr35  1  0.16444851  0.83390285  0.83189054  1
  Fe  Fe36  1  0.49971237  0.16459974  0.49681770  1
  Cr  Cr37  1  0.33586784  0.00011582  0.66597017  1
  Fe  Fe38  1  0.50294574  0.16355603  0.83226420  1
  Cr  Cr39  1  0.49979492  0.50065255  0.49735212  1
  Cr  Cr40  1  0.33285258  0.32999315  0.66691018  1
  Fe  Fe41  1  0.50051205  0.50069686  0.82992988  1
  Fe  Fe42  1  0.49842662  0.83518724  0.49775460  1
  Fe  Fe43  1  0.33515557  0.66396882  0.66638904  1
  Fe  Fe44  1  0.50353286  0.83264588  0.83245645  1
  Ni  Ni45  1  0.83093271  0.16595718  0.49974246  1
  Fe  Fe46  1  0.66657975  0.00048574  0.66601287  1
  Cr  Cr47  1  0.83336880  0.16424964  0.83257697  1
  Fe  Fe48  1  0.83354339  0.49492777  0.50122180  1
  Ni  Ni49  1  0.66639108  0.33007604  0.66286172  1
  Cr  Cr50  1  0.82936973  0.49900384  0.82991509  1
  Cr  Cr51  1  0.83010325  0.83547726  0.50133995  1
  Fe  Fe52  1  0.66234535  0.66653983  0.66650399  1
  Ni  Ni53  1  0.82797102  0.83271520  0.83368484  1
" 