4824,Ni14Fe86_14,-242.313097511739, 198.89346334775,Ni14Fe86,"# generated using pymatgen
 data_Fe7Ni47
_symmetry_space_group_name_H-M   'P 1'
_cell_length_a   7.43479134
_cell_length_b   7.43479134
_cell_length_c   10.51438275
_cell_angle_alpha   90.00000000
_cell_angle_beta   90.00000000
_cell_angle_gamma   90.00000000
_symmetry_Int_Tables_number   1
_chemical_formula_structural   Fe7Ni47
_chemical_formula_sum   'Fe7 Ni47'
_cell_volume   581.19430709
_cell_formula_units_Z   1
loop_
 _symmetry_equiv_pos_site_id
 _symmetry_equiv_pos_as_xyz
  1  'x, y, z'
loop_
 _atom_site_type_symbol
 _atom_site_label
 _atom_site_symmetry_multiplicity
 _atom_site_fract_x
 _atom_site_fract_y
 _atom_site_fract_z
 _atom_site_occupancy
  Ni  Ni0  1  0.00252299  0.00220307  0.00245103  1
  Ni  Ni1  1  0.16842495  0.16911361  0.16770750  1
  Ni  Ni2  1  0.00263367  0.00266421  0.33600842  1
  Ni  Ni3  1  1.00215867  0.33574535  0.00240873  1
  Ni  Ni4  1  0.16932185  0.50160665  0.16873461  1
  Ni  Ni5  1  0.00391594  0.33579726  0.33527447  1
  Ni  Ni6  1  0.00226054  0.66849589  1.00183008  1
  Ni  Ni7  1  0.16874954  0.83597561  0.17000131  1
  Ni  Ni8  1  1.00045485  0.66808072  0.33636500  1
  Ni  Ni9  1  0.33523216  1.00179174  1.00209094  1
  Fe  Fe10  1  0.50166465  0.16877843  0.16849572  1
  Ni  Ni11  1  0.33558975  0.00373900  0.33572025  1
  Ni  Ni12  1  0.33525384  0.33586419  1.00072417  1
  Ni  Ni13  1  0.50143270  0.50263593  0.16922360  1
  Ni  Ni14  1  0.33447950  0.33508033  0.33638097  1
  Ni  Ni15  1  0.33560998  0.66880485  0.00342086  1
  Ni  Ni16  1  0.50223661  0.83525537  0.16828578  1
  Fe  Fe17  1  0.33489886  0.66952771  0.33544386  1
  Ni  Ni18  1  0.66866114  1.00193047  1.00188112  1
  Ni  Ni19  1  0.83652215  0.16807788  0.16957489  1
  Ni  Ni20  1  0.66830153  1.00006734  0.33587666  1
  Ni  Ni21  1  0.66898822  0.33617369  0.00316140  1
  Ni  Ni22  1  0.83566901  0.50199653  0.16876590  1
  Fe  Fe23  1  0.66982761  0.33493300  0.33597553  1
  Ni  Ni24  1  0.66853808  0.66839850  1.00121041  1
  Ni  Ni25  1  0.83533987  0.83608284  0.16812576  1
  Ni  Ni26  1  0.66897435  0.66891455  0.33570596  1
  Ni  Ni27  1  0.16875918  0.16959527  0.50317050  1
  Ni  Ni28  1  0.00248289  0.00397117  0.66827394  1
  Fe  Fe29  1  0.16843541  0.16830275  0.83558172  1
  Ni  Ni30  1  0.16892898  0.50133549  0.50224479  1
  Ni  Ni31  1  1.00212762  0.33567999  0.66882640  1
  Ni  Ni32  1  0.16947974  0.50283948  0.83551027  1
  Fe  Fe33  1  0.16857357  0.83613041  0.50211778  1
  Fe  Fe34  1  1.00109276  0.66955837  0.66926903  1
  Ni  Ni35  1  0.16940547  0.83478267  0.83527889  1
  Ni  Ni36  1  0.50201738  0.16790998  0.50160135  1
  Ni  Ni37  1  0.33558530  1.00106549  0.66868963  1
  Ni  Ni38  1  0.50331773  0.16863455  0.83557629  1
  Ni  Ni39  1  0.50153992  0.50267377  0.50193736  1
  Fe  Fe40  1  0.33699292  0.33478084  0.66848554  1
  Ni  Ni41  1  0.50135611  0.50188431  0.83508539  1
  Ni  Ni42  1  0.50265081  0.83569705  0.50242789  1
  Ni  Ni43  1  0.33628327  0.66898463  0.66758562  1
  Ni  Ni44  1  0.50128844  0.83573156  0.83577165  1
  Ni  Ni45  1  0.83625650  0.16807192  0.50159577  1
  Ni  Ni46  1  0.66838933  1.00200485  0.66861351  1
  Ni  Ni47  1  0.83477445  0.16879072  0.83533884  1
  Ni  Ni48  1  0.83615378  0.50231978  0.50227462  1
  Ni  Ni49  1  0.67020706  0.33612751  0.66717689  1
  Ni  Ni50  1  0.83576881  0.50111964  0.83566439  1
  Ni  Ni51  1  0.83446673  0.83616381  0.50282138  1
  Ni  Ni52  1  0.66750735  0.66837298  0.66960685  1
  Ni  Ni53  1  0.83563655  0.83687737  0.83576985  1
" 