1066,Ni14Fe12Cr73_9,-209.452111752322, 182.342041282211,Ni14Fe12Cr73,"# generated using pymatgen
 data_Cr41Fe6Ni7
_symmetry_space_group_name_H-M   'P 1'
_cell_length_a   7.56843634
_cell_length_b   7.56843634
_cell_length_c   10.70338532
_cell_angle_alpha   90.00000000
_cell_angle_beta   90.00000000
_cell_angle_gamma   90.00000000
_symmetry_Int_Tables_number   1
_chemical_formula_structural   Cr41Fe6Ni7
_chemical_formula_sum   'Cr41 Fe6 Ni7'
_cell_volume   613.10306258
_cell_formula_units_Z   1
loop_
 _symmetry_equiv_pos_site_id
 _symmetry_equiv_pos_as_xyz
  1  'x, y, z'
loop_
 _atom_site_type_symbol
 _atom_site_label
 _atom_site_symmetry_multiplicity
 _atom_site_fract_x
 _atom_site_fract_y
 _atom_site_fract_z
 _atom_site_occupancy
  Cr  Cr0  1  0.99184222  -0.00563206  0.99162833  1
  Cr  Cr1  1  0.16172059  0.16198812  0.15342963  1
  Cr  Cr2  1  0.99313628  -0.00373710  0.32775692  1
  Fe  Fe3  1  -0.00567990  0.32893435  0.99210581  1
  Cr  Cr4  1  0.15878690  0.49323569  0.15860899  1
  Cr  Cr5  1  -0.00601703  0.32615988  0.32737634  1
  Cr  Cr6  1  0.99265242  0.66133574  0.99152755  1
  Cr  Cr7  1  0.15912182  0.82618941  0.16243296  1
  Ni  Ni8  1  -0.00566268  0.65747804  0.32988428  1
  Cr  Cr9  1  0.32710258  0.99067752  0.99259113  1
  Cr  Cr10  1  0.49219592  0.15926859  0.15891304  1
  Cr  Cr11  1  0.32669655  -0.00658700  0.32544115  1
  Ni  Ni12  1  0.32712615  0.32845836  0.98868276  1
  Cr  Cr13  1  0.49280466  0.49158260  0.15817135  1
  Cr  Cr14  1  0.32550383  0.32706688  0.32806957  1
  Cr  Cr15  1  0.32776757  0.65841737  0.99201117  1
  Ni  Ni16  1  0.49355021  0.82579186  0.15959472  1
  Cr  Cr17  1  0.32567783  0.65794560  0.32644897  1
  Cr  Cr18  1  0.65999089  0.99125660  0.99170507  1
  Cr  Cr19  1  0.82686672  0.16181145  0.15831982  1
  Cr  Cr20  1  0.66145556  -0.00481227  0.32748283  1
  Cr  Cr21  1  0.65943953  0.32837224  0.99298436  1
  Cr  Cr22  1  0.82819596  0.49461689  0.15962508  1
  Cr  Cr23  1  0.66167335  0.32571176  0.32820344  1
  Cr  Cr24  1  0.65761188  0.66057893  0.99046810  1
  Cr  Cr25  1  0.82697134  0.82526776  0.16116293  1
  Cr  Cr26  1  0.65880634  0.65899248  0.32375020  1
  Cr  Cr27  1  0.16264914  0.15996266  0.49697932  1
  Cr  Cr28  1  0.99247848  -0.00578627  0.66088929  1
  Cr  Cr29  1  0.16078238  0.16049583  0.82879231  1
  Fe  Fe30  1  0.15830619  0.49156206  0.49574328  1
  Fe  Fe31  1  0.99303951  0.32784237  0.65975454  1
  Cr  Cr32  1  0.15916718  0.49220916  0.82491574  1
  Cr  Cr33  1  0.15831467  0.82421655  0.49243664  1
  Fe  Fe34  1  0.99113355  0.65920551  0.65958054  1
  Cr  Cr35  1  0.15806657  0.82556899  0.82530918  1
  Cr  Cr36  1  0.49617901  0.16109398  0.49643345  1
  Cr  Cr37  1  0.32667807  0.99039802  0.66147341  1
  Cr  Cr38  1  0.49372327  0.16062608  0.82519664  1
  Cr  Cr39  1  0.49342145  0.49179560  0.49590386  1
  Fe  Fe40  1  0.32906986  0.32625491  0.66225078  1
  Ni  Ni41  1  0.49313277  0.49309706  0.82542165  1
  Cr  Cr42  1  0.49251547  0.82649188  0.49164111  1
  Cr  Cr43  1  0.32524637  0.65712652  0.66057338  1
  Ni  Ni44  1  0.49245972  0.82426629  0.82640510  1
  Ni  Ni45  1  0.82960179  0.16425808  0.49730028  1
  Cr  Cr46  1  0.66155526  -0.00567595  0.66093071  1
  Cr  Cr47  1  0.82700286  0.16232831  0.82650107  1
  Cr  Cr48  1  0.82653646  0.49451526  0.49403833  1
  Ni  Ni49  1  0.66247527  0.32892247  0.66091016  1
  Cr  Cr50  1  0.82619875  0.49418758  0.82665974  1
  Cr  Cr51  1  0.82688035  0.82629955  0.49359397  1
  Cr  Cr52  1  0.65767124  0.65980401  0.66471219  1
  Fe  Fe53  1  0.82467785  0.82686477  0.82557786  1
" 