1008,Ni14Fe86_15,-242.322183198752, 198.907528216774,Ni14Fe86,"# generated using pymatgen
 data_Fe7Ni47
_symmetry_space_group_name_H-M   'P 1'
_cell_length_a   7.43509747
_cell_length_b   7.43509747
_cell_length_c   10.51481568
_cell_angle_alpha   90.00000000
_cell_angle_beta   90.00000000
_cell_angle_gamma   90.00000000
_symmetry_Int_Tables_number   1
_chemical_formula_structural   Fe7Ni47
_chemical_formula_sum   'Fe7 Ni47'
_cell_volume   581.26610208
_cell_formula_units_Z   1
loop_
 _symmetry_equiv_pos_site_id
 _symmetry_equiv_pos_as_xyz
  1  'x, y, z'
loop_
 _atom_site_type_symbol
 _atom_site_label
 _atom_site_symmetry_multiplicity
 _atom_site_fract_x
 _atom_site_fract_y
 _atom_site_fract_z
 _atom_site_occupancy
  Ni  Ni0  1  0.00257166  1.00209626  1.00195909  1
  Fe  Fe1  1  0.16881526  0.16881909  0.16892893  1
  Ni  Ni2  1  0.00279093  0.00249991  0.33586584  1
  Ni  Ni3  1  0.00233801  0.33567182  1.00174444  1
  Ni  Ni4  1  0.16994254  0.50307331  0.16862296  1
  Ni  Ni5  1  0.00255705  0.33527116  0.33608046  1
  Ni  Ni6  1  0.00239014  0.66867771  0.00218257  1
  Ni  Ni7  1  0.16768795  0.83454854  0.16862231  1
  Fe  Fe8  1  1.00194205  0.66907992  0.33568660  1
  Ni  Ni9  1  0.33500649  1.00214843  1.00196769  1
  Ni  Ni10  1  0.50331750  0.16994579  0.16877722  1
  Ni  Ni11  1  0.33478718  0.00255035  0.33585740  1
  Ni  Ni12  1  0.33534472  0.33572384  1.00173582  1
  Ni  Ni13  1  0.50111329  0.50087565  0.16867211  1
  Ni  Ni14  1  0.33512572  0.33532143  0.33608892  1
  Ni  Ni15  1  0.33524035  0.66857387  0.00218250  1
  Fe  Fe16  1  0.50241330  0.83568612  0.16861093  1
  Fe  Fe17  1  0.33568843  0.66844033  0.33568669  1
  Ni  Ni18  1  0.66886770  0.00220101  1.00195868  1
  Ni  Ni19  1  0.83431301  0.16769078  0.16877722  1
  Ni  Ni20  1  0.66886755  1.00176094  0.33614986  1
  Ni  Ni21  1  0.66876308  0.33590500  0.00252785  1
  Fe  Fe22  1  0.83522131  0.50194479  0.16861131  1
  Ni  Ni23  1  0.66876326  0.33634490  0.33558031  1
  Ni  Ni24  1  0.66881536  0.66833956  1.00139822  1
  Ni  Ni25  1  0.83651073  0.83675200  0.16867181  1
  Ni  Ni26  1  0.66881537  0.66833951  0.33614162  1
  Ni  Ni27  1  0.16881531  0.16862324  0.50111372  1
  Ni  Ni28  1  0.00285075  1.00175352  0.66862161  1
  Ni  Ni29  1  0.16881531  0.16862182  0.83661302  1
  Ni  Ni30  1  0.16910063  0.50243197  0.50200254  1
  Fe  Fe31  1  1.00162487  0.33553707  0.66875676  1
  Ni  Ni32  1  0.16910134  0.50263639  0.83581987  1
  Ni  Ni33  1  0.16853004  0.83539069  0.50209692  1
  Ni  Ni34  1  0.00255214  0.66901958  0.66839873  1
  Ni  Ni35  1  0.16852934  0.83518727  0.83572463  1
  Ni  Ni36  1  0.50257448  0.16896054  0.50189663  1
  Ni  Ni37  1  0.33478601  1.00174734  0.66862156  1
  Ni  Ni38  1  0.50253220  0.16896035  0.83577261  1
  Ni  Ni39  1  0.50205467  0.50186164  0.50200118  1
  Fe  Fe40  1  0.33600201  0.33553336  0.66875677  1
  Ni  Ni41  1  0.50195403  0.50200634  0.83577222  1
  Ni  Ni42  1  0.50228901  0.83562291  0.50131199  1
  Ni  Ni43  1  0.33507840  0.66903190  0.66839873  1
  Ni  Ni44  1  0.50218819  0.83547895  0.83646064  1
  Ni  Ni45  1  0.83505598  0.16838925  0.50189656  1
  Ni  Ni46  1  0.66880906  0.00258278  0.66833680  1
  Ni  Ni47  1  0.83509826  0.16838826  0.83577269  1
  Ni  Ni48  1  0.83529080  0.50214801  0.50120833  1
  Ni  Ni49  1  0.66882145  0.33596374  0.66833666  1
  Ni  Ni50  1  0.83539043  0.50229238  0.83656467  1
  Ni  Ni51  1  0.83562638  0.83590899  0.50210461  1
  Ni  Ni52  1  0.66881529  0.66789954  0.66890628  1
  Ni  Ni53  1  0.83572820  0.83576469  0.83566845  1
" 