7435,Ni14Fe12Cr73_16,-209.224390074949, 180.104257387239,Ni14Fe12Cr73,"# generated using pymatgen
 data_Cr41Fe6Ni7
_symmetry_space_group_name_H-M   'P 1'
_cell_length_a   7.56806632
_cell_length_b   7.56806632
_cell_length_c   10.70286202
_cell_angle_alpha   90.00000000
_cell_angle_beta   90.00000000
_cell_angle_gamma   90.00000000
_symmetry_Int_Tables_number   1
_chemical_formula_structural   Cr41Fe6Ni7
_chemical_formula_sum   'Cr41 Fe6 Ni7'
_cell_volume   613.01314125
_cell_formula_units_Z   1
loop_
 _symmetry_equiv_pos_site_id
 _symmetry_equiv_pos_as_xyz
  1  'x, y, z'
loop_
 _atom_site_type_symbol
 _atom_site_label
 _atom_site_symmetry_multiplicity
 _atom_site_fract_x
 _atom_site_fract_y
 _atom_site_fract_z
 _atom_site_occupancy
  Cr  Cr0  1  -0.00626776  0.99150940  -0.00547442  1
  Cr  Cr1  1  0.15950437  0.15875977  0.15923490  1
  Cr  Cr2  1  0.99257171  0.99246703  0.32307810  1
  Cr  Cr3  1  0.99192702  0.32691915  -0.00633132  1
  Cr  Cr4  1  0.15918400  0.49532273  0.16030957  1
  Cr  Cr5  1  0.99307959  0.32770392  0.32781345  1
  Ni  Ni6  1  -0.00548273  0.66112411  -0.00507085  1
  Ni  Ni7  1  0.15704919  0.82551367  0.15966148  1
  Fe  Fe8  1  -0.00529006  0.66033444  0.32584967  1
  Cr  Cr9  1  0.32491558  0.99232677  0.99323242  1
  Cr  Cr10  1  0.49429063  0.16098547  0.15896698  1
  Cr  Cr11  1  0.32663059  0.99265475  0.32644799  1
  Fe  Fe12  1  0.32698178  0.32710722  0.99286905  1
  Cr  Cr13  1  0.49371867  0.49220476  0.15757243  1
  Cr  Cr14  1  0.32606632  0.32745533  0.32855435  1
  Cr  Cr15  1  0.32396942  0.66050803  0.99222940  1
  Cr  Cr16  1  0.49289560  0.82678634  0.16089961  1
  Cr  Cr17  1  0.32405940  0.65987151  0.32731613  1
  Cr  Cr18  1  0.66133503  -0.00470155  -0.00509469  1
  Ni  Ni19  1  0.82576846  0.15926114  0.15935267  1
  Cr  Cr20  1  0.66077727  -0.00553018  0.32627231  1
  Fe  Fe21  1  0.66058390  0.32621630  -0.00578819  1
  Cr  Cr22  1  0.82707228  0.49392899  0.15937069  1
  Cr  Cr23  1  0.66083685  0.32513318  0.32594968  1
  Cr  Cr24  1  0.66111560  0.65870855  0.99240268  1
  Fe  Fe25  1  0.82960938  0.82713350  0.15951952  1
  Cr  Cr26  1  0.66102755  0.66037824  0.32713787  1
  Cr  Cr27  1  0.16038793  0.16214649  0.49605143  1
  Ni  Ni28  1  -0.00576508  -0.00582534  0.66134575  1
  Cr  Cr29  1  0.15989644  0.15935734  0.82468913  1
  Ni  Ni30  1  0.16034536  0.49158466  0.49403749  1
  Fe  Fe31  1  -0.00408725  0.32578415  0.65909362  1
  Cr  Cr32  1  0.16009743  0.49303747  0.82643819  1
  Cr  Cr33  1  0.15908540  0.82618631  0.49292246  1
  Cr  Cr34  1  -0.00498053  0.65983029  0.66041765  1
  Ni  Ni35  1  0.15831800  0.82685456  0.82687217  1
  Fe  Fe36  1  0.49199792  0.16131281  0.49419466  1
  Cr  Cr37  1  0.32511381  -0.00601912  0.66029847  1
  Cr  Cr38  1  0.49200122  0.16167203  0.82763533  1
  Cr  Cr39  1  0.49143398  0.49243953  0.49357418  1
  Ni  Ni40  1  0.32516910  0.32670192  0.65858858  1
  Cr  Cr41  1  0.49313608  0.49206558  0.82882871  1
  Cr  Cr42  1  0.49409669  0.82759064  0.49327668  1
  Cr  Cr43  1  0.32535096  0.65862609  0.66043234  1
  Cr  Cr44  1  0.49238333  0.82624018  0.82580168  1
  Cr  Cr45  1  0.82759330  0.15948253  0.49528635  1
  Cr  Cr46  1  0.66101004  -0.00599090  0.65879908  1
  Cr  Cr47  1  0.82808221  0.16011151  0.82544728  1
  Cr  Cr48  1  0.82899342  0.49373613  0.49341738  1
  Cr  Cr49  1  0.65980822  0.32620486  0.65943273  1
  Cr  Cr50  1  0.82674496  0.49342509  0.82719639  1
  Cr  Cr51  1  0.82679814  0.82675854  0.49310210  1
  Cr  Cr52  1  0.65960757  0.65976768  0.66043000  1
  Cr  Cr53  1  0.82905515  0.82643984  0.82571214  1
" 