912,Ni14Fe86_0,-242.267125397197, 198.87247528435,Ni14Fe86,"# generated using pymatgen
 data_Fe7Ni47
_symmetry_space_group_name_H-M   'P 1'
_cell_length_a   7.43354893
_cell_length_b   7.43354893
_cell_length_c   10.51262571
_cell_angle_alpha   90.00000000
_cell_angle_beta   90.00000000
_cell_angle_gamma   90.00000000
_symmetry_Int_Tables_number   1
_chemical_formula_structural   Fe7Ni47
_chemical_formula_sum   'Fe7 Ni47'
_cell_volume   580.90298922
_cell_formula_units_Z   1
loop_
 _symmetry_equiv_pos_site_id
 _symmetry_equiv_pos_as_xyz
  1  'x, y, z'
loop_
 _atom_site_type_symbol
 _atom_site_label
 _atom_site_symmetry_multiplicity
 _atom_site_fract_x
 _atom_site_fract_y
 _atom_site_fract_z
 _atom_site_occupancy
  Fe  Fe0  1  0.00249334  1.00201307  0.00250318  1
  Ni  Ni1  1  0.16867444  0.16930327  0.16826929  1
  Ni  Ni2  1  1.00191805  0.00258837  0.33497015  1
  Ni  Ni3  1  0.00253238  0.33658327  0.00254020  1
  Ni  Ni4  1  0.16863217  0.50196154  0.16868374  1
  Ni  Ni5  1  1.00112883  0.33608800  0.33573193  1
  Ni  Ni6  1  1.00203897  0.66734761  0.00249799  1
  Fe  Fe7  1  0.16918365  0.83532277  0.16916793  1
  Ni  Ni8  1  0.00304681  0.66808133  0.33548621  1
  Ni  Ni9  1  0.33715880  0.00246745  0.00249799  1
  Ni  Ni10  1  0.50203688  0.16807588  0.16872697  1
  Ni  Ni11  1  0.33642509  1.00145961  0.33548621  1
  Ni  Ni12  1  0.33482488  0.33546682  0.00299565  1
  Ni  Ni13  1  0.50169176  0.50281466  0.16834130  1
  Fe  Fe14  1  0.33508380  0.33508534  0.33547228  1
  Ni  Ni15  1  0.33567643  0.66882999  1.00216499  1
  Ni  Ni16  1  0.50254488  0.83587425  0.16868374  1
  Ni  Ni17  1  0.33502194  0.66948448  0.33519754  1
  Ni  Ni18  1  0.66792314  1.00197404  0.00254020  1
  Ni  Ni19  1  0.83604409  0.16846233  0.16908795  1
  Ni  Ni20  1  0.66841841  0.00337759  0.33573193  1
  Fe  Fe21  1  0.66842228  0.33608414  0.00226501  1
  Ni  Ni22  1  0.83643054  0.50246953  0.16872697  1
  Ni  Ni23  1  0.66982166  0.33468476  0.33486040  1
  Ni  Ni24  1  0.66903960  0.66968154  0.00299565  1
  Ni  Ni25  1  0.83520315  0.83583198  0.16826929  1
  Fe  Fe26  1  0.66942108  0.66942261  0.33547228  1
  Ni  Ni27  1  0.16857221  0.16861651  0.50309138  1
  Ni  Ni28  1  1.00202238  0.00248404  0.66897496  1
  Fe  Fe29  1  0.16968785  0.16968985  0.83544057  1
  Ni  Ni30  1  0.16859098  0.50254960  0.50263816  1
  Ni  Ni31  1  1.00195753  0.33597005  0.66848866  1
  Ni  Ni32  1  0.16851349  0.50338046  0.83543901  1
  Ni  Ni33  1  0.16891654  0.83558988  0.50179129  1
  Ni  Ni34  1  0.00236216  0.66830608  0.66877794  1
  Ni  Ni35  1  0.16967871  0.83482770  0.83597229  1
  Ni  Ni36  1  0.50236306  0.16836065  0.50234876  1
  Ni  Ni37  1  0.33620033  1.00214425  0.66877794  1
  Ni  Ni38  1  0.50305025  0.16817750  0.83568492  1
  Ni  Ni39  1  0.50202237  0.50248405  0.50267353  1
  Ni  Ni40  1  0.33564386  0.33568817  0.66832171  1
  Ni  Ni41  1  0.50191242  0.50259400  0.83574562  1
  Ni  Ni42  1  0.50195681  0.83591544  0.50263816  1
  Ni  Ni43  1  0.33557369  0.66893273  0.66939684  1
  Ni  Ni44  1  0.50112596  0.83599293  0.83543901  1
  Ni  Ni45  1  0.83582009  0.16868632  0.50201636  1
  Ni  Ni46  1  0.66853637  0.00254889  0.66848866  1
  Ni  Ni47  1  0.83516695  0.16933947  0.83565104  1
  Ni  Ni48  1  0.83614576  0.50214336  0.50234876  1
  Ni  Ni49  1  0.66916282  0.33534359  0.66962217  1
  Ni  Ni50  1  0.83632892  0.50145617  0.83568492  1
  Ni  Ni51  1  0.83588991  0.83593420  0.50309138  1
  Ni  Ni52  1  0.66881825  0.66886256  0.66832171  1
  Fe  Fe53  1  0.83481657  0.83481857  0.83544057  1
" 