2959,Ni14Fe12Cr73_6,-209.119766998908, 177.318115724997,Ni14Fe12Cr73,"# generated using pymatgen
 data_Cr41Fe6Ni7
_symmetry_space_group_name_H-M   'P 1'
_cell_length_a   7.57521407
_cell_length_b   7.57521407
_cell_length_c   10.71297048
_cell_angle_alpha   90.00000000
_cell_angle_beta   90.00000000
_cell_angle_gamma   90.00000000
_symmetry_Int_Tables_number   1
_chemical_formula_structural   Cr41Fe6Ni7
_chemical_formula_sum   'Cr41 Fe6 Ni7'
_cell_volume   614.75168695
_cell_formula_units_Z   1
loop_
 _symmetry_equiv_pos_site_id
 _symmetry_equiv_pos_as_xyz
  1  'x, y, z'
loop_
 _atom_site_type_symbol
 _atom_site_label
 _atom_site_symmetry_multiplicity
 _atom_site_fract_x
 _atom_site_fract_y
 _atom_site_fract_z
 _atom_site_occupancy
  Ni  Ni0  1  0.99169683  -0.00673632  -0.00712133  1
  Ni  Ni1  1  0.15933781  0.15966792  0.15871954  1
  Cr  Cr2  1  -0.00672455  -0.00696407  0.32540147  1
  Cr  Cr3  1  -0.00639067  0.32382187  -0.00630960  1
  Cr  Cr4  1  0.16090092  0.49195310  0.16091303  1
  Cr  Cr5  1  -0.00649082  0.32567980  0.32577217  1
  Cr  Cr6  1  0.99217726  0.66194045  0.99208994  1
  Cr  Cr7  1  0.15929114  0.82675183  0.15920740  1
  Cr  Cr8  1  -0.00681012  0.65986500  0.32653073  1
  Cr  Cr9  1  0.32469177  -0.00604701  0.99204271  1
  Cr  Cr10  1  0.49316756  0.15881825  0.15969823  1
  Cr  Cr11  1  0.32629617  -0.00696304  0.32649043  1
  Cr  Cr12  1  0.32599753  0.32491209  -0.00593774  1
  Cr  Cr13  1  0.49133825  0.49335900  0.16080344  1
  Fe  Fe14  1  0.32526957  0.32602785  0.32577308  1
  Cr  Cr15  1  0.32629576  0.65971560  -0.00606457  1
  Cr  Cr16  1  0.49400274  0.82640342  0.16056624  1
  Fe  Fe17  1  0.32684684  0.65880216  0.32618581  1
  Ni  Ni18  1  0.66222150  0.99178914  -0.00682854  1
  Cr  Cr19  1  0.82668860  0.15721448  0.15849387  1
  Fe  Fe20  1  0.65960552  0.99216920  0.32579706  1
  Cr  Cr21  1  0.65897493  0.32542003  -0.00695648  1
  Cr  Cr22  1  0.82633907  0.49279755  0.15959134  1
  Cr  Cr23  1  0.65851550  0.32625407  0.32596552  1
  Cr  Cr24  1  0.66010869  0.66062892  0.99103042  1
  Cr  Cr25  1  0.82528910  0.82857095  0.15842138  1
  Fe  Fe26  1  0.65887743  0.66026849  0.32664568  1
  Cr  Cr27  1  0.16015526  0.16130062  0.49576869  1
  Cr  Cr28  1  -0.00562956  -0.00650863  0.66006418  1
  Fe  Fe29  1  0.15861436  0.15960470  0.82540504  1
  Cr  Cr30  1  0.16015894  0.49150263  0.49299973  1
  Ni  Ni31  1  -0.00394172  0.32536838  0.65953869  1
  Cr  Cr32  1  0.15941589  0.49070818  0.82467601  1
  Cr  Cr33  1  0.16072696  0.82577872  0.49268793  1
  Cr  Cr34  1  0.99061515  0.65934673  0.65995672  1
  Cr  Cr35  1  0.15822704  0.82788470  0.82668799  1
  Cr  Cr36  1  0.49207400  0.15912355  0.49332712  1
  Fe  Fe37  1  0.32585488  -0.00510860  0.65980945  1
  Cr  Cr38  1  0.49167371  0.15884890  0.82555392  1
  Cr  Cr39  1  0.49188638  0.49349734  0.49254554  1
  Ni  Ni40  1  0.32396148  0.32464302  0.65919547  1
  Cr  Cr41  1  0.49244042  0.49271178  0.82523314  1
  Cr  Cr42  1  0.49350950  0.82596220  0.49222662  1
  Cr  Cr43  1  0.32762582  0.65983365  0.65942731  1
  Cr  Cr44  1  0.49477581  0.82702490  0.82578356  1
  Cr  Cr45  1  0.82635100  0.15968466  0.49234826  1
  Cr  Cr46  1  0.65872804  0.99100831  0.65905883  1
  Cr  Cr47  1  0.82757598  0.15766567  0.82773814  1
  Cr  Cr48  1  0.82653373  0.49292942  0.49450845  1
  Cr  Cr49  1  0.65921077  0.32788593  0.65957245  1
  Cr  Cr50  1  0.82672335  0.49380583  0.82447802  1
  Cr  Cr51  1  0.82434780  0.82596659  0.49218923  1
  Ni  Ni52  1  0.65960850  0.66029454  0.65953446  1
  Ni  Ni53  1  0.82572924  0.82758257  0.82723087  1
" 