6520,Ni14Fe52Cr33_0,-222.924412257722, 172.722557946506,Ni14Fe52Cr33,"# generated using pymatgen
 data_Cr19(Fe4Ni)7
_symmetry_space_group_name_H-M   'P 1'
_cell_length_a   7.49106647
_cell_length_b   7.49106647
_cell_length_c   10.59396780
_cell_angle_alpha   90.00000000
_cell_angle_beta   90.00000000
_cell_angle_gamma   90.00000000
_symmetry_Int_Tables_number   1
_chemical_formula_structural   Cr19(Fe4Ni)7
_chemical_formula_sum   'Cr19 Fe28 Ni7'
_cell_volume   594.49191085
_cell_formula_units_Z   1
loop_
 _symmetry_equiv_pos_site_id
 _symmetry_equiv_pos_as_xyz
  1  'x, y, z'
loop_
 _atom_site_type_symbol
 _atom_site_label
 _atom_site_symmetry_multiplicity
 _atom_site_fract_x
 _atom_site_fract_y
 _atom_site_fract_z
 _atom_site_occupancy
  Fe  Fe0  1  0.99681801  0.00030625  -0.00104650  1
  Fe  Fe1  1  0.16240132  0.16679648  0.16530780  1
  Fe  Fe2  1  0.99681402  -0.00090135  0.33242002  1
  Fe  Fe3  1  0.99481324  0.33274906  -0.00125681  1
  Fe  Fe4  1  0.16172902  0.49800438  0.16491768  1
  Fe  Fe5  1  0.99662938  0.33125907  0.33173509  1
  Fe  Fe6  1  0.99567207  0.66200177  -0.00087992  1
  Cr  Cr7  1  0.16408145  0.83169019  0.16361787  1
  Fe  Fe8  1  -0.00088513  0.66475006  0.33106624  1
  Cr  Cr9  1  0.33279697  0.00013089  -0.00040607  1
  Cr  Cr10  1  0.50114493  0.16574158  0.16676942  1
  Cr  Cr11  1  0.33449477  -0.00113781  0.33193967  1
  Cr  Cr12  1  0.33320723  0.33194299  -0.00031101  1
  Cr  Cr13  1  0.50146517  0.50039065  0.16396844  1
  Cr  Cr14  1  0.33066008  0.33388234  0.33082758  1
  Fe  Fe15  1  0.33347818  0.66408655  -0.00093068  1
  Fe  Fe16  1  0.50189243  0.83078867  0.16621836  1
  Fe  Fe17  1  0.33268447  0.66604734  0.33318386  1
  Cr  Cr18  1  0.66540632  -0.00110646  0.99753555  1
  Cr  Cr19  1  0.83215437  0.16608634  0.16699103  1
  Ni  Ni20  1  0.66688450  0.99649913  0.33355931  1
  Ni  Ni21  1  0.66697202  0.33416304  0.99522192  1
  Fe  Fe22  1  0.83273414  0.49956620  0.16398806  1
  Fe  Fe23  1  0.66578467  0.32983838  0.33255449  1
  Fe  Fe24  1  0.66584743  0.66178345  0.99765134  1
  Fe  Fe25  1  0.82950972  0.82983460  0.16664104  1
  Fe  Fe26  1  0.66323511  0.66623711  0.33184042  1
  Cr  Cr27  1  0.16380191  0.16562257  0.49858472  1
  Cr  Cr28  1  0.99560135  -0.00117662  0.66530763  1
  Cr  Cr29  1  0.16529895  0.16557786  0.83319346  1
  Fe  Fe30  1  0.16612618  0.49844446  0.49913888  1
  Fe  Fe31  1  0.99607315  0.33234505  0.66516314  1
  Cr  Cr32  1  0.16501836  0.49842016  0.83110334  1
  Fe  Fe33  1  0.16613033  0.83016595  0.49766620  1
  Cr  Cr34  1  0.99613873  0.66347997  0.66381156  1
  Cr  Cr35  1  0.16667096  0.83118467  0.83083014  1
  Fe  Fe36  1  0.50255153  0.16564944  0.49998946  1
  Fe  Fe37  1  0.33535046  -0.00058925  0.66376655  1
  Ni  Ni38  1  0.50017371  0.16751069  0.82853366  1
  Fe  Fe39  1  0.49843384  0.49805528  0.49968383  1
  Ni  Ni40  1  0.33506003  0.33204569  0.66448878  1
  Fe  Fe41  1  0.50085685  0.49639160  0.83058291  1
  Fe  Fe42  1  0.49962498  0.83146222  0.49963885  1
  Fe  Fe43  1  0.33439759  0.66310965  0.66221273  1
  Cr  Cr44  1  0.49757003  0.83001839  0.83121217  1
  Ni  Ni45  1  0.82902299  0.16610232  0.49834092  1
  Fe  Fe46  1  0.66273671  0.00026767  0.66369082  1
  Fe  Fe47  1  0.82954690  0.16862042  0.83115263  1
  Cr  Cr48  1  0.82959072  0.49584394  0.49645127  1
  Fe  Fe49  1  0.66548888  0.33220430  0.66673186  1
  Ni  Ni50  1  0.82890501  0.49618335  0.83348168  1
  Cr  Cr51  1  0.83007048  0.83280256  0.49619558  1
  Ni  Ni52  1  0.66372965  0.66299259  0.66603703  1
  Cr  Cr53  1  0.83103282  0.82926314  0.83331501  1
" 