3559,Ni14Fe52Cr33_13,-222.868830342128, 172.060775727739,Ni14Fe52Cr33,"# generated using pymatgen
 data_Cr19(Fe4Ni)7
_symmetry_space_group_name_H-M   'P 1'
_cell_length_a   7.48574193
_cell_length_b   7.48574193
_cell_length_c   10.58643776
_cell_angle_alpha   90.00000000
_cell_angle_beta   90.00000000
_cell_angle_gamma   90.00000000
_symmetry_Int_Tables_number   1
_chemical_formula_structural   Cr19(Fe4Ni)7
_chemical_formula_sum   'Cr19 Fe28 Ni7'
_cell_volume   593.22514322
_cell_formula_units_Z   1
loop_
 _symmetry_equiv_pos_site_id
 _symmetry_equiv_pos_as_xyz
  1  'x, y, z'
loop_
 _atom_site_type_symbol
 _atom_site_label
 _atom_site_symmetry_multiplicity
 _atom_site_fract_x
 _atom_site_fract_y
 _atom_site_fract_z
 _atom_site_occupancy
  Fe  Fe0  1  0.00024647  -0.00031863  0.99579742  1
  Ni  Ni1  1  0.16329877  0.16808102  0.16332510  1
  Fe  Fe2  1  0.99793372  0.00278537  0.33269691  1
  Fe  Fe3  1  0.99837975  0.32842038  0.99829774  1
  Fe  Fe4  1  0.16499306  0.49350953  0.16451340  1
  Fe  Fe5  1  0.99624916  0.32903503  0.33191781  1
  Cr  Cr6  1  0.99764134  0.66376108  -0.00122096  1
  Cr  Cr7  1  0.16526904  0.83419125  0.16800383  1
  Cr  Cr8  1  -0.00088346  0.66140971  0.33222557  1
  Cr  Cr9  1  0.33323460  0.00163405  0.99685690  1
  Ni  Ni10  1  0.49903672  0.16900699  0.16712317  1
  Fe  Fe11  1  0.33152562  0.00172376  0.33145689  1
  Ni  Ni12  1  0.33099843  0.32839120  0.99714600  1
  Cr  Cr13  1  0.50041181  0.49672894  0.16326272  1
  Cr  Cr14  1  0.33070495  0.33038849  0.33302723  1
  Cr  Cr15  1  0.33112486  0.66492186  0.00058591  1
  Cr  Cr16  1  0.49985904  0.83470042  0.16767461  1
  Fe  Fe17  1  0.33264900  0.66397611  0.33182005  1
  Cr  Cr18  1  0.66563582  0.00074728  0.99740654  1
  Fe  Fe19  1  0.83161705  0.16780082  0.16548781  1
  Fe  Fe20  1  0.66601594  0.00452264  0.33308386  1
  Fe  Fe21  1  0.66354602  0.33108721  0.99588275  1
  Fe  Fe22  1  0.83271402  0.49329728  0.16463397  1
  Fe  Fe23  1  0.66684908  0.33092981  0.33409328  1
  Cr  Cr24  1  0.66717021  0.66676831  0.99410250  1
  Cr  Cr25  1  0.83232647  0.83452406  0.16597497  1
  Cr  Cr26  1  0.66781475  0.66497373  0.33378167  1
  Cr  Cr27  1  0.16518011  0.16391611  0.50293258  1
  Fe  Fe28  1  0.99700962  0.99809292  0.66799024  1
  Fe  Fe29  1  0.16559961  0.16272064  0.83172773  1
  Cr  Cr30  1  0.16681749  0.49918329  0.50008761  1
  Cr  Cr31  1  0.99829087  0.33204103  0.66546074  1
  Cr  Cr32  1  0.16675005  0.49688842  0.83229203  1
  Cr  Cr33  1  0.16490773  0.83277364  0.50056406  1
  Fe  Fe34  1  0.99517187  0.66651126  0.66667865  1
  Ni  Ni35  1  0.16202604  0.83180472  0.82827109  1
  Fe  Fe36  1  0.49947967  0.16743183  0.49986277  1
  Fe  Fe37  1  0.33249604  0.00039709  0.66904234  1
  Ni  Ni38  1  0.50000605  0.17000576  0.83039404  1
  Fe  Fe39  1  0.50004429  0.49723069  0.50097404  1
  Fe  Fe40  1  0.33695132  0.33114071  0.66738258  1
  Fe  Fe41  1  0.49975325  0.49770278  0.83088649  1
  Cr  Cr42  1  0.49831896  0.83253118  0.49679657  1
  Fe  Fe43  1  0.33478479  0.66541721  0.66730731  1
  Fe  Fe44  1  0.49672409  0.83280349  0.82963298  1
  Fe  Fe45  1  0.83032470  0.16574503  0.49850500  1
  Cr  Cr46  1  0.66489000  -0.00085834  0.66533490  1
  Fe  Fe47  1  0.83236832  0.16562364  0.83126575  1
  Fe  Fe48  1  0.83008982  0.49756202  0.50056333  1
  Ni  Ni49  1  0.66435683  0.33297617  0.66458856  1
  Fe  Fe50  1  0.83023193  0.49730938  0.82989160  1
  Fe  Fe51  1  0.83371836  0.83343331  0.50010555  1
  Fe  Fe52  1  0.66636532  0.66311742  0.66625500  1
  Ni  Ni53  1  0.83355291  0.83207314  0.82882107  1
" 