8602,Ni14Fe86_19,-242.414515944797, 198.058986861472,Ni14Fe86,"# generated using pymatgen
 data_Fe7Ni47
_symmetry_space_group_name_H-M   'P 1'
_cell_length_a   7.43767492
_cell_length_b   7.43767492
_cell_length_c   10.51846075
_cell_angle_alpha   90.00000000
_cell_angle_beta   90.00000000
_cell_angle_gamma   90.00000000
_symmetry_Int_Tables_number   1
_chemical_formula_structural   Fe7Ni47
_chemical_formula_sum   'Fe7 Ni47'
_cell_volume   581.87081740
_cell_formula_units_Z   1
loop_
 _symmetry_equiv_pos_site_id
 _symmetry_equiv_pos_as_xyz
  1  'x, y, z'
loop_
 _atom_site_type_symbol
 _atom_site_label
 _atom_site_symmetry_multiplicity
 _atom_site_fract_x
 _atom_site_fract_y
 _atom_site_fract_z
 _atom_site_occupancy
  Ni  Ni0  1  1.00170810  0.00222054  0.00216015  1
  Ni  Ni1  1  0.16856828  0.16881713  0.16842882  1
  Ni  Ni2  1  1.00180297  0.00231868  0.33531984  1
  Ni  Ni3  1  0.00213854  0.33518007  0.00201731  1
  Ni  Ni4  1  0.16857325  0.50179614  0.16881061  1
  Ni  Ni5  1  1.00132297  0.33500969  0.33541595  1
  Ni  Ni6  1  1.00186713  0.66864612  1.00046039  1
  Ni  Ni7  1  0.16816063  0.83528477  0.16751702  1
  Ni  Ni8  1  1.00126754  0.66859890  0.33669897  1
  Ni  Ni9  1  0.33513252  1.00158998  1.00142895  1
  Ni  Ni10  1  0.50223752  0.16920794  0.16797811  1
  Ni  Ni11  1  0.33539935  1.00193228  0.33575532  1
  Ni  Ni12  1  0.33496152  0.33562397  1.00169741  1
  Ni  Ni13  1  0.50221827  0.50141937  0.16842720  1
  Ni  Ni14  1  0.33547748  0.33500226  0.33584101  1
  Ni  Ni15  1  0.33573326  0.66850445  1.00129439  1
  Ni  Ni16  1  0.50224959  0.83530141  0.16838289  1
  Ni  Ni17  1  0.33595360  0.66900942  0.33583107  1
  Ni  Ni18  1  0.66893460  1.00132552  1.00125735  1
  Ni  Ni19  1  0.83511470  0.16880556  0.16841782  1
  Ni  Ni20  1  0.66872321  1.00193701  0.33666519  1
  Ni  Ni21  1  0.66885767  0.33567437  1.00072099  1
  Ni  Ni22  1  0.83514083  0.50182164  0.16758486  1
  Ni  Ni23  1  0.66911223  0.33548963  0.33615920  1
  Ni  Ni24  1  0.66847684  0.66887707  0.00249077  1
  Ni  Ni25  1  0.83551430  0.83531088  0.16885426  1
  Ni  Ni26  1  0.66873498  0.66847533  0.33486207  1
  Ni  Ni27  1  0.16841453  0.16815920  0.50171180  1
  Ni  Ni28  1  1.00182791  0.00350480  0.66860570  1
  Ni  Ni29  1  0.16778039  0.16912790  0.83579099  1
  Fe  Fe30  1  0.16896817  0.50174738  0.50189377  1
  Ni  Ni31  1  1.00186553  0.33384023  0.66848276  1
  Ni  Ni32  1  0.17002856  0.50063743  0.83448653  1
  Ni  Ni33  1  0.16858894  0.83679828  0.50307929  1
  Fe  Fe34  1  0.00392956  0.66935591  0.66880425  1
  Ni  Ni35  1  0.16835192  0.83619024  0.83537736  1
  Ni  Ni36  1  0.50100118  0.16941411  0.50292832  1
  Ni  Ni37  1  0.33412734  1.00181565  0.66892890  1
  Fe  Fe38  1  0.49929036  0.16758449  0.83591551  1
  Ni  Ni39  1  0.50281730  0.50190426  0.50174625  1
  Ni  Ni40  1  0.33418175  0.33527259  0.66840788  1
  Ni  Ni41  1  0.50217392  0.50168421  0.83558272  1
  Ni  Ni42  1  0.50181144  0.83462213  0.50227270  1
  Ni  Ni43  1  0.33791564  0.66868553  0.66865787  1
  Ni  Ni44  1  0.50280238  0.83382597  0.83519444  1
  Ni  Ni45  1  0.83618325  0.16908003  0.50235006  1
  Fe  Fe46  1  0.66780440  1.00126478  0.66786380  1
  Fe  Fe47  1  0.83654212  0.16804014  0.83588822  1
  Ni  Ni48  1  0.83428429  0.50187866  0.50317365  1
  Fe  Fe49  1  0.66724513  0.33564569  0.66799338  1
  Fe  Fe50  1  0.83628590  0.50368541  0.83540068  1
  Ni  Ni51  1  0.83570793  0.83500257  0.50228842  1
  Ni  Ni52  1  0.66840320  0.66866006  0.66856426  1
  Ni  Ni53  1  0.83491283  0.83601996  0.83476033  1
" 