1711,Ni14Fe86_4,-242.414404530379, 198.754039693095,Ni14Fe86,"# generated using pymatgen
 data_Fe7Ni47
_symmetry_space_group_name_H-M   'P 1'
_cell_length_a   7.43516486
_cell_length_b   7.43516486
_cell_length_c   10.51491098
_cell_angle_alpha   90.00000000
_cell_angle_beta   90.00000000
_cell_angle_gamma   90.00000000
_symmetry_Int_Tables_number   1
_chemical_formula_structural   Fe7Ni47
_chemical_formula_sum   'Fe7 Ni47'
_cell_volume   581.28190671
_cell_formula_units_Z   1
loop_
 _symmetry_equiv_pos_site_id
 _symmetry_equiv_pos_as_xyz
  1  'x, y, z'
loop_
 _atom_site_type_symbol
 _atom_site_label
 _atom_site_symmetry_multiplicity
 _atom_site_fract_x
 _atom_site_fract_y
 _atom_site_fract_z
 _atom_site_occupancy
  Ni  Ni0  1  0.00214763  0.00214718  0.00214510  1
  Ni  Ni1  1  0.16881566  0.16882231  0.16881674  1
  Ni  Ni2  1  0.00214433  1.00214212  0.33547537  1
  Ni  Ni3  1  0.00214895  0.33547592  0.00214469  1
  Ni  Ni4  1  0.16880176  0.50213306  0.16881040  1
  Ni  Ni5  1  0.00214499  0.33547996  0.33547514  1
  Fe  Fe6  1  1.00213255  0.66880469  1.00214405  1
  Fe  Fe7  1  0.16880585  0.83548828  0.16882160  1
  Ni  Ni8  1  1.00214232  0.66881008  0.33547416  1
  Ni  Ni9  1  0.33547447  0.00214782  0.00214405  1
  Ni  Ni10  1  0.50213752  0.16879718  0.16880871  1
  Ni  Ni11  1  0.33547672  1.00214210  0.33547578  1
  Ni  Ni12  1  0.33547249  0.33547462  1.00214342  1
  Fe  Fe13  1  0.50215167  0.50213698  0.16881291  1
  Ni  Ni14  1  0.33547541  0.33547932  0.33547578  1
  Fe  Fe15  1  0.33548562  0.66880798  1.00214131  1
  Ni  Ni16  1  0.50215208  0.83549003  0.16881244  1
  Ni  Ni17  1  0.33547809  0.66881074  0.33547479  1
  Ni  Ni18  1  0.66881005  1.00213462  0.00214469  1
  Ni  Ni19  1  0.83547897  0.16880840  0.16880378  1
  Ni  Ni20  1  0.66881109  1.00213943  0.33547310  1
  Ni  Ni21  1  0.66881072  0.33548650  0.00214405  1
  Ni  Ni22  1  0.83549223  0.50214762  0.16881245  1
  Ni  Ni23  1  0.66881176  0.33548133  0.33547333  1
  Ni  Ni24  1  0.66881135  0.66881103  1.00214341  1
  Ni  Ni25  1  0.83546709  0.83547613  0.16881513  1
  Ni  Ni26  1  0.66881174  0.66881139  0.33547951  1
  Fe  Fe27  1  0.16881020  0.16880968  0.50214459  1
  Ni  Ni28  1  0.00214538  1.00214107  0.66881169  1
  Ni  Ni29  1  0.16881970  0.16882006  0.83547404  1
  Ni  Ni30  1  0.16880802  0.50214768  0.50214673  1
  Ni  Ni31  1  0.00214603  0.33548136  0.66881232  1
  Ni  Ni32  1  0.16880579  0.50213081  0.83547502  1
  Ni  Ni33  1  0.16881072  0.83547068  0.50214405  1
  Ni  Ni34  1  1.00214268  0.66880972  0.66881394  1
  Fe  Fe35  1  0.16881561  0.83547852  0.83546650  1
  Ni  Ni36  1  0.50214569  0.16880570  0.50214405  1
  Ni  Ni37  1  0.33547708  1.00214174  0.66881232  1
  Ni  Ni38  1  0.50213123  0.16880346  0.83547939  1
  Ni  Ni39  1  0.50213715  0.50214184  0.50214180  1
  Ni  Ni40  1  0.33547645  0.33548071  0.66881296  1
  Ni  Ni41  1  0.50214042  0.50214270  0.83548060  1
  Ni  Ni42  1  0.50214255  0.83548461  0.50214673  1
  Ni  Ni43  1  0.33547913  0.66880970  0.66881435  1
  Ni  Ni44  1  0.50215433  0.83548600  0.83547299  1
  Ni  Ni45  1  0.83547304  0.16880840  0.50214631  1
  Ni  Ni46  1  0.66880970  1.00213839  0.66881436  1
  Fe  Fe47  1  0.83547358  0.16881560  0.83547740  1
  Ni  Ni48  1  0.83548698  0.50214454  0.50214405  1
  Ni  Ni49  1  0.66880967  0.33548342  0.66881477  1
  Ni  Ni50  1  0.83548594  0.50215391  0.83547565  1
  Ni  Ni51  1  0.83547889  0.83547922  0.50214137  1
  Ni  Ni52  1  0.66881034  0.66881035  0.66880923  1
  Ni  Ni53  1  0.83546934  0.83547210  0.83547565  1
" 