2340,Ni14Fe86_9,-242.218104381536, 198.485569201183,Ni14Fe86,"# generated using pymatgen
 data_Fe7Ni47
_symmetry_space_group_name_H-M   'P 1'
_cell_length_a   7.43374741
_cell_length_b   7.43374741
_cell_length_c   10.51290641
_cell_angle_alpha   90.00000000
_cell_angle_beta   90.00000000
_cell_angle_gamma   90.00000000
_symmetry_Int_Tables_number   1
_chemical_formula_structural   Fe7Ni47
_chemical_formula_sum   'Fe7 Ni47'
_cell_volume   580.94952195
_cell_formula_units_Z   1
loop_
 _symmetry_equiv_pos_site_id
 _symmetry_equiv_pos_as_xyz
  1  'x, y, z'
loop_
 _atom_site_type_symbol
 _atom_site_label
 _atom_site_symmetry_multiplicity
 _atom_site_fract_x
 _atom_site_fract_y
 _atom_site_fract_z
 _atom_site_occupancy
  Ni  Ni0  1  0.00369389  0.00321386  1.00201336  1
  Ni  Ni1  1  0.16986244  0.16848692  0.16957573  1
  Ni  Ni2  1  0.00250085  0.00247505  0.33544544  1
  Ni  Ni3  1  1.00067186  0.33517561  0.00254718  1
  Ni  Ni4  1  0.16865284  0.50200277  0.16883558  1
  Ni  Ni5  1  1.00186540  0.33559602  0.33561847  1
  Ni  Ni6  1  1.00183127  0.66828118  1.00153529  1
  Ni  Ni7  1  0.16850406  0.83633692  0.16806258  1
  Ni  Ni8  1  1.00219771  0.66878599  0.33525062  1
  Ni  Ni9  1  0.33550898  1.00176987  1.00143902  1
  Ni  Ni10  1  0.50131446  0.16886135  0.16731580  1
  Ni  Ni11  1  0.33579145  0.00233764  0.33633438  1
  Fe  Fe12  1  0.33419612  0.33668881  0.00244768  1
  Ni  Ni13  1  0.50273443  0.50180362  0.16869706  1
  Ni  Ni14  1  0.33610581  0.33518055  0.33445339  1
  Ni  Ni15  1  0.33663183  0.67044198  0.00239767  1
  Ni  Ni16  1  0.50267758  0.83599720  0.16988817  1
  Ni  Ni17  1  0.33576748  0.66921793  0.33541120  1
  Fe  Fe18  1  0.66968704  1.00069481  1.00221779  1
  Fe  Fe19  1  0.83560032  0.16956136  0.16901905  1
  Ni  Ni20  1  0.66841873  0.00276240  0.33446139  1
  Ni  Ni21  1  0.66964448  0.33633113  1.00120829  1
  Ni  Ni22  1  0.83516391  0.50345651  0.16884764  1
  Ni  Ni23  1  0.66876281  0.33559425  0.33635705  1
  Ni  Ni24  1  0.66818185  0.66740760  0.00247897  1
  Ni  Ni25  1  0.83569123  0.83503930  0.16837836  1
  Ni  Ni26  1  0.66873776  0.66848578  0.33548466  1
  Ni  Ni27  1  0.16962751  0.16879398  0.50200316  1
  Ni  Ni28  1  1.00188203  0.00327636  0.66915729  1
  Ni  Ni29  1  0.16872542  0.16904989  0.83516131  1
  Ni  Ni30  1  0.16964199  0.50201680  0.50202031  1
  Ni  Ni31  1  0.00244329  0.33517674  0.66853183  1
  Ni  Ni32  1  0.16924917  0.50067122  0.83589648  1
  Ni  Ni33  1  0.16774993  0.83592602  0.50330411  1
  Ni  Ni34  1  1.00170985  0.66812005  0.66988539  1
  Fe  Fe35  1  0.16828206  0.83465252  0.83529378  1
  Ni  Ni36  1  0.50181875  0.16938694  0.50337991  1
  Ni  Ni37  1  0.33589454  0.00267599  0.66904318  1
  Fe  Fe38  1  0.50291751  0.16945004  0.83555367  1
  Ni  Ni39  1  0.50180150  0.50131978  0.50212677  1
  Ni  Ni40  1  0.33492356  0.33558347  0.66995774  1
  Ni  Ni41  1  0.50187570  0.50357439  0.83589645  1
  Fe  Fe42  1  0.50245395  0.83568090  0.50241746  1
  Ni  Ni43  1  0.33632389  0.66843175  0.66904731  1
  Ni  Ni44  1  0.50310044  0.83517413  0.83514199  1
  Ni  Ni45  1  0.83526747  0.16763884  0.50177108  1
  Ni  Ni46  1  0.66901430  1.00191401  0.66985036  1
  Ni  Ni47  1  0.83709406  0.16806083  0.83583424  1
  Ni  Ni48  1  0.83525877  0.50315047  0.50299663  1
  Fe  Fe49  1  0.66933084  0.33576296  0.66885944  1
  Ni  Ni50  1  0.83535512  0.50262138  0.83487663  1
  Ni  Ni51  1  0.83581254  0.83591025  0.50243364  1
  Ni  Ni52  1  0.66860717  0.66918492  0.66893963  1
  Ni  Ni53  1  0.83439123  0.83575812  0.83584753  1
" 