4819,Ni14Fe52Cr33_5,-222.969399150796, 177.244776932706,Ni14Fe52Cr33,"# generated using pymatgen
 data_Cr19(Fe4Ni)7
_symmetry_space_group_name_H-M   'P 1'
_cell_length_a   7.48263886
_cell_length_b   7.48263886
_cell_length_c   10.58204935
_cell_angle_alpha   90.00000000
_cell_angle_beta   90.00000000
_cell_angle_gamma   90.00000000
_symmetry_Int_Tables_number   1
_chemical_formula_structural   Cr19(Fe4Ni)7
_chemical_formula_sum   'Cr19 Fe28 Ni7'
_cell_volume   592.48771823
_cell_formula_units_Z   1
loop_
 _symmetry_equiv_pos_site_id
 _symmetry_equiv_pos_as_xyz
  1  'x, y, z'
loop_
 _atom_site_type_symbol
 _atom_site_label
 _atom_site_symmetry_multiplicity
 _atom_site_fract_x
 _atom_site_fract_y
 _atom_site_fract_z
 _atom_site_occupancy
  Fe  Fe0  1  0.00127437  0.99772215  -0.00091128  1
  Fe  Fe1  1  0.16835078  0.16202652  0.16779920  1
  Ni  Ni2  1  0.00241656  -0.00031508  0.33349556  1
  Cr  Cr3  1  0.00204412  0.33111179  0.00250633  1
  Fe  Fe4  1  0.16825246  0.49737028  0.16663387  1
  Cr  Cr5  1  0.99871339  0.33247030  0.33121661  1
  Cr  Cr6  1  -0.00018679  0.66571380  0.00055557  1
  Fe  Fe7  1  0.16855402  0.83767522  0.16683107  1
  Cr  Cr8  1  0.00003889  0.66493175  0.32949040  1
  Fe  Fe9  1  0.33010473  0.99855539  0.00120948  1
  Cr  Cr10  1  0.49604462  0.16395530  0.16603419  1
  Ni  Ni11  1  0.33258249  -0.00056023  0.33378748  1
  Fe  Fe12  1  0.32985681  0.33306272  -0.00063308  1
  Cr  Cr13  1  0.49862523  0.49921614  0.16593363  1
  Ni  Ni14  1  0.33342609  0.32972091  0.33267772  1
  Cr  Cr15  1  0.33191090  0.66677236  0.99857909  1
  Ni  Ni16  1  0.49814430  0.83322264  0.16703243  1
  Cr  Cr17  1  0.33213819  0.66786990  0.33416379  1
  Fe  Fe18  1  0.66527061  0.99541912  -0.00078751  1
  Cr  Cr19  1  0.83270556  0.16394585  0.16856031  1
  Fe  Fe20  1  0.66281302  0.00011702  0.33385381  1
  Cr  Cr21  1  0.66525066  0.33218915  0.99789356  1
  Fe  Fe22  1  0.82781175  0.49958352  0.16698193  1
  Ni  Ni23  1  0.66443377  0.33176872  0.33639429  1
  Ni  Ni24  1  0.66456246  0.66831829  -0.00102218  1
  Cr  Cr25  1  0.83044580  0.83212384  0.16499591  1
  Fe  Fe26  1  0.66416647  0.66441588  0.33264806  1
  Fe  Fe27  1  0.16598437  0.16504023  0.49801368  1
  Fe  Fe28  1  0.00239993  0.00019349  0.66390355  1
  Fe  Fe29  1  0.16645292  0.16474128  0.83130219  1
  Fe  Fe30  1  0.16644361  0.49673239  0.49968426  1
  Fe  Fe31  1  -0.00050729  0.33124355  0.66303291  1
  Fe  Fe32  1  0.16954376  0.49620296  0.83079608  1
  Fe  Fe33  1  0.16684076  0.83496082  0.49890279  1
  Cr  Cr34  1  0.00170469  0.66558235  0.66640855  1
  Fe  Fe35  1  0.16453167  0.83604604  0.83143505  1
  Fe  Fe36  1  0.49811645  0.16737816  0.49680262  1
  Fe  Fe37  1  0.32973016  0.99827406  0.66317849  1
  Cr  Cr38  1  0.49531645  0.16716566  0.83431795  1
  Fe  Fe39  1  0.49952621  0.49657533  0.49765685  1
  Fe  Fe40  1  0.33191891  0.33323047  0.66355915  1
  Fe  Fe41  1  0.49648044  0.49822971  0.83202807  1
  Fe  Fe42  1  0.49750893  0.83299659  0.49762909  1
  Fe  Fe43  1  0.33223038  0.66536116  0.66451174  1
  Cr  Cr44  1  0.49798574  0.83162111  0.83383860  1
  Fe  Fe45  1  0.83292656  0.16753255  0.49796677  1
  Cr  Cr46  1  0.66416947  0.00192622  0.66393936  1
  Cr  Cr47  1  0.83498203  0.16352515  0.83015510  1
  Ni  Ni48  1  0.83147601  0.49664223  0.49733990  1
  Fe  Fe49  1  0.66530735  0.33319821  0.66210959  1
  Cr  Cr50  1  0.83216522  0.50000937  0.83276895  1
  Cr  Cr51  1  0.83387250  0.83245854  0.49681416  1
  Cr  Cr52  1  0.66363175  0.66472414  0.66565733  1
  Fe  Fe53  1  0.83325103  0.83374630  0.83406828  1
" 