5968,Ni14Fe12Cr73_1,-209.37279051605, 182.143422414439,Ni14Fe12Cr73,"# generated using pymatgen
 data_Cr41Fe6Ni7
_symmetry_space_group_name_H-M   'P 1'
_cell_length_a   7.56634201
_cell_length_b   7.56634201
_cell_length_c   10.70042349
_cell_angle_alpha   90.00000000
_cell_angle_beta   90.00000000
_cell_angle_gamma   90.00000000
_symmetry_Int_Tables_number   1
_chemical_formula_structural   Cr41Fe6Ni7
_chemical_formula_sum   'Cr41 Fe6 Ni7'
_cell_volume   612.59423104
_cell_formula_units_Z   1
loop_
 _symmetry_equiv_pos_site_id
 _symmetry_equiv_pos_as_xyz
  1  'x, y, z'
loop_
 _atom_site_type_symbol
 _atom_site_label
 _atom_site_symmetry_multiplicity
 _atom_site_fract_x
 _atom_site_fract_y
 _atom_site_fract_z
 _atom_site_occupancy
  Cr  Cr0  1  0.99213627  0.99341275  -0.00573698  1
  Cr  Cr1  1  0.15836080  0.16135207  0.16159660  1
  Cr  Cr2  1  -0.00473282  0.99218411  0.32675855  1
  Cr  Cr3  1  0.99268647  0.32766143  -0.00535836  1
  Cr  Cr4  1  0.16019353  0.49481482  0.15977303  1
  Cr  Cr5  1  0.99148393  0.32830209  0.32445210  1
  Cr  Cr6  1  0.99329779  0.65924179  0.99265610  1
  Cr  Cr7  1  0.16081184  0.82415041  0.16229162  1
  Ni  Ni8  1  -0.00465740  0.65900513  0.32745969  1
  Cr  Cr9  1  0.32838612  0.99339295  0.99262047  1
  Cr  Cr10  1  0.49549029  0.15993193  0.15972584  1
  Cr  Cr11  1  0.32517743  0.99213939  0.32843112  1
  Cr  Cr12  1  0.32699941  0.32684408  0.99150112  1
  Cr  Cr13  1  0.49220958  0.49479021  0.16126227  1
  Fe  Fe14  1  0.32722244  0.32977514  0.32764073  1
  Fe  Fe15  1  0.32631895  0.65967459  -0.00653518  1
  Cr  Cr16  1  0.49301218  0.82559503  0.15895129  1
  Ni  Ni17  1  0.32492383  0.65933590  0.32780943  1
  Fe  Fe18  1  0.66053304  -0.00516486  0.99304634  1
  Ni  Ni19  1  0.82619198  0.16139144  0.15899129  1
  Cr  Cr20  1  0.65987288  -0.00553538  0.32456379  1
  Cr  Cr21  1  0.66062705  0.32569012  -0.00486551  1
  Ni  Ni22  1  0.82783171  0.49208513  0.16165997  1
  Cr  Cr23  1  0.66060306  0.32906839  0.32668883  1
  Cr  Cr24  1  0.66061118  0.66062892  -0.00629823  1
  Cr  Cr25  1  0.82649050  0.82743203  0.15897699  1
  Cr  Cr26  1  0.66056343  0.65678503  0.32826193  1
  Cr  Cr27  1  0.15992195  0.15939897  0.49313089  1
  Cr  Cr28  1  -0.00506411  0.99173244  0.65929655  1
  Cr  Cr29  1  0.16054786  0.16198404  0.82558956  1
  Cr  Cr30  1  0.16128947  0.49545375  0.49213548  1
  Cr  Cr31  1  0.99334010  0.32799240  0.66121511  1
  Fe  Fe32  1  0.16097280  0.49331671  0.82717648  1
  Ni  Ni33  1  0.15968455  0.82413302  0.49164739  1
  Cr  Cr34  1  0.99285783  0.66059157  0.66015400  1
  Cr  Cr35  1  0.15959776  0.82452696  0.82686180  1
  Cr  Cr36  1  0.49327889  0.16242004  0.49392605  1
  Cr  Cr37  1  0.32621350  -0.00605472  0.65926844  1
  Ni  Ni38  1  0.49418751  0.15935386  0.82724431  1
  Ni  Ni39  1  0.49278838  0.49401336  0.49212784  1
  Cr  Cr40  1  0.32818681  0.32615311  0.66124142  1
  Cr  Cr41  1  0.49128308  0.49321924  0.82706301  1
  Cr  Cr42  1  0.49186591  0.82415169  0.49250499  1
  Cr  Cr43  1  0.32645573  0.66021465  0.66015686  1
  Cr  Cr44  1  0.49489620  0.82762514  0.82886090  1
  Cr  Cr45  1  0.82711133  0.16074669  0.49406983  1
  Cr  Cr46  1  0.65916616  -0.00653574  0.66250461  1
  Cr  Cr47  1  0.82524167  0.15837335  0.82709372  1
  Fe  Fe48  1  0.82636279  0.49471173  0.49219715  1
  Cr  Cr49  1  0.65879053  0.32823268  0.65849122  1
  Cr  Cr50  1  0.82833803  0.49417077  0.82544102  1
  Cr  Cr51  1  0.82883017  0.82552338  0.49447339  1
  Cr  Cr52  1  0.66100239  0.65861857  0.65834670  1
  Fe  Fe53  1  0.82588162  0.82762209  0.82713079  1
" 