1840,Ni14Fe52Cr33_9,-223.009699896518, 173.92933839205,Ni14Fe52Cr33,"# generated using pymatgen
 data_Cr19(Fe4Ni)7
_symmetry_space_group_name_H-M   'P 1'
_cell_length_a   7.48835571
_cell_length_b   7.48835571
_cell_length_c   10.59013420
_cell_angle_alpha   90.00000000
_cell_angle_beta   90.00000000
_cell_angle_gamma   90.00000000
_symmetry_Int_Tables_number   1
_chemical_formula_structural   Cr19(Fe4Ni)7
_chemical_formula_sum   'Cr19 Fe28 Ni7'
_cell_volume   593.84676496
_cell_formula_units_Z   1
loop_
 _symmetry_equiv_pos_site_id
 _symmetry_equiv_pos_as_xyz
  1  'x, y, z'
loop_
 _atom_site_type_symbol
 _atom_site_label
 _atom_site_symmetry_multiplicity
 _atom_site_fract_x
 _atom_site_fract_y
 _atom_site_fract_z
 _atom_site_occupancy
  Fe  Fe0  1  0.99552880  0.99708924  0.99760841  1
  Cr  Cr1  1  0.16416953  0.16459709  0.16908733  1
  Fe  Fe2  1  0.99508494  0.99806071  0.33357676  1
  Cr  Cr3  1  -0.00082561  0.33329748  0.00094191  1
  Ni  Ni4  1  0.16582820  0.49890768  0.16566214  1
  Fe  Fe5  1  -0.00053080  0.33178429  0.33314591  1
  Fe  Fe6  1  0.00137479  0.66671483  0.99696913  1
  Cr  Cr7  1  0.16410499  0.83296729  0.16525715  1
  Cr  Cr8  1  -0.00023337  0.66440587  0.33234956  1
  Cr  Cr9  1  0.33284689  0.99687624  0.99676008  1
  Cr  Cr10  1  0.49849273  0.16517242  0.16628038  1
  Fe  Fe11  1  0.33281299  0.99676161  0.33486783  1
  Fe  Fe12  1  0.33142254  0.33315606  0.99836434  1
  Fe  Fe13  1  0.49452215  0.49800943  0.16608767  1
  Fe  Fe14  1  0.33028614  0.33532399  0.33232215  1
  Fe  Fe15  1  0.32860934  0.66291721  -0.00071746  1
  Cr  Cr16  1  0.50091286  0.83058266  0.16933385  1
  Fe  Fe17  1  0.33142560  0.66385605  0.33240076  1
  Fe  Fe18  1  0.66739612  0.00038712  0.99640408  1
  Fe  Fe19  1  0.83228226  0.16236473  0.16665210  1
  Fe  Fe20  1  0.66786949  0.99701405  0.33480028  1
  Fe  Fe21  1  0.66447850  0.32875027  0.99766827  1
  Cr  Cr22  1  0.82957036  0.50056027  0.16658026  1
  Cr  Cr23  1  0.66705946  0.33054221  0.33358303  1
  Cr  Cr24  1  0.66489208  0.66795331  0.00064710  1
  Fe  Fe25  1  0.83317387  0.83529962  0.16671426  1
  Fe  Fe26  1  0.66576148  0.66728578  0.33481215  1
  Cr  Cr27  1  0.16665305  0.16364218  0.49725177  1
  Fe  Fe28  1  0.99710211  0.99554676  0.66331203  1
  Cr  Cr29  1  0.16474272  0.16370395  0.82906828  1
  Fe  Fe30  1  0.16444886  0.50094573  0.49883662  1
  Cr  Cr31  1  0.99833938  0.33445862  0.66084906  1
  Ni  Ni32  1  0.16581265  0.50075028  0.83078055  1
  Fe  Fe33  1  0.16439050  0.83139393  0.49971821  1
  Ni  Ni34  1  0.00252074  0.66718550  0.66458065  1
  Fe  Fe35  1  0.16585038  0.83006070  0.82990358  1
  Fe  Fe36  1  0.49931633  0.16274078  0.49842773  1
  Ni  Ni37  1  0.33143190  0.99606752  0.66387359  1
  Ni  Ni38  1  0.49724225  0.16310890  0.83093870  1
  Cr  Cr39  1  0.49749576  0.50014386  0.49884029  1
  Fe  Fe40  1  0.33200722  0.33157032  0.66566080  1
  Cr  Cr41  1  0.49769569  0.49816865  0.83347269  1
  Fe  Fe42  1  0.49752505  0.83538949  0.49625423  1
  Fe  Fe43  1  0.33018830  0.66670117  0.66531211  1
  Fe  Fe44  1  0.49620922  0.83120952  0.83101670  1
  Ni  Ni45  1  0.83348109  0.16121191  0.49778645  1
  Cr  Cr46  1  0.66190109  -0.00106056  0.66619728  1
  Fe  Fe47  1  0.83211022  0.16531861  0.83222375  1
  Fe  Fe48  1  0.83424769  0.49925257  0.49790829  1
  Cr  Cr49  1  0.66607919  0.32906590  0.66503617  1
  Cr  Cr50  1  0.83278256  0.50212962  0.82864706  1
  Ni  Ni51  1  0.83276472  0.83176048  0.49782494  1
  Cr  Cr52  1  0.66760268  0.66818112  0.66073327  1
  Fe  Fe53  1  0.83491390  0.83388653  0.83055734  1
" 