2775,Ni14Fe86_12,-242.44288380103, 199.360838883309,Ni14Fe86,"# generated using pymatgen
 data_Fe7Ni47
_symmetry_space_group_name_H-M   'P 1'
_cell_length_a   7.43429371
_cell_length_b   7.43429371
_cell_length_c   10.51367899
_cell_angle_alpha   90.00000000
_cell_angle_beta   90.00000000
_cell_angle_gamma   90.00000000
_symmetry_Int_Tables_number   1
_chemical_formula_structural   Fe7Ni47
_chemical_formula_sum   'Fe7 Ni47'
_cell_volume   581.07761165
_cell_formula_units_Z   1
loop_
 _symmetry_equiv_pos_site_id
 _symmetry_equiv_pos_as_xyz
  1  'x, y, z'
loop_
 _atom_site_type_symbol
 _atom_site_label
 _atom_site_symmetry_multiplicity
 _atom_site_fract_x
 _atom_site_fract_y
 _atom_site_fract_z
 _atom_site_occupancy
  Ni  Ni0  1  0.00227777  0.00236589  1.00154709  1
  Ni  Ni1  1  0.16866822  0.16865051  0.16901736  1
  Ni  Ni2  1  1.00203001  0.00306657  0.33590291  1
  Ni  Ni3  1  0.00252256  0.33520815  1.00193143  1
  Ni  Ni4  1  0.16840149  0.50261441  0.16871088  1
  Ni  Ni5  1  0.00236027  0.33465719  0.33564860  1
  Ni  Ni6  1  0.00257844  0.66903747  0.00246970  1
  Ni  Ni7  1  0.17000381  0.83533984  0.16897433  1
  Fe  Fe8  1  0.00226054  0.66834744  0.33566055  1
  Ni  Ni9  1  0.33525044  1.00198465  1.00199847  1
  Ni  Ni10  1  0.50249788  0.16802339  0.16916479  1
  Ni  Ni11  1  0.33528336  1.00173447  0.33586017  1
  Ni  Ni12  1  0.33488707  0.33547191  0.00238448  1
  Ni  Ni13  1  0.50219494  0.50267289  0.16882749  1
  Ni  Ni14  1  0.33492104  0.33596160  0.33556941  1
  Ni  Ni15  1  0.33521554  0.66915000  1.00197566  1
  Ni  Ni16  1  0.50121992  0.83591367  0.16908445  1
  Ni  Ni17  1  0.33619514  0.66891361  0.33565121  1
  Ni  Ni18  1  0.66907985  1.00204205  0.00253666  1
  Ni  Ni19  1  0.83544191  0.16962850  0.16875922  1
  Ni  Ni20  1  0.66929136  1.00178925  0.33541864  1
  Ni  Ni21  1  0.66919868  0.33516852  1.00197825  1
  Ni  Ni22  1  0.83601064  0.50133477  0.16936257  1
  Ni  Ni23  1  0.66932620  0.33558088  0.33610549  1
  Ni  Ni24  1  0.66881469  0.66939881  1.00160511  1
  Fe  Fe25  1  0.83531246  0.83582801  0.16864220  1
  Ni  Ni26  1  0.66798931  0.66923920  0.33615090  1
  Fe  Fe27  1  0.16880790  0.17006385  0.50155603  1
  Fe  Fe28  1  1.00101037  1.00213102  0.66940722  1
  Ni  Ni29  1  0.16912556  0.16939469  0.83553990  1
  Ni  Ni30  1  0.16865136  0.50237214  0.50186775  1
  Ni  Ni31  1  0.00257895  0.33576740  0.66902242  1
  Ni  Ni32  1  0.16782890  0.50248210  0.83602839  1
  Fe  Fe33  1  0.16909590  0.83464811  0.50184263  1
  Ni  Ni34  1  0.00255912  0.66859257  0.66843590  1
  Ni  Ni35  1  0.16943114  0.83473210  0.83521323  1
  Ni  Ni36  1  0.50281043  0.16817730  0.50169708  1
  Fe  Fe37  1  0.33679546  0.00221814  0.66951810  1
  Ni  Ni38  1  0.50237187  0.16773013  0.83575783  1
  Ni  Ni39  1  0.50148690  0.50242060  0.50248375  1
  Ni  Ni40  1  0.33479331  0.33604319  0.66865037  1
  Fe  Fe41  1  0.50214332  0.50218644  0.83545807  1
  Ni  Ni42  1  0.50247898  0.83601235  0.50210611  1
  Ni  Ni43  1  0.33511809  0.66863182  0.66897575  1
  Ni  Ni44  1  0.50204544  0.83640865  0.83543013  1
  Ni  Ni45  1  0.83487541  0.16882736  0.50242831  1
  Ni  Ni46  1  0.66920776  1.00192280  0.66865267  1
  Ni  Ni47  1  0.83511443  0.16933485  0.83542378  1
  Ni  Ni48  1  0.83647134  0.50203902  0.50227377  1
  Ni  Ni49  1  0.66923452  0.33471033  0.66852701  1
  Ni  Ni50  1  0.83680205  0.50215943  0.83497084  1
  Ni  Ni51  1  0.83481714  0.83573806  0.50188723  1
  Ni  Ni52  1  0.66893089  0.66997381  0.66885599  1
  Ni  Ni53  1  0.83513611  0.83511427  0.83600791  1
" 