7641,Ni14Fe12Cr73_5,-209.321494437396, 181.685209180534,Ni14Fe12Cr73,"# generated using pymatgen
 data_Cr41Fe6Ni7
_symmetry_space_group_name_H-M   'P 1'
_cell_length_a   7.56949906
_cell_length_b   7.56949906
_cell_length_c   10.70488823
_cell_angle_alpha   90.00000000
_cell_angle_beta   90.00000000
_cell_angle_gamma   90.00000000
_symmetry_Int_Tables_number   1
_chemical_formula_structural   Cr41Fe6Ni7
_chemical_formula_sum   'Cr41 Fe6 Ni7'
_cell_volume   613.36136339
_cell_formula_units_Z   1
loop_
 _symmetry_equiv_pos_site_id
 _symmetry_equiv_pos_as_xyz
  1  'x, y, z'
loop_
 _atom_site_type_symbol
 _atom_site_label
 _atom_site_symmetry_multiplicity
 _atom_site_fract_x
 _atom_site_fract_y
 _atom_site_fract_z
 _atom_site_occupancy
  Cr  Cr0  1  0.99059634  0.99189826  0.99287524  1
  Cr  Cr1  1  0.16017224  0.15924244  0.15924170  1
  Cr  Cr2  1  0.99246389  0.99212000  0.32792653  1
  Cr  Cr3  1  -0.00565038  0.32705260  -0.00668009  1
  Cr  Cr4  1  0.15801844  0.49523706  0.15935609  1
  Cr  Cr5  1  0.99271592  0.32694800  0.32693271  1
  Ni  Ni6  1  0.99252591  0.66105353  0.99299742  1
  Cr  Cr7  1  0.16064263  0.82521980  0.15907591  1
  Fe  Fe8  1  0.99264796  0.66033180  0.32781132  1
  Cr  Cr9  1  0.32885765  -0.00666219  -0.00549539  1
  Cr  Cr10  1  0.49485697  0.15804863  0.16019940  1
  Cr  Cr11  1  0.32718988  0.99064836  0.32686988  1
  Cr  Cr12  1  0.32705893  0.32755986  0.99177005  1
  Cr  Cr13  1  0.49445849  0.49388024  0.16088252  1
  Cr  Cr14  1  0.32654419  0.32802339  0.32587551  1
  Cr  Cr15  1  0.32735496  0.65880123  -0.00562474  1
  Ni  Ni16  1  0.49369940  0.82775499  0.15925662  1
  Cr  Cr17  1  0.32691233  0.66102459  0.32724506  1
  Ni  Ni18  1  0.65954895  0.99178458  0.99293213  1
  Cr  Cr19  1  0.82466670  0.16066714  0.16107743  1
  Cr  Cr20  1  0.66004583  0.99175069  0.32625208  1
  Cr  Cr21  1  0.65828973  0.32554735  0.99181070  1
  Cr  Cr22  1  0.82721730  0.49341223  0.16119178  1
  Ni  Ni23  1  0.66058730  0.32715529  0.32668527  1
  Cr  Cr24  1  0.65972742  0.66254589  0.99182047  1
  Cr  Cr25  1  0.82602484  0.82562280  0.15717111  1
  Cr  Cr26  1  0.65896491  0.66127607  0.32760437  1
  Cr  Cr27  1  0.16072333  0.15843956  0.49464494  1
  Cr  Cr28  1  0.99266123  0.99195180  0.65889072  1
  Cr  Cr29  1  0.16157130  0.15853400  0.82581317  1
  Fe  Fe30  1  0.15950185  0.49533700  0.49284434  1
  Cr  Cr31  1  -0.00530157  0.32599184  0.65944575  1
  Cr  Cr32  1  0.16006999  0.49441040  0.82776563  1
  Fe  Fe33  1  0.15988633  0.82576680  0.49326283  1
  Cr  Cr34  1  0.99287081  0.66175756  0.65807564  1
  Cr  Cr35  1  0.15906490  0.82675038  0.82687591  1
  Cr  Cr36  1  0.49318600  0.15844087  0.49373119  1
  Fe  Fe37  1  0.32744570  0.99231887  0.65897191  1
  Fe  Fe38  1  0.49368625  0.16049303  0.82706935  1
  Cr  Cr39  1  0.49397983  0.49396021  0.49267601  1
  Cr  Cr40  1  0.32680899  0.32715587  0.66205829  1
  Ni  Ni41  1  0.49377850  0.49221761  0.82639481  1
  Ni  Ni42  1  0.49235288  0.82674804  0.49367958  1
  Cr  Cr43  1  0.32777943  0.65973464  0.65807724  1
  Cr  Cr44  1  0.49378885  0.82752176  0.82682617  1
  Cr  Cr45  1  0.82578766  0.16038661  0.49147004  1
  Cr  Cr46  1  0.66021920  0.99097937  0.65991906  1
  Cr  Cr47  1  0.82488486  0.15871543  0.82715186  1
  Cr  Cr48  1  0.82706536  0.49408341  0.49099305  1
  Cr  Cr49  1  0.65819124  0.32694922  0.66165322  1
  Cr  Cr50  1  0.82565381  0.49495517  0.82751370  1
  Ni  Ni51  1  0.82749542  0.82520232  0.49350942  1
  Cr  Cr52  1  0.65904844  0.66176991  0.66027110  1
  Fe  Fe53  1  0.82622182  0.82604483  0.82791512  1
" 