7443,Ni14Fe86_2,-242.167802051905, 198.607208474228,Ni14Fe86,"# generated using pymatgen
 data_Fe7Ni47
_symmetry_space_group_name_H-M   'P 1'
_cell_length_a   7.43330719
_cell_length_b   7.43330719
_cell_length_c   10.51228384
_cell_angle_alpha   90.00000000
_cell_angle_beta   90.00000000
_cell_angle_gamma   90.00000000
_symmetry_Int_Tables_number   1
_chemical_formula_structural   Fe7Ni47
_chemical_formula_sum   'Fe7 Ni47'
_cell_volume   580.84631768
_cell_formula_units_Z   1
loop_
 _symmetry_equiv_pos_site_id
 _symmetry_equiv_pos_as_xyz
  1  'x, y, z'
loop_
 _atom_site_type_symbol
 _atom_site_label
 _atom_site_symmetry_multiplicity
 _atom_site_fract_x
 _atom_site_fract_y
 _atom_site_fract_z
 _atom_site_occupancy
  Ni  Ni0  1  1.00154552  1.00224884  0.00309322  1
  Ni  Ni1  1  0.17034034  0.16885733  0.16848783  1
  Ni  Ni2  1  1.00149289  0.00287130  0.33466511  1
  Ni  Ni3  1  1.00196143  0.33617752  1.00172785  1
  Ni  Ni4  1  0.16873140  0.50122286  0.16893158  1
  Ni  Ni5  1  0.00272315  0.33582960  0.33566152  1
  Ni  Ni6  1  0.00289998  0.66837818  1.00188216  1
  Fe  Fe7  1  0.16979177  0.83460901  0.16916451  1
  Ni  Ni8  1  1.00184217  0.66812857  0.33636305  1
  Ni  Ni9  1  0.33622356  1.00175001  1.00221921  1
  Ni  Ni10  1  0.50058788  0.16851299  0.16899890  1
  Ni  Ni11  1  0.33617660  0.00230594  0.33561164  1
  Ni  Ni12  1  0.33558080  0.33638939  1.00175160  1
  Ni  Ni13  1  0.50208398  0.50188379  0.16891361  1
  Ni  Ni14  1  0.33443033  0.33612618  0.33573767  1
  Ni  Ni15  1  0.33546314  0.66838927  0.00296190  1
  Ni  Ni16  1  0.50393470  0.83638580  0.16879840  1
  Ni  Ni17  1  0.33628977  0.66811623  0.33528276  1
  Ni  Ni18  1  0.66907858  0.00261372  1.00179599  1
  Fe  Fe19  1  0.83499826  0.16971659  0.16868660  1
  Ni  Ni20  1  0.66920678  1.00129569  0.33598517  1
  Ni  Ni21  1  0.66919281  0.33524645  0.00293833  1
  Ni  Ni22  1  0.83596921  0.50471531  0.16904583  1
  Fe  Fe23  1  0.66862977  0.33594260  0.33561114  1
  Fe  Fe24  1  0.66928358  0.66869789  0.00266229  1
  Ni  Ni25  1  0.83568993  0.83518306  0.16886354  1
  Ni  Ni26  1  0.66881885  0.66966007  0.33495988  1
  Ni  Ni27  1  0.16983193  0.16822302  0.50275862  1
  Ni  Ni28  1  1.00178113  0.00334240  0.66892874  1
  Ni  Ni29  1  0.16987092  0.16806324  0.83554548  1
  Ni  Ni30  1  0.16943255  0.50259856  0.50259212  1
  Ni  Ni31  1  1.00174899  0.33501090  0.66936064  1
  Ni  Ni32  1  0.16955587  0.50279439  0.83539646  1
  Ni  Ni33  1  0.16769280  0.83611133  0.50086047  1
  Fe  Fe34  1  0.00263647  0.66926211  0.66902409  1
  Ni  Ni35  1  0.16778267  0.83607658  0.83666332  1
  Ni  Ni36  1  0.50163694  0.16942155  0.50227980  1
  Ni  Ni37  1  0.33551779  1.00124672  0.66886498  1
  Ni  Ni38  1  0.50202898  0.16967697  0.83546386  1
  Ni  Ni39  1  0.50236846  0.50142884  0.50143637  1
  Ni  Ni40  1  0.33534895  0.33656655  0.66934532  1
  Ni  Ni41  1  0.50247179  0.50108914  0.83652539  1
  Fe  Fe42  1  0.50226210  0.83530996  0.50161161  1
  Ni  Ni43  1  0.33651835  0.66885048  0.66845678  1
  Fe  Fe44  1  0.50168057  0.83564531  0.83607057  1
  Ni  Ni45  1  0.83521382  0.16791070  0.50136655  1
  Ni  Ni46  1  0.66943489  1.00185581  0.66890734  1
  Ni  Ni47  1  0.83490774  0.16810689  0.83628255  1
  Ni  Ni48  1  0.83493971  0.50366798  0.50239756  1
  Ni  Ni49  1  0.66970985  0.33586337  0.66817202  1
  Ni  Ni50  1  0.83484338  0.50320293  0.83554993  1
  Ni  Ni51  1  0.83620544  0.83535242  0.50255522  1
  Ni  Ni52  1  0.66781528  0.66899278  0.66973937  1
  Ni  Ni53  1  0.83635071  0.83563020  0.83559888  1
" 