6000,Ni14Fe52Cr33_8,-223.037406119594, 175.785985022665,Ni14Fe52Cr33,"# generated using pymatgen
 data_Cr19(Fe4Ni)7
_symmetry_space_group_name_H-M   'P 1'
_cell_length_a   7.49001354
_cell_length_b   7.49001354
_cell_length_c   10.59247873
_cell_angle_alpha   90.00000000
_cell_angle_beta   90.00000000
_cell_angle_gamma   90.00000000
_symmetry_Int_Tables_number   1
_chemical_formula_structural   Cr19(Fe4Ni)7
_chemical_formula_sum   'Cr19 Fe28 Ni7'
_cell_volume   594.24126448
_cell_formula_units_Z   1
loop_
 _symmetry_equiv_pos_site_id
 _symmetry_equiv_pos_as_xyz
  1  'x, y, z'
loop_
 _atom_site_type_symbol
 _atom_site_label
 _atom_site_symmetry_multiplicity
 _atom_site_fract_x
 _atom_site_fract_y
 _atom_site_fract_z
 _atom_site_occupancy
  Fe  Fe0  1  -0.00127548  0.00031785  0.99743353  1
  Ni  Ni1  1  0.16498477  0.16724377  0.16490892  1
  Fe  Fe2  1  -0.00098978  -0.00018829  0.33454254  1
  Fe  Fe3  1  -0.00090736  0.32956251  -0.00087659  1
  Fe  Fe4  1  0.16720305  0.49722694  0.16443533  1
  Fe  Fe5  1  0.00009429  0.33045441  0.33268742  1
  Fe  Fe6  1  -0.00052688  0.66550863  -0.00140539  1
  Cr  Cr7  1  0.16490432  0.83163560  0.16386751  1
  Fe  Fe8  1  0.00177994  0.66500573  0.33331951  1
  Cr  Cr9  1  0.32985657  0.00056527  -0.00066166  1
  Ni  Ni10  1  0.49702059  0.16861173  0.16603374  1
  Cr  Cr11  1  0.33146631  -0.00003179  0.33271390  1
  Fe  Fe12  1  0.33290153  0.33296386  0.00149967  1
  Ni  Ni13  1  0.49762644  0.49794425  0.16379362  1
  Cr  Cr14  1  0.33094381  0.33332758  0.32958582  1
  Fe  Fe15  1  0.33254235  0.66221510  -0.00057643  1
  Cr  Cr16  1  0.49835156  0.83040268  0.16703471  1
  Ni  Ni17  1  0.33196848  0.66265000  0.33261173  1
  Cr  Cr18  1  0.66786381  0.00000796  -0.00071229  1
  Cr  Cr19  1  0.83306035  0.16615877  0.16631054  1
  Fe  Fe20  1  0.66491939  0.00007381  0.33372578  1
  Fe  Fe21  1  0.66314162  0.33224639  -0.00106914  1
  Cr  Cr22  1  0.83171339  0.49877399  0.16611604  1
  Fe  Fe23  1  0.66306896  0.33112201  0.33218513  1
  Fe  Fe24  1  0.66325216  0.66245398  -0.00142113  1
  Cr  Cr25  1  0.83214948  0.83043808  0.16807332  1
  Fe  Fe26  1  0.66181352  0.66408591  0.33337445  1
  Fe  Fe27  1  0.16134075  0.16447141  0.49901913  1
  Ni  Ni28  1  0.99673590  -0.00035934  0.66489292  1
  Cr  Cr29  1  0.16349855  0.16408329  0.83073368  1
  Fe  Fe30  1  0.16431844  0.49878718  0.49736393  1
  Fe  Fe31  1  0.99668523  0.32914606  0.66368360  1
  Cr  Cr32  1  0.16432763  0.49941865  0.83277273  1
  Fe  Fe33  1  0.16268319  0.83228349  0.49820974  1
  Fe  Fe34  1  -0.00011743  0.66735731  0.66362441  1
  Fe  Fe35  1  0.16257970  0.83291910  0.83137253  1
  Fe  Fe36  1  0.50174696  0.16489704  0.49840469  1
  Fe  Fe37  1  0.33002119  0.99750712  0.66247905  1
  Cr  Cr38  1  0.49987207  0.16557666  0.82946078  1
  Fe  Fe39  1  0.49914122  0.49817842  0.49580919  1
  Cr  Cr40  1  0.33269109  0.33243624  0.66250019  1
  Fe  Fe41  1  0.49943141  0.49684777  0.83450949  1
  Fe  Fe42  1  0.49971259  0.83238269  0.49727839  1
  Cr  Cr43  1  0.33121169  0.66468074  0.66424205  1
  Cr  Cr44  1  0.49546688  0.83168435  0.83187942  1
  Ni  Ni45  1  0.83188782  0.16430330  0.49946588  1
  Fe  Fe46  1  0.66729753  0.00087438  0.66327456  1
  Ni  Ni47  1  0.83278146  0.16641841  0.82979208  1
  Cr  Cr48  1  0.83363661  0.49686986  0.49800135  1
  Fe  Fe49  1  0.66748448  0.32849877  0.66391624  1
  Cr  Cr50  1  0.83202107  0.49535398  0.83152076  1
  Fe  Fe51  1  0.83290259  0.83500827  0.49811155  1
  Cr  Cr52  1  0.66537397  0.66435336  0.66528967  1
  Cr  Cr53  1  0.83355265  0.83245719  0.83207381  1
" 