3012,Ni14Fe52Cr33_10,-223.013070263447, 173.185211373918,Ni14Fe52Cr33,"# generated using pymatgen
 data_Cr19(Fe4Ni)7
_symmetry_space_group_name_H-M   'P 1'
_cell_length_a   7.49001286
_cell_length_b   7.49001286
_cell_length_c   10.59247777
_cell_angle_alpha   90.00000000
_cell_angle_beta   90.00000000
_cell_angle_gamma   90.00000000
_symmetry_Int_Tables_number   1
_chemical_formula_structural   Cr19(Fe4Ni)7
_chemical_formula_sum   'Cr19 Fe28 Ni7'
_cell_volume   594.24110206
_cell_formula_units_Z   1
loop_
 _symmetry_equiv_pos_site_id
 _symmetry_equiv_pos_as_xyz
  1  'x, y, z'
loop_
 _atom_site_type_symbol
 _atom_site_label
 _atom_site_symmetry_multiplicity
 _atom_site_fract_x
 _atom_site_fract_y
 _atom_site_fract_z
 _atom_site_occupancy
  Fe  Fe0  1  0.99556961  0.99754608  0.99760554  1
  Cr  Cr1  1  0.16499315  0.16551150  0.16419534  1
  Cr  Cr2  1  0.99792305  0.99841827  0.33359552  1
  Fe  Fe3  1  0.99642233  0.33159504  0.99786415  1
  Cr  Cr4  1  0.16359213  0.50084314  0.16575583  1
  Cr  Cr5  1  0.99526324  0.33201558  0.33209888  1
  Fe  Fe6  1  0.99768850  0.66626514  0.99749794  1
  Fe  Fe7  1  0.16592507  0.82904866  0.16558936  1
  Ni  Ni8  1  -0.00083777  0.66582370  0.33138914  1
  Cr  Cr9  1  0.33224861  0.99642668  0.00144810  1
  Fe  Fe10  1  0.50223038  0.16448195  0.16446640  1
  Cr  Cr11  1  0.33265598  0.99638021  0.32916022  1
  Fe  Fe12  1  0.33289381  0.33292309  0.99794922  1
  Cr  Cr13  1  0.49899940  0.49803594  0.16535225  1
  Cr  Cr14  1  0.33362638  0.33236432  0.33413464  1
  Fe  Fe15  1  0.33179596  0.66509100  -0.00148767  1
  Fe  Fe16  1  0.49748104  0.83248922  0.16448088  1
  Ni  Ni17  1  0.33148834  0.66647916  0.33097224  1
  Ni  Ni18  1  0.66687606  -0.00067004  -0.00055516  1
  Fe  Fe19  1  0.82860759  0.16665502  0.16397880  1
  Fe  Fe20  1  0.66575989  0.00024302  0.33055710  1
  Fe  Fe21  1  0.66608318  0.33080034  -0.00085074  1
  Fe  Fe22  1  0.83205641  0.49705801  0.16493422  1
  Ni  Ni23  1  0.66618482  0.33062282  0.33131454  1
  Fe  Fe24  1  0.66592038  0.66595684  0.99697657  1
  Cr  Cr25  1  0.83147233  0.83178082  0.16565665  1
  Cr  Cr26  1  0.66447292  0.66399523  0.33243546  1
  Fe  Fe27  1  0.16511963  0.16506060  0.50038281  1
  Fe  Fe28  1  0.99641745  0.99642093  0.66533075  1
  Cr  Cr29  1  0.16480439  0.16581114  0.83092645  1
  Cr  Cr30  1  0.16695163  0.49928807  0.49668720  1
  Cr  Cr31  1  0.99823776  0.33010956  0.66465847  1
  Fe  Fe32  1  0.16547317  0.50070781  0.83247530  1
  Cr  Cr33  1  0.16273396  0.83080178  0.49852194  1
  Fe  Fe34  1  0.99665337  0.66732425  0.66677467  1
  Fe  Fe35  1  0.16279666  0.83024278  0.83104885  1
  Cr  Cr36  1  0.49974243  0.16704545  0.49909245  1
  Fe  Fe37  1  0.33093232  0.99818136  0.66512477  1
  Cr  Cr38  1  0.49983550  0.16691508  0.83151860  1
  Ni  Ni39  1  0.49874099  0.49735700  0.50051705  1
  Fe  Fe40  1  0.33385323  0.33382884  0.66464998  1
  Fe  Fe41  1  0.49916924  0.49924165  0.83094339  1
  Cr  Cr42  1  0.50068734  0.83049948  0.49839353  1
  Fe  Fe43  1  0.33288113  0.66339179  0.66534880  1
  Cr  Cr44  1  0.50127216  0.83069584  0.83116026  1
  Fe  Fe45  1  0.83043057  0.16418572  0.49860771  1
  Fe  Fe46  1  0.66805536  0.99740223  0.66615215  1
  Fe  Fe47  1  0.83070669  0.16317401  0.83282007  1
  Cr  Cr48  1  0.83023791  0.50023836  0.49591006  1
  Fe  Fe49  1  0.66411040  0.33359672  0.66465149  1
  Fe  Fe50  1  0.83075600  0.50006781  0.83183581  1
  Fe  Fe51  1  0.83127183  0.83169001  0.50012223  1
  Ni  Ni52  1  0.66489434  0.66489920  0.66659515  1
  Ni  Ni53  1  0.83305665  0.83085667  0.83044952  1
" 