3926,Ni14Fe52Cr33_3,-223.03934100106, 166.458836933663,Ni14Fe52Cr33,"# generated using pymatgen
 data_Cr19(Fe4Ni)7
_symmetry_space_group_name_H-M   'P 1'
_cell_length_a   7.48986256
_cell_length_b   7.48986256
_cell_length_c   10.59226521
_cell_angle_alpha   90.00000000
_cell_angle_beta   90.00000000
_cell_angle_gamma   90.00000000
_symmetry_Int_Tables_number   1
_chemical_formula_structural   Cr19(Fe4Ni)7
_chemical_formula_sum   'Cr19 Fe28 Ni7'
_cell_volume   594.20533019
_cell_formula_units_Z   1
loop_
 _symmetry_equiv_pos_site_id
 _symmetry_equiv_pos_as_xyz
  1  'x, y, z'
loop_
 _atom_site_type_symbol
 _atom_site_label
 _atom_site_symmetry_multiplicity
 _atom_site_fract_x
 _atom_site_fract_y
 _atom_site_fract_z
 _atom_site_occupancy
  Fe  Fe0  1  0.99675585  0.00031949  0.99819837  1
  Fe  Fe1  1  0.16530793  0.16493741  0.16537509  1
  Fe  Fe2  1  0.00101264  -0.00060541  0.33110193  1
  Fe  Fe3  1  0.00106788  0.32916609  -0.00133396  1
  Fe  Fe4  1  0.16715264  0.49719176  0.16642836  1
  Ni  Ni5  1  0.00343832  0.32986289  0.32996890  1
  Cr  Cr6  1  0.00068250  0.66570416  0.99805827  1
  Fe  Fe7  1  0.16586786  0.83325493  0.16629821  1
  Fe  Fe8  1  0.00110182  0.66596185  0.32999420  1
  Fe  Fe9  1  0.33397997  -0.00017413  -0.00038357  1
  Fe  Fe10  1  0.49685579  0.16327395  0.16460213  1
  Fe  Fe11  1  0.33011051  -0.00003695  0.33091402  1
  Fe  Fe12  1  0.33092457  0.33068204  0.99751323  1
  Fe  Fe13  1  0.49505731  0.49842347  0.16528641  1
  Fe  Fe14  1  0.33036725  0.32951647  0.33079326  1
  Cr  Cr15  1  0.33223622  0.66415836  -0.00099164  1
  Ni  Ni16  1  0.49611310  0.83540375  0.16378955  1
  Fe  Fe17  1  0.32970840  0.66598694  0.32884619  1
  Ni  Ni18  1  0.66494931  -0.00056690  0.99722700  1
  Fe  Fe19  1  0.83333776  0.16218026  0.16460013  1
  Cr  Cr20  1  0.66365228  -0.00088792  0.33116433  1
  Cr  Cr21  1  0.66377256  0.32953688  -0.00123267  1
  Cr  Cr22  1  0.83434711  0.49649866  0.16731028  1
  Cr  Cr23  1  0.66416641  0.33008601  0.33276174  1
  Cr  Cr24  1  0.66265891  0.66815787  -0.00115526  1
  Fe  Fe25  1  0.83178828  0.83523128  0.16446062  1
  Cr  Cr26  1  0.66298744  0.66622867  0.32845654  1
  Fe  Fe27  1  0.16711336  0.16304483  0.49768774  1
  Ni  Ni28  1  0.00152237  0.99795387  0.66529066  1
  Fe  Fe29  1  0.16615228  0.16684318  0.83245554  1
  Cr  Cr30  1  0.16468267  0.49963623  0.49845343  1
  Cr  Cr31  1  0.00179332  0.32927495  0.66703189  1
  Ni  Ni32  1  0.16799978  0.49617211  0.83235398  1
  Fe  Fe33  1  0.16539343  0.83433690  0.49922963  1
  Fe  Fe34  1  0.00094639  0.66715208  0.66664953  1
  Cr  Cr35  1  0.16572548  0.83342412  0.82979377  1
  Ni  Ni36  1  0.49355834  0.16302579  0.49911559  1
  Fe  Fe37  1  0.33131486  0.00113943  0.66488816  1
  Fe  Fe38  1  0.49651157  0.16469969  0.83155761  1
  Cr  Cr39  1  0.49577354  0.49655997  0.49737633  1
  Fe  Fe40  1  0.33158224  0.33013192  0.66700334  1
  Ni  Ni41  1  0.49431170  0.49673858  0.83174012  1
  Cr  Cr42  1  0.49475815  0.83502723  0.50062920  1
  Fe  Fe43  1  0.32957012  0.66411858  0.66769677  1
  Fe  Fe44  1  0.49862087  0.83285933  0.83232442  1
  Cr  Cr45  1  0.83231675  0.16444320  0.49787147  1
  Fe  Fe46  1  0.66547019  -0.00001291  0.66741914  1
  Fe  Fe47  1  0.83283274  0.16180759  0.83225541  1
  Cr  Cr48  1  0.83480023  0.49881076  0.49726665  1
  Cr  Cr49  1  0.66219896  0.32990112  0.66373512  1
  Cr  Cr50  1  0.83373786  0.49791057  0.83085139  1
  Cr  Cr51  1  0.83516668  0.83220525  0.49983388  1
  Cr  Cr52  1  0.66313104  0.66595725  0.66821381  1
  Fe  Fe53  1  0.83136945  0.83510153  0.83097877  1
" 