215,Ni15Fe13Cr71_19,-210.909294672128, 179.120801896117,Ni15Fe13Cr71,"# generated using pymatgen
 data_Cr39Fe7Ni8
_symmetry_space_group_name_H-M   'P 1'
_cell_length_a   7.56015330
_cell_length_b   7.56015330
_cell_length_c   10.69167132
_cell_angle_alpha   90.00000000
_cell_angle_beta   90.00000000
_cell_angle_gamma   90.00000000
_symmetry_Int_Tables_number   1
_chemical_formula_structural   Cr39Fe7Ni8
_chemical_formula_sum   'Cr39 Fe7 Ni8'
_cell_volume   611.09228800
_cell_formula_units_Z   1
loop_
 _symmetry_equiv_pos_site_id
 _symmetry_equiv_pos_as_xyz
  1  'x, y, z'
loop_
 _atom_site_type_symbol
 _atom_site_label
 _atom_site_symmetry_multiplicity
 _atom_site_fract_x
 _atom_site_fract_y
 _atom_site_fract_z
 _atom_site_occupancy
  Cr  Cr0  1  0.99311405  0.99224996  0.99205375  1
  Cr  Cr1  1  0.16142933  0.16054237  0.16264194  1
  Cr  Cr2  1  -0.00487636  0.99376470  0.32724059  1
  Cr  Cr3  1  0.99134511  0.32816906  0.99382434  1
  Cr  Cr4  1  0.16111155  0.49388293  0.15978966  1
  Cr  Cr5  1  -0.00445811  0.32852088  0.32797269  1
  Cr  Cr6  1  -0.00502121  0.66111242  0.99383267  1
  Cr  Cr7  1  0.15979543  0.82710373  0.15857814  1
  Cr  Cr8  1  0.99216536  0.65924594  0.32605641  1
  Cr  Cr9  1  0.32693779  0.99096012  0.99357169  1
  Cr  Cr10  1  0.49279524  0.16106614  0.16111475  1
  Ni  Ni11  1  0.32781149  -0.00451206  0.32887383  1
  Cr  Cr12  1  0.32802371  0.32876614  -0.00611751  1
  Cr  Cr13  1  0.49400679  0.49424901  0.16022227  1
  Ni  Ni14  1  0.32575982  0.32547720  0.32959529  1
  Ni  Ni15  1  0.32603960  0.66141793  0.99262639  1
  Cr  Cr16  1  0.49479129  0.82621103  0.16162024  1
  Cr  Cr17  1  0.32830006  0.66101233  0.32821286  1
  Cr  Cr18  1  0.66147504  -0.00540557  0.99335523  1
  Cr  Cr19  1  0.82730374  0.15975143  0.15992024  1
  Cr  Cr20  1  0.65839851  0.99128520  0.32688130  1
  Cr  Cr21  1  0.66215890  0.32690952  0.99371691  1
  Fe  Fe22  1  0.82633252  0.49633554  0.16138020  1
  Cr  Cr23  1  0.66016573  0.32882253  0.32479990  1
  Cr  Cr24  1  0.66087399  0.66002506  -0.00541962  1
  Ni  Ni25  1  0.82634435  0.82539410  0.16095322  1
  Ni  Ni26  1  0.66091275  0.66159918  0.32727709  1
  Fe  Fe27  1  0.16293160  0.16214605  0.49256035  1
  Cr  Cr28  1  -0.00599705  0.99377180  0.66223003  1
  Cr  Cr29  1  0.15934116  0.15959080  0.82658607  1
  Ni  Ni30  1  0.16212203  0.49081940  0.49404607  1
  Cr  Cr31  1  -0.00567656  0.32784060  0.65972690  1
  Cr  Cr32  1  0.16117272  0.49557071  0.82770605  1
  Cr  Cr33  1  0.16143781  0.82779907  0.49312835  1
  Cr  Cr34  1  -0.00571140  0.65991695  0.66163388  1
  Ni  Ni35  1  0.15870752  0.82637376  0.82865835  1
  Cr  Cr36  1  0.49089980  0.15993689  0.49273214  1
  Cr  Cr37  1  0.32736111  0.99299819  0.65913350  1
  Cr  Cr38  1  0.49497938  0.16174257  0.82768414  1
  Cr  Cr39  1  0.49258469  0.49512366  0.49450205  1
  Fe  Fe40  1  0.32590555  0.32756150  0.65890421  1
  Cr  Cr41  1  0.49397892  0.49424504  0.82680511  1
  Ni  Ni42  1  0.49420138  0.82688087  0.49286912  1
  Cr  Cr43  1  0.32707826  0.66069377  0.66028099  1
  Cr  Cr44  1  0.49357941  0.82553937  0.82717922  1
  Cr  Cr45  1  0.82869747  0.15978966  0.49436557  1
  Cr  Cr46  1  0.66016182  0.99296114  0.66128977  1
  Fe  Fe47  1  0.82758497  0.16013568  0.82713871  1
  Cr  Cr48  1  0.82735938  0.49562510  0.49330649  1
  Cr  Cr49  1  0.66094032  0.32755869  0.66300734  1
  Fe  Fe50  1  0.82719035  0.49458589  0.82669931  1
  Cr  Cr51  1  0.82463185  0.82611177  0.49353482  1
  Fe  Fe52  1  0.66051861  0.66140450  0.66000117  1
  Fe  Fe53  1  0.82846887  0.82680621  0.82720225  1
" 