4582,Ni15Fe13Cr71_9,-211.080245847117, 180.99852473112,Ni15Fe13Cr71,"# generated using pymatgen
 data_Cr39Fe7Ni8
_symmetry_space_group_name_H-M   'P 1'
_cell_length_a   7.55868285
_cell_length_b   7.55868285
_cell_length_c   10.68959180
_cell_angle_alpha   90.00000000
_cell_angle_beta   90.00000000
_cell_angle_gamma   90.00000000
_symmetry_Int_Tables_number   1
_chemical_formula_structural   Cr39Fe7Ni8
_chemical_formula_sum   'Cr39 Fe7 Ni8'
_cell_volume   610.73578510
_cell_formula_units_Z   1
loop_
 _symmetry_equiv_pos_site_id
 _symmetry_equiv_pos_as_xyz
  1  'x, y, z'
loop_
 _atom_site_type_symbol
 _atom_site_label
 _atom_site_symmetry_multiplicity
 _atom_site_fract_x
 _atom_site_fract_y
 _atom_site_fract_z
 _atom_site_occupancy
  Cr  Cr0  1  -0.00563408  -0.00457583  -0.00370933  1
  Cr  Cr1  1  0.15988760  0.16351152  0.16333274  1
  Fe  Fe2  1  0.99119500  -0.00251158  0.32852239  1
  Cr  Cr3  1  0.99301568  0.32519263  0.99355663  1
  Cr  Cr4  1  0.16218655  0.49299712  0.15957810  1
  Fe  Fe5  1  0.99320788  0.32757040  0.32906194  1
  Cr  Cr6  1  0.99191881  0.66115863  -0.00468445  1
  Cr  Cr7  1  0.15972125  0.82653487  0.16183410  1
  Cr  Cr8  1  0.99134104  0.66125992  0.32786187  1
  Cr  Cr9  1  0.32659039  -0.00352995  0.99304441  1
  Cr  Cr10  1  0.49643297  0.16232770  0.16241072  1
  Cr  Cr11  1  0.32409114  -0.00365329  0.32757906  1
  Ni  Ni12  1  0.32736515  0.32617272  -0.00548267  1
  Cr  Cr13  1  0.49219543  0.49121969  0.16279046  1
  Ni  Ni14  1  0.32894853  0.32509526  0.32972449  1
  Cr  Cr15  1  0.32885146  0.66168499  0.99370714  1
  Cr  Cr16  1  0.49465034  0.82866526  0.16129343  1
  Cr  Cr17  1  0.32882783  0.65953798  0.32941704  1
  Cr  Cr18  1  0.66093301  -0.00532589  0.99352790  1
  Ni  Ni19  1  0.82697796  0.16110175  0.16495157  1
  Fe  Fe20  1  0.66129783  -0.00488691  0.32806004  1
  Cr  Cr21  1  0.66063751  0.32706983  -0.00483797  1
  Cr  Cr22  1  0.82752897  0.49092446  0.16132171  1
  Ni  Ni23  1  0.66211773  0.32585942  0.32856656  1
  Cr  Cr24  1  0.66116690  0.65972191  -0.00562597  1
  Cr  Cr25  1  0.82658966  0.83100406  0.16338283  1
  Cr  Cr26  1  0.66194494  0.65706555  0.32958572  1
  Fe  Fe27  1  0.15910489  0.16279163  0.49229364  1
  Cr  Cr28  1  -0.00389705  -0.00431977  0.65845229  1
  Cr  Cr29  1  0.15998264  0.16331949  0.82547486  1
  Cr  Cr30  1  0.16100021  0.49268958  0.49425620  1
  Ni  Ni31  1  0.99348324  0.32744170  0.65684262  1
  Cr  Cr32  1  0.16055534  0.49330521  0.82736332  1
  Cr  Cr33  1  0.15914554  0.82750747  0.49332713  1
  Cr  Cr34  1  0.99054952  0.65929778  0.65845427  1
  Cr  Cr35  1  0.16084833  0.82471891  0.82714206  1
  Cr  Cr36  1  0.49566270  0.16129973  0.49201748  1
  Cr  Cr37  1  0.32786259  0.99389261  0.66120836  1
  Cr  Cr38  1  0.49580786  0.15999555  0.82730362  1
  Ni  Ni39  1  0.49512307  0.49139088  0.49193813  1
  Cr  Cr40  1  0.32745024  0.32517215  0.65788052  1
  Cr  Cr41  1  0.49173997  0.49330771  0.82789522  1
  Cr  Cr42  1  0.49544115  0.82818885  0.49566451  1
  Fe  Fe43  1  0.32749267  0.65801656  0.65886350  1
  Fe  Fe44  1  0.49462157  0.82652982  0.82526581  1
  Cr  Cr45  1  0.82668153  0.16035126  0.49354105  1
  Fe  Fe46  1  0.66238553  -0.00577119  0.65921304  1
  Cr  Cr47  1  0.82670604  0.16058344  0.82490832  1
  Ni  Ni48  1  0.82694677  0.49232822  0.49301431  1
  Cr  Cr49  1  0.66170788  0.33004323  0.65911347  1
  Cr  Cr50  1  0.82914932  0.49268986  0.82641658  1
  Ni  Ni51  1  0.82699562  0.82841519  0.49264349  1
  Cr  Cr52  1  0.66004475  0.65936043  0.65771939  1
  Cr  Cr53  1  0.82609487  0.82893577  0.82569064  1
" 