1516,Ni15Cr85_4,-233.949432236089, 158.341064397489,Ni15Cr85,"# generated using pymatgen
 data_Cr4Ni23
_symmetry_space_group_name_H-M   'P 1'
_cell_length_a   7.47210187
_cell_length_b   7.47210187
_cell_length_c   10.56714780
_cell_angle_alpha   90.00000000
_cell_angle_beta   90.00000000
_cell_angle_gamma   90.00000000
_symmetry_Int_Tables_number   1
_chemical_formula_structural   Cr4Ni23
_chemical_formula_sum   'Cr8 Ni46'
_cell_volume   589.98823287
_cell_formula_units_Z   2
loop_
 _symmetry_equiv_pos_site_id
 _symmetry_equiv_pos_as_xyz
  1  'x, y, z'
loop_
 _atom_site_type_symbol
 _atom_site_label
 _atom_site_symmetry_multiplicity
 _atom_site_fract_x
 _atom_site_fract_y
 _atom_site_fract_z
 _atom_site_occupancy
  Ni  Ni0  1  -0.00006139  0.00010560  0.99935720  1
  Ni  Ni1  1  0.16621308  0.16729080  0.16525183  1
  Ni  Ni2  1  0.99786414  -0.00009687  0.33371835  1
  Ni  Ni3  1  0.99940745  0.33272865  0.99893871  1
  Ni  Ni4  1  0.16585887  0.49869911  0.16740486  1
  Ni  Ni5  1  0.00024359  0.33205805  0.33264223  1
  Ni  Ni6  1  0.99792745  0.66615087  0.99935719  1
  Ni  Ni7  1  0.16478122  0.83299555  0.16632847  1
  Ni  Ni8  1  0.00059840  0.66702395  0.33204574  1
  Ni  Ni9  1  0.33245899  0.00068239  0.00019577  1
  Ni  Ni10  1  0.50031995  0.16746705  0.16507466  1
  Cr  Cr11  1  0.33197180  0.99841056  0.33176604  1
  Ni  Ni12  1  0.33155482  0.33071919  0.00109943  1
  Ni  Ni13  1  0.50049655  0.49834548  0.16778630  1
  Ni  Ni14  1  0.33239559  0.33587146  0.33263853  1
  Cr  Cr15  1  0.33220178  0.66780354  0.00045336  1
  Ni  Ni16  1  0.50139803  0.83317286  0.16615077  1
  Ni  Ni17  1  0.33329961  0.66446787  0.33392228  1
  Ni  Ni18  1  0.66658793  0.99920202  0.00001779  1
  Ni  Ni19  1  0.83245225  0.16639006  0.16674681  1
  Ni  Ni20  1  0.66890071  0.99899932  0.33281619  1
  Ni  Ni21  1  0.66802208  0.33272925  0.00147975  1
  Ni  Ni22  1  0.83262971  0.49977650  0.16570652  1
  Ni  Ni23  1  0.66634559  0.33313793  0.33118072  1
  Ni  Ni24  1  0.66859655  0.66705384  0.00001774  1
  Ni  Ni25  1  0.83280620  0.83281880  0.16650609  1
  Ni  Ni26  1  0.66508744  0.66684753  0.33246447  1
  Ni  Ni27  1  0.16329240  0.16816765  0.50020592  1
  Ni  Ni28  1  0.99806338  -0.00006047  0.66590999  1
  Ni  Ni29  1  0.16396373  0.16732966  0.83352708  1
  Ni  Ni30  1  0.16876955  0.49949843  0.50020850  1
  Ni  Ni31  1  0.00229330  0.33205847  0.66740425  1
  Ni  Ni32  1  0.16361285  0.49866237  0.83137253  1
  Ni  Ni33  1  0.16477946  0.83132026  0.49978767  1
  Ni  Ni34  1  0.00080096  0.66698715  0.66758195  1
  Ni  Ni35  1  0.16437506  0.83299395  0.83286924  1
  Cr  Cr36  1  0.50052228  0.16741806  0.49906781  1
  Cr  Cr37  1  0.33156345  0.99777583  0.66676576  1
  Cr  Cr38  1  0.49925127  0.16482104  0.83506408  1
  Ni  Ni39  1  0.49654223  0.50206927  0.49892270  1
  Ni  Ni40  1  0.32866538  0.33587889  0.66524764  1
  Cr  Cr41  1  0.49965373  0.50076506  0.83231363  1
  Ni  Ni42  1  0.50143777  0.82965483  0.50038360  1
  Ni  Ni43  1  0.33249678  0.66550615  0.66486788  1
  Ni  Ni44  1  0.50164001  0.83316992  0.83245081  1
  Ni  Ni45  1  0.83533978  0.16327180  0.49912613  1
  Ni  Ni46  1  0.66950750  0.99610889  0.66615174  1
  Ni  Ni47  1  0.83554014  0.16534496  0.83311228  1
  Cr  Cr48  1  0.83376657  0.50066200  0.49886784  1
  Cr  Cr49  1  0.66835539  0.33297352  0.66632512  1
  Ni  Ni50  1  0.83571743  0.50082082  0.83415249  1
  Ni  Ni51  1  0.83276882  0.83513198  0.50003065  1
  Ni  Ni52  1  0.66568747  0.66973566  0.66650277  1
  Ni  Ni53  1  0.83297166  0.83281924  0.83244888  1
" 