8243,Ni15Fe13Cr71_10,-210.791585513728, 179.902997516105,Ni15Fe13Cr71,"# generated using pymatgen
 data_Cr39Fe7Ni8
_symmetry_space_group_name_H-M   'P 1'
_cell_length_a   7.56060718
_cell_length_b   7.56060718
_cell_length_c   10.69231321
_cell_angle_alpha   90.00000000
_cell_angle_beta   90.00000000
_cell_angle_gamma   90.00000000
_symmetry_Int_Tables_number   1
_chemical_formula_structural   Cr39Fe7Ni8
_chemical_formula_sum   'Cr39 Fe7 Ni8'
_cell_volume   611.20235746
_cell_formula_units_Z   1
loop_
 _symmetry_equiv_pos_site_id
 _symmetry_equiv_pos_as_xyz
  1  'x, y, z'
loop_
 _atom_site_type_symbol
 _atom_site_label
 _atom_site_symmetry_multiplicity
 _atom_site_fract_x
 _atom_site_fract_y
 _atom_site_fract_z
 _atom_site_occupancy
  Cr  Cr0  1  -0.00386292  0.99315182  -0.00531476  1
  Fe  Fe1  1  0.16144237  0.16199615  0.15948684  1
  Cr  Cr2  1  -0.00315939  -0.00449320  0.32513413  1
  Cr  Cr3  1  -0.00560543  0.32786571  -0.00354862  1
  Fe  Fe4  1  0.16181848  0.49400902  0.16046876  1
  Cr  Cr5  1  -0.00420035  0.32738784  0.32756578  1
  Cr  Cr6  1  -0.00501319  0.66053524  -0.00567764  1
  Ni  Ni7  1  0.16063522  0.82629161  0.15915593  1
  Cr  Cr8  1  -0.00456688  0.65902740  0.32433489  1
  Cr  Cr9  1  0.32605717  -0.00529933  -0.00569682  1
  Cr  Cr10  1  0.49174537  0.16186346  0.15842131  1
  Cr  Cr11  1  0.32615122  -0.00609565  0.32638041  1
  Ni  Ni12  1  0.32407317  0.32685380  0.99289664  1
  Cr  Cr13  1  0.49139318  0.49236647  0.15913242  1
  Cr  Cr14  1  0.32463382  0.32641868  0.32942086  1
  Cr  Cr15  1  0.32429936  0.66227731  0.99274376  1
  Cr  Cr16  1  0.49237098  0.82746115  0.16361068  1
  Cr  Cr17  1  0.32638358  0.66126425  0.33048285  1
  Cr  Cr18  1  0.65935266  -0.00550814  0.99168868  1
  Cr  Cr19  1  0.82624759  0.16018012  0.16226443  1
  Ni  Ni20  1  0.65945357  0.99330435  0.32981863  1
  Cr  Cr21  1  0.66061111  0.32654313  0.99225273  1
  Ni  Ni22  1  0.83072099  0.49295099  0.16073558  1
  Cr  Cr23  1  0.66107622  0.32806182  0.32724501  1
  Cr  Cr24  1  0.66218007  0.66006897  -0.00443202  1
  Cr  Cr25  1  0.82767817  0.82736612  0.16224457  1
  Cr  Cr26  1  0.65956812  0.65956137  0.32833919  1
  Fe  Fe27  1  0.16026988  0.16092723  0.49488272  1
  Ni  Ni28  1  -0.00441112  0.99365085  0.66075712  1
  Cr  Cr29  1  0.16089286  0.16148476  0.82641025  1
  Ni  Ni30  1  0.16371636  0.49406786  0.49418323  1
  Cr  Cr31  1  -0.00449436  0.32688511  0.65749855  1
  Fe  Fe32  1  0.16159933  0.49214786  0.82710616  1
  Cr  Cr33  1  0.15867971  0.82771827  0.49533715  1
  Cr  Cr34  1  -0.00374512  0.65992104  0.66271048  1
  Fe  Fe35  1  0.16094288  0.82848060  0.82640043  1
  Cr  Cr36  1  0.49431034  0.15990612  0.49351700  1
  Cr  Cr37  1  0.32729611  -0.00614513  0.66036043  1
  Ni  Ni38  1  0.48982914  0.16085513  0.82789839  1
  Ni  Ni39  1  0.48962982  0.49342459  0.49370500  1
  Cr  Cr40  1  0.32741267  0.32706965  0.65885581  1
  Cr  Cr41  1  0.48992239  0.49149417  0.82920250  1
  Fe  Fe42  1  0.49418270  0.82685602  0.49322970  1
  Cr  Cr43  1  0.32736103  0.66045036  0.65896561  1
  Cr  Cr44  1  0.49350940  0.82749762  0.82620834  1
  Cr  Cr45  1  0.82866694  0.15747168  0.49538851  1
  Fe  Fe46  1  0.65935277  -0.00570797  0.66058114  1
  Cr  Cr47  1  0.82743081  0.15879222  0.82367380  1
  Cr  Cr48  1  0.82841671  0.49438217  0.49327616  1
  Cr  Cr49  1  0.65865377  0.32719306  0.66163842  1
  Cr  Cr50  1  0.82891063  0.49405465  0.82773532  1
  Cr  Cr51  1  0.82782732  0.82954435  0.49468048  1
  Cr  Cr52  1  0.65833392  0.65966262  0.65810391  1
  Cr  Cr53  1  0.82990434  0.82839018  0.82442468  1
" 