8283,Ni15Fe85_5,-242.893137035621, 202.581600916294,Ni15Fe85,"# generated using pymatgen
 data_Fe4Ni23
_symmetry_space_group_name_H-M   'P 1'
_cell_length_a   7.43296088
_cell_length_b   7.43296088
_cell_length_c   10.51179408
_cell_angle_alpha   90.00000000
_cell_angle_beta   90.00000000
_cell_angle_gamma   90.00000000
_symmetry_Int_Tables_number   1
_chemical_formula_structural   Fe4Ni23
_chemical_formula_sum   'Fe8 Ni46'
_cell_volume   580.76513760
_cell_formula_units_Z   2
loop_
 _symmetry_equiv_pos_site_id
 _symmetry_equiv_pos_as_xyz
  1  'x, y, z'
loop_
 _atom_site_type_symbol
 _atom_site_label
 _atom_site_symmetry_multiplicity
 _atom_site_fract_x
 _atom_site_fract_y
 _atom_site_fract_z
 _atom_site_occupancy
  Ni  Ni0  1  1.00126274  0.00277504  0.00444243  1
  Ni  Ni1  1  0.16929610  0.16974597  0.16911230  1
  Fe  Fe2  1  0.00415209  1.00192663  0.33537275  1
  Ni  Ni3  1  0.00281613  0.33585695  0.00241412  1
  Ni  Ni4  1  0.16846510  0.50209445  0.16778081  1
  Ni  Ni5  1  0.00233810  0.33755741  0.33588089  1
  Ni  Ni6  1  1.00158400  0.66855552  1.00225669  1
  Ni  Ni7  1  0.16971144  0.83502119  0.16809261  1
  Ni  Ni8  1  1.00195005  0.66678896  0.33544647  1
  Ni  Ni9  1  0.33659301  0.00258770  0.00263455  1
  Ni  Ni10  1  0.50262941  0.16910688  0.16726941  1
  Ni  Ni11  1  0.33905718  0.00275791  0.33545144  1
  Ni  Ni12  1  0.33446440  0.33540846  0.00255117  1
  Fe  Fe13  1  0.50139928  0.50217553  0.16859282  1
  Ni  Ni14  1  0.33439914  0.33543433  0.33564705  1
  Ni  Ni15  1  0.33589457  0.66866455  0.00301526  1
  Ni  Ni16  1  0.50221036  0.83571122  0.16833323  1
  Ni  Ni17  1  0.33435099  0.66869834  0.33522723  1
  Ni  Ni18  1  0.66903855  1.00146605  1.00174084  1
  Ni  Ni19  1  0.83513977  0.17001234  0.16911550  1
  Ni  Ni20  1  0.66851903  0.00233258  0.33587628  1
  Fe  Fe21  1  0.66917279  0.33559060  1.00126550  1
  Ni  Ni22  1  0.83570452  0.50168807  0.16783374  1
  Fe  Fe23  1  0.66834185  0.33507334  0.33650114  1
  Ni  Ni24  1  0.66932041  0.67042586  0.00348910  1
  Ni  Ni25  1  0.83515691  0.83520136  0.16887789  1
  Fe  Fe26  1  0.66869209  0.66919230  0.33571088  1
  Ni  Ni27  1  0.16911876  0.16938590  0.50205596  1
  Ni  Ni28  1  1.00153518  0.00251054  0.66749212  1
  Ni  Ni29  1  0.16762410  0.16884019  0.83581625  1
  Ni  Ni30  1  0.16927072  0.50226717  0.50370534  1
  Ni  Ni31  1  1.00229058  0.33573582  0.66867407  1
  Fe  Fe32  1  0.16930754  0.50311251  0.83569882  1
  Ni  Ni33  1  0.16954425  0.83519959  0.50254396  1
  Ni  Ni34  1  1.00197616  0.66897573  0.66923386  1
  Ni  Ni35  1  0.16900848  0.83691243  0.83633472  1
  Ni  Ni36  1  0.50222154  0.16941219  0.50418198  1
  Ni  Ni37  1  0.33610003  0.00229694  0.66875786  1
  Fe  Fe38  1  0.50172542  0.16720525  0.83525474  1
  Ni  Ni39  1  0.50185513  0.50239519  0.50138357  1
  Ni  Ni40  1  0.33552290  0.33586495  0.66861429  1
  Ni  Ni41  1  0.50246048  0.50270584  0.83614506  1
  Ni  Ni42  1  0.50201498  0.83503513  0.50316437  1
  Ni  Ni43  1  0.33586775  0.66851667  0.66853819  1
  Ni  Ni44  1  0.50225380  0.83272646  0.83536777  1
  Ni  Ni45  1  0.83578978  0.16938138  0.50202772  1
  Ni  Ni46  1  0.66925019  1.00198859  0.66927469  1
  Ni  Ni47  1  0.83716273  0.16917095  0.83582688  1
  Ni  Ni48  1  0.83546202  0.50203236  0.50366585  1
  Ni  Ni49  1  0.66907737  0.33543857  0.66906299  1
  Fe  Fe50  1  0.83551504  0.50363465  0.83523798  1
  Ni  Ni51  1  0.83555387  0.83540509  0.50230268  1
  Ni  Ni52  1  0.66902585  0.66927075  0.66770721  1
  Ni  Ni53  1  0.83562435  0.83654865  0.83581798  1
" 