7927,Ni15Cr85_5,-233.999327904729, 163.000919858359,Ni15Cr85,"# generated using pymatgen
 data_Cr4Ni23
_symmetry_space_group_name_H-M   'P 1'
_cell_length_a   7.47325031
_cell_length_b   7.47325031
_cell_length_c   10.56877195
_cell_angle_alpha   90.00000000
_cell_angle_beta   90.00000000
_cell_angle_gamma   90.00000000
_symmetry_Int_Tables_number   1
_chemical_formula_structural   Cr4Ni23
_chemical_formula_sum   'Cr8 Ni46'
_cell_volume   590.26031426
_cell_formula_units_Z   2
loop_
 _symmetry_equiv_pos_site_id
 _symmetry_equiv_pos_as_xyz
  1  'x, y, z'
loop_
 _atom_site_type_symbol
 _atom_site_label
 _atom_site_symmetry_multiplicity
 _atom_site_fract_x
 _atom_site_fract_y
 _atom_site_fract_z
 _atom_site_occupancy
  Ni  Ni0  1  0.99857606  0.00036006  0.99905585  1
  Ni  Ni1  1  0.16602731  0.16705898  0.16589495  1
  Ni  Ni2  1  -0.00003739  0.00059424  0.33381133  1
  Ni  Ni3  1  -0.00000161  0.33131232  0.00012516  1
  Ni  Ni4  1  0.16642514  0.49773952  0.16478577  1
  Ni  Ni5  1  0.99880249  0.33191048  0.33380940  1
  Ni  Ni6  1  0.99875025  0.66708203  0.99887601  1
  Cr  Cr7  1  0.16543196  0.83354495  0.16546181  1
  Ni  Ni8  1  0.99755809  0.66625059  0.33481876  1
  Ni  Ni9  1  0.33381045  0.00035770  0.99917004  1
  Ni  Ni10  1  0.49929225  0.16631035  0.16462286  1
  Ni  Ni11  1  0.33118589  0.99952036  0.33297931  1
  Ni  Ni12  1  0.33363321  0.33256023  0.00098978  1
  Ni  Ni13  1  0.49961669  0.49921073  0.16482253  1
  Cr  Cr14  1  0.33169955  0.33246029  0.33144772  1
  Ni  Ni15  1  0.33488283  0.66583663  -0.00025584  1
  Ni  Ni16  1  0.50093207  0.83323406  0.16500183  1
  Cr  Cr17  1  0.33423089  0.66652751  0.33397968  1
  Ni  Ni18  1  0.66636833  0.99911191  -0.00019111  1
  Ni  Ni19  1  0.83343484  0.16574206  0.16583493  1
  Cr  Cr20  1  0.66726219  0.99829710  0.33185710  1
  Ni  Ni21  1  0.66512431  0.33238452  0.99881888  1
  Cr  Cr22  1  0.83312791  0.49979278  0.16652413  1
  Ni  Ni23  1  0.66818369  0.33480817  0.33315406  1
  Ni  Ni24  1  0.66512125  0.66725946  0.99943624  1
  Ni  Ni25  1  0.83196284  0.83363240  0.16565880  1
  Ni  Ni26  1  0.66711341  0.66567092  0.33360760  1
  Ni  Ni27  1  0.16380691  0.16523995  0.49987683  1
  Ni  Ni28  1  -0.00015672  -0.00003891  0.66588762  1
  Ni  Ni29  1  0.16642959  0.16429482  0.83298183  1
  Ni  Ni30  1  0.16420564  0.50019680  0.50087206  1
  Ni  Ni31  1  0.99913181  0.33171117  0.66482085  1
  Cr  Cr32  1  0.16584120  0.50021855  0.83332808  1
  Ni  Ni33  1  0.16545372  0.83331690  0.50049477  1
  Ni  Ni34  1  0.00077213  0.66708296  0.66505878  1
  Ni  Ni35  1  0.16625360  0.83446452  0.83254024  1
  Cr  Cr36  1  0.49976827  0.16606827  0.50143554  1
  Ni  Ni37  1  0.33194296  0.99888786  0.66660642  1
  Ni  Ni38  1  0.49995883  0.16611202  0.83294532  1
  Ni  Ni39  1  0.50060206  0.50060277  0.50012130  1
  Ni  Ni40  1  0.33283273  0.33296157  0.66609438  1
  Ni  Ni41  1  0.50071123  0.49857786  0.83381015  1
  Ni  Ni42  1  0.49828214  0.83183970  0.49994334  1
  Ni  Ni43  1  0.33226741  0.66690507  0.66502264  1
  Ni  Ni44  1  0.49871469  0.83406506  0.83381050  1
  Ni  Ni45  1  0.83542508  0.16755761  0.50017729  1
  Ni  Ni46  1  0.66696895  0.00052866  0.66709924  1
  Ni  Ni47  1  0.83236644  0.16628990  0.83274197  1
  Ni  Ni48  1  0.83394772  0.49895505  0.49835697  1
  Ni  Ni49  1  0.66679194  0.33203609  0.66678323  1
  Ni  Ni50  1  0.83196623  0.49875298  0.83360860  1
  Ni  Ni51  1  0.83501860  0.83224377  0.49893290  1
  Cr  Cr52  1  0.66598470  0.66643716  0.66597728  1
  Ni  Ni53  1  0.83378758  0.83371186  0.83416462  1
" 