6897,Ni15Fe13Cr71_16,-210.534785752873, 173.646069727205,Ni15Fe13Cr71,"# generated using pymatgen
 data_Cr39Fe7Ni8
_symmetry_space_group_name_H-M   'P 1'
_cell_length_a   7.56759793
_cell_length_b   7.56759793
_cell_length_c   10.70219963
_cell_angle_alpha   90.00000000
_cell_angle_beta   90.00000000
_cell_angle_gamma   90.00000000
_symmetry_Int_Tables_number   1
_chemical_formula_structural   Cr39Fe7Ni8
_chemical_formula_sum   'Cr39 Fe7 Ni8'
_cell_volume   612.89933178
_cell_formula_units_Z   1
loop_
 _symmetry_equiv_pos_site_id
 _symmetry_equiv_pos_as_xyz
  1  'x, y, z'
loop_
 _atom_site_type_symbol
 _atom_site_label
 _atom_site_symmetry_multiplicity
 _atom_site_fract_x
 _atom_site_fract_y
 _atom_site_fract_z
 _atom_site_occupancy
  Fe  Fe0  1  0.98983862  -0.00534343  0.99076727  1
  Cr  Cr1  1  0.15777700  0.15897389  0.15856095  1
  Cr  Cr2  1  0.99256671  0.99263687  0.32792745  1
  Ni  Ni3  1  0.99058425  0.32336250  0.99283493  1
  Cr  Cr4  1  0.15762325  0.49234426  0.15800018  1
  Fe  Fe5  1  -0.00624417  0.32422793  0.32692630  1
  Cr  Cr6  1  0.99271476  0.66036904  0.99249987  1
  Cr  Cr7  1  0.16079123  0.82925781  0.15695698  1
  Cr  Cr8  1  -0.00560005  0.66145782  0.32721306  1
  Fe  Fe9  1  0.32800369  -0.00519453  0.99257376  1
  Cr  Cr10  1  0.49430615  0.15844538  0.15954414  1
  Cr  Cr11  1  0.32649240  -0.00550944  0.32872456  1
  Cr  Cr12  1  0.32633035  0.32887900  0.99263127  1
  Cr  Cr13  1  0.49566600  0.49419417  0.15869501  1
  Cr  Cr14  1  0.32730234  0.32611675  0.32745741  1
  Ni  Ni15  1  0.32723576  0.66360949  -0.00658106  1
  Cr  Cr16  1  0.49306674  0.82787463  0.15603703  1
  Cr  Cr17  1  0.32561504  0.65959583  0.32578076  1
  Ni  Ni18  1  0.66335981  0.99104133  0.99146706  1
  Cr  Cr19  1  0.82756477  0.16097199  0.15942485  1
  Cr  Cr20  1  0.66069055  -0.00493634  0.32520502  1
  Cr  Cr21  1  0.66081958  0.32139474  0.99136330  1
  Cr  Cr22  1  0.82688944  0.49050947  0.16318340  1
  Ni  Ni23  1  0.66067379  0.32586519  0.32697867  1
  Fe  Fe24  1  0.66143232  0.65982673  0.99199638  1
  Cr  Cr25  1  0.82639049  0.82754672  0.15796135  1
  Cr  Cr26  1  0.66013057  0.66222318  0.32626689  1
  Ni  Ni27  1  0.15780512  0.15842293  0.49565107  1
  Ni  Ni28  1  0.99102475  -0.00580983  0.66262244  1
  Cr  Cr29  1  0.15758388  0.15818375  0.82757439  1
  Cr  Cr30  1  0.15727598  0.49112845  0.49219523  1
  Cr  Cr31  1  -0.00658759  0.32454233  0.66148088  1
  Cr  Cr32  1  0.15920296  0.49319383  0.82980748  1
  Cr  Cr33  1  0.15997028  0.83099621  0.49628211  1
  Cr  Cr34  1  0.99234569  0.66315257  0.66046716  1
  Cr  Cr35  1  0.15975669  0.83004233  0.82702743  1
  Cr  Cr36  1  0.49387489  0.16024708  0.49421483  1
  Fe  Fe37  1  0.32472486  -0.00459151  0.65981725  1
  Cr  Cr38  1  0.49323981  0.15807443  0.82565805  1
  Cr  Cr39  1  0.49768567  0.49295532  0.49560003  1
  Cr  Cr40  1  0.32746793  0.32597488  0.65993447  1
  Cr  Cr41  1  0.49569058  0.49470936  0.82524281  1
  Cr  Cr42  1  0.49341039  0.82714518  0.49554639  1
  Cr  Cr43  1  0.32531428  0.65872308  0.65977253  1
  Cr  Cr44  1  0.49372728  0.82692685  0.82781471  1
  Cr  Cr45  1  0.82810507  0.16198591  0.49267488  1
  Cr  Cr46  1  0.66351414  -0.00585068  0.66115660  1
  Fe  Fe47  1  0.82708241  0.15729204  0.82740304  1
  Cr  Cr48  1  0.82508216  0.49120827  0.49210042  1
  Ni  Ni49  1  0.66153932  0.32376776  0.66117981  1
  Cr  Cr50  1  0.82571080  0.49231052  0.82510378  1
  Cr  Cr51  1  0.82644309  0.82649657  0.49493000  1
  Fe  Fe52  1  0.66234918  0.66067163  0.66168979  1
  Ni  Ni53  1  0.82589125  0.82961204  0.82790791  1
" 