3618,Ni15Fe85_2,-242.255838683281, 200.718721858695,Ni15Fe85,"# generated using pymatgen
 data_Fe4Ni23
_symmetry_space_group_name_H-M   'P 1'
_cell_length_a   7.43138824
_cell_length_b   7.43138824
_cell_length_c   10.50957004
_cell_angle_alpha   90.00000000
_cell_angle_beta   90.00000000
_cell_angle_gamma   90.00000000
_symmetry_Int_Tables_number   1
_chemical_formula_structural   Fe4Ni23
_chemical_formula_sum   'Fe8 Ni46'
_cell_volume   580.39658779
_cell_formula_units_Z   2
loop_
 _symmetry_equiv_pos_site_id
 _symmetry_equiv_pos_as_xyz
  1  'x, y, z'
loop_
 _atom_site_type_symbol
 _atom_site_label
 _atom_site_symmetry_multiplicity
 _atom_site_fract_x
 _atom_site_fract_y
 _atom_site_fract_z
 _atom_site_occupancy
  Ni  Ni0  1  0.00355527  0.00395472  1.00221993  1
  Ni  Ni1  1  0.17004204  0.16927619  0.16891316  1
  Ni  Ni2  1  0.00351605  0.00341706  0.33565717  1
  Ni  Ni3  1  1.00213415  0.33567892  0.00262588  1
  Ni  Ni4  1  0.16902920  0.50187475  0.16934414  1
  Fe  Fe5  1  1.00231414  0.33561798  0.33583673  1
  Fe  Fe6  1  1.00145084  0.66998325  1.00167383  1
  Ni  Ni7  1  0.16859683  0.83593101  0.16929667  1
  Fe  Fe8  1  1.00144230  0.67074888  0.33679064  1
  Ni  Ni9  1  0.33484206  1.00067615  0.00293720  1
  Ni  Ni10  1  0.50180679  0.16895890  0.16969345  1
  Ni  Ni11  1  0.33434553  1.00082453  0.33552446  1
  Fe  Fe12  1  0.33679337  0.33464094  1.00168721  1
  Ni  Ni13  1  0.50236727  0.50177686  0.16883889  1
  Fe  Fe14  1  0.33720416  0.33498628  0.33632878  1
  Ni  Ni15  1  0.33580638  0.66935078  1.00215210  1
  Ni  Ni16  1  0.50280918  0.83604013  0.16930415  1
  Ni  Ni17  1  0.33564457  0.66904214  0.33614132  1
  Ni  Ni18  1  0.66883834  0.00254018  0.00308036  1
  Fe  Fe19  1  0.83548459  0.16889974  0.16887582  1
  Ni  Ni20  1  0.66936770  0.00260334  0.33537931  1
  Ni  Ni21  1  0.67062611  0.33672639  1.00219745  1
  Ni  Ni22  1  0.83572540  0.50323892  0.16939817  1
  Ni  Ni23  1  0.67014891  0.33697247  0.33582249  1
  Ni  Ni24  1  0.66736679  0.66799363  0.00293885  1
  Ni  Ni25  1  0.83534620  0.83545742  0.16929838  1
  Ni  Ni26  1  0.66752651  0.66777813  0.33537282  1
  Ni  Ni27  1  0.16849960  0.16901173  0.50264062  1
  Ni  Ni28  1  0.00327609  0.00262740  0.66932509  1
  Ni  Ni29  1  0.16901798  0.16917630  0.83555232  1
  Ni  Ni30  1  0.16939061  0.50156764  0.50207356  1
  Ni  Ni31  1  0.00254306  0.33592153  0.66851534  1
  Ni  Ni32  1  0.16883111  0.50159824  0.83578428  1
  Ni  Ni33  1  0.16919253  0.83654920  0.50256529  1
  Ni  Ni34  1  1.00234202  0.66865722  0.66882540  1
  Ni  Ni35  1  0.16902261  0.83637330  0.83542861  1
  Fe  Fe36  1  0.50286422  0.16869919  0.50257610  1
  Ni  Ni37  1  0.33486451  0.00253186  0.66870711  1
  Ni  Ni38  1  0.50258886  0.16859646  0.83502956  1
  Ni  Ni39  1  0.50268372  0.50277349  0.50252405  1
  Ni  Ni40  1  0.33527828  0.33568264  0.66914210  1
  Ni  Ni41  1  0.50279336  0.50215750  0.83589785  1
  Ni  Ni42  1  0.50294522  0.83545747  0.50201345  1
  Fe  Fe43  1  0.33574053  0.66903069  0.66907601  1
  Ni  Ni44  1  0.50300087  0.83622057  0.83593591  1
  Ni  Ni45  1  0.83641658  0.16888279  0.50220388  1
  Ni  Ni46  1  0.66903114  1.00222008  0.66873360  1
  Ni  Ni47  1  0.83577057  0.16899754  0.83592189  1
  Ni  Ni48  1  0.83514864  0.50204536  0.50264521  1
  Ni  Ni49  1  0.66939292  0.33672703  0.66918572  1
  Ni  Ni50  1  0.83558287  0.50217188  0.83510784  1
  Ni  Ni51  1  0.83489760  0.83642775  0.50254947  1
  Ni  Ni52  1  0.66931738  0.66827521  0.66887588  1
  Ni  Ni53  1  0.83499542  0.83618923  0.83539346  1
" 