6579,Ni15Cr85_9,-233.935142905325, 158.662549990322,Ni15Cr85,"# generated using pymatgen
 data_Cr4Ni23
_symmetry_space_group_name_H-M   'P 1'
_cell_length_a   7.47259836
_cell_length_b   7.47259836
_cell_length_c   10.56784995
_cell_angle_alpha   90.00000000
_cell_angle_beta   90.00000000
_cell_angle_gamma   90.00000000
_symmetry_Int_Tables_number   1
_chemical_formula_structural   Cr4Ni23
_chemical_formula_sum   'Cr8 Ni46'
_cell_volume   590.10584908
_cell_formula_units_Z   2
loop_
 _symmetry_equiv_pos_site_id
 _symmetry_equiv_pos_as_xyz
  1  'x, y, z'
loop_
 _atom_site_type_symbol
 _atom_site_label
 _atom_site_symmetry_multiplicity
 _atom_site_fract_x
 _atom_site_fract_y
 _atom_site_fract_z
 _atom_site_occupancy
  Ni  Ni0  1  0.00318871  0.00158797  0.00036625  1
  Ni  Ni1  1  0.16373322  0.16655947  0.16555349  1
  Ni  Ni2  1  0.99938508  0.00158854  0.33247074  1
  Ni  Ni3  1  0.99928072  0.33297598  -0.00024031  1
  Ni  Ni4  1  0.16672173  0.49993887  0.16647618  1
  Ni  Ni5  1  0.99956281  0.33293871  0.33264980  1
  Ni  Ni6  1  0.00148439  0.66432270  0.99951186  1
  Ni  Ni7  1  0.16695637  0.83238741  0.16498266  1
  Ni  Ni8  1  0.99956537  0.66436006  0.33289797  1
  Ni  Ni9  1  0.33074805  0.99827758  0.99862755  1
  Cr  Cr10  1  0.49879238  0.16945771  0.16519996  1
  Cr  Cr11  1  0.33183756  0.99938934  0.33249609  1
  Ni  Ni12  1  0.33116989  0.33280018  -0.00006443  1
  Ni  Ni13  1  0.49973141  0.50146250  0.16668416  1
  Ni  Ni14  1  0.33177852  0.33574548  0.33400069  1
  Ni  Ni15  1  0.33227626  0.66780737  0.00103995  1
  Ni  Ni16  1  0.49692480  0.82829031  0.16518902  1
  Ni  Ni17  1  0.33398447  0.66376241  0.33154897  1
  Cr  Cr18  1  0.66497163  0.00048283  0.99878972  1
  Ni  Ni19  1  0.83652835  0.16936680  0.16629556  1
  Cr  Cr20  1  0.66764881  0.99939492  0.33489269  1
  Ni  Ni21  1  0.66843586  0.33450423  -0.00006436  1
  Ni  Ni22  1  0.83243246  0.49823969  0.16586719  1
  Ni  Ni23  1  0.66754477  0.33556497  0.33332715  1
  Ni  Ni24  1  0.66512453  0.66389968  0.00103918  1
  Cr  Cr25  1  0.83507528  0.83168297  0.16692354  1
  Ni  Ni26  1  0.66533551  0.66394010  0.33357150  1
  Ni  Ni27  1  0.16561707  0.16868045  0.50005840  1
  Ni  Ni28  1  0.99938273  0.00134020  0.66604880  1
  Ni  Ni29  1  0.16647660  0.16573848  0.83327388  1
  Ni  Ni30  1  0.16672181  0.49785494  0.49956332  1
  Ni  Ni31  1  0.99956305  0.33301350  0.66647635  1
  Ni  Ni32  1  0.16460453  0.49973105  0.83284602  1
  Cr  Cr33  1  0.16460019  0.83233573  0.50025405  1
  Ni  Ni34  1  0.99956392  0.66453224  0.66647598  1
  Ni  Ni35  1  0.16781075  0.83341650  0.83366355  1
  Ni  Ni36  1  0.49990150  0.16827232  0.50173491  1
  Ni  Ni37  1  0.33455424  0.00023674  0.66778599  1
  Ni  Ni38  1  0.49862711  0.16533117  0.83196093  1
  Ni  Ni39  1  0.49990202  0.49936934  0.49874623  1
  Ni  Ni40  1  0.33199179  0.33173360  0.66494984  1
  Cr  Cr41  1  0.49988896  0.49905386  0.83343069  1
  Ni  Ni42  1  0.50195834  0.83124328  0.50134599  1
  Ni  Ni43  1  0.33309374  0.66691524  0.66629672  1
  Ni  Ni44  1  0.49693038  0.83418391  0.83235037  1
  Ni  Ni45  1  0.83336738  0.16662386  0.50005822  1
  Ni  Ni46  1  0.66494880  0.00023768  0.66519427  1
  Ni  Ni47  1  0.83378242  0.16853827  0.83253199  1
  Ni  Ni48  1  0.83226214  0.49991232  0.49956339  1
  Ni  Ni49  1  0.66733088  0.33155263  0.66562326  1
  Ni  Ni50  1  0.83455051  0.49803395  0.83345518  1
  Ni  Ni51  1  0.83185110  0.83234987  0.50023955  1
  Ni  Ni52  1  0.66622794  0.66709517  0.66427539  1
  Cr  Cr53  1  0.83421518  0.83188892  0.83170795  1
" 