7280,Ni15Fe13Cr71_11,-210.864393359067, 174.824672991127,Ni15Fe13Cr71,"# generated using pymatgen
 data_Cr39Fe7Ni8
_symmetry_space_group_name_H-M   'P 1'
_cell_length_a   7.56529227
_cell_length_b   7.56529227
_cell_length_c   10.69893893
_cell_angle_alpha   90.00000000
_cell_angle_beta   90.00000000
_cell_angle_gamma   90.00000000
_symmetry_Int_Tables_number   1
_chemical_formula_structural   Cr39Fe7Ni8
_chemical_formula_sum   'Cr39 Fe7 Ni8'
_cell_volume   612.33929607
_cell_formula_units_Z   1
loop_
 _symmetry_equiv_pos_site_id
 _symmetry_equiv_pos_as_xyz
  1  'x, y, z'
loop_
 _atom_site_type_symbol
 _atom_site_label
 _atom_site_symmetry_multiplicity
 _atom_site_fract_x
 _atom_site_fract_y
 _atom_site_fract_z
 _atom_site_occupancy
  Cr  Cr0  1  0.99290474  -0.00510108  0.99051769  1
  Cr  Cr1  1  0.16085227  0.16082122  0.16143076  1
  Cr  Cr2  1  0.99204735  -0.00593601  0.32813860  1
  Fe  Fe3  1  0.99222740  0.32645158  -0.00637127  1
  Cr  Cr4  1  0.15619075  0.49181398  0.15868213  1
  Cr  Cr5  1  0.99121935  0.32704433  0.32670489  1
  Cr  Cr6  1  0.99349313  0.66145226  -0.00537218  1
  Cr  Cr7  1  0.16006931  0.82782378  0.16242301  1
  Cr  Cr8  1  0.99082925  0.65947369  0.32719878  1
  Cr  Cr9  1  0.32662180  0.99243692  -0.00606041  1
  Cr  Cr10  1  0.49212905  0.15741212  0.16129868  1
  Fe  Fe11  1  0.32880773  0.99177429  0.32665331  1
  Cr  Cr12  1  0.32612183  0.32695077  0.99340172  1
  Cr  Cr13  1  0.49557288  0.49399375  0.16040483  1
  Cr  Cr14  1  0.32820901  0.32791357  0.32722513  1
  Cr  Cr15  1  0.32774889  0.66086835  0.99291385  1
  Ni  Ni16  1  0.49640881  0.82689938  0.16224617  1
  Cr  Cr17  1  0.33023684  0.65969173  0.32602575  1
  Cr  Cr18  1  0.66135970  0.99288846  -0.00500936  1
  Cr  Cr19  1  0.82771074  0.16153906  0.15868496  1
  Cr  Cr20  1  0.66148791  0.99230630  0.32403305  1
  Cr  Cr21  1  0.66118314  0.32631333  -0.00649003  1
  Ni  Ni22  1  0.82653110  0.49641255  0.16045296  1
  Cr  Cr23  1  0.66097962  0.32930214  0.32960458  1
  Cr  Cr24  1  0.65923819  0.66124712  -0.00265321  1
  Ni  Ni25  1  0.82409687  0.82361647  0.16115920  1
  Ni  Ni26  1  0.66106006  0.65977660  0.32472061  1
  Cr  Cr27  1  0.16297075  0.15963153  0.49224270  1
  Cr  Cr28  1  -0.00593160  -0.00537155  0.66149229  1
  Fe  Fe29  1  0.16124757  0.16020896  0.82509752  1
  Cr  Cr30  1  0.15892260  0.49210991  0.49381017  1
  Cr  Cr31  1  0.99137004  0.32505335  0.65926624  1
  Cr  Cr32  1  0.15887329  0.49118480  0.82812840  1
  Cr  Cr33  1  0.16129192  0.82869020  0.49456314  1
  Cr  Cr34  1  -0.00553005  0.66082667  0.65947977  1
  Fe  Fe35  1  0.16144470  0.82852273  0.82573211  1
  Cr  Cr36  1  0.49263429  0.16022546  0.49498960  1
  Ni  Ni37  1  0.32484131  -0.00367282  0.66158236  1
  Cr  Cr38  1  0.49287941  0.16064543  0.82488323  1
  Fe  Fe39  1  0.49533288  0.49329052  0.49456890  1
  Ni  Ni40  1  0.32849122  0.32456245  0.65991827  1
  Cr  Cr41  1  0.49448211  0.49082824  0.82357051  1
  Cr  Cr42  1  0.49405192  0.82887664  0.49271907  1
  Cr  Cr43  1  0.32647209  0.65944267  0.66146371  1
  Cr  Cr44  1  0.49383520  0.82896160  0.82615901  1
  Fe  Fe45  1  0.82594647  0.16198572  0.49430204  1
  Cr  Cr46  1  0.66221538  -0.00282364  0.66124393  1
  Fe  Fe47  1  0.82647519  0.16258137  0.82644828  1
  Ni  Ni48  1  0.82305465  0.49189726  0.49344859  1
  Ni  Ni49  1  0.65948101  0.32640709  0.65733325  1
  Cr  Cr50  1  0.82700493  0.49271742  0.82805472  1
  Cr  Cr51  1  0.82552808  0.82417264  0.49243654  1
  Cr  Cr52  1  0.65966936  0.65723498  0.65779437  1
  Cr  Cr53  1  0.82697926  0.82599536  0.82667872  1
" 