5409,Ni15Cr85_6,-233.962213165982, 161.025645095128,Ni15Cr85,"# generated using pymatgen
 data_Cr4Ni23
_symmetry_space_group_name_H-M   'P 1'
_cell_length_a   7.47201750
_cell_length_b   7.47201750
_cell_length_c   10.56702849
_cell_angle_alpha   90.00000000
_cell_angle_beta   90.00000000
_cell_angle_gamma   90.00000000
_symmetry_Int_Tables_number   1
_chemical_formula_structural   Cr4Ni23
_chemical_formula_sum   'Cr8 Ni46'
_cell_volume   589.96824846
_cell_formula_units_Z   2
loop_
 _symmetry_equiv_pos_site_id
 _symmetry_equiv_pos_as_xyz
  1  'x, y, z'
loop_
 _atom_site_type_symbol
 _atom_site_label
 _atom_site_symmetry_multiplicity
 _atom_site_fract_x
 _atom_site_fract_y
 _atom_site_fract_z
 _atom_site_occupancy
  Ni  Ni0  1  0.00045914  0.00035132  0.99831286  1
  Ni  Ni1  1  0.16559906  0.16547814  0.16593616  1
  Ni  Ni2  1  0.99966573  0.00098592  0.33345637  1
  Ni  Ni3  1  0.99943990  0.33310865  0.00045961  1
  Ni  Ni4  1  0.16402294  0.50039000  0.16593585  1
  Ni  Ni5  1  0.99966736  0.33310843  0.33289406  1
  Ni  Ni6  1  0.00045896  0.66554226  0.99887653  1
  Ni  Ni7  1  0.16835965  0.83313454  0.16620119  1
  Ni  Ni8  1  0.99966594  0.66490836  0.33289272  1
  Ni  Ni9  1  0.33272190  0.00052194  0.00111275  1
  Ni  Ni10  1  0.49947472  0.16287719  0.16457672  1
  Ni  Ni11  1  0.33411729  0.99839011  0.33184687  1
  Ni  Ni12  1  0.33272090  0.33191795  0.99845060  1
  Cr  Cr13  1  0.49986322  0.50133114  0.16435367  1
  Cr  Cr14  1  0.33056571  0.33215872  0.33406490  1
  Ni  Ni15  1  0.33153141  0.66656229  -0.00010427  1
  Ni  Ni16  1  0.49773626  0.83471113  0.16715283  1
  Ni  Ni17  1  0.33292676  0.66869525  0.33306348  1
  Ni  Ni18  1  0.66582114  0.00154138  0.00009309  1
  Ni  Ni19  1  0.83392877  0.16721593  0.16576820  1
  Ni  Ni20  1  0.66521910  0.99838865  0.33388787  1
  Ni  Ni21  1  0.66684167  0.33191785  0.99867887  1
  Ni  Ni22  1  0.83550656  0.49865126  0.16576771  1
  Cr  Cr23  1  0.66876971  0.33215872  0.33362315  1
  Ni  Ni24  1  0.66701221  0.66554291  0.99887554  1
  Cr  Cr25  1  0.83276056  0.83297528  0.16654878  1
  Ni  Ni26  1  0.66640983  0.66869696  0.33510509  1
  Ni  Ni27  1  0.16480308  0.16798236  0.49960521  1
  Ni  Ni28  1  0.99887056  0.00035391  0.66723403  1
  Ni  Ni29  1  0.16540458  0.16680885  0.83346103  1
  Ni  Ni30  1  0.16599469  0.49864839  0.50023325  1
  Ni  Ni31  1  -0.00010539  0.33326746  0.66564845  1
  Ni  Ni32  1  0.16659656  0.49982138  0.83283320  1
  Cr  Cr33  1  0.16558367  0.83259123  0.49904445  1
  Ni  Ni34  1  0.99887380  0.66538135  0.66723361  1
  Ni  Ni35  1  0.16366060  0.83237173  0.83399066  1
  Ni  Ni36  1  0.49986189  0.16640802  0.49960500  1
  Cr  Cr37  1  0.33157692  0.00130574  0.66628523  1
  Ni  Ni38  1  0.49966868  0.16974366  0.83482037  1
  Ni  Ni39  1  0.49986045  0.50141297  0.50201376  1
  Ni  Ni40  1  0.33309547  0.33484609  0.66623834  1
  Ni  Ni41  1  0.49966745  0.49807818  0.83241098  1
  Ni  Ni42  1  0.50160334  0.83118090  0.49702898  1
  Ni  Ni43  1  0.33292645  0.66261155  0.66604292  1
  Cr  Cr44  1  0.49966870  0.83118856  0.83481206  1
  Ni  Ni45  1  0.83433676  0.16623908  0.49943895  1
  Cr  Cr46  1  0.66855350  0.00029369  0.66527260  1
  Ni  Ni47  1  0.83392868  0.16680718  0.83379481  1
  Ni  Ni48  1  0.83314694  0.50038923  0.50006522  1
  Ni  Ni49  1  0.66601220  0.33484281  0.66646680  1
  Ni  Ni50  1  0.83273823  0.49982152  0.83316875  1
  Ni  Ni51  1  0.83157255  0.83237382  0.49917340  1
  Ni  Ni52  1  0.66720218  0.66363618  0.66502178  1
  Ni  Ni53  1  0.83567246  0.83237330  0.83326633  1
" 