6100,Ni15Cr85_7,-233.925646321992, 159.736270791856,Ni15Cr85,"# generated using pymatgen
 data_Cr4Ni23
_symmetry_space_group_name_H-M   'P 1'
_cell_length_a   7.47283705
_cell_length_b   7.47283705
_cell_length_c   10.56818751
_cell_angle_alpha   90.00000000
_cell_angle_beta   90.00000000
_cell_angle_gamma   90.00000000
_symmetry_Int_Tables_number   1
_chemical_formula_structural   Cr4Ni23
_chemical_formula_sum   'Cr8 Ni46'
_cell_volume   590.16239794
_cell_formula_units_Z   2
loop_
 _symmetry_equiv_pos_site_id
 _symmetry_equiv_pos_as_xyz
  1  'x, y, z'
loop_
 _atom_site_type_symbol
 _atom_site_label
 _atom_site_symmetry_multiplicity
 _atom_site_fract_x
 _atom_site_fract_y
 _atom_site_fract_z
 _atom_site_occupancy
  Ni  Ni0  1  0.99842454  0.99867347  0.99864793  1
  Cr  Cr1  1  0.16728792  0.16670807  0.16595119  1
  Cr  Cr2  1  0.99918374  0.99923614  0.33321968  1
  Ni  Ni3  1  0.99825260  0.33371057  0.99885027  1
  Ni  Ni4  1  0.16580594  0.50138595  0.16723020  1
  Ni  Ni5  1  0.00153517  0.33510067  0.33365597  1
  Ni  Ni6  1  -0.00033664  0.66645349  0.00028956  1
  Ni  Ni7  1  0.16704792  0.83051447  0.16561199  1
  Ni  Ni8  1  0.00006544  0.66443436  0.33097640  1
  Ni  Ni9  1  0.33383510  0.99884752  0.99919922  1
  Ni  Ni10  1  0.49973206  0.16604237  0.16498696  1
  Ni  Ni11  1  0.33446504  0.99947575  0.33307074  1
  Ni  Ni12  1  0.33418216  0.33371145  0.99885052  1
  Ni  Ni13  1  0.49933452  0.50064207  0.16599076  1
  Ni  Ni14  1  0.33192943  0.33434814  0.33454731  1
  Ni  Ni15  1  0.33259674  0.66627820  -0.00026171  1
  Ni  Ni16  1  0.49898702  0.83215370  0.16622862  1
  Ni  Ni17  1  0.33322496  0.66501360  0.33241994  1
  Ni  Ni18  1  0.66657854  0.00025890  -0.00011355  1
  Ni  Ni19  1  0.83206169  0.16728474  0.16409337  1
  Cr  Cr20  1  0.66502145  0.99871373  0.33322207  1
  Ni  Ni21  1  0.66640315  0.33247289  0.00008822  1
  Ni  Ni22  1  0.83369733  0.50064079  0.16585216  1
  Cr  Cr23  1  0.66529347  0.33298709  0.33172909  1
  Ni  Ni24  1  0.66657751  0.66610623  -0.00032467  1
  Ni  Ni25  1  0.83280334  0.83091223  0.16533554  1
  Ni  Ni26  1  0.66554644  0.66697124  0.33283029  1
  Ni  Ni27  1  0.16701090  0.16898601  0.50057931  1
  Ni  Ni28  1  0.99838680  0.00214373  0.66670627  1
  Ni  Ni29  1  0.16598050  0.16634183  0.83203125  1
  Ni  Ni30  1  0.16865486  0.49629327  0.49830967  1
  Ni  Ni31  1  0.00215770  0.33003604  0.66633190  1
  Ni  Ni32  1  0.16687118  0.49854536  0.83329897  1
  Cr  Cr33  1  0.16791540  0.83337009  0.49916098  1
  Cr  Cr34  1  -0.00005052  0.66648250  0.66807020  1
  Ni  Ni35  1  0.16704589  0.83395029  0.83408730  1
  Ni  Ni36  1  0.49689154  0.16521446  0.49996694  1
  Ni  Ni37  1  0.33383626  0.00050293  0.66656763  1
  Ni  Ni38  1  0.49855039  0.16545183  0.83388293  1
  Ni  Ni39  1  0.49648641  0.50130484  0.49955062  1
  Ni  Ni40  1  0.33130746  0.33292018  0.66544034  1
  Ni  Ni41  1  0.49889916  0.50067656  0.83329675  1
  Ni  Ni42  1  0.50083828  0.83231960  0.50037541  1
  Ni  Ni43  1  0.33547702  0.66541446  0.66667941  1
  Ni  Ni44  1  0.49961455  0.83271047  0.83223328  1
  Ni  Ni45  1  0.83493624  0.16463711  0.50127274  1
  Ni  Ni46  1  0.66661438  0.99797671  0.66546656  1
  Ni  Ni47  1  0.83430726  0.16562685  0.83347076  1
  Cr  Cr48  1  0.83362140  0.50064512  0.49850939  1
  Cr  Cr49  1  0.66529272  0.33209097  0.66704165  1
  Ni  Ni50  1  0.83306816  0.49961123  0.83473858  1
  Ni  Ni51  1  0.82992323  0.83396417  0.50037921  1
  Ni  Ni52  1  0.66373117  0.66918739  0.66633257  1
  Ni  Ni53  1  0.83217736  0.83360042  0.83312355  1
" 