7244,Ni15Cr85_19,-233.897389099053, 159.573139269872,Ni15Cr85,"# generated using pymatgen
 data_Cr4Ni23
_symmetry_space_group_name_H-M   'P 1'
_cell_length_a   7.47393731
_cell_length_b   7.47393731
_cell_length_c   10.56974351
_cell_angle_alpha   90.00000000
_cell_angle_beta   90.00000000
_cell_angle_gamma   90.00000000
_symmetry_Int_Tables_number   1
_chemical_formula_structural   Cr4Ni23
_chemical_formula_sum   'Cr8 Ni46'
_cell_volume   590.42311297
_cell_formula_units_Z   2
loop_
 _symmetry_equiv_pos_site_id
 _symmetry_equiv_pos_as_xyz
  1  'x, y, z'
loop_
 _atom_site_type_symbol
 _atom_site_label
 _atom_site_symmetry_multiplicity
 _atom_site_fract_x
 _atom_site_fract_y
 _atom_site_fract_z
 _atom_site_occupancy
  Ni  Ni0  1  -0.00039563  0.00013003  -0.00028298  1
  Ni  Ni1  1  0.16448366  0.16630529  0.16620565  1
  Ni  Ni2  1  0.00166764  -0.00028306  0.33280732  1
  Ni  Ni3  1  0.99886928  0.33167607  0.00069361  1
  Ni  Ni4  1  0.16338697  0.49907392  0.16681142  1
  Ni  Ni5  1  0.99907720  0.33229752  0.33165434  1
  Ni  Ni6  1  0.99868837  0.66681125  0.00062908  1
  Ni  Ni7  1  0.16507328  0.83323741  0.16705391  1
  Ni  Ni8  1  0.99889950  0.66660271  0.33136325  1
  Ni  Ni9  1  0.33212365  0.00090283  0.99869231  1
  Cr  Cr10  1  0.49906009  0.16534877  0.16489254  1
  Ni  Ni11  1  0.33026972  0.99862634  0.33365378  1
  Ni  Ni12  1  0.33194411  0.32998752  0.99889642  1
  Cr  Cr13  1  0.49931057  0.49917179  0.16813816  1
  Ni  Ni14  1  0.33194274  0.33247306  0.33327318  1
  Cr  Cr15  1  0.33158924  0.66749215  0.99935463  1
  Ni  Ni16  1  0.49856344  0.83359827  0.16705741  1
  Ni  Ni17  1  0.33321175  0.66751772  0.33277483  1
  Ni  Ni18  1  0.66688957  0.00072198  0.99872781  1
  Ni  Ni19  1  0.83557185  0.16703934  0.16511712  1
  Cr  Cr20  1  0.66718906  0.99845782  0.33325052  1
  Ni  Ni21  1  0.66780464  0.33090606  0.99759842  1
  Ni  Ni22  1  0.83593209  0.49907475  0.16705312  1
  Ni  Ni23  1  0.66759805  0.33524149  0.33474742  1
  Cr  Cr24  1  0.66834127  0.66723843  0.99910543  1
  Ni  Ni25  1  0.83497988  0.83250362  0.16596444  1
  Ni  Ni26  1  0.66650632  0.66492751  0.33368504  1
  Ni  Ni27  1  0.16566442  0.16360170  0.49838349  1
  Ni  Ni28  1  -0.00036059  0.99926923  0.66609287  1
  Ni  Ni29  1  0.16590653  0.16383930  0.83402855  1
  Cr  Cr30  1  0.16540331  0.50057121  0.49866666  1
  Ni  Ni31  1  0.99595430  0.33124084  0.66626950  1
  Cr  Cr32  1  0.16455477  0.49995274  0.83313172  1
  Ni  Ni33  1  0.16657679  0.83469258  0.49965195  1
  Ni  Ni34  1  0.99763665  0.66810703  0.66662545  1
  Ni  Ni35  1  0.16572702  0.83506312  0.83191097  1
  Ni  Ni36  1  0.49961832  0.16636888  0.49950162  1
  Ni  Ni37  1  0.33269502  0.99740860  0.66627106  1
  Ni  Ni38  1  0.50046430  0.16552277  0.83424081  1
  Ni  Ni39  1  0.50220696  0.50014533  0.49859133  1
  Cr  Cr40  1  0.33420038  0.33140718  0.66643756  1
  Ni  Ni41  1  0.50197252  0.49844602  0.83188007  1
  Ni  Ni42  1  0.49852857  0.83210380  0.50020610  1
  Ni  Ni43  1  0.33487621  0.66978916  0.66623989  1
  Ni  Ni44  1  0.49937655  0.83464865  0.83135379  1
  Ni  Ni45  1  0.83333388  0.16728108  0.50038466  1
  Ni  Ni46  1  0.66628268  0.99909067  0.66665630  1
  Ni  Ni47  1  0.83224554  0.16643450  0.83311558  1
  Ni  Ni48  1  0.83074441  0.49923345  0.49947365  1
  Ni  Ni49  1  0.66796403  0.33342183  0.66627135  1
  Ni  Ni50  1  0.83182949  0.49862697  0.83209062  1
  Ni  Ni51  1  0.83351199  0.83210295  0.50031924  1
  Ni  Ni52  1  0.66610479  0.66610499  0.66606358  1
  Ni  Ni53  1  0.83351344  0.83355543  0.83233402  1
" 