1500,Ni15Cr85_14,-233.792020452149, 158.78090445185,Ni15Cr85,"# generated using pymatgen
 data_Cr4Ni23
_symmetry_space_group_name_H-M   'P 1'
_cell_length_a   7.47244099
_cell_length_b   7.47244099
_cell_length_c   10.56762739
_cell_angle_alpha   90.00000000
_cell_angle_beta   90.00000000
_cell_angle_gamma   90.00000000
_symmetry_Int_Tables_number   1
_chemical_formula_structural   Cr4Ni23
_chemical_formula_sum   'Cr8 Ni46'
_cell_volume   590.06856600
_cell_formula_units_Z   2
loop_
 _symmetry_equiv_pos_site_id
 _symmetry_equiv_pos_as_xyz
  1  'x, y, z'
loop_
 _atom_site_type_symbol
 _atom_site_label
 _atom_site_symmetry_multiplicity
 _atom_site_fract_x
 _atom_site_fract_y
 _atom_site_fract_z
 _atom_site_occupancy
  Cr  Cr0  1  -0.00031200  -0.00014305  -0.00013748  1
  Ni  Ni1  1  0.16825389  0.16630321  0.16607599  1
  Cr  Cr2  1  0.99929317  0.99816326  0.33353667  1
  Ni  Ni3  1  0.99778304  0.33432654  0.99927509  1
  Ni  Ni4  1  0.16533080  0.50049929  0.16694033  1
  Cr  Cr5  1  -0.00031581  0.33362000  0.33292152  1
  Ni  Ni6  1  0.99778359  0.66472351  -0.00036057  1
  Ni  Ni7  1  0.16739270  0.83211496  0.16727432  1
  Ni  Ni8  1  -0.00007145  0.66693073  0.33291105  1
  Ni  Ni9  1  0.33440148  -0.00029998  0.99947056  1
  Ni  Ni10  1  0.50021089  0.16527356  0.16710614  1
  Ni  Ni11  1  0.33356935  0.00030360  0.33171415  1
  Cr  Cr12  1  0.33227338  0.33122966  0.00066128  1
  Ni  Ni13  1  0.50124330  0.49963911  0.16850268  1
  Ni  Ni14  1  0.33493257  0.33321448  0.33310633  1
  Cr  Cr15  1  0.33266248  0.66822113  0.00026937  1
  Ni  Ni16  1  0.50021079  0.83400477  0.16651191  1
  Ni  Ni17  1  0.33232161  0.66539934  0.33207933  1
  Ni  Ni18  1  0.66514692  -0.00030063  0.99947050  1
  Ni  Ni19  1  0.83045259  0.16733375  0.16527483  1
  Ni  Ni20  1  0.66558603  0.00030340  0.33205303  1
  Ni  Ni21  1  0.66917973  0.33204976  0.00067007  1
  Ni  Ni22  1  0.83234374  0.50049879  0.16487874  1
  Ni  Ni23  1  0.66405495  0.33304583  0.33291093  1
  Ni  Ni24  1  0.66901203  0.66716816  0.00050067  1
  Ni  Ni25  1  0.83131444  0.83108490  0.16647369  1
  Ni  Ni26  1  0.66666724  0.66556825  0.33188421  1
  Ni  Ni27  1  0.16863348  0.16729871  0.50050174  1
  Cr  Cr28  1  0.99929285  0.99963856  0.66551780  1
  Ni  Ni29  1  0.16725690  0.16690705  0.83233989  1
  Ni  Ni30  1  0.16674091  0.50030511  0.50066781  1
  Ni  Ni31  1  -0.00007180  0.33451991  0.66696144  1
  Ni  Ni32  1  0.16257959  0.49969938  0.83130878  1
  Ni  Ni33  1  0.16602043  0.83131296  0.49947169  1
  Ni  Ni34  1  -0.00007172  0.66475870  0.66636689  1
  Ni  Ni35  1  0.16742453  0.83231108  0.83217046  1
  Ni  Ni36  1  0.49963832  0.16801964  0.49963950  1
  Ni  Ni37  1  0.33360040  0.00049771  0.66773244  1
  Ni  Ni38  1  0.50021115  0.16309363  0.83217158  1
  Ni  Ni39  1  0.49963892  0.49769465  0.49927494  1
  Ni  Ni40  1  0.33218450  0.33241290  0.66514111  1
  Cr  Cr41  1  0.50124708  0.49985606  0.83114660  1
  Cr  Cr42  1  0.49963980  0.83319473  0.49986210  1
  Ni  Ni43  1  0.33132561  0.66600680  0.66633738  1
  Ni  Ni44  1  0.50021162  0.83595665  0.83253544  1
  Ni  Ni45  1  0.83064476  0.16730036  0.50050194  1
  Ni  Ni46  1  0.66555491  0.00049768  0.66739403  1
  Ni  Ni47  1  0.83144953  0.16793743  0.83314087  1
  Ni  Ni48  1  0.83253723  0.50030538  0.50066826  1
  Ni  Ni49  1  0.66680438  0.33224460  0.66533681  1
  Ni  Ni50  1  0.83509451  0.49969944  0.83337106  1
  Ni  Ni51  1  0.83325810  0.83131104  0.49947163  1
  Ni  Ni52  1  0.66766320  0.66617525  0.66653287  1
  Ni  Ni53  1  0.83128159  0.83128049  0.83297184  1
" 