7557,Ni15Fe13Cr71_3,-210.716717605445, 176.489869643332,Ni15Fe13Cr71,"# generated using pymatgen
 data_Cr39Fe7Ni8
_symmetry_space_group_name_H-M   'P 1'
_cell_length_a   7.56032683
_cell_length_b   7.56032683
_cell_length_c   10.69191674
_cell_angle_alpha   90.00000000
_cell_angle_beta   90.00000000
_cell_angle_gamma   90.00000000
_symmetry_Int_Tables_number   1
_chemical_formula_structural   Cr39Fe7Ni8
_chemical_formula_sum   'Cr39 Fe7 Ni8'
_cell_volume   611.13436979
_cell_formula_units_Z   1
loop_
 _symmetry_equiv_pos_site_id
 _symmetry_equiv_pos_as_xyz
  1  'x, y, z'
loop_
 _atom_site_type_symbol
 _atom_site_label
 _atom_site_symmetry_multiplicity
 _atom_site_fract_x
 _atom_site_fract_y
 _atom_site_fract_z
 _atom_site_occupancy
  Cr  Cr0  1  0.99372135  -0.00556180  0.99227919  1
  Cr  Cr1  1  0.16003091  0.16122052  0.16078444  1
  Cr  Cr2  1  0.99121494  0.99353166  0.33051724  1
  Cr  Cr3  1  0.99364440  0.32733670  0.99065036  1
  Cr  Cr4  1  0.15789539  0.49263619  0.16419065  1
  Ni  Ni5  1  0.99097480  0.32629950  0.32888676  1
  Fe  Fe6  1  -0.00606577  0.65811878  0.99131026  1
  Cr  Cr7  1  0.16118043  0.82716698  0.15788892  1
  Cr  Cr8  1  0.99315277  0.66307524  0.32543717  1
  Ni  Ni9  1  0.32846215  -0.00548295  0.99024509  1
  Cr  Cr10  1  0.49433114  0.15788673  0.15768596  1
  Cr  Cr11  1  0.32714491  0.99115027  0.32613647  1
  Cr  Cr12  1  0.32800872  0.32660138  0.98977688  1
  Cr  Cr13  1  0.49546241  0.49539600  0.16219076  1
  Cr  Cr14  1  0.32841227  0.32873992  0.32608169  1
  Cr  Cr15  1  0.32738200  0.65820971  -0.00494941  1
  Cr  Cr16  1  0.49488812  0.82822440  0.15657577  1
  Ni  Ni17  1  0.32765874  0.66175111  0.32684857  1
  Fe  Fe18  1  0.65941378  -0.00449036  0.99091125  1
  Cr  Cr19  1  0.82749620  0.16170018  0.16124990  1
  Cr  Cr20  1  0.66287619  0.99313574  0.32813132  1
  Cr  Cr21  1  0.66002152  0.32864862  0.99243592  1
  Cr  Cr22  1  0.82857803  0.49394813  0.15781937  1
  Cr  Cr23  1  0.66222441  0.32642078  0.32690711  1
  Ni  Ni24  1  0.66148127  0.65965374  0.98973116  1
  Cr  Cr25  1  0.82485949  0.82631535  0.15419775  1
  Cr  Cr26  1  0.66004422  0.66186994  0.32833691  1
  Cr  Cr27  1  0.15938435  0.16333862  0.49428796  1
  Cr  Cr28  1  0.99134430  -0.00565350  0.65805819  1
  Fe  Fe29  1  0.16000056  0.15933255  0.82821190  1
  Cr  Cr30  1  0.15965755  0.49292927  0.49109841  1
  Cr  Cr31  1  0.99291657  0.32583177  0.66428561  1
  Ni  Ni32  1  0.15846532  0.49339477  0.82815391  1
  Cr  Cr33  1  0.16207966  0.82581121  0.49452052  1
  Cr  Cr34  1  0.99281112  0.66063848  0.66291131  1
  Cr  Cr35  1  0.16068065  0.82605253  0.82864732  1
  Cr  Cr36  1  0.49434781  0.16107368  0.49393917  1
  Cr  Cr37  1  0.32658851  -0.00431463  0.66342012  1
  Ni  Ni38  1  0.49708863  0.16047998  0.82925289  1
  Cr  Cr39  1  0.49406397  0.49455379  0.49479505  1
  Cr  Cr40  1  0.32844434  0.32784942  0.66768731  1
  Fe  Fe41  1  0.49560078  0.49529985  0.82827669  1
  Cr  Cr42  1  0.49425248  0.82615932  0.49583890  1
  Cr  Cr43  1  0.32746722  0.65770787  0.66114746  1
  Cr  Cr44  1  0.49478849  0.82876579  0.82779156  1
  Ni  Ni45  1  0.82750559  0.16191197  0.49320586  1
  Cr  Cr46  1  0.66304484  -0.00478513  0.65830841  1
  Ni  Ni47  1  0.82374763  0.16124440  0.82761836  1
  Cr  Cr48  1  0.82809591  0.49199050  0.49527408  1
  Cr  Cr49  1  0.66016962  0.32775492  0.66336400  1
  Fe  Fe50  1  0.82618082  0.49357963  0.82826230  1
  Fe  Fe51  1  0.82690237  0.82611191  0.49509248  1
  Fe  Fe52  1  0.66116247  0.65979071  0.66270439  1
  Cr  Cr53  1  0.82558798  0.82652220  0.82846269  1
" 