8871,Ni15Fe85_14,-242.416812853259, 201.51275323421,Ni15Fe85,"# generated using pymatgen
 data_Fe4Ni23
_symmetry_space_group_name_H-M   'P 1'
_cell_length_a   7.42968883
_cell_length_b   7.42968883
_cell_length_c   10.50716670
_cell_angle_alpha   90.00000000
_cell_angle_beta   90.00000000
_cell_angle_gamma   90.00000000
_symmetry_Int_Tables_number   1
_chemical_formula_structural   Fe4Ni23
_chemical_formula_sum   'Fe8 Ni46'
_cell_volume   579.99850264
_cell_formula_units_Z   2
loop_
 _symmetry_equiv_pos_site_id
 _symmetry_equiv_pos_as_xyz
  1  'x, y, z'
loop_
 _atom_site_type_symbol
 _atom_site_label
 _atom_site_symmetry_multiplicity
 _atom_site_fract_x
 _atom_site_fract_y
 _atom_site_fract_z
 _atom_site_occupancy
  Ni  Ni0  1  1.00229840  1.00242523  0.00299850  1
  Ni  Ni1  1  0.17018414  0.16911230  0.17001033  1
  Ni  Ni2  1  1.00221016  1.00183510  0.33573762  1
  Fe  Fe3  1  0.00293384  0.33544599  1.00212894  1
  Ni  Ni4  1  0.16920963  0.50177737  0.16922963  1
  Ni  Ni5  1  1.00189615  0.33634269  0.33552540  1
  Fe  Fe6  1  1.00207760  0.66915697  0.00321553  1
  Ni  Ni7  1  0.16893981  0.83654917  0.16833230  1
  Ni  Ni8  1  0.00349032  0.66939416  0.33592821  1
  Ni  Ni9  1  0.33507766  1.00183487  1.00206563  1
  Ni  Ni10  1  0.50146422  0.16898671  0.16787825  1
  Ni  Ni11  1  0.33569147  1.00170242  0.33578365  1
  Ni  Ni12  1  0.33602770  0.33685931  0.00252953  1
  Ni  Ni13  1  0.50273712  0.50207892  0.16921011  1
  Ni  Ni14  1  0.33628073  0.33662100  0.33593003  1
  Ni  Ni15  1  0.33613772  0.66883915  0.00292256  1
  Ni  Ni16  1  0.50302588  0.83646418  0.16982016  1
  Ni  Ni17  1  0.33479911  0.66912949  0.33531969  1
  Ni  Ni18  1  0.67020473  1.00216784  1.00231614  1
  Fe  Fe19  1  0.83545879  0.16928233  0.16920942  1
  Ni  Ni20  1  0.66957563  0.00327708  0.33569271  1
  Ni  Ni21  1  0.66966029  0.33675749  1.00193367  1
  Ni  Ni22  1  0.83562686  0.50334257  0.16898898  1
  Ni  Ni23  1  0.66931619  0.33555748  0.33584906  1
  Ni  Ni24  1  0.66858118  0.66886273  0.00331318  1
  Ni  Ni25  1  0.83555367  0.83560676  0.16920254  1
  Fe  Fe26  1  0.66960602  0.66893869  0.33577023  1
  Ni  Ni27  1  0.16970403  0.16898670  0.50197494  1
  Ni  Ni28  1  1.00209255  0.00319179  0.66873083  1
  Ni  Ni29  1  0.16935406  0.16918845  0.83535445  1
  Ni  Ni30  1  0.16955160  0.50219211  0.50240241  1
  Ni  Ni31  1  1.00209926  0.33511063  0.66888010  1
  Ni  Ni32  1  0.16954486  0.50129638  0.83571043  1
  Ni  Ni33  1  0.16852793  0.83636604  0.50313095  1
  Fe  Fe34  1  1.00224872  0.66875220  0.66843066  1
  Fe  Fe35  1  0.16862942  0.83527014  0.83586028  1
  Ni  Ni36  1  0.50218374  0.16942997  0.50393579  1
  Ni  Ni37  1  0.33503275  1.00188884  0.66989057  1
  Fe  Fe38  1  0.50312857  0.16989132  0.83589228  1
  Ni  Ni39  1  0.50250540  0.50178408  0.50224208  1
  Ni  Ni40  1  0.33545137  0.33695018  0.66911547  1
  Ni  Ni41  1  0.50244178  0.50385354  0.83610327  1
  Fe  Fe42  1  0.50206015  0.83626840  0.50289281  1
  Ni  Ni43  1  0.33616228  0.66864240  0.66942080  1
  Ni  Ni44  1  0.50344073  0.83554233  0.83582326  1
  Ni  Ni45  1  0.83567641  0.16868302  0.50209837  1
  Ni  Ni46  1  0.67040364  1.00240465  0.66978967  1
  Ni  Ni47  1  0.83719644  0.16846044  0.83614986  1
  Ni  Ni48  1  0.83547005  0.50277650  0.50295861  1
  Ni  Ni49  1  0.67014856  0.33644833  0.66976637  1
  Ni  Ni50  1  0.83557780  0.50338814  0.83539413  1
  Ni  Ni51  1  0.83589150  0.83611555  0.50264445  1
  Ni  Ni52  1  0.66848104  0.66882645  0.66856458  1
  Ni  Ni53  1  0.83469477  0.83570783  0.83576500  1
" 