8877,Ni15Fe13Cr71_5,-211.021051943553, 178.626937608356,Ni15Fe13Cr71,"# generated using pymatgen
 data_Cr39Fe7Ni8
_symmetry_space_group_name_H-M   'P 1'
_cell_length_a   7.56095389
_cell_length_b   7.56095389
_cell_length_c   10.69280353
_cell_angle_alpha   90.00000000
_cell_angle_beta   90.00000000
_cell_angle_gamma   90.00000000
_symmetry_Int_Tables_number   1
_chemical_formula_structural   Cr39Fe7Ni8
_chemical_formula_sum   'Cr39 Fe7 Ni8'
_cell_volume   611.28644516
_cell_formula_units_Z   1
loop_
 _symmetry_equiv_pos_site_id
 _symmetry_equiv_pos_as_xyz
  1  'x, y, z'
loop_
 _atom_site_type_symbol
 _atom_site_label
 _atom_site_symmetry_multiplicity
 _atom_site_fract_x
 _atom_site_fract_y
 _atom_site_fract_z
 _atom_site_occupancy
  Cr  Cr0  1  -0.00437483  0.99147759  0.99068544  1
  Cr  Cr1  1  0.16037468  0.15749449  0.15810637  1
  Cr  Cr2  1  -0.00402090  0.98945404  0.32749705  1
  Cr  Cr3  1  0.99268775  0.33027096  0.99320049  1
  Cr  Cr4  1  0.16142453  0.49838593  0.16286726  1
  Fe  Fe5  1  -0.00487800  0.32975191  0.32441638  1
  Cr  Cr6  1  0.99327769  0.66000418  -0.00564383  1
  Ni  Ni7  1  0.16472565  0.82492287  0.16018989  1
  Ni  Ni8  1  -0.00530433  0.66128003  0.32425087  1
  Ni  Ni9  1  0.32814884  0.98810298  -0.00479155  1
  Cr  Cr10  1  0.49517319  0.15657741  0.15517676  1
  Cr  Cr11  1  0.32767367  0.99176319  0.32645918  1
  Cr  Cr12  1  0.32574032  0.32711061  0.99125522  1
  Cr  Cr13  1  0.49088999  0.49640443  0.15803835  1
  Cr  Cr14  1  0.32822076  0.32662624  0.32725791  1
  Ni  Ni15  1  0.32713668  0.66456647  -0.00464659  1
  Fe  Fe16  1  0.49276102  0.82496651  0.15856175  1
  Ni  Ni17  1  0.32584998  0.66310323  0.32729010  1
  Ni  Ni18  1  0.65914372  0.98948332  -0.00533459  1
  Cr  Cr19  1  0.82667650  0.16055848  0.16242770  1
  Cr  Cr20  1  0.65761370  0.99056524  0.32711816  1
  Cr  Cr21  1  0.66227638  0.33027634  -0.00480172  1
  Ni  Ni22  1  0.82839754  0.49781902  0.16346533  1
  Cr  Cr23  1  0.65875257  0.32968783  0.32436546  1
  Cr  Cr24  1  0.66215957  0.65989006  0.99364476  1
  Cr  Cr25  1  0.83001689  0.82907545  0.15839965  1
  Cr  Cr26  1  0.65939283  0.66128914  0.32629873  1
  Cr  Cr27  1  0.15812978  0.16119098  0.49382115  1
  Cr  Cr28  1  -0.00549115  0.99286848  0.66397680  1
  Fe  Fe29  1  0.16173586  0.15982356  0.82917769  1
  Cr  Cr30  1  0.16049520  0.49634287  0.49173137  1
  Cr  Cr31  1  -0.00555473  0.32745059  0.66327028  1
  Cr  Cr32  1  0.16217825  0.49824393  0.82733883  1
  Cr  Cr33  1  0.15997060  0.82384903  0.49338578  1
  Cr  Cr34  1  0.99046678  0.66059453  0.66425758  1
  Cr  Cr35  1  0.16234291  0.82703081  0.82887362  1
  Cr  Cr36  1  0.49568467  0.16093752  0.49354215  1
  Cr  Cr37  1  0.32661525  -0.00571062  0.65826475  1
  Cr  Cr38  1  0.49485284  0.15804488  0.83124532  1
  Cr  Cr39  1  0.49174731  0.49705128  0.49764866  1
  Cr  Cr40  1  0.32653008  0.32589380  0.66268365  1
  Cr  Cr41  1  0.49301119  0.49709839  0.82613551  1
  Fe  Fe42  1  0.49220456  0.82453649  0.49377027  1
  Fe  Fe43  1  0.32621818  0.66279149  0.66036509  1
  Cr  Cr44  1  0.49315741  0.82699686  0.82787232  1
  Cr  Cr45  1  0.82780013  0.16028219  0.48956071  1
  Cr  Cr46  1  0.65993798  0.99043989  0.65799465  1
  Cr  Cr47  1  0.82473765  0.15787524  0.82877082  1
  Cr  Cr48  1  0.82853047  0.49428484  0.49130205  1
  Cr  Cr49  1  0.66104227  0.32873611  0.66113814  1
  Ni  Ni50  1  0.82633201  0.49525221  0.82644807  1
  Cr  Cr51  1  0.82756407  0.82600668  0.49607351  1
  Fe  Fe52  1  0.66034131  0.66044549  0.66195757  1
  Fe  Fe53  1  0.82414553  0.82539727  0.82830189  1
" 