6963,Ni15Fe85_4,-242.89308207019, 203.15551068735,Ni15Fe85,"# generated using pymatgen
 data_Fe4Ni23
_symmetry_space_group_name_H-M   'P 1'
_cell_length_a   7.43280691
_cell_length_b   7.43280691
_cell_length_c   10.51157634
_cell_angle_alpha   90.00000000
_cell_angle_beta   90.00000000
_cell_angle_gamma   90.00000000
_symmetry_Int_Tables_number   1
_chemical_formula_structural   Fe4Ni23
_chemical_formula_sum   'Fe8 Ni46'
_cell_volume   580.72904801
_cell_formula_units_Z   2
loop_
 _symmetry_equiv_pos_site_id
 _symmetry_equiv_pos_as_xyz
  1  'x, y, z'
loop_
 _atom_site_type_symbol
 _atom_site_label
 _atom_site_symmetry_multiplicity
 _atom_site_fract_x
 _atom_site_fract_y
 _atom_site_fract_z
 _atom_site_occupancy
  Ni  Ni0  1  1.00178160  0.00273569  0.00281723  1
  Ni  Ni1  1  0.16820950  0.16887267  0.16891228  1
  Ni  Ni2  1  1.00194558  0.00332484  0.33534276  1
  Ni  Ni3  1  0.00321593  0.33583166  0.00254928  1
  Ni  Ni4  1  0.16970524  0.50140913  0.16797789  1
  Ni  Ni5  1  0.00351954  0.33550240  0.33568719  1
  Ni  Ni6  1  1.00141492  0.66835274  0.00310943  1
  Ni  Ni7  1  0.16970684  0.83664502  0.16905239  1
  Fe  Fe8  1  1.00200309  0.66922280  0.33535104  1
  Ni  Ni9  1  0.33597902  0.00265200  0.00281825  1
  Fe  Fe10  1  0.50171597  0.16843393  0.16956421  1
  Ni  Ni11  1  0.33589186  0.00328130  0.33539776  1
  Ni  Ni12  1  0.33454439  0.33591919  0.00253432  1
  Ni  Ni13  1  0.50202772  0.50334619  0.16919100  1
  Ni  Ni14  1  0.33432597  0.33553982  0.33573517  1
  Ni  Ni15  1  0.33641965  0.66834331  0.00309691  1
  Ni  Ni16  1  0.50210582  0.83476373  0.16856484  1
  Fe  Fe17  1  0.33598393  0.66922719  0.33531096  1
  Ni  Ni18  1  0.66916209  1.00084360  0.00275224  1
  Ni  Ni19  1  0.83704946  0.16878417  0.16897688  1
  Ni  Ni20  1  0.66906973  1.00048294  0.33573822  1
  Fe  Fe21  1  0.66950801  0.33622584  1.00171475  1
  Ni  Ni22  1  0.83517838  0.50184786  0.16888708  1
  Fe  Fe23  1  0.66924588  0.33483983  0.33645451  1
  Ni  Ni24  1  0.66906527  0.66976859  1.00220303  1
  Ni  Ni25  1  0.83509986  0.83626719  0.16826151  1
  Ni  Ni26  1  0.66903053  0.66966518  0.33568784  1
  Ni  Ni27  1  0.16886094  0.16955944  0.50241394  1
  Ni  Ni28  1  1.00190035  0.00265417  0.66875498  1
  Ni  Ni29  1  0.16822466  0.16827692  0.83558430  1
  Ni  Ni30  1  0.16947542  0.50093311  0.50304966  1
  Ni  Ni31  1  0.00251340  0.33579093  0.66866926  1
  Fe  Fe32  1  0.16843261  0.50286542  0.83563399  1
  Fe  Fe33  1  0.16895985  0.83613669  0.50291250  1
  Ni  Ni34  1  1.00152666  0.66847200  0.66853867  1
  Ni  Ni35  1  0.16970766  0.83708668  0.83541948  1
  Ni  Ni36  1  0.50150921  0.16863255  0.50270257  1
  Ni  Ni37  1  0.33594142  0.00261354  0.66870356  1
  Fe  Fe38  1  0.50257060  0.16816277  0.83483022  1
  Ni  Ni39  1  0.50187069  0.50284995  0.50248658  1
  Ni  Ni40  1  0.33532900  0.33583068  0.66864121  1
  Ni  Ni41  1  0.50263029  0.50341022  0.83522258  1
  Ni  Ni42  1  0.50279223  0.83542236  0.50276189  1
  Ni  Ni43  1  0.33634123  0.66846656  0.66846743  1
  Ni  Ni44  1  0.50180402  0.83437091  0.83558421  1
  Ni  Ni45  1  0.83654035  0.16863079  0.50270399  1
  Ni  Ni46  1  0.66907406  1.00163576  0.66842592  1
  Ni  Ni47  1  0.83725514  0.16909950  0.83521911  1
  Ni  Ni48  1  0.83556808  0.50223905  0.50248960  1
  Ni  Ni49  1  0.66906637  0.33619012  0.66827786  1
  Ni  Ni50  1  0.83452811  0.50192094  0.83552690  1
  Ni  Ni51  1  0.83462452  0.83603558  0.50276372  1
  Ni  Ni52  1  0.66902853  0.66907822  0.66901868  1
  Ni  Ni53  1  0.83539973  0.83588722  0.83588908  1
" 