2071,Ni15Fe85_6,-242.911511896477, 203.317979150689,Ni15Fe85,"# generated using pymatgen
 data_Fe4Ni23
_symmetry_space_group_name_H-M   'P 1'
_cell_length_a   7.43538040
_cell_length_b   7.43538040
_cell_length_c   10.51521581
_cell_angle_alpha   90.00000000
_cell_angle_beta   90.00000000
_cell_angle_gamma   90.00000000
_symmetry_Int_Tables_number   1
_chemical_formula_structural   Fe4Ni23
_chemical_formula_sum   'Fe8 Ni46'
_cell_volume   581.33246266
_cell_formula_units_Z   2
loop_
 _symmetry_equiv_pos_site_id
 _symmetry_equiv_pos_as_xyz
  1  'x, y, z'
loop_
 _atom_site_type_symbol
 _atom_site_label
 _atom_site_symmetry_multiplicity
 _atom_site_fract_x
 _atom_site_fract_y
 _atom_site_fract_z
 _atom_site_occupancy
  Ni  Ni0  1  1.00203362  0.00290893  1.00203021  1
  Ni  Ni1  1  0.16864793  0.16937878  0.16893665  1
  Ni  Ni2  1  1.00193894  0.00232431  0.33449250  1
  Ni  Ni3  1  1.00208142  0.33572395  1.00208168  1
  Ni  Ni4  1  0.16893893  0.50106363  0.16937116  1
  Ni  Ni5  1  1.00203942  0.33593975  0.33506937  1
  Fe  Fe6  1  1.00186422  0.66952622  1.00186330  1
  Fe  Fe7  1  0.16885476  0.83593313  0.16870933  1
  Ni  Ni8  1  1.00193675  0.66812184  0.33461022  1
  Ni  Ni9  1  0.33602679  1.00175963  1.00203062  1
  Ni  Ni10  1  0.50142595  0.16789406  0.16978959  1
  Ni  Ni11  1  0.33579779  1.00198292  0.33473896  1
  Fe  Fe12  1  0.33487728  0.33393548  0.00218700  1
  Ni  Ni13  1  0.50142516  0.50283884  0.16941669  1
  Ni  Ni14  1  0.33540711  0.33599137  0.33450787  1
  Fe  Fe15  1  0.33522895  0.66955389  1.00186391  1
  Ni  Ni16  1  0.50285543  0.83565210  0.16903887  1
  Ni  Ni17  1  0.33584874  0.66841434  0.33484313  1
  Ni  Ni18  1  0.66832811  1.00171406  1.00208157  1
  Ni  Ni19  1  0.83631389  0.16794933  0.16922415  1
  Ni  Ni20  1  0.66865231  1.00188232  0.33473404  1
  Fe  Fe21  1  0.66932539  0.33393556  0.00213368  1
  Ni  Ni22  1  0.83602396  0.50249525  0.16965980  1
  Ni  Ni23  1  0.66894465  0.33599456  0.33450446  1
  Fe  Fe24  1  0.66929476  0.66987555  0.00218701  1
  Ni  Ni25  1  0.83453927  0.83594706  0.16927508  1
  Ni  Ni26  1  0.66860087  0.66851462  0.33484325  1
  Ni  Ni27  1  0.16812942  0.16952117  0.50217556  1
  Ni  Ni28  1  1.00203480  0.00222862  0.66986472  1
  Ni  Ni29  1  0.16864845  0.16874944  0.83527690  1
  Ni  Ni30  1  0.16926477  0.50093984  0.50217535  1
  Ni  Ni31  1  1.00208272  0.33593956  0.66923748  1
  Ni  Ni32  1  0.16893928  0.50169371  0.83484163  1
  Fe  Fe33  1  0.16829612  0.83496295  0.50262519  1
  Ni  Ni34  1  1.00203263  0.66821785  0.66974700  1
  Ni  Ni35  1  0.16899204  0.83594648  0.83493901  1
  Fe  Fe36  1  0.50262858  0.16929924  0.50212916  1
  Ni  Ni37  1  0.33570097  1.00188623  0.66961919  1
  Ni  Ni38  1  0.50164835  0.16811717  0.83471194  1
  Ni  Ni39  1  0.50142513  0.50351548  0.50188715  1
  Ni  Ni40  1  0.33536246  0.33599250  0.66980036  1
  Ni  Ni41  1  0.50164889  0.50261476  0.83508479  1
  Ni  Ni42  1  0.50285135  0.83478313  0.50217551  1
  Ni  Ni43  1  0.33575325  0.66850999  0.66951363  1
  Ni  Ni44  1  0.50222669  0.83565251  0.83517408  1
  Ni  Ni45  1  0.83684570  0.16809489  0.50188716  1
  Ni  Ni46  1  0.66865329  1.00183768  0.66957432  1
  Ni  Ni47  1  0.83609100  0.16817187  0.83527687  1
  Ni  Ni48  1  0.83569844  0.50237493  0.50188724  1
  Ni  Ni49  1  0.66894581  0.33599574  0.66974606  1
  Ni  Ni50  1  0.83579975  0.50227175  0.83484120  1
  Ni  Ni51  1  0.83427004  0.83591850  0.50217540  1
  Ni  Ni52  1  0.66860053  0.66855792  0.66946347  1
  Ni  Ni53  1  0.83516985  0.83594733  0.83493824  1
" 