8896,Ni15Fe85_7,-242.467777136691, 201.646082531767,Ni15Fe85,"# generated using pymatgen
 data_Fe4Ni23
_symmetry_space_group_name_H-M   'P 1'
_cell_length_a   7.43221052
_cell_length_b   7.43221052
_cell_length_c   10.51073291
_cell_angle_alpha   90.00000000
_cell_angle_beta   90.00000000
_cell_angle_gamma   90.00000000
_symmetry_Int_Tables_number   1
_chemical_formula_structural   Fe4Ni23
_chemical_formula_sum   'Fe8 Ni46'
_cell_volume   580.58926994
_cell_formula_units_Z   2
loop_
 _symmetry_equiv_pos_site_id
 _symmetry_equiv_pos_as_xyz
  1  'x, y, z'
loop_
 _atom_site_type_symbol
 _atom_site_label
 _atom_site_symmetry_multiplicity
 _atom_site_fract_x
 _atom_site_fract_y
 _atom_site_fract_z
 _atom_site_occupancy
  Ni  Ni0  1  0.00291616  0.00280461  0.00261939  1
  Ni  Ni1  1  0.16955020  0.16880676  0.16986439  1
  Ni  Ni2  1  0.00289364  0.00292489  0.33498134  1
  Ni  Ni3  1  1.00067564  0.33626178  0.00271857  1
  Ni  Ni4  1  0.16939641  0.50219360  0.16898170  1
  Ni  Ni5  1  1.00124581  0.33601131  0.33520164  1
  Ni  Ni6  1  0.00424008  0.66805227  0.00266328  1
  Ni  Ni7  1  0.16709414  0.83584941  0.16934709  1
  Ni  Ni8  1  0.00337185  0.66816923  0.33540614  1
  Ni  Ni9  1  0.33589993  1.00063868  1.00230107  1
  Ni  Ni10  1  0.50225718  0.17014535  0.16938958  1
  Ni  Ni11  1  0.33593093  1.00085348  0.33558631  1
  Fe  Fe12  1  0.33479051  0.33468701  1.00168954  1
  Ni  Ni13  1  0.50230474  0.50040356  0.16887277  1
  Fe  Fe14  1  0.33577736  0.33592153  0.33633175  1
  Ni  Ni15  1  0.33526735  0.66960160  1.00180383  1
  Fe  Fe16  1  0.50184053  0.83567207  0.16905880  1
  Ni  Ni17  1  0.33553118  0.66981049  0.33592792  1
  Ni  Ni18  1  0.66809793  0.00420179  0.00275440  1
  Ni  Ni19  1  0.83515444  0.16833629  0.16898063  1
  Ni  Ni20  1  0.66820028  0.00316518  0.33499282  1
  Ni  Ni21  1  0.66986597  0.33557560  1.00224597  1
  Ni  Ni22  1  0.83543196  0.50288075  0.16990636  1
  Ni  Ni23  1  0.66991454  0.33560145  0.33575667  1
  Fe  Fe24  1  0.67021287  0.66948250  1.00197236  1
  Ni  Ni25  1  0.83669224  0.83600784  0.16933578  1
  Ni  Ni26  1  0.66787159  0.66836164  0.33472136  1
  Fe  Fe27  1  0.17008515  0.16797182  0.50282144  1
  Ni  Ni28  1  1.00229797  0.00279288  0.66956981  1
  Ni  Ni29  1  0.16982870  0.16882621  0.83509895  1
  Ni  Ni30  1  0.16897712  0.50221790  0.50250050  1
  Ni  Ni31  1  1.00185212  0.33598573  0.66928448  1
  Ni  Ni32  1  0.16856937  0.50189414  0.83561427  1
  Ni  Ni33  1  0.16739753  0.83510234  0.50284531  1
  Ni  Ni34  1  0.00305368  0.66836119  0.66905125  1
  Ni  Ni35  1  0.16771832  0.83609282  0.83486450  1
  Ni  Ni36  1  0.50291040  0.16958934  0.50252486  1
  Ni  Ni37  1  0.33624698  1.00144023  0.66916542  1
  Ni  Ni38  1  0.50190157  0.16928163  0.83521430  1
  Ni  Ni39  1  0.50181748  0.50114394  0.50289852  1
  Ni  Ni40  1  0.33575479  0.33606486  0.66944962  1
  Ni  Ni41  1  0.50270265  0.50115786  0.83519701  1
  Ni  Ni42  1  0.50347976  0.83626745  0.50211213  1
  Ni  Ni43  1  0.33576807  0.66939236  0.66916471  1
  Ni  Ni44  1  0.50323648  0.83654478  0.83526067  1
  Fe  Fe45  1  0.83543295  0.16841378  0.50167794  1
  Ni  Ni46  1  0.66861706  0.00304811  0.66913534  1
  Fe  Fe47  1  0.83580213  0.16903536  0.83632073  1
  Fe  Fe48  1  0.83481977  0.50406019  0.50238461  1
  Ni  Ni49  1  0.66941647  0.33536992  0.66907197  1
  Ni  Ni50  1  0.83583880  0.50345162  0.83485594  1
  Ni  Ni51  1  0.83616682  0.83622266  0.50204295  1
  Ni  Ni52  1  0.66809161  0.66881008  0.66949464  1
  Ni  Ni53  1  0.83634826  0.83559756  0.83552410  1
" 