659,Ni15Fe13Cr71_0,-210.778666054621, 177.694822353331,Ni15Fe13Cr71,"# generated using pymatgen
 data_Cr39Fe7Ni8
_symmetry_space_group_name_H-M   'P 1'
_cell_length_a   7.56070799
_cell_length_b   7.56070799
_cell_length_c   10.69245578
_cell_angle_alpha   90.00000000
_cell_angle_beta   90.00000000
_cell_angle_gamma   90.00000000
_symmetry_Int_Tables_number   1
_chemical_formula_structural   Cr39Fe7Ni8
_chemical_formula_sum   'Cr39 Fe7 Ni8'
_cell_volume   611.22680584
_cell_formula_units_Z   1
loop_
 _symmetry_equiv_pos_site_id
 _symmetry_equiv_pos_as_xyz
  1  'x, y, z'
loop_
 _atom_site_type_symbol
 _atom_site_label
 _atom_site_symmetry_multiplicity
 _atom_site_fract_x
 _atom_site_fract_y
 _atom_site_fract_z
 _atom_site_occupancy
  Cr  Cr0  1  -0.00137927  0.99306840  0.99374026  1
  Cr  Cr1  1  0.16069063  0.16417102  0.16121119  1
  Cr  Cr2  1  -0.00421484  -0.00439781  0.32872448  1
  Fe  Fe3  1  -0.00295778  0.32659854  0.99281923  1
  Cr  Cr4  1  0.16169009  0.49397943  0.16234852  1
  Ni  Ni5  1  -0.00388054  0.32535108  0.32927271  1
  Cr  Cr6  1  -0.00462145  0.66366512  0.99326566  1
  Fe  Fe7  1  0.16216069  0.82663665  0.16130983  1
  Cr  Cr8  1  -0.00616021  0.66190918  0.32647982  1
  Cr  Cr9  1  0.32428394  0.99243757  0.99282970  1
  Cr  Cr10  1  0.49280153  0.15911236  0.16104338  1
  Cr  Cr11  1  0.32478526  0.99268474  0.32541813  1
  Cr  Cr12  1  0.32698414  0.32648492  0.99183677  1
  Fe  Fe13  1  0.49078414  0.49279942  0.16239000  1
  Ni  Ni14  1  0.32442851  0.32866213  0.32776962  1
  Cr  Cr15  1  0.32738415  0.66220700  -0.00557205  1
  Ni  Ni16  1  0.48937217  0.82482065  0.16096115  1
  Ni  Ni17  1  0.32747557  0.65960553  0.32399778  1
  Cr  Cr18  1  0.65809482  0.99106399  -0.00610985  1
  Cr  Cr19  1  0.82804771  0.16069144  0.15879699  1
  Cr  Cr20  1  0.66093737  0.99311073  0.32869989  1
  Cr  Cr21  1  0.65934335  0.33050728  -0.00551743  1
  Cr  Cr22  1  0.83259417  0.49207539  0.15874923  1
  Cr  Cr23  1  0.66133711  0.32925181  0.32802349  1
  Cr  Cr24  1  0.65834125  0.65926492  -0.00270754  1
  Cr  Cr25  1  0.82654981  0.82905899  0.16109333  1
  Cr  Cr26  1  0.65814858  0.65939025  0.32343321  1
  Fe  Fe27  1  0.16044721  0.16164047  0.49221417  1
  Cr  Cr28  1  -0.00298142  -0.00532641  0.65850569  1
  Ni  Ni29  1  0.16007266  0.15858233  0.82783466  1
  Cr  Cr30  1  0.16089962  0.49442292  0.49342274  1
  Cr  Cr31  1  -0.00577013  0.32554971  0.66026165  1
  Cr  Cr32  1  0.15978796  0.49495442  0.82547321  1
  Cr  Cr33  1  0.16209161  0.82246412  0.49261967  1
  Ni  Ni34  1  -0.00402731  0.66333953  0.66210801  1
  Ni  Ni35  1  0.16184741  0.82669156  0.82599624  1
  Cr  Cr36  1  0.49319581  0.15912640  0.49331837  1
  Cr  Cr37  1  0.32430015  0.99355533  0.66390379  1
  Cr  Cr38  1  0.49452122  0.15796096  0.82684764  1
  Cr  Cr39  1  0.48796254  0.49501250  0.49141492  1
  Cr  Cr40  1  0.32590753  0.32458311  0.66010863  1
  Cr  Cr41  1  0.49137956  0.49439560  0.82583889  1
  Cr  Cr42  1  0.49231379  0.82732485  0.49644198  1
  Fe  Fe43  1  0.32417040  0.66145522  0.66147041  1
  Fe  Fe44  1  0.49158980  0.82629186  0.82666185  1
  Ni  Ni45  1  0.82913949  0.16128663  0.49294471  1
  Fe  Fe46  1  0.66220014  -0.00467564  0.65986972  1
  Cr  Cr47  1  0.82714852  0.15955582  0.83011945  1
  Cr  Cr48  1  0.83146947  0.49534960  0.49427174  1
  Cr  Cr49  1  0.66101911  0.32783178  0.65842182  1
  Cr  Cr50  1  0.82989462  0.49456810  0.82891981  1
  Cr  Cr51  1  0.82692522  0.82873159  0.49603320  1
  Cr  Cr52  1  0.65993062  0.65884099  0.66137362  1
  Cr  Cr53  1  0.82707349  0.82780590  0.82482588  1
" 