7946,Ni15Cr85_18,-234.042468816569, 162.340425562188,Ni15Cr85,"# generated using pymatgen
 data_Cr4Ni23
_symmetry_space_group_name_H-M   'P 1'
_cell_length_a   7.47178032
_cell_length_b   7.47178032
_cell_length_c   10.56669307
_cell_angle_alpha   90.00000000
_cell_angle_beta   90.00000000
_cell_angle_gamma   90.00000000
_symmetry_Int_Tables_number   1
_chemical_formula_structural   Cr4Ni23
_chemical_formula_sum   'Cr8 Ni46'
_cell_volume   589.91207016
_cell_formula_units_Z   2
loop_
 _symmetry_equiv_pos_site_id
 _symmetry_equiv_pos_as_xyz
  1  'x, y, z'
loop_
 _atom_site_type_symbol
 _atom_site_label
 _atom_site_symmetry_multiplicity
 _atom_site_fract_x
 _atom_site_fract_y
 _atom_site_fract_z
 _atom_site_occupancy
  Cr  Cr0  1  0.99755084  0.99879001  0.00071498  1
  Cr  Cr1  1  0.16696795  0.16719961  0.16740351  1
  Ni  Ni2  1  0.99926259  0.00058747  0.33454926  1
  Ni  Ni3  1  0.99823738  0.33676528  0.99955835  1
  Ni  Ni4  1  0.16695102  0.50065230  0.16463805  1
  Ni  Ni5  1  0.99799918  0.33096363  0.33290163  1
  Ni  Ni6  1  0.99914423  0.66375106  0.00007964  1
  Ni  Ni7  1  0.16803892  0.83120195  0.16649468  1
  Cr  Cr8  1  0.99865714  0.66723982  0.33176317  1
  Ni  Ni9  1  0.33736921  0.99871326  0.00067366  1
  Ni  Ni10  1  0.50112550  0.16610734  0.16586401  1
  Ni  Ni11  1  0.33357797  0.99891873  0.33378055  1
  Ni  Ni12  1  0.33460346  0.33473091  0.99920071  1
  Ni  Ni13  1  0.49945525  0.50006645  0.16670755  1
  Ni  Ni14  1  0.33484044  0.33263340  0.33325940  1
  Ni  Ni15  1  0.33351831  0.66560534  0.00028485  1
  Ni  Ni16  1  0.49945564  0.83287599  0.16610676  1
  Ni  Ni17  1  0.33560299  0.66749778  0.33235446  1
  Ni  Ni18  1  0.66435423  0.99962015  0.99901825  1
  Ni  Ni19  1  0.83097102  0.16719478  0.16719471  1
  Ni  Ni20  1  0.66620922  -0.00017564  0.33301700  1
  Ni  Ni21  1  0.66620885  0.33291630  0.99944018  1
  Ni  Ni22  1  0.83264352  0.49898157  0.16538034  1
  Ni  Ni23  1  0.66620929  0.33299046  0.33325975  1
  Ni  Ni24  1  0.66638761  0.66651346  -0.00023993  1
  Ni  Ni25  1  0.83155638  0.83287343  0.16611015  1
  Ni  Ni26  1  0.66453991  0.66623498  0.33311873  1
  Ni  Ni27  1  0.16526371  0.16514130  0.49884033  1
  Ni  Ni28  1  0.99656140  0.99958179  0.66403202  1
  Cr  Cr29  1  0.16635086  0.16961036  0.83281273  1
  Cr  Cr30  1  0.16742228  0.49884068  0.50121635  1
  Ni  Ni31  1  0.99823791  0.33302036  0.66658957  1
  Ni  Ni32  1  0.16635002  0.49968428  0.83315712  1
  Ni  Ni33  1  0.16634805  0.83506641  0.49978358  1
  Ni  Ni34  1  -0.00009578  0.66644773  0.66697354  1
  Cr  Cr35  1  0.16635360  0.82975758  0.83278574  1
  Ni  Ni36  1  0.50036294  0.16698883  0.49914739  1
  Cr  Cr37  1  0.33446479  -0.00016402  0.66483590  1
  Ni  Ni38  1  0.50242308  0.16715663  0.83403927  1
  Ni  Ni39  1  0.50022032  0.49902140  0.49890768  1
  Ni  Ni40  1  0.33419473  0.33469407  0.66658991  1
  Ni  Ni41  1  0.49857732  0.49878094  0.83343392  1
  Ni  Ni42  1  0.49945840  0.83303946  0.49800073  1
  Ni  Ni43  1  0.33234781  0.66459562  0.66641102  1
  Ni  Ni44  1  0.50151899  0.83311258  0.83494326  1
  Ni  Ni45  1  0.83342286  0.16590354  0.49999021  1
  Ni  Ni46  1  0.66847052  0.00142715  0.66701469  1
  Ni  Ni47  1  0.83027660  0.16715745  0.83186516  1
  Ni  Ni48  1  0.83139575  0.49793664  0.49974901  1
  Ni  Ni49  1  0.66661713  0.33135060  0.66634978  1
  Ni  Ni50  1  0.83412213  0.49878047  0.83391949  1
  Ni  Ni51  1  0.83324302  0.83520877  0.50017088  1
  Cr  Cr52  1  0.66637138  0.66619478  0.66593530  1
  Ni  Ni53  1  0.83117996  0.83311265  0.83276887  1
" 