639,Ni15Fe13Cr71_7,-210.986864740575, 178.530756258334,Ni15Fe13Cr71,"# generated using pymatgen
 data_Cr39Fe7Ni8
_symmetry_space_group_name_H-M   'P 1'
_cell_length_a   7.55895123
_cell_length_b   7.55895123
_cell_length_c   10.68997135
_cell_angle_alpha   90.00000000
_cell_angle_beta   90.00000000
_cell_angle_gamma   90.00000000
_symmetry_Int_Tables_number   1
_chemical_formula_structural   Cr39Fe7Ni8
_chemical_formula_sum   'Cr39 Fe7 Ni8'
_cell_volume   610.80084393
_cell_formula_units_Z   1
loop_
 _symmetry_equiv_pos_site_id
 _symmetry_equiv_pos_as_xyz
  1  'x, y, z'
loop_
 _atom_site_type_symbol
 _atom_site_label
 _atom_site_symmetry_multiplicity
 _atom_site_fract_x
 _atom_site_fract_y
 _atom_site_fract_z
 _atom_site_occupancy
  Cr  Cr0  1  0.99338598  -0.00563714  0.99310903  1
  Cr  Cr1  1  0.16267617  0.16209079  0.16000169  1
  Cr  Cr2  1  0.99295352  -0.00602995  0.32819897  1
  Cr  Cr3  1  -0.00281521  0.32769188  0.99227981  1
  Fe  Fe4  1  0.16315145  0.49312073  0.15970154  1
  Cr  Cr5  1  -0.00436911  0.32768881  0.32860519  1
  Cr  Cr6  1  -0.00515554  0.65970601  -0.00493902  1
  Cr  Cr7  1  0.16040284  0.82577522  0.16158762  1
  Cr  Cr8  1  -0.00490332  0.66010581  0.32576428  1
  Cr  Cr9  1  0.32858516  -0.00368952  0.99235803  1
  Fe  Fe10  1  0.49440556  0.16184890  0.16018340  1
  Cr  Cr11  1  0.32822514  -0.00471672  0.32807520  1
  Ni  Ni12  1  0.32682724  0.32762669  -0.00533589  1
  Ni  Ni13  1  0.49184084  0.49167462  0.16012744  1
  Cr  Cr14  1  0.32788918  0.32871237  0.32661711  1
  Cr  Cr15  1  0.32698755  0.65790707  0.99368008  1
  Cr  Cr16  1  0.49441018  0.82833743  0.16056583  1
  Cr  Cr17  1  0.32710925  0.65777173  0.32777224  1
  Fe  Fe18  1  0.65939029  -0.00566320  -0.00564057  1
  Cr  Cr19  1  0.82449105  0.15943025  0.16086726  1
  Ni  Ni20  1  0.66051376  -0.00545356  0.32561613  1
  Cr  Cr21  1  0.65798330  0.32609371  -0.00439218  1
  Cr  Cr22  1  0.82705146  0.49370912  0.16045535  1
  Cr  Cr23  1  0.65824787  0.32657393  0.32717458  1
  Cr  Cr24  1  0.65993169  0.66170650  0.99227322  1
  Cr  Cr25  1  0.82694714  0.82862242  0.16153611  1
  Cr  Cr26  1  0.65955942  0.66044536  0.32893730  1
  Fe  Fe27  1  0.16112576  0.16190595  0.49603351  1
  Fe  Fe28  1  -0.00304932  -0.00401183  0.66110233  1
  Ni  Ni29  1  0.16137850  0.16151734  0.82493720  1
  Ni  Ni30  1  0.16189099  0.49221013  0.49379467  1
  Fe  Fe31  1  -0.00260295  0.32648378  0.66107243  1
  Ni  Ni32  1  0.16118610  0.49099486  0.82853752  1
  Cr  Cr33  1  0.16137377  0.82836837  0.49407825  1
  Cr  Cr34  1  -0.00546814  0.65919774  0.66093909  1
  Cr  Cr35  1  0.16232707  0.82852928  0.82610192  1
  Cr  Cr36  1  0.49300919  0.16084227  0.49219492  1
  Ni  Ni37  1  0.32433347  -0.00464752  0.66156868  1
  Cr  Cr38  1  0.49153616  0.15923113  0.82965164  1
  Ni  Ni39  1  0.49159205  0.49342510  0.49346513  1
  Cr  Cr40  1  0.32415640  0.32617959  0.65963357  1
  Cr  Cr41  1  0.49214749  0.49420331  0.82752913  1
  Cr  Cr42  1  0.49277071  0.82710847  0.49467388  1
  Cr  Cr43  1  0.32782915  0.66085815  0.66031075  1
  Fe  Fe44  1  0.49256748  0.82859497  0.82675159  1
  Cr  Cr45  1  0.82848154  0.16060257  0.49418664  1
  Cr  Cr46  1  0.65972345  0.99302548  0.66220399  1
  Cr  Cr47  1  0.82896160  0.16069756  0.82671469  1
  Cr  Cr48  1  0.82721664  0.49272200  0.49515202  1
  Cr  Cr49  1  0.66138563  0.32861930  0.65897926  1
  Cr  Cr50  1  0.82876220  0.49314832  0.82615403  1
  Cr  Cr51  1  0.82761841  0.82843642  0.49207941  1
  Cr  Cr52  1  0.65939759  0.66011882  0.66055107  1
  Cr  Cr53  1  0.82635342  0.82791640  0.82815017  1
" 