6918,Ni15Cr85_13,-233.921810814083, 160.981413736478,Ni15Cr85,"# generated using pymatgen
 data_Cr4Ni23
_symmetry_space_group_name_H-M   'P 1'
_cell_length_a   7.47424700
_cell_length_b   7.47424700
_cell_length_c   10.57018148
_cell_angle_alpha   90.00000000
_cell_angle_beta   90.00000000
_cell_angle_gamma   90.00000000
_symmetry_Int_Tables_number   1
_chemical_formula_structural   Cr4Ni23
_chemical_formula_sum   'Cr8 Ni46'
_cell_volume   590.49651035
_cell_formula_units_Z   2
loop_
 _symmetry_equiv_pos_site_id
 _symmetry_equiv_pos_as_xyz
  1  'x, y, z'
loop_
 _atom_site_type_symbol
 _atom_site_label
 _atom_site_symmetry_multiplicity
 _atom_site_fract_x
 _atom_site_fract_y
 _atom_site_fract_z
 _atom_site_occupancy
  Ni  Ni0  1  0.99757333  0.00129716  -0.00009955  1
  Ni  Ni1  1  0.16551908  0.16708662  0.16706057  1
  Ni  Ni2  1  0.99813887  0.99801656  0.33264284  1
  Ni  Ni3  1  0.99757753  0.33275270  0.99913690  1
  Ni  Ni4  1  0.16642279  0.49915325  0.16618590  1
  Cr  Cr5  1  0.99894952  0.33341883  0.33219168  1
  Ni  Ni6  1  0.99923894  0.66450516  -0.00048112  1
  Cr  Cr7  1  0.16493324  0.83205696  0.16684254  1
  Ni  Ni8  1  0.99904508  0.66738850  0.33404096  1
  Cr  Cr9  1  0.33364557  0.99862868  0.99803575  1
  Ni  Ni10  1  0.50116342  0.16650198  0.16813868  1
  Ni  Ni11  1  0.33359581  0.99877152  0.33215035  1
  Cr  Cr12  1  0.33257554  0.33435402  0.00016609  1
  Ni  Ni13  1  0.50025902  0.49973837  0.16726343  1
  Ni  Ni14  1  0.33435392  0.33423326  0.33089541  1
  Ni  Ni15  1  0.33356536  0.66558204  0.99843989  1
  Ni  Ni16  1  0.50209619  0.83231433  0.16684747  1
  Ni  Ni17  1  0.33376779  0.66555097  0.33375238  1
  Ni  Ni18  1  0.66759507  0.00004182  0.00042000  1
  Ni  Ni19  1  0.83187264  0.16524857  0.16510785  1
  Ni  Ni20  1  0.66681971  0.99860284  0.33195124  1
  Ni  Ni21  1  0.66866912  0.33292865  0.99945425  1
  Ni  Ni22  1  0.83187403  0.50009002  0.16499568  1
  Ni  Ni23  1  0.66498301  0.33332504  0.33201431  1
  Ni  Ni24  1  0.66575163  0.66558492  0.00059641  1
  Ni  Ni25  1  0.83128869  0.83321674  0.16645485  1
  Ni  Ni26  1  0.66574250  0.66662799  0.33278715  1
  Cr  Cr27  1  0.16673340  0.16614138  0.49910287  1
  Cr  Cr28  1  -0.00044089  -0.00020838  0.66577624  1
  Ni  Ni29  1  0.16572493  0.16692937  0.83215467  1
  Ni  Ni30  1  0.16658280  0.50260997  0.50042021  1
  Ni  Ni31  1  0.99874032  0.33519580  0.66747115  1
  Ni  Ni32  1  0.16555106  0.50015306  0.83195103  1
  Ni  Ni33  1  0.16640900  0.83006194  0.49881980  1
  Ni  Ni34  1  0.00072247  0.66330108  0.66499567  1
  Ni  Ni35  1  0.16828763  0.83147169  0.83264577  1
  Cr  Cr36  1  0.50084284  0.16655164  0.49951810  1
  Ni  Ni37  1  0.33459697  0.99789945  0.66813941  1
  Ni  Ni38  1  0.50075576  0.16602680  0.83089870  1
  Ni  Ni39  1  0.49965814  0.50134872  0.49927788  1
  Ni  Ni40  1  0.33275561  0.33443566  0.66772371  1
  Ni  Ni41  1  0.49985052  0.49997606  0.83201497  1
  Ni  Ni42  1  0.49965779  0.83115052  0.49975888  1
  Ni  Ni43  1  0.33292969  0.66622063  0.66636184  1
  Ni  Ni44  1  0.49801615  0.83255148  0.83194762  1
  Ni  Ni45  1  0.83122884  0.16588497  0.49969278  1
  Ni  Ni46  1  0.66413909  -0.00011795  0.66618573  1
  Ni  Ni47  1  0.83207385  0.16876177  0.83375461  1
  Ni  Ni48  1  0.83231406  0.50093985  0.50077293  1
  Ni  Ni49  1  0.66705894  0.33352921  0.66708624  1
  Ni  Ni50  1  0.83315421  0.49741319  0.83278729  1
  Ni  Ni51  1  0.83248854  0.83173029  0.49805626  1
  Ni  Ni52  1  0.66490339  0.66514407  0.66517239  1
  Cr  Cr53  1  0.83224039  0.83187311  0.83451424  1
" 