8498,Ni15Cr85_1,-233.951058168552, 159.50885915965,Ni15Cr85,"# generated using pymatgen
 data_Cr4Ni23
_symmetry_space_group_name_H-M   'P 1'
_cell_length_a   7.47289322
_cell_length_b   7.47289322
_cell_length_c   10.56826695
_cell_angle_alpha   90.00000000
_cell_angle_beta   90.00000000
_cell_angle_gamma   90.00000000
_symmetry_Int_Tables_number   1
_chemical_formula_structural   Cr4Ni23
_chemical_formula_sum   'Cr8 Ni46'
_cell_volume   590.17570653
_cell_formula_units_Z   2
loop_
 _symmetry_equiv_pos_site_id
 _symmetry_equiv_pos_as_xyz
  1  'x, y, z'
loop_
 _atom_site_type_symbol
 _atom_site_label
 _atom_site_symmetry_multiplicity
 _atom_site_fract_x
 _atom_site_fract_y
 _atom_site_fract_z
 _atom_site_occupancy
  Ni  Ni0  1  0.99591980  0.99777904  0.99909798  1
  Cr  Cr1  1  0.16737187  0.16658337  0.16685410  1
  Ni  Ni2  1  0.99775202  0.00018279  0.33466070  1
  Cr  Cr3  1  0.00060553  0.33383975  0.00048491  1
  Ni  Ni4  1  0.16691929  0.50025449  0.16614417  1
  Ni  Ni5  1  0.99871741  0.33383603  0.33332137  1
  Ni  Ni6  1  0.99938010  0.66721008  0.00024773  1
  Cr  Cr7  1  0.16622485  0.83197092  0.16595699  1
  Ni  Ni8  1  0.99890791  0.66480768  0.33350865  1
  Ni  Ni9  1  0.33645798  0.99937102  0.99954262  1
  Ni  Ni10  1  0.50053002  0.16578800  0.16651870  1
  Ni  Ni11  1  0.33466573  -0.00019440  0.33466092  1
  Ni  Ni12  1  0.33397454  0.33499055  0.99909739  1
  Ni  Ni13  1  0.49913567  0.50024581  0.16651930  1
  Ni  Ni14  1  0.33332465  0.33383821  0.33332144  1
  Ni  Ni15  1  0.33415064  0.66446709  0.99928477  1
  Ni  Ni16  1  0.50167526  0.83279331  0.16562711  1
  Ni  Ni17  1  0.33351150  0.66518329  0.33350896  1
  Ni  Ni18  1  0.66644780  0.99760553  0.99928407  1
  Ni  Ni19  1  0.83119130  0.16481829  0.16748526  1
  Ni  Ni20  1  0.66640909  -0.00000403  0.33217233  1
  Cr  Cr21  1  0.66420633  0.33155569  0.00026047  1
  Ni  Ni22  1  0.83277290  0.50140272  0.16808044  1
  Ni  Ni23  1  0.66678479  0.33268516  0.33283597  1
  Ni  Ni24  1  0.66529627  0.66968546  0.00043518  1
  Ni  Ni25  1  0.83120142  0.83260434  0.16518032  1
  Ni  Ni26  1  0.66640761  0.66614584  0.33242950  1
  Ni  Ni27  1  0.16710313  0.16494003  0.49878351  1
  Ni  Ni28  1  0.99749574  0.99800464  0.66506923  1
  Cr  Cr29  1  0.16804785  0.16590751  0.83345316  1
  Ni  Ni30  1  0.16691492  0.50050173  0.49897292  1
  Cr  Cr31  1  -0.00038946  0.33294156  0.66499254  1
  Ni  Ni32  1  0.16999592  0.50115467  0.83371020  1
  Ni  Ni33  1  0.16595230  0.83338572  0.49993307  1
  Ni  Ni34  1  -0.00019533  0.66787998  0.66506967  1
  Cr  Cr35  1  0.16576066  0.83174657  0.83320930  1
  Ni  Ni36  1  0.49903331  0.16646643  0.49993283  1
  Ni  Ni37  1  0.33488127  0.99958833  0.66462440  1
  Ni  Ni38  1  0.50031780  0.16582560  0.83237449  1
  Ni  Ni39  1  0.49959953  0.49935181  0.50012226  1
  Ni  Ni40  1  0.33550154  0.33409453  0.66640819  1
  Ni  Ni41  1  0.49695438  0.49999247  0.83218511  1
  Ni  Ni42  1  0.49903551  0.83300843  0.49967597  1
  Ni  Ni43  1  0.33372664  0.66514481  0.66603373  1
  Ni  Ni44  1  0.50145884  0.83300866  0.83352351  1
  Ni  Ni45  1  0.83268915  0.16550352  0.49897295  1
  Ni  Ni46  1  0.66644824  -0.00021984  0.66737000  1
  Ni  Ni47  1  0.83028812  0.16174121  0.83236835  1
  Ni  Ni48  1  0.83231274  0.50050282  0.49856672  1
  Ni  Ni49  1  0.66371216  0.33178689  0.66574274  1
  Cr  Cr50  1  0.83170535  0.50231151  0.83165606  1
  Ni  Ni51  1  0.83383911  0.83281948  0.50012286  1
  Ni  Ni52  1  0.66529508  0.66725894  0.66596041  1
  Ni  Ni53  1  0.83145266  0.83478542  0.83352395  1
" 