8985,Ni15Fe13Cr71_8,-210.944138726001, 176.227177925544,Ni15Fe13Cr71,"# generated using pymatgen
 data_Cr39Fe7Ni8
_symmetry_space_group_name_H-M   'P 1'
_cell_length_a   7.55983511
_cell_length_b   7.55983511
_cell_length_c   10.69122135
_cell_angle_alpha   90.00000000
_cell_angle_beta   90.00000000
_cell_angle_gamma   90.00000000
_symmetry_Int_Tables_number   1
_chemical_formula_structural   Cr39Fe7Ni8
_chemical_formula_sum   'Cr39 Fe7 Ni8'
_cell_volume   611.01513428
_cell_formula_units_Z   1
loop_
 _symmetry_equiv_pos_site_id
 _symmetry_equiv_pos_as_xyz
  1  'x, y, z'
loop_
 _atom_site_type_symbol
 _atom_site_label
 _atom_site_symmetry_multiplicity
 _atom_site_fract_x
 _atom_site_fract_y
 _atom_site_fract_z
 _atom_site_occupancy
  Ni  Ni0  1  0.99303818  0.99139731  0.99360880  1
  Ni  Ni1  1  0.15835513  0.15928060  0.15891161  1
  Cr  Cr2  1  0.99291114  0.99249892  0.32809387  1
  Cr  Cr3  1  -0.00579478  0.32815402  -0.00432316  1
  Cr  Cr4  1  0.15931440  0.49761017  0.15999210  1
  Cr  Cr5  1  -0.00592340  0.32754942  0.32709672  1
  Fe  Fe6  1  0.99121185  0.66225645  0.99320057  1
  Cr  Cr7  1  0.15976671  0.82806195  0.15932779  1
  Fe  Fe8  1  0.99360488  0.65936076  0.32701369  1
  Cr  Cr9  1  0.32696253  -0.00595457  0.99296382  1
  Cr  Cr10  1  0.49393069  0.15939658  0.16020126  1
  Cr  Cr11  1  0.32578151  -0.00610545  0.32667760  1
  Cr  Cr12  1  0.32809618  0.32868988  -0.00346584  1
  Ni  Ni13  1  0.49598675  0.49768981  0.16302374  1
  Cr  Cr14  1  0.32640788  0.32958702  0.32400873  1
  Cr  Cr15  1  0.32834660  0.65935138  0.99327237  1
  Cr  Cr16  1  0.49326961  0.82512016  0.16226025  1
  Ni  Ni17  1  0.32798241  0.65923905  0.32561513  1
  Cr  Cr18  1  0.66197652  0.99143226  0.99088339  1
  Cr  Cr19  1  0.82899196  0.15986922  0.15835084  1
  Cr  Cr20  1  0.66315224  0.99158503  0.32861853  1
  Cr  Cr21  1  0.65940577  0.32930899  -0.00291064  1
  Ni  Ni22  1  0.82592666  0.49760165  0.16089185  1
  Cr  Cr23  1  0.66131966  0.32841447  0.32305406  1
  Cr  Cr24  1  0.66102881  0.66073182  0.99262298  1
  Cr  Cr25  1  0.82835406  0.82571340  0.16020521  1
  Fe  Fe26  1  0.66141946  0.65941843  0.32568329  1
  Cr  Cr27  1  0.16068914  0.16016637  0.49671183  1
  Cr  Cr28  1  0.99329392  0.99165353  0.65858282  1
  Cr  Cr29  1  0.15971316  0.15982705  0.82585698  1
  Cr  Cr30  1  0.16014981  0.49532673  0.49591803  1
  Ni  Ni31  1  0.99194652  0.32800091  0.66027043  1
  Cr  Cr32  1  0.15860594  0.49399061  0.82593073  1
  Cr  Cr33  1  0.16278945  0.82578281  0.49142425  1
  Cr  Cr34  1  0.99207371  0.66190163  0.66120398  1
  Cr  Cr35  1  0.15937121  0.82807510  0.83045440  1
  Cr  Cr36  1  0.49399763  0.15965539  0.49525325  1
  Ni  Ni37  1  0.32968438  0.99087635  0.66306340  1
  Fe  Fe38  1  0.49347854  0.15867972  0.82674199  1
  Cr  Cr39  1  0.49524413  0.49635514  0.49158972  1
  Cr  Cr40  1  0.32644526  0.32700855  0.66100210  1
  Cr  Cr41  1  0.49488248  0.49408533  0.82622223  1
  Cr  Cr42  1  0.49416976  0.82534942  0.49293822  1
  Cr  Cr43  1  0.32813002  0.66278291  0.66235121  1
  Fe  Fe44  1  0.49502405  0.82791919  0.82640727  1
  Cr  Cr45  1  0.82663483  0.16191961  0.49517231  1
  Cr  Cr46  1  0.66079325  0.99030776  0.66207841  1
  Cr  Cr47  1  0.82797802  0.16052278  0.82821103  1
  Cr  Cr48  1  0.82597121  0.49509145  0.49481099  1
  Cr  Cr49  1  0.66077482  0.32723504  0.66181824  1
  Cr  Cr50  1  0.82777197  0.49455717  0.82699821  1
  Fe  Fe51  1  0.82654154  0.82464325  0.49384163  1
  Fe  Fe52  1  0.66133884  0.66238340  0.66189406  1
  Ni  Ni53  1  0.82629186  0.82725289  0.82698255  1
" 