173,Ni15Fe85_8,-242.450883592903, 201.675097676705,Ni15Fe85,"# generated using pymatgen
 data_Fe4Ni23
_symmetry_space_group_name_H-M   'P 1'
_cell_length_a   7.43157381
_cell_length_b   7.43157381
_cell_length_c   10.50983248
_cell_angle_alpha   90.00000000
_cell_angle_beta   90.00000000
_cell_angle_gamma   90.00000000
_symmetry_Int_Tables_number   1
_chemical_formula_structural   Fe4Ni23
_chemical_formula_sum   'Fe8 Ni46'
_cell_volume   580.44006887
_cell_formula_units_Z   2
loop_
 _symmetry_equiv_pos_site_id
 _symmetry_equiv_pos_as_xyz
  1  'x, y, z'
loop_
 _atom_site_type_symbol
 _atom_site_label
 _atom_site_symmetry_multiplicity
 _atom_site_fract_x
 _atom_site_fract_y
 _atom_site_fract_z
 _atom_site_occupancy
  Fe  Fe0  1  1.00210637  1.00217188  0.00247661  1
  Ni  Ni1  1  0.16883689  0.16924886  0.16888149  1
  Ni  Ni2  1  1.00173982  0.00277872  0.33504982  1
  Ni  Ni3  1  1.00235083  0.33639167  0.00268691  1
  Ni  Ni4  1  0.16941905  0.50228967  0.16884388  1
  Ni  Ni5  1  0.00290348  0.33579399  0.33555757  1
  Ni  Ni6  1  1.00207510  0.66827399  0.00290963  1
  Ni  Ni7  1  0.16915422  0.83561971  0.16864713  1
  Ni  Ni8  1  1.00171694  0.66858724  0.33560902  1
  Ni  Ni9  1  0.33676638  0.00243074  0.00290681  1
  Ni  Ni10  1  0.50214090  0.16978437  0.16824318  1
  Ni  Ni11  1  0.33644629  0.00279615  0.33560870  1
  Ni  Ni12  1  0.33525865  0.33527454  0.00268672  1
  Ni  Ni13  1  0.50182427  0.50202456  0.16904201  1
  Ni  Ni14  1  0.33493466  0.33544298  0.33523974  1
  Ni  Ni15  1  0.33558502  0.66943720  0.00292245  1
  Ni  Ni16  1  0.50155855  0.83535370  0.16884338  1
  Ni  Ni17  1  0.33610763  0.66891985  0.33529489  1
  Ni  Ni18  1  0.66838354  1.00215783  0.00253415  1
  Ni  Ni19  1  0.83618078  0.16951763  0.16916140  1
  Ni  Ni20  1  0.66897629  1.00160959  0.33573899  1
  Ni  Ni21  1  0.66955030  0.33522129  0.00319074  1
  Ni  Ni22  1  0.83591474  0.50170785  0.16824364  1
  Fe  Fe23  1  0.66904845  0.33572489  0.33584569  1
  Ni  Ni24  1  0.66949040  0.66977873  0.00253382  1
  Ni  Ni25  1  0.83644940  0.83593554  0.16888294  1
  Ni  Ni26  1  0.66933288  0.67009900  0.33542162  1
  Fe  Fe27  1  0.16911398  0.16860175  0.50191264  1
  Ni  Ni28  1  1.00189506  0.00241386  0.66918543  1
  Fe  Fe29  1  0.16931991  0.16828656  0.83591429  1
  Fe  Fe30  1  0.16899525  0.50283161  0.50191229  1
  Ni  Ni31  1  1.00216326  0.33572276  0.66891102  1
  Fe  Fe32  1  0.16900797  0.50343764  0.83625593  1
  Ni  Ni33  1  0.16904216  0.83573119  0.50278415  1
  Ni  Ni34  1  1.00193933  0.66904123  0.66864439  1
  Ni  Ni35  1  0.16916128  0.83561576  0.83572331  1
  Ni  Ni36  1  0.50257760  0.16997495  0.50347129  1
  Ni  Ni37  1  0.33622399  1.00234239  0.66864381  1
  Fe  Fe38  1  0.50291603  0.16790397  0.83572070  1
  Ni  Ni39  1  0.50224620  0.50179269  0.50259237  1
  Ni  Ni40  1  0.33568588  0.33551633  0.66922813  1
  Ni  Ni41  1  0.50167611  0.50231066  0.83553197  1
  Ni  Ni42  1  0.50108003  0.83539498  0.50317888  1
  Ni  Ni43  1  0.33595216  0.66928360  0.66893969  1
  Ni  Ni44  1  0.50136140  0.83440295  0.83513718  1
  Ni  Ni45  1  0.83586757  0.16964025  0.50258819  1
  Ni  Ni46  1  0.66905410  1.00211989  0.66889116  1
  Ni  Ni47  1  0.83632945  0.16923281  0.83540976  1
  Ni  Ni48  1  0.83552089  0.50147369  0.50347154  1
  Ni  Ni49  1  0.66931105  0.33546064  0.66863335  1
  Fe  Fe50  1  0.83525398  0.50347280  0.83572073  1
  Ni  Ni51  1  0.83703802  0.83604700  0.50317892  1
  Ni  Ni52  1  0.66925666  0.66957773  0.66920776  1
  Ni  Ni53  1  0.83664036  0.83687964  0.83508974  1
" 