6487,Ni15Fe85_1,-242.461968271835, 201.543686780047,Ni15Fe85,"# generated using pymatgen
 data_Fe4Ni23
_symmetry_space_group_name_H-M   'P 1'
_cell_length_a   7.43176066
_cell_length_b   7.43176066
_cell_length_c   10.51009672
_cell_angle_alpha   90.00000000
_cell_angle_beta   90.00000000
_cell_angle_gamma   90.00000000
_symmetry_Int_Tables_number   1
_chemical_formula_structural   Fe4Ni23
_chemical_formula_sum   'Fe8 Ni46'
_cell_volume   580.48385189
_cell_formula_units_Z   2
loop_
 _symmetry_equiv_pos_site_id
 _symmetry_equiv_pos_as_xyz
  1  'x, y, z'
loop_
 _atom_site_type_symbol
 _atom_site_label
 _atom_site_symmetry_multiplicity
 _atom_site_fract_x
 _atom_site_fract_y
 _atom_site_fract_z
 _atom_site_occupancy
  Ni  Ni0  1  0.00240560  0.00242643  0.00262185  1
  Fe  Fe1  1  0.16975735  0.16899744  0.16926108  1
  Ni  Ni2  1  0.00246171  1.00236370  0.33569776  1
  Fe  Fe3  1  1.00140022  0.33735209  0.00271503  1
  Ni  Ni4  1  0.16845576  0.50242017  0.16925492  1
  Ni  Ni5  1  1.00237232  0.33452196  0.33525951  1
  Ni  Ni6  1  0.00289485  0.67098494  1.00208229  1
  Ni  Ni7  1  0.16879189  0.83540119  0.16825284  1
  Fe  Fe8  1  0.00238122  0.66888889  0.33491168  1
  Fe  Fe9  1  0.33763205  1.00167132  0.00247178  1
  Ni  Ni10  1  0.50221110  0.16875293  0.16944833  1
  Ni  Ni11  1  0.33433685  1.00171908  0.33543034  1
  Ni  Ni12  1  0.33566824  0.33663063  0.00266592  1
  Ni  Ni13  1  0.50215371  0.50158119  0.16886531  1
  Ni  Ni14  1  0.33540912  0.33663134  0.33620928  1
  Ni  Ni15  1  0.33522823  0.66716983  1.00222261  1
  Ni  Ni16  1  0.50285749  0.83664331  0.16887454  1
  Ni  Ni17  1  0.33583158  0.66874767  0.33540964  1
  Ni  Ni18  1  0.67196441  0.00277019  1.00215366  1
  Fe  Fe19  1  0.83448506  0.16897724  0.16940211  1
  Ni  Ni20  1  0.67019492  1.00212230  0.33635637  1
  Ni  Ni21  1  0.66772115  0.33559927  1.00204382  1
  Ni  Ni22  1  0.83622841  0.50298868  0.16835807  1
  Ni  Ni23  1  0.66926522  0.33642361  0.33590605  1
  Ni  Ni24  1  0.66904170  0.66878479  0.00244915  1
  Ni  Ni25  1  0.83595908  0.83550090  0.16933325  1
  Ni  Ni26  1  0.66819296  0.66860940  0.33501190  1
  Ni  Ni27  1  0.16941523  0.16891878  0.50153760  1
  Ni  Ni28  1  1.00224060  0.00280260  0.66898440  1
  Ni  Ni29  1  0.16913350  0.17010784  0.83694330  1
  Ni  Ni30  1  0.16846046  0.50246667  0.50173763  1
  Fe  Fe31  1  1.00228938  0.33482675  0.66829183  1
  Ni  Ni32  1  0.16853985  0.50119012  0.83573664  1
  Ni  Ni33  1  0.16884212  0.83553824  0.50276848  1
  Fe  Fe34  1  1.00197674  0.66929080  0.66953545  1
  Fe  Fe35  1  0.16917052  0.83575511  0.83586548  1
  Ni  Ni36  1  0.50195051  0.16832711  0.50280598  1
  Ni  Ni37  1  0.33396014  0.00238523  0.66984408  1
  Ni  Ni38  1  0.50200631  0.16852323  0.83509334  1
  Ni  Ni39  1  0.50238280  0.50233215  0.50190995  1
  Ni  Ni40  1  0.33546522  0.33655674  0.66834728  1
  Ni  Ni41  1  0.50188256  0.50217424  0.83636359  1
  Ni  Ni42  1  0.50221367  0.83644055  0.50204411  1
  Ni  Ni43  1  0.33591291  0.66804277  0.66938600  1
  Ni  Ni44  1  0.50346095  0.83624667  0.83641499  1
  Ni  Ni45  1  0.83573586  0.16904720  0.50192084  1
  Ni  Ni46  1  0.67079281  1.00234797  0.66879142  1
  Ni  Ni47  1  0.83628974  0.16901811  0.83621448  1
  Ni  Ni48  1  0.83610748  0.50268456  0.50211469  1
  Ni  Ni49  1  0.66884215  0.33631672  0.66928536  1
  Ni  Ni50  1  0.83635521  0.50275354  0.83625898  1
  Ni  Ni51  1  0.83587252  0.83520602  0.50188120  1
  Ni  Ni52  1  0.66833467  0.66844374  0.66962560  1
  Ni  Ni53  1  0.83526332  0.83577545  0.83582767  1
" 