6737,Ni15Fe85_0,-242.75884843221, 202.422886154034,Ni15Fe85,"# generated using pymatgen
 data_Fe4Ni23
_symmetry_space_group_name_H-M   'P 1'
_cell_length_a   7.43265740
_cell_length_b   7.43265740
_cell_length_c   10.51136490
_cell_angle_alpha   90.00000000
_cell_angle_beta   90.00000000
_cell_angle_gamma   90.00000000
_symmetry_Int_Tables_number   1
_chemical_formula_structural   Fe4Ni23
_chemical_formula_sum   'Fe8 Ni46'
_cell_volume   580.69400567
_cell_formula_units_Z   2
loop_
 _symmetry_equiv_pos_site_id
 _symmetry_equiv_pos_as_xyz
  1  'x, y, z'
loop_
 _atom_site_type_symbol
 _atom_site_label
 _atom_site_symmetry_multiplicity
 _atom_site_fract_x
 _atom_site_fract_y
 _atom_site_fract_z
 _atom_site_occupancy
  Ni  Ni0  1  1.00162580  1.00192779  0.00251742  1
  Ni  Ni1  1  0.16857444  0.16939462  0.16910760  1
  Ni  Ni2  1  1.00136437  1.00200565  0.33513302  1
  Ni  Ni3  1  1.00227243  0.33559515  1.00192517  1
  Ni  Ni4  1  0.16920552  0.50196162  0.16923374  1
  Ni  Ni5  1  0.00288867  0.33505601  0.33593780  1
  Ni  Ni6  1  0.00341332  0.66941823  1.00197289  1
  Ni  Ni7  1  0.16887979  0.83558535  0.16894487  1
  Ni  Ni8  1  0.00321781  0.66988552  0.33631144  1
  Ni  Ni9  1  0.33574384  1.00194663  1.00190589  1
  Ni  Ni10  1  0.50236550  0.16907080  0.16942139  1
  Fe  Fe11  1  0.33536677  1.00203332  0.33486504  1
  Ni  Ni12  1  0.33599202  0.33646545  1.00216471  1
  Ni  Ni13  1  0.50196648  0.50251854  0.16866512  1
  Ni  Ni14  1  0.33560800  0.33696614  0.33539495  1
  Ni  Ni15  1  0.33484376  0.66852409  1.00221233  1
  Ni  Ni16  1  0.50261944  0.83534932  0.16922238  1
  Ni  Ni17  1  0.33533815  0.66803087  0.33574183  1
  Ni  Ni18  1  0.66956822  0.00307949  1.00185934  1
  Ni  Ni19  1  0.83599959  0.16874368  0.16862508  1
  Ni  Ni20  1  0.67029870  1.00227654  0.33600595  1
  Ni  Ni21  1  0.66867453  0.33468345  1.00208847  1
  Ni  Ni22  1  0.83577061  0.50221165  0.16959279  1
  Ni  Ni23  1  0.66844112  0.33510838  0.33596765  1
  Fe  Fe24  1  0.66906171  0.66902925  1.00219530  1
  Ni  Ni25  1  0.83544449  0.83598484  0.16927635  1
  Ni  Ni26  1  0.66838659  0.66955804  0.33545669  1
  Ni  Ni27  1  0.16774460  0.16960135  0.50212112  1
  Ni  Ni28  1  1.00128543  1.00209736  0.66930406  1
  Ni  Ni29  1  0.16872877  0.16993339  0.83570312  1
  Ni  Ni30  1  0.17027844  0.50177246  0.50207514  1
  Fe  Fe31  1  1.00211632  0.33527850  0.66924470  1
  Ni  Ni32  1  0.16943033  0.50130370  0.83563842  1
  Ni  Ni33  1  0.16894133  0.83556727  0.50267404  1
  Fe  Fe34  1  1.00172469  0.66900980  0.66903047  1
  Fe  Fe35  1  0.16892043  0.83558848  0.83617799  1
  Fe  Fe36  1  0.50231802  0.16905654  0.50237727  1
  Fe  Fe37  1  0.33668850  1.00231104  0.66949022  1
  Ni  Ni38  1  0.50213571  0.16880129  0.83498692  1
  Ni  Ni39  1  0.50147314  0.50327376  0.50246032  1
  Ni  Ni40  1  0.33605977  0.33719490  0.66937915  1
  Ni  Ni41  1  0.50173980  0.50275132  0.83581598  1
  Ni  Ni42  1  0.50304607  0.83429987  0.50221845  1
  Ni  Ni43  1  0.33583860  0.66769698  0.66899843  1
  Ni  Ni44  1  0.50327419  0.83538648  0.83548957  1
  Ni  Ni45  1  0.83645936  0.16803501  0.50242042  1
  Ni  Ni46  1  0.67077963  0.00231795  0.66907284  1
  Ni  Ni47  1  0.83608290  0.16840568  0.83589767  1
  Fe  Fe48  1  0.83560287  0.50284270  0.50175978  1
  Ni  Ni49  1  0.66801382  0.33534811  0.66887260  1
  Ni  Ni50  1  0.83576104  0.50243936  0.83499172  1
  Ni  Ni51  1  0.83495897  0.83683310  0.50211782  1
  Ni  Ni52  1  0.66795568  0.66927701  0.66931026  1
  Ni  Ni53  1  0.83463639  0.83609265  0.83555274  1
" 