2598,Ni15Fe13Cr71_18,-210.810054697504, 174.999146968916,Ni15Fe13Cr71,"# generated using pymatgen
 data_Cr39Fe7Ni8
_symmetry_space_group_name_H-M   'P 1'
_cell_length_a   7.56627634
_cell_length_b   7.56627634
_cell_length_c   10.70033061
_cell_angle_alpha   90.00000000
_cell_angle_beta   90.00000000
_cell_angle_gamma   90.00000000
_symmetry_Int_Tables_number   1
_chemical_formula_structural   Cr39Fe7Ni8
_chemical_formula_sum   'Cr39 Fe7 Ni8'
_cell_volume   612.57827911
_cell_formula_units_Z   1
loop_
 _symmetry_equiv_pos_site_id
 _symmetry_equiv_pos_as_xyz
  1  'x, y, z'
loop_
 _atom_site_type_symbol
 _atom_site_label
 _atom_site_symmetry_multiplicity
 _atom_site_fract_x
 _atom_site_fract_y
 _atom_site_fract_z
 _atom_site_occupancy
  Ni  Ni0  1  -0.00159703  0.99278334  0.99099217  1
  Cr  Cr1  1  0.16047275  0.15923931  0.15740173  1
  Cr  Cr2  1  0.99279556  0.99163383  0.32666632  1
  Cr  Cr3  1  -0.00420644  0.32293091  0.99249602  1
  Cr  Cr4  1  0.15729747  0.49328349  0.16355312  1
  Fe  Fe5  1  0.99183023  0.32665601  0.32697910  1
  Cr  Cr6  1  -0.00569349  0.66388763  -0.00631101  1
  Cr  Cr7  1  0.15904871  0.82712454  0.15928986  1
  Ni  Ni8  1  0.99186373  0.66416656  0.32895231  1
  Fe  Fe9  1  0.32316997  0.99310223  0.99152140  1
  Cr  Cr10  1  0.49190325  0.15940344  0.16052682  1
  Cr  Cr11  1  0.32398024  0.99225124  0.32849357  1
  Fe  Fe12  1  0.32572681  0.32512903  0.99126562  1
  Cr  Cr13  1  0.49316267  0.49233249  0.15974083  1
  Cr  Cr14  1  0.32592375  0.32647211  0.32647200  1
  Cr  Cr15  1  0.32571671  0.65845768  0.99266313  1
  Cr  Cr16  1  0.49253719  0.82853787  0.15867184  1
  Cr  Cr17  1  0.32344629  0.66163214  0.32766824  1
  Cr  Cr18  1  0.66586685  0.99265475  -0.00280091  1
  Cr  Cr19  1  0.82815407  0.16062904  0.16104689  1
  Cr  Cr20  1  0.66271443  0.99291338  0.32616800  1
  Cr  Cr21  1  0.65908168  0.32752716  0.99044624  1
  Cr  Cr22  1  0.82914313  0.49472511  0.16319438  1
  Ni  Ni23  1  0.66165972  0.32686068  0.32738104  1
  Cr  Cr24  1  0.66001093  0.66018439  0.99314019  1
  Ni  Ni25  1  0.83117800  0.82699145  0.16004080  1
  Cr  Cr26  1  0.66144318  0.66312773  0.32521419  1
  Cr  Cr27  1  0.15982838  0.15857731  0.49469562  1
  Fe  Fe28  1  -0.00311977  0.99061180  0.66069774  1
  Ni  Ni29  1  0.16159816  0.15465750  0.82826076  1
  Cr  Cr30  1  0.15626442  0.49480507  0.48977956  1
  Cr  Cr31  1  -0.00415296  0.32310513  0.66145475  1
  Cr  Cr32  1  0.15840374  0.49491093  0.82783145  1
  Fe  Fe33  1  0.15564167  0.82668164  0.49537368  1
  Fe  Fe34  1  -0.00584019  0.66320873  0.65880433  1
  Ni  Ni35  1  0.15945560  0.83179420  0.82385106  1
  Cr  Cr36  1  0.49321739  0.15931473  0.49264430  1
  Fe  Fe37  1  0.32361576  -0.00629302  0.66112650  1
  Cr  Cr38  1  0.49134906  0.15720988  0.82732736  1
  Cr  Cr39  1  0.49444856  0.49319503  0.49291324  1
  Cr  Cr40  1  0.32509840  0.32715477  0.66293087  1
  Ni  Ni41  1  0.48993502  0.49315929  0.82764036  1
  Cr  Cr42  1  0.49262845  0.82832332  0.49415405  1
  Cr  Cr43  1  0.32360150  0.66104480  0.65927215  1
  Cr  Cr44  1  0.49095805  0.82793822  0.82790964  1
  Cr  Cr45  1  0.82741821  0.16079569  0.49249905  1
  Cr  Cr46  1  0.66389876  0.99267401  0.65720021  1
  Cr  Cr47  1  0.82947000  0.15775373  0.82620794  1
  Cr  Cr48  1  0.82869132  0.49502630  0.49252934  1
  Cr  Cr49  1  0.65902978  0.32699326  0.66174049  1
  Cr  Cr50  1  0.82726554  0.49495664  0.82490576  1
  Ni  Ni51  1  0.83177611  0.82552593  0.49418819  1
  Cr  Cr52  1  0.65920438  0.66079975  0.66223545  1
  Cr  Cr53  1  0.82958996  0.82734351  0.82685791  1
" 