3557,Ni15Cr85_10,-233.918100470247, 160.884282351967,Ni15Cr85,"# generated using pymatgen
 data_Cr4Ni23
_symmetry_space_group_name_H-M   'P 1'
_cell_length_a   7.47227330
_cell_length_b   7.47227330
_cell_length_c   10.56739025
_cell_angle_alpha   90.00000000
_cell_angle_beta   90.00000000
_cell_angle_gamma   90.00000000
_symmetry_Int_Tables_number   1
_chemical_formula_structural   Cr4Ni23
_chemical_formula_sum   'Cr8 Ni46'
_cell_volume   590.02884285
_cell_formula_units_Z   2
loop_
 _symmetry_equiv_pos_site_id
 _symmetry_equiv_pos_as_xyz
  1  'x, y, z'
loop_
 _atom_site_type_symbol
 _atom_site_label
 _atom_site_symmetry_multiplicity
 _atom_site_fract_x
 _atom_site_fract_y
 _atom_site_fract_z
 _atom_site_occupancy
  Ni  Ni0  1  -0.00005986  0.99754492  0.99936254  1
  Cr  Cr1  1  0.16592679  0.16670808  0.16605116  1
  Ni  Ni2  1  0.99914389  0.00050169  0.33394500  1
  Ni  Ni3  1  0.00134987  0.33466831  -0.00024073  1
  Ni  Ni4  1  0.16631653  0.49954027  0.16596788  1
  Ni  Ni5  1  0.99880785  0.33213149  0.33360883  1
  Ni  Ni6  1  0.99836118  0.66673865  0.99899844  1
  Ni  Ni7  1  0.16648337  0.83292650  0.16602871  1
  Cr  Cr8  1  0.00030129  0.66631778  0.33276518  1
  Ni  Ni9  1  0.33278539  0.00117298  0.99939165  1
  Ni  Ni10  1  0.50055914  0.16529312  0.16642505  1
  Ni  Ni11  1  0.33397035  0.99859480  0.33358217  1
  Ni  Ni12  1  0.33223494  0.33189744  0.99800225  1
  Ni  Ni13  1  0.49984245  0.50017914  0.16784543  1
  Ni  Ni14  1  0.33413935  0.33387146  0.33377667  1
  Cr  Cr15  1  0.33177286  0.66571054  0.00064829  1
  Ni  Ni16  1  0.50086683  0.83347796  0.16718390  1
  Ni  Ni17  1  0.33452114  0.66648484  0.33292273  1
  Ni  Ni18  1  0.66622490  0.99818387  0.00124296  1
  Ni  Ni19  1  0.83224052  0.16545991  0.16741343  1
  Ni  Ni20  1  0.66583629  0.00011947  0.33275485  1
  Cr  Cr21  1  0.66545014  0.33341490  0.00061738  1
  Ni  Ni22  1  0.83279307  0.49984677  0.16580049  1
  Ni  Ni23  1  0.66600324  0.33268218  0.33294900  1
  Ni  Ni24  1  0.66899532  0.66728913  0.00015873  1
  Ni  Ni25  1  0.83160065  0.83364401  0.16460824  1
  Ni  Ni26  1  0.66409620  0.66614924  0.33281546  1
  Ni  Ni27  1  0.16535374  0.16705457  0.49927789  1
  Ni  Ni28  1  0.99859878  0.99853216  0.66564419  1
  Ni  Ni29  1  0.16755245  0.16747583  0.83387567  1
  Ni  Ni30  1  0.16654227  0.49783069  0.49976877  1
  Ni  Ni31  1  0.00001137  0.33406660  0.66558339  1
  Ni  Ni32  1  0.16495198  0.49760070  0.83321395  1
  Ni  Ni33  1  0.16568320  0.83406574  0.49891027  1
  Ni  Ni34  1  0.99774364  0.66635220  0.66719781  1
  Ni  Ni35  1  0.16234157  0.83387527  0.83401168  1
  Ni  Ni36  1  0.50021828  0.16688610  0.49931226  1
  Cr  Cr37  1  0.33218474  0.00170473  0.66595488  1
  Ni  Ni38  1  0.49725620  0.16803683  0.83321444  1
  Ni  Ni39  1  0.50021882  0.49918916  0.49908351  1
  Ni  Ni40  1  0.33337976  0.33304351  0.66717201  1
  Ni  Ni41  1  0.50002692  0.49720801  0.83202147  1
  Ni  Ni42  1  0.50124638  0.83287570  0.49769467  1
  Cr  Cr43  1  0.33179260  0.66443436  0.66514626  1
  Cr  Cr44  1  0.50246213  0.83363331  0.83383078  1
  Ni  Ni45  1  0.83337948  0.16602890  0.49934882  1
  Ni  Ni46  1  0.66816676  -0.00010417  0.66495259  1
  Cr  Cr47  1  0.83397335  0.16527847  0.83218842  1
  Ni  Ni48  1  0.83219018  0.49885757  0.50090061  1
  Ni  Ni49  1  0.66555987  0.33389795  0.66561840  1
  Ni  Ni50  1  0.83397303  0.50241806  0.83225033  1
  Ni  Ni51  1  0.83202127  0.83406467  0.50129795  1
  Ni  Ni52  1  0.66919049  0.66515651  0.66597620  1
  Ni  Ni53  1  0.83453477  0.83110481  0.83304476  1
" 