1712,Ni15Cr85_16,-233.96796589779, 160.533673783405,Ni15Cr85,"# generated using pymatgen
 data_Cr4Ni23
_symmetry_space_group_name_H-M   'P 1'
_cell_length_a   7.47263792
_cell_length_b   7.47263792
_cell_length_c   10.56790589
_cell_angle_alpha   90.00000000
_cell_angle_beta   90.00000000
_cell_angle_gamma   90.00000000
_symmetry_Int_Tables_number   1
_chemical_formula_structural   Cr4Ni23
_chemical_formula_sum   'Cr8 Ni46'
_cell_volume   590.11522022
_cell_formula_units_Z   2
loop_
 _symmetry_equiv_pos_site_id
 _symmetry_equiv_pos_as_xyz
  1  'x, y, z'
loop_
 _atom_site_type_symbol
 _atom_site_label
 _atom_site_symmetry_multiplicity
 _atom_site_fract_x
 _atom_site_fract_y
 _atom_site_fract_z
 _atom_site_occupancy
  Ni  Ni0  1  0.99939746  0.99861179  -0.00024566  1
  Cr  Cr1  1  0.16407090  0.16600984  0.16518038  1
  Ni  Ni2  1  0.99728171  0.99903071  0.33308004  1
  Ni  Ni3  1  -0.00000112  0.33271400  0.99802401  1
  Cr  Cr4  1  0.16658168  0.50099582  0.16652977  1
  Ni  Ni5  1  0.99788952  0.33271496  0.33444368  1
  Ni  Ni6  1  0.99903515  0.66755105  0.99950903  1
  Ni  Ni7  1  0.16340898  0.83168884  0.16567307  1
  Ni  Ni8  1  0.00072388  0.66713212  0.33332563  1
  Ni  Ni9  1  0.33175818  0.99879149  0.99693662  1
  Cr  Cr10  1  0.50121278  0.16769288  0.16652687  1
  Cr  Cr11  1  0.33168517  0.99877198  0.33576375  1
  Ni  Ni12  1  0.33227876  0.33365319  0.99772841  1
  Ni  Ni13  1  0.49965238  0.49977435  0.16654134  1
  Ni  Ni14  1  0.33417647  0.33555798  0.33492255  1
  Ni  Ni15  1  0.33305831  0.66643282  0.99863976  1
  Cr  Cr16  1  0.49981006  0.83158153  0.16431569  1
  Ni  Ni17  1  0.33116041  0.66410574  0.33437863  1
  Ni  Ni18  1  0.66772312  0.99783053  0.99856796  1
  Ni  Ni19  1  0.83358055  0.16518041  0.16765517  1
  Ni  Ni20  1  0.66983865  0.00204696  0.33426670  1
  Cr  Cr21  1  0.66688116  0.33425584  0.99927784  1
  Ni  Ni22  1  0.83297673  0.49976940  0.16629225  1
  Ni  Ni23  1  0.66681280  0.33211675  0.33347574  1
  Ni  Ni24  1  0.66678404  0.66703583  0.99911143  1
  Ni  Ni25  1  0.83530040  0.83392822  0.16542731  1
  Cr  Cr26  1  0.66708938  0.66516476  0.33293526  1
  Ni  Ni27  1  0.16487102  0.16648286  0.49921261  1
  Ni  Ni28  1  0.99960131  0.99948120  0.66604326  1
  Ni  Ni29  1  0.16573985  0.16585917  0.83449051  1
  Ni  Ni30  1  0.16580636  0.50048913  0.49802954  1
  Ni  Ni31  1  0.99752297  0.33295764  0.66641044  1
  Ni  Ni32  1  0.16555851  0.49999577  0.83430715  1
  Ni  Ni33  1  0.16598198  0.83190527  0.49968124  1
  Ni  Ni34  1  0.99923517  0.66643891  0.66604377  1
  Ni  Ni35  1  0.16685261  0.83302268  0.83352396  1
  Ni  Ni36  1  0.50129575  0.16611619  0.49896408  1
  Ni  Ni37  1  0.33308699  0.99777053  0.66643821  1
  Ni  Ni38  1  0.49931342  0.16437889  0.83337688  1
  Ni  Ni39  1  0.49906335  0.49955943  0.49856481  1
  Cr  Cr40  1  0.33300913  0.33253796  0.66647975  1
  Ni  Ni41  1  0.49930994  0.50129233  0.83377109  1
  Ni  Ni42  1  0.49925440  0.83320273  0.50137292  1
  Ni  Ni43  1  0.33327114  0.66832997  0.66585985  1
  Ni  Ni44  1  0.49949714  0.83320656  0.83319464  1
  Ni  Ni45  1  0.83271100  0.16629220  0.49874662  1
  Ni  Ni46  1  0.66618976  0.99948260  0.66604330  1
  Ni  Ni47  1  0.83382457  0.16567264  0.83247572  1
  Ni  Ni48  1  0.83400729  0.49844854  0.50029207  1
  Ni  Ni49  1  0.66808049  0.33314196  0.66583219  1
  Ni  Ni50  1  0.83400868  0.50018022  0.83229178  1
  Ni  Ni51  1  0.83364136  0.83413813  0.49979499  1
  Ni  Ni52  1  0.66637146  0.66625315  0.66662169  1
  Ni  Ni53  1  0.83252799  0.83302475  0.83365489  1
" 