6250,Ni15Cr85_8,-233.993621258174, 160.274486997549,Ni15Cr85,"# generated using pymatgen
 data_Cr4Ni23
_symmetry_space_group_name_H-M   'P 1'
_cell_length_a   7.47197570
_cell_length_b   7.47197570
_cell_length_c   10.56696937
_cell_angle_alpha   90.00000000
_cell_angle_beta   90.00000000
_cell_angle_gamma   90.00000000
_symmetry_Int_Tables_number   1
_chemical_formula_structural   Cr4Ni23
_chemical_formula_sum   'Cr8 Ni46'
_cell_volume   589.95834703
_cell_formula_units_Z   2
loop_
 _symmetry_equiv_pos_site_id
 _symmetry_equiv_pos_as_xyz
  1  'x, y, z'
loop_
 _atom_site_type_symbol
 _atom_site_label
 _atom_site_symmetry_multiplicity
 _atom_site_fract_x
 _atom_site_fract_y
 _atom_site_fract_z
 _atom_site_occupancy
  Ni  Ni0  1  0.00219566  0.99882880  0.00024684  1
  Ni  Ni1  1  0.16394233  0.16600947  0.16614457  1
  Ni  Ni2  1  -0.00001057  0.99857224  0.33242890  1
  Ni  Ni3  1  0.00040231  0.33399502  0.00024738  1
  Ni  Ni4  1  0.16611847  0.49975323  0.16640527  1
  Ni  Ni5  1  0.00018127  0.33377385  0.33236057  1
  Ni  Ni6  1  0.99942531  0.66618689  0.99942329  1
  Ni  Ni7  1  0.16631101  0.83324781  0.16633719  1
  Ni  Ni8  1  0.99920668  0.66666448  0.33344310  1
  Ni  Ni9  1  0.33041258  0.99902748  0.99810810  1
  Cr  Cr10  1  0.49924725  0.16700205  0.16749191  1
  Ni  Ni11  1  0.33171366  -0.00006758  0.33340094  1
  Ni  Ni12  1  0.33220915  0.33379717  0.99810844  1
  Ni  Ni13  1  0.50006655  0.50173763  0.16633717  1
  Ni  Ni14  1  0.33268713  0.33357838  0.33475747  1
  Ni  Ni15  1  0.33298727  0.66618587  0.99953340  1
  Ni  Ni16  1  0.49890060  0.83029027  0.16709072  1
  Ni  Ni17  1  0.33230148  0.66549977  0.33216903  1
  Cr  Cr18  1  0.66613747  0.99829077  0.99959437  1
  Ni  Ni19  1  0.83578404  0.16717572  0.16731091  1
  Ni  Ni20  1  0.66730681  0.99895642  0.33242701  1
  Ni  Ni21  1  0.66639892  0.33656999  0.99949593  1
  Ni  Ni22  1  0.83282609  0.49936944  0.16614450  1
  Ni  Ni23  1  0.66614224  0.33436229  0.33317952  1
  Ni  Ni24  1  0.66659805  0.66439165  0.99888632  1
  Ni  Ni25  1  0.83379932  0.83246599  0.16750280  1
  Ni  Ni26  1  0.66750260  0.66569193  0.33262298  1
  Ni  Ni27  1  0.16787201  0.16648648  0.50045295  1
  Ni  Ni28  1  0.00333217  0.99938371  0.66633571  1
  Ni  Ni29  1  0.16809520  0.16600943  0.83241306  1
  Ni  Ni30  1  0.16723958  0.49837321  0.49902988  1
  Ni  Ni31  1  0.00352009  0.33296086  0.66640378  1
  Ni  Ni32  1  0.16745755  0.49859199  0.83357490  1
  Ni  Ni33  1  0.16544736  0.83415132  0.49902988  1
  Cr  Cr34  1  0.99931579  0.66638817  0.66589645  1
  Ni  Ni35  1  0.16764921  0.83440880  0.83364296  1
  Ni  Ni36  1  0.49616367  0.16828095  0.49826513  1
  Ni  Ni37  1  0.33040438  0.00109397  0.66750076  1
  Ni  Ni38  1  0.49525440  0.16698645  0.83324201  1
  Ni  Ni39  1  0.49894084  0.49871950  0.49909308  1
  Ni  Ni40  1  0.33138058  0.33241662  0.66614470  1
  Ni  Ni41  1  0.49919965  0.50092205  0.83357997  1
  Cr  Cr42  1  0.49883507  0.83192222  0.49881052  1
  Ni  Ni43  1  0.33380444  0.66549986  0.66730825  1
  Ni  Ni44  1  0.49803122  0.83110279  0.83282861  1
  Cr  Cr45  1  0.83480423  0.16631188  0.49787258  1
  Cr  Cr46  1  0.66545291  0.99728861  0.66726956  1
  Cr  Cr47  1  0.83593786  0.16744465  0.83408810  1
  Ni  Ni48  1  0.83283082  0.50114462  0.49831467  1
  Cr  Cr49  1  0.66429871  0.33604843  0.66633601  1
  Ni  Ni50  1  0.83235402  0.50136847  0.83455110  1
  Ni  Ni51  1  0.83462534  0.83137536  0.49831256  1
  Ni  Ni52  1  0.66582097  0.66568873  0.66750140  1
  Ni  Ni53  1  0.83333059  0.83046616  0.83319512  1
" 