7549,Ni15Cr85_12,-234.001933255785, 162.249209377324,Ni15Cr85,"# generated using pymatgen
 data_Cr4Ni23
_symmetry_space_group_name_H-M   'P 1'
_cell_length_a   7.47362617
_cell_length_b   7.47362617
_cell_length_c   10.56930349
_cell_angle_alpha   90.00000000
_cell_angle_beta   90.00000000
_cell_angle_gamma   90.00000000
_symmetry_Int_Tables_number   1
_chemical_formula_structural   Cr4Ni23
_chemical_formula_sum   'Cr8 Ni46'
_cell_volume   590.34937746
_cell_formula_units_Z   2
loop_
 _symmetry_equiv_pos_site_id
 _symmetry_equiv_pos_as_xyz
  1  'x, y, z'
loop_
 _atom_site_type_symbol
 _atom_site_label
 _atom_site_symmetry_multiplicity
 _atom_site_fract_x
 _atom_site_fract_y
 _atom_site_fract_z
 _atom_site_occupancy
  Ni  Ni0  1  0.00167216  -0.00037705  0.00020895  1
  Ni  Ni1  1  0.16551823  0.16487529  0.16393183  1
  Cr  Cr2  1  0.99740888  0.00043162  0.33158440  1
  Ni  Ni3  1  0.00000456  0.33104169  0.99842248  1
  Cr  Cr4  1  0.16670032  0.50063772  0.16610203  1
  Ni  Ni5  1  0.99692854  0.33225382  0.33391404  1
  Ni  Ni6  1  -0.00017404  0.66801424  0.99824529  1
  Ni  Ni7  1  0.16660738  0.83315811  0.16463779  1
  Ni  Ni8  1  0.99751846  0.66616214  0.33282540  1
  Ni  Ni9  1  0.33060445  -0.00019979  0.00014447  1
  Ni  Ni10  1  0.50028597  0.16654371  0.16574660  1
  Cr  Cr11  1  0.33483780  0.99907610  0.33181806  1
  Ni  Ni12  1  0.33353169  0.33212751  0.99912379  1
  Ni  Ni13  1  0.50010425  0.50046956  0.16568890  1
  Cr  Cr14  1  0.33414695  0.33291992  0.33307568  1
  Ni  Ni15  1  0.33353317  0.66675189  0.99950762  1
  Ni  Ni16  1  0.49902029  0.83166681  0.16701218  1
  Ni  Ni17  1  0.33563646  0.66675153  0.33174041  1
  Cr  Cr18  1  0.66664067  0.99937523  0.00006842  1
  Ni  Ni19  1  0.83287453  0.16595897  0.16683569  1
  Ni  Ni20  1  0.66661238  0.99917756  0.33303432  1
  Ni  Ni21  1  0.66514275  0.33397219  0.99933043  1
  Cr  Cr22  1  0.83161434  0.49914613  0.16650489  1
  Ni  Ni23  1  0.66720238  0.33257505  0.33349191  1
  Ni  Ni24  1  0.66532048  0.66508417  0.99915308  1
  Ni  Ni25  1  0.83305228  0.83333673  0.16677180  1
  Ni  Ni26  1  0.66552601  0.66692653  0.33373332  1
  Ni  Ni27  1  0.16531294  0.16737837  0.50179156  1
  Ni  Ni28  1  0.99901780  0.00046963  0.66690706  1
  Ni  Ni29  1  0.16616329  0.16628879  0.83295726  1
  Cr  Cr30  1  0.16514635  0.49907853  0.49968812  1
  Ni  Ni31  1  0.99919763  0.33168254  0.66634284  1
  Ni  Ni32  1  0.16598642  0.49980021  0.83289274  1
  Cr  Cr33  1  0.16663976  0.83248100  0.50097172  1
  Ni  Ni34  1  0.99793195  0.66652761  0.66760879  1
  Ni  Ni35  1  0.16616474  0.83259063  0.83334152  1
  Ni  Ni36  1  0.50153631  0.16611197  0.50087985  1
  Ni  Ni37  1  0.33349715  0.00064722  0.66672980  1
  Ni  Ni38  1  0.49859288  0.16719251  0.83205374  1
  Ni  Ni39  1  0.50212246  0.50026494  0.49967860  1
  Ni  Ni40  1  0.33349571  0.33168398  0.66672699  1
  Ni  Ni41  1  0.49949637  0.49962291  0.83331288  1
  Ni  Ni42  1  0.50212430  0.83230337  0.49979158  1
  Ni  Ni43  1  0.33458482  0.66634924  0.66743178  1
  Ni  Ni44  1  0.49841354  0.83186409  0.83187516  1
  Ni  Ni45  1  0.83182918  0.16737521  0.49961233  1
  Ni  Ni46  1  0.66616489  0.99938197  0.66529504  1
  Ni  Ni47  1  0.83392346  0.16737127  0.83223111  1
  Ni  Ni48  1  0.83141791  0.49917695  0.49897511  1
  Ni  Ni49  1  0.66598646  0.33276945  0.66585624  1
  Ni  Ni50  1  0.83319717  0.49962147  0.83292901  1
  Ni  Ni51  1  0.83015380  0.83212724  0.49985442  1
  Ni  Ni52  1  0.66616371  0.66652828  0.66579204  1
  Ni  Ni53  1  0.83410129  0.83168685  0.83205254  1
" 