169,Ni15Fe85_12,-242.688000409999, 203.154755903791,Ni15Fe85,"# generated using pymatgen
 data_Fe4Ni23
_symmetry_space_group_name_H-M   'P 1'
_cell_length_a   7.43377510
_cell_length_b   7.43377510
_cell_length_c   10.51294556
_cell_angle_alpha   90.00000000
_cell_angle_beta   90.00000000
_cell_angle_gamma   90.00000000
_symmetry_Int_Tables_number   1
_chemical_formula_structural   Fe4Ni23
_chemical_formula_sum   'Fe8 Ni46'
_cell_volume   580.95601316
_cell_formula_units_Z   2
loop_
 _symmetry_equiv_pos_site_id
 _symmetry_equiv_pos_as_xyz
  1  'x, y, z'
loop_
 _atom_site_type_symbol
 _atom_site_label
 _atom_site_symmetry_multiplicity
 _atom_site_fract_x
 _atom_site_fract_y
 _atom_site_fract_z
 _atom_site_occupancy
  Ni  Ni0  1  1.00169061  1.00166981  1.00182406  1
  Ni  Ni1  1  0.16944397  0.16844064  0.16873352  1
  Ni  Ni2  1  0.00237982  1.00172027  0.33638498  1
  Fe  Fe3  1  1.00172651  0.33655174  0.00241665  1
  Ni  Ni4  1  0.16949368  0.50296228  0.16924477  1
  Ni  Ni5  1  1.00115988  0.33506648  0.33433423  1
  Ni  Ni6  1  0.00234081  0.67113585  1.00140114  1
  Ni  Ni7  1  0.16781374  0.83540877  0.16867723  1
  Ni  Ni8  1  0.00249061  0.66993622  0.33637844  1
  Fe  Fe9  1  0.33622471  1.00189186  1.00198998  1
  Ni  Ni10  1  0.50221534  0.16990771  0.16876046  1
  Ni  Ni11  1  0.33462663  1.00167643  0.33461748  1
  Ni  Ni12  1  0.33661862  0.33602032  1.00177305  1
  Ni  Ni13  1  0.50207176  0.50131608  0.16916226  1
  Ni  Ni14  1  0.33646621  0.33537996  0.33684133  1
  Ni  Ni15  1  0.33517760  0.66808048  1.00187988  1
  Fe  Fe16  1  0.50199859  0.83515830  0.16829545  1
  Ni  Ni17  1  0.33510251  0.66961193  0.33588044  1
  Ni  Ni18  1  0.67085363  0.00266577  1.00195949  1
  Ni  Ni19  1  0.83511252  0.16825668  0.16863646  1
  Fe  Fe20  1  0.66892041  0.00312455  0.33507268  1
  Ni  Ni21  1  0.66799094  0.33515616  1.00137982  1
  Ni  Ni22  1  0.83507789  0.50314613  0.16856946  1
  Ni  Ni23  1  0.66909252  0.33536286  0.33603579  1
  Ni  Ni24  1  0.66913061  0.66890944  0.00272811  1
  Ni  Ni25  1  0.83658598  0.83548476  0.16920930  1
  Fe  Fe26  1  0.66917063  0.66788377  0.33594870  1
  Ni  Ni27  1  0.16917199  0.16870020  0.50148969  1
  Fe  Fe28  1  0.00267681  0.00290764  0.66899354  1
  Ni  Ni29  1  0.16931814  0.16896021  0.83638304  1
  Ni  Ni30  1  0.16905784  0.50206666  0.50172165  1
  Ni  Ni31  1  1.00140199  0.33428692  0.66929790  1
  Ni  Ni32  1  0.16962332  0.50228039  0.83557611  1
  Ni  Ni33  1  0.16915562  0.83574991  0.50261543  1
  Fe  Fe34  1  0.00303790  0.66684380  0.66890523  1
  Ni  Ni35  1  0.16884881  0.83539951  0.83547218  1
  Ni  Ni36  1  0.50206047  0.16860937  0.50252316  1
  Ni  Ni37  1  0.33470174  1.00149021  0.66970014  1
  Ni  Ni38  1  0.50204741  0.16929801  0.83530493  1
  Ni  Ni39  1  0.50221861  0.50220936  0.50263527  1
  Ni  Ni40  1  0.33543405  0.33513350  0.66808077  1
  Ni  Ni41  1  0.50218905  0.50230664  0.83513260  1
  Ni  Ni42  1  0.50205654  0.83597788  0.50128245  1
  Ni  Ni43  1  0.33677900  0.67009141  0.66888789  1
  Ni  Ni44  1  0.50259703  0.83516075  0.83691751  1
  Ni  Ni45  1  0.83524667  0.16871599  0.50195605  1
  Fe  Fe46  1  0.66701422  0.00277698  0.66955432  1
  Ni  Ni47  1  0.83526239  0.16868270  0.83604203  1
  Ni  Ni48  1  0.83558858  0.50213698  0.50184935  1
  Ni  Ni49  1  0.66983943  0.33633725  0.66932244  1
  Ni  Ni50  1  0.83497582  0.50285659  0.83636121  1
  Ni  Ni51  1  0.83545576  0.83573875  0.50281086  1
  Ni  Ni52  1  0.66876026  0.66893405  0.66892130  1
  Ni  Ni53  1  0.83535195  0.83527122  0.83497591  1
" 