1604,Ni15Fe85_18,-242.267806167123, 201.001516919089,Ni15Fe85,"# generated using pymatgen
 data_Fe4Ni23
_symmetry_space_group_name_H-M   'P 1'
_cell_length_a   7.43052023
_cell_length_b   7.43052023
_cell_length_c   10.50834249
_cell_angle_alpha   90.00000000
_cell_angle_beta   90.00000000
_cell_angle_gamma   90.00000000
_symmetry_Int_Tables_number   1
_chemical_formula_structural   Fe4Ni23
_chemical_formula_sum   'Fe8 Ni46'
_cell_volume   580.19323508
_cell_formula_units_Z   2
loop_
 _symmetry_equiv_pos_site_id
 _symmetry_equiv_pos_as_xyz
  1  'x, y, z'
loop_
 _atom_site_type_symbol
 _atom_site_label
 _atom_site_symmetry_multiplicity
 _atom_site_fract_x
 _atom_site_fract_y
 _atom_site_fract_z
 _atom_site_occupancy
  Ni  Ni0  1  0.00326008  0.00322128  1.00146792  1
  Ni  Ni1  1  0.16910440  0.16917227  0.16868356  1
  Ni  Ni2  1  0.00347648  0.00281383  0.33667289  1
  Ni  Ni3  1  1.00237156  0.33482004  0.00349357  1
  Ni  Ni4  1  0.17014575  0.50277635  0.16889707  1
  Fe  Fe5  1  0.00337721  0.33690977  0.33590344  1
  Ni  Ni6  1  1.00134698  0.66911129  0.00254356  1
  Ni  Ni7  1  0.16834174  0.83566259  0.16834265  1
  Ni  Ni8  1  1.00138143  0.67022327  0.33531265  1
  Ni  Ni9  1  0.33513842  0.00342258  0.00266156  1
  Ni  Ni10  1  0.50269894  0.16937845  0.16875604  1
  Ni  Ni11  1  0.33456701  0.00298204  0.33533128  1
  Ni  Ni12  1  0.33539056  0.33466414  1.00188078  1
  Ni  Ni13  1  0.50194294  0.50230667  0.16924733  1
  Ni  Ni14  1  0.33740237  0.33442913  0.33667037  1
  Ni  Ni15  1  0.33663939  0.66952510  0.00297547  1
  Ni  Ni16  1  0.50305516  0.83542600  0.16827854  1
  Ni  Ni17  1  0.33627021  0.66993587  0.33534014  1
  Fe  Fe18  1  0.66945252  1.00172708  1.00177266  1
  Ni  Ni19  1  0.83564112  0.16803285  0.16932641  1
  Fe  Fe20  1  0.66799503  1.00132031  0.33646517  1
  Fe  Fe21  1  0.66872421  0.33609120  0.00270179  1
  Ni  Ni22  1  0.83541184  0.50294190  0.16808488  1
  Ni  Ni23  1  0.66956597  0.33628312  0.33536721  1
  Ni  Ni24  1  0.66941964  0.66855575  1.00145021  1
  Ni  Ni25  1  0.83592825  0.83628894  0.16925304  1
  Ni  Ni26  1  0.66969371  0.66722187  0.33668900  1
  Ni  Ni27  1  0.16930852  0.16908666  0.50389507  1
  Fe  Fe28  1  1.00142080  1.00141655  0.66911205  1
  Ni  Ni29  1  0.16884289  0.16948177  0.83500462  1
  Ni  Ni30  1  0.16982122  0.50339902  0.50240202  1
  Ni  Ni31  1  1.00162452  0.33533089  0.66841078  1
  Ni  Ni32  1  0.17061399  0.50301096  0.83628994  1
  Ni  Ni33  1  0.16878668  0.83519288  0.50282391  1
  Ni  Ni34  1  1.00233924  0.66759262  0.66941243  1
  Ni  Ni35  1  0.16751395  0.83495112  0.83613685  1
  Ni  Ni36  1  0.50286680  0.16977725  0.50293700  1
  Ni  Ni37  1  0.33572045  0.00307712  0.66932278  1
  Ni  Ni38  1  0.50298068  0.17078110  0.83577385  1
  Ni  Ni39  1  0.50247603  0.50236636  0.50280129  1
  Fe  Fe40  1  0.33653003  0.33706836  0.66923170  1
  Ni  Ni41  1  0.50203026  0.50246987  0.83555039  1
  Ni  Ni42  1  0.50237812  0.83533277  0.50314122  1
  Ni  Ni43  1  0.33566503  0.67117286  0.66895684  1
  Fe  Fe44  1  0.50121826  0.83652999  0.83537815  1
  Ni  Ni45  1  0.83520054  0.16884036  0.50232309  1
  Ni  Ni46  1  0.66758540  0.00323720  0.66855280  1
  Ni  Ni47  1  0.83544263  0.16753637  0.83580636  1
  Ni  Ni48  1  0.83544706  0.50266471  0.50344788  1
  Ni  Ni49  1  0.67066973  0.33541390  0.66985775  1
  Fe  Fe50  1  0.83733947  0.50144800  0.83565136  1
  Ni  Ni51  1  0.83584407  0.83560211  0.50271886  1
  Ni  Ni52  1  0.66940908  0.66872003  0.66904513  1
  Ni  Ni53  1  0.83590981  0.83598363  0.83517485  1
" 