6939,Ni15Fe13Cr71_12,-210.926132957836, 178.383751120027,Ni15Fe13Cr71,"# generated using pymatgen
 data_Cr39Fe7Ni8
_symmetry_space_group_name_H-M   'P 1'
_cell_length_a   7.56133679
_cell_length_b   7.56133679
_cell_length_c   10.69334504
_cell_angle_alpha   90.00000000
_cell_angle_beta   90.00000000
_cell_angle_gamma   90.00000000
_symmetry_Int_Tables_number   1
_chemical_formula_structural   Cr39Fe7Ni8
_chemical_formula_sum   'Cr39 Fe7 Ni8'
_cell_volume   611.37932167
_cell_formula_units_Z   1
loop_
 _symmetry_equiv_pos_site_id
 _symmetry_equiv_pos_as_xyz
  1  'x, y, z'
loop_
 _atom_site_type_symbol
 _atom_site_label
 _atom_site_symmetry_multiplicity
 _atom_site_fract_x
 _atom_site_fract_y
 _atom_site_fract_z
 _atom_site_occupancy
  Cr  Cr0  1  0.99246601  0.99320389  -0.00349577  1
  Cr  Cr1  1  0.16070855  0.16354506  0.15801765  1
  Cr  Cr2  1  -0.00591185  -0.00566283  0.32393756  1
  Cr  Cr3  1  0.99142517  0.32695147  -0.00610742  1
  Cr  Cr4  1  0.15849831  0.49299734  0.16230577  1
  Ni  Ni5  1  -0.00549882  0.32927690  0.32578815  1
  Cr  Cr6  1  0.99255365  0.66118004  -0.00503022  1
  Fe  Fe7  1  0.15707568  0.82564998  0.16169596  1
  Fe  Fe8  1  0.99324310  0.66087632  0.32589563  1
  Cr  Cr9  1  0.32422182  0.99222969  -0.00489566  1
  Cr  Cr10  1  0.49272297  0.16119017  0.16058003  1
  Cr  Cr11  1  0.32368913  0.99106739  0.32826111  1
  Ni  Ni12  1  0.32775902  0.32892780  0.99333415  1
  Cr  Cr13  1  0.49302159  0.49277566  0.15878107  1
  Fe  Fe14  1  0.32473099  0.32682411  0.32687206  1
  Cr  Cr15  1  0.32682862  0.65905050  -0.00579404  1
  Cr  Cr16  1  0.49463178  0.82698568  0.16050485  1
  Cr  Cr17  1  0.32367708  0.66067791  0.32817214  1
  Cr  Cr18  1  0.66440781  0.99356547  -0.00331181  1
  Ni  Ni19  1  0.82936458  0.16204558  0.16178798  1
  Cr  Cr20  1  0.66312948  -0.00606328  0.32529005  1
  Cr  Cr21  1  0.66208588  0.32913142  0.99278034  1
  Ni  Ni22  1  0.83007593  0.49471081  0.16196634  1
  Cr  Cr23  1  0.66348628  0.32745674  0.32583924  1
  Cr  Cr24  1  0.66168990  0.65848593  0.99261229  1
  Ni  Ni25  1  0.82965983  0.82473966  0.16020444  1
  Cr  Cr26  1  0.66052383  0.65993785  0.32433197  1
  Cr  Cr27  1  0.16031112  0.16160222  0.49430864  1
  Cr  Cr28  1  -0.00387710  0.99267343  0.66146005  1
  Cr  Cr29  1  0.16232048  0.16091914  0.82874866  1
  Fe  Fe30  1  0.15842446  0.49520388  0.49171012  1
  Cr  Cr31  1  0.99318545  0.32880958  0.66065453  1
  Cr  Cr32  1  0.15832936  0.49353793  0.82772667  1
  Ni  Ni33  1  0.15879665  0.82434978  0.49437368  1
  Fe  Fe34  1  -0.00526554  0.66044727  0.66093472  1
  Cr  Cr35  1  0.15970781  0.82691309  0.82680756  1
  Cr  Cr36  1  0.49269018  0.15960856  0.49357968  1
  Ni  Ni37  1  0.32415977  0.99124921  0.65872975  1
  Cr  Cr38  1  0.49132375  0.15923676  0.82726937  1
  Cr  Cr39  1  0.49400934  0.49346545  0.49211193  1
  Cr  Cr40  1  0.32683343  0.32870387  0.65994215  1
  Fe  Fe41  1  0.49306856  0.49257234  0.82827019  1
  Cr  Cr42  1  0.49400440  0.82798283  0.49468562  1
  Cr  Cr43  1  0.32543845  0.66054715  0.65877937  1
  Cr  Cr44  1  0.49430988  0.82808709  0.82639042  1
  Cr  Cr45  1  0.82836438  0.16155506  0.49248133  1
  Cr  Cr46  1  0.66109322  -0.00599067  0.65961234  1
  Cr  Cr47  1  0.82779492  0.16052563  0.82657995  1
  Cr  Cr48  1  0.83123929  0.49552600  0.49238614  1
  Cr  Cr49  1  0.66111531  0.32934837  0.66203452  1
  Ni  Ni50  1  0.82754125  0.49753863  0.82641051  1
  Cr  Cr51  1  0.82922278  0.82399988  0.49548492  1
  Cr  Cr52  1  0.66064167  0.65774460  0.66403748  1
  Fe  Fe53  1  0.82826287  0.82539814  0.82747823  1
" 