5486,Ni15Fe85_16,-242.594659665119, 201.970790237589,Ni15Fe85,"# generated using pymatgen
 data_Fe4Ni23
_symmetry_space_group_name_H-M   'P 1'
_cell_length_a   7.43305299
_cell_length_b   7.43305299
_cell_length_c   10.51192435
_cell_angle_alpha   90.00000000
_cell_angle_beta   90.00000000
_cell_angle_gamma   90.00000000
_symmetry_Int_Tables_number   1
_chemical_formula_structural   Fe4Ni23
_chemical_formula_sum   'Fe8 Ni46'
_cell_volume   580.78672892
_cell_formula_units_Z   2
loop_
 _symmetry_equiv_pos_site_id
 _symmetry_equiv_pos_as_xyz
  1  'x, y, z'
loop_
 _atom_site_type_symbol
 _atom_site_label
 _atom_site_symmetry_multiplicity
 _atom_site_fract_x
 _atom_site_fract_y
 _atom_site_fract_z
 _atom_site_occupancy
  Ni  Ni0  1  1.00210162  1.00227915  0.00241953  1
  Ni  Ni1  1  0.16861341  0.16866403  0.16874095  1
  Ni  Ni2  1  0.00246027  0.00230343  0.33628822  1
  Fe  Fe3  1  0.00306327  0.33477009  0.00249816  1
  Ni  Ni4  1  0.16911624  0.50217776  0.16943027  1
  Ni  Ni5  1  1.00003759  0.33644893  0.33533028  1
  Fe  Fe6  1  1.00228376  0.66977466  0.00246597  1
  Ni  Ni7  1  0.16855131  0.83574412  0.16840829  1
  Ni  Ni8  1  0.00409959  0.66819352  0.33524318  1
  Ni  Ni9  1  0.33528482  1.00159926  1.00193565  1
  Ni  Ni10  1  0.50217422  0.16926476  0.16835484  1
  Ni  Ni11  1  0.33592292  1.00008227  0.33510464  1
  Ni  Ni12  1  0.33648826  0.33682111  0.00242665  1
  Ni  Ni13  1  0.50233447  0.50232427  0.16934032  1
  Fe  Fe14  1  0.33495303  0.33405191  0.33471095  1
  Ni  Ni15  1  0.33525184  0.66847490  0.00241656  1
  Ni  Ni16  1  0.50250722  0.83521608  0.16843762  1
  Ni  Ni17  1  0.33497534  0.66928804  0.33529065  1
  Ni  Ni18  1  0.66948252  0.00292111  0.00242326  1
  Ni  Ni19  1  0.83607006  0.16884069  0.16919000  1
  Ni  Ni20  1  0.66846758  0.00450111  0.33557646  1
  Ni  Ni21  1  0.66924167  0.33574627  1.00221003  1
  Ni  Ni22  1  0.83553084  0.50238560  0.16778881  1
  Ni  Ni23  1  0.66980420  0.33560307  0.33512875  1
  Ni  Ni24  1  0.66800135  0.66806433  1.00216964  1
  Ni  Ni25  1  0.83592837  0.83582125  0.16959063  1
  Fe  Fe26  1  0.67002612  0.66983561  0.33496636  1
  Ni  Ni27  1  0.16864040  0.16867374  0.50264672  1
  Ni  Ni28  1  1.00226992  0.00229539  0.66817199  1
  Ni  Ni29  1  0.16826457  0.16896827  0.83558183  1
  Fe  Fe30  1  0.16845546  0.50252509  0.50233028  1
  Ni  Ni31  1  1.00030061  0.33612912  0.66925284  1
  Ni  Ni32  1  0.16968647  0.50220926  0.83533269  1
  Ni  Ni33  1  0.16868504  0.83620423  0.50259375  1
  Ni  Ni34  1  0.00428298  0.66848443  0.66937700  1
  Ni  Ni35  1  0.16820766  0.83544004  0.83591336  1
  Ni  Ni36  1  0.50167195  0.16973318  0.50263635  1
  Ni  Ni37  1  0.33591939  1.00012514  0.66982241  1
  Ni  Ni38  1  0.50243719  0.16952851  0.83590706  1
  Ni  Ni39  1  0.50273686  0.50216821  0.50215875  1
  Fe  Fe40  1  0.33498030  0.33429356  0.66993188  1
  Ni  Ni41  1  0.50172753  0.50237218  0.83534928  1
  Ni  Ni42  1  0.50222870  0.83495707  0.50255757  1
  Ni  Ni43  1  0.33499606  0.66918840  0.66918871  1
  Ni  Ni44  1  0.50277770  0.83493802  0.83581047  1
  Ni  Ni45  1  0.83615367  0.16943607  0.50218355  1
  Ni  Ni46  1  0.66864152  0.00445980  0.66885250  1
  Ni  Ni47  1  0.83611777  0.16815270  0.83551710  1
  Ni  Ni48  1  0.83478755  0.50265760  0.50298403  1
  Ni  Ni49  1  0.66950335  0.33532950  0.66939253  1
  Fe  Fe50  1  0.83535378  0.50219938  0.83544547  1
  Ni  Ni51  1  0.83631471  0.83521023  0.50216099  1
  Fe  Fe52  1  0.66961556  0.67025298  0.66940203  1
  Ni  Ni53  1  0.83595429  0.83635345  0.83509508  1
" 