998,Ni15Fe13Cr71_4,-210.986836907779, 179.481797338351,Ni15Fe13Cr71,"# generated using pymatgen
 data_Cr39Fe7Ni8
_symmetry_space_group_name_H-M   'P 1'
_cell_length_a   7.56162996
_cell_length_b   7.56162996
_cell_length_c   10.69375965
_cell_angle_alpha   90.00000000
_cell_angle_beta   90.00000000
_cell_angle_gamma   90.00000000
_symmetry_Int_Tables_number   1
_chemical_formula_structural   Cr39Fe7Ni8
_chemical_formula_sum   'Cr39 Fe7 Ni8'
_cell_volume   611.45043828
_cell_formula_units_Z   1
loop_
 _symmetry_equiv_pos_site_id
 _symmetry_equiv_pos_as_xyz
  1  'x, y, z'
loop_
 _atom_site_type_symbol
 _atom_site_label
 _atom_site_symmetry_multiplicity
 _atom_site_fract_x
 _atom_site_fract_y
 _atom_site_fract_z
 _atom_site_occupancy
  Ni  Ni0  1  0.99165130  0.99100380  -0.00460343  1
  Cr  Cr1  1  0.15674426  0.15874010  0.16048362  1
  Fe  Fe2  1  0.99130867  -0.00477925  0.32767802  1
  Cr  Cr3  1  -0.00600897  0.32641092  0.99322548  1
  Cr  Cr4  1  0.16020279  0.49410191  0.15856205  1
  Fe  Fe5  1  0.99179471  0.32582778  0.32952301  1
  Cr  Cr6  1  0.99117166  0.66175584  0.99275068  1
  Cr  Cr7  1  0.15723512  0.82847723  0.16079110  1
  Cr  Cr8  1  0.99152536  0.65942097  0.32781788  1
  Cr  Cr9  1  0.32845526  -0.00576235  -0.00507376  1
  Cr  Cr10  1  0.49668713  0.16188082  0.16031116  1
  Cr  Cr11  1  0.32590982  -0.00522334  0.32637028  1
  Cr  Cr12  1  0.32771634  0.32473104  0.99190938  1
  Cr  Cr13  1  0.49479103  0.49234916  0.16231744  1
  Cr  Cr14  1  0.32550371  0.32476124  0.32776811  1
  Cr  Cr15  1  0.32910565  0.66252054  -0.00425570  1
  Fe  Fe16  1  0.49649515  0.82837047  0.16076272  1
  Cr  Cr17  1  0.32759459  0.66224183  0.32527875  1
  Cr  Cr18  1  0.65904326  0.99158022  0.99140899  1
  Cr  Cr19  1  0.82708459  0.15853869  0.16108683  1
  Cr  Cr20  1  0.66016413  0.99345513  0.32748661  1
  Cr  Cr21  1  0.65930287  0.32656874  0.99321568  1
  Cr  Cr22  1  0.82615068  0.49181483  0.16156616  1
  Ni  Ni23  1  0.66482221  0.32568443  0.32948491  1
  Cr  Cr24  1  0.66103381  0.66294383  -0.00445952  1
  Ni  Ni25  1  0.82833688  0.82963067  0.15884668  1
  Cr  Cr26  1  0.66255641  0.66020988  0.32568155  1
  Fe  Fe27  1  0.15879180  0.16158192  0.49345477  1
  Cr  Cr28  1  0.99217824  -0.00425503  0.65912185  1
  Cr  Cr29  1  0.16012093  0.15897741  0.82813934  1
  Cr  Cr30  1  0.16244030  0.49548520  0.49618100  1
  Cr  Cr31  1  0.99371407  0.32675990  0.65774755  1
  Cr  Cr32  1  0.16276238  0.49555437  0.82592177  1
  Cr  Cr33  1  0.16075169  0.82775250  0.49373308  1
  Cr  Cr34  1  0.99167665  0.65927742  0.66100379  1
  Cr  Cr35  1  0.15905649  0.82699836  0.82678387  1
  Cr  Cr36  1  0.49661254  0.16134740  0.49489687  1
  Cr  Cr37  1  0.32834848  -0.00379447  0.66035624  1
  Ni  Ni38  1  0.49458825  0.15765436  0.82459361  1
  Cr  Cr39  1  0.49453563  0.49354974  0.49394103  1
  Ni  Ni40  1  0.32802743  0.32582919  0.66120739  1
  Cr  Cr41  1  0.49255711  0.49274508  0.82522664  1
  Cr  Cr42  1  0.49271054  0.82637877  0.49534731  1
  Ni  Ni43  1  0.32859403  0.66064835  0.66117658  1
  Fe  Fe44  1  0.49349153  0.82789268  0.82516515  1
  Ni  Ni45  1  0.82824792  0.16197149  0.49089529  1
  Fe  Fe46  1  0.66006663  -0.00499201  0.66116417  1
  Cr  Cr47  1  0.82539321  0.15701418  0.82849258  1
  Ni  Ni48  1  0.82704531  0.48987590  0.49134067  1
  Cr  Cr49  1  0.66222394  0.32562730  0.65966858  1
  Cr  Cr50  1  0.82617709  0.49388605  0.82786972  1
  Cr  Cr51  1  0.82713428  0.82986852  0.49479652  1
  Cr  Cr52  1  0.66244640  0.66219892  0.66066629  1
  Fe  Fe53  1  0.82620741  0.82919008  0.82745232  1
" 