250,Ni15Fe85_19,-242.42951186608, 201.865846666322,Ni15Fe85,"# generated using pymatgen
 data_Fe4Ni23
_symmetry_space_group_name_H-M   'P 1'
_cell_length_a   7.43114495
_cell_length_b   7.43114495
_cell_length_c   10.50922597
_cell_angle_alpha   90.00000000
_cell_angle_beta   90.00000000
_cell_angle_gamma   90.00000000
_symmetry_Int_Tables_number   1
_chemical_formula_structural   Fe4Ni23
_chemical_formula_sum   'Fe8 Ni46'
_cell_volume   580.33958618
_cell_formula_units_Z   2
loop_
 _symmetry_equiv_pos_site_id
 _symmetry_equiv_pos_as_xyz
  1  'x, y, z'
loop_
 _atom_site_type_symbol
 _atom_site_label
 _atom_site_symmetry_multiplicity
 _atom_site_fract_x
 _atom_site_fract_y
 _atom_site_fract_z
 _atom_site_occupancy
  Ni  Ni0  1  0.00315816  1.00149144  1.00231894  1
  Fe  Fe1  1  0.16948800  0.16853815  0.16889719  1
  Ni  Ni2  1  0.00363675  1.00106031  0.33561982  1
  Ni  Ni3  1  0.00319438  0.33605326  0.00291471  1
  Ni  Ni4  1  0.16949188  0.50303382  0.16910796  1
  Fe  Fe5  1  0.00257182  0.33701790  0.33586428  1
  Ni  Ni6  1  1.00162771  0.66984692  1.00210746  1
  Ni  Ni7  1  0.16933666  0.83485931  0.16823317  1
  Ni  Ni8  1  1.00175465  0.67074842  0.33617553  1
  Ni  Ni9  1  0.33528692  0.00323199  1.00182743  1
  Ni  Ni10  1  0.50366609  0.16922921  0.16809400  1
  Ni  Ni11  1  0.33451098  0.00318008  0.33647585  1
  Ni  Ni12  1  0.33605098  0.33480522  0.00300082  1
  Ni  Ni13  1  0.50188924  0.50211159  0.16904465  1
  Ni  Ni14  1  0.33735469  0.33483950  0.33563667  1
  Fe  Fe15  1  0.33575659  0.66909051  0.00289177  1
  Ni  Ni16  1  0.50178158  0.83587642  0.16913202  1
  Ni  Ni17  1  0.33559447  0.66916541  0.33578229  1
  Ni  Ni18  1  0.66869476  1.00178540  0.00316851  1
  Ni  Ni19  1  0.83520874  0.16912696  0.16911398  1
  Fe  Fe20  1  0.66806564  1.00198463  0.33573588  1
  Ni  Ni21  1  0.66808257  0.33648348  1.00118428  1
  Ni  Ni22  1  0.83590282  0.50154256  0.16803974  1
  Ni  Ni23  1  0.66750689  0.33677395  0.33618870  1
  Ni  Ni24  1  0.66996993  0.66903843  0.00284408  1
  Ni  Ni25  1  0.83601591  0.83663243  0.16888433  1
  Ni  Ni26  1  0.66991385  0.66772139  0.33574714  1
  Ni  Ni27  1  0.16852327  0.16933406  0.50196677  1
  Ni  Ni28  1  0.00278946  1.00167479  0.66931669  1
  Ni  Ni29  1  0.16714343  0.16988583  0.83636131  1
  Ni  Ni30  1  0.16960680  0.50248514  0.50232495  1
  Ni  Ni31  1  0.00362844  0.33557182  0.66830415  1
  Ni  Ni32  1  0.17044763  0.50189020  0.83575934  1
  Ni  Ni33  1  0.16912775  0.83549507  0.50333915  1
  Ni  Ni34  1  1.00189366  0.67025043  0.66888628  1
  Ni  Ni35  1  0.16914030  0.83539409  0.83569794  1
  Ni  Ni36  1  0.50289666  0.16933662  0.50355284  1
  Fe  Fe37  1  0.33544910  0.00259196  0.66908360  1
  Fe  Fe38  1  0.50180756  0.16819783  0.83596030  1
  Ni  Ni39  1  0.50200230  0.50240495  0.50203780  1
  Ni  Ni40  1  0.33592885  0.33503413  0.66868786  1
  Ni  Ni41  1  0.50139922  0.50289546  0.83619911  1
  Ni  Ni42  1  0.50234328  0.83537150  0.50199158  1
  Fe  Fe43  1  0.33600457  0.66825858  0.66862291  1
  Ni  Ni44  1  0.50304157  0.83445900  0.83618084  1
  Ni  Ni45  1  0.83575831  0.16903503  0.50231944  1
  Ni  Ni46  1  0.66938781  1.00170892  0.66833900  1
  Ni  Ni47  1  0.83605906  0.16873396  0.83577240  1
  Ni  Ni48  1  0.83567662  0.50176973  0.50343505  1
  Ni  Ni49  1  0.66760882  0.33620249  0.66988936  1
  Fe  Fe50  1  0.83678579  0.50327992  0.83543216  1
  Ni  Ni51  1  0.83572305  0.83651075  0.50218392  1
  Ni  Ni52  1  0.66960864  0.66939467  0.66858251  1
  Ni  Ni53  1  0.83515255  0.83801155  0.83618873  1
" 