2987,Ni15Fe13Cr71_6,-210.668809388636, 175.914202498862,Ni15Fe13Cr71,"# generated using pymatgen
 data_Cr39Fe7Ni8
_symmetry_space_group_name_H-M   'P 1'
_cell_length_a   7.55963008
_cell_length_b   7.55963008
_cell_length_c   10.69093139
_cell_angle_alpha   90.00000000
_cell_angle_beta   90.00000000
_cell_angle_gamma   90.00000000
_symmetry_Int_Tables_number   1
_chemical_formula_structural   Cr39Fe7Ni8
_chemical_formula_sum   'Cr39 Fe7 Ni8'
_cell_volume   610.96542181
_cell_formula_units_Z   1
loop_
 _symmetry_equiv_pos_site_id
 _symmetry_equiv_pos_as_xyz
  1  'x, y, z'
loop_
 _atom_site_type_symbol
 _atom_site_label
 _atom_site_symmetry_multiplicity
 _atom_site_fract_x
 _atom_site_fract_y
 _atom_site_fract_z
 _atom_site_occupancy
  Cr  Cr0  1  0.99212879  0.99031127  0.99174885  1
  Cr  Cr1  1  0.16042649  0.16071386  0.16051232  1
  Cr  Cr2  1  0.99302038  0.99072104  0.32631431  1
  Cr  Cr3  1  -0.00464768  0.32802861  -0.00314138  1
  Ni  Ni4  1  0.15681499  0.49849074  0.15877954  1
  Cr  Cr5  1  -0.00516215  0.32986265  0.32377890  1
  Ni  Ni6  1  0.99298937  0.66080824  -0.00342087  1
  Cr  Cr7  1  0.16237091  0.82473309  0.16012724  1
  Ni  Ni8  1  0.99350875  0.66089852  0.32309996  1
  Cr  Cr9  1  0.32616203  -0.00328522  0.99249974  1
  Cr  Cr10  1  0.49639031  0.15729121  0.16173463  1
  Fe  Fe11  1  0.32787432  -0.00542975  0.32751935  1
  Cr  Cr12  1  0.32729277  0.32778175  0.99241044  1
  Cr  Cr13  1  0.49157352  0.49630905  0.15747209  1
  Cr  Cr14  1  0.32744171  0.32619559  0.32675812  1
  Fe  Fe15  1  0.32518296  0.66046485  -0.00550023  1
  Cr  Cr16  1  0.49500659  0.82903243  0.16100256  1
  Cr  Cr17  1  0.32620995  0.65792997  0.32653412  1
  Ni  Ni18  1  0.66034888  0.99171404  0.99321889  1
  Cr  Cr19  1  0.82451093  0.15903665  0.16012413  1
  Ni  Ni20  1  0.65979955  0.99343207  0.32710808  1
  Cr  Cr21  1  0.65897266  0.32747112  -0.00602705  1
  Fe  Fe22  1  0.82935625  0.49712584  0.16011334  1
  Cr  Cr23  1  0.65895797  0.32835343  0.32706163  1
  Cr  Cr24  1  0.66432680  0.66120708  0.99337974  1
  Fe  Fe25  1  0.82744159  0.82674420  0.15950328  1
  Cr  Cr26  1  0.66483033  0.66098408  0.32717349  1
  Cr  Cr27  1  0.15896169  0.16099377  0.49465934  1
  Cr  Cr28  1  -0.00585390  0.99346047  0.66457509  1
  Fe  Fe29  1  0.15897435  0.16117197  0.82701995  1
  Cr  Cr30  1  0.15798871  0.49456932  0.49464345  1
  Ni  Ni31  1  -0.00369405  0.32620953  0.66197416  1
  Cr  Cr32  1  0.16017306  0.49449488  0.82773185  1
  Cr  Cr33  1  0.16211821  0.82572653  0.49201699  1
  Cr  Cr34  1  0.99166026  0.66391337  0.65983810  1
  Cr  Cr35  1  0.16103369  0.82419649  0.82836789  1
  Ni  Ni36  1  0.49451251  0.15783677  0.49151840  1
  Cr  Cr37  1  0.32681542  -0.00433954  0.65931767  1
  Fe  Fe38  1  0.49545789  0.15886701  0.82781294  1
  Cr  Cr39  1  0.49392261  0.49396799  0.49626645  1
  Cr  Cr40  1  0.32796922  0.32527200  0.66266036  1
  Fe  Fe41  1  0.49491315  0.49472355  0.82849033  1
  Cr  Cr42  1  0.49298751  0.82964119  0.49047178  1
  Cr  Cr43  1  0.32981183  0.66035573  0.66148376  1
  Cr  Cr44  1  0.49348680  0.82673401  0.83001630  1
  Cr  Cr45  1  0.82594709  0.16212471  0.49461638  1
  Cr  Cr46  1  0.66069504  0.99194289  0.66171367  1
  Cr  Cr47  1  0.82647350  0.16143867  0.82726698  1
  Cr  Cr48  1  0.83031903  0.49144109  0.49485718  1
  Cr  Cr49  1  0.65774378  0.32747238  0.66033996  1
  Cr  Cr50  1  0.82969575  0.49257975  0.82541783  1
  Cr  Cr51  1  0.82714406  0.82818881  0.49322525  1
  Cr  Cr52  1  0.66102696  0.66216939  0.66163428  1
  Ni  Ni53  1  0.82591898  0.82725299  0.83151059  1
" 