6115,Ni15Cr85_3,-233.937870022259, 160.944944872275,Ni15Cr85,"# generated using pymatgen
 data_Cr4Ni23
_symmetry_space_group_name_H-M   'P 1'
_cell_length_a   7.47237717
_cell_length_b   7.47237717
_cell_length_c   10.56753714
_cell_angle_alpha   90.00000000
_cell_angle_beta   90.00000000
_cell_angle_gamma   90.00000000
_symmetry_Int_Tables_number   1
_chemical_formula_structural   Cr4Ni23
_chemical_formula_sum   'Cr8 Ni46'
_cell_volume   590.05344792
_cell_formula_units_Z   2
loop_
 _symmetry_equiv_pos_site_id
 _symmetry_equiv_pos_as_xyz
  1  'x, y, z'
loop_
 _atom_site_type_symbol
 _atom_site_label
 _atom_site_symmetry_multiplicity
 _atom_site_fract_x
 _atom_site_fract_y
 _atom_site_fract_z
 _atom_site_occupancy
  Cr  Cr0  1  0.99864441  0.99924470  0.99905971  1
  Cr  Cr1  1  0.16815416  0.16650638  0.16571893  1
  Ni  Ni2  1  0.99786977  0.99603087  0.33305225  1
  Ni  Ni3  1  0.99950832  0.33433233  0.99767787  1
  Ni  Ni4  1  0.16792193  0.50114350  0.16630536  1
  Cr  Cr5  1  0.99866200  0.33338942  0.33373172  1
  Ni  Ni6  1  0.99896281  0.66516799  0.99930381  1
  Ni  Ni7  1  0.16650444  0.83167603  0.16853574  1
  Ni  Ni8  1  0.00112872  0.66928932  0.33354468  1
  Ni  Ni9  1  0.33463813  -0.00018306  -0.00029913  1
  Ni  Ni10  1  0.50077248  0.16594842  0.16667440  1
  Ni  Ni11  1  0.33368785  0.99847664  0.33172029  1
  Ni  Ni12  1  0.33288897  0.33322809  0.00009892  1
  Ni  Ni13  1  0.49880175  0.49869226  0.16739666  1
  Ni  Ni14  1  0.33647077  0.33497730  0.33268708  1
  Cr  Cr15  1  0.33312329  0.66629132  -0.00031152  1
  Ni  Ni16  1  0.50038328  0.83428952  0.16657266  1
  Ni  Ni17  1  0.33179961  0.66547653  0.33202461  1
  Ni  Ni18  1  0.66581271  0.99926744  0.00095962  1
  Ni  Ni19  1  0.82959114  0.16453154  0.16636683  1
  Ni  Ni20  1  0.66737091  0.00070491  0.33166062  1
  Ni  Ni21  1  0.66653284  0.33274365  0.00010059  1
  Cr  Cr22  1  0.83258748  0.50081657  0.16489514  1
  Ni  Ni23  1  0.66355662  0.33171936  0.33388306  1
  Ni  Ni24  1  0.66691944  0.66691860  0.99867534  1
  Ni  Ni25  1  0.83204294  0.83364812  0.16733882  1
  Ni  Ni26  1  0.66600261  0.66650499  0.33268861  1
  Cr  Cr27  1  0.16753722  0.16530299  0.50081924  1
  Ni  Ni28  1  0.99889975  0.99901193  0.66680465  1
  Ni  Ni29  1  0.16562591  0.16711045  0.83240760  1
  Ni  Ni30  1  0.16680965  0.50174149  0.50004592  1
  Ni  Ni31  1  0.99890238  0.33337897  0.66776300  1
  Ni  Ni32  1  0.16498043  0.49858194  0.83257948  1
  Ni  Ni33  1  0.16436920  0.83148636  0.49918419  1
  Ni  Ni34  1  0.00010123  0.66653883  0.66608058  1
  Ni  Ni35  1  0.16634516  0.83323870  0.83120938  1
  Ni  Ni36  1  0.50119076  0.16830775  0.49898878  1
  Ni  Ni37  1  0.33189177  0.99867300  0.66751029  1
  Cr  Cr38  1  0.49881958  0.16570345  0.83302148  1
  Ni  Ni39  1  0.49994607  0.49755184  0.49935371  1
  Ni  Ni40  1  0.33292017  0.33474750  0.66614232  1
  Ni  Ni41  1  0.50055278  0.50066435  0.83217931  1
  Cr  Cr42  1  0.49961914  0.83322121  0.50021253  1
  Ni  Ni43  1  0.33205827  0.66550920  0.66697341  1
  Ni  Ni44  1  0.50038465  0.83235052  0.83260287  1
  Ni  Ni45  1  0.83059117  0.16586591  0.50021698  1
  Ni  Ni46  1  0.66813802  -0.00012618  0.66631127  1
  Ni  Ni47  1  0.83428489  0.16727933  0.83234764  1
  Ni  Ni48  1  0.83217509  0.50033208  0.50057954  1
  Ni  Ni49  1  0.66710783  0.33354510  0.66494484  1
  Ni  Ni50  1  0.83339783  0.49994721  0.83324150  1
  Ni  Ni51  1  0.83478220  0.83273103  0.49918394  1
  Ni  Ni52  1  0.66677014  0.66551095  0.66756724  1
  Ni  Ni53  1  0.83220204  0.83170401  0.83240831  1
" 