1685,Ni15Cr85_2,-233.980064298468, 160.603991716589,Ni15Cr85,"# generated using pymatgen
 data_Cr4Ni23
_symmetry_space_group_name_H-M   'P 1'
_cell_length_a   7.47263197
_cell_length_b   7.47263197
_cell_length_c   10.56789748
_cell_angle_alpha   90.00000000
_cell_angle_beta   90.00000000
_cell_angle_gamma   90.00000000
_symmetry_Int_Tables_number   1
_chemical_formula_structural   Cr4Ni23
_chemical_formula_sum   'Cr8 Ni46'
_cell_volume   590.11381064
_cell_formula_units_Z   2
loop_
 _symmetry_equiv_pos_site_id
 _symmetry_equiv_pos_as_xyz
  1  'x, y, z'
loop_
 _atom_site_type_symbol
 _atom_site_label
 _atom_site_symmetry_multiplicity
 _atom_site_fract_x
 _atom_site_fract_y
 _atom_site_fract_z
 _atom_site_occupancy
  Ni  Ni0  1  0.00206165  0.00223195  0.00023976  1
  Ni  Ni1  1  0.16635759  0.16598297  0.16548770  1
  Ni  Ni2  1  0.99952416  0.99952307  0.33246597  1
  Ni  Ni3  1  0.99906990  0.33118031  0.99919826  1
  Ni  Ni4  1  0.16653861  0.49828247  0.16837151  1
  Ni  Ni5  1  0.99952361  0.33330749  0.33307522  1
  Cr  Cr6  1  0.99906135  0.66587527  0.00067231  1
  Ni  Ni7  1  0.16635739  0.83461469  0.16758268  1
  Ni  Ni8  1  0.00158441  0.66604841  0.33310320  1
  Ni  Ni9  1  0.33052589  0.00223150  0.00023928  1
  Ni  Ni10  1  0.49883258  0.16708692  0.16708510  1
  Ni  Ni11  1  0.33330769  0.99952296  0.33271259  1
  Ni  Ni12  1  0.33351622  0.33117954  0.99919839  1
  Ni  Ni13  1  0.49993933  0.49846716  0.16534484  1
  Ni  Ni14  1  0.33220344  0.33220269  0.33197059  1
  Cr  Cr15  1  0.33352341  0.66587803  0.00067222  1
  Ni  Ni16  1  0.49901573  0.83332473  0.16705081  1
  Ni  Ni17  1  0.33014296  0.66715308  0.33199863  1
  Cr  Cr18  1  0.66629184  0.00130045  0.00135047  1
  Ni  Ni19  1  0.83368887  0.16690586  0.16690381  1
  Ni  Ni20  1  0.66604712  0.00158382  0.33346557  1
  Ni  Ni21  1  0.66629290  0.33476483  0.99952338  1
  Ni  Ni22  1  0.83240128  0.49846710  0.16573543  1
  Ni  Ni23  1  0.66715209  0.33014233  0.33157984  1
  Ni  Ni24  1  0.66629291  0.66247624  0.00095718  1
  Ni  Ni25  1  0.83350555  0.83350562  0.16686954  1
  Cr  Cr26  1  0.66715364  0.66714971  0.33163085  1
  Ni  Ni27  1  0.16614924  0.16626501  0.50000359  1
  Ni  Ni28  1  0.00038461  -0.00027794  0.66617417  1
  Ni  Ni29  1  0.16635745  0.16664476  0.83338725  1
  Ni  Ni30  1  0.16444665  0.49975556  0.49975720  1
  Ni  Ni31  1  0.00115756  0.33351569  0.66660534  1
  Ni  Ni32  1  0.16653874  0.49737648  0.83075043  1
  Ni  Ni33  1  0.16614937  0.83285852  0.49987341  1
  Ni  Ni34  1  0.00056477  0.66564201  0.66535637  1
  Ni  Ni35  1  0.16635814  0.83485958  0.83142353  1
  Ni  Ni36  1  0.49907793  0.16327824  0.49883528  1
  Ni  Ni37  1  0.33244720  -0.00027787  0.66592756  1
  Ni  Ni38  1  0.49752147  0.16853455  0.83295734  1
  Cr  Cr39  1  0.49772495  0.49967456  0.49967711  1
  Ni  Ni40  1  0.33057026  0.33241139  0.66770945  1
  Ni  Ni41  1  0.49973114  0.49787743  0.83359501  1
  Ni  Ni42  1  0.49926105  0.83566076  0.50083250  1
  Ni  Ni43  1  0.33116219  0.66674571  0.66646015  1
  Cr  Cr44  1  0.49850305  0.83249192  0.83100399  1
  Ni  Ni45  1  0.83365163  0.16498120  0.49883546  1
  Ni  Ni46  1  0.66604730  0.99912816  0.66406746  1
  Ni  Ni47  1  0.83499981  0.16835409  0.83313860  1
  Ni  Ni48  1  0.83645366  0.49993838  0.49993874  1
  Cr  Cr49  1  0.66715345  0.33173030  0.66725294  1
  Ni  Ni50  1  0.83260931  0.49787808  0.83320445  1
  Ni  Ni51  1  0.83346834  0.83395917  0.50083215  1
  Ni  Ni52  1  0.66715224  0.66751701  0.66631471  1
  Cr  Cr53  1  0.83426903  0.83291073  0.83142338  1
" 