2727,Ni15Fe13Cr71_1,-210.974793952869, 179.856497247236,Ni15Fe13Cr71,"# generated using pymatgen
 data_Cr39Fe7Ni8
_symmetry_space_group_name_H-M   'P 1'
_cell_length_a   7.56014178
_cell_length_b   7.56014178
_cell_length_c   10.69165504
_cell_angle_alpha   90.00000000
_cell_angle_beta   90.00000000
_cell_angle_gamma   90.00000000
_symmetry_Int_Tables_number   1
_chemical_formula_structural   Cr39Fe7Ni8
_chemical_formula_sum   'Cr39 Fe7 Ni8'
_cell_volume   611.08949519
_cell_formula_units_Z   1
loop_
 _symmetry_equiv_pos_site_id
 _symmetry_equiv_pos_as_xyz
  1  'x, y, z'
loop_
 _atom_site_type_symbol
 _atom_site_label
 _atom_site_symmetry_multiplicity
 _atom_site_fract_x
 _atom_site_fract_y
 _atom_site_fract_z
 _atom_site_occupancy
  Cr  Cr0  1  0.99250220  -0.00454975  -0.00455692  1
  Cr  Cr1  1  0.16030041  0.15944624  0.16396139  1
  Cr  Cr2  1  0.99221868  -0.00497251  0.32831492  1
  Cr  Cr3  1  0.99169066  0.32711245  -0.00180624  1
  Cr  Cr4  1  0.15903662  0.49358568  0.16020688  1
  Cr  Cr5  1  0.99010199  0.32810789  0.32615730  1
  Cr  Cr6  1  -0.00412424  0.65957180  0.99205764  1
  Cr  Cr7  1  0.16069416  0.82866569  0.16246084  1
  Cr  Cr8  1  0.99285978  0.65829413  0.32930132  1
  Cr  Cr9  1  0.32748003  0.99295083  0.99297324  1
  Cr  Cr10  1  0.49292404  0.16097979  0.16153526  1
  Ni  Ni11  1  0.32825327  0.99181528  0.32745661  1
  Cr  Cr12  1  0.32694538  0.32891930  0.99047688  1
  Cr  Cr13  1  0.49730785  0.49411441  0.16440516  1
  Cr  Cr14  1  0.32764944  0.32796736  0.32847803  1
  Cr  Cr15  1  0.32623839  0.66025856  0.99345246  1
  Cr  Cr16  1  0.49497526  0.82688614  0.16395750  1
  Fe  Fe17  1  0.32795464  0.66006158  0.32751291  1
  Cr  Cr18  1  0.66163642  -0.00343251  0.99082898  1
  Fe  Fe19  1  0.82411578  0.16171467  0.16321868  1
  Cr  Cr20  1  0.66172083  -0.00398861  0.32958424  1
  Cr  Cr21  1  0.66204320  0.32554161  -0.00464406  1
  Ni  Ni22  1  0.82500533  0.49201892  0.16302622  1
  Ni  Ni23  1  0.66378290  0.33017988  0.32820210  1
  Cr  Cr24  1  0.66035852  0.65914458  -0.00354991  1
  Cr  Cr25  1  0.82637168  0.82410881  0.16004713  1
  Ni  Ni26  1  0.66401622  0.65763680  0.32811302  1
  Cr  Cr27  1  0.16072049  0.16049041  0.49186435  1
  Cr  Cr28  1  0.99169608  0.99268647  0.65663575  1
  Cr  Cr29  1  0.15913290  0.16147287  0.82582134  1
  Cr  Cr30  1  0.15963153  0.49277054  0.49739485  1
  Cr  Cr31  1  0.99269266  0.32802697  0.65797159  1
  Fe  Fe32  1  0.15900378  0.49533486  0.82516955  1
  Cr  Cr33  1  0.16020252  0.82797093  0.49228367  1
  Fe  Fe34  1  -0.00605948  0.66011929  0.65955270  1
  Ni  Ni35  1  0.15836893  0.82849282  0.82624025  1
  Cr  Cr36  1  0.49202851  0.16223141  0.49531801  1
  Cr  Cr37  1  0.32836061  0.99327439  0.66132947  1
  Fe  Fe38  1  0.49382156  0.16096923  0.82546036  1
  Cr  Cr39  1  0.49607401  0.49340515  0.49157680  1
  Ni  Ni40  1  0.32608890  0.32853111  0.66358606  1
  Cr  Cr41  1  0.49606372  0.49165777  0.82585000  1
  Cr  Cr42  1  0.49460039  0.82607685  0.48909569  1
  Cr  Cr43  1  0.32592862  0.66000880  0.66243972  1
  Cr  Cr44  1  0.49587378  0.82631333  0.82850792  1
  Ni  Ni45  1  0.82570621  0.16435040  0.49249057  1
  Cr  Cr46  1  0.66196700  -0.00559381  0.66009034  1
  Fe  Fe47  1  0.82868424  0.16105150  0.82571445  1
  Ni  Ni48  1  0.82606140  0.49353736  0.49225428  1
  Cr  Cr49  1  0.66049399  0.32594043  0.65894172  1
  Cr  Cr50  1  0.82784861  0.49364950  0.82681692  1
  Fe  Fe51  1  0.82655711  0.82572961  0.49244897  1
  Cr  Cr52  1  0.66227944  0.66091687  0.65606083  1
  Cr  Cr53  1  0.82964015  0.82597297  0.82543934  1
" 