4553,Ni15Fe85_15,-242.551115330827, 202.103578987211,Ni15Fe85,"# generated using pymatgen
 data_Fe4Ni23
_symmetry_space_group_name_H-M   'P 1'
_cell_length_a   7.43170962
_cell_length_b   7.43170962
_cell_length_c   10.51002454
_cell_angle_alpha   90.00000000
_cell_angle_beta   90.00000000
_cell_angle_gamma   90.00000000
_symmetry_Int_Tables_number   1
_chemical_formula_structural   Fe4Ni23
_chemical_formula_sum   'Fe8 Ni46'
_cell_volume   580.47189109
_cell_formula_units_Z   2
loop_
 _symmetry_equiv_pos_site_id
 _symmetry_equiv_pos_as_xyz
  1  'x, y, z'
loop_
 _atom_site_type_symbol
 _atom_site_label
 _atom_site_symmetry_multiplicity
 _atom_site_fract_x
 _atom_site_fract_y
 _atom_site_fract_z
 _atom_site_occupancy
  Fe  Fe0  1  1.00226388  1.00183740  0.00305262  1
  Fe  Fe1  1  0.16924546  0.16948163  0.17005783  1
  Ni  Ni2  1  1.00176440  0.00287156  0.33579040  1
  Ni  Ni3  1  0.00270033  0.33630337  1.00169103  1
  Ni  Ni4  1  0.16885380  0.50338555  0.16933073  1
  Ni  Ni5  1  0.00305854  0.33594946  0.33627832  1
  Ni  Ni6  1  1.00204743  0.66824885  0.00289207  1
  Ni  Ni7  1  0.16938031  0.83490106  0.17017539  1
  Ni  Ni8  1  1.00162010  0.66830892  0.33570968  1
  Ni  Ni9  1  0.33631451  0.00309423  0.00256912  1
  Ni  Ni10  1  0.50338473  0.16852157  0.16996662  1
  Ni  Ni11  1  0.33622429  0.00321102  0.33607087  1
  Ni  Ni12  1  0.33504729  0.33482428  1.00215827  1
  Ni  Ni13  1  0.50148696  0.50238795  0.16900878  1
  Ni  Ni14  1  0.33451072  0.33530595  0.33601866  1
  Ni  Ni15  1  0.33478210  0.66928356  1.00205558  1
  Ni  Ni16  1  0.50158832  0.83622841  0.16853788  1
  Ni  Ni17  1  0.33572124  0.66870477  0.33606941  1
  Ni  Ni18  1  0.66858979  0.00249189  1.00206744  1
  Ni  Ni19  1  0.83538677  0.16905744  0.16949023  1
  Ni  Ni20  1  0.66906661  1.00180200  0.33603662  1
  Ni  Ni21  1  0.66947943  0.33498172  0.00285020  1
  Ni  Ni22  1  0.83676023  0.50160742  0.16911865  1
  Fe  Fe23  1  0.66894565  0.33611551  0.33603798  1
  Ni  Ni24  1  0.67028654  0.66963661  1.00164164  1
  Ni  Ni25  1  0.83622340  0.83645954  0.16930385  1
  Ni  Ni26  1  0.66969153  0.67009465  0.33545588  1
  Ni  Ni27  1  0.16859681  0.16917813  0.50241023  1
  Fe  Fe28  1  1.00219154  1.00187258  0.66847597  1
  Fe  Fe29  1  0.16978169  0.16904508  0.83521840  1
  Ni  Ni30  1  0.16881730  0.50244645  0.50238219  1
  Fe  Fe31  1  1.00207281  0.33648194  0.66864454  1
  Ni  Ni32  1  0.16878618  0.50358158  0.83531426  1
  Fe  Fe33  1  0.16970402  0.83563424  0.50183393  1
  Ni  Ni34  1  1.00186835  0.66857379  0.66846445  1
  Ni  Ni35  1  0.16912999  0.83502259  0.83512156  1
  Ni  Ni36  1  0.50251770  0.16812984  0.50211165  1
  Ni  Ni37  1  0.33636836  0.00325682  0.66861563  1
  Ni  Ni38  1  0.50356108  0.16872115  0.83512730  1
  Ni  Ni39  1  0.50177737  0.50308174  0.50264243  1
  Ni  Ni40  1  0.33560370  0.33497329  0.66908147  1
  Ni  Ni41  1  0.50178499  0.50196819  0.83552701  1
  Ni  Ni42  1  0.50159786  0.83596491  0.50270921  1
  Ni  Ni43  1  0.33489991  0.66902892  0.66899081  1
  Ni  Ni44  1  0.50142873  0.83643899  0.83588195  1
  Ni  Ni45  1  0.83595483  0.16888822  0.50218263  1
  Ni  Ni46  1  0.66879074  0.00261502  0.66898673  1
  Ni  Ni47  1  0.83520033  0.16892345  0.83540296  1
  Ni  Ni48  1  0.83651885  0.50154352  0.50219608  1
  Ni  Ni49  1  0.66893309  0.33517899  0.66833115  1
  Ni  Ni50  1  0.83655292  0.50155678  0.83571887  1
  Fe  Fe51  1  0.83459811  0.83527705  0.50210853  1
  Ni  Ni52  1  0.67024217  0.66927525  0.66996897  1
  Ni  Ni53  1  0.83668199  0.83663094  0.83550113  1
" 