3299,Ni15Cr85_17,-233.851766218579, 159.571954089661,Ni15Cr85,"# generated using pymatgen
 data_Cr4Ni23
_symmetry_space_group_name_H-M   'P 1'
_cell_length_a   7.47276330
_cell_length_b   7.47276330
_cell_length_c   10.56808320
_cell_angle_alpha   90.00000000
_cell_angle_beta   90.00000000
_cell_angle_gamma   90.00000000
_symmetry_Int_Tables_number   1
_chemical_formula_structural   Cr4Ni23
_chemical_formula_sum   'Cr8 Ni46'
_cell_volume   590.14492380
_cell_formula_units_Z   2
loop_
 _symmetry_equiv_pos_site_id
 _symmetry_equiv_pos_as_xyz
  1  'x, y, z'
loop_
 _atom_site_type_symbol
 _atom_site_label
 _atom_site_symmetry_multiplicity
 _atom_site_fract_x
 _atom_site_fract_y
 _atom_site_fract_z
 _atom_site_occupancy
  Ni  Ni0  1  0.99888146  0.99843333  0.99684925  1
  Cr  Cr1  1  0.16634517  0.16712378  0.16566293  1
  Ni  Ni2  1  0.99846415  0.00038905  0.33555575  1
  Ni  Ni3  1  0.99921867  0.33391343  0.99944364  1
  Ni  Ni4  1  0.16647588  0.49981307  0.16477496  1
  Ni  Ni5  1  0.99808134  0.33277700  0.33436864  1
  Ni  Ni6  1  0.99803756  0.66650683  -0.00029121  1
  Cr  Cr7  1  0.16748544  0.83230480  0.16527570  1
  Cr  Cr8  1  0.99901869  0.66529856  0.33313764  1
  Ni  Ni9  1  0.33368697  0.00079883  0.99888315  1
  Ni  Ni10  1  0.50048657  0.16545977  0.16520689  1
  Ni  Ni11  1  0.33489486  0.99827696  0.33453585  1
  Ni  Ni12  1  0.33453203  0.33272951  -0.00029203  1
  Ni  Ni13  1  0.50031616  0.50099288  0.16526702  1
  Cr  Cr14  1  0.33333478  0.33372326  0.33313952  1
  Ni  Ni15  1  0.33334900  0.66532433  0.00102538  1
  Ni  Ni16  1  0.50103361  0.83239976  0.16681020  1
  Ni  Ni17  1  0.33527584  0.66725202  0.33357528  1
  Ni  Ni18  1  0.66628398  0.99961721  0.00032495  1
  Cr  Cr19  1  0.83194502  0.16647847  0.16706056  1
  Ni  Ni20  1  0.66549355  0.99882694  0.33315392  1
  Ni  Ni21  1  0.66510241  0.33357453  0.99866280  1
  Ni  Ni22  1  0.83206024  0.50035831  0.16543397  1
  Ni  Ni23  1  0.66705842  0.33315858  0.33374084  1
  Ni  Ni24  1  0.66746677  0.66566038  0.00069396  1
  Ni  Ni25  1  0.83015830  0.83184966  0.16520678  1
  Ni  Ni26  1  0.66494512  0.66686720  0.33272429  1
  Ni  Ni27  1  0.16510113  0.16520882  0.50037259  1
  Ni  Ni28  1  0.00160137  0.99922523  0.66645046  1
  Ni  Ni29  1  0.16592495  0.16427121  0.83304547  1
  Ni  Ni30  1  0.16628395  0.49961720  0.50061003  1
  Ni  Ni31  1  0.99918842  0.33252042  0.66504230  1
  Cr  Cr32  1  0.16648032  0.49981360  0.83321808  1
  Ni  Ni33  1  0.16746666  0.83402651  0.50070624  1
  Ni  Ni34  1  0.99902068  0.66710747  0.66579549  1
  Ni  Ni35  1  0.16452659  0.83515846  0.83287903  1
  Ni  Ni36  1  0.49949883  0.16605859  0.49939043  1
  Ni  Ni37  1  0.33017651  0.00057598  0.66543376  1
  Ni  Ni38  1  0.49889914  0.16858031  0.83425561  1
  Ni  Ni39  1  0.50034845  0.50080008  0.50067915  1
  Ni  Ni40  1  0.33377269  0.33235273  0.66579546  1
  Ni  Ni41  1  0.50148030  0.49785876  0.83290562  1
  Ni  Ni42  1  0.49831620  0.83199403  0.49795474  1
  Ni  Ni43  1  0.33258934  0.66592402  0.66425031  1
  Cr  Cr44  1  0.49858451  0.83178948  0.83361783  1
  Ni  Ni45  1  0.83425222  0.16724060  0.49834092  1
  Cr  Cr46  1  0.66707493  0.00040835  0.66583161  1
  Ni  Ni47  1  0.83402845  0.16701712  0.83389563  1
  Ni  Ni48  1  0.83222019  0.49843478  0.50034539  1
  Ni  Ni49  1  0.66589175  0.33493339  0.66645044  1
  Ni  Ni50  1  0.83128269  0.49925835  0.83307211  1
  Ni  Ni51  1  0.83306991  0.83317690  0.49939034  1
  Ni  Ni52  1  0.66724339  0.66351070  0.66543309  1
  Ni  Ni53  1  0.83559298  0.83257697  0.83425576  1
" 