2454,Ni15Fe13Cr71_15,-210.750012460343, 178.725562442761,Ni15Fe13Cr71,"# generated using pymatgen
 data_Cr39Fe7Ni8
_symmetry_space_group_name_H-M   'P 1'
_cell_length_a   7.56261698
_cell_length_b   7.56261698
_cell_length_c   10.69515550
_cell_angle_alpha   90.00000000
_cell_angle_beta   90.00000000
_cell_angle_gamma   90.00000000
_symmetry_Int_Tables_number   1
_chemical_formula_structural   Cr39Fe7Ni8
_chemical_formula_sum   'Cr39 Fe7 Ni8'
_cell_volume   611.68990691
_cell_formula_units_Z   1
loop_
 _symmetry_equiv_pos_site_id
 _symmetry_equiv_pos_as_xyz
  1  'x, y, z'
loop_
 _atom_site_type_symbol
 _atom_site_label
 _atom_site_symmetry_multiplicity
 _atom_site_fract_x
 _atom_site_fract_y
 _atom_site_fract_z
 _atom_site_occupancy
  Cr  Cr0  1  -0.00471345  -0.00427798  -0.00352687  1
  Ni  Ni1  1  0.15874991  0.16275306  0.16040503  1
  Cr  Cr2  1  -0.00567228  -0.00390877  0.32635526  1
  Fe  Fe3  1  -0.00597815  0.32537449  -0.00504179  1
  Cr  Cr4  1  0.16105918  0.49353023  0.15824875  1
  Cr  Cr5  1  -0.00584284  0.32498663  0.32681097  1
  Cr  Cr6  1  -0.00490608  0.66121534  0.99213330  1
  Cr  Cr7  1  0.16249332  0.82466158  0.16122252  1
  Cr  Cr8  1  0.99348185  0.65933332  0.32879132  1
  Cr  Cr9  1  0.32654072  0.99335956  0.99303050  1
  Cr  Cr10  1  0.49522253  0.16159764  0.15948689  1
  Cr  Cr11  1  0.32465830  -0.00418497  0.32546441  1
  Cr  Cr12  1  0.32842275  0.32645068  0.99282090  1
  Cr  Cr13  1  0.49284668  0.49388095  0.16134096  1
  Cr  Cr14  1  0.32638349  0.32701469  0.32847461  1
  Ni  Ni15  1  0.32924692  0.65938901  0.99210431  1
  Cr  Cr16  1  0.49248039  0.82587256  0.16273020  1
  Ni  Ni17  1  0.32720401  0.65849191  0.32749219  1
  Cr  Cr18  1  0.65919959  -0.00554183  0.99342401  1
  Fe  Fe19  1  0.82778317  0.16254153  0.15900763  1
  Cr  Cr20  1  0.66235012  -0.00434333  0.32537309  1
  Ni  Ni21  1  0.66008899  0.32674919  0.99305796  1
  Cr  Cr22  1  0.82678353  0.49127040  0.15806215  1
  Cr  Cr23  1  0.66066977  0.32764285  0.32882119  1
  Cr  Cr24  1  0.65727285  0.65947195  0.99082015  1
  Cr  Cr25  1  0.82572511  0.82676123  0.16068202  1
  Cr  Cr26  1  0.65926353  0.65801364  0.33027606  1
  Fe  Fe27  1  0.16139367  0.15955000  0.49505175  1
  Cr  Cr28  1  -0.00499451  -0.00500354  0.65804505  1
  Cr  Cr29  1  0.16164067  0.16203049  0.82337322  1
  Cr  Cr30  1  0.16217978  0.49251612  0.49402347  1
  Cr  Cr31  1  -0.00572956  0.32651428  0.65724294  1
  Cr  Cr32  1  0.16084026  0.49183158  0.82881923  1
  Cr  Cr33  1  0.16283368  0.82665711  0.49433350  1
  Cr  Cr34  1  0.99227751  0.65932043  0.66005362  1
  Cr  Cr35  1  0.16240885  0.82688607  0.82560304  1
  Cr  Cr36  1  0.49336223  0.16034148  0.49613317  1
  Ni  Ni37  1  0.32867893  -0.00394761  0.66161942  1
  Fe  Fe38  1  0.49278343  0.16087280  0.82614120  1
  Fe  Fe39  1  0.49208413  0.49346725  0.49414711  1
  Ni  Ni40  1  0.32859622  0.32529897  0.66018189  1
  Fe  Fe41  1  0.49285653  0.49236638  0.82779862  1
  Cr  Cr42  1  0.49204948  0.82849852  0.49148070  1
  Cr  Cr43  1  0.32937886  0.65884056  0.66262416  1
  Ni  Ni44  1  0.49107949  0.82767683  0.82681794  1
  Ni  Ni45  1  0.82668000  0.16340767  0.49256453  1
  Cr  Cr46  1  0.65901333  -0.00615523  0.66254077  1
  Cr  Cr47  1  0.82522852  0.16234928  0.82959912  1
  Fe  Fe48  1  0.82651201  0.49200042  0.49387850  1
  Cr  Cr49  1  0.65830097  0.32878858  0.65961890  1
  Cr  Cr50  1  0.82751591  0.49109723  0.82825973  1
  Cr  Cr51  1  0.82610166  0.82892357  0.49457037  1
  Cr  Cr52  1  0.65915674  0.65872894  0.66045712  1
  Cr  Cr53  1  0.82575624  0.82783516  0.82595215  1
" 