5100,Ni15Fe85_11,-242.366511022258, 200.317558774294,Ni15Fe85,"# generated using pymatgen
 data_Fe4Ni23
_symmetry_space_group_name_H-M   'P 1'
_cell_length_a   7.43364613
_cell_length_b   7.43364613
_cell_length_c   10.51276317
_cell_angle_alpha   90.00000000
_cell_angle_beta   90.00000000
_cell_angle_gamma   90.00000000
_symmetry_Int_Tables_number   1
_chemical_formula_structural   Fe4Ni23
_chemical_formula_sum   'Fe8 Ni46'
_cell_volume   580.92577581
_cell_formula_units_Z   2
loop_
 _symmetry_equiv_pos_site_id
 _symmetry_equiv_pos_as_xyz
  1  'x, y, z'
loop_
 _atom_site_type_symbol
 _atom_site_label
 _atom_site_symmetry_multiplicity
 _atom_site_fract_x
 _atom_site_fract_y
 _atom_site_fract_z
 _atom_site_occupancy
  Ni  Ni0  1  1.00133685  0.00259517  0.00236133  1
  Ni  Ni1  1  0.16863940  0.16873816  0.16929921  1
  Ni  Ni2  1  1.00095265  0.00342479  0.33511570  1
  Ni  Ni3  1  0.00352612  0.33520076  0.00238659  1
  Ni  Ni4  1  0.16868900  0.50241139  0.16887571  1
  Fe  Fe5  1  1.00200286  0.33579269  0.33495077  1
  Ni  Ni6  1  1.00170070  0.66891374  0.00352032  1
  Ni  Ni7  1  0.16918963  0.83549522  0.16942040  1
  Fe  Fe8  1  0.00237735  0.66916340  0.33517904  1
  Ni  Ni9  1  0.33543193  0.00333703  0.00357909  1
  Ni  Ni10  1  0.50268455  0.16855011  0.16977593  1
  Fe  Fe11  1  0.33666903  1.00141897  0.33547127  1
  Ni  Ni12  1  0.33485094  0.33596312  0.00236155  1
  Ni  Ni13  1  0.50269615  0.50258602  0.16914440  1
  Ni  Ni14  1  0.33477064  0.33644942  0.33576578  1
  Ni  Ni15  1  0.33580628  0.66746471  0.00239157  1
  Ni  Ni16  1  0.50241989  0.83535709  0.16872141  1
  Ni  Ni17  1  0.33639170  0.66594591  0.33552705  1
  Ni  Ni18  1  0.66998438  1.00157821  0.00239526  1
  Ni  Ni19  1  0.83550470  0.16907072  0.16866688  1
  Ni  Ni20  1  0.67136638  1.00169040  0.33586513  1
  Fe  Fe21  1  0.66883885  0.33557834  1.00144337  1
  Ni  Ni22  1  0.83531967  0.50229759  0.16909997  1
  Fe  Fe23  1  0.66810238  0.33554047  0.33663531  1
  Ni  Ni24  1  0.66921361  0.66958158  0.00236395  1
  Ni  Ni25  1  0.83534990  0.83549347  0.16935497  1
  Ni  Ni26  1  0.66849648  0.66949755  0.33589407  1
  Ni  Ni27  1  0.16805966  0.16926362  0.50215934  1
  Ni  Ni28  1  1.00156883  0.00226339  0.66925295  1
  Ni  Ni29  1  0.16897217  0.16842872  0.83530556  1
  Ni  Ni30  1  0.16820124  0.50192295  0.50255560  1
  Fe  Fe31  1  1.00200253  0.33576364  0.66952566  1
  Ni  Ni32  1  0.16830072  0.50279057  0.83536575  1
  Fe  Fe33  1  0.16948506  0.83561062  0.50249543  1
  Ni  Ni34  1  1.00188524  0.66956097  0.66799734  1
  Ni  Ni35  1  0.16924820  0.83557247  0.83544414  1
  Ni  Ni36  1  0.50225813  0.16775912  0.50202505  1
  Ni  Ni37  1  0.33507769  0.00341235  0.66770256  1
  Ni  Ni38  1  0.50197681  0.16786633  0.83483538  1
  Ni  Ni39  1  0.50227510  0.50336154  0.50264517  1
  Ni  Ni40  1  0.33592612  0.33593321  0.66861140  1
  Ni  Ni41  1  0.50234183  0.50293050  0.83483405  1
  Ni  Ni42  1  0.50217845  0.83536059  0.50269289  1
  Ni  Ni43  1  0.33542846  0.66739915  0.66887145  1
  Ni  Ni44  1  0.50185830  0.83594413  0.83534188  1
  Ni  Ni45  1  0.83638326  0.16936333  0.50272790  1
  Ni  Ni46  1  0.67002959  0.00265683  0.66848611  1
  Ni  Ni47  1  0.83576670  0.16879247  0.83525238  1
  Ni  Ni48  1  0.83610968  0.50217931  0.50228224  1
  Ni  Ni49  1  0.66777471  0.33558127  0.66818593  1
  Ni  Ni50  1  0.83607243  0.50279286  0.83530939  1
  Fe  Fe51  1  0.83482909  0.83592577  0.50238071  1
  Ni  Ni52  1  0.66937475  0.66853741  0.66846545  1
  Ni  Ni53  1  0.83562191  0.83520950  0.83500095  1
" 