2189,Ni15Fe13Cr71_13,-210.780147130929, 176.244041116655,Ni15Fe13Cr71,"# generated using pymatgen
 data_Cr39Fe7Ni8
_symmetry_space_group_name_H-M   'P 1'
_cell_length_a   7.55720548
_cell_length_b   7.55720548
_cell_length_c   10.68750249
_cell_angle_alpha   90.00000000
_cell_angle_beta   90.00000000
_cell_angle_gamma   90.00000000
_symmetry_Int_Tables_number   1
_chemical_formula_structural   Cr39Fe7Ni8
_chemical_formula_sum   'Cr39 Fe7 Ni8'
_cell_volume   610.37774531
_cell_formula_units_Z   1
loop_
 _symmetry_equiv_pos_site_id
 _symmetry_equiv_pos_as_xyz
  1  'x, y, z'
loop_
 _atom_site_type_symbol
 _atom_site_label
 _atom_site_symmetry_multiplicity
 _atom_site_fract_x
 _atom_site_fract_y
 _atom_site_fract_z
 _atom_site_occupancy
  Cr  Cr0  1  -0.00587005  -0.00524469  -0.00490538  1
  Cr  Cr1  1  0.15922707  0.16389989  0.15715649  1
  Cr  Cr2  1  0.99385522  -0.00340402  0.32873380  1
  Ni  Ni3  1  -0.00438307  0.32891154  -0.00433436  1
  Ni  Ni4  1  0.16147953  0.49354821  0.16093075  1
  Cr  Cr5  1  -0.00578512  0.32740989  0.32903122  1
  Cr  Cr6  1  -0.00474025  0.65722761  -0.00537193  1
  Fe  Fe7  1  0.16100717  0.82516051  0.16194301  1
  Cr  Cr8  1  -0.00134190  0.65823734  0.32525236  1
  Cr  Cr9  1  0.32747244  0.99329210  0.99324117  1
  Cr  Cr10  1  0.49378314  0.16255989  0.15845747  1
  Cr  Cr11  1  0.32624450  0.99210792  0.32727401  1
  Ni  Ni12  1  0.32371701  0.32952850  -0.00517770  1
  Cr  Cr13  1  0.49006018  0.49330050  0.16224318  1
  Cr  Cr14  1  0.32466332  0.33071594  0.32873040  1
  Cr  Cr15  1  0.32592662  0.65955863  -0.00295024  1
  Cr  Cr16  1  0.49277555  0.82626742  0.16333896  1
  Ni  Ni17  1  0.32363444  0.65970177  0.32695816  1
  Cr  Cr18  1  0.66051167  -0.00564864  -0.00484314  1
  Ni  Ni19  1  0.83067810  0.16146760  0.16085650  1
  Cr  Cr20  1  0.66188074  -0.00324573  0.32700824  1
  Cr  Cr21  1  0.66257427  0.32806160  -0.00556168  1
  Cr  Cr22  1  0.83049852  0.49179335  0.15851301  1
  Cr  Cr23  1  0.66309377  0.32573968  0.32715509  1
  Cr  Cr24  1  0.66106328  0.65949990  0.99170082  1
  Cr  Cr25  1  0.82912731  0.82890428  0.16173105  1
  Cr  Cr26  1  0.65869685  0.65958209  0.32642100  1
  Fe  Fe27  1  0.16127949  0.16309969  0.49535980  1
  Cr  Cr28  1  -0.00506268  0.99397331  0.65854086  1
  Cr  Cr29  1  0.16176457  0.16418690  0.82898825  1
  Fe  Fe30  1  0.16231152  0.49539876  0.49530134  1
  Cr  Cr31  1  -0.00563278  0.32944412  0.65819357  1
  Cr  Cr32  1  0.16018176  0.49162111  0.82688081  1
  Cr  Cr33  1  0.16000144  0.82504853  0.49415674  1
  Ni  Ni34  1  -0.00585003  0.65807675  0.66093808  1
  Cr  Cr35  1  0.15877355  0.82623723  0.82653692  1
  Cr  Cr36  1  0.49303454  0.16360514  0.49550380  1
  Cr  Cr37  1  0.32687391  -0.00476185  0.66146985  1
  Cr  Cr38  1  0.49149070  0.16472835  0.82825596  1
  Cr  Cr39  1  0.49222899  0.49392302  0.49502445  1
  Ni  Ni40  1  0.32845634  0.33032897  0.65876762  1
  Cr  Cr41  1  0.49401936  0.49172815  0.82461587  1
  Cr  Cr42  1  0.49367008  0.82440792  0.49390348  1
  Fe  Fe43  1  0.32523856  0.65715081  0.65949774  1
  Cr  Cr44  1  0.49464579  0.82535382  0.82466707  1
  Fe  Fe45  1  0.82672455  0.16201370  0.49498425  1
  Cr  Cr46  1  0.66024878  -0.00424511  0.66033827  1
  Cr  Cr47  1  0.82888238  0.16318821  0.82866452  1
  Cr  Cr48  1  0.82748491  0.49478488  0.49691433  1
  Ni  Ni49  1  0.65960153  0.33022836  0.66084647  1
  Fe  Fe50  1  0.82842421  0.49281110  0.82526658  1
  Cr  Cr51  1  0.82850206  0.82612358  0.49514056  1
  Fe  Fe52  1  0.66204159  0.65693659  0.66112885  1
  Cr  Cr53  1  0.82870307  0.82356340  0.82447025  1
" 