4964,Ni15Fe85_10,-242.469886292175, 202.4617662496,Ni15Fe85,"# generated using pymatgen
 data_Fe4Ni23
_symmetry_space_group_name_H-M   'P 1'
_cell_length_a   7.43129680
_cell_length_b   7.43129680
_cell_length_c   10.50944072
_cell_angle_alpha   90.00000000
_cell_angle_beta   90.00000000
_cell_angle_gamma   90.00000000
_symmetry_Int_Tables_number   1
_chemical_formula_structural   Fe4Ni23
_chemical_formula_sum   'Fe8 Ni46'
_cell_volume   580.37516364
_cell_formula_units_Z   2
loop_
 _symmetry_equiv_pos_site_id
 _symmetry_equiv_pos_as_xyz
  1  'x, y, z'
loop_
 _atom_site_type_symbol
 _atom_site_label
 _atom_site_symmetry_multiplicity
 _atom_site_fract_x
 _atom_site_fract_y
 _atom_site_fract_z
 _atom_site_occupancy
  Ni  Ni0  1  1.00146988  0.00266715  1.00110622  1
  Fe  Fe1  1  0.16947738  0.16906719  0.16898734  1
  Ni  Ni2  1  1.00181706  1.00218511  0.33644424  1
  Ni  Ni3  1  0.00268838  0.33620448  1.00225789  1
  Ni  Ni4  1  0.16888495  0.50285479  0.16892419  1
  Ni  Ni5  1  0.00244371  0.33633449  0.33650698  1
  Ni  Ni6  1  1.00198530  0.66832866  0.00244824  1
  Ni  Ni7  1  0.16849791  0.83575752  0.16842785  1
  Ni  Ni8  1  0.00241332  0.66873327  0.33536547  1
  Ni  Ni9  1  0.33676557  0.00244170  1.00235608  1
  Ni  Ni10  1  0.50183295  0.16946627  0.16875619  1
  Ni  Ni11  1  0.33628307  0.00240645  0.33575369  1
  Ni  Ni12  1  0.33477612  0.33582019  1.00150886  1
  Ni  Ni13  1  0.50257880  0.50152917  0.16845019  1
  Ni  Ni14  1  0.33555379  0.33610082  0.33636998  1
  Ni  Ni15  1  0.33614447  0.66903358  1.00233127  1
  Ni  Ni16  1  0.50229806  0.83623006  0.16965481  1
  Ni  Ni17  1  0.33568687  0.66873329  0.33552237  1
  Ni  Ni18  1  0.66890854  1.00164226  1.00238932  1
  Fe  Fe19  1  0.83565600  0.16858232  0.16931311  1
  Ni  Ni20  1  0.66910453  1.00227046  0.33587619  1
  Fe  Fe21  1  0.66911320  0.33597930  1.00237146  1
  Ni  Ni22  1  0.83575110  0.50307937  0.16962317  1
  Ni  Ni23  1  0.66920846  0.33543414  0.33523283  1
  Ni  Ni24  1  0.66904762  0.67043663  1.00159979  1
  Ni  Ni25  1  0.83643410  0.83481735  0.16846051  1
  Ni  Ni26  1  0.66913992  0.66943575  0.33669955  1
  Ni  Ni27  1  0.17022398  0.16875592  0.50215667  1
  Fe  Fe28  1  0.00340282  0.00335674  0.66930098  1
  Ni  Ni29  1  0.17011239  0.16861503  0.83567629  1
  Ni  Ni30  1  0.16929468  0.50294728  0.50252280  1
  Ni  Ni31  1  1.00197134  0.33689588  0.66851608  1
  Fe  Fe32  1  0.16829682  0.50232890  0.83572587  1
  Ni  Ni33  1  0.16845835  0.83562242  0.50218099  1
  Ni  Ni34  1  0.00269417  0.66817196  0.66942283  1
  Ni  Ni35  1  0.16934145  0.83607644  0.83651057  1
  Ni  Ni36  1  0.50228672  0.17020315  0.50256623  1
  Ni  Ni37  1  0.33760014  1.00217546  0.66915632  1
  Ni  Ni38  1  0.50183202  0.16915278  0.83593430  1
  Ni  Ni39  1  0.50250972  0.50061132  0.50258882  1
  Ni  Ni40  1  0.33536811  0.33558917  0.66902679  1
  Fe  Fe41  1  0.50231019  0.50257392  0.83543855  1
  Fe  Fe42  1  0.50208976  0.83583042  0.50237074  1
  Ni  Ni43  1  0.33427158  0.66953373  0.66927835  1
  Ni  Ni44  1  0.50177328  0.83673513  0.83567902  1
  Ni  Ni45  1  0.83492186  0.16925994  0.50231746  1
  Ni  Ni46  1  0.66896992  0.00277588  0.66919433  1
  Ni  Ni47  1  0.83542437  0.16984549  0.83615724  1
  Ni  Ni48  1  0.83529515  0.50258335  0.50188064  1
  Ni  Ni49  1  0.66980552  0.33396316  0.66976076  1
  Ni  Ni50  1  0.83573424  0.50242117  0.83587701  1
  Ni  Ni51  1  0.83703519  0.83529969  0.50314821  1
  Fe  Fe52  1  0.66871784  0.66807900  0.66919062  1
  Ni  Ni53  1  0.83619010  0.83491767  0.83557652  1
" 