8756,Ni15Cr85_0,-233.97087736066, 162.485807871561,Ni15Cr85,"# generated using pymatgen
 data_Cr4Ni23
_symmetry_space_group_name_H-M   'P 1'
_cell_length_a   7.47260665
_cell_length_b   7.47260665
_cell_length_c   10.56786168
_cell_angle_alpha   90.00000000
_cell_angle_beta   90.00000000
_cell_angle_gamma   90.00000000
_symmetry_Int_Tables_number   1
_chemical_formula_structural   Cr4Ni23
_chemical_formula_sum   'Cr8 Ni46'
_cell_volume   590.10781299
_cell_formula_units_Z   2
loop_
 _symmetry_equiv_pos_site_id
 _symmetry_equiv_pos_as_xyz
  1  'x, y, z'
loop_
 _atom_site_type_symbol
 _atom_site_label
 _atom_site_symmetry_multiplicity
 _atom_site_fract_x
 _atom_site_fract_y
 _atom_site_fract_z
 _atom_site_occupancy
  Ni  Ni0  1  -0.00036988  0.99805288  0.99805507  1
  Cr  Cr1  1  0.16795883  0.16608088  0.16694095  1
  Ni  Ni2  1  0.00034815  0.99925336  0.33403572  1
  Ni  Ni3  1  0.99862068  0.33375090  0.99873137  1
  Ni  Ni4  1  0.16569794  0.50082575  0.16592657  1
  Ni  Ni5  1  -0.00036963  0.33431220  0.33521271  1
  Ni  Ni6  1  0.99895036  0.66708015  0.00108987  1
  Ni  Ni7  1  0.16569744  0.83198777  0.16543615  1
  Ni  Ni8  1  0.99722603  0.66531785  0.33178409  1
  Ni  Ni9  1  0.33380581  0.99890021  0.99923587  1
  Ni  Ni10  1  0.49849315  0.16708348  0.16560175  1
  Ni  Ni11  1  0.33210882  0.00081398  0.33200672  1
  Ni  Ni12  1  0.33481455  0.33290422  -0.00008791  1
  Ni  Ni13  1  0.50035670  0.49893906  0.16579547  1
  Ni  Ni14  1  0.33282697  0.33275459  0.33318546  1
  Ni  Ni15  1  0.33364025  0.66708025  0.00050557  1
  Ni  Ni16  1  0.49934538  0.83286314  0.16511389  1
  Cr  Cr17  1  0.33360484  0.66570424  0.33200754  1
  Ni  Ni18  1  0.66544767  0.99922903  0.99876842  1
  Cr  Cr19  1  0.83196051  0.16708500  0.16571753  1
  Cr  Cr20  1  0.66627174  0.99823367  0.33317674  1
  Ni  Ni21  1  0.66544762  0.33358376  0.99925882  1
  Ni  Ni22  1  0.83282837  0.50167673  0.16663997  1
  Ni  Ni23  1  0.66642616  0.33587581  0.33260282  1
  Ni  Ni24  1  0.66629356  0.66607122  -0.00014607  1
  Ni  Ni25  1  0.83384056  0.83012499  0.16596005  1
  Ni  Ni26  1  0.66798351  0.66459985  0.33341407  1
  Ni  Ni27  1  0.16460234  0.16820781  0.49953368  1
  Ni  Ni28  1  0.99903233  0.00044945  0.66679381  1
  Ni  Ni29  1  0.16629602  0.16461058  0.83237660  1
  Ni  Ni30  1  0.16531809  0.49677646  0.50022140  1
  Ni  Ni31  1  0.00075863  0.33195097  0.66493975  1
  Cr  Cr32  1  0.16629381  0.49975492  0.83274631  1
  Cr  Cr33  1  0.16570272  0.83381817  0.50036646  1
  Ni  Ni34  1  0.99835274  0.66648291  0.66601092  1
  Ni  Ni35  1  0.16629485  0.83499018  0.83331995  1
  Cr  Cr36  1  0.49798001  0.16610098  0.49881390  1
  Ni  Ni37  1  0.33282822  0.99927251  0.66764183  1
  Ni  Ni38  1  0.49891279  0.16531773  0.83427228  1
  Ni  Ni39  1  0.49976035  0.50107167  0.49950888  1
  Ni  Ni40  1  0.33110369  0.33312843  0.66578559  1
  Ni  Ni41  1  0.50046946  0.50013294  0.83358038  1
  Ni  Ni42  1  0.50148378  0.83132359  0.50136740  1
  Ni  Ni43  1  0.33468479  0.66648263  0.66614318  1
  Ni  Ni44  1  0.49976020  0.83343377  0.83240260  1
  Ni  Ni45  1  0.83638141  0.16648575  0.49959492  1
  Ni  Ni46  1  0.66702525  0.99686800  0.66692815  1
  Ni  Ni47  1  0.83367559  0.16531748  0.83355585  1
  Ni  Ni48  1  0.83380539  0.50035718  0.49833152  1
  Cr  Cr49  1  0.66725464  0.33358074  0.66725567  1
  Ni  Ni50  1  0.83211971  0.50013401  0.83391372  1
  Ni  Ni51  1  0.83208553  0.83204035  0.50018884  1
  Ni  Ni52  1  0.66584665  0.66820753  0.66561590  1
  Ni  Ni53  1  0.83282901  0.83343239  0.83273537  1
" 