3908,Ni15Fe85_17,-242.45676147984, 201.309082351714,Ni15Fe85,"# generated using pymatgen
 data_Fe4Ni23
_symmetry_space_group_name_H-M   'P 1'
_cell_length_a   7.43244515
_cell_length_b   7.43244515
_cell_length_c   10.51106474
_cell_angle_alpha   90.00000000
_cell_angle_beta   90.00000000
_cell_angle_gamma   90.00000000
_symmetry_Int_Tables_number   1
_chemical_formula_structural   Fe4Ni23
_chemical_formula_sum   'Fe8 Ni46'
_cell_volume   580.64426011
_cell_formula_units_Z   2
loop_
 _symmetry_equiv_pos_site_id
 _symmetry_equiv_pos_as_xyz
  1  'x, y, z'
loop_
 _atom_site_type_symbol
 _atom_site_label
 _atom_site_symmetry_multiplicity
 _atom_site_fract_x
 _atom_site_fract_y
 _atom_site_fract_z
 _atom_site_occupancy
  Ni  Ni0  1  1.00185185  0.00303445  1.00153386  1
  Ni  Ni1  1  0.17022752  0.16934873  0.16869400  1
  Ni  Ni2  1  1.00225978  0.00249819  0.33586510  1
  Ni  Ni3  1  1.00190887  0.33556687  0.00291183  1
  Ni  Ni4  1  0.16859375  0.50172081  0.16910096  1
  Ni  Ni5  1  1.00191128  0.33563632  0.33505105  1
  Ni  Ni6  1  1.00222469  0.66853179  1.00164313  1
  Ni  Ni7  1  0.16853052  0.83593645  0.16793293  1
  Ni  Ni8  1  1.00212798  0.66887147  0.33589873  1
  Ni  Ni9  1  0.33620228  0.00247385  1.00209704  1
  Ni  Ni10  1  0.50105962  0.16876730  0.16894559  1
  Ni  Ni11  1  0.33593195  1.00227084  0.33548598  1
  Ni  Ni12  1  0.33583639  0.33569082  1.00167830  1
  Ni  Ni13  1  0.50237664  0.50188282  0.16819856  1
  Ni  Ni14  1  0.33633751  0.33586849  0.33585909  1
  Ni  Ni15  1  0.33636287  0.66886288  1.00217667  1
  Ni  Ni16  1  0.50282051  0.83632685  0.16930427  1
  Ni  Ni17  1  0.33632079  0.66883451  0.33502035  1
  Fe  Fe18  1  0.66886803  1.00209027  1.00211552  1
  Fe  Fe19  1  0.83612040  0.16877380  0.16958007  1
  Ni  Ni20  1  0.66878855  0.00253149  0.33544648  1
  Fe  Fe21  1  0.66910497  0.33546926  0.00287626  1
  Ni  Ni22  1  0.83615994  0.50349705  0.16904340  1
  Ni  Ni23  1  0.66877746  0.33597222  0.33581857  1
  Fe  Fe24  1  0.66939624  0.66929087  0.00254975  1
  Ni  Ni25  1  0.83572039  0.83472612  0.16898733  1
  Ni  Ni26  1  0.66853016  0.66848605  0.33550359  1
  Ni  Ni27  1  0.16923184  0.16916453  0.50241016  1
  Ni  Ni28  1  1.00158305  0.00373369  0.66973631  1
  Ni  Ni29  1  0.16958789  0.17055056  0.83572685  1
  Ni  Ni30  1  0.16855537  0.50214660  0.50163192  1
  Ni  Ni31  1  1.00153149  0.33545771  0.66926992  1
  Ni  Ni32  1  0.16825708  0.50149006  0.83612576  1
  Ni  Ni33  1  0.16895896  0.83565117  0.50322574  1
  Ni  Ni34  1  1.00208480  0.66790594  0.66937736  1
  Fe  Fe35  1  0.16832856  0.83637723  0.83564655  1
  Ni  Ni36  1  0.50199383  0.16833039  0.50247402  1
  Ni  Ni37  1  0.33664075  1.00191374  0.66935513  1
  Ni  Ni38  1  0.50172266  0.16779040  0.83535615  1
  Ni  Ni39  1  0.50235783  0.50257670  0.50291415  1
  Fe  Fe40  1  0.33450817  0.33559790  0.66871380  1
  Fe  Fe41  1  0.50280989  0.50193009  0.83569604  1
  Ni  Ni42  1  0.50283289  0.83597097  0.50159758  1
  Ni  Ni43  1  0.33658995  0.66922628  0.66970380  1
  Ni  Ni44  1  0.50309888  0.83634548  0.83613405  1
  Ni  Ni45  1  0.83568628  0.16875823  0.50199146  1
  Ni  Ni46  1  0.66867349  1.00224709  0.66920891  1
  Ni  Ni47  1  0.83547049  0.16924342  0.83639121  1
  Ni  Ni48  1  0.83600621  0.50290419  0.50240549  1
  Fe  Fe49  1  0.67003357  0.33512076  0.66830723  1
  Ni  Ni50  1  0.83695473  0.50274343  0.83561555  1
  Ni  Ni51  1  0.83517455  0.83530444  0.50283958  1
  Ni  Ni52  1  0.66833318  0.66923761  0.66933698  1
  Ni  Ni53  1  0.83434375  0.83502190  0.83519092  1
" 