3152,Ni15Fe13Cr71_14,-210.794462706681, 176.6516357561,Ni15Fe13Cr71,"# generated using pymatgen
 data_Cr39Fe7Ni8
_symmetry_space_group_name_H-M   'P 1'
_cell_length_a   7.55892442
_cell_length_b   7.55892442
_cell_length_c   10.68993343
_cell_angle_alpha   90.00000000
_cell_angle_beta   90.00000000
_cell_angle_gamma   90.00000000
_symmetry_Int_Tables_number   1
_chemical_formula_structural   Cr39Fe7Ni8
_chemical_formula_sum   'Cr39 Fe7 Ni8'
_cell_volume   610.79434386
_cell_formula_units_Z   1
loop_
 _symmetry_equiv_pos_site_id
 _symmetry_equiv_pos_as_xyz
  1  'x, y, z'
loop_
 _atom_site_type_symbol
 _atom_site_label
 _atom_site_symmetry_multiplicity
 _atom_site_fract_x
 _atom_site_fract_y
 _atom_site_fract_z
 _atom_site_occupancy
  Ni  Ni0  1  -0.00407334  0.99337927  0.99346170  1
  Ni  Ni1  1  0.16374387  0.16077668  0.15834835  1
  Cr  Cr2  1  -0.00411832  -0.00457591  0.32638693  1
  Cr  Cr3  1  -0.00349214  0.32645913  0.99374345  1
  Cr  Cr4  1  0.16244906  0.49575010  0.15831328  1
  Cr  Cr5  1  -0.00549621  0.32779458  0.32759528  1
  Ni  Ni6  1  -0.00473213  0.66341027  0.99319056  1
  Cr  Cr7  1  0.16101493  0.82484414  0.16111071  1
  Cr  Cr8  1  0.99360201  0.65858726  0.32831430  1
  Cr  Cr9  1  0.32736702  -0.00451966  -0.00463414  1
  Ni  Ni10  1  0.49079491  0.16269850  0.16150487  1
  Cr  Cr11  1  0.32805049  -0.00596588  0.32520390  1
  Ni  Ni12  1  0.32616684  0.32629007  -0.00396734  1
  Cr  Cr13  1  0.49098570  0.49306109  0.16006882  1
  Fe  Fe14  1  0.32779490  0.32719468  0.32475299  1
  Ni  Ni15  1  0.32646255  0.66012053  -0.00459888  1
  Fe  Fe16  1  0.49122337  0.82643147  0.16031650  1
  Ni  Ni17  1  0.33052126  0.65782054  0.32708950  1
  Cr  Cr18  1  0.65898522  0.99297893  -0.00395839  1
  Cr  Cr19  1  0.82637387  0.16014827  0.16151446  1
  Cr  Cr20  1  0.65755038  0.99341806  0.32319494  1
  Cr  Cr21  1  0.65849043  0.32690124  -0.00406815  1
  Cr  Cr22  1  0.82794823  0.49394794  0.16017163  1
  Fe  Fe23  1  0.65754044  0.32826205  0.32635043  1
  Cr  Cr24  1  0.66017587  0.66154754  0.99330382  1
  Cr  Cr25  1  0.82975786  0.82777572  0.15727743  1
  Cr  Cr26  1  0.65939958  0.65942916  0.32790645  1
  Cr  Cr27  1  0.16121930  0.16090932  0.49436902  1
  Cr  Cr28  1  -0.00428884  -0.00515824  0.66203096  1
  Fe  Fe29  1  0.16110765  0.16067559  0.83046255  1
  Cr  Cr30  1  0.16373185  0.49496684  0.49178386  1
  Cr  Cr31  1  -0.00486025  0.32796607  0.66090469  1
  Cr  Cr32  1  0.16255279  0.49535716  0.83203222  1
  Cr  Cr33  1  0.16150505  0.82567354  0.49229084  1
  Cr  Cr34  1  0.99134782  0.65874661  0.65979196  1
  Cr  Cr35  1  0.15908326  0.82606326  0.82835532  1
  Cr  Cr36  1  0.49517417  0.16342136  0.49309821  1
  Cr  Cr37  1  0.32637660  -0.00485207  0.66127315  1
  Cr  Cr38  1  0.49395708  0.16258040  0.82750263  1
  Fe  Fe39  1  0.49460516  0.49439232  0.49279041  1
  Cr  Cr40  1  0.32556724  0.32674760  0.66235840  1
  Cr  Cr41  1  0.49208149  0.49393609  0.82782104  1
  Cr  Cr42  1  0.49319694  0.82618085  0.49423967  1
  Cr  Cr43  1  0.32942485  0.66009081  0.65902856  1
  Cr  Cr44  1  0.49368525  0.82538584  0.82677900  1
  Cr  Cr45  1  0.82492889  0.16148255  0.49230778  1
  Cr  Cr46  1  0.65975662  0.99109870  0.66254476  1
  Cr  Cr47  1  0.82746162  0.15802485  0.82793762  1
  Fe  Fe48  1  0.82501609  0.49435031  0.49383591  1
  Cr  Cr49  1  0.66120897  0.33118789  0.65865248  1
  Cr  Cr50  1  0.82724067  0.49516120  0.82798587  1
  Cr  Cr51  1  0.82697163  0.82842745  0.49589576  1
  Ni  Ni52  1  0.66121085  0.65905488  0.65928879  1
  Fe  Fe53  1  0.82807242  0.82598492  0.82856699  1
" 