4475,Ni15Fe85_13,-242.504875351842, 201.767851451915,Ni15Fe85,"# generated using pymatgen
 data_Fe4Ni23
_symmetry_space_group_name_H-M   'P 1'
_cell_length_a   7.43096764
_cell_length_b   7.43096764
_cell_length_c   10.50897521
_cell_angle_alpha   90.00000000
_cell_angle_beta   90.00000000
_cell_angle_gamma   90.00000000
_symmetry_Int_Tables_number   1
_chemical_formula_structural   Fe4Ni23
_chemical_formula_sum   'Fe8 Ni46'
_cell_volume   580.29804487
_cell_formula_units_Z   2
loop_
 _symmetry_equiv_pos_site_id
 _symmetry_equiv_pos_as_xyz
  1  'x, y, z'
loop_
 _atom_site_type_symbol
 _atom_site_label
 _atom_site_symmetry_multiplicity
 _atom_site_fract_x
 _atom_site_fract_y
 _atom_site_fract_z
 _atom_site_occupancy
  Ni  Ni0  1  0.00251449  1.00199858  1.00225833  1
  Ni  Ni1  1  0.16893845  0.16993396  0.16842637  1
  Ni  Ni2  1  1.00161329  1.00226362  0.33519865  1
  Ni  Ni3  1  1.00180913  0.33551155  0.00310941  1
  Ni  Ni4  1  0.16899393  0.50254481  0.16954934  1
  Ni  Ni5  1  1.00241708  0.33481011  0.33485457  1
  Ni  Ni6  1  0.00319773  0.66979177  1.00229294  1
  Ni  Ni7  1  0.16867109  0.83488362  0.16896503  1
  Ni  Ni8  1  0.00279613  0.67016692  0.33612092  1
  Ni  Ni9  1  0.33524279  1.00163648  0.00261483  1
  Ni  Ni10  1  0.50263772  0.16995219  0.16968013  1
  Fe  Fe11  1  0.33557746  0.00263681  0.33604977  1
  Ni  Ni12  1  0.33644631  0.33608956  1.00207350  1
  Ni  Ni13  1  0.50232906  0.50226919  0.16822744  1
  Ni  Ni14  1  0.33622406  0.33692077  0.33527581  1
  Ni  Ni15  1  0.33561650  0.66956811  0.00247027  1
  Ni  Ni16  1  0.50257007  0.83514692  0.16958752  1
  Ni  Ni17  1  0.33615602  0.66879415  0.33534683  1
  Fe  Fe18  1  0.66869890  0.00316995  1.00241849  1
  Ni  Ni19  1  0.83565690  0.16945249  0.16909267  1
  Ni  Ni20  1  0.67018090  1.00228205  0.33567194  1
  Ni  Ni21  1  0.66902391  0.33557361  0.00257010  1
  Ni  Ni22  1  0.83598899  0.50257109  0.16950372  1
  Ni  Ni23  1  0.66863569  0.33554056  0.33598010  1
  Fe  Fe24  1  0.66926811  0.66921487  0.00290414  1
  Ni  Ni25  1  0.83605312  0.83527831  0.16897430  1
  Ni  Ni26  1  0.66833057  0.66942677  0.33484234  1
  Ni  Ni27  1  0.16847704  0.16964367  0.50298618  1
  Ni  Ni28  1  1.00223273  0.00284812  0.66981697  1
  Ni  Ni29  1  0.16904573  0.17015492  0.83586952  1
  Fe  Fe30  1  0.17007382  0.50195144  0.50222498  1
  Ni  Ni31  1  1.00188462  0.33461838  0.66931171  1
  Ni  Ni32  1  0.16911398  0.50227890  0.83540414  1
  Ni  Ni33  1  0.16848234  0.83537347  0.50312735  1
  Fe  Fe34  1  1.00235695  0.66943078  0.66951548  1
  Ni  Ni35  1  0.16909357  0.83478709  0.83532686  1
  Ni  Ni36  1  0.50277449  0.17022989  0.50299428  1
  Ni  Ni37  1  0.33540098  1.00168225  0.66863796  1
  Ni  Ni38  1  0.50272604  0.16924526  0.83465520  1
  Ni  Ni39  1  0.50233112  0.50254753  0.50301794  1
  Ni  Ni40  1  0.33570186  0.33617669  0.66978604  1
  Fe  Fe41  1  0.50172445  0.50219354  0.83545430  1
  Ni  Ni42  1  0.50304060  0.83456156  0.50245739  1
  Ni  Ni43  1  0.33665396  0.66946340  0.66937411  1
  Ni  Ni44  1  0.50270567  0.83566065  0.83524890  1
  Ni  Ni45  1  0.83603300  0.16883677  0.50264222  1
  Ni  Ni46  1  0.66968342  1.00202640  0.66932673  1
  Ni  Ni47  1  0.83546362  0.16911231  0.83559559  1
  Fe  Fe48  1  0.83480849  0.50225415  0.50123406  1
  Ni  Ni49  1  0.66970546  0.33606347  0.66862159  1
  Fe  Fe50  1  0.83639366  0.50179026  0.83652604  1
  Ni  Ni51  1  0.83574928  0.83575050  0.50287021  1
  Ni  Ni52  1  0.66836910  0.66920048  0.66944132  1
  Ni  Ni53  1  0.83548013  0.83578385  0.83556803  1
" 