3424,Ni15Fe85_3,-242.509649322105, 201.935331087455,Ni15Fe85,"# generated using pymatgen
 data_Fe4Ni23
_symmetry_space_group_name_H-M   'P 1'
_cell_length_a   7.43110678
_cell_length_b   7.43110678
_cell_length_c   10.50917200
_cell_angle_alpha   90.00000000
_cell_angle_beta   90.00000000
_cell_angle_gamma   90.00000000
_symmetry_Int_Tables_number   1
_chemical_formula_structural   Fe4Ni23
_chemical_formula_sum   'Fe8 Ni46'
_cell_volume   580.33064412
_cell_formula_units_Z   2
loop_
 _symmetry_equiv_pos_site_id
 _symmetry_equiv_pos_as_xyz
  1  'x, y, z'
loop_
 _atom_site_type_symbol
 _atom_site_label
 _atom_site_symmetry_multiplicity
 _atom_site_fract_x
 _atom_site_fract_y
 _atom_site_fract_z
 _atom_site_occupancy
  Ni  Ni0  1  1.00206316  0.00264026  0.00323419  1
  Ni  Ni1  1  0.16998325  0.16879191  0.16965958  1
  Fe  Fe2  1  0.00328863  1.00206730  0.33554342  1
  Ni  Ni3  1  1.00239674  0.33586604  0.00331563  1
  Ni  Ni4  1  0.16920578  0.50298695  0.16855837  1
  Fe  Fe5  1  0.00266491  0.33603965  0.33560473  1
  Ni  Ni6  1  1.00208005  0.66879421  1.00114861  1
  Ni  Ni7  1  0.16894259  0.83541774  0.16806030  1
  Ni  Ni8  1  0.00251008  0.66869226  0.33665419  1
  Ni  Ni9  1  0.33577929  0.00271890  1.00231088  1
  Ni  Ni10  1  0.50239941  0.16913274  0.16837032  1
  Ni  Ni11  1  0.33690257  1.00213120  0.33653118  1
  Ni  Ni12  1  0.33533192  0.33582955  0.00298781  1
  Ni  Ni13  1  0.50190198  0.50177415  0.16926677  1
  Ni  Ni14  1  0.33642100  0.33598833  0.33603973  1
  Ni  Ni15  1  0.33564701  0.66866592  0.00276478  1
  Ni  Ni16  1  0.50189697  0.83635699  0.16890870  1
  Ni  Ni17  1  0.33359163  0.66920210  0.33580684  1
  Ni  Ni18  1  0.66948555  1.00228125  1.00241728  1
  Ni  Ni19  1  0.83516804  0.16874208  0.16819444  1
  Ni  Ni20  1  0.66930844  0.00339679  0.33581742  1
  Ni  Ni21  1  0.66955421  0.33587960  1.00128854  1
  Ni  Ni22  1  0.83596435  0.50268045  0.16896078  1
  Ni  Ni23  1  0.66956639  0.33460078  0.33664397  1
  Ni  Ni24  1  0.66961246  0.66902904  0.00414098  1
  Ni  Ni25  1  0.83627092  0.83577006  0.16982663  1
  Fe  Fe26  1  0.66733478  0.66890857  0.33612021  1
  Fe  Fe27  1  0.16977301  0.16912097  0.50291224  1
  Ni  Ni28  1  1.00152955  0.00373318  0.66804890  1
  Ni  Ni29  1  0.16929492  0.16939454  0.83532915  1
  Ni  Ni30  1  0.16952023  0.50338386  0.50271848  1
  Ni  Ni31  1  1.00240394  0.33578303  0.66841812  1
  Ni  Ni32  1  0.16962120  0.50202714  0.83589598  1
  Ni  Ni33  1  0.16929024  0.83532716  0.50342086  1
  Fe  Fe34  1  0.00300423  0.66978622  0.66882910  1
  Fe  Fe35  1  0.16897085  0.83654266  0.83569444  1
  Ni  Ni36  1  0.50267199  0.16876124  0.50324858  1
  Ni  Ni37  1  0.33603870  0.00242449  0.66856955  1
  Ni  Ni38  1  0.50156019  0.16901991  0.83567966  1
  Ni  Ni39  1  0.50132813  0.50185115  0.50247596  1
  Ni  Ni40  1  0.33416178  0.33638795  0.66833088  1
  Ni  Ni41  1  0.50169950  0.50218628  0.83558782  1
  Ni  Ni42  1  0.50174641  0.83650411  0.50271796  1
  Ni  Ni43  1  0.33681534  0.66841558  0.66868235  1
  Fe  Fe44  1  0.50345161  0.83520009  0.83571425  1
  Ni  Ni45  1  0.83476379  0.16846288  0.50310707  1
  Ni  Ni46  1  0.66972512  1.00117559  0.66902882  1
  Ni  Ni47  1  0.83620611  0.16802401  0.83594550  1
  Ni  Ni48  1  0.83621710  0.50223002  0.50327130  1
  Fe  Fe49  1  0.66813168  0.33504301  0.66939386  1
  Ni  Ni50  1  0.83589246  0.50333831  0.83498218  1
  Ni  Ni51  1  0.83626018  0.83652007  0.50176356  1
  Ni  Ni52  1  0.66915595  0.66958689  0.66718066  1
  Ni  Ni53  1  0.83608024  0.83597134  0.83546298  1
" 