6439,Ni15Fe13Cr71_17,-210.575465708502, 172.351264197233,Ni15Fe13Cr71,"# generated using pymatgen
 data_Cr39Fe7Ni8
_symmetry_space_group_name_H-M   'P 1'
_cell_length_a   7.56183227
_cell_length_b   7.56183227
_cell_length_c   10.69404576
_cell_angle_alpha   90.00000000
_cell_angle_beta   90.00000000
_cell_angle_gamma   90.00000000
_symmetry_Int_Tables_number   1
_chemical_formula_structural   Cr39Fe7Ni8
_chemical_formula_sum   'Cr39 Fe7 Ni8'
_cell_volume   611.49951669
_cell_formula_units_Z   1
loop_
 _symmetry_equiv_pos_site_id
 _symmetry_equiv_pos_as_xyz
  1  'x, y, z'
loop_
 _atom_site_type_symbol
 _atom_site_label
 _atom_site_symmetry_multiplicity
 _atom_site_fract_x
 _atom_site_fract_y
 _atom_site_fract_z
 _atom_site_occupancy
  Cr  Cr0  1  0.99256844  -0.00480186  -0.00486248  1
  Cr  Cr1  1  0.16142916  0.16079485  0.16336114  1
  Ni  Ni2  1  0.99192161  -0.00512002  0.32633544  1
  Cr  Cr3  1  0.99185278  0.32624618  -0.00521647  1
  Cr  Cr4  1  0.16241114  0.49212143  0.16077513  1
  Cr  Cr5  1  0.99274836  0.32573499  0.32609373  1
  Cr  Cr6  1  -0.00504628  0.65971070  0.99290971  1
  Cr  Cr7  1  0.15998975  0.82831993  0.16085507  1
  Cr  Cr8  1  0.99326591  0.65996293  0.32674940  1
  Fe  Fe9  1  0.32783874  -0.00503299  -0.00547848  1
  Fe  Fe10  1  0.49470527  0.16204566  0.15984944  1
  Cr  Cr11  1  0.32693390  -0.00495654  0.32661360  1
  Cr  Cr12  1  0.32790330  0.32710208  -0.00498056  1
  Ni  Ni13  1  0.49539675  0.49045571  0.16159759  1
  Ni  Ni14  1  0.33041321  0.32897491  0.32735090  1
  Cr  Cr15  1  0.32670011  0.66054191  -0.00601822  1
  Cr  Cr16  1  0.49541929  0.82695405  0.15959596  1
  Cr  Cr17  1  0.32897666  0.65823118  0.32642697  1
  Ni  Ni18  1  0.65876134  -0.00218070  -0.00415577  1
  Fe  Fe19  1  0.82465062  0.15977640  0.16012023  1
  Cr  Cr20  1  0.66129331  -0.00416377  0.32744492  1
  Fe  Fe21  1  0.65975096  0.32551227  -0.00413808  1
  Cr  Cr22  1  0.82448841  0.49361294  0.15981352  1
  Cr  Cr23  1  0.65969703  0.32766326  0.32618502  1
  Cr  Cr24  1  0.65965809  0.65986053  -0.00608825  1
  Cr  Cr25  1  0.82586115  0.82800923  0.16177424  1
  Fe  Fe26  1  0.65951286  0.65792730  0.32737952  1
  Cr  Cr27  1  0.15982631  0.16174665  0.49432331  1
  Ni  Ni28  1  -0.00594625  -0.00555944  0.66004967  1
  Cr  Cr29  1  0.16033015  0.16210031  0.82345500  1
  Cr  Cr30  1  0.16108549  0.49100961  0.49466398  1
  Ni  Ni31  1  0.99333717  0.32791618  0.65977107  1
  Cr  Cr32  1  0.15930695  0.49176337  0.82529603  1
  Cr  Cr33  1  0.15784847  0.82835263  0.49317036  1
  Ni  Ni34  1  -0.00615304  0.65879054  0.65999400  1
  Cr  Cr35  1  0.15926152  0.82765351  0.82709424  1
  Cr  Cr36  1  0.49143250  0.16325762  0.49415550  1
  Cr  Cr37  1  0.32738864  0.99316926  0.66117395  1
  Cr  Cr38  1  0.49373622  0.16075642  0.82893630  1
  Ni  Ni39  1  0.49450561  0.49222515  0.49177143  1
  Fe  Fe40  1  0.32643219  0.32825256  0.65905712  1
  Cr  Cr41  1  0.49404042  0.49191179  0.82711852  1
  Cr  Cr42  1  0.49558008  0.82533919  0.49240496  1
  Cr  Cr43  1  0.32721834  0.66006902  0.66070675  1
  Cr  Cr44  1  0.49545604  0.82864070  0.82914579  1
  Cr  Cr45  1  0.82955803  0.15974756  0.49437102  1
  Cr  Cr46  1  0.66070624  -0.00526899  0.66050034  1
  Cr  Cr47  1  0.82671044  0.16070785  0.82775540  1
  Fe  Fe48  1  0.82759160  0.49312937  0.49447425  1
  Cr  Cr49  1  0.66073735  0.32729115  0.65977576  1
  Cr  Cr50  1  0.82770856  0.49325638  0.82586728  1
  Cr  Cr51  1  0.82800076  0.82603286  0.49309832  1
  Cr  Cr52  1  0.66012946  0.65883149  0.65731307  1
  Cr  Cr53  1  0.82663425  0.82714005  0.82582872  1
" 