5841,Ni15Cr85_15,-233.799189305104, 158.8409221617,Ni15Cr85,"# generated using pymatgen
 data_Cr4Ni23
_symmetry_space_group_name_H-M   'P 1'
_cell_length_a   7.47287629
_cell_length_b   7.47287629
_cell_length_c   10.56824299
_cell_angle_alpha   90.00000000
_cell_angle_beta   90.00000000
_cell_angle_gamma   90.00000000
_symmetry_Int_Tables_number   1
_chemical_formula_structural   Cr4Ni23
_chemical_formula_sum   'Cr8 Ni46'
_cell_volume   590.17169348
_cell_formula_units_Z   2
loop_
 _symmetry_equiv_pos_site_id
 _symmetry_equiv_pos_as_xyz
  1  'x, y, z'
loop_
 _atom_site_type_symbol
 _atom_site_label
 _atom_site_symmetry_multiplicity
 _atom_site_fract_x
 _atom_site_fract_y
 _atom_site_fract_z
 _atom_site_occupancy
  Ni  Ni0  1  0.99896260  0.00029646  0.99848064  1
  Cr  Cr1  1  0.16618618  0.16601508  0.16627655  1
  Ni  Ni2  1  -0.00037185  -0.00038218  0.33494480  1
  Ni  Ni3  1  0.99791130  0.33312739  0.99892768  1
  Ni  Ni4  1  0.16662849  0.50135739  0.16601907  1
  Ni  Ni5  1  0.99856046  0.33361147  0.33424720  1
  Ni  Ni6  1  0.99893156  0.66540231  0.00040225  1
  Ni  Ni7  1  0.16809845  0.83098596  0.16619651  1
  Ni  Ni8  1  0.00066875  0.66559805  0.33362384  1
  Ni  Ni9  1  0.33441022  0.99937583  0.99911072  1
  Ni  Ni10  1  0.50112844  0.16659681  0.16579867  1
  Ni  Ni11  1  0.33271667  0.99766605  0.33300237  1
  Ni  Ni12  1  0.33351166  0.33207728  0.00011845  1
  Ni  Ni13  1  0.49938053  0.49945965  0.16638180  1
  Ni  Ni14  1  0.33285370  0.33464285  0.33304379  1
  Ni  Ni15  1  0.33341312  0.66738093  0.00231836  1
  Ni  Ni16  1  0.49779847  0.83277193  0.16599161  1
  Ni  Ni17  1  0.33271145  0.66652085  0.33299964  1
  Ni  Ni18  1  0.66544648  0.00042257  0.99828720  1
  Ni  Ni19  1  0.83103432  0.16806389  0.16635725  1
  Ni  Ni20  1  0.66648678  -0.00023284  0.33299924  1
  Ni  Ni21  1  0.66739438  0.33210494  0.00055658  1
  Ni  Ni22  1  0.83282229  0.49803092  0.16581924  1
  Ni  Ni23  1  0.66741447  0.33361467  0.33175231  1
  Ni  Ni24  1  0.66648156  0.66630966  0.99887172  1
  Cr  Cr25  1  0.83339446  0.83320593  0.16626150  1
  Ni  Ni26  1  0.66545397  0.66545592  0.33429009  1
  Ni  Ni27  1  0.16518968  0.16713670  0.49961077  1
  Cr  Cr28  1  0.99896181  0.00193229  0.66543562  1
  Ni  Ni29  1  0.16694353  0.16693389  0.83321943  1
  Ni  Ni30  1  0.16694712  0.49891801  0.49902093  1
  Ni  Ni31  1  0.99893842  0.33209805  0.66567231  1
  Cr  Cr32  1  0.16563557  0.49726981  0.83379398  1
  Ni  Ni33  1  0.16768507  0.83277914  0.49758084  1
  Cr  Cr34  1  0.99789922  0.66477847  0.66480049  1
  Cr  Cr35  1  0.16763323  0.83416027  0.83530885  1
  Cr  Cr36  1  0.49964772  0.16649807  0.49960455  1
  Ni  Ni37  1  0.33484286  -0.00026181  0.66672313  1
  Ni  Ni38  1  0.49973201  0.16430343  0.83316025  1
  Ni  Ni39  1  0.49938439  0.50159589  0.49985180  1
  Ni  Ni40  1  0.33217121  0.33206165  0.66564039  1
  Cr  Cr41  1  0.50086307  0.49965538  0.83208025  1
  Ni  Ni42  1  0.49955551  0.83101395  0.50029021  1
  Ni  Ni43  1  0.33589471  0.66703399  0.66349917  1
  Ni  Ni44  1  0.50169792  0.83507475  0.83254574  1
  Ni  Ni45  1  0.83428929  0.16695793  0.49869821  1
  Ni  Ni46  1  0.66500886  0.99872059  0.66754342  1
  Ni  Ni47  1  0.83215501  0.16678651  0.83378106  1
  Ni  Ni48  1  0.83250523  0.49909734  0.49923663  1
  Ni  Ni49  1  0.66772457  0.33312485  0.66648858  1
  Ni  Ni50  1  0.83214426  0.49874198  0.83378126  1
  Ni  Ni51  1  0.83159082  0.83276664  0.49835363  1
  Ni  Ni52  1  0.66501117  0.66698733  0.66566061  1
  Ni  Ni53  1  0.82945945  0.83329574  0.83447940  1
" 