7023,Ni15Cr85_11,-233.967637184757, 161.257954629621,Ni15Cr85,"# generated using pymatgen
 data_Cr4Ni23
_symmetry_space_group_name_H-M   'P 1'
_cell_length_a   7.47232257
_cell_length_b   7.47232257
_cell_length_c   10.56745992
_cell_angle_alpha   90.00000000
_cell_angle_beta   90.00000000
_cell_angle_gamma   90.00000000
_symmetry_Int_Tables_number   1
_chemical_formula_structural   Cr4Ni23
_chemical_formula_sum   'Cr8 Ni46'
_cell_volume   590.04051408
_cell_formula_units_Z   2
loop_
 _symmetry_equiv_pos_site_id
 _symmetry_equiv_pos_as_xyz
  1  'x, y, z'
loop_
 _atom_site_type_symbol
 _atom_site_label
 _atom_site_symmetry_multiplicity
 _atom_site_fract_x
 _atom_site_fract_y
 _atom_site_fract_z
 _atom_site_occupancy
  Ni  Ni0  1  -0.00012145  0.99757155  0.99929108  1
  Ni  Ni1  1  0.16741261  0.16371176  0.16715592  1
  Ni  Ni2  1  0.99906959  0.99919020  0.33229613  1
  Cr  Cr3  1  0.99883640  0.33239178  0.99817795  1
  Cr  Cr4  1  0.16677303  0.50023523  0.16734366  1
  Ni  Ni5  1  0.99802948  0.33298192  0.33404408  1
  Ni  Ni6  1  0.99884005  0.66896665  0.99861958  1
  Ni  Ni7  1  0.16637480  0.83500720  0.16614323  1
  Ni  Ni8  1  0.99907120  0.66676981  0.33377518  1
  Ni  Ni9  1  0.33207866  0.00054907  0.00032779  1
  Ni  Ni10  1  0.49955108  0.16617914  0.16594582  1
  Ni  Ni11  1  0.33268718  0.99831829  0.33142378  1
  Ni  Ni12  1  0.33592503  0.33223365  0.99844914  1
  Ni  Ni13  1  0.50132002  0.49935551  0.16614330  1
  Ni  Ni14  1  0.33372727  0.33385457  0.33209403  1
  Ni  Ni15  1  0.33294647  0.66615807  0.99911842  1
  Ni  Ni16  1  0.49972169  0.83340651  0.16674339  1
  Ni  Ni17  1  0.33355594  0.66676802  0.33471577  1
  Ni  Ni18  1  0.66698441  0.00055034  0.00009614  1
  Ni  Ni19  1  0.83197793  0.16531153  0.16752371  1
  Ni  Ni20  1  0.66718484  0.99936022  0.33269766  1
  Ni  Ni21  1  0.66417619  0.33327164  0.99948777  1
  Ni  Ni22  1  0.83037603  0.50039309  0.16718193  1
  Ni  Ni23  1  0.66718417  0.33385128  0.33209722  1
  Ni  Ni24  1  0.66715425  0.66511927  0.00015759  1
  Ni  Ni25  1  0.83284444  0.83323671  0.16597226  1
  Ni  Ni26  1  0.66631318  0.66572978  0.33344521  1
  Cr  Cr27  1  0.16383180  0.16611568  0.49888316  1
  Ni  Ni28  1  0.99883885  0.00053134  0.66735420  1
  Ni  Ni29  1  0.16617491  0.16529339  0.83265387  1
  Ni  Ni30  1  0.16623397  0.50135565  0.49846064  1
  Ni  Ni31  1  0.99883488  0.33182401  0.66675452  1
  Ni  Ni32  1  0.16704227  0.49980039  0.83312710  1
  Ni  Ni33  1  0.16744612  0.83168064  0.49907445  1
  Cr  Cr34  1  -0.00013378  0.66626589  0.66653877  1
  Ni  Ni35  1  0.16544970  0.83384704  0.83372333  1
  Cr  Cr36  1  0.50109729  0.16429373  0.49841601  1
  Ni  Ni37  1  0.33210972  0.99714953  0.66718958  1
  Ni  Ni38  1  0.49935684  0.16671791  0.83479664  1
  Ni  Ni39  1  0.49955245  0.50360748  0.49825968  1
  Cr  Cr40  1  0.33168099  0.33462857  0.66837951  1
  Ni  Ni41  1  0.49935628  0.49924346  0.83453787  1
  Ni  Ni42  1  0.49972180  0.83080947  0.50014762  1
  Ni  Ni43  1  0.33371136  0.66732623  0.66510614  1
  Cr  Cr44  1  0.49999690  0.83298037  0.83209086  1
  Ni  Ni45  1  0.83402433  0.16573616  0.49930368  1
  Ni  Ni46  1  0.66799294  0.99819470  0.66614793  1
  Ni  Ni47  1  0.83340975  0.16512498  0.83211383  1
  Ni  Ni48  1  0.83315452  0.49974989  0.49809488  1
  Cr  Cr49  1  0.66842634  0.33359822  0.66734684  1
  Ni  Ni50  1  0.83254194  0.49996913  0.83366396  1
  Ni  Ni51  1  0.83177341  0.83345467  0.49924560  1
  Ni  Ni52  1  0.66535139  0.66732134  0.66533789  1
  Ni  Ni53  1  0.83396834  0.83384714  0.83372353  1
" 