8526,Ni15Fe13Cr71_2,-210.698326114485, 176.147745853884,Ni15Fe13Cr71,"# generated using pymatgen
 data_Cr39Fe7Ni8
_symmetry_space_group_name_H-M   'P 1'
_cell_length_a   7.55962398
_cell_length_b   7.55962398
_cell_length_c   10.69092275
_cell_angle_alpha   90.00000000
_cell_angle_beta   90.00000000
_cell_angle_gamma   90.00000000
_symmetry_Int_Tables_number   1
_chemical_formula_structural   Cr39Fe7Ni8
_chemical_formula_sum   'Cr39 Fe7 Ni8'
_cell_volume   610.96394108
_cell_formula_units_Z   1
loop_
 _symmetry_equiv_pos_site_id
 _symmetry_equiv_pos_as_xyz
  1  'x, y, z'
loop_
 _atom_site_type_symbol
 _atom_site_label
 _atom_site_symmetry_multiplicity
 _atom_site_fract_x
 _atom_site_fract_y
 _atom_site_fract_z
 _atom_site_occupancy
  Cr  Cr0  1  -0.00330709  -0.00581324  0.99244400  1
  Cr  Cr1  1  0.16097775  0.16262736  0.16022191  1
  Cr  Cr2  1  -0.00292304  0.99251012  0.32760530  1
  Cr  Cr3  1  -0.00430155  0.32785773  0.99059726  1
  Cr  Cr4  1  0.16283837  0.49292882  0.16051391  1
  Fe  Fe5  1  0.99380959  0.32689464  0.32896573  1
  Cr  Cr6  1  0.99342984  0.65967228  0.99325808  1
  Cr  Cr7  1  0.16165254  0.82646464  0.16311328  1
  Cr  Cr8  1  0.99269739  0.66057323  0.32821895  1
  Cr  Cr9  1  0.32763392  -0.00356265  -0.00467258  1
  Ni  Ni10  1  0.49387033  0.15858146  0.15954161  1
  Cr  Cr11  1  0.32868595  0.99362707  0.32922765  1
  Ni  Ni12  1  0.32698092  0.32468803  0.99257002  1
  Cr  Cr13  1  0.49066401  0.49347033  0.15884571  1
  Cr  Cr14  1  0.33080677  0.32234998  0.32507769  1
  Cr  Cr15  1  0.32696367  0.66167568  0.99244640  1
  Ni  Ni16  1  0.49465773  0.83100748  0.15809904  1
  Cr  Cr17  1  0.32907882  0.66493953  0.32885842  1
  Fe  Fe18  1  0.65667197  -0.00469844  -0.00561675  1
  Cr  Cr19  1  0.82655489  0.15902243  0.16031699  1
  Cr  Cr20  1  0.65582142  -0.00586701  0.32658673  1
  Cr  Cr21  1  0.65826239  0.32719428  -0.00424698  1
  Cr  Cr22  1  0.82820107  0.49262549  0.16384209  1
  Cr  Cr23  1  0.66017561  0.32702365  0.32972932  1
  Cr  Cr24  1  0.66018185  0.66126362  -0.00506543  1
  Cr  Cr25  1  0.82579942  0.82988847  0.15755242  1
  Cr  Cr26  1  0.65988777  0.66061832  0.32719604  1
  Cr  Cr27  1  0.15901769  0.16153024  0.49381153  1
  Cr  Cr28  1  -0.00325733  -0.00528581  0.66173005  1
  Fe  Fe29  1  0.16166539  0.16312494  0.82678396  1
  Cr  Cr30  1  0.16237495  0.49387055  0.49338961  1
  Ni  Ni31  1  -0.00372133  0.32894910  0.66081715  1
  Ni  Ni32  1  0.16302904  0.49146859  0.82601206  1
  Ni  Ni33  1  0.16405646  0.82584796  0.49494467  1
  Cr  Cr34  1  -0.00539331  0.65951038  0.66065382  1
  Cr  Cr35  1  0.16254514  0.82506315  0.82507663  1
  Fe  Fe36  1  0.49366934  0.15714134  0.49495859  1
  Cr  Cr37  1  0.32792692  0.99276714  0.65747709  1
  Cr  Cr38  1  0.49545467  0.15929479  0.82710182  1
  Cr  Cr39  1  0.49150087  0.49456765  0.49522537  1
  Cr  Cr40  1  0.32634708  0.32487606  0.66310288  1
  Cr  Cr41  1  0.48918227  0.49502802  0.82761350  1
  Ni  Ni42  1  0.49299068  0.82753574  0.49766970  1
  Fe  Fe43  1  0.32640450  0.66105290  0.65992950  1
  Fe  Fe44  1  0.49333171  0.82803117  0.82599348  1
  Cr  Cr45  1  0.82676865  0.16033520  0.49573586  1
  Ni  Ni46  1  0.65661212  0.99197465  0.66044888  1
  Cr  Cr47  1  0.82636647  0.15831115  0.82522882  1
  Fe  Fe48  1  0.82946849  0.49452430  0.49454445  1
  Cr  Cr49  1  0.66118744  0.32688887  0.65697451  1
  Cr  Cr50  1  0.82708008  0.49281658  0.82483677  1
  Cr  Cr51  1  0.82659353  0.83059659  0.49501474  1
  Cr  Cr52  1  0.65926416  0.66099568  0.65999702  1
  Cr  Cr53  1  0.82311569  0.83097343  0.82905439  1
" 