2659,Ni15Fe85_9,-242.45273216888, 200.904388323241,Ni15Fe85,"# generated using pymatgen
 data_Fe4Ni23
_symmetry_space_group_name_H-M   'P 1'
_cell_length_a   7.43411218
_cell_length_b   7.43411218
_cell_length_c   10.51342226
_cell_angle_alpha   90.00000000
_cell_angle_beta   90.00000000
_cell_angle_gamma   90.00000000
_symmetry_Int_Tables_number   1
_chemical_formula_structural   Fe4Ni23
_chemical_formula_sum   'Fe8 Ni46'
_cell_volume   581.03504534
_cell_formula_units_Z   2
loop_
 _symmetry_equiv_pos_site_id
 _symmetry_equiv_pos_as_xyz
  1  'x, y, z'
loop_
 _atom_site_type_symbol
 _atom_site_label
 _atom_site_symmetry_multiplicity
 _atom_site_fract_x
 _atom_site_fract_y
 _atom_site_fract_z
 _atom_site_occupancy
  Ni  Ni0  1  1.00205921  0.00275331  0.00277662  1
  Ni  Ni1  1  0.16869446  0.16912975  0.16871314  1
  Ni  Ni2  1  1.00168153  1.00178289  0.33546875  1
  Ni  Ni3  1  0.00235640  0.33468517  1.00192100  1
  Ni  Ni4  1  0.16870893  0.50230118  0.16868225  1
  Ni  Ni5  1  1.00198592  0.33562895  0.33622993  1
  Fe  Fe6  1  0.00268520  0.66882668  0.00326122  1
  Ni  Ni7  1  0.16905969  0.83521073  0.16898196  1
  Ni  Ni8  1  0.00314069  0.66923488  0.33569124  1
  Ni  Ni9  1  0.33481341  1.00154171  1.00150413  1
  Ni  Ni10  1  0.50264975  0.16880112  0.16824007  1
  Ni  Ni11  1  0.33523162  1.00150593  0.33623280  1
  Ni  Ni12  1  0.33514314  0.33654044  0.00235064  1
  Ni  Ni13  1  0.50232068  0.50231541  0.16913430  1
  Ni  Ni14  1  0.33548848  0.33646705  0.33535061  1
  Ni  Ni15  1  0.33600667  0.66856334  1.00212887  1
  Ni  Ni16  1  0.50229203  0.83553244  0.16859097  1
  Ni  Ni17  1  0.33462952  0.66866970  0.33565939  1
  Ni  Ni18  1  0.66977589  1.00189094  1.00186084  1
  Ni  Ni19  1  0.83530284  0.16915523  0.16924038  1
  Ni  Ni20  1  0.66973282  0.00265472  0.33569290  1
  Ni  Ni21  1  0.66914088  0.33588732  1.00186201  1
  Ni  Ni22  1  0.83562154  0.50194068  0.16840378  1
  Ni  Ni23  1  0.66916703  0.33502067  0.33565877  1
  Ni  Ni24  1  0.66791686  0.66887348  0.00243445  1
  Ni  Ni25  1  0.83529707  0.83554608  0.16870274  1
  Fe  Fe26  1  0.66928140  0.66914329  0.33528571  1
  Ni  Ni27  1  0.16891972  0.16936132  0.50247464  1
  Ni  Ni28  1  1.00145552  1.00211025  0.66839883  1
  Ni  Ni29  1  0.16827746  0.16912938  0.83546256  1
  Ni  Ni30  1  0.16812821  0.50240768  0.50221500  1
  Fe  Fe31  1  1.00189906  0.33537165  0.66868910  1
  Ni  Ni32  1  0.16924854  0.50261697  0.83575742  1
  Ni  Ni33  1  0.16921743  0.83487707  0.50224188  1
  Fe  Fe34  1  1.00216733  0.66884620  0.66772155  1
  Ni  Ni35  1  0.16946507  0.83489606  0.83542161  1
  Ni  Ni36  1  0.50277096  0.16823224  0.50264338  1
  Fe  Fe37  1  0.33665639  1.00216703  0.66890131  1
  Ni  Ni38  1  0.50325834  0.16888642  0.83576389  1
  Fe  Fe39  1  0.50194767  0.50193565  0.50270362  1
  Ni  Ni40  1  0.33565168  0.33708013  0.66895045  1
  Ni  Ni41  1  0.50204892  0.50265476  0.83517412  1
  Ni  Ni42  1  0.50242430  0.83603742  0.50236588  1
  Ni  Ni43  1  0.33565012  0.66781232  0.66886402  1
  Ni  Ni44  1  0.50211586  0.83510732  0.83567541  1
  Ni  Ni45  1  0.83497014  0.16931355  0.50196575  1
  Ni  Ni46  1  0.67073031  1.00211785  0.66909339  1
  Ni  Ni47  1  0.83512012  0.16909779  0.83544440  1
  Ni  Ni48  1  0.83612081  0.50206230  0.50254814  1
  Ni  Ni49  1  0.66836989  0.33554691  0.66913251  1
  Fe  Fe50  1  0.83468211  0.50144757  0.83575054  1
  Ni  Ni51  1  0.83501996  0.83526425  0.50251869  1
  Ni  Ni52  1  0.66801517  0.66898093  0.66825021  1
  Fe  Fe53  1  0.83510364  0.83665430  0.83543066  1
" 