2332,Ni16Fe84_12,-242.494261686617, 201.692728391189,Ni16Fe84,"# generated using pymatgen
 data_Fe4Ni23
_symmetry_space_group_name_H-M   'P 1'
_cell_length_a   7.43093545
_cell_length_b   7.43093545
_cell_length_c   10.50892970
_cell_angle_alpha   90.00000000
_cell_angle_beta   90.00000000
_cell_angle_gamma   90.00000000
_symmetry_Int_Tables_number   1
_chemical_formula_structural   Fe4Ni23
_chemical_formula_sum   'Fe8 Ni46'
_cell_volume   580.29050502
_cell_formula_units_Z   2
loop_
 _symmetry_equiv_pos_site_id
 _symmetry_equiv_pos_as_xyz
  1  'x, y, z'
loop_
 _atom_site_type_symbol
 _atom_site_label
 _atom_site_symmetry_multiplicity
 _atom_site_fract_x
 _atom_site_fract_y
 _atom_site_fract_z
 _atom_site_occupancy
  Ni  Ni0  1  0.00267144  0.00273363  1.00194129  1
  Ni  Ni1  1  0.16850816  0.16839241  0.16943253  1
  Ni  Ni2  1  0.00372184  1.00231208  0.33634829  1
  Ni  Ni3  1  1.00232352  0.33540138  0.00315649  1
  Ni  Ni4  1  0.17027639  0.50233542  0.16910043  1
  Fe  Fe5  1  1.00237383  0.33685063  0.33599615  1
  Ni  Ni6  1  0.00270148  0.66916264  0.00276411  1
  Ni  Ni7  1  0.16980763  0.83687324  0.16824139  1
  Ni  Ni8  1  0.00271198  0.67041331  0.33547369  1
  Ni  Ni9  1  0.33595913  0.00267220  1.00191118  1
  Fe  Fe10  1  0.50231133  0.16914744  0.16984486  1
  Ni  Ni11  1  0.33445382  0.00262426  0.33652717  1
  Ni  Ni12  1  0.33594872  0.33504134  0.00313221  1
  Ni  Ni13  1  0.50264027  0.50335629  0.16881831  1
  Fe  Fe14  1  0.33553781  0.33698007  0.33616228  1
  Ni  Ni15  1  0.33560589  0.66954875  0.00275441  1
  Ni  Ni16  1  0.50213057  0.83464303  0.17004961  1
  Ni  Ni17  1  0.33519454  0.67047056  0.33613947  1
  Ni  Ni18  1  0.66866849  0.00303009  0.00402191  1
  Ni  Ni19  1  0.83660686  0.16875765  0.16975216  1
  Fe  Fe20  1  0.66966086  1.00062421  0.33604604  1
  Ni  Ni21  1  0.66905329  0.33505497  1.00143472  1
  Ni  Ni22  1  0.83443677  0.50201976  0.16876318  1
  Ni  Ni23  1  0.66915544  0.33535864  0.33644580  1
  Ni  Ni24  1  0.66898530  0.66918917  1.00232981  1
  Ni  Ni25  1  0.83539305  0.83633977  0.16873404  1
  Ni  Ni26  1  0.66936012  0.66699918  0.33660528  1
  Ni  Ni27  1  0.16938231  0.16856250  0.50256822  1
  Fe  Fe28  1  1.00159155  1.00215233  0.66908720  1
  Ni  Ni29  1  0.16839920  0.16948182  0.83525412  1
  Ni  Ni30  1  0.17010879  0.50286761  0.50209008  1
  Ni  Ni31  1  0.00258358  0.33594884  0.66766027  1
  Ni  Ni32  1  0.17020557  0.50155298  0.83604242  1
  Ni  Ni33  1  0.16874223  0.83613957  0.50290011  1
  Ni  Ni34  1  0.00298220  0.66884936  0.66904788  1
  Ni  Ni35  1  0.16982463  0.83627204  0.83620261  1
  Ni  Ni36  1  0.50234893  0.17003110  0.50210138  1
  Fe  Fe37  1  0.33595460  1.00239371  0.66894552  1
  Fe  Fe38  1  0.50265282  0.16894706  0.83515248  1
  Ni  Ni39  1  0.50249620  0.50199373  0.50294561  1
  Ni  Ni40  1  0.33552273  0.33571847  0.66815400  1
  Ni  Ni41  1  0.50205725  0.50327090  0.83555748  1
  Fe  Fe42  1  0.50221420  0.83530672  0.50228197  1
  Ni  Ni43  1  0.33488885  0.66887123  0.66840075  1
  Ni  Ni44  1  0.50284922  0.83484952  0.83505793  1
  Ni  Ni45  1  0.83556174  0.16867007  0.50207620  1
  Ni  Ni46  1  0.66909641  0.00295013  0.66744532  1
  Ni  Ni47  1  0.83647064  0.16868657  0.83544790  1
  Ni  Ni48  1  0.83472449  0.50248554  0.50289634  1
  Ni  Ni49  1  0.66916217  0.33483174  0.66940999  1
  Ni  Ni50  1  0.83502748  0.50193172  0.83554057  1
  Ni  Ni51  1  0.83621568  0.83590519  0.50229634  1
  Ni  Ni52  1  0.66935502  0.66951868  0.66835545  1
  Ni  Ni53  1  0.83459504  0.83669077  0.83636712  1
" 