5359,Ni16Fe77Cr6_12,-229.729333787893, 174.929990898828,Ni16Fe77Cr6,"# generated using pymatgen
 data_Cr4Fe41Ni9
_symmetry_space_group_name_H-M   'P 1'
_cell_length_a   7.41743795
_cell_length_b   7.41743795
_cell_length_c   10.48984135
_cell_angle_alpha   90.00000000
_cell_angle_beta   90.00000000
_cell_angle_gamma   90.00000000
_symmetry_Int_Tables_number   1
_chemical_formula_structural   Cr4Fe41Ni9
_chemical_formula_sum   'Cr4 Fe41 Ni9'
_cell_volume   577.13413764
_cell_formula_units_Z   1
loop_
 _symmetry_equiv_pos_site_id
 _symmetry_equiv_pos_as_xyz
  1  'x, y, z'
loop_
 _atom_site_type_symbol
 _atom_site_label
 _atom_site_symmetry_multiplicity
 _atom_site_fract_x
 _atom_site_fract_y
 _atom_site_fract_z
 _atom_site_occupancy
  Fe  Fe0  1  1.00298847  1.00246613  0.00399310  1
  Fe  Fe1  1  0.17015709  0.16993120  0.16912823  1
  Cr  Cr2  1  1.00279289  0.00421898  0.33565341  1
  Fe  Fe3  1  0.00395835  0.33665714  1.00289987  1
  Fe  Fe4  1  0.16857219  0.50364182  0.16933691  1
  Fe  Fe5  1  1.00296063  0.33778102  0.33700618  1
  Ni  Ni6  1  1.00262225  0.66997046  0.00366776  1
  Fe  Fe7  1  0.16992958  0.83646021  0.16894900  1
  Fe  Fe8  1  1.00182696  0.66830535  0.33530039  1
  Ni  Ni9  1  0.33738201  0.00357922  0.00432165  1
  Fe  Fe10  1  0.50329566  0.17003178  0.16914913  1
  Fe  Fe11  1  0.33667396  1.00334288  0.33446315  1
  Fe  Fe12  1  0.33594597  0.33702230  1.00253877  1
  Fe  Fe13  1  0.50458364  0.50324382  0.17028204  1
  Fe  Fe14  1  0.33587086  0.33722759  0.33646871  1
  Fe  Fe15  1  0.33586768  0.67020253  1.00314492  1
  Fe  Fe16  1  0.50312619  0.83675578  0.16905815  1
  Fe  Fe17  1  0.33761572  0.66946465  0.33593464  1
  Fe  Fe18  1  0.67083769  1.00254054  0.00384848  1
  Ni  Ni19  1  0.83586775  0.17076492  0.16854929  1
  Cr  Cr20  1  0.67012414  1.00159517  0.33566006  1
  Fe  Fe21  1  0.67012936  0.33631907  0.00384468  1
  Fe  Fe22  1  0.83687545  0.50347084  0.16986744  1
  Fe  Fe23  1  0.67119486  0.33871060  0.33543231  1
  Fe  Fe24  1  0.67047063  0.67117513  0.00336525  1
  Ni  Ni25  1  0.83711757  0.83567389  0.16851573  1
  Fe  Fe26  1  0.67059037  0.66909873  0.33687459  1
  Fe  Fe27  1  0.16871184  0.17242166  0.50468658  1
  Fe  Fe28  1  1.00232956  0.00482239  0.67037059  1
  Fe  Fe29  1  0.16991016  0.17024371  0.83621186  1
  Fe  Fe30  1  0.16966681  0.50144698  0.50437619  1
  Ni  Ni31  1  0.00439409  0.33657408  0.66897481  1
  Ni  Ni32  1  0.17106460  0.50307792  0.83620841  1
  Cr  Cr33  1  0.16934071  0.83563022  0.50473025  1
  Fe  Fe34  1  1.00277356  0.66838927  0.67164149  1
  Fe  Fe35  1  0.16961077  0.83613715  0.83714029  1
  Cr  Cr36  1  0.50230214  0.17160643  0.50364615  1
  Fe  Fe37  1  0.33621620  0.00455270  0.67209792  1
  Fe  Fe38  1  0.50274447  0.16994063  0.83645947  1
  Fe  Fe39  1  0.50348939  0.50558122  0.50344026  1
  Ni  Ni40  1  0.33484063  0.33775645  0.67083926  1
  Fe  Fe41  1  0.50315664  0.50358148  0.83631184  1
  Fe  Fe42  1  0.50462913  0.83419453  0.50409297  1
  Fe  Fe43  1  0.33682064  0.66762166  0.67095448  1
  Fe  Fe44  1  0.50297690  0.83651192  0.83688283  1
  Fe  Fe45  1  0.83882781  0.17128222  0.50468612  1
  Fe  Fe46  1  0.67148069  1.00301743  0.67050558  1
  Fe  Fe47  1  0.83737959  0.17042412  0.83684325  1
  Fe  Fe48  1  0.83687371  0.50359752  0.50347950  1
  Fe  Fe49  1  0.67070760  0.33741940  0.67075364  1
  Fe  Fe50  1  0.83775834  0.50388061  0.83668233  1
  Ni  Ni51  1  0.83580028  0.83462070  0.50483132  1
  Fe  Fe52  1  0.67043879  0.66959936  0.66979291  1
  Ni  Ni53  1  0.83695968  0.83699914  0.83668854  1
" 