3612,Ni16Fe57Cr25_10,-225.480170881484, 177.439482711,Ni16Fe57Cr25,"# generated using pymatgen
 data_Cr15Fe31Ni8
_symmetry_space_group_name_H-M   'P 1'
_cell_length_a   7.47231867
_cell_length_b   7.47231867
_cell_length_c   10.56745441
_cell_angle_alpha   90.00000000
_cell_angle_beta   90.00000000
_cell_angle_gamma   90.00000000
_symmetry_Int_Tables_number   1
_chemical_formula_structural   Cr15Fe31Ni8
_chemical_formula_sum   'Cr15 Fe31 Ni8'
_cell_volume   590.03959086
_cell_formula_units_Z   1
loop_
 _symmetry_equiv_pos_site_id
 _symmetry_equiv_pos_as_xyz
  1  'x, y, z'
loop_
 _atom_site_type_symbol
 _atom_site_label
 _atom_site_symmetry_multiplicity
 _atom_site_fract_x
 _atom_site_fract_y
 _atom_site_fract_z
 _atom_site_occupancy
  Fe  Fe0  1  0.00306274  -0.00004129  0.99872628  1
  Fe  Fe1  1  0.16720395  0.16597505  0.16582121  1
  Cr  Cr2  1  0.99808646  0.00152538  0.32924343  1
  Cr  Cr3  1  -0.00000050  0.33135513  0.00045668  1
  Fe  Fe4  1  0.16823780  0.50003776  0.16565975  1
  Fe  Fe5  1  0.99905920  0.33392695  0.33255405  1
  Fe  Fe6  1  0.00190731  0.66681026  -0.00011263  1
  Ni  Ni7  1  0.16556837  0.83407950  0.16298787  1
  Cr  Cr8  1  0.99928871  0.66436076  0.33397223  1
  Fe  Fe9  1  0.32982499  0.99910032  0.99775542  1
  Cr  Cr10  1  0.49805427  0.17003638  0.16766517  1
  Fe  Fe11  1  0.33322852  0.00006782  0.33263519  1
  Fe  Fe12  1  0.33399487  0.33358034  0.99864076  1
  Ni  Ni13  1  0.50086827  0.49745904  0.16477911  1
  Fe  Fe14  1  0.33208752  0.33297114  0.33196444  1
  Fe  Fe15  1  0.33245306  0.66621305  0.99924099  1
  Cr  Cr16  1  0.49893943  0.83055864  0.16787293  1
  Cr  Cr17  1  0.33410420  0.66531976  0.33300182  1
  Cr  Cr18  1  0.66669288  0.00041778  0.99701536  1
  Fe  Fe19  1  0.83282299  0.16828250  0.16603940  1
  Fe  Fe20  1  0.66598669  0.99949982  0.33518640  1
  Fe  Fe21  1  0.66571111  0.33497783  0.99882983  1
  Fe  Fe22  1  0.83095161  0.49883085  0.16622547  1
  Fe  Fe23  1  0.66784349  0.33368470  0.33243715  1
  Fe  Fe24  1  0.66478580  0.66259378  0.99861330  1
  Cr  Cr25  1  0.83469948  0.83166415  0.16424810  1
  Fe  Fe26  1  0.66741578  0.66561842  0.33384817  1
  Cr  Cr27  1  0.16723780  0.16850545  0.49795511  1
  Cr  Cr28  1  0.99803498  0.00151648  0.66920160  1
  Ni  Ni29  1  0.16632739  0.16603848  0.83453143  1
  Fe  Fe30  1  0.16342717  0.49917840  0.50091117  1
  Ni  Ni31  1  0.99865224  0.33432248  0.66576833  1
  Fe  Fe32  1  0.16522614  0.50083687  0.83260788  1
  Cr  Cr33  1  0.16609007  0.83252452  0.50294487  1
  Fe  Fe34  1  0.00090911  0.66353409  0.66617367  1
  Ni  Ni35  1  0.16886556  0.83274452  0.83398942  1
  Fe  Fe36  1  0.50196690  0.16341839  0.49868589  1
  Fe  Fe37  1  0.33463403  0.99878995  0.66893945  1
  Fe  Fe38  1  0.49913668  0.16450715  0.83315943  1
  Cr  Cr39  1  0.50001603  0.49782075  0.49819042  1
  Cr  Cr40  1  0.33171085  0.33338653  0.66879189  1
  Fe  Fe41  1  0.49931760  0.50000260  0.83493597  1
  Fe  Fe42  1  0.50132420  0.83605424  0.50011561  1
  Fe  Fe43  1  0.33095123  0.66749158  0.66825065  1
  Ni  Ni44  1  0.49624160  0.83162112  0.83183086  1
  Fe  Fe45  1  0.83075617  0.16718047  0.50061132  1
  Fe  Fe46  1  0.66500192  0.00223621  0.66646893  1
  Ni  Ni47  1  0.83310690  0.17002466  0.83157882  1
  Fe  Fe48  1  0.83508750  0.49859179  0.50026544  1
  Fe  Fe49  1  0.66926648  0.33074864  0.66732056  1
  Fe  Fe50  1  0.83416197  0.49793934  0.83250947  1
  Ni  Ni51  1  0.83031478  0.83276030  0.49941610  1
  Cr  Cr52  1  0.66522239  0.66813733  0.66589437  1
  Cr  Cr53  1  0.83508718  0.83213570  0.83459730  1
" 