7743,Ni16Fe12Cr70_2,-209.981004772074, 177.38483842224,Ni16Fe12Cr70,"# generated using pymatgen
 data_Cr20Fe3Ni4
_symmetry_space_group_name_H-M   'P 1'
_cell_length_a   7.56100105
_cell_length_b   7.56100105
_cell_length_c   10.69287023
_cell_angle_alpha   90.00000000
_cell_angle_beta   90.00000000
_cell_angle_gamma   90.00000000
_symmetry_Int_Tables_number   1
_chemical_formula_structural   Cr20Fe3Ni4
_chemical_formula_sum   'Cr40 Fe6 Ni8'
_cell_volume   611.29788464
_cell_formula_units_Z   2
loop_
 _symmetry_equiv_pos_site_id
 _symmetry_equiv_pos_as_xyz
  1  'x, y, z'
loop_
 _atom_site_type_symbol
 _atom_site_label
 _atom_site_symmetry_multiplicity
 _atom_site_fract_x
 _atom_site_fract_y
 _atom_site_fract_z
 _atom_site_occupancy
  Cr  Cr0  1  -0.00369126  -0.00487789  -0.00520071  1
  Ni  Ni1  1  0.16338370  0.16268256  0.16095155  1
  Cr  Cr2  1  -0.00129659  -0.00382466  0.32763053  1
  Cr  Cr3  1  0.99196866  0.32775556  -0.00441466  1
  Cr  Cr4  1  0.16114134  0.49422738  0.15732413  1
  Cr  Cr5  1  0.99311290  0.32776210  0.32628694  1
  Ni  Ni6  1  0.99128278  0.65756148  -0.00608106  1
  Cr  Cr7  1  0.16029852  0.82331842  0.15745836  1
  Cr  Cr8  1  0.99164639  0.65795629  0.32827466  1
  Cr  Cr9  1  0.32744127  -0.00384219  -0.00560173  1
  Ni  Ni10  1  0.49463357  0.16278443  0.16217343  1
  Cr  Cr11  1  0.32571174  -0.00431784  0.32556515  1
  Cr  Cr12  1  0.32950937  0.32376607  -0.00424838  1
  Fe  Fe13  1  0.49589073  0.49078606  0.16101539  1
  Cr  Cr14  1  0.32877365  0.32559337  0.32664854  1
  Fe  Fe15  1  0.32801828  0.65897830  -0.00543743  1
  Cr  Cr16  1  0.49491150  0.82687440  0.16055226  1
  Cr  Cr17  1  0.33009920  0.65893970  0.32654864  1
  Cr  Cr18  1  0.65699839  -0.00415996  0.99281422  1
  Cr  Cr19  1  0.82401134  0.16206954  0.16345554  1
  Fe  Fe20  1  0.65829579  -0.00323748  0.32571551  1
  Cr  Cr21  1  0.65920395  0.32845417  -0.00581591  1
  Ni  Ni22  1  0.82558636  0.49364693  0.15967577  1
  Ni  Ni23  1  0.65907482  0.33000731  0.32526187  1
  Cr  Cr24  1  0.66152841  0.65677307  0.99325379  1
  Cr  Cr25  1  0.82636630  0.82751627  0.16156743  1
  Cr  Cr26  1  0.66086932  0.65482705  0.32887640  1
  Ni  Ni27  1  0.16292480  0.16432132  0.49487996  1
  Cr  Cr28  1  -0.00373064  -0.00506564  0.65873964  1
  Cr  Cr29  1  0.16098573  0.16452973  0.82526739  1
  Cr  Cr30  1  0.16269538  0.49151345  0.49535817  1
  Cr  Cr31  1  0.99261301  0.32758932  0.65933621  1
  Cr  Cr32  1  0.16021209  0.49437266  0.82856376  1
  Cr  Cr33  1  0.16118025  0.82574539  0.49348885  1
  Cr  Cr34  1  0.99054913  0.65876124  0.65948798  1
  Cr  Cr35  1  0.16039502  0.82276875  0.82986484  1
  Cr  Cr36  1  0.49575569  0.16213209  0.49434218  1
  Cr  Cr37  1  0.32624529  -0.00389280  0.66136983  1
  Ni  Ni38  1  0.49288021  0.16345964  0.82627204  1
  Fe  Fe39  1  0.49580714  0.49039562  0.49316991  1
  Fe  Fe40  1  0.32804759  0.32655146  0.65985618  1
  Cr  Cr41  1  0.48962428  0.49235873  0.82655933  1
  Cr  Cr42  1  0.49529647  0.82791222  0.49246756  1
  Cr  Cr43  1  0.32984835  0.66028141  0.65808274  1
  Cr  Cr44  1  0.49332013  0.82693313  0.82783978  1
  Cr  Cr45  1  0.82508512  0.16197311  0.49093083  1
  Cr  Cr46  1  0.65864151  0.99346780  0.66355621  1
  Cr  Cr47  1  0.82473133  0.16147123  0.82719613  1
  Ni  Ni48  1  0.82477869  0.49095587  0.49343020  1
  Cr  Cr49  1  0.66000925  0.33003739  0.66263395  1
  Fe  Fe50  1  0.82759135  0.49377791  0.82835730  1
  Cr  Cr51  1  0.82485515  0.82944279  0.49185242  1
  Cr  Cr52  1  0.66140589  0.65737156  0.65907922  1
  Cr  Cr53  1  0.82797779  0.82731062  0.82826358  1
" 