366,Ni16Fe57Cr25_15,-225.495182944703, 175.787851366739,Ni16Fe57Cr25,"# generated using pymatgen
 data_Cr15Fe31Ni8
_symmetry_space_group_name_H-M   'P 1'
_cell_length_a   7.47484841
_cell_length_b   7.47484841
_cell_length_c   10.57103200
_cell_angle_alpha   90.00000000
_cell_angle_beta   90.00000000
_cell_angle_gamma   90.00000000
_symmetry_Int_Tables_number   1
_chemical_formula_structural   Cr15Fe31Ni8
_chemical_formula_sum   'Cr15 Fe31 Ni8'
_cell_volume   590.63906404
_cell_formula_units_Z   1
loop_
 _symmetry_equiv_pos_site_id
 _symmetry_equiv_pos_as_xyz
  1  'x, y, z'
loop_
 _atom_site_type_symbol
 _atom_site_label
 _atom_site_symmetry_multiplicity
 _atom_site_fract_x
 _atom_site_fract_y
 _atom_site_fract_z
 _atom_site_occupancy
  Fe  Fe0  1  0.99493278  0.99659039  0.00076309  1
  Cr  Cr1  1  0.16836010  0.16493814  0.16373782  1
  Fe  Fe2  1  0.00007850  0.99676608  0.33125267  1
  Cr  Cr3  1  -0.00027355  0.33376119  0.00106235  1
  Ni  Ni4  1  0.16984014  0.50148874  0.16656554  1
  Cr  Cr5  1  0.99793587  0.33273650  0.33174233  1
  Fe  Fe6  1  0.99850201  0.66599336  0.00042840  1
  Fe  Fe7  1  0.16458792  0.83019131  0.16607206  1
  Fe  Fe8  1  0.00337304  0.66759838  0.33159583  1
  Fe  Fe9  1  0.33710088  0.99762898  -0.00015437  1
  Fe  Fe10  1  0.50121127  0.16457364  0.16749002  1
  Fe  Fe11  1  0.33437851  0.99841433  0.33284063  1
  Fe  Fe12  1  0.33440813  0.33612460  -0.00048972  1
  Cr  Cr13  1  0.49768024  0.49990234  0.16646823  1
  Ni  Ni14  1  0.33265929  0.33344069  0.33195545  1
  Fe  Fe15  1  0.33273177  0.66484131  0.99920904  1
  Fe  Fe16  1  0.50032634  0.83335312  0.16613119  1
  Ni  Ni17  1  0.33266549  0.66922138  0.33230756  1
  Fe  Fe18  1  0.66669395  0.99781204  0.00023695  1
  Ni  Ni19  1  0.83135217  0.15992825  0.16791495  1
  Fe  Fe20  1  0.66434528  -0.00026119  0.33131914  1
  Cr  Cr21  1  0.66757999  0.33299738  -0.00016034  1
  Cr  Cr22  1  0.83050097  0.50396531  0.16891267  1
  Fe  Fe23  1  0.66352297  0.33017421  0.33253097  1
  Ni  Ni24  1  0.66440484  0.67023311  0.99888344  1
  Ni  Ni25  1  0.83186414  0.83487387  0.16500068  1
  Fe  Fe26  1  0.66448984  0.66835648  0.33204470  1
  Cr  Cr27  1  0.16858541  0.16580978  0.49895722  1
  Cr  Cr28  1  0.99794368  0.00083226  0.66611693  1
  Cr  Cr29  1  0.16863857  0.16713745  0.83518391  1
  Fe  Fe30  1  0.16724226  0.50332306  0.49852792  1
  Cr  Cr31  1  0.99715912  0.33505538  0.66600294  1
  Ni  Ni32  1  0.16969343  0.50066412  0.83140447  1
  Fe  Fe33  1  0.16855003  0.82839449  0.49828723  1
  Fe  Fe34  1  0.00226528  0.66493290  0.66621927  1
  Cr  Cr35  1  0.16389784  0.83150162  0.83354307  1
  Fe  Fe36  1  0.50238229  0.16553089  0.49761659  1
  Cr  Cr37  1  0.33650130  0.99530928  0.66332130  1
  Fe  Fe38  1  0.49990018  0.16646533  0.83268234  1
  Cr  Cr39  1  0.49895750  0.49863921  0.49832144  1
  Fe  Fe40  1  0.33454004  0.33586704  0.66664964  1
  Fe  Fe41  1  0.49655021  0.50041607  0.83352137  1
  Fe  Fe42  1  0.49780820  0.83256175  0.49719443  1
  Ni  Ni43  1  0.33321535  0.66578043  0.66619311  1
  Fe  Fe44  1  0.49875786  0.83180605  0.83473985  1
  Fe  Fe45  1  0.82829156  0.16711918  0.49768724  1
  Fe  Fe46  1  0.66520746  0.00128749  0.66700555  1
  Fe  Fe47  1  0.83092787  0.16474076  0.83368575  1
  Fe  Fe48  1  0.83267700  0.49924857  0.49848011  1
  Fe  Fe49  1  0.66392618  0.33053222  0.66751727  1
  Fe  Fe50  1  0.83422493  0.50236941  0.83401870  1
  Cr  Cr51  1  0.83339958  0.83195066  0.49892912  1
  Cr  Cr52  1  0.66368799  0.66687362  0.66877087  1
  Fe  Fe53  1  0.83163864  0.83202964  0.83558368  1
" 