7930,Ni16Fe77Cr6_1,-229.649626081928, 173.819988097123,Ni16Fe77Cr6,"# generated using pymatgen
 data_Cr4Fe41Ni9
_symmetry_space_group_name_H-M   'P 1'
_cell_length_a   7.42166226
_cell_length_b   7.42166226
_cell_length_c   10.49581543
_cell_angle_alpha   90.00000000
_cell_angle_beta   90.00000000
_cell_angle_gamma   90.00000000
_symmetry_Int_Tables_number   1
_chemical_formula_structural   Cr4Fe41Ni9
_chemical_formula_sum   'Cr4 Fe41 Ni9'
_cell_volume   578.12075209
_cell_formula_units_Z   1
loop_
 _symmetry_equiv_pos_site_id
 _symmetry_equiv_pos_as_xyz
  1  'x, y, z'
loop_
 _atom_site_type_symbol
 _atom_site_label
 _atom_site_symmetry_multiplicity
 _atom_site_fract_x
 _atom_site_fract_y
 _atom_site_fract_z
 _atom_site_occupancy
  Fe  Fe0  1  1.00203631  0.00397983  1.00191451  1
  Fe  Fe1  1  0.16926274  0.17230529  0.17032518  1
  Fe  Fe2  1  0.00309625  0.00456814  0.33749173  1
  Fe  Fe3  1  1.00213396  0.33673270  0.00396593  1
  Fe  Fe4  1  0.16942551  0.50101206  0.17035624  1
  Ni  Ni5  1  0.00380894  0.33654370  0.33608513  1
  Fe  Fe6  1  1.00162211  0.66845715  1.00225846  1
  Cr  Cr7  1  0.16890530  0.83667185  0.17042014  1
  Fe  Fe8  1  1.00268376  0.66783978  0.33717868  1
  Fe  Fe9  1  0.33692085  0.00525819  1.00085064  1
  Fe  Fe10  1  0.50337618  0.17217376  0.16970784  1
  Fe  Fe11  1  0.33504623  0.00669666  0.33771643  1
  Fe  Fe12  1  0.33734883  0.33597801  0.00338188  1
  Fe  Fe13  1  0.50338363  0.50131538  0.16989812  1
  Ni  Ni14  1  0.33525499  0.33555177  0.33523046  1
  Fe  Fe15  1  0.33658005  0.66793706  1.00051950  1
  Cr  Cr16  1  0.50298612  0.83678657  0.16998962  1
  Fe  Fe17  1  0.33384948  0.66732647  0.33719974  1
  Fe  Fe18  1  0.67021388  0.00474571  1.00198337  1
  Fe  Fe19  1  0.83653449  0.17029344  0.16965133  1
  Fe  Fe20  1  0.67102372  0.00603022  0.33672896  1
  Ni  Ni21  1  0.66960889  0.33612401  0.00385522  1
  Ni  Ni22  1  0.83622467  0.50128039  0.16995931  1
  Fe  Fe23  1  0.67051021  0.33555858  0.33501476  1
  Fe  Fe24  1  0.67096910  0.66803283  1.00273934  1
  Fe  Fe25  1  0.83622534  0.83584545  0.16975360  1
  Fe  Fe26  1  0.67263096  0.66758241  0.33512412  1
  Fe  Fe27  1  0.17055734  0.16976832  0.50228173  1
  Fe  Fe28  1  0.00413542  1.00174342  0.66976813  1
  Fe  Fe29  1  0.17012744  0.16915278  0.83656194  1
  Fe  Fe30  1  0.16915698  0.50296643  0.50276047  1
  Fe  Fe31  1  0.00345344  0.33709610  0.66915576  1
  Fe  Fe32  1  0.17062363  0.50335375  0.83605489  1
  Ni  Ni33  1  0.16774931  0.83642461  0.50277061  1
  Fe  Fe34  1  0.00413028  0.67033332  0.66973810  1
  Ni  Ni35  1  0.16987313  0.83600293  0.83637291  1
  Ni  Ni36  1  0.50360989  0.17022936  0.50228161  1
  Fe  Fe37  1  0.33558324  0.00329095  0.67060630  1
  Ni  Ni38  1  0.50382105  0.17016756  0.83633410  1
  Cr  Cr39  1  0.50383394  0.50036337  0.50242815  1
  Fe  Fe40  1  0.33626897  0.33555194  0.66999308  1
  Fe  Fe41  1  0.50245962  0.50316990  0.83617652  1
  Cr  Cr42  1  0.50065771  0.83837244  0.50351515  1
  Ni  Ni43  1  0.33457228  0.67040485  0.67140118  1
  Fe  Fe44  1  0.50221686  0.83657153  0.83619464  1
  Fe  Fe45  1  0.83629593  0.16932639  0.50286121  1
  Fe  Fe46  1  0.66944931  0.00396523  0.67046005  1
  Fe  Fe47  1  0.83618608  0.16939500  0.83666237  1
  Fe  Fe48  1  0.83810613  0.50300147  0.50225326  1
  Fe  Fe49  1  0.66945388  0.33555562  0.67120686  1
  Fe  Fe50  1  0.83608981  0.50270925  0.83724047  1
  Fe  Fe51  1  0.83768108  0.83684567  0.50299623  1
  Fe  Fe52  1  0.67098761  0.66965383  0.67131319  1
  Fe  Fe53  1  0.83636901  0.83706844  0.83642270  1
" 