1262,Ni16Fe12Cr70_0,-210.067082741209, 178.728345019984,Ni16Fe12Cr70,"# generated using pymatgen
 data_Cr20Fe3Ni4
_symmetry_space_group_name_H-M   'P 1'
_cell_length_a   7.55785988
_cell_length_b   7.55785988
_cell_length_c   10.68842794
_cell_angle_alpha   90.00000000
_cell_angle_beta   90.00000000
_cell_angle_gamma   90.00000000
_symmetry_Int_Tables_number   1
_chemical_formula_structural   Cr20Fe3Ni4
_chemical_formula_sum   'Cr40 Fe6 Ni8'
_cell_volume   610.53632104
_cell_formula_units_Z   2
loop_
 _symmetry_equiv_pos_site_id
 _symmetry_equiv_pos_as_xyz
  1  'x, y, z'
loop_
 _atom_site_type_symbol
 _atom_site_label
 _atom_site_symmetry_multiplicity
 _atom_site_fract_x
 _atom_site_fract_y
 _atom_site_fract_z
 _atom_site_occupancy
  Cr  Cr0  1  -0.00427219  0.99284348  -0.00569928  1
  Fe  Fe1  1  0.15942439  0.15829545  0.16178153  1
  Ni  Ni2  1  -0.00100827  -0.00578385  0.32607890  1
  Ni  Ni3  1  -0.00591089  0.32505405  -0.00469007  1
  Cr  Cr4  1  0.15899097  0.49190444  0.15827034  1
  Ni  Ni5  1  -0.00402938  0.32355393  0.32524735  1
  Fe  Fe6  1  -0.00363411  0.66179927  -0.00531123  1
  Ni  Ni7  1  0.16269254  0.82862397  0.16182165  1
  Cr  Cr8  1  -0.00429853  0.66398841  0.32729733  1
  Cr  Cr9  1  0.32522261  0.99298304  -0.00527959  1
  Cr  Cr10  1  0.49230746  0.15746046  0.15977880  1
  Fe  Fe11  1  0.32464059  0.99246419  0.32521236  1
  Cr  Cr12  1  0.32738747  0.32644477  -0.00563368  1
  Fe  Fe13  1  0.49316015  0.49565741  0.16097105  1
  Cr  Cr14  1  0.32819708  0.32771935  0.32542320  1
  Cr  Cr15  1  0.32652697  0.66246105  -0.00411476  1
  Ni  Ni16  1  0.49063442  0.82896063  0.16088878  1
  Cr  Cr17  1  0.32779308  0.66155451  0.32634882  1
  Fe  Fe18  1  0.65967236  -0.00561669  -0.00475751  1
  Cr  Cr19  1  0.82923897  0.16121135  0.16181821  1
  Cr  Cr20  1  0.66197949  0.99313049  0.32548949  1
  Cr  Cr21  1  0.66001935  0.32692701  -0.00595672  1
  Cr  Cr22  1  0.83080606  0.49286951  0.15980644  1
  Cr  Cr23  1  0.65997442  0.32925839  0.32831429  1
  Cr  Cr24  1  0.65933407  0.66084614  -0.00223286  1
  Cr  Cr25  1  0.82658606  0.82826266  0.15960118  1
  Cr  Cr26  1  0.65818059  0.65921782  0.32665634  1
  Cr  Cr27  1  0.16101124  0.16008689  0.48934260  1
  Cr  Cr28  1  -0.00406729  0.99246599  0.65963480  1
  Cr  Cr29  1  0.16114733  0.16253028  0.82832907  1
  Cr  Cr30  1  0.16104561  0.49362216  0.49484139  1
  Cr  Cr31  1  0.99344190  0.32529632  0.66033309  1
  Cr  Cr32  1  0.15923636  0.49509103  0.82923325  1
  Ni  Ni33  1  0.16165983  0.82912661  0.49190323  1
  Cr  Cr34  1  -0.00421446  0.66455521  0.66209771  1
  Ni  Ni35  1  0.16109210  0.82724927  0.82863802  1
  Cr  Cr36  1  0.49235131  0.15879881  0.49552937  1
  Cr  Cr37  1  0.32370042  0.99326376  0.66180865  1
  Fe  Fe38  1  0.49328961  0.15980476  0.82854629  1
  Ni  Ni39  1  0.49241800  0.49355213  0.49279467  1
  Cr  Cr40  1  0.32901034  0.32715043  0.66163598  1
  Cr  Cr41  1  0.49281755  0.49511002  0.82674585  1
  Cr  Cr42  1  0.49188018  0.82849397  0.49295259  1
  Cr  Cr43  1  0.32588212  0.66169043  0.65938053  1
  Cr  Cr44  1  0.49392959  0.82950798  0.82829496  1
  Cr  Cr45  1  0.82863346  0.15989923  0.49131962  1
  Cr  Cr46  1  0.66183784  -0.00444397  0.66372427  1
  Cr  Cr47  1  0.82614217  0.16054096  0.82892874  1
  Cr  Cr48  1  0.82954582  0.49337536  0.49294995  1
  Cr  Cr49  1  0.65956181  0.32774664  0.65965751  1
  Cr  Cr50  1  0.83008608  0.49453406  0.82958211  1
  Cr  Cr51  1  0.82771307  0.82906771  0.49336481  1
  Cr  Cr52  1  0.66040309  0.65890824  0.65721521  1
  Cr  Cr53  1  0.82640784  0.82646310  0.82966400  1
" 