3145,Ni16Fe77Cr6_3,-229.942700323921, 174.294575946383,Ni16Fe77Cr6,"# generated using pymatgen
 data_Cr4Fe41Ni9
_symmetry_space_group_name_H-M   'P 1'
_cell_length_a   7.41959434
_cell_length_b   7.41959434
_cell_length_c   10.49289094
_cell_angle_alpha   90.00000000
_cell_angle_beta   90.00000000
_cell_angle_gamma   90.00000000
_symmetry_Int_Tables_number   1
_chemical_formula_structural   Cr4Fe41Ni9
_chemical_formula_sum   'Cr4 Fe41 Ni9'
_cell_volume   577.63763475
_cell_formula_units_Z   1
loop_
 _symmetry_equiv_pos_site_id
 _symmetry_equiv_pos_as_xyz
  1  'x, y, z'
loop_
 _atom_site_type_symbol
 _atom_site_label
 _atom_site_symmetry_multiplicity
 _atom_site_fract_x
 _atom_site_fract_y
 _atom_site_fract_z
 _atom_site_occupancy
  Fe  Fe0  1  0.00366446  0.00375746  0.00341172  1
  Fe  Fe1  1  0.16957760  0.16853265  0.16909653  1
  Ni  Ni2  1  0.00511720  1.00281734  0.33642923  1
  Ni  Ni3  1  0.00337354  0.33670659  1.00270140  1
  Fe  Fe4  1  0.16919268  0.50338375  0.16878788  1
  Fe  Fe5  1  1.00214362  0.33510674  0.33636949  1
  Fe  Fe6  1  0.00522336  0.66979741  0.00333334  1
  Fe  Fe7  1  0.17066246  0.83767425  0.17027739  1
  Fe  Fe8  1  0.00361397  0.67094981  0.33649871  1
  Ni  Ni9  1  0.33665988  0.00357883  0.00355198  1
  Ni  Ni10  1  0.50323318  0.16966541  0.16770299  1
  Ni  Ni11  1  0.33441677  1.00189544  0.33727220  1
  Fe  Fe12  1  0.33643246  0.33603824  1.00311720  1
  Fe  Fe13  1  0.50335905  0.50269381  0.16951817  1
  Cr  Cr14  1  0.33645774  0.33517208  0.33683287  1
  Fe  Fe15  1  0.33494547  0.66978055  1.00265062  1
  Fe  Fe16  1  0.50106964  0.83754696  0.16937604  1
  Fe  Fe17  1  0.33626254  0.67260076  0.33656782  1
  Fe  Fe18  1  0.66942085  0.00524168  0.00337158  1
  Fe  Fe19  1  0.83717096  0.17082100  0.16907034  1
  Cr  Cr20  1  0.66939995  0.00324766  0.33652697  1
  Fe  Fe21  1  0.66940334  0.33448132  1.00317361  1
  Fe  Fe22  1  0.83704168  0.50160862  0.17045487  1
  Fe  Fe23  1  0.67112450  0.33693593  0.33645912  1
  Cr  Cr24  1  0.66953430  0.66982316  1.00227258  1
  Fe  Fe25  1  0.83786106  0.83716068  0.17025003  1
  Fe  Fe26  1  0.66971752  0.66906103  0.33641650  1
  Ni  Ni27  1  0.16858000  0.16884149  0.50276544  1
  Fe  Fe28  1  0.00333916  0.00392478  0.66919599  1
  Ni  Ni29  1  0.16896738  0.17023737  0.83691421  1
  Fe  Fe30  1  0.16900497  0.50351477  0.50401815  1
  Fe  Fe31  1  0.00533024  0.33601621  0.67035056  1
  Fe  Fe32  1  0.17055852  0.50300040  0.83678838  1
  Fe  Fe33  1  0.16982536  0.83751022  0.50250050  1
  Fe  Fe34  1  1.00282474  0.66965340  0.66976164  1
  Fe  Fe35  1  0.17121454  0.83670509  0.83681794  1
  Fe  Fe36  1  0.50170316  0.16888096  0.50309245  1
  Fe  Fe37  1  0.33650936  0.00370235  0.67006829  1
  Fe  Fe38  1  0.50171988  0.16874103  0.83812189  1
  Fe  Fe39  1  0.50277835  0.50427652  0.50374171  1
  Fe  Fe40  1  0.33467774  0.33640148  0.66977734  1
  Ni  Ni41  1  0.50220877  0.50451615  0.83699025  1
  Fe  Fe42  1  0.50164001  0.83643566  0.50431573  1
  Fe  Fe43  1  0.33741134  0.66949160  0.67037465  1
  Ni  Ni44  1  0.50337987  0.83608242  0.83575400  1
  Fe  Fe45  1  0.83888259  0.16970403  0.50297914  1
  Fe  Fe46  1  0.66974335  1.00119305  0.66993890  1
  Fe  Fe47  1  0.83704641  0.16939185  0.83754560  1
  Fe  Fe48  1  0.83780819  0.50345173  0.50234450  1
  Cr  Cr49  1  0.66937160  0.33680705  0.67034776  1
  Fe  Fe50  1  0.83787096  0.50294269  0.83679193  1
  Fe  Fe51  1  0.83812695  0.83643685  0.50376356  1
  Fe  Fe52  1  0.66935945  0.67148429  0.67055599  1
  Fe  Fe53  1  0.83672040  0.83726047  0.83557541  1
" 