6839,Ni16Fe12Cr70_5,-210.050995987354, 173.326142767231,Ni16Fe12Cr70,"# generated using pymatgen
 data_Cr20Fe3Ni4
_symmetry_space_group_name_H-M   'P 1'
_cell_length_a   7.56363889
_cell_length_b   7.56363889
_cell_length_c   10.69660070
_cell_angle_alpha   90.00000000
_cell_angle_beta   90.00000000
_cell_angle_gamma   90.00000000
_symmetry_Int_Tables_number   1
_chemical_formula_structural   Cr20Fe3Ni4
_chemical_formula_sum   'Cr40 Fe6 Ni8'
_cell_volume   611.93790694
_cell_formula_units_Z   2
loop_
 _symmetry_equiv_pos_site_id
 _symmetry_equiv_pos_as_xyz
  1  'x, y, z'
loop_
 _atom_site_type_symbol
 _atom_site_label
 _atom_site_symmetry_multiplicity
 _atom_site_fract_x
 _atom_site_fract_y
 _atom_site_fract_z
 _atom_site_occupancy
  Cr  Cr0  1  -0.00627815  -0.00526732  0.99297262  1
  Fe  Fe1  1  0.15980189  0.16131538  0.15942608  1
  Cr  Cr2  1  0.99262060  0.99338918  0.32707548  1
  Ni  Ni3  1  0.99313692  0.32440179  0.99311963  1
  Cr  Cr4  1  0.15716082  0.49267783  0.15949185  1
  Cr  Cr5  1  -0.00580391  0.32513535  0.32800082  1
  Cr  Cr6  1  0.99303917  0.66153292  -0.00504983  1
  Cr  Cr7  1  0.15960413  0.82604318  0.16219975  1
  Fe  Fe8  1  0.99360946  0.66035696  0.32647941  1
  Cr  Cr9  1  0.32489249  -0.00474211  -0.00456809  1
  Ni  Ni10  1  0.49467088  0.16193285  0.16144700  1
  Cr  Cr11  1  0.32567058  -0.00336450  0.32431463  1
  Cr  Cr12  1  0.32582968  0.32614155  -0.00219547  1
  Fe  Fe13  1  0.49447978  0.49176550  0.16059427  1
  Cr  Cr14  1  0.32934001  0.32709819  0.32449921  1
  Cr  Cr15  1  0.32663845  0.65952404  0.99092713  1
  Cr  Cr16  1  0.49427081  0.82971623  0.15906124  1
  Cr  Cr17  1  0.32793486  0.65717669  0.32897840  1
  Cr  Cr18  1  0.66214086  -0.00601126  0.99317994  1
  Cr  Cr19  1  0.82563978  0.16244778  0.15958452  1
  Cr  Cr20  1  0.66233706  -0.00537692  0.32663505  1
  Cr  Cr21  1  0.66006961  0.32674118  -0.00621148  1
  Cr  Cr22  1  0.82860241  0.49370680  0.16012668  1
  Fe  Fe23  1  0.65983953  0.32564834  0.32676908  1
  Cr  Cr24  1  0.66076969  0.66016887  -0.00576635  1
  Fe  Fe25  1  0.82695085  0.82757440  0.16091859  1
  Cr  Cr26  1  0.66122328  0.65785393  0.32579515  1
  Cr  Cr27  1  0.15768982  0.16040844  0.49464281  1
  Ni  Ni28  1  0.99218895  -0.00277958  0.66086798  1
  Cr  Cr29  1  0.15682772  0.16111843  0.82728367  1
  Cr  Cr30  1  0.15901381  0.49435427  0.49537545  1
  Ni  Ni31  1  0.99131366  0.32207818  0.66057528  1
  Cr  Cr32  1  0.15786306  0.49354097  0.82632100  1
  Cr  Cr33  1  0.16108787  0.82620078  0.49479109  1
  Cr  Cr34  1  -0.00537090  0.66202132  0.66055238  1
  Ni  Ni35  1  0.16013148  0.82676734  0.82408864  1
  Cr  Cr36  1  0.49637877  0.15970902  0.49199897  1
  Cr  Cr37  1  0.32306982  0.99238846  0.66140834  1
  Cr  Cr38  1  0.49617383  0.15882883  0.82796138  1
  Fe  Fe39  1  0.49383860  0.49351518  0.49420029  1
  Cr  Cr40  1  0.32613511  0.32986252  0.65879750  1
  Cr  Cr41  1  0.49305198  0.49433219  0.82603615  1
  Cr  Cr42  1  0.49201641  0.82701932  0.49649662  1
  Ni  Ni43  1  0.32605038  0.65999706  0.66046975  1
  Cr  Cr44  1  0.49040100  0.82768777  0.82535319  1
  Ni  Ni45  1  0.82745959  0.16244375  0.49545623  1
  Cr  Cr46  1  0.66576406  -0.00487866  0.66086341  1
  Ni  Ni47  1  0.83077494  0.16185956  0.82512106  1
  Cr  Cr48  1  0.82830430  0.49028055  0.49230496  1
  Cr  Cr49  1  0.66263376  0.32645041  0.65829245  1
  Cr  Cr50  1  0.83011087  0.48824711  0.82845894  1
  Cr  Cr51  1  0.82780521  0.82832510  0.49100795  1
  Cr  Cr52  1  0.65851989  0.65885857  0.66065377  1
  Cr  Cr53  1  0.82777158  0.82897337  0.82801252  1
" 