2840,Ni16Fe57Cr25_12,-225.524866288595, 180.432725319195,Ni16Fe57Cr25,"# generated using pymatgen
 data_Cr15Fe31Ni8
_symmetry_space_group_name_H-M   'P 1'
_cell_length_a   7.46796061
_cell_length_b   7.46796061
_cell_length_c   10.56129117
_cell_angle_alpha   90.00000000
_cell_angle_beta   90.00000000
_cell_angle_gamma   90.00000000
_symmetry_Int_Tables_number   1
_chemical_formula_structural   Cr15Fe31Ni8
_chemical_formula_sum   'Cr15 Fe31 Ni8'
_cell_volume   589.00780961
_cell_formula_units_Z   1
loop_
 _symmetry_equiv_pos_site_id
 _symmetry_equiv_pos_as_xyz
  1  'x, y, z'
loop_
 _atom_site_type_symbol
 _atom_site_label
 _atom_site_symmetry_multiplicity
 _atom_site_fract_x
 _atom_site_fract_y
 _atom_site_fract_z
 _atom_site_occupancy
  Fe  Fe0  1  0.99852564  0.00001554  0.00070114  1
  Fe  Fe1  1  0.16701492  0.16563012  0.16766010  1
  Fe  Fe2  1  0.00239356  0.99892604  0.33338666  1
  Fe  Fe3  1  0.99844034  0.33159997  0.99977204  1
  Cr  Cr4  1  0.16957601  0.49928509  0.16612156  1
  Fe  Fe5  1  0.00120390  0.33095804  0.33143796  1
  Ni  Ni6  1  0.00001967  0.66718906  0.99758600  1
  Fe  Fe7  1  0.16754324  0.83247883  0.16823483  1
  Fe  Fe8  1  0.00213444  0.66993393  0.33327341  1
  Cr  Cr9  1  0.33253052  0.99965708  0.99977592  1
  Fe  Fe10  1  0.49961100  0.16617570  0.16719828  1
  Ni  Ni11  1  0.33240649  0.99904419  0.33379894  1
  Ni  Ni12  1  0.33488292  0.33151682  0.00303605  1
  Ni  Ni13  1  0.49828798  0.50068492  0.16601229  1
  Fe  Fe14  1  0.33576216  0.33091224  0.33150663  1
  Fe  Fe15  1  0.33522858  0.66718291  0.00144057  1
  Fe  Fe16  1  0.49927820  0.83166800  0.16668770  1
  Fe  Fe17  1  0.33566465  0.66901870  0.33340620  1
  Ni  Ni18  1  0.66547176  0.00147839  -0.00002195  1
  Fe  Fe19  1  0.83288367  0.16691191  0.16569490  1
  Fe  Fe20  1  0.66181169  0.99961579  0.33308359  1
  Fe  Fe21  1  0.66504967  0.33188094  0.00105127  1
  Cr  Cr22  1  0.83232005  0.50241860  0.16340766  1
  Cr  Cr23  1  0.66457838  0.33569378  0.33229460  1
  Ni  Ni24  1  0.66666209  0.66633865  0.00147853  1
  Cr  Cr25  1  0.83144589  0.83627114  0.16850290  1
  Fe  Fe26  1  0.66212169  0.66909870  0.33313734  1
  Cr  Cr27  1  0.17039864  0.16707554  0.49839798  1
  Cr  Cr28  1  0.00272928  0.99794953  0.66655098  1
  Cr  Cr29  1  0.16835406  0.16778940  0.83240351  1
  Cr  Cr30  1  0.16870693  0.50004617  0.50016953  1
  Fe  Fe31  1  0.99721127  0.33446162  0.66772511  1
  Cr  Cr32  1  0.16750263  0.50058515  0.83337865  1
  Ni  Ni33  1  0.16761844  0.83204549  0.49971417  1
  Fe  Fe34  1  0.00190732  0.66771103  0.66738108  1
  Fe  Fe35  1  0.16862491  0.83125338  0.83273258  1
  Ni  Ni36  1  0.49937525  0.16443506  0.50179253  1
  Fe  Fe37  1  0.33703457  0.99719785  0.66519569  1
  Fe  Fe38  1  0.50224586  0.16569010  0.83265127  1
  Fe  Fe39  1  0.49725403  0.49850688  0.49906143  1
  Fe  Fe40  1  0.33727102  0.33225108  0.66666627  1
  Cr  Cr41  1  0.49930633  0.49970315  0.83600250  1
  Fe  Fe42  1  0.49772031  0.83575794  0.49838335  1
  Fe  Fe43  1  0.33261231  0.67034443  0.66571623  1
  Fe  Fe44  1  0.49915172  0.83418641  0.83401502  1
  Cr  Cr45  1  0.83088415  0.16339649  0.49945823  1
  Fe  Fe46  1  0.66320718  0.00096697  0.66795384  1
  Fe  Fe47  1  0.83038476  0.16923927  0.83408271  1
  Cr  Cr48  1  0.83494232  0.50196159  0.49964620  1
  Fe  Fe49  1  0.66532028  0.33032109  0.66666885  1
  Fe  Fe50  1  0.83325178  0.49824515  0.83489280  1
  Fe  Fe51  1  0.83399071  0.83435166  0.49753397  1
  Cr  Cr52  1  0.66623968  0.66555822  0.66386581  1
  Cr  Cr53  1  0.83060426  0.83408338  0.83499368  1
" 