6532,Ni16Fe57Cr25_5,-224.920002306363, 177.903615430899,Ni16Fe57Cr25,"# generated using pymatgen
 data_Cr15Fe31Ni8
_symmetry_space_group_name_H-M   'P 1'
_cell_length_a   7.46611157
_cell_length_b   7.46611157
_cell_length_c   10.55867624
_cell_angle_alpha   90.00000000
_cell_angle_beta   90.00000000
_cell_angle_gamma   90.00000000
_symmetry_Int_Tables_number   1
_chemical_formula_structural   Cr15Fe31Ni8
_chemical_formula_sum   'Cr15 Fe31 Ni8'
_cell_volume   588.57040994
_cell_formula_units_Z   1
loop_
 _symmetry_equiv_pos_site_id
 _symmetry_equiv_pos_as_xyz
  1  'x, y, z'
loop_
 _atom_site_type_symbol
 _atom_site_label
 _atom_site_symmetry_multiplicity
 _atom_site_fract_x
 _atom_site_fract_y
 _atom_site_fract_z
 _atom_site_occupancy
  Ni  Ni0  1  0.00164810  0.00239601  0.99891061  1
  Cr  Cr1  1  0.16725634  0.16626313  0.16723826  1
  Fe  Fe2  1  0.00060234  0.00042880  0.33434688  1
  Fe  Fe3  1  0.99955205  0.33368303  0.99811229  1
  Cr  Cr4  1  0.16774547  0.50011527  0.16575567  1
  Cr  Cr5  1  0.99873597  0.33547778  0.33520601  1
  Fe  Fe6  1  0.00069795  0.66482268  0.99807271  1
  Cr  Cr7  1  0.16532435  0.83375187  0.16619097  1
  Fe  Fe8  1  0.99895034  0.66672478  0.33499051  1
  Cr  Cr9  1  0.33327047  0.99863090  0.99806172  1
  Fe  Fe10  1  0.49981953  0.17012816  0.16867289  1
  Ni  Ni11  1  0.33449435  0.00046507  0.33502758  1
  Fe  Fe12  1  0.33302760  0.33445122  0.99804051  1
  Fe  Fe13  1  0.50049147  0.49858532  0.16879878  1
  Fe  Fe14  1  0.33530956  0.33184959  0.33458467  1
  Fe  Fe15  1  0.33258777  0.66523817  0.99679386  1
  Cr  Cr16  1  0.49887541  0.83244661  0.16881029  1
  Fe  Fe17  1  0.33360683  0.66630456  0.33461305  1
  Cr  Cr18  1  0.66612663  0.00153111  0.99972626  1
  Fe  Fe19  1  0.83434605  0.16833094  0.16642743  1
  Cr  Cr20  1  0.66455378  0.00044356  0.33321581  1
  Cr  Cr21  1  0.66869373  0.33463393  0.00152765  1
  Ni  Ni22  1  0.83170056  0.49870788  0.16845577  1
  Fe  Fe23  1  0.66559545  0.33368582  0.33199055  1
  Cr  Cr24  1  0.66534888  0.66432207  0.00022510  1
  Cr  Cr25  1  0.83592155  0.83330849  0.16685048  1
  Fe  Fe26  1  0.66755238  0.66443874  0.33364334  1
  Fe  Fe27  1  0.16946965  0.16703023  0.49994585  1
  Fe  Fe28  1  0.00110583  0.00038169  0.66726120  1
  Fe  Fe29  1  0.16648006  0.16644057  0.83344692  1
  Ni  Ni30  1  0.16729095  0.49961108  0.49963130  1
  Cr  Cr31  1  0.00028851  0.33581953  0.66669813  1
  Ni  Ni32  1  0.16761231  0.49920620  0.83463022  1
  Cr  Cr33  1  0.16593486  0.83402062  0.49891335  1
  Fe  Fe34  1  0.00146434  0.66612393  0.66695793  1
  Fe  Fe35  1  0.16743917  0.83183943  0.83255216  1
  Fe  Fe36  1  0.49753717  0.16567197  0.50093398  1
  Ni  Ni37  1  0.33550043  0.99949969  0.66727667  1
  Fe  Fe38  1  0.49931112  0.16785547  0.83062378  1
  Cr  Cr39  1  0.49944369  0.49848899  0.50012015  1
  Fe  Fe40  1  0.33302515  0.33258592  0.66749727  1
  Fe  Fe41  1  0.49907679  0.50102742  0.83157505  1
  Fe  Fe42  1  0.49935877  0.83399447  0.50144709  1
  Fe  Fe43  1  0.33236871  0.66669049  0.66851116  1
  Ni  Ni44  1  0.49828941  0.83410733  0.82958911  1
  Fe  Fe45  1  0.83317882  0.16653698  0.50097019  1
  Fe  Fe46  1  0.66505605  0.00080443  0.66616098  1
  Fe  Fe47  1  0.83458227  0.16798456  0.83297093  1
  Fe  Fe48  1  0.83408268  0.50210693  0.50021740  1
  Fe  Fe49  1  0.66575359  0.33219781  0.66808045  1
  Ni  Ni50  1  0.83488004  0.49897783  0.83199256  1
  Fe  Fe51  1  0.83289534  0.83169599  0.50086383  1
  Fe  Fe52  1  0.66628486  0.66711444  0.66768598  1
  Cr  Cr53  1  0.83383956  0.83440559  0.83254180  1
" 