3007,Ni16Fe84_17,-242.678421835546, 201.962315502164,Ni16Fe84,"# generated using pymatgen
 data_Fe4Ni23
_symmetry_space_group_name_H-M   'P 1'
_cell_length_a   7.43148148
_cell_length_b   7.43148148
_cell_length_c   10.50970190
_cell_angle_alpha   90.00000000
_cell_angle_beta   90.00000000
_cell_angle_gamma   90.00000000
_symmetry_Int_Tables_number   1
_chemical_formula_structural   Fe4Ni23
_chemical_formula_sum   'Fe8 Ni46'
_cell_volume   580.41843419
_cell_formula_units_Z   2
loop_
 _symmetry_equiv_pos_site_id
 _symmetry_equiv_pos_as_xyz
  1  'x, y, z'
loop_
 _atom_site_type_symbol
 _atom_site_label
 _atom_site_symmetry_multiplicity
 _atom_site_fract_x
 _atom_site_fract_y
 _atom_site_fract_z
 _atom_site_occupancy
  Ni  Ni0  1  1.00103394  1.00195863  0.00241618  1
  Ni  Ni1  1  0.16856517  0.17013993  0.16879128  1
  Ni  Ni2  1  1.00118617  1.00223428  0.33551530  1
  Ni  Ni3  1  0.00294702  0.33519577  0.00248315  1
  Ni  Ni4  1  0.16925545  0.50138672  0.16940239  1
  Ni  Ni5  1  0.00296168  0.33492155  0.33543320  1
  Ni  Ni6  1  0.00411698  0.67002944  1.00237340  1
  Fe  Fe7  1  0.16853450  0.83507882  0.16906722  1
  Ni  Ni8  1  0.00320505  0.67002280  0.33578009  1
  Fe  Fe9  1  0.33520272  0.00290768  1.00238687  1
  Ni  Ni10  1  0.50204243  0.16925674  0.16862745  1
  Fe  Fe11  1  0.33593898  0.00267885  0.33605723  1
  Ni  Ni12  1  0.33614522  0.33709082  0.00248442  1
  Ni  Ni13  1  0.50192193  0.50282521  0.16920490  1
  Ni  Ni14  1  0.33613418  0.33667346  0.33543442  1
  Ni  Ni15  1  0.33507939  0.66820993  0.00241406  1
  Ni  Ni16  1  0.50317122  0.83509443  0.16919198  1
  Ni  Ni17  1  0.33586496  0.66826063  0.33578042  1
  Ni  Ni18  1  0.66990473  0.00302061  0.00248962  1
  Ni  Ni19  1  0.83655308  0.16888370  0.16946934  1
  Ni  Ni20  1  0.66984420  0.00250837  0.33585671  1
  Ni  Ni21  1  0.66808921  0.33401640  0.00258972  1
  Ni  Ni22  1  0.83601154  0.50251253  0.16837073  1
  Ni  Ni23  1  0.66808505  0.33464663  0.33569872  1
  Fe  Fe24  1  0.66927085  0.66885875  0.00265179  1
  Ni  Ni25  1  0.83511962  0.83577411  0.16920553  1
  Ni  Ni26  1  0.66810944  0.67002366  0.33523735  1
  Ni  Ni27  1  0.16855771  0.16886236  0.50264624  1
  Ni  Ni28  1  1.00133612  1.00208393  0.66925676  1
  Ni  Ni29  1  0.16768511  0.16972707  0.83574068  1
  Fe  Fe30  1  0.16910419  0.50244755  0.50239097  1
  Ni  Ni31  1  0.00311892  0.33484708  0.66924770  1
  Ni  Ni32  1  0.17014936  0.50181438  0.83513135  1
  Ni  Ni33  1  0.16886724  0.83625623  0.50240540  1
  Ni  Ni34  1  0.00344789  0.67025675  0.66902145  1
  Ni  Ni35  1  0.16888096  0.83565106  0.83621012  1
  Ni  Ni36  1  0.50209544  0.16972955  0.50288717  1
  Fe  Fe37  1  0.33538010  1.00211962  0.66874484  1
  Fe  Fe38  1  0.50246374  0.16905653  0.83578218  1
  Ni  Ni39  1  0.50291025  0.50270678  0.50203706  1
  Ni  Ni40  1  0.33598580  0.33674387  0.66925708  1
  Ni  Ni41  1  0.50152244  0.50323305  0.83594037  1
  Ni  Ni42  1  0.50241644  0.83474425  0.50264659  1
  Ni  Ni43  1  0.33570786  0.66840757  0.66898969  1
  Ni  Ni44  1  0.50275886  0.83419764  0.83534168  1
  Ni  Ni45  1  0.83651550  0.16934052  0.50203751  1
  Ni  Ni46  1  0.66991584  1.00235852  0.66883421  1
  Ni  Ni47  1  0.83697080  0.16847567  0.83567199  1
  Ni  Ni48  1  0.83500481  0.50240489  0.50288401  1
  Ni  Ni49  1  0.66808158  0.33464356  0.66888462  1
  Fe  Fe50  1  0.83658464  0.50263304  0.83538801  1
  Ni  Ni51  1  0.83588935  0.83543312  0.50264509  1
  Ni  Ni52  1  0.66803389  0.67017261  0.66945324  1
  Ni  Ni53  1  0.83553905  0.83666095  0.83532909  1
" 