2049,Ni16Fe57Cr25_17,-225.151524073439, 176.023958470778,Ni16Fe57Cr25,"# generated using pymatgen
 data_Cr15Fe31Ni8
_symmetry_space_group_name_H-M   'P 1'
_cell_length_a   7.46740007
_cell_length_b   7.46740007
_cell_length_c   10.56049846
_cell_angle_alpha   90.00000000
_cell_angle_beta   90.00000000
_cell_angle_gamma   90.00000000
_symmetry_Int_Tables_number   1
_chemical_formula_structural   Cr15Fe31Ni8
_chemical_formula_sum   'Cr15 Fe31 Ni8'
_cell_volume   588.87518951
_cell_formula_units_Z   1
loop_
 _symmetry_equiv_pos_site_id
 _symmetry_equiv_pos_as_xyz
  1  'x, y, z'
loop_
 _atom_site_type_symbol
 _atom_site_label
 _atom_site_symmetry_multiplicity
 _atom_site_fract_x
 _atom_site_fract_y
 _atom_site_fract_z
 _atom_site_occupancy
  Ni  Ni0  1  0.00161287  0.00201799  0.99612037  1
  Fe  Fe1  1  0.16785996  0.16738545  0.16643765  1
  Fe  Fe2  1  0.99966523  0.00067098  0.33422895  1
  Fe  Fe3  1  0.00052998  0.33216133  0.99878311  1
  Fe  Fe4  1  0.16440683  0.49774091  0.16855792  1
  Fe  Fe5  1  0.00131427  0.33375404  0.33332332  1
  Cr  Cr6  1  0.99853550  0.66448766  0.99865396  1
  Cr  Cr7  1  0.16534432  0.83517885  0.16802025  1
  Ni  Ni8  1  0.99768357  0.66379341  0.33299429  1
  Fe  Fe9  1  0.33160301  0.00238092  0.99927505  1
  Fe  Fe10  1  0.49692215  0.16462800  0.16646653  1
  Ni  Ni11  1  0.33451253  0.00161223  0.33101966  1
  Fe  Fe12  1  0.33152557  0.32977366  0.99955533  1
  Cr  Cr13  1  0.50013909  0.49950465  0.16648728  1
  Fe  Fe14  1  0.33077450  0.33244215  0.33175658  1
  Cr  Cr15  1  0.33267129  0.66846332  0.99807108  1
  Fe  Fe16  1  0.50023787  0.83463349  0.16957996  1
  Fe  Fe17  1  0.33496690  0.66846725  0.33270676  1
  Cr  Cr18  1  0.66357078  0.00066607  0.99913577  1
  Cr  Cr19  1  0.83504853  0.16587907  0.16511705  1
  Fe  Fe20  1  0.66557586  0.99649298  0.33414777  1
  Fe  Fe21  1  0.66803642  0.33407149  0.99875805  1
  Fe  Fe22  1  0.83481473  0.50061508  0.16676203  1
  Cr  Cr23  1  0.66829394  0.33319483  0.33316142  1
  Fe  Fe24  1  0.66836004  0.66683916  0.99903885  1
  Cr  Cr25  1  0.83405246  0.83334014  0.16841271  1
  Ni  Ni26  1  0.66897101  0.66757078  0.33412959  1
  Fe  Fe27  1  0.16615929  0.16603273  0.49892569  1
  Fe  Fe28  1  0.99773297  0.00171067  0.66839058  1
  Fe  Fe29  1  0.16511061  0.16758283  0.83432675  1
  Cr  Cr30  1  0.16827081  0.49908566  0.49894058  1
  Fe  Fe31  1  0.99903757  0.33132304  0.66757751  1
  Fe  Fe32  1  0.16535845  0.49730501  0.83224590  1
  Cr  Cr33  1  0.16547756  0.83423528  0.49806264  1
  Cr  Cr34  1  0.99878876  0.66556733  0.66901183  1
  Fe  Fe35  1  0.16560728  0.83507951  0.83371894  1
  Cr  Cr36  1  0.50069660  0.16692758  0.49933828  1
  Cr  Cr37  1  0.33478032  0.99996425  0.66990705  1
  Ni  Ni38  1  0.49918726  0.16817210  0.83483302  1
  Cr  Cr39  1  0.49944061  0.50182306  0.50301883  1
  Fe  Fe40  1  0.33142294  0.33249919  0.66848297  1
  Cr  Cr41  1  0.50066356  0.49808235  0.83029968  1
  Ni  Ni42  1  0.50208180  0.83291728  0.49826979  1
  Fe  Fe43  1  0.33439932  0.66783131  0.66785848  1
  Fe  Fe44  1  0.50291051  0.83375462  0.83184312  1
  Fe  Fe45  1  0.83542603  0.16526956  0.50056764  1
  Fe  Fe46  1  0.66850191  0.99887218  0.66800216  1
  Fe  Fe47  1  0.83297185  0.16743621  0.83320482  1
  Fe  Fe48  1  0.83282646  0.50143260  0.50009648  1
  Fe  Fe49  1  0.66942749  0.33196068  0.66794706  1
  Ni  Ni50  1  0.83261397  0.49936648  0.83471773  1
  Fe  Fe51  1  0.83060282  0.83298711  0.49907494  1
  Fe  Fe52  1  0.66726120  0.66924365  0.66659236  1
  Ni  Ni53  1  0.83493843  0.83449744  0.83276944  1
" 