7740,Ni16Fe57Cr25_16,-225.146744957374, 170.918436790805,Ni16Fe57Cr25,"# generated using pymatgen
 data_Cr15Fe31Ni8
_symmetry_space_group_name_H-M   'P 1'
_cell_length_a   7.47089538
_cell_length_b   7.47089538
_cell_length_c   10.56544157
_cell_angle_alpha   90.00000000
_cell_angle_beta   90.00000000
_cell_angle_gamma   90.00000000
_symmetry_Int_Tables_number   1
_chemical_formula_structural   Cr15Fe31Ni8
_chemical_formula_sum   'Cr15 Fe31 Ni8'
_cell_volume   589.70249119
_cell_formula_units_Z   1
loop_
 _symmetry_equiv_pos_site_id
 _symmetry_equiv_pos_as_xyz
  1  'x, y, z'
loop_
 _atom_site_type_symbol
 _atom_site_label
 _atom_site_symmetry_multiplicity
 _atom_site_fract_x
 _atom_site_fract_y
 _atom_site_fract_z
 _atom_site_occupancy
  Fe  Fe0  1  0.99864516  0.99936268  0.00040188  1
  Fe  Fe1  1  0.16722275  0.16556955  0.16517480  1
  Fe  Fe2  1  0.99953433  0.00100889  0.33410308  1
  Cr  Cr3  1  0.00170357  0.33308821  -0.00014300  1
  Fe  Fe4  1  0.16711158  0.50058576  0.16740429  1
  Fe  Fe5  1  0.99921621  0.33025103  0.33341860  1
  Fe  Fe6  1  0.99873525  0.66854129  0.00110091  1
  Fe  Fe7  1  0.16454146  0.83271628  0.16674601  1
  Fe  Fe8  1  0.99899099  0.66782651  0.33268963  1
  Fe  Fe9  1  0.33266400  0.00189640  0.00005156  1
  Ni  Ni10  1  0.50031465  0.16764864  0.16262223  1
  Cr  Cr11  1  0.33193003  0.99958076  0.33261058  1
  Fe  Fe12  1  0.33446538  0.33186094  0.00110367  1
  Ni  Ni13  1  0.50042340  0.49852743  0.16603850  1
  Cr  Cr14  1  0.33191157  0.33188607  0.33168401  1
  Cr  Cr15  1  0.33221573  0.66495622  0.99881464  1
  Cr  Cr16  1  0.49916713  0.83488367  0.16625527  1
  Fe  Fe17  1  0.33414389  0.66615420  0.33251440  1
  Ni  Ni18  1  0.66781002  0.00082583  0.99930903  1
  Fe  Fe19  1  0.83201012  0.16518256  0.16565369  1
  Cr  Cr20  1  0.66684930  0.99914594  0.33388797  1
  Fe  Fe21  1  0.66567858  0.33250161  0.00190438  1
  Fe  Fe22  1  0.83291769  0.50065447  0.16646143  1
  Cr  Cr23  1  0.66796433  0.33303929  0.33163551  1
  Cr  Cr24  1  0.66584871  0.66846472  0.99931579  1
  Fe  Fe25  1  0.83406046  0.83387227  0.16601787  1
  Fe  Fe26  1  0.66599121  0.66556873  0.33314347  1
  Ni  Ni27  1  0.16436356  0.16322363  0.50028059  1
  Fe  Fe28  1  0.00132029  0.99965031  0.66504983  1
  Ni  Ni29  1  0.16780742  0.16474988  0.83242935  1
  Cr  Cr30  1  0.16668711  0.50106060  0.49948732  1
  Cr  Cr31  1  0.00033935  0.33020156  0.66521878  1
  Fe  Fe32  1  0.16913538  0.49637857  0.83250410  1
  Ni  Ni33  1  0.16599090  0.83323781  0.49874844  1
  Cr  Cr34  1  0.99908922  0.66707217  0.66912182  1
  Cr  Cr35  1  0.16537495  0.83442559  0.83420647  1
  Cr  Cr36  1  0.49950861  0.16680829  0.50152772  1
  Ni  Ni37  1  0.33336623  0.99865409  0.66571964  1
  Cr  Cr38  1  0.50050138  0.16682912  0.83475873  1
  Fe  Fe39  1  0.50046887  0.50153900  0.49992015  1
  Fe  Fe40  1  0.33256440  0.33200785  0.66689799  1
  Fe  Fe41  1  0.49739120  0.49923123  0.83197405  1
  Fe  Fe42  1  0.49807258  0.83200366  0.50129559  1
  Fe  Fe43  1  0.33472831  0.66784981  0.66642665  1
  Fe  Fe44  1  0.50050470  0.83486777  0.83168464  1
  Ni  Ni45  1  0.83388947  0.16583906  0.50097887  1
  Fe  Fe46  1  0.66831133  0.99853228  0.66673380  1
  Fe  Fe47  1  0.83458737  0.16342801  0.83265956  1
  Fe  Fe48  1  0.83249298  0.49977045  0.49961850  1
  Fe  Fe49  1  0.66591656  0.33348650  0.66550241  1
  Cr  Cr50  1  0.83137520  0.49984477  0.83378609  1
  Fe  Fe51  1  0.83500710  0.83413422  0.50003208  1
  Fe  Fe52  1  0.66374629  0.66782408  0.66608247  1
  Fe  Fe53  1  0.83148577  0.83784382  0.83352823  1
" 