556,Ni16Fe57Cr25_11,-225.321015375762, 176.100032259568,Ni16Fe57Cr25,"# generated using pymatgen
 data_Cr15Fe31Ni8
_symmetry_space_group_name_H-M   'P 1'
_cell_length_a   7.46715930
_cell_length_b   7.46715930
_cell_length_c   10.56015796
_cell_angle_alpha   90.00000000
_cell_angle_beta   90.00000000
_cell_angle_gamma   90.00000000
_symmetry_Int_Tables_number   1
_chemical_formula_structural   Cr15Fe31Ni8
_chemical_formula_sum   'Cr15 Fe31 Ni8'
_cell_volume   588.81822985
_cell_formula_units_Z   1
loop_
 _symmetry_equiv_pos_site_id
 _symmetry_equiv_pos_as_xyz
  1  'x, y, z'
loop_
 _atom_site_type_symbol
 _atom_site_label
 _atom_site_symmetry_multiplicity
 _atom_site_fract_x
 _atom_site_fract_y
 _atom_site_fract_z
 _atom_site_occupancy
  Fe  Fe0  1  0.00019485  0.99983367  0.99653794  1
  Cr  Cr1  1  0.16775683  0.16456424  0.16734404  1
  Fe  Fe2  1  0.99836276  0.99834959  0.33661563  1
  Cr  Cr3  1  0.99877681  0.32971413  0.99602387  1
  Cr  Cr4  1  0.16769244  0.49800905  0.16950158  1
  Fe  Fe5  1  0.00009194  0.33102705  0.33549393  1
  Cr  Cr6  1  0.00187764  0.66834099  0.99785556  1
  Ni  Ni7  1  0.16522020  0.83793720  0.16637680  1
  Fe  Fe8  1  0.00170744  0.67116921  0.33505869  1
  Fe  Fe9  1  0.33308042  0.00221492  0.99993241  1
  Fe  Fe10  1  0.50118327  0.16569635  0.16823203  1
  Cr  Cr11  1  0.33440069  0.99809391  0.33566897  1
  Fe  Fe12  1  0.33408379  0.33123109  0.99898918  1
  Ni  Ni13  1  0.49983645  0.49605193  0.16629163  1
  Fe  Fe14  1  0.33754730  0.33318171  0.33629235  1
  Cr  Cr15  1  0.33345268  0.66843181  0.00279507  1
  Fe  Fe16  1  0.49885074  0.83474856  0.16462871  1
  Cr  Cr17  1  0.33390826  0.66775460  0.33501695  1
  Fe  Fe18  1  0.66772869  0.99957087  0.99930729  1
  Fe  Fe19  1  0.83268009  0.16543200  0.16911477  1
  Fe  Fe20  1  0.66724367  0.00211027  0.33613849  1
  Cr  Cr21  1  0.66678952  0.33034225  0.00076990  1
  Cr  Cr22  1  0.83206621  0.50065858  0.16872988  1
  Fe  Fe23  1  0.66197103  0.32977321  0.33439174  1
  Fe  Fe24  1  0.66625140  0.66864240  0.99974115  1
  Cr  Cr25  1  0.83431663  0.83584934  0.16566346  1
  Cr  Cr26  1  0.66241257  0.66723429  0.33245735  1
  Fe  Fe27  1  0.16540088  0.16734462  0.50140406  1
  Ni  Ni28  1  0.00065665  0.00119813  0.66714361  1
  Fe  Fe29  1  0.16762375  0.16394311  0.83124627  1
  Fe  Fe30  1  0.16790054  0.49861817  0.50100945  1
  Fe  Fe31  1  0.00083982  0.33131420  0.66716091  1
  Fe  Fe32  1  0.16768462  0.50057703  0.83015310  1
  Fe  Fe33  1  0.16497075  0.83394658  0.50194503  1
  Fe  Fe34  1  0.99993198  0.67171486  0.66674577  1
  Fe  Fe35  1  0.16556013  0.83570273  0.83145189  1
  Ni  Ni36  1  0.49796946  0.16720728  0.50171201  1
  Fe  Fe37  1  0.33257580  0.00061457  0.66450497  1
  Fe  Fe38  1  0.50016817  0.16483688  0.83094982  1
  Ni  Ni39  1  0.49887138  0.49680058  0.50250680  1
  Fe  Fe40  1  0.33248450  0.33161368  0.66484656  1
  Cr  Cr41  1  0.49915459  0.49829139  0.83143312  1
  Fe  Fe42  1  0.50356991  0.83322730  0.50399368  1
  Fe  Fe43  1  0.33180334  0.66750152  0.66404205  1
  Cr  Cr44  1  0.50268108  0.83550798  0.83162668  1
  Fe  Fe45  1  0.83154888  0.16499868  0.50060645  1
  Fe  Fe46  1  0.66978503  0.99968537  0.66458116  1
  Fe  Fe47  1  0.83217597  0.16225974  0.83059151  1
  Cr  Cr48  1  0.83288271  0.50276100  0.50031621  1
  Fe  Fe49  1  0.66618508  0.33015011  0.66487493  1
  Cr  Cr50  1  0.83192478  0.50439902  0.82996215  1
  Ni  Ni51  1  0.83538939  0.83509647  0.50200885  1
  Ni  Ni52  1  0.66556228  0.66756039  0.66580459  1
  Ni  Ni53  1  0.83481036  0.83676151  0.83200514  1
" 