3040,Ni16Fe84_16,-242.29373746488, 201.294610306161,Ni16Fe84,"# generated using pymatgen
 data_Fe4Ni23
_symmetry_space_group_name_H-M   'P 1'
_cell_length_a   7.43053697
_cell_length_b   7.43053697
_cell_length_c   10.50836615
_cell_angle_alpha   90.00000000
_cell_angle_beta   90.00000000
_cell_angle_gamma   90.00000000
_symmetry_Int_Tables_number   1
_chemical_formula_structural   Fe4Ni23
_chemical_formula_sum   'Fe8 Ni46'
_cell_volume   580.19715520
_cell_formula_units_Z   2
loop_
 _symmetry_equiv_pos_site_id
 _symmetry_equiv_pos_as_xyz
  1  'x, y, z'
loop_
 _atom_site_type_symbol
 _atom_site_label
 _atom_site_symmetry_multiplicity
 _atom_site_fract_x
 _atom_site_fract_y
 _atom_site_fract_z
 _atom_site_occupancy
  Ni  Ni0  1  1.00144688  1.00244091  0.00274466  1
  Ni  Ni1  1  0.16912325  0.16927657  0.16910191  1
  Ni  Ni2  1  1.00124454  0.00298327  0.33596678  1
  Ni  Ni3  1  1.00238444  0.33503617  1.00232650  1
  Ni  Ni4  1  0.16847263  0.50287312  0.16890139  1
  Ni  Ni5  1  0.00293641  0.33564918  0.33563993  1
  Ni  Ni6  1  0.00283247  0.67011376  0.00253310  1
  Ni  Ni7  1  0.17073892  0.83515184  0.16998501  1
  Ni  Ni8  1  0.00272037  0.66923215  0.33554522  1
  Fe  Fe9  1  0.33526887  1.00222421  1.00229468  1
  Ni  Ni10  1  0.50283389  0.16796566  0.16920833  1
  Ni  Ni11  1  0.33651705  0.00259553  0.33494710  1
  Ni  Ni12  1  0.33635765  0.33650356  0.00292698  1
  Ni  Ni13  1  0.50262720  0.50326519  0.16987633  1
  Ni  Ni14  1  0.33609228  0.33621423  0.33560409  1
  Ni  Ni15  1  0.33600904  0.66838580  1.00228435  1
  Ni  Ni16  1  0.50218196  0.83614070  0.16888232  1
  Ni  Ni17  1  0.33602837  0.66856812  0.33675862  1
  Ni  Ni18  1  0.67005068  0.00274681  1.00168336  1
  Ni  Ni19  1  0.83546183  0.17030097  0.16945108  1
  Ni  Ni20  1  0.66941310  0.00250027  0.33628825  1
  Ni  Ni21  1  0.66863328  0.33521883  0.00321511  1
  Ni  Ni22  1  0.83657160  0.50230692  0.16914731  1
  Fe  Fe23  1  0.66963033  0.33483313  0.33579429  1
  Ni  Ni24  1  0.66868740  0.66951498  0.00346079  1
  Fe  Fe25  1  0.83614205  0.83648907  0.16905673  1
  Fe  Fe26  1  0.66922757  0.66976745  0.33578847  1
  Ni  Ni27  1  0.16980940  0.17083515  0.50209882  1
  Ni  Ni28  1  1.00210874  0.00248927  0.66847546  1
  Ni  Ni29  1  0.16947470  0.16972346  0.83592767  1
  Ni  Ni30  1  0.16806720  0.50240210  0.50269942  1
  Ni  Ni31  1  1.00229412  0.33526018  0.66937828  1
  Ni  Ni32  1  0.16792654  0.50261434  0.83579754  1
  Fe  Fe33  1  0.16810767  0.83697214  0.50202757  1
  Ni  Ni34  1  1.00188099  0.66995670  0.66912318  1
  Ni  Ni35  1  0.16973697  0.83498314  0.83465217  1
  Ni  Ni36  1  0.50186293  0.16693340  0.50207791  1
  Ni  Ni37  1  0.33519147  0.00264418  0.66906832  1
  Ni  Ni38  1  0.50250434  0.16776814  0.83579492  1
  Fe  Fe39  1  0.50296183  0.50129048  0.50231085  1
  Ni  Ni40  1  0.33656733  0.33565597  0.66910578  1
  Fe  Fe41  1  0.50276033  0.50217142  0.83647823  1
  Ni  Ni42  1  0.50217031  0.83627146  0.50257292  1
  Ni  Ni43  1  0.33654800  0.66895610  0.66845717  1
  Ni  Ni44  1  0.50249453  0.83608483  0.83578093  1
  Ni  Ni45  1  0.83566933  0.16966701  0.50308287  1
  Fe  Fe46  1  0.66901983  1.00218025  0.66903256  1
  Ni  Ni47  1  0.83523928  0.16990503  0.83478282  1
  Ni  Ni48  1  0.83781970  0.50279865  0.50249384  1
  Ni  Ni49  1  0.66869198  0.33614655  0.66865891  1
  Ni  Ni50  1  0.83659448  0.50260256  0.83600662  1
  Ni  Ni51  1  0.83377318  0.83482549  0.50228505  1
  Ni  Ni52  1  0.66879147  0.66843594  0.66906121  1
  Ni  Ni53  1  0.83496631  0.83479468  0.83602331  1
" 