7540,Ni16Fe84_5,-242.412134317005, 201.353138280867,Ni16Fe84,"# generated using pymatgen
 data_Fe4Ni23
_symmetry_space_group_name_H-M   'P 1'
_cell_length_a   7.43112414
_cell_length_b   7.43112414
_cell_length_c   10.50919654
_cell_angle_alpha   90.00000000
_cell_angle_beta   90.00000000
_cell_angle_gamma   90.00000000
_symmetry_Int_Tables_number   1
_chemical_formula_structural   Fe4Ni23
_chemical_formula_sum   'Fe8 Ni46'
_cell_volume   580.33470994
_cell_formula_units_Z   2
loop_
 _symmetry_equiv_pos_site_id
 _symmetry_equiv_pos_as_xyz
  1  'x, y, z'
loop_
 _atom_site_type_symbol
 _atom_site_label
 _atom_site_symmetry_multiplicity
 _atom_site_fract_x
 _atom_site_fract_y
 _atom_site_fract_z
 _atom_site_occupancy
  Ni  Ni0  1  1.00203649  0.00301755  1.00239451  1
  Fe  Fe1  1  0.16862948  0.16922703  0.16967471  1
  Ni  Ni2  1  1.00137227  0.00354809  0.33582036  1
  Ni  Ni3  1  0.00328274  0.33519969  0.00243346  1
  Ni  Ni4  1  0.16926583  0.50356930  0.16866402  1
  Ni  Ni5  1  0.00292672  0.33412321  0.33579598  1
  Ni  Ni6  1  1.00224203  0.66918193  0.00354928  1
  Ni  Ni7  1  0.16930147  0.83461418  0.17038144  1
  Fe  Fe8  1  1.00123438  0.66778654  0.33560823  1
  Ni  Ni9  1  0.33547987  0.00271739  0.00316140  1
  Ni  Ni10  1  0.50300103  0.16896318  0.16966790  1
  Fe  Fe11  1  0.33718064  0.00310708  0.33590981  1
  Ni  Ni12  1  0.33464150  0.33603513  0.00283621  1
  Ni  Ni13  1  0.50145866  0.50171353  0.16947442  1
  Ni  Ni14  1  0.33492524  0.33735178  0.33589377  1
  Ni  Ni15  1  0.33648678  0.66849584  1.00216178  1
  Ni  Ni16  1  0.50166373  0.83661895  0.16795981  1
  Ni  Ni17  1  0.33698324  0.66848288  0.33588494  1
  Ni  Ni18  1  0.66964005  1.00130302  0.00255787  1
  Ni  Ni19  1  0.83424267  0.16889828  0.16910037  1
  Ni  Ni20  1  0.67061397  1.00139641  0.33571401  1
  Fe  Fe21  1  0.66887250  0.33576981  1.00225155  1
  Ni  Ni22  1  0.83641670  0.50187445  0.16875522  1
  Ni  Ni23  1  0.66948487  0.33578315  0.33537542  1
  Ni  Ni24  1  0.66869856  0.66959406  0.00278322  1
  Ni  Ni25  1  0.83634459  0.83627398  0.16912609  1
  Ni  Ni26  1  0.66746435  0.67004904  0.33528591  1
  Ni  Ni27  1  0.16983568  0.17043635  0.50286758  1
  Ni  Ni28  1  1.00174695  0.00307839  0.66919841  1
  Fe  Fe29  1  0.16847541  0.16965302  0.83513468  1
  Ni  Ni30  1  0.16902368  0.50258938  0.50287800  1
  Ni  Ni31  1  0.00257255  0.33548688  0.66910874  1
  Ni  Ni32  1  0.16913102  0.50424598  0.83576451  1
  Fe  Fe33  1  0.16831076  0.83675872  0.50282064  1
  Ni  Ni34  1  1.00209176  0.66901793  0.66827100  1
  Ni  Ni35  1  0.16890901  0.83474889  0.83497523  1
  Ni  Ni36  1  0.50251185  0.16814154  0.50216486  1
  Ni  Ni37  1  0.33578022  0.00260632  0.66879381  1
  Ni  Ni38  1  0.50234117  0.16873707  0.83532349  1
  Fe  Fe39  1  0.50357804  0.50177362  0.50234805  1
  Ni  Ni40  1  0.33541107  0.33613191  0.66858755  1
  Ni  Ni41  1  0.50136934  0.50052005  0.83495288  1
  Ni  Ni42  1  0.50236396  0.83696616  0.50333763  1
  Ni  Ni43  1  0.33629449  0.66857145  0.66912075  1
  Fe  Fe44  1  0.50319842  0.83505626  0.83566759  1
  Ni  Ni45  1  0.83511985  0.16901342  0.50298733  1
  Ni  Ni46  1  0.66958037  1.00196085  0.66886937  1
  Ni  Ni47  1  0.83380665  0.16856099  0.83490886  1
  Ni  Ni48  1  0.83752572  0.50232371  0.50255969  1
  Ni  Ni49  1  0.66927663  0.33583977  0.66865899  1
  Ni  Ni50  1  0.83668488  0.50273253  0.83576665  1
  Ni  Ni51  1  0.83489280  0.83573487  0.50244149  1
  Ni  Ni52  1  0.66914294  0.66921709  0.66903984  1
  Ni  Ni53  1  0.83765758  0.83592453  0.83575387  1
" 