5846,Ni16Fe57Cr25_0,-224.852184504361, 182.213424882906,Ni16Fe57Cr25,"# generated using pymatgen
 data_Cr15Fe31Ni8
_symmetry_space_group_name_H-M   'P 1'
_cell_length_a   7.46172132
_cell_length_b   7.46172132
_cell_length_c   10.55246749
_cell_angle_alpha   90.00000000
_cell_angle_beta   90.00000000
_cell_angle_gamma   90.00000000
_symmetry_Int_Tables_number   1
_chemical_formula_structural   Cr15Fe31Ni8
_chemical_formula_sum   'Cr15 Fe31 Ni8'
_cell_volume   587.53274082
_cell_formula_units_Z   1
loop_
 _symmetry_equiv_pos_site_id
 _symmetry_equiv_pos_as_xyz
  1  'x, y, z'
loop_
 _atom_site_type_symbol
 _atom_site_label
 _atom_site_symmetry_multiplicity
 _atom_site_fract_x
 _atom_site_fract_y
 _atom_site_fract_z
 _atom_site_occupancy
  Ni  Ni0  1  0.99933560  0.99953066  0.00070223  1
  Fe  Fe1  1  0.16513262  0.16700829  0.16648527  1
  Fe  Fe2  1  0.99854890  0.00264747  0.33376277  1
  Fe  Fe3  1  0.00260949  0.33234307  0.99988184  1
  Cr  Cr4  1  0.16663418  0.49745410  0.16598737  1
  Ni  Ni5  1  0.99754117  0.33487861  0.33474623  1
  Fe  Fe6  1  0.99914295  0.66938103  0.99967847  1
  Cr  Cr7  1  0.16554883  0.83359191  0.16928576  1
  Cr  Cr8  1  0.99836924  0.66644622  0.33394898  1
  Cr  Cr9  1  0.33331522  0.00221334  0.99858646  1
  Fe  Fe10  1  0.50221110  0.16715265  0.16558550  1
  Cr  Cr11  1  0.33422707  0.00105701  0.33320600  1
  Fe  Fe12  1  0.33298484  0.33229537  0.99749969  1
  Cr  Cr13  1  0.50092336  0.50029681  0.16651411  1
  Cr  Cr14  1  0.33475842  0.33231122  0.33372763  1
  Cr  Cr15  1  0.33346522  0.66716257  0.99835177  1
  Cr  Cr16  1  0.50339714  0.83263277  0.16872539  1
  Fe  Fe17  1  0.33282462  0.66427135  0.33657933  1
  Fe  Fe18  1  0.66815639  0.99910349  0.99920555  1
  Cr  Cr19  1  0.83486894  0.16725583  0.16765935  1
  Fe  Fe20  1  0.66954592  0.00260589  0.33420553  1
  Fe  Fe21  1  0.66583097  0.33205507  0.99930721  1
  Fe  Fe22  1  0.83285216  0.50185030  0.16580982  1
  Fe  Fe23  1  0.66899998  0.33396529  0.33621575  1
  Fe  Fe24  1  0.66963059  0.66957337  0.99981195  1
  Ni  Ni25  1  0.83234430  0.83507120  0.16567362  1
  Fe  Fe26  1  0.66871454  0.66455024  0.33398858  1
  Cr  Cr27  1  0.16480413  0.16877492  0.50172122  1
  Fe  Fe28  1  0.00172503  0.99909915  0.66892717  1
  Fe  Fe29  1  0.16582870  0.16807502  0.83232923  1
  Fe  Fe30  1  0.16750211  0.50151532  0.50243817  1
  Fe  Fe31  1  0.00159308  0.33655800  0.66634083  1
  Ni  Ni32  1  0.16935733  0.49846985  0.83220220  1
  Fe  Fe33  1  0.16676717  0.83286439  0.50195498  1
  Fe  Fe34  1  0.00147377  0.66575815  0.66797592  1
  Fe  Fe35  1  0.16350821  0.83278298  0.83209618  1
  Fe  Fe36  1  0.50201277  0.16774053  0.50231290  1
  Fe  Fe37  1  0.33457909  0.00135551  0.66854581  1
  Fe  Fe38  1  0.50087411  0.16919943  0.83169697  1
  Fe  Fe39  1  0.50034183  0.49893703  0.50209667  1
  Ni  Ni40  1  0.33576770  0.33482871  0.66918412  1
  Fe  Fe41  1  0.50102503  0.49971554  0.83161151  1
  Cr  Cr42  1  0.49994416  0.83191182  0.49977113  1
  Ni  Ni43  1  0.33228915  0.66690091  0.66653899  1
  Fe  Fe44  1  0.50159553  0.83232504  0.83121168  1
  Fe  Fe45  1  0.83174126  0.16893289  0.50086981  1
  Fe  Fe46  1  0.66436997  0.00073431  0.66794427  1
  Cr  Cr47  1  0.83432060  0.16629661  0.83087661  1
  Fe  Fe48  1  0.83298850  0.49822060  0.50163049  1
  Ni  Ni49  1  0.66680711  0.33341231  0.66480555  1
  Cr  Cr50  1  0.83508643  0.50014615  0.83468346  1
  Cr  Cr51  1  0.83303160  0.83625372  0.50192465  1
  Fe  Fe52  1  0.66556549  0.66505646  0.66838436  1
  Ni  Ni53  1  0.83245937  0.83470249  0.83406598  1
" 