6964,Ni16Fe57Cr25_19,-225.179190034114, 176.187032410461,Ni16Fe57Cr25,"# generated using pymatgen
 data_Cr15Fe31Ni8
_symmetry_space_group_name_H-M   'P 1'
_cell_length_a   7.46916840
_cell_length_b   7.46916840
_cell_length_c   10.56299925
_cell_angle_alpha   90.00000000
_cell_angle_beta   90.00000000
_cell_angle_gamma   90.00000000
_symmetry_Int_Tables_number   1
_chemical_formula_structural   Cr15Fe31Ni8
_chemical_formula_sum   'Cr15 Fe31 Ni8'
_cell_volume   589.29363588
_cell_formula_units_Z   1
loop_
 _symmetry_equiv_pos_site_id
 _symmetry_equiv_pos_as_xyz
  1  'x, y, z'
loop_
 _atom_site_type_symbol
 _atom_site_label
 _atom_site_symmetry_multiplicity
 _atom_site_fract_x
 _atom_site_fract_y
 _atom_site_fract_z
 _atom_site_occupancy
  Fe  Fe0  1  0.00031063  0.99734755  0.00101567  1
  Fe  Fe1  1  0.16832010  0.16334901  0.16605488  1
  Fe  Fe2  1  0.00323358  0.99798342  0.33282953  1
  Fe  Fe3  1  0.99880356  0.33535891  0.00065344  1
  Fe  Fe4  1  0.16788082  0.50018234  0.16774828  1
  Cr  Cr5  1  0.00177323  0.33206084  0.33531334  1
  Fe  Fe6  1  0.99854511  0.66681553  0.00071946  1
  Ni  Ni7  1  0.16663465  0.83359103  0.16629101  1
  Cr  Cr8  1  0.00002926  0.66615713  0.33065372  1
  Ni  Ni9  1  0.33623617  0.99977244  0.00250410  1
  Ni  Ni10  1  0.49882415  0.16808933  0.16597816  1
  Fe  Fe11  1  0.33132570  0.99762101  0.33068137  1
  Cr  Cr12  1  0.33360290  0.33336535  0.00112729  1
  Fe  Fe13  1  0.50036170  0.50076388  0.16881996  1
  Fe  Fe14  1  0.33358021  0.33512460  0.33118455  1
  Cr  Cr15  1  0.33380092  0.66677203  0.99883190  1
  Fe  Fe16  1  0.49811203  0.83434951  0.16690896  1
  Ni  Ni17  1  0.33377869  0.66692078  0.33371426  1
  Fe  Fe18  1  0.66405965  0.99897887  0.99955365  1
  Cr  Cr19  1  0.83209983  0.16649959  0.16584614  1
  Cr  Cr20  1  0.66649833  0.99853237  0.33382033  1
  Fe  Fe21  1  0.66552102  0.33365576  0.99929337  1
  Fe  Fe22  1  0.83114847  0.50135924  0.16541568  1
  Fe  Fe23  1  0.66474654  0.33609469  0.33006810  1
  Fe  Fe24  1  0.66718152  0.66715637  0.00058441  1
  Fe  Fe25  1  0.83241234  0.83237491  0.16426968  1
  Ni  Ni26  1  0.66391366  0.66743125  0.32944292  1
  Fe  Fe27  1  0.16622680  0.16757860  0.49893836  1
  Cr  Cr28  1  0.99724399  -0.00000695  0.66271993  1
  Cr  Cr29  1  0.16650905  0.16577112  0.83710971  1
  Ni  Ni30  1  0.16737044  0.50178591  0.50206611  1
  Fe  Fe31  1  0.99915708  0.33476784  0.66641688  1
  Fe  Fe32  1  0.16260174  0.50122652  0.83190837  1
  Fe  Fe33  1  0.16928634  0.82972746  0.49862250  1
  Ni  Ni34  1  0.99862307  0.66459154  0.66791490  1
  Cr  Cr35  1  0.16485926  0.83249537  0.83280297  1
  Cr  Cr36  1  0.50091411  0.16762264  0.49822718  1
  Cr  Cr37  1  0.33657315  0.99832577  0.66575439  1
  Fe  Fe38  1  0.50374008  0.16410161  0.83527333  1
  Cr  Cr39  1  0.50005331  0.50104533  0.49742920  1
  Cr  Cr40  1  0.33247669  0.33485945  0.66864217  1
  Fe  Fe41  1  0.50296143  0.50170536  0.83243388  1
  Fe  Fe42  1  0.49844093  0.82970200  0.49878592  1
  Fe  Fe43  1  0.33177447  0.66658460  0.66572959  1
  Fe  Fe44  1  0.50268300  0.83402317  0.83400319  1
  Fe  Fe45  1  0.83348326  0.16879091  0.49985104  1
  Fe  Fe46  1  0.66760365  0.99867118  0.66832178  1
  Fe  Fe47  1  0.83171954  0.16546966  0.83461657  1
  Cr  Cr48  1  0.83131011  0.50060864  0.50037192  1
  Fe  Fe49  1  0.66898688  0.33225156  0.66915932  1
  Fe  Fe50  1  0.83410268  0.50101970  0.83305505  1
  Cr  Cr51  1  0.83333785  0.83161982  0.49859656  1
  Fe  Fe52  1  0.66643333  0.66848309  0.66867688  1
  Ni  Ni53  1  0.83112663  0.83180403  0.83558176  1
" 