4065,Ni16Fe12Cr70_4,-210.099453275529, 179.254262681673,Ni16Fe12Cr70,"# generated using pymatgen
 data_Cr20Fe3Ni4
_symmetry_space_group_name_H-M   'P 1'
_cell_length_a   7.56121238
_cell_length_b   7.56121238
_cell_length_c   10.69316909
_cell_angle_alpha   90.00000000
_cell_angle_beta   90.00000000
_cell_angle_gamma   90.00000000
_symmetry_Int_Tables_number   1
_chemical_formula_structural   Cr20Fe3Ni4
_chemical_formula_sum   'Cr40 Fe6 Ni8'
_cell_volume   611.34914226
_cell_formula_units_Z   2
loop_
 _symmetry_equiv_pos_site_id
 _symmetry_equiv_pos_as_xyz
  1  'x, y, z'
loop_
 _atom_site_type_symbol
 _atom_site_label
 _atom_site_symmetry_multiplicity
 _atom_site_fract_x
 _atom_site_fract_y
 _atom_site_fract_z
 _atom_site_occupancy
  Cr  Cr0  1  -0.00466684  0.99281379  -0.00597635  1
  Cr  Cr1  1  0.16055083  0.15871682  0.16054244  1
  Ni  Ni2  1  -0.00471307  -0.00517152  0.32688469  1
  Cr  Cr3  1  0.99334917  0.32817075  -0.00433534  1
  Cr  Cr4  1  0.15874289  0.49483224  0.16092651  1
  Fe  Fe5  1  0.99283108  0.32795751  0.32748456  1
  Ni  Ni6  1  0.99312037  0.65971671  -0.00606160  1
  Cr  Cr7  1  0.16135418  0.82776768  0.16076949  1
  Cr  Cr8  1  -0.00577207  0.65952211  0.32797962  1
  Ni  Ni9  1  0.32728400  0.99310145  0.99370266  1
  Cr  Cr10  1  0.49258785  0.15951316  0.16064572  1
  Fe  Fe11  1  0.32632293  0.99287934  0.32751523  1
  Cr  Cr12  1  0.32738397  0.32632194  0.99178989  1
  Cr  Cr13  1  0.49491141  0.49454993  0.16013333  1
  Cr  Cr14  1  0.32632024  0.32746888  0.32914699  1
  Cr  Cr15  1  0.32731119  0.66157759  0.99256440  1
  Cr  Cr16  1  0.49149403  0.82725475  0.16143151  1
  Ni  Ni17  1  0.32563937  0.66047223  0.32774688  1
  Cr  Cr18  1  0.65933592  0.99289109  0.99271569  1
  Cr  Cr19  1  0.82818264  0.16213319  0.16112091  1
  Cr  Cr20  1  0.66068869  -0.00574187  0.32834923  1
  Cr  Cr21  1  0.66058579  0.32883024  -0.00532712  1
  Ni  Ni22  1  0.82844174  0.49399760  0.15987530  1
  Cr  Cr23  1  0.66185449  0.32784628  0.32706628  1
  Cr  Cr24  1  0.66118985  0.65959884  -0.00542429  1
  Cr  Cr25  1  0.82847021  0.82544859  0.15994382  1
  Cr  Cr26  1  0.66028651  0.65921637  0.32576973  1
  Cr  Cr27  1  0.16128411  0.16078686  0.49177374  1
  Cr  Cr28  1  0.99207061  0.99295266  0.66099383  1
  Cr  Cr29  1  0.16174638  0.15999428  0.82900948  1
  Fe  Fe30  1  0.15933191  0.49420729  0.49299502  1
  Cr  Cr31  1  -0.00565088  0.32865686  0.65832663  1
  Cr  Cr32  1  0.16043530  0.49524894  0.82644797  1
  Cr  Cr33  1  0.16054276  0.82566254  0.49201504  1
  Fe  Fe34  1  0.99290877  0.65963386  0.65968118  1
  Cr  Cr35  1  0.16047527  0.82607582  0.82854077  1
  Ni  Ni36  1  0.49354392  0.15971369  0.49428307  1
  Cr  Cr37  1  0.32911594  -0.00593881  0.66053794  1
  Cr  Cr38  1  0.49388683  0.15965052  0.82674326  1
  Cr  Cr39  1  0.49332326  0.49303076  0.49327477  1
  Cr  Cr40  1  0.32721273  0.32792060  0.66037550  1
  Fe  Fe41  1  0.49374392  0.49452715  0.82709174  1
  Cr  Cr42  1  0.49311496  0.82882069  0.49270791  1
  Cr  Cr43  1  0.32662457  0.65933880  0.66089443  1
  Fe  Fe44  1  0.49377475  0.82798608  0.82709613  1
  Cr  Cr45  1  0.82582213  0.16099192  0.49411668  1
  Ni  Ni46  1  0.65972785  0.99358547  0.66030869  1
  Cr  Cr47  1  0.82568634  0.15968566  0.82608583  1
  Ni  Ni48  1  0.82938792  0.49356093  0.49378632  1
  Cr  Cr49  1  0.65975702  0.32617118  0.65957902  1
  Cr  Cr50  1  0.82731306  0.49524099  0.82775648  1
  Cr  Cr51  1  0.82766043  0.82655389  0.49575692  1
  Cr  Cr52  1  0.66086160  0.66161514  0.66097016  1
  Cr  Cr53  1  0.82696237  0.82639170  0.82562248  1
" 