353,Ni16Fe12Cr70_11,-209.912620729812, 177.622196012755,Ni16Fe12Cr70,"# generated using pymatgen
 data_Cr20Fe3Ni4
_symmetry_space_group_name_H-M   'P 1'
_cell_length_a   7.56833439
_cell_length_b   7.56833439
_cell_length_c   10.70324113
_cell_angle_alpha   90.00000000
_cell_angle_beta   90.00000000
_cell_angle_gamma   90.00000000
_symmetry_Int_Tables_number   1
_chemical_formula_structural   Cr20Fe3Ni4
_chemical_formula_sum   'Cr40 Fe6 Ni8'
_cell_volume   613.07828494
_cell_formula_units_Z   2
loop_
 _symmetry_equiv_pos_site_id
 _symmetry_equiv_pos_as_xyz
  1  'x, y, z'
loop_
 _atom_site_type_symbol
 _atom_site_label
 _atom_site_symmetry_multiplicity
 _atom_site_fract_x
 _atom_site_fract_y
 _atom_site_fract_z
 _atom_site_occupancy
  Cr  Cr0  1  0.99220467  -0.00490652  -0.00603498  1
  Cr  Cr1  1  0.16000111  0.16005042  0.15955499  1
  Cr  Cr2  1  -0.00637347  0.99138427  0.32810464  1
  Ni  Ni3  1  0.99209531  0.32636976  0.99309597  1
  Cr  Cr4  1  0.15869094  0.49237418  0.15831461  1
  Cr  Cr5  1  0.99198616  0.32667201  0.32531975  1
  Cr  Cr6  1  -0.00510964  0.65829549  -0.00627171  1
  Fe  Fe7  1  0.16093920  0.82664722  0.16040703  1
  Cr  Cr8  1  0.99252205  0.66186528  0.32810732  1
  Cr  Cr9  1  0.32779111  0.99186857  -0.00561573  1
  Ni  Ni10  1  0.49426651  0.16184906  0.16032812  1
  Cr  Cr11  1  0.32570298  0.99307199  0.32631111  1
  Cr  Cr12  1  0.32726541  0.32873507  -0.00648389  1
  Ni  Ni13  1  0.49575518  0.49214987  0.16103949  1
  Cr  Cr14  1  0.32903174  0.32668488  0.32594909  1
  Cr  Cr15  1  0.32731024  0.65931951  0.99120300  1
  Cr  Cr16  1  0.49398965  0.82616430  0.15964731  1
  Cr  Cr17  1  0.32681279  0.66016445  0.32631502  1
  Cr  Cr18  1  0.65992316  -0.00495110  0.99246154  1
  Fe  Fe19  1  0.82533358  0.16202231  0.15916487  1
  Cr  Cr20  1  0.66059906  -0.00639237  0.32611614  1
  Cr  Cr21  1  0.66095187  0.32605535  -0.00487055  1
  Fe  Fe22  1  0.82448659  0.49210564  0.15998215  1
  Cr  Cr23  1  0.65890129  0.32778683  0.32369502  1
  Cr  Cr24  1  0.65772726  0.65882075  0.99317168  1
  Cr  Cr25  1  0.82617762  0.82485267  0.16125363  1
  Ni  Ni26  1  0.66044135  0.65909145  0.32589224  1
  Cr  Cr27  1  0.16053705  0.15876228  0.49319620  1
  Cr  Cr28  1  0.99215111  0.99229908  0.65786404  1
  Cr  Cr29  1  0.15826854  0.16204623  0.82717493  1
  Cr  Cr30  1  0.15922570  0.49366727  0.49443614  1
  Cr  Cr31  1  0.99200185  0.32654925  0.66150359  1
  Fe  Fe32  1  0.16127448  0.49294142  0.82752946  1
  Ni  Ni33  1  0.15803113  0.82712250  0.49249516  1
  Cr  Cr34  1  -0.00517681  0.66108015  0.65809094  1
  Cr  Cr35  1  0.16139677  0.82629850  0.82812400  1
  Cr  Cr36  1  0.49288162  0.16046463  0.49374162  1
  Cr  Cr37  1  0.32675831  0.99171424  0.65922956  1
  Cr  Cr38  1  0.49411588  0.15985062  0.82491161  1
  Cr  Cr39  1  0.49552368  0.49330588  0.49297056  1
  Cr  Cr40  1  0.32852416  0.32874630  0.66045571  1
  Ni  Ni41  1  0.49384109  0.49405402  0.82569245  1
  Cr  Cr42  1  0.49433947  0.82615751  0.49295481  1
  Cr  Cr43  1  0.32628259  0.65946570  0.66241080  1
  Ni  Ni44  1  0.49353893  0.82468206  0.82687387  1
  Cr  Cr45  1  0.82650814  0.15995647  0.49541758  1
  Cr  Cr46  1  0.66101314  -0.00545853  0.66134604  1
  Fe  Fe47  1  0.82574840  0.16161543  0.82657164  1
  Cr  Cr48  1  0.82517444  0.49513388  0.49225633  1
  Ni  Ni49  1  0.65968384  0.32656729  0.66138001  1
  Cr  Cr50  1  0.82673203  0.49146194  0.82694973  1
  Fe  Fe51  1  0.82750019  0.82578648  0.49241036  1
  Cr  Cr52  1  0.65882344  0.65931960  0.66062930  1
  Cr  Cr53  1  0.82453695  0.82691829  0.82588556  1
" 