526,Ni16Fe84_18,-242.934653786743, 202.936433523406,Ni16Fe84,"# generated using pymatgen
 data_Fe4Ni23
_symmetry_space_group_name_H-M   'P 1'
_cell_length_a   7.43350181
_cell_length_b   7.43350181
_cell_length_c   10.51255908
_cell_angle_alpha   90.00000000
_cell_angle_beta   90.00000000
_cell_angle_gamma   90.00000000
_symmetry_Int_Tables_number   1
_chemical_formula_structural   Fe4Ni23
_chemical_formula_sum   'Fe8 Ni46'
_cell_volume   580.89194289
_cell_formula_units_Z   2
loop_
 _symmetry_equiv_pos_site_id
 _symmetry_equiv_pos_as_xyz
  1  'x, y, z'
loop_
 _atom_site_type_symbol
 _atom_site_label
 _atom_site_symmetry_multiplicity
 _atom_site_fract_x
 _atom_site_fract_y
 _atom_site_fract_z
 _atom_site_occupancy
  Ni  Ni0  1  1.00178272  1.00221399  1.00098097  1
  Ni  Ni1  1  0.16774559  0.16972163  0.16897523  1
  Ni  Ni2  1  1.00024468  1.00198764  0.33680629  1
  Ni  Ni3  1  0.00227895  0.33601247  0.00333693  1
  Ni  Ni4  1  0.16978371  0.50208508  0.16853037  1
  Ni  Ni5  1  1.00199645  0.33545872  0.33556133  1
  Ni  Ni6  1  1.00211061  0.66849400  1.00203061  1
  Ni  Ni7  1  0.16749184  0.83507794  0.16726812  1
  Ni  Ni8  1  0.00406530  0.66926955  0.33590844  1
  Ni  Ni9  1  0.33644541  0.00248725  0.00342794  1
  Ni  Ni10  1  0.50290715  0.16995498  0.16827138  1
  Fe  Fe11  1  0.33432525  0.00263255  0.33523672  1
  Ni  Ni12  1  0.33555139  0.33565229  0.00252893  1
  Ni  Ni13  1  0.50129697  0.50195306  0.16815330  1
  Ni  Ni14  1  0.33598894  0.33702888  0.33594491  1
  Ni  Ni15  1  0.33575353  0.66866619  1.00120688  1
  Ni  Ni16  1  0.50332308  0.83475545  0.16868943  1
  Ni  Ni17  1  0.33477632  0.66874913  0.33641191  1
  Ni  Ni18  1  0.66878457  0.00226126  0.00238907  1
  Ni  Ni19  1  0.83588134  0.16752396  0.16767391  1
  Ni  Ni20  1  0.66912188  0.00294241  0.33548004  1
  Ni  Ni21  1  0.66863099  0.33532767  1.00139492  1
  Fe  Fe22  1  0.83546750  0.50148644  0.16964434  1
  Ni  Ni23  1  0.66873304  0.33308277  0.33690393  1
  Ni  Ni24  1  0.66922608  0.66911066  0.00340844  1
  Ni  Ni25  1  0.83589328  0.83643146  0.16920945  1
  Fe  Fe26  1  0.66919536  0.66781197  0.33588364  1
  Ni  Ni27  1  0.16837391  0.16984256  0.50165535  1
  Fe  Fe28  1  0.00354717  1.00147541  0.66889237  1
  Ni  Ni29  1  0.16882696  0.17061613  0.83611791  1
  Ni  Ni30  1  0.16887565  0.50191124  0.50246610  1
  Ni  Ni31  1  0.00284351  0.33612440  0.66794260  1
  Ni  Ni32  1  0.16881297  0.50068010  0.83576322  1
  Ni  Ni33  1  0.16827194  0.83501689  0.50376490  1
  Ni  Ni34  1  1.00209921  0.66747128  0.66879688  1
  Fe  Fe35  1  0.17148017  0.83563131  0.83561914  1
  Ni  Ni36  1  0.50228475  0.16915748  0.50241685  1
  Ni  Ni37  1  0.33803437  0.00283106  0.66782062  1
  Ni  Ni38  1  0.50091487  0.16903015  0.83598191  1
  Ni  Ni39  1  0.50166896  0.50244986  0.50325013  1
  Ni  Ni40  1  0.33416167  0.33517932  0.66829311  1
  Ni  Ni41  1  0.50122118  0.50266788  0.83528448  1
  Ni  Ni42  1  0.50305193  0.83531955  0.50178096  1
  Ni  Ni43  1  0.33573917  0.66880608  0.66916402  1
  Ni  Ni44  1  0.50530488  0.83529352  0.83622421  1
  Ni  Ni45  1  0.83586887  0.16852698  0.50406269  1
  Ni  Ni46  1  0.66847003  1.00218411  0.66901669  1
  Fe  Fe47  1  0.83487629  0.16933894  0.83582851  1
  Ni  Ni48  1  0.83613328  0.50250036  0.50207739  1
  Fe  Fe49  1  0.66721007  0.33675136  0.66832527  1
  Fe  Fe50  1  0.83489283  0.50279213  0.83504625  1
  Ni  Ni51  1  0.83550478  0.83563735  0.50202944  1
  Ni  Ni52  1  0.66916835  0.67104545  0.66742528  1
  Ni  Ni53  1  0.83540548  0.83538488  0.83554150  1
" 