3435,Ni16Fe12Cr70_19,-210.195002693527, 178.961065072767,Ni16Fe12Cr70,"# generated using pymatgen
 data_Cr20Fe3Ni4
_symmetry_space_group_name_H-M   'P 1'
_cell_length_a   7.56362318
_cell_length_b   7.56362318
_cell_length_c   10.69657848
_cell_angle_alpha   90.00000000
_cell_angle_beta   90.00000000
_cell_angle_gamma   90.00000000
_symmetry_Int_Tables_number   1
_chemical_formula_structural   Cr20Fe3Ni4
_chemical_formula_sum   'Cr40 Fe6 Ni8'
_cell_volume   611.93409275
_cell_formula_units_Z   2
loop_
 _symmetry_equiv_pos_site_id
 _symmetry_equiv_pos_as_xyz
  1  'x, y, z'
loop_
 _atom_site_type_symbol
 _atom_site_label
 _atom_site_symmetry_multiplicity
 _atom_site_fract_x
 _atom_site_fract_y
 _atom_site_fract_z
 _atom_site_occupancy
  Fe  Fe0  1  0.99346878  0.99172509  -0.00616386  1
  Cr  Cr1  1  0.15951762  0.16073954  0.15873837  1
  Cr  Cr2  1  -0.00534703  0.99097147  0.32575208  1
  Ni  Ni3  1  0.99240396  0.32764402  -0.00573827  1
  Cr  Cr4  1  0.15997104  0.49436753  0.16140645  1
  Cr  Cr5  1  0.99116838  0.32708719  0.32778584  1
  Cr  Cr6  1  -0.00635187  0.66121724  -0.00386743  1
  Ni  Ni7  1  0.15755320  0.82592583  0.15970013  1
  Ni  Ni8  1  -0.00612708  0.66020685  0.32390342  1
  Cr  Cr9  1  0.32498671  0.99116812  -0.00631703  1
  Cr  Cr10  1  0.49404788  0.16020826  0.16148763  1
  Cr  Cr11  1  0.32508514  -0.00614170  0.32633876  1
  Cr  Cr12  1  0.32808072  0.32822162  -0.00482340  1
  Ni  Ni13  1  0.49478643  0.49431880  0.16005465  1
  Fe  Fe14  1  0.32710616  0.32910264  0.32518207  1
  Cr  Cr15  1  0.32749203  0.66171775  0.99093830  1
  Cr  Cr16  1  0.49430927  0.82773085  0.15932438  1
  Cr  Cr17  1  0.32723869  0.66202676  0.32520714  1
  Ni  Ni18  1  0.66059244  0.99190211  0.99335105  1
  Cr  Cr19  1  0.82672577  0.15872936  0.15591525  1
  Cr  Cr20  1  0.66134182  0.99315432  0.32726629  1
  Cr  Cr21  1  0.66068549  0.32951916  -0.00562569  1
  Ni  Ni22  1  0.82800102  0.49436092  0.16027788  1
  Cr  Cr23  1  0.66021822  0.32885444  0.32591136  1
  Cr  Cr24  1  0.66000370  0.65929775  -0.00422301  1
  Fe  Fe25  1  0.82829043  0.82596572  0.15979087  1
  Cr  Cr26  1  0.66302974  0.65870859  0.32329203  1
  Cr  Cr27  1  0.16169448  0.16229821  0.49188266  1
  Cr  Cr28  1  -0.00492045  0.99309553  0.66059810  1
  Cr  Cr29  1  0.15855569  0.16104354  0.83051525  1
  Cr  Cr30  1  0.16081826  0.49524911  0.49272992  1
  Cr  Cr31  1  0.99339465  0.32629998  0.66050078  1
  Cr  Cr32  1  0.16047605  0.49495919  0.82608315  1
  Cr  Cr33  1  0.16066305  0.82367564  0.49292672  1
  Cr  Cr34  1  -0.00569955  0.66168170  0.65951994  1
  Ni  Ni35  1  0.16193033  0.82576973  0.82664264  1
  Cr  Cr36  1  0.49384948  0.15945153  0.49158603  1
  Cr  Cr37  1  0.32571865  0.99228881  0.66125924  1
  Cr  Cr38  1  0.49589830  0.15791444  0.82793547  1
  Cr  Cr39  1  0.49138273  0.49509455  0.49294482  1
  Cr  Cr40  1  0.32769552  0.32668194  0.66025195  1
  Fe  Fe41  1  0.49310211  0.49471635  0.82738311  1
  Cr  Cr42  1  0.49477685  0.82687807  0.49615665  1
  Fe  Fe43  1  0.32764959  0.66146237  0.66275233  1
  Fe  Fe44  1  0.49397106  0.82754350  0.82704302  1
  Cr  Cr45  1  0.82500523  0.15813501  0.49716483  1
  Ni  Ni46  1  0.65789543  0.99189912  0.66156490  1
  Cr  Cr47  1  0.82608815  0.15881475  0.82850109  1
  Cr  Cr48  1  0.82838745  0.49618184  0.49314720  1
  Cr  Cr49  1  0.65994318  0.32744597  0.66052262  1
  Cr  Cr50  1  0.82872181  0.49354816  0.82782300  1
  Cr  Cr51  1  0.82577802  0.82606212  0.49229449  1
  Cr  Cr52  1  0.65855284  0.65974676  0.66256080  1
  Cr  Cr53  1  0.82564491  0.82858434  0.82809657  1
" 