6151,Ni16Fe84_11,-242.463200462647, 201.029145197084,Ni16Fe84,"# generated using pymatgen
 data_Fe4Ni23
_symmetry_space_group_name_H-M   'P 1'
_cell_length_a   7.43143236
_cell_length_b   7.43143236
_cell_length_c   10.50963243
_cell_angle_alpha   90.00000000
_cell_angle_beta   90.00000000
_cell_angle_gamma   90.00000000
_symmetry_Int_Tables_number   1
_chemical_formula_structural   Fe4Ni23
_chemical_formula_sum   'Fe8 Ni46'
_cell_volume   580.40692450
_cell_formula_units_Z   2
loop_
 _symmetry_equiv_pos_site_id
 _symmetry_equiv_pos_as_xyz
  1  'x, y, z'
loop_
 _atom_site_type_symbol
 _atom_site_label
 _atom_site_symmetry_multiplicity
 _atom_site_fract_x
 _atom_site_fract_y
 _atom_site_fract_z
 _atom_site_occupancy
  Ni  Ni0  1  1.00225435  1.00225522  1.00170124  1
  Fe  Fe1  1  0.16856066  0.16767665  0.16991401  1
  Ni  Ni2  1  1.00172878  0.00250246  0.33670290  1
  Fe  Fe3  1  1.00176563  0.33574544  0.00255975  1
  Ni  Ni4  1  0.16861834  0.50341002  0.16839331  1
  Ni  Ni5  1  0.00264601  0.33588939  0.33501202  1
  Ni  Ni6  1  1.00210190  0.66951732  1.00127763  1
  Ni  Ni7  1  0.16927945  0.83409000  0.16940322  1
  Ni  Ni8  1  1.00208574  0.66861421  0.33697809  1
  Ni  Ni9  1  0.33497491  0.00327580  1.00175331  1
  Ni  Ni10  1  0.50294394  0.16920613  0.16898255  1
  Ni  Ni11  1  0.33581908  0.00258959  0.33624577  1
  Ni  Ni12  1  0.33548998  0.33530263  1.00215242  1
  Fe  Fe13  1  0.50341208  0.50294195  0.16904008  1
  Ni  Ni14  1  0.33499036  0.33591641  0.33620010  1
  Ni  Ni15  1  0.33534654  0.66858255  1.00184892  1
  Ni  Ni16  1  0.50111765  0.83749705  0.16806333  1
  Ni  Ni17  1  0.33558353  0.66867669  0.33607537  1
  Ni  Ni18  1  0.66973843  0.00246438  1.00182487  1
  Ni  Ni19  1  0.83396495  0.16981580  0.16882523  1
  Ni  Ni20  1  0.66948840  1.00204525  0.33578605  1
  Ni  Ni21  1  0.66870748  0.33569871  1.00121666  1
  Ni  Ni22  1  0.83735936  0.50167669  0.16888773  1
  Ni  Ni23  1  0.66956715  0.33567329  0.33731079  1
  Ni  Ni24  1  0.66994765  0.66918099  1.00224929  1
  Ni  Ni25  1  0.83677335  0.83572691  0.16856039  1
  Ni  Ni26  1  0.66971185  0.66961145  0.33536407  1
  Ni  Ni27  1  0.16918327  0.16936076  0.50179347  1
  Fe  Fe28  1  0.00295651  1.00213958  0.66875412  1
  Fe  Fe29  1  0.16937544  0.16820471  0.83480187  1
  Ni  Ni30  1  0.16882684  0.50248589  0.50296843  1
  Ni  Ni31  1  0.00245818  0.33559735  0.66956348  1
  Fe  Fe32  1  0.16959667  0.50287672  0.83567344  1
  Ni  Ni33  1  0.16996846  0.83534440  0.50200995  1
  Fe  Fe34  1  0.00283727  0.66942612  0.66900139  1
  Ni  Ni35  1  0.16984374  0.83521922  0.83585798  1
  Ni  Ni36  1  0.50222606  0.16892338  0.50293064  1
  Ni  Ni37  1  0.33651971  0.00256971  0.66903732  1
  Ni  Ni38  1  0.50244593  0.16924928  0.83538403  1
  Ni  Ni39  1  0.50184393  0.50218800  0.50170545  1
  Ni  Ni40  1  0.33367782  0.33591342  0.66870356  1
  Ni  Ni41  1  0.50221461  0.50186243  0.83658900  1
  Ni  Ni42  1  0.50162094  0.83607390  0.50240396  1
  Ni  Ni43  1  0.33703024  0.66865015  0.66928305  1
  Ni  Ni44  1  0.50115123  0.83609250  0.83667189  1
  Ni  Ni45  1  0.83564251  0.16974630  0.50269934  1
  Ni  Ni46  1  0.66960178  1.00103285  0.66959388  1
  Ni  Ni47  1  0.83500732  0.16970902  0.83579939  1
  Ni  Ni48  1  0.83638995  0.50172456  0.50267231  1
  Fe  Fe49  1  0.66730239  0.33610432  0.66917968  1
  Ni  Ni50  1  0.83588116  0.50180501  0.83573176  1
  Ni  Ni51  1  0.83597278  0.83572420  0.50227314  1
  Ni  Ni52  1  0.66921536  0.67004557  0.66958872  1
  Ni  Ni53  1  0.83663026  0.83574554  0.83639757  1
" 