3395,Ni16Fe57Cr25_7,-225.395307224276, 175.232467533739,Ni16Fe57Cr25,"# generated using pymatgen
 data_Cr15Fe31Ni8
_symmetry_space_group_name_H-M   'P 1'
_cell_length_a   7.47558709
_cell_length_b   7.47558709
_cell_length_c   10.57207666
_cell_angle_alpha   90.00000000
_cell_angle_beta   90.00000000
_cell_angle_gamma   90.00000000
_symmetry_Int_Tables_number   1
_chemical_formula_structural   Cr15Fe31Ni8
_chemical_formula_sum   'Cr15 Fe31 Ni8'
_cell_volume   590.81418621
_cell_formula_units_Z   1
loop_
 _symmetry_equiv_pos_site_id
 _symmetry_equiv_pos_as_xyz
  1  'x, y, z'
loop_
 _atom_site_type_symbol
 _atom_site_label
 _atom_site_symmetry_multiplicity
 _atom_site_fract_x
 _atom_site_fract_y
 _atom_site_fract_z
 _atom_site_occupancy
  Cr  Cr0  1  0.99568971  -0.00003909  0.00101670  1
  Fe  Fe1  1  0.16955237  0.16637090  0.16707102  1
  Fe  Fe2  1  0.99768986  0.00072275  0.33206779  1
  Cr  Cr3  1  0.99928856  0.33349511  0.00140902  1
  Cr  Cr4  1  0.16604786  0.50217048  0.16811388  1
  Fe  Fe5  1  0.99806400  0.32993425  0.33209460  1
  Fe  Fe6  1  0.99605335  0.66691632  0.99873875  1
  Cr  Cr7  1  0.16552752  0.83401410  0.16405834  1
  Fe  Fe8  1  0.99639353  0.66787107  0.33277129  1
  Fe  Fe9  1  0.33735552  0.00095369  0.00051923  1
  Ni  Ni10  1  0.50324843  0.16413169  0.16446080  1
  Fe  Fe11  1  0.33600146  0.00027947  0.33135685  1
  Ni  Ni12  1  0.33480251  0.33296323  0.00120156  1
  Cr  Cr13  1  0.50066895  0.49887478  0.16658444  1
  Fe  Fe14  1  0.33386928  0.32883346  0.33194456  1
  Fe  Fe15  1  0.33564627  0.66871109  0.99936434  1
  Ni  Ni16  1  0.49984857  0.83429460  0.16708418  1
  Fe  Fe17  1  0.33533368  0.66933770  0.33265958  1
  Ni  Ni18  1  0.66422565  0.99626037  0.00013865  1
  Ni  Ni19  1  0.83039520  0.16496879  0.16849866  1
  Ni  Ni20  1  0.66629718  0.99716098  0.33280353  1
  Fe  Fe21  1  0.66556691  0.32819291  0.00109910  1
  Fe  Fe22  1  0.83091519  0.49969070  0.16774050  1
  Fe  Fe23  1  0.66690799  0.32894964  0.33124901  1
  Fe  Fe24  1  0.66644553  0.66711706  0.00020397  1
  Fe  Fe25  1  0.82808013  0.83366488  0.16710092  1
  Fe  Fe26  1  0.66615034  0.66853854  0.33182712  1
  Fe  Fe27  1  0.16765075  0.16767846  0.49777440  1
  Cr  Cr28  1  0.99662771  0.99915483  0.66501884  1
  Cr  Cr29  1  0.17024508  0.16447647  0.83439636  1
  Fe  Fe30  1  0.16750750  0.49854521  0.49731167  1
  Cr  Cr31  1  0.00147194  0.33258103  0.66450169  1
  Cr  Cr32  1  0.16655007  0.50298708  0.83244503  1
  Cr  Cr33  1  0.16580968  0.83299333  0.49899331  1
  Fe  Fe34  1  0.99857609  0.66674056  0.66635588  1
  Fe  Fe35  1  0.16818639  0.83362459  0.83313748  1
  Cr  Cr36  1  0.50203213  0.16544850  0.50102447  1
  Fe  Fe37  1  0.33473870  -0.00018214  0.66679181  1
  Ni  Ni38  1  0.50033002  0.16495149  0.83331215  1
  Cr  Cr39  1  0.49943184  0.49970694  0.49817200  1
  Ni  Ni40  1  0.33382463  0.33372204  0.66483369  1
  Cr  Cr41  1  0.50062219  0.49608290  0.83348137  1
  Fe  Fe42  1  0.50158144  0.83272794  0.49791139  1
  Fe  Fe43  1  0.33368224  0.66763373  0.66571900  1
  Fe  Fe44  1  0.49950721  0.83472042  0.83401485  1
  Fe  Fe45  1  0.83281417  0.16377103  0.49646502  1
  Fe  Fe46  1  0.66254281  0.99754619  0.66644039  1
  Cr  Cr47  1  0.82715657  0.16589535  0.83145681  1
  Cr  Cr48  1  0.83151329  0.49885532  0.49924272  1
  Fe  Fe49  1  0.66498958  0.33190161  0.66632329  1
  Fe  Fe50  1  0.83121976  0.50076553  0.83239148  1
  Fe  Fe51  1  0.82892732  0.83355577  0.49839861  1
  Fe  Fe52  1  0.66583612  0.66793128  0.66685457  1
  Fe  Fe53  1  0.82971667  0.83096255  0.83321080  1
" 