6431,Ni16Fe12Cr70_16,-210.130773677618, 176.51018948222,Ni16Fe12Cr70,"# generated using pymatgen
 data_Cr20Fe3Ni4
_symmetry_space_group_name_H-M   'P 1'
_cell_length_a   7.56301926
_cell_length_b   7.56301926
_cell_length_c   10.69572441
_cell_angle_alpha   90.00000000
_cell_angle_beta   90.00000000
_cell_angle_gamma   90.00000000
_symmetry_Int_Tables_number   1
_chemical_formula_structural   Cr20Fe3Ni4
_chemical_formula_sum   'Cr40 Fe6 Ni8'
_cell_volume   611.78752559
_cell_formula_units_Z   2
loop_
 _symmetry_equiv_pos_site_id
 _symmetry_equiv_pos_as_xyz
  1  'x, y, z'
loop_
 _atom_site_type_symbol
 _atom_site_label
 _atom_site_symmetry_multiplicity
 _atom_site_fract_x
 _atom_site_fract_y
 _atom_site_fract_z
 _atom_site_occupancy
  Cr  Cr0  1  0.99184800  0.99359372  -0.00493984  1
  Cr  Cr1  1  0.16158543  0.15995109  0.15915848  1
  Cr  Cr2  1  0.99149926  0.99330927  0.32892647  1
  Cr  Cr3  1  0.99161778  0.32933044  0.99238469  1
  Cr  Cr4  1  0.16161150  0.49402910  0.16068559  1
  Cr  Cr5  1  0.99077413  0.32660472  0.32753120  1
  Cr  Cr6  1  0.99251490  0.65754886  0.99206230  1
  Cr  Cr7  1  0.15995469  0.82699643  0.16025389  1
  Cr  Cr8  1  -0.00584318  0.66100711  0.32793387  1
  Cr  Cr9  1  0.32955753  0.99178951  0.99284291  1
  Cr  Cr10  1  0.49217756  0.16149062  0.15942021  1
  Cr  Cr11  1  0.32907546  0.99106466  0.32954493  1
  Cr  Cr12  1  0.32799727  0.32960680  0.99222990  1
  Cr  Cr13  1  0.49521044  0.49588071  0.16255224  1
  Cr  Cr14  1  0.32773983  0.32695640  0.32635493  1
  Cr  Cr15  1  0.32779968  0.65957170  0.98900088  1
  Cr  Cr16  1  0.49567959  0.82356067  0.15900276  1
  Cr  Cr17  1  0.32656885  0.66320346  0.33129290  1
  Cr  Cr18  1  0.65963415  0.99297610  0.99341840  1
  Cr  Cr19  1  0.82721880  0.15970462  0.16012901  1
  Cr  Cr20  1  0.66033703  -0.00581800  0.32828594  1
  Cr  Cr21  1  0.66136426  0.32797922  0.99258587  1
  Cr  Cr22  1  0.82378725  0.49762390  0.16048993  1
  Cr  Cr23  1  0.66267587  0.32441125  0.32795197  1
  Ni  Ni24  1  0.65865736  0.65838609  0.98996436  1
  Cr  Cr25  1  0.82522129  0.82373289  0.15885124  1
  Fe  Fe26  1  0.65990773  0.66274139  0.32861888  1
  Cr  Cr27  1  0.15808208  0.15984628  0.49617401  1
  Ni  Ni28  1  0.98959534  -0.00579355  0.65721930  1
  Cr  Cr29  1  0.15888667  0.15973349  0.82561099  1
  Cr  Cr30  1  0.16000024  0.49263482  0.49420327  1
  Ni  Ni31  1  0.98873646  0.32702225  0.66087118  1
  Fe  Fe32  1  0.16008952  0.49243820  0.82496611  1
  Ni  Ni33  1  0.16017321  0.82823894  0.49560228  1
  Cr  Cr34  1  -0.00531888  0.65901748  0.66091902  1
  Cr  Cr35  1  0.15777135  0.82960144  0.82622954  1
  Cr  Cr36  1  0.49586997  0.16135242  0.49563699  1
  Cr  Cr37  1  0.32979702  0.99019213  0.65872145  1
  Cr  Cr38  1  0.49487786  0.16161429  0.82578588  1
  Cr  Cr39  1  0.49659223  0.49544416  0.49248374  1
  Cr  Cr40  1  0.32773902  0.33035189  0.66185568  1
  Ni  Ni41  1  0.49826570  0.49700935  0.82611114  1
  Ni  Ni42  1  0.49628042  0.82553251  0.49682742  1
  Cr  Cr43  1  0.32843444  0.66082957  0.66073008  1
  Fe  Fe44  1  0.49678554  0.82608015  0.82467545  1
  Ni  Ni45  1  0.82633411  0.16000273  0.49912467  1
  Ni  Ni46  1  0.66196530  0.99267854  0.65884043  1
  Cr  Cr47  1  0.82776620  0.15849260  0.82296506  1
  Cr  Cr48  1  0.82471014  0.49338423  0.49540280  1
  Fe  Fe49  1  0.66181181  0.32672298  0.66094749  1
  Fe  Fe50  1  0.82437101  0.49320285  0.82481698  1
  Cr  Cr51  1  0.82622118  0.82674467  0.49476680  1
  Fe  Fe52  1  0.65993655  0.66171420  0.66211914  1
  Cr  Cr53  1  0.82543399  0.82605957  0.82724015  1
" 