6359,Ni16Fe84_0,-242.65169220083, 202.709248361839,Ni16Fe84,"# generated using pymatgen
 data_Fe4Ni23
_symmetry_space_group_name_H-M   'P 1'
_cell_length_a   7.43302709
_cell_length_b   7.43302709
_cell_length_c   10.51188772
_cell_angle_alpha   90.00000000
_cell_angle_beta   90.00000000
_cell_angle_gamma   90.00000000
_symmetry_Int_Tables_number   1
_chemical_formula_structural   Fe4Ni23
_chemical_formula_sum   'Fe8 Ni46'
_cell_volume   580.78065832
_cell_formula_units_Z   2
loop_
 _symmetry_equiv_pos_site_id
 _symmetry_equiv_pos_as_xyz
  1  'x, y, z'
loop_
 _atom_site_type_symbol
 _atom_site_label
 _atom_site_symmetry_multiplicity
 _atom_site_fract_x
 _atom_site_fract_y
 _atom_site_fract_z
 _atom_site_occupancy
  Ni  Ni0  1  0.00261623  0.00262137  1.00145237  1
  Ni  Ni1  1  0.16909006  0.16901713  0.16845363  1
  Ni  Ni2  1  0.00332201  0.00236969  0.33666458  1
  Ni  Ni3  1  0.00233038  0.33537567  1.00174966  1
  Ni  Ni4  1  0.16704056  0.50303368  0.16928219  1
  Ni  Ni5  1  0.00270505  0.33558814  0.33596010  1
  Ni  Ni6  1  0.00242025  0.66917561  1.00185985  1
  Ni  Ni7  1  0.17061859  0.83480226  0.16970281  1
  Ni  Ni8  1  1.00202923  0.66889222  0.33596029  1
  Ni  Ni9  1  0.33518195  1.00195951  1.00170961  1
  Ni  Ni10  1  0.50306306  0.16757922  0.16884824  1
  Ni  Ni11  1  0.33532771  0.00234386  0.33573949  1
  Ni  Ni12  1  0.33479684  0.33546822  1.00164286  1
  Fe  Fe13  1  0.50116840  0.50148940  0.16820928  1
  Ni  Ni14  1  0.33508525  0.33553220  0.33577169  1
  Ni  Ni15  1  0.33544542  0.66926412  1.00111738  1
  Ni  Ni16  1  0.50166346  0.83667543  0.16883049  1
  Ni  Ni17  1  0.33579508  0.66913737  0.33707775  1
  Ni  Ni18  1  0.66931642  1.00202202  1.00180380  1
  Ni  Ni19  1  0.83472117  0.17093566  0.17017073  1
  Ni  Ni20  1  0.66891830  1.00168517  0.33627715  1
  Ni  Ni21  1  0.66936344  0.33573383  1.00117653  1
  Ni  Ni22  1  0.83629723  0.50170853  0.16839931  1
  Ni  Ni23  1  0.66891872  0.33639243  0.33729924  1
  Ni  Ni24  1  0.66902998  0.66930402  1.00204187  1
  Fe  Fe25  1  0.83689052  0.83697196  0.16899012  1
  Ni  Ni26  1  0.66883135  0.66892325  0.33515934  1
  Ni  Ni27  1  0.17097708  0.16943975  0.50224532  1
  Fe  Fe28  1  1.00126094  0.00283407  0.66867264  1
  Fe  Fe29  1  0.16887397  0.16899381  0.83553792  1
  Ni  Ni30  1  0.16691443  0.50201956  0.50190029  1
  Ni  Ni31  1  0.00301831  0.33640872  0.66906714  1
  Ni  Ni32  1  0.16817746  0.50291474  0.83570518  1
  Ni  Ni33  1  0.16943837  0.83530748  0.50241951  1
  Fe  Fe34  1  1.00169484  0.66889331  0.66890565  1
  Ni  Ni35  1  0.16923045  0.83455535  0.83478708  1
  Ni  Ni36  1  0.50240185  0.16824543  0.50212217  1
  Ni  Ni37  1  0.33529580  1.00227098  0.66923155  1
  Ni  Ni38  1  0.50312098  0.16849751  0.83586818  1
  Fe  Fe39  1  0.50163432  0.50304062  0.50327223  1
  Ni  Ni40  1  0.33464922  0.33453579  0.66926286  1
  Ni  Ni41  1  0.50248798  0.50147826  0.83547557  1
  Ni  Ni42  1  0.50240540  0.83766068  0.50266881  1
  Fe  Fe43  1  0.33687392  0.66807301  0.66908629  1
  Ni  Ni44  1  0.50198371  0.83662687  0.83547023  1
  Fe  Fe45  1  0.83650597  0.16810581  0.50252223  1
  Ni  Ni46  1  0.66816305  1.00095465  0.66896127  1
  Ni  Ni47  1  0.83391200  0.16964902  0.83452947  1
  Ni  Ni48  1  0.83630874  0.50220770  0.50259458  1
  Ni  Ni49  1  0.66924677  0.33614806  0.66851862  1
  Ni  Ni50  1  0.83634564  0.50180802  0.83579791  1
  Ni  Ni51  1  0.83492905  0.83357314  0.50134959  1
  Ni  Ni52  1  0.67008549  0.66971427  0.66970056  1
  Ni  Ni53  1  0.83565500  0.83561881  0.83655418  1
" 