1907,Ni16Fe84_2,-242.80490268776, 202.761690303645,Ni16Fe84,"# generated using pymatgen
 data_Fe4Ni23
_symmetry_space_group_name_H-M   'P 1'
_cell_length_a   7.43300062
_cell_length_b   7.43300062
_cell_length_c   10.51185029
_cell_angle_alpha   90.00000000
_cell_angle_beta   90.00000000
_cell_angle_gamma   90.00000000
_symmetry_Int_Tables_number   1
_chemical_formula_structural   Fe4Ni23
_chemical_formula_sum   'Fe8 Ni46'
_cell_volume   580.77445387
_cell_formula_units_Z   2
loop_
 _symmetry_equiv_pos_site_id
 _symmetry_equiv_pos_as_xyz
  1  'x, y, z'
loop_
 _atom_site_type_symbol
 _atom_site_label
 _atom_site_symmetry_multiplicity
 _atom_site_fract_x
 _atom_site_fract_y
 _atom_site_fract_z
 _atom_site_occupancy
  Ni  Ni0  1  0.00287335  1.00175758  1.00207896  1
  Ni  Ni1  1  0.16913523  0.16933739  0.16812342  1
  Ni  Ni2  1  1.00171477  0.00274404  0.33540724  1
  Ni  Ni3  1  1.00105393  0.33548692  0.00245261  1
  Ni  Ni4  1  0.16881824  0.50207834  0.16865759  1
  Ni  Ni5  1  1.00199932  0.33441725  0.33458688  1
  Ni  Ni6  1  0.00290380  0.66978032  0.00319891  1
  Ni  Ni7  1  0.16971058  0.83534178  0.17042063  1
  Fe  Fe8  1  1.00176941  0.66874425  0.33562438  1
  Ni  Ni9  1  0.33468715  1.00150437  0.00288285  1
  Ni  Ni10  1  0.50218577  0.16829984  0.17015961  1
  Ni  Ni11  1  0.33498904  1.00175211  0.33561946  1
  Ni  Ni12  1  0.33659763  0.33546512  0.00263534  1
  Ni  Ni13  1  0.50215401  0.50280006  0.16889373  1
  Ni  Ni14  1  0.33532124  0.33616839  0.33446148  1
  Ni  Ni15  1  0.33513784  0.66967990  0.00241950  1
  Ni  Ni16  1  0.50214217  0.83584825  0.16870469  1
  Ni  Ni17  1  0.33651970  0.66904468  0.33546817  1
  Fe  Fe18  1  0.66858792  0.00377955  0.00241345  1
  Ni  Ni19  1  0.83545658  0.16921206  0.16916410  1
  Ni  Ni20  1  0.66991957  1.00176554  0.33483539  1
  Ni  Ni21  1  0.66914357  0.33573681  0.00298436  1
  Ni  Ni22  1  0.83590521  0.50207100  0.16983216  1
  Ni  Ni23  1  0.66983400  0.33616047  0.33560614  1
  Fe  Fe24  1  0.66925234  0.66813188  0.00267034  1
  Ni  Ni25  1  0.83482959  0.83555057  0.16850166  1
  Ni  Ni26  1  0.66841234  0.66899481  0.33461264  1
  Ni  Ni27  1  0.16896474  0.17067712  0.50307313  1
  Ni  Ni28  1  1.00215482  0.00262808  0.66940994  1
  Ni  Ni29  1  0.16929575  0.16935264  0.83572119  1
  Ni  Ni30  1  0.16865404  0.50095020  0.50256354  1
  Ni  Ni31  1  1.00184190  0.33549612  0.66978717  1
  Ni  Ni32  1  0.16730959  0.50261985  0.83571267  1
  Fe  Fe33  1  0.16731904  0.83601632  0.50245647  1
  Ni  Ni34  1  1.00204767  0.66899435  0.66821252  1
  Ni  Ni35  1  0.17123023  0.83489685  0.83401282  1
  Fe  Fe36  1  0.50292227  0.16893681  0.50197227  1
  Ni  Ni37  1  0.33551525  1.00195206  0.66831076  1
  Ni  Ni38  1  0.50241668  0.16681846  0.83446470  1
  Fe  Fe39  1  0.50293727  0.50250186  0.50149450  1
  Ni  Ni40  1  0.33591677  0.33606636  0.66964579  1
  Fe  Fe41  1  0.50137623  0.50076353  0.83623381  1
  Ni  Ni42  1  0.50258535  0.83585228  0.50220007  1
  Ni  Ni43  1  0.33622805  0.66872966  0.66887059  1
  Ni  Ni44  1  0.50209786  0.83605585  0.83598940  1
  Ni  Ni45  1  0.83642379  0.16915047  0.50263883  1
  Ni  Ni46  1  0.66930608  1.00221339  0.66941493  1
  Ni  Ni47  1  0.83506997  0.17069429  0.83494728  1
  Ni  Ni48  1  0.83672778  0.50224876  0.50212700  1
  Ni  Ni49  1  0.66931264  0.33618385  0.66815835  1
  Ni  Ni50  1  0.83654958  0.50203628  0.83501639  1
  Ni  Ni51  1  0.83223363  0.83539868  0.50330114  1
  Ni  Ni52  1  0.66855836  0.66842732  0.67034679  1
  Fe  Fe53  1  0.83762436  0.83635925  0.83517626  1
" 