1354,Ni16Fe57Cr25_18,-225.058840452725, 168.282760280716,Ni16Fe57Cr25,"# generated using pymatgen
 data_Cr15Fe31Ni8
_symmetry_space_group_name_H-M   'P 1'
_cell_length_a   7.47270313
_cell_length_b   7.47270313
_cell_length_c   10.56799812
_cell_angle_alpha   90.00000000
_cell_angle_beta   90.00000000
_cell_angle_gamma   90.00000000
_symmetry_Int_Tables_number   1
_chemical_formula_structural   Cr15Fe31Ni8
_chemical_formula_sum   'Cr15 Fe31 Ni8'
_cell_volume   590.13066959
_cell_formula_units_Z   1
loop_
 _symmetry_equiv_pos_site_id
 _symmetry_equiv_pos_as_xyz
  1  'x, y, z'
loop_
 _atom_site_type_symbol
 _atom_site_label
 _atom_site_symmetry_multiplicity
 _atom_site_fract_x
 _atom_site_fract_y
 _atom_site_fract_z
 _atom_site_occupancy
  Fe  Fe0  1  0.99949594  0.99787337  0.00020556  1
  Ni  Ni1  1  0.16358806  0.16510815  0.16554030  1
  Fe  Fe2  1  0.99717256  0.00042485  0.33202162  1
  Cr  Cr3  1  0.99935803  0.33291165  0.00116049  1
  Cr  Cr4  1  0.16670730  0.49927286  0.16669054  1
  Fe  Fe5  1  0.99755785  0.33241918  0.33268179  1
  Fe  Fe6  1  0.99919023  0.66730211  0.99831763  1
  Cr  Cr7  1  0.16536209  0.83419851  0.16497581  1
  Fe  Fe8  1  0.99699465  0.66598329  0.33394091  1
  Fe  Fe9  1  0.33238670  0.99949929  0.99951232  1
  Cr  Cr10  1  0.50035844  0.16700698  0.16422870  1
  Cr  Cr11  1  0.33449105  0.00075704  0.33199739  1
  Fe  Fe12  1  0.33444738  0.33430023  0.99938485  1
  Ni  Ni13  1  0.50296717  0.50129899  0.16430000  1
  Cr  Cr14  1  0.33169443  0.33271341  0.33228596  1
  Ni  Ni15  1  0.33414333  0.66587493  0.99844289  1
  Fe  Fe16  1  0.50120699  0.83159781  0.16512621  1
  Cr  Cr17  1  0.33387175  0.66539763  0.33370934  1
  Fe  Fe18  1  0.66681850  0.99854562  0.00055443  1
  Fe  Fe19  1  0.83349116  0.16586644  0.16700111  1
  Ni  Ni20  1  0.66991731  0.99935045  0.33373656  1
  Fe  Fe21  1  0.66469827  0.33505303  0.99952093  1
  Fe  Fe22  1  0.83133309  0.49964040  0.16688319  1
  Fe  Fe23  1  0.66725849  0.33208498  0.33284029  1
  Fe  Fe24  1  0.66638782  0.66527032  0.00009377  1
  Fe  Fe25  1  0.83138094  0.83324903  0.16661129  1
  Fe  Fe26  1  0.66805903  0.66655797  0.33157376  1
  Cr  Cr27  1  0.16546069  0.16732847  0.49945927  1
  Fe  Fe28  1  0.99937529  0.99880838  0.66654307  1
  Cr  Cr29  1  0.16713638  0.16565974  0.83342420  1
  Ni  Ni30  1  0.16303381  0.49948873  0.50156437  1
  Fe  Fe31  1  0.00017830  0.33464557  0.66588999  1
  Fe  Fe32  1  0.16731206  0.50123266  0.83210573  1
  Cr  Cr33  1  0.16508081  0.83158922  0.50163311  1
  Fe  Fe34  1  0.00133873  0.66532744  0.66684045  1
  Fe  Fe35  1  0.16554029  0.83201510  0.83294555  1
  Ni  Ni36  1  0.50297977  0.16623536  0.50263275  1
  Ni  Ni37  1  0.33343542  0.00160045  0.66684102  1
  Fe  Fe38  1  0.49920329  0.16735024  0.83192546  1
  Cr  Cr39  1  0.49952852  0.49801703  0.49979869  1
  Ni  Ni40  1  0.33263077  0.33249037  0.66737013  1
  Fe  Fe41  1  0.49865289  0.49756963  0.83392560  1
  Cr  Cr42  1  0.50076575  0.83477596  0.49866825  1
  Fe  Fe43  1  0.33091409  0.66490424  0.66752308  1
  Cr  Cr44  1  0.49890643  0.83316245  0.83347384  1
  Fe  Fe45  1  0.83143094  0.16646653  0.49955452  1
  Fe  Fe46  1  0.66549404  0.00177668  0.66505483  1
  Cr  Cr47  1  0.83115391  0.16604369  0.83196091  1
  Fe  Fe48  1  0.83483199  0.49859759  0.49908186  1
  Fe  Fe49  1  0.66487582  0.33134884  0.66624231  1
  Fe  Fe50  1  0.83307177  0.50057295  0.83307457  1
  Fe  Fe51  1  0.83336088  0.83380588  0.49875792  1
  Cr  Cr52  1  0.66871047  0.66653554  0.66637594  1
  Fe  Fe53  1  0.83482410  0.83265851  0.83356071  1
" 