8245,Ni16Fe77Cr6_11,-229.740858556025, 172.665142693695,Ni16Fe77Cr6,"# generated using pymatgen
 data_Cr4Fe41Ni9
_symmetry_space_group_name_H-M   'P 1'
_cell_length_a   7.42402376
_cell_length_b   7.42402376
_cell_length_c   10.49915509
_cell_angle_alpha   90.00000000
_cell_angle_beta   90.00000000
_cell_angle_gamma   90.00000000
_symmetry_Int_Tables_number   1
_chemical_formula_structural   Cr4Fe41Ni9
_chemical_formula_sum   'Cr4 Fe41 Ni9'
_cell_volume   578.67278399
_cell_formula_units_Z   1
loop_
 _symmetry_equiv_pos_site_id
 _symmetry_equiv_pos_as_xyz
  1  'x, y, z'
loop_
 _atom_site_type_symbol
 _atom_site_label
 _atom_site_symmetry_multiplicity
 _atom_site_fract_x
 _atom_site_fract_y
 _atom_site_fract_z
 _atom_site_occupancy
  Fe  Fe0  1  1.00090079  1.00204080  0.00323669  1
  Fe  Fe1  1  0.16902591  0.16892566  0.16850662  1
  Fe  Fe2  1  1.00281824  1.00104530  0.33507459  1
  Fe  Fe3  1  1.00074440  0.33625914  0.00375741  1
  Fe  Fe4  1  0.16745216  0.50490867  0.16933926  1
  Fe  Fe5  1  1.00136460  0.33892941  0.33593030  1
  Fe  Fe6  1  1.00276312  0.66997400  0.00330344  1
  Fe  Fe7  1  0.16839583  0.83499354  0.16916473  1
  Ni  Ni8  1  1.00202185  0.67010774  0.33584271  1
  Fe  Fe9  1  0.33676851  1.00111400  0.00369506  1
  Fe  Fe10  1  0.50617186  0.16806699  0.16872873  1
  Fe  Fe11  1  0.33619815  0.99963979  0.33539327  1
  Fe  Fe12  1  0.33710264  0.33712894  1.00281804  1
  Cr  Cr13  1  0.50549983  0.50682529  0.17057048  1
  Cr  Cr14  1  0.33717000  0.33642412  0.33559767  1
  Fe  Fe15  1  0.33576113  0.67085093  1.00214730  1
  Ni  Ni16  1  0.50133634  0.83582895  0.16977727  1
  Ni  Ni17  1  0.33426878  0.67025996  0.33731982  1
  Fe  Fe18  1  0.67079526  0.00351010  0.00361193  1
  Ni  Ni19  1  0.83827437  0.16983166  0.17148445  1
  Fe  Fe20  1  0.66929420  1.00164697  0.33541903  1
  Fe  Fe21  1  0.67152270  0.33535328  1.00198539  1
  Ni  Ni22  1  0.83630004  0.50264656  0.16928791  1
  Fe  Fe23  1  0.67283161  0.33695931  0.33697623  1
  Fe  Fe24  1  0.67048468  0.67050315  1.00216639  1
  Fe  Fe25  1  0.83451431  0.83517194  0.16984506  1
  Fe  Fe26  1  0.67051569  0.67043350  0.33713667  1
  Cr  Cr27  1  0.16778205  0.16691276  0.50362405  1
  Fe  Fe28  1  1.00033494  1.00010066  0.67020799  1
  Cr  Cr29  1  0.16785355  0.16802033  0.83600581  1
  Fe  Fe30  1  0.16746132  0.50512272  0.50307610  1
  Fe  Fe31  1  1.00016401  0.33851051  0.66923659  1
  Fe  Fe32  1  0.16965934  0.50419382  0.83626382  1
  Fe  Fe33  1  0.16828631  0.83310604  0.50363580  1
  Fe  Fe34  1  1.00239622  0.66958604  0.66877493  1
  Ni  Ni35  1  0.16995571  0.83589683  0.83546096  1
  Fe  Fe36  1  0.50577919  0.16932800  0.50368949  1
  Fe  Fe37  1  0.33827378  1.00028558  0.66962720  1
  Fe  Fe38  1  0.50413968  0.16985384  0.83608891  1
  Fe  Fe39  1  0.50345872  0.50409207  0.50397955  1
  Fe  Fe40  1  0.33809404  0.33816008  0.66963446  1
  Ni  Ni41  1  0.50401703  0.50451881  0.83587072  1
  Fe  Fe42  1  0.50345675  0.83563253  0.50176146  1
  Fe  Fe43  1  0.33656401  0.66988606  0.66964172  1
  Fe  Fe44  1  0.50306524  0.83687531  0.83717203  1
  Fe  Fe45  1  0.83419890  0.16978967  0.50302932  1
  Fe  Fe46  1  0.66989331  1.00267735  0.66973927  1
  Ni  Ni47  1  0.83620686  0.16975267  0.83472738  1
  Ni  Ni48  1  0.83474684  0.50337914  0.50250134  1
  Fe  Fe49  1  0.67003967  0.33701337  0.66998171  1
  Fe  Fe50  1  0.83690882  0.50303887  0.83626052  1
  Fe  Fe51  1  0.83687055  0.83560854  0.50268238  1
  Fe  Fe52  1  0.66979174  0.66925425  0.66954249  1
  Fe  Fe53  1  0.83677533  0.83649541  0.83613850  1
" 