5789,Ni16Fe12Cr70_12,-210.086607746922, 179.437204690556,Ni16Fe12Cr70,"# generated using pymatgen
 data_Cr20Fe3Ni4
_symmetry_space_group_name_H-M   'P 1'
_cell_length_a   7.56674220
_cell_length_b   7.56674220
_cell_length_c   10.70098945
_cell_angle_alpha   90.00000000
_cell_angle_beta   90.00000000
_cell_angle_gamma   90.00000000
_symmetry_Int_Tables_number   1
_chemical_formula_structural   Cr20Fe3Ni4
_chemical_formula_sum   'Cr40 Fe6 Ni8'
_cell_volume   612.69143869
_cell_formula_units_Z   2
loop_
 _symmetry_equiv_pos_site_id
 _symmetry_equiv_pos_as_xyz
  1  'x, y, z'
loop_
 _atom_site_type_symbol
 _atom_site_label
 _atom_site_symmetry_multiplicity
 _atom_site_fract_x
 _atom_site_fract_y
 _atom_site_fract_z
 _atom_site_occupancy
  Ni  Ni0  1  -0.00495758  -0.00435100  0.99147591  1
  Cr  Cr1  1  0.16042011  0.15995143  0.15879303  1
  Cr  Cr2  1  -0.00496530  0.99233291  0.32967031  1
  Cr  Cr3  1  0.99335504  0.32687838  0.99171216  1
  Ni  Ni4  1  0.15970487  0.49345561  0.15981996  1
  Cr  Cr5  1  -0.00503708  0.32872686  0.32586252  1
  Fe  Fe6  1  0.99328060  0.65746667  -0.00436480  1
  Cr  Cr7  1  0.15844447  0.82740506  0.15625248  1
  Cr  Cr8  1  -0.00590752  0.65893618  0.32431472  1
  Fe  Fe9  1  0.32521248  -0.00517524  0.99311389  1
  Cr  Cr10  1  0.49253433  0.16183874  0.16319222  1
  Cr  Cr11  1  0.32468151  0.99217019  0.32806107  1
  Cr  Cr12  1  0.32600126  0.32886314  -0.00405796  1
  Ni  Ni13  1  0.49373154  0.49265089  0.16397544  1
  Fe  Fe14  1  0.32651399  0.33048090  0.32432835  1
  Cr  Cr15  1  0.32688139  0.65684633  -0.00521479  1
  Cr  Cr16  1  0.49361170  0.82754865  0.15860155  1
  Cr  Cr17  1  0.32609098  0.65896648  0.32724861  1
  Cr  Cr18  1  0.66211506  -0.00475438  0.99067919  1
  Cr  Cr19  1  0.82711288  0.16020424  0.16136353  1
  Cr  Cr20  1  0.66042523  0.99125440  0.32851691  1
  Cr  Cr21  1  0.66046594  0.32846196  -0.00565624  1
  Ni  Ni22  1  0.82646566  0.49372794  0.16082291  1
  Fe  Fe23  1  0.66044244  0.33125371  0.32426530  1
  Cr  Cr24  1  0.65955608  0.65683409  -0.00482841  1
  Cr  Cr25  1  0.82784763  0.82567551  0.15838177  1
  Ni  Ni26  1  0.65849057  0.65436331  0.32391383  1
  Cr  Cr27  1  0.16079592  0.16216012  0.49312130  1
  Cr  Cr28  1  0.99332125  -0.00477165  0.65797836  1
  Fe  Fe29  1  0.15773770  0.15892365  0.82784456  1
  Cr  Cr30  1  0.16038580  0.49368734  0.49582973  1
  Fe  Fe31  1  -0.00628153  0.32534436  0.66147794  1
  Cr  Cr32  1  0.15932608  0.49389474  0.82398015  1
  Ni  Ni33  1  0.16164683  0.82524750  0.49487663  1
  Cr  Cr34  1  -0.00474339  0.66165214  0.65820114  1
  Cr  Cr35  1  0.15992848  0.82612864  0.82974331  1
  Cr  Cr36  1  0.49338981  0.16358401  0.48918432  1
  Cr  Cr37  1  0.32483947  0.99202147  0.65975935  1
  Cr  Cr38  1  0.49195633  0.15965453  0.82880339  1
  Cr  Cr39  1  0.49377229  0.49252331  0.49368585  1
  Cr  Cr40  1  0.32499193  0.32660570  0.66096100  1
  Cr  Cr41  1  0.49168480  0.49437991  0.82392520  1
  Cr  Cr42  1  0.49264067  0.82507637  0.49532793  1
  Ni  Ni43  1  0.32359704  0.66019718  0.65854918  1
  Cr  Cr44  1  0.49078644  0.82616879  0.82648066  1
  Cr  Cr45  1  0.82619490  0.16361102  0.49300227  1
  Cr  Cr46  1  0.66174143  -0.00521269  0.66126078  1
  Ni  Ni47  1  0.83183898  0.15969607  0.82632578  1
  Cr  Cr48  1  0.82616124  0.49279246  0.49364280  1
  Cr  Cr49  1  0.66196140  0.32454844  0.66301983  1
  Cr  Cr50  1  0.82934643  0.49274071  0.82524212  1
  Cr  Cr51  1  0.82709568  0.82415512  0.49105905  1
  Cr  Cr52  1  0.65833181  0.66090603  0.66078987  1
  Cr  Cr53  1  0.82929902  0.82653691  0.82994916  1
" 