4789,Ni16Fe57Cr25_4,-225.455913214003, 181.066154056297,Ni16Fe57Cr25,"# generated using pymatgen
 data_Cr15Fe31Ni8
_symmetry_space_group_name_H-M   'P 1'
_cell_length_a   7.46720039
_cell_length_b   7.46720039
_cell_length_c   10.56021606
_cell_angle_alpha   90.00000000
_cell_angle_beta   90.00000000
_cell_angle_gamma   90.00000000
_symmetry_Int_Tables_number   1
_chemical_formula_structural   Cr15Fe31Ni8
_chemical_formula_sum   'Cr15 Fe31 Ni8'
_cell_volume   588.82794930
_cell_formula_units_Z   1
loop_
 _symmetry_equiv_pos_site_id
 _symmetry_equiv_pos_as_xyz
  1  'x, y, z'
loop_
 _atom_site_type_symbol
 _atom_site_label
 _atom_site_symmetry_multiplicity
 _atom_site_fract_x
 _atom_site_fract_y
 _atom_site_fract_z
 _atom_site_occupancy
  Cr  Cr0  1  0.99685912  0.99931093  0.99974418  1
  Fe  Fe1  1  0.16633229  0.16909253  0.16421117  1
  Fe  Fe2  1  0.00158157  0.00176531  0.33353859  1
  Fe  Fe3  1  0.00232605  0.33524858  0.99953642  1
  Fe  Fe4  1  0.16858085  0.49895439  0.16521918  1
  Cr  Cr5  1  0.00097441  0.33175437  0.33330938  1
  Fe  Fe6  1  0.00115499  0.66214724  0.00019152  1
  Cr  Cr7  1  0.16877558  0.83190888  0.16845531  1
  Cr  Cr8  1  0.99843906  0.66627359  0.33560982  1
  Cr  Cr9  1  0.33467221  0.00105136  0.99641242  1
  Cr  Cr10  1  0.50006987  0.16720975  0.16445757  1
  Fe  Fe11  1  0.33206670  0.00130858  0.33275634  1
  Ni  Ni12  1  0.33104286  0.33690248  0.99792844  1
  Fe  Fe13  1  0.49648949  0.50279105  0.16531503  1
  Cr  Cr14  1  0.33276725  0.33613028  0.33534856  1
  Fe  Fe15  1  0.33436773  0.66285526  0.99935482  1
  Fe  Fe16  1  0.50014105  0.83071703  0.16751170  1
  Ni  Ni17  1  0.33491726  0.66441403  0.33207272  1
  Fe  Fe18  1  0.66614559  0.99987631  0.99740184  1
  Fe  Fe19  1  0.83554484  0.16654994  0.16592695  1
  Cr  Cr20  1  0.67019388  0.99864022  0.33172022  1
  Cr  Cr21  1  0.66507686  0.33389112  0.99815088  1
  Fe  Fe22  1  0.83443386  0.50047048  0.16663977  1
  Cr  Cr23  1  0.66618767  0.33642037  0.33595378  1
  Cr  Cr24  1  0.66616084  0.66888550  0.00117109  1
  Fe  Fe25  1  0.83218869  0.83322484  0.16648447  1
  Fe  Fe26  1  0.66529559  0.66395548  0.33260161  1
  Fe  Fe27  1  0.16759285  0.16941270  0.50268504  1
  Cr  Cr28  1  0.99891231  0.99942969  0.66437552  1
  Ni  Ni29  1  0.16508470  0.16998098  0.83311155  1
  Ni  Ni30  1  0.16521129  0.49979380  0.50328647  1
  Fe  Fe31  1  0.99950748  0.33416386  0.66628443  1
  Fe  Fe32  1  0.16919247  0.49793859  0.83207726  1
  Cr  Cr33  1  0.16895013  0.83326100  0.49941417  1
  Fe  Fe34  1  0.99718811  0.66319047  0.66526404  1
  Cr  Cr35  1  0.16779643  0.83042720  0.83105698  1
  Fe  Fe36  1  0.50015583  0.16800274  0.50345795  1
  Fe  Fe37  1  0.33680546  0.00293581  0.66937389  1
  Fe  Fe38  1  0.49830212  0.16804220  0.83153729  1
  Fe  Fe39  1  0.49832060  0.50168597  0.50340054  1
  Fe  Fe40  1  0.33336955  0.33254509  0.66814663  1
  Ni  Ni41  1  0.50081480  0.50006092  0.83161018  1
  Cr  Cr42  1  0.49956659  0.83422696  0.49875630  1
  Fe  Fe43  1  0.33613149  0.66464726  0.66680136  1
  Ni  Ni44  1  0.50205654  0.83226110  0.83398276  1
  Fe  Fe45  1  0.83233734  0.16715360  0.50245100  1
  Ni  Ni46  1  0.66559431  0.99990285  0.67105391  1
  Fe  Fe47  1  0.83169162  0.16744996  0.83171188  1
  Ni  Ni48  1  0.83203312  0.49802754  0.50240332  1
  Fe  Fe49  1  0.66680494  0.33291283  0.66671933  1
  Fe  Fe50  1  0.83424507  0.50039918  0.83078806  1
  Fe  Fe51  1  0.83133811  0.83033262  0.50213559  1
  Fe  Fe52  1  0.66706187  0.66703236  0.66851525  1
  Fe  Fe53  1  0.83059628  0.83248039  0.83202308  1
" 