2945,Ni16Fe57Cr25_13,-225.04143639048, 171.210165292967,Ni16Fe57Cr25,"# generated using pymatgen
 data_Cr15Fe31Ni8
_symmetry_space_group_name_H-M   'P 1'
_cell_length_a   7.47164431
_cell_length_b   7.47164431
_cell_length_c   10.56650072
_cell_angle_alpha   90.00000000
_cell_angle_beta   90.00000000
_cell_angle_gamma   90.00000000
_symmetry_Int_Tables_number   1
_chemical_formula_structural   Cr15Fe31Ni8
_chemical_formula_sum   'Cr15 Fe31 Ni8'
_cell_volume   589.87985485
_cell_formula_units_Z   1
loop_
 _symmetry_equiv_pos_site_id
 _symmetry_equiv_pos_as_xyz
  1  'x, y, z'
loop_
 _atom_site_type_symbol
 _atom_site_label
 _atom_site_symmetry_multiplicity
 _atom_site_fract_x
 _atom_site_fract_y
 _atom_site_fract_z
 _atom_site_occupancy
  Fe  Fe0  1  0.99726143  0.99890618  0.00180733  1
  Fe  Fe1  1  0.16766510  0.16534503  0.16681479  1
  Fe  Fe2  1  0.99800239  0.00039575  0.33259620  1
  Cr  Cr3  1  0.99904187  0.33263496  0.99951096  1
  Cr  Cr4  1  0.16605957  0.50085827  0.16671199  1
  Fe  Fe5  1  0.00031059  0.33190124  0.33491522  1
  Fe  Fe6  1  0.99929258  0.66768308  -0.00000561  1
  Fe  Fe7  1  0.16678340  0.83408798  0.16439182  1
  Fe  Fe8  1  0.99841017  0.66710788  0.33457031  1
  Fe  Fe9  1  0.33556329  0.99885475  0.00204226  1
  Ni  Ni10  1  0.49999110  0.16569478  0.16630718  1
  Cr  Cr11  1  0.33438204  0.99917816  0.33157247  1
  Cr  Cr12  1  0.33410871  0.33412415  0.99902240  1
  Ni  Ni13  1  0.50054932  0.49909306  0.16735041  1
  Ni  Ni14  1  0.33173742  0.33228848  0.33261556  1
  Fe  Fe15  1  0.33632019  0.66631309  0.00018962  1
  Ni  Ni16  1  0.50111973  0.83437910  0.16514970  1
  Cr  Cr17  1  0.33561306  0.66726301  0.33290364  1
  Fe  Fe18  1  0.66580486  0.99866103  0.00032942  1
  Fe  Fe19  1  0.83068829  0.16397184  0.16780267  1
  Fe  Fe20  1  0.66741978  0.99868548  0.33221104  1
  Cr  Cr21  1  0.66572180  0.33242341  0.99951096  1
  Cr  Cr22  1  0.83123850  0.50124820  0.16858803  1
  Fe  Fe23  1  0.66501118  0.33198140  0.33159443  1
  Fe  Fe24  1  0.66322011  0.66822598  0.00037767  1
  Fe  Fe25  1  0.83086803  0.83441502  0.16722588  1
  Fe  Fe26  1  0.66691221  0.66852080  0.33320297  1
  Fe  Fe27  1  0.16394398  0.16854355  0.49847138  1
  Fe  Fe28  1  0.99591313  0.99894334  0.66584172  1
  Cr  Cr29  1  0.16718238  0.16420205  0.83284674  1
  Fe  Fe30  1  0.16493529  0.49897254  0.49912897  1
  Cr  Cr31  1  0.99857301  0.33420771  0.66572010  1
  Ni  Ni32  1  0.16821903  0.50202676  0.83089838  1
  Cr  Cr33  1  0.16493866  0.83390808  0.50036959  1
  Fe  Fe34  1  0.99832824  0.66699944  0.66537415  1
  Cr  Cr35  1  0.16451980  0.83253944  0.83537302  1
  Cr  Cr36  1  0.49966929  0.16695181  0.49973251  1
  Cr  Cr37  1  0.33554654  0.99723430  0.66521327  1
  Fe  Fe38  1  0.50143713  0.16656757  0.83213458  1
  Cr  Cr39  1  0.50129874  0.49774911  0.49893306  1
  Fe  Fe40  1  0.33376526  0.33545772  0.66740473  1
  Ni  Ni41  1  0.49974356  0.50018395  0.83199206  1
  Fe  Fe42  1  0.50510673  0.83181122  0.49940612  1
  Fe  Fe43  1  0.33367760  0.66374840  0.66720062  1
  Fe  Fe44  1  0.50099078  0.83056883  0.83453028  1
  Fe  Fe45  1  0.83304822  0.16573441  0.49862954  1
  Fe  Fe46  1  0.66983171  0.99860471  0.66655085  1
  Fe  Fe47  1  0.83123655  0.16374766  0.83210781  1
  Ni  Ni48  1  0.83291451  0.50108074  0.49799728  1
  Fe  Fe49  1  0.66598498  0.33303417  0.66748055  1
  Cr  Cr50  1  0.83193938  0.50230574  0.83340174  1
  Ni  Ni51  1  0.83347684  0.83271905  0.49955453  1
  Fe  Fe52  1  0.66691394  0.66757579  0.66549517  1
  Fe  Fe53  1  0.83115707  0.83372887  0.83229102  1
" 