7791,Ni16Fe77Cr6_19,-229.570125625308, 172.528949139222,Ni16Fe77Cr6,"# generated using pymatgen
 data_Cr4Fe41Ni9
_symmetry_space_group_name_H-M   'P 1'
_cell_length_a   7.42326484
_cell_length_b   7.42326484
_cell_length_c   10.49808181
_cell_angle_alpha   90.00000000
_cell_angle_beta   90.00000000
_cell_angle_gamma   90.00000000
_symmetry_Int_Tables_number   1
_chemical_formula_structural   Cr4Fe41Ni9
_chemical_formula_sum   'Cr4 Fe41 Ni9'
_cell_volume   578.49533681
_cell_formula_units_Z   1
loop_
 _symmetry_equiv_pos_site_id
 _symmetry_equiv_pos_as_xyz
  1  'x, y, z'
loop_
 _atom_site_type_symbol
 _atom_site_label
 _atom_site_symmetry_multiplicity
 _atom_site_fract_x
 _atom_site_fract_y
 _atom_site_fract_z
 _atom_site_occupancy
  Ni  Ni0  1  0.00308293  0.00328134  0.00347517  1
  Fe  Fe1  1  0.16978578  0.16929568  0.16890062  1
  Fe  Fe2  1  0.00364386  0.00336806  0.33570310  1
  Fe  Fe3  1  1.00263305  0.33650329  0.00316563  1
  Fe  Fe4  1  0.17098411  0.50273061  0.16787495  1
  Cr  Cr5  1  0.00359421  0.33542814  0.33615646  1
  Fe  Fe6  1  0.00436137  0.66959643  0.00322991  1
  Fe  Fe7  1  0.16954069  0.83682029  0.16863010  1
  Cr  Cr8  1  1.00172010  0.67016503  0.33510005  1
  Fe  Fe9  1  0.33599151  1.00268907  1.00293515  1
  Fe  Fe10  1  0.50321436  0.17042974  0.17040447  1
  Fe  Fe11  1  0.33613044  0.00368077  0.33660216  1
  Fe  Fe12  1  0.33572781  0.33609329  1.00270041  1
  Fe  Fe13  1  0.50244995  0.50203307  0.17058349  1
  Ni  Ni14  1  0.33793523  0.33573569  0.33651644  1
  Fe  Fe15  1  0.33406200  0.67006574  1.00215725  1
  Fe  Fe16  1  0.50275769  0.83638375  0.17031596  1
  Fe  Fe17  1  0.33752057  0.66913950  0.33664171  1
  Fe  Fe18  1  0.67001640  0.00441797  1.00237307  1
  Fe  Fe19  1  0.83585015  0.16898736  0.16844523  1
  Fe  Fe20  1  0.66907344  0.00364832  0.33707267  1
  Fe  Fe21  1  0.67048618  0.33457067  0.00333772  1
  Ni  Ni22  1  0.83585576  0.50235313  0.16807158  1
  Fe  Fe23  1  0.66815909  0.33681212  0.33637900  1
  Cr  Cr24  1  0.67010121  0.66951135  1.00282978  1
  Fe  Fe25  1  0.83654726  0.83758756  0.16932884  1
  Fe  Fe26  1  0.66846282  0.66838658  0.33589869  1
  Fe  Fe27  1  0.17003095  0.17058249  0.50274476  1
  Fe  Fe28  1  1.00196497  1.00288947  0.67010703  1
  Fe  Fe29  1  0.16875605  0.17090773  0.83720413  1
  Fe  Fe30  1  0.17190542  0.50222340  0.50523172  1
  Fe  Fe31  1  0.00358103  0.33672006  0.66945982  1
  Ni  Ni32  1  0.16972227  0.50353606  0.83640123  1
  Fe  Fe33  1  0.16971370  0.83604103  0.50304670  1
  Fe  Fe34  1  0.00361556  0.66923909  0.66936218  1
  Fe  Fe35  1  0.16881717  0.83496926  0.83716794  1
  Ni  Ni36  1  0.50311824  0.16988926  0.50198933  1
  Cr  Cr37  1  0.33710017  0.00375105  0.67001366  1
  Fe  Fe38  1  0.50329150  0.17089971  0.83606946  1
  Fe  Fe39  1  0.50261116  0.50221070  0.50310427  1
  Ni  Ni40  1  0.33572418  0.33848116  0.66943002  1
  Fe  Fe41  1  0.50101998  0.50227392  0.83515871  1
  Fe  Fe42  1  0.50429122  0.83553047  0.50268158  1
  Ni  Ni43  1  0.33622716  0.66706887  0.66948720  1
  Fe  Fe44  1  0.50252886  0.83567426  0.83585339  1
  Fe  Fe45  1  0.83483525  0.16890519  0.50399671  1
  Ni  Ni46  1  0.67156568  1.00245852  0.67049050  1
  Fe  Fe47  1  0.83680397  0.16939530  0.83640777  1
  Ni  Ni48  1  0.83517562  0.50334583  0.50514319  1
  Fe  Fe49  1  0.66852484  0.33603130  0.66912977  1
  Fe  Fe50  1  0.83750956  0.50221310  0.83567007  1
  Fe  Fe51  1  0.83484479  0.83741465  0.50393116  1
  Fe  Fe52  1  0.66877378  0.66964308  0.66954942  1
  Fe  Fe53  1  0.83750624  0.83723779  0.83558596  1
" 