5759,Ni16Fe77Cr6_15,-229.895343227085, 174.485722362309,Ni16Fe77Cr6,"# generated using pymatgen
 data_Cr4Fe41Ni9
_symmetry_space_group_name_H-M   'P 1'
_cell_length_a   7.42041731
_cell_length_b   7.42041731
_cell_length_c   10.49405480
_cell_angle_alpha   90.00000000
_cell_angle_beta   90.00000000
_cell_angle_gamma   90.00000000
_symmetry_Int_Tables_number   1
_chemical_formula_structural   Cr4Fe41Ni9
_chemical_formula_sum   'Cr4 Fe41 Ni9'
_cell_volume   577.82986877
_cell_formula_units_Z   1
loop_
 _symmetry_equiv_pos_site_id
 _symmetry_equiv_pos_as_xyz
  1  'x, y, z'
loop_
 _atom_site_type_symbol
 _atom_site_label
 _atom_site_symmetry_multiplicity
 _atom_site_fract_x
 _atom_site_fract_y
 _atom_site_fract_z
 _atom_site_occupancy
  Fe  Fe0  1  1.00230174  1.00269539  1.00293884  1
  Ni  Ni1  1  0.17034848  0.17056707  0.17054255  1
  Fe  Fe2  1  1.00291250  0.00570625  0.33637761  1
  Fe  Fe3  1  1.00286929  0.33519704  0.00373774  1
  Fe  Fe4  1  0.17023943  0.50264990  0.16975339  1
  Fe  Fe5  1  0.00488524  0.33535523  0.33630143  1
  Fe  Fe6  1  1.00181577  0.67199385  0.00348220  1
  Fe  Fe7  1  0.16984024  0.83837197  0.16800165  1
  Cr  Cr8  1  0.00348060  0.67190770  0.33662464  1
  Fe  Fe9  1  0.33627881  0.00339250  0.00329912  1
  Fe  Fe10  1  0.50204958  0.16781558  0.16866929  1
  Fe  Fe11  1  0.33609264  0.00385314  0.33605691  1
  Fe  Fe12  1  0.33703945  0.33545878  0.00357358  1
  Fe  Fe13  1  0.50169229  0.50402956  0.16801897  1
  Ni  Ni14  1  0.33726381  0.33672548  0.33586247  1
  Fe  Fe15  1  0.33702950  0.67069952  1.00153794  1
  Fe  Fe16  1  0.50276327  0.83759920  0.16936670  1
  Fe  Fe17  1  0.33819259  0.66877819  0.33721822  1
  Ni  Ni18  1  0.67095887  0.00316084  0.00315611  1
  Fe  Fe19  1  0.83797959  0.16797166  0.16840413  1
  Fe  Fe20  1  0.66984536  1.00145107  0.33551461  1
  Fe  Fe21  1  0.66979278  0.33585900  1.00312558  1
  Fe  Fe22  1  0.83743489  0.50322785  0.16805416  1
  Cr  Cr23  1  0.66975957  0.33514495  0.33505001  1
  Fe  Fe24  1  0.67044282  0.67123981  1.00282833  1
  Ni  Ni25  1  0.83531329  0.83700817  0.17002412  1
  Fe  Fe26  1  0.66805340  0.67074307  0.33588604  1
  Fe  Fe27  1  0.16896269  0.16912335  0.50189165  1
  Ni  Ni28  1  1.00215146  1.00271304  0.67022039  1
  Fe  Fe29  1  0.16843976  0.16850966  0.83784745  1
  Ni  Ni30  1  0.16975960  0.50141753  0.50216965  1
  Fe  Fe31  1  1.00268756  0.33612002  0.66959761  1
  Fe  Fe32  1  0.16797996  0.50461064  0.83795969  1
  Fe  Fe33  1  0.16946199  0.83811141  0.50429545  1
  Fe  Fe34  1  1.00245177  0.67012709  0.66950941  1
  Ni  Ni35  1  0.16812850  0.83800601  0.83702593  1
  Fe  Fe36  1  0.50219760  0.16848749  0.50269772  1
  Fe  Fe37  1  0.33499904  1.00300908  0.67042692  1
  Fe  Fe38  1  0.50443635  0.16748503  0.83792313  1
  Fe  Fe39  1  0.50345388  0.50369901  0.50282822  1
  Cr  Cr40  1  0.33714102  0.33587141  0.67094998  1
  Ni  Ni41  1  0.50465984  0.50175368  0.83731865  1
  Fe  Fe42  1  0.50332147  0.83694310  0.50215831  1
  Cr  Cr43  1  0.33564834  0.66995458  0.67035647  1
  Fe  Fe44  1  0.50399700  0.83647976  0.83775638  1
  Fe  Fe45  1  0.83791819  0.16929751  0.50440589  1
  Fe  Fe46  1  0.66931664  1.00296852  0.67067048  1
  Fe  Fe47  1  0.83639213  0.16887609  0.83638021  1
  Fe  Fe48  1  0.83699696  0.50289279  0.50444810  1
  Fe  Fe49  1  0.67168068  0.33620550  0.67008467  1
  Fe  Fe50  1  0.83682017  0.50437641  0.83674634  1
  Fe  Fe51  1  0.83611316  0.83723998  0.50411610  1
  Fe  Fe52  1  0.67113540  0.66995397  0.67058957  1
  Ni  Ni53  1  0.83674252  0.83683403  0.83588872  1
" 