5948,Ni16Fe77Cr6_4,-229.750046690645, 168.848636213323,Ni16Fe77Cr6,"# generated using pymatgen
 data_Cr4Fe41Ni9
_symmetry_space_group_name_H-M   'P 1'
_cell_length_a   7.42532364
_cell_length_b   7.42532364
_cell_length_c   10.50099340
_cell_angle_alpha   90.00000000
_cell_angle_beta   90.00000000
_cell_angle_gamma   90.00000000
_symmetry_Int_Tables_number   1
_chemical_formula_structural   Cr4Fe41Ni9
_chemical_formula_sum   'Cr4 Fe41 Ni9'
_cell_volume   578.97679930
_cell_formula_units_Z   1
loop_
 _symmetry_equiv_pos_site_id
 _symmetry_equiv_pos_as_xyz
  1  'x, y, z'
loop_
 _atom_site_type_symbol
 _atom_site_label
 _atom_site_symmetry_multiplicity
 _atom_site_fract_x
 _atom_site_fract_y
 _atom_site_fract_z
 _atom_site_occupancy
  Fe  Fe0  1  1.00215025  0.00365116  0.00318817  1
  Fe  Fe1  1  0.17048958  0.17091550  0.16947229  1
  Cr  Cr2  1  1.00224193  1.00102542  0.33606938  1
  Fe  Fe3  1  1.00201510  0.33571750  0.00293191  1
  Fe  Fe4  1  0.16877045  0.50173119  0.16924377  1
  Fe  Fe5  1  0.00385787  0.33788910  0.33541626  1
  Fe  Fe6  1  1.00241516  0.66905817  1.00271574  1
  Fe  Fe7  1  0.16923715  0.83577534  0.16803487  1
  Ni  Ni8  1  1.00147163  0.66859242  0.33629877  1
  Fe  Fe9  1  0.33649875  0.00314223  1.00259408  1
  Fe  Fe10  1  0.50360176  0.17021479  0.16970749  1
  Fe  Fe11  1  0.33728269  0.00451426  0.33646897  1
  Fe  Fe12  1  0.33616074  0.33575701  0.00421285  1
  Ni  Ni13  1  0.50299132  0.50256119  0.16872975  1
  Ni  Ni14  1  0.33701301  0.33494206  0.33611963  1
  Fe  Fe15  1  0.33626876  0.66953223  0.00390817  1
  Fe  Fe16  1  0.50418026  0.83714721  0.16888112  1
  Cr  Cr17  1  0.33480877  0.66845915  0.33688072  1
  Fe  Fe18  1  0.66978166  0.00353869  0.00347009  1
  Ni  Ni19  1  0.83594899  0.16960819  0.16855695  1
  Ni  Ni20  1  0.66801432  0.00296792  0.33508089  1
  Ni  Ni21  1  0.66969953  0.33485727  0.00348926  1
  Fe  Fe22  1  0.83570897  0.50231540  0.16934028  1
  Fe  Fe23  1  0.66869014  0.33691843  0.33433408  1
  Fe  Fe24  1  0.66974322  0.66939390  0.00367534  1
  Fe  Fe25  1  0.83500221  0.83542789  0.16982770  1
  Fe  Fe26  1  0.67100248  0.66973424  0.33622598  1
  Ni  Ni27  1  0.17167870  0.17030109  0.50307818  1
  Fe  Fe28  1  0.00359220  1.00165552  0.66964164  1
  Fe  Fe29  1  0.16976943  0.16961448  0.83557876  1
  Fe  Fe30  1  0.16777789  0.50213057  0.50334853  1
  Fe  Fe31  1  0.00383457  0.33705431  0.67008048  1
  Fe  Fe32  1  0.16773874  0.50317600  0.83583883  1
  Fe  Fe33  1  0.16824746  0.83627103  0.50437473  1
  Ni  Ni34  1  0.00301326  0.66980463  0.66934538  1
  Fe  Fe35  1  0.16948835  0.83563781  0.83602243  1
  Fe  Fe36  1  0.50128624  0.16894006  0.50241948  1
  Fe  Fe37  1  0.33536531  1.00257299  0.66936479  1
  Fe  Fe38  1  0.50308026  0.16823134  0.83629931  1
  Fe  Fe39  1  0.50342391  0.50152847  0.50306301  1
  Fe  Fe40  1  0.33465276  0.33566846  0.66793015  1
  Cr  Cr41  1  0.50247973  0.50338572  0.83632773  1
  Fe  Fe42  1  0.50403063  0.83795638  0.50340481  1
  Fe  Fe43  1  0.33505978  0.67019220  0.66880218  1
  Fe  Fe44  1  0.50268937  0.83769840  0.83614386  1
  Cr  Cr45  1  0.83703729  0.16894809  0.50320851  1
  Fe  Fe46  1  0.66947359  1.00124645  0.66947928  1
  Fe  Fe47  1  0.83558033  0.16997637  0.83685062  1
  Fe  Fe48  1  0.83722723  0.50488442  0.50303095  1
  Fe  Fe49  1  0.66994960  0.33674616  0.67020287  1
  Fe  Fe50  1  0.83763330  0.50278377  0.83605829  1
  Ni  Ni51  1  0.83544781  0.83382881  0.50314772  1
  Fe  Fe52  1  0.67086105  0.67043011  0.66852686  1
  Fe  Fe53  1  0.83625143  0.83566542  0.83527300  1
" 