8528,Ni16Fe84_19,-242.766027956098, 202.735819887149,Ni16Fe84,"# generated using pymatgen
 data_Fe4Ni23
_symmetry_space_group_name_H-M   'P 1'
_cell_length_a   7.43376703
_cell_length_b   7.43376703
_cell_length_c   10.51293416
_cell_angle_alpha   90.00000000
_cell_angle_beta   90.00000000
_cell_angle_gamma   90.00000000
_symmetry_Int_Tables_number   1
_chemical_formula_structural   Fe4Ni23
_chemical_formula_sum   'Fe8 Ni46'
_cell_volume   580.95412222
_cell_formula_units_Z   2
loop_
 _symmetry_equiv_pos_site_id
 _symmetry_equiv_pos_as_xyz
  1  'x, y, z'
loop_
 _atom_site_type_symbol
 _atom_site_label
 _atom_site_symmetry_multiplicity
 _atom_site_fract_x
 _atom_site_fract_y
 _atom_site_fract_z
 _atom_site_occupancy
  Ni  Ni0  1  1.00217831  1.00206301  1.00204165  1
  Ni  Ni1  1  0.16987645  0.16737749  0.16932324  1
  Ni  Ni2  1  0.00234940  1.00173570  0.33569892  1
  Ni  Ni3  1  1.00161597  0.33545786  0.00337952  1
  Fe  Fe4  1  0.16801614  0.50156498  0.16929585  1
  Ni  Ni5  1  1.00079956  0.33514566  0.33574985  1
  Ni  Ni6  1  1.00211011  0.66896600  0.00225295  1
  Ni  Ni7  1  0.16849769  0.83646094  0.16763232  1
  Ni  Ni8  1  0.00264216  0.66973980  0.33563327  1
  Ni  Ni9  1  0.33566460  1.00213058  0.00228657  1
  Ni  Ni10  1  0.50154250  0.17037906  0.16826751  1
  Ni  Ni11  1  0.33577222  1.00132357  0.33575340  1
  Ni  Ni12  1  0.33578413  0.33551853  0.00286797  1
  Ni  Ni13  1  0.50285300  0.50150112  0.16782895  1
  Ni  Ni14  1  0.33697666  0.33574985  0.33554797  1
  Ni  Ni15  1  0.33531976  0.66923183  0.00256140  1
  Fe  Fe16  1  0.50229339  0.83633346  0.16768301  1
  Ni  Ni17  1  0.33580981  0.66967923  0.33536771  1
  Ni  Ni18  1  0.66919005  0.00251672  0.00294919  1
  Ni  Ni19  1  0.83528659  0.16893528  0.16816413  1
  Fe  Fe20  1  0.66945792  0.00351006  0.33539381  1
  Ni  Ni21  1  0.66919966  0.33551761  1.00129115  1
  Ni  Ni22  1  0.83354218  0.50280732  0.16892744  1
  Ni  Ni23  1  0.66876865  0.33532770  0.33570017  1
  Ni  Ni24  1  0.66900381  0.66881077  0.00279181  1
  Ni  Ni25  1  0.83679278  0.83490801  0.16828126  1
  Fe  Fe26  1  0.66898210  0.66778968  0.33556298  1
  Ni  Ni27  1  0.16987781  0.16831691  0.50191993  1
  Ni  Ni28  1  1.00208031  1.00196141  0.66887768  1
  Ni  Ni29  1  0.17052251  0.16904066  0.83547697  1
  Ni  Ni30  1  0.16955932  0.50247578  0.50154385  1
  Ni  Ni31  1  1.00202617  0.33587453  0.66759721  1
  Ni  Ni32  1  0.16822982  0.50146444  0.83626396  1
  Ni  Ni33  1  0.16825363  0.83591081  0.50356571  1
  Ni  Ni34  1  0.00231790  0.66874161  0.66891903  1
  Ni  Ni35  1  0.16917293  0.83618008  0.83548225  1
  Ni  Ni36  1  0.50181971  0.16988672  0.50259043  1
  Ni  Ni37  1  0.33570979  1.00207937  0.66867500  1
  Fe  Fe38  1  0.50197036  0.16814736  0.83551230  1
  Ni  Ni39  1  0.50253256  0.50128954  0.50334621  1
  Ni  Ni40  1  0.33559883  0.33576470  0.66834162  1
  Fe  Fe41  1  0.50121677  0.50398340  0.83561011  1
  Fe  Fe42  1  0.50158122  0.83554623  0.50352818  1
  Ni  Ni43  1  0.33515455  0.66899256  0.66902057  1
  Ni  Ni44  1  0.50289904  0.83611872  0.83587549  1
  Ni  Ni45  1  0.83498955  0.16865157  0.50269702  1
  Ni  Ni46  1  0.66910641  0.00225329  0.66828868  1
  Fe  Fe47  1  0.83744029  0.16803062  0.83550993  1
  Ni  Ni48  1  0.83464767  0.50284254  0.50226315  1
  Ni  Ni49  1  0.66915757  0.33554998  0.66957046  1
  Ni  Ni50  1  0.83482197  0.50294539  0.83548093  1
  Ni  Ni51  1  0.83622398  0.83516258  0.50250889  1
  Ni  Ni52  1  0.66901092  0.66890890  0.66830259  1
  Ni  Ni53  1  0.83463035  0.83427600  0.83587540  1
" 