8687,Ni16Fe77Cr6_5,-229.702066735293, 177.725103072201,Ni16Fe77Cr6,"# generated using pymatgen
 data_Cr4Fe41Ni9
_symmetry_space_group_name_H-M   'P 1'
_cell_length_a   7.41938884
_cell_length_b   7.41938884
_cell_length_c   10.49260032
_cell_angle_alpha   90.00000000
_cell_angle_beta   90.00000000
_cell_angle_gamma   90.00000000
_symmetry_Int_Tables_number   1
_chemical_formula_structural   Cr4Fe41Ni9
_chemical_formula_sum   'Cr4 Fe41 Ni9'
_cell_volume   577.58963938
_cell_formula_units_Z   1
loop_
 _symmetry_equiv_pos_site_id
 _symmetry_equiv_pos_as_xyz
  1  'x, y, z'
loop_
 _atom_site_type_symbol
 _atom_site_label
 _atom_site_symmetry_multiplicity
 _atom_site_fract_x
 _atom_site_fract_y
 _atom_site_fract_z
 _atom_site_occupancy
  Fe  Fe0  1  0.00328764  0.00574858  0.00481598  1
  Fe  Fe1  1  0.17172280  0.16838912  0.16954117  1
  Ni  Ni2  1  0.00334360  1.00221256  0.33610994  1
  Fe  Fe3  1  1.00268477  0.33622790  1.00265375  1
  Fe  Fe4  1  0.16885524  0.50492907  0.16831210  1
  Cr  Cr5  1  1.00252922  0.33687158  0.33624925  1
  Fe  Fe6  1  0.00393244  0.66776199  0.00421187  1
  Fe  Fe7  1  0.16864916  0.83637140  0.16989995  1
  Ni  Ni8  1  1.00318153  0.67085951  0.33574104  1
  Fe  Fe9  1  0.33644593  0.00479372  1.00154084  1
  Fe  Fe10  1  0.50328524  0.16999100  0.16973912  1
  Fe  Fe11  1  0.33394426  0.00382964  0.33827735  1
  Fe  Fe12  1  0.33640116  0.33590600  1.00114518  1
  Cr  Cr13  1  0.50158585  0.50187426  0.17156061  1
  Fe  Fe14  1  0.33537652  0.33533563  0.33916482  1
  Fe  Fe15  1  0.33575710  0.66887186  1.00109072  1
  Cr  Cr16  1  0.50460456  0.83643880  0.17054507  1
  Fe  Fe17  1  0.33264124  0.67018526  0.33856775  1
  Fe  Fe18  1  0.66994030  0.00656923  1.00285369  1
  Fe  Fe19  1  0.83482746  0.16880602  0.16801039  1
  Fe  Fe20  1  0.67297499  0.00410167  0.33784902  1
  Ni  Ni21  1  0.67009790  0.33631868  1.00183133  1
  Fe  Fe22  1  0.83645282  0.50470886  0.16857211  1
  Fe  Fe23  1  0.67056957  0.33507338  0.33694198  1
  Fe  Fe24  1  0.67004123  0.66757319  1.00175697  1
  Fe  Fe25  1  0.83868698  0.83615626  0.17053552  1
  Fe  Fe26  1  0.67348298  0.67017144  0.33897715  1
  Fe  Fe27  1  0.17036849  0.16774988  0.50444469  1
  Fe  Fe28  1  0.00481978  0.00468683  0.66795664  1
  Fe  Fe29  1  0.16985327  0.17055121  0.83559811  1
  Fe  Fe30  1  0.16983254  0.50482913  0.50494410  1
  Fe  Fe31  1  0.00501180  0.33596512  0.67035128  1
  Ni  Ni32  1  0.17138998  0.50219842  0.83649657  1
  Fe  Fe33  1  0.16894064  0.83705676  0.50314139  1
  Fe  Fe34  1  0.00549907  0.66924978  0.66837673  1
  Fe  Fe35  1  0.17132290  0.83624393  0.83638394  1
  Fe  Fe36  1  0.50302051  0.16918667  0.50385229  1
  Ni  Ni37  1  0.33691433  1.00286652  0.67078933  1
  Fe  Fe38  1  0.50350033  0.17120540  0.83614539  1
  Fe  Fe39  1  0.50364920  0.50320210  0.50387324  1
  Ni  Ni40  1  0.33700660  0.33562083  0.67000888  1
  Ni  Ni41  1  0.50151579  0.50298211  0.83609035  1
  Fe  Fe42  1  0.50332357  0.83716160  0.50325431  1
  Fe  Fe43  1  0.33665801  0.66931405  0.67066388  1
  Fe  Fe44  1  0.50105571  0.83638956  0.83666155  1
  Fe  Fe45  1  0.83623707  0.16832576  0.50471523  1
  Fe  Fe46  1  0.66804686  0.00455656  0.66858978  1
  Ni  Ni47  1  0.83757197  0.16951102  0.83522697  1
  Fe  Fe48  1  0.83606606  0.50547507  0.50394136  1
  Fe  Fe49  1  0.66835361  0.33585448  0.67147806  1
  Fe  Fe50  1  0.83670011  0.50087964  0.83652807  1
  Ni  Ni51  1  0.83729565  0.83768829  0.50226222  1
  Fe  Fe52  1  0.66743704  0.66958320  0.66879640  1
  Cr  Cr53  1  0.83674231  0.83902516  0.83637027  1
" 