3333,Ni16Fe84_4,-242.856111097832, 203.402512547147,Ni16Fe84,"# generated using pymatgen
 data_Fe4Ni23
_symmetry_space_group_name_H-M   'P 1'
_cell_length_a   7.43230376
_cell_length_b   7.43230376
_cell_length_c   10.51086478
_cell_angle_alpha   90.00000000
_cell_angle_beta   90.00000000
_cell_angle_gamma   90.00000000
_symmetry_Int_Tables_number   1
_chemical_formula_structural   Fe4Ni23
_chemical_formula_sum   'Fe8 Ni46'
_cell_volume   580.61112341
_cell_formula_units_Z   2
loop_
 _symmetry_equiv_pos_site_id
 _symmetry_equiv_pos_as_xyz
  1  'x, y, z'
loop_
 _atom_site_type_symbol
 _atom_site_label
 _atom_site_symmetry_multiplicity
 _atom_site_fract_x
 _atom_site_fract_y
 _atom_site_fract_z
 _atom_site_occupancy
  Ni  Ni0  1  0.00236524  1.00129070  1.00214591  1
  Ni  Ni1  1  0.17008015  0.16866498  0.16879989  1
  Ni  Ni2  1  0.00287073  1.00196069  0.33596151  1
  Fe  Fe3  1  0.00287692  0.33620025  1.00233016  1
  Ni  Ni4  1  0.16864044  0.50196491  0.16911019  1
  Ni  Ni5  1  1.00138306  0.33520141  0.33569406  1
  Ni  Ni6  1  1.00200966  0.67011970  0.00244062  1
  Ni  Ni7  1  0.16829005  0.83638405  0.16875927  1
  Ni  Ni8  1  1.00164035  0.66985064  0.33587501  1
  Ni  Ni9  1  0.33525477  0.00256759  1.00218604  1
  Ni  Ni10  1  0.50126440  0.16934045  0.16930694  1
  Ni  Ni11  1  0.33498599  1.00227088  0.33562086  1
  Ni  Ni12  1  0.33703668  0.33553280  1.00214454  1
  Ni  Ni13  1  0.50305219  0.50163492  0.16875913  1
  Ni  Ni14  1  0.33675776  0.33516337  0.33617224  1
  Ni  Ni15  1  0.33551872  0.66890433  0.00248965  1
  Ni  Ni16  1  0.50272438  0.83603525  0.16840736  1
  Ni  Ni17  1  0.33619469  0.66958087  0.33550412  1
  Ni  Ni18  1  0.66939002  0.00277509  0.00246628  1
  Fe  Fe19  1  0.83567413  0.16899753  0.16950542  1
  Fe  Fe20  1  0.66873163  1.00200692  0.33550774  1
  Ni  Ni21  1  0.66820801  0.33588917  0.00244331  1
  Ni  Ni22  1  0.83532454  0.50342067  0.16879563  1
  Ni  Ni23  1  0.66886877  0.33639116  0.33566518  1
  Ni  Ni24  1  0.66947341  0.66835068  1.00195312  1
  Ni  Ni25  1  0.83599646  0.83459533  0.16930593  1
  Ni  Ni26  1  0.66917945  0.66807580  0.33585167  1
  Ni  Ni27  1  0.16933953  0.16818687  0.50260415  1
  Ni  Ni28  1  0.00264468  1.00177458  0.66890675  1
  Ni  Ni29  1  0.17030992  0.16844550  0.83561180  1
  Fe  Fe30  1  0.16900197  0.50239468  0.50239360  1
  Ni  Ni31  1  1.00116820  0.33543204  0.66924067  1
  Ni  Ni32  1  0.16886188  0.50214739  0.83537666  1
  Ni  Ni33  1  0.16848073  0.83680055  0.50223627  1
  Ni  Ni34  1  1.00227324  0.66981207  0.66869356  1
  Ni  Ni35  1  0.16764415  0.83642133  0.83601732  1
  Ni  Ni36  1  0.50153899  0.16969064  0.50223609  1
  Ni  Ni37  1  0.33511019  1.00215025  0.66920998  1
  Ni  Ni38  1  0.50123611  0.16995057  0.83546855  1
  Ni  Ni39  1  0.50332054  0.50171574  0.50219383  1
  Ni  Ni40  1  0.33694091  0.33539061  0.66869282  1
  Ni  Ni41  1  0.50295104  0.50088943  0.83605197  1
  Ni  Ni42  1  0.50206553  0.83560076  0.50271879  1
  Ni  Ni43  1  0.33544799  0.66946665  0.66902082  1
  Fe  Fe44  1  0.50129944  0.83515981  0.83621258  1
  Ni  Ni45  1  0.83612785  0.16941126  0.50252912  1
  Fe  Fe46  1  0.66899801  0.00286605  0.66898048  1
  Fe  Fe47  1  0.83611532  0.16950897  0.83511932  1
  Ni  Ni48  1  0.83495029  0.50257650  0.50248814  1
  Ni  Ni49  1  0.66890572  0.33576358  0.66890611  1
  Ni  Ni50  1  0.83520532  0.50355345  0.83572343  1
  Ni  Ni51  1  0.83646510  0.83501697  0.50219066  1
  Fe  Fe52  1  0.66930995  0.66821190  0.66868557  1
  Ni  Ni53  1  0.83671188  0.83470882  0.83550628  1
" 