8792,Ni16Fe77Cr6_8,-230.210856066015, 173.454660999239,Ni16Fe77Cr6,"# generated using pymatgen
 data_Cr4Fe41Ni9
_symmetry_space_group_name_H-M   'P 1'
_cell_length_a   7.42899506
_cell_length_b   7.42899506
_cell_length_c   10.50618557
_cell_angle_alpha   90.00000000
_cell_angle_beta   90.00000000
_cell_angle_gamma   90.00000000
_symmetry_Int_Tables_number   1
_chemical_formula_structural   Cr4Fe41Ni9
_chemical_formula_sum   'Cr4 Fe41 Ni9'
_cell_volume   579.83604154
_cell_formula_units_Z   1
loop_
 _symmetry_equiv_pos_site_id
 _symmetry_equiv_pos_as_xyz
  1  'x, y, z'
loop_
 _atom_site_type_symbol
 _atom_site_label
 _atom_site_symmetry_multiplicity
 _atom_site_fract_x
 _atom_site_fract_y
 _atom_site_fract_z
 _atom_site_occupancy
  Fe  Fe0  1  1.00228958  1.00182138  0.00348169  1
  Fe  Fe1  1  0.16886792  0.16957589  0.16863207  1
  Ni  Ni2  1  0.00288837  1.00161897  0.33655224  1
  Fe  Fe3  1  0.00443261  0.33673860  1.00078656  1
  Fe  Fe4  1  0.16853192  0.50269407  0.16964211  1
  Fe  Fe5  1  0.00316153  0.33502802  0.33732981  1
  Ni  Ni6  1  0.00275564  0.66897108  1.00198293  1
  Fe  Fe7  1  0.16806554  0.83563590  0.16888482  1
  Ni  Ni8  1  1.00066733  0.66856529  0.33648984  1
  Ni  Ni9  1  0.33471553  0.00293289  0.00317711  1
  Ni  Ni10  1  0.50234537  0.16919882  0.17003561  1
  Cr  Cr11  1  0.33549279  0.00386912  0.33815918  1
  Fe  Fe12  1  0.33400326  0.33684748  0.00325765  1
  Fe  Fe13  1  0.50080457  0.50161152  0.17148533  1
  Fe  Fe14  1  0.33423739  0.33748271  0.33676170  1
  Fe  Fe15  1  0.33395016  0.66969987  0.00263662  1
  Fe  Fe16  1  0.50159458  0.83702420  0.16911773  1
  Fe  Fe17  1  0.33345094  0.66890115  0.33646561  1
  Fe  Fe18  1  0.66953964  1.00150265  0.00391350  1
  Fe  Fe19  1  0.83669904  0.16839639  0.17065042  1
  Fe  Fe20  1  0.67198047  1.00217358  0.33598078  1
  Cr  Cr21  1  0.67048534  0.33641162  1.00131419  1
  Fe  Fe22  1  0.83828857  0.50180748  0.17026266  1
  Fe  Fe23  1  0.67040864  0.33527972  0.33533557  1
  Cr  Cr24  1  0.67028986  0.66846379  1.00251622  1
  Fe  Fe25  1  0.83746642  0.83666210  0.17082195  1
  Fe  Fe26  1  0.66961984  0.67027442  0.33582811  1
  Fe  Fe27  1  0.16770461  0.17044952  0.50459394  1
  Fe  Fe28  1  0.00431306  0.00406926  0.66770664  1
  Fe  Fe29  1  0.16742490  0.16924895  0.83451612  1
  Fe  Fe30  1  0.16850285  0.50222302  0.50286477  1
  Ni  Ni31  1  1.00187203  0.33708573  0.66941263  1
  Fe  Fe32  1  0.16916750  0.50191485  0.83518052  1
  Fe  Fe33  1  0.16729468  0.83451846  0.50303087  1
  Fe  Fe34  1  0.00429602  0.66906254  0.66937148  1
  Fe  Fe35  1  0.16924730  0.83636575  0.83627577  1
  Fe  Fe36  1  0.50344265  0.17071445  0.50372197  1
  Ni  Ni37  1  0.33576355  1.00184977  0.66740047  1
  Cr  Cr38  1  0.50110820  0.16775797  0.83454914  1
  Fe  Fe39  1  0.50225302  0.50223127  0.50263254  1
  Ni  Ni40  1  0.33505945  0.33469628  0.66830344  1
  Fe  Fe41  1  0.50135101  0.50372444  0.83314679  1
  Fe  Fe42  1  0.50353930  0.83462039  0.50423202  1
  Fe  Fe43  1  0.33465067  0.66818898  0.66852663  1
  Fe  Fe44  1  0.50150327  0.83469283  0.83466953  1
  Fe  Fe45  1  0.83671668  0.16931846  0.50236299  1
  Fe  Fe46  1  0.66999472  0.00313586  0.66772308  1
  Fe  Fe47  1  0.83860500  0.16926379  0.83410678  1
  Fe  Fe48  1  0.83624159  0.50288711  0.50344286  1
  Fe  Fe49  1  0.66964549  0.33645146  0.66908413  1
  Ni  Ni50  1  0.83887040  0.50395715  0.83347140  1
  Fe  Fe51  1  0.83658836  0.83563537  0.50191116  1
  Fe  Fe52  1  0.66897975  0.66831492  0.66976728  1
  Fe  Fe53  1  0.83712958  0.83673115  0.83479149  1
" 