7421,Ni16Fe77Cr6_14,-229.47341921063, 175.367043408721,Ni16Fe77Cr6,"# generated using pymatgen
 data_Cr4Fe41Ni9
_symmetry_space_group_name_H-M   'P 1'
_cell_length_a   7.41687808
_cell_length_b   7.41687808
_cell_length_c   10.48904957
_cell_angle_alpha   90.00000000
_cell_angle_beta   90.00000000
_cell_angle_gamma   90.00000000
_symmetry_Int_Tables_number   1
_chemical_formula_structural   Cr4Fe41Ni9
_chemical_formula_sum   'Cr4 Fe41 Ni9'
_cell_volume   577.00346015
_cell_formula_units_Z   1
loop_
 _symmetry_equiv_pos_site_id
 _symmetry_equiv_pos_as_xyz
  1  'x, y, z'
loop_
 _atom_site_type_symbol
 _atom_site_label
 _atom_site_symmetry_multiplicity
 _atom_site_fract_x
 _atom_site_fract_y
 _atom_site_fract_z
 _atom_site_occupancy
  Fe  Fe0  1  0.00523521  0.00362286  0.00344265  1
  Fe  Fe1  1  0.16980701  0.17029728  0.17021592  1
  Fe  Fe2  1  0.00566966  1.00316037  0.33714205  1
  Fe  Fe3  1  1.00318255  0.33695829  1.00322626  1
  Fe  Fe4  1  0.16954733  0.50332244  0.17001367  1
  Fe  Fe5  1  0.00464210  0.33549981  0.33575482  1
  Fe  Fe6  1  1.00296037  0.66956194  0.00358318  1
  Fe  Fe7  1  0.16928519  0.83653120  0.17069131  1
  Fe  Fe8  1  0.00442462  0.67148469  0.33598820  1
  Fe  Fe9  1  0.33515260  0.00385656  0.00379368  1
  Fe  Fe10  1  0.50212032  0.17179067  0.17028046  1
  Ni  Ni11  1  0.33553203  0.00390396  0.33680749  1
  Ni  Ni12  1  0.33590678  0.33798617  1.00323538  1
  Fe  Fe13  1  0.50392933  0.50338390  0.17007715  1
  Ni  Ni14  1  0.33583949  0.33767430  0.33727526  1
  Fe  Fe15  1  0.33691457  0.66984402  1.00319002  1
  Fe  Fe16  1  0.50270849  0.83497108  0.17015244  1
  Fe  Fe17  1  0.33668301  0.67044927  0.33710316  1
  Cr  Cr18  1  0.67145530  1.00269310  1.00326444  1
  Fe  Fe19  1  0.83822208  0.17151747  0.17001391  1
  Cr  Cr20  1  0.67132013  1.00223063  0.33774534  1
  Fe  Fe21  1  0.67003857  0.33871951  1.00334744  1
  Ni  Ni22  1  0.83577214  0.50373464  0.16975195  1
  Fe  Fe23  1  0.66851408  0.33726060  0.33569752  1
  Fe  Fe24  1  0.67027002  0.66779514  0.00370580  1
  Ni  Ni25  1  0.83834992  0.83413018  0.17001366  1
  Fe  Fe26  1  0.66903837  0.66942046  0.33556817  1
  Fe  Fe27  1  0.17059558  0.17010379  0.50207251  1
  Cr  Cr28  1  1.00084562  1.00259346  0.66919987  1
  Fe  Fe29  1  0.17056107  0.17160446  0.83785661  1
  Fe  Fe30  1  0.17134802  0.50409240  0.50324267  1
  Fe  Fe31  1  1.00330435  0.33722924  0.67116535  1
  Fe  Fe32  1  0.16982237  0.50308552  0.83689156  1
  Ni  Ni33  1  0.17131608  0.83749497  0.50209523  1
  Fe  Fe34  1  0.00343817  0.66999493  0.67057370  1
  Fe  Fe35  1  0.17039168  0.83545630  0.83701985  1
  Fe  Fe36  1  0.50258878  0.16979746  0.50392756  1
  Fe  Fe37  1  0.33849826  1.00308660  0.66940660  1
  Fe  Fe38  1  0.50309941  0.17124759  0.83594089  1
  Fe  Fe39  1  0.50153860  0.50409698  0.50312199  1
  Fe  Fe40  1  0.33705232  0.33607304  0.67008262  1
  Fe  Fe41  1  0.50354179  0.50314794  0.83694875  1
  Fe  Fe42  1  0.50282373  0.83625344  0.50429152  1
  Fe  Fe43  1  0.33675445  0.67098878  0.66985113  1
  Fe  Fe44  1  0.50333525  0.83575104  0.83570361  1
  Fe  Fe45  1  0.83695684  0.16882935  0.50380408  1
  Ni  Ni46  1  0.66979265  1.00274605  0.66954702  1
  Fe  Fe47  1  0.83648123  0.17181762  0.83632708  1
  Cr  Cr48  1  0.83615897  0.50387039  0.50311666  1
  Fe  Fe49  1  0.66978919  0.33547710  0.67110015  1
  Ni  Ni50  1  0.83640673  0.50320742  0.83707449  1
  Ni  Ni51  1  0.83729664  0.83633383  0.50386104  1
  Fe  Fe52  1  0.66995635  0.67144958  0.67087351  1
  Fe  Fe53  1  0.83641902  0.83500458  0.83645709  1
" 