6582,Ni16Fe84_6,-242.84970681099, 203.219173174932,Ni16Fe84,"# generated using pymatgen
 data_Fe4Ni23
_symmetry_space_group_name_H-M   'P 1'
_cell_length_a   7.43432851
_cell_length_b   7.43432851
_cell_length_c   10.51372821
_cell_angle_alpha   90.00000000
_cell_angle_beta   90.00000000
_cell_angle_gamma   90.00000000
_symmetry_Int_Tables_number   1
_chemical_formula_structural   Fe4Ni23
_chemical_formula_sum   'Fe8 Ni46'
_cell_volume   581.08577228
_cell_formula_units_Z   2
loop_
 _symmetry_equiv_pos_site_id
 _symmetry_equiv_pos_as_xyz
  1  'x, y, z'
loop_
 _atom_site_type_symbol
 _atom_site_label
 _atom_site_symmetry_multiplicity
 _atom_site_fract_x
 _atom_site_fract_y
 _atom_site_fract_z
 _atom_site_occupancy
  Ni  Ni0  1  1.00210026  1.00205088  1.00180062  1
  Ni  Ni1  1  0.16813342  0.16833615  0.16907159  1
  Ni  Ni2  1  1.00215176  1.00214732  0.33577832  1
  Ni  Ni3  1  1.00175007  0.33528811  1.00139121  1
  Fe  Fe4  1  0.16938567  0.50167505  0.16834985  1
  Ni  Ni5  1  1.00170069  0.33519098  0.33618949  1
  Ni  Ni6  1  1.00210325  0.66926660  1.00164836  1
  Ni  Ni7  1  0.16962394  0.83531683  0.16876946  1
  Ni  Ni8  1  1.00210405  0.66926821  0.33588752  1
  Ni  Ni9  1  0.33573578  1.00200048  1.00185571  1
  Ni  Ni10  1  0.50268661  0.16862962  0.16937323  1
  Ni  Ni11  1  0.33578064  1.00204563  0.33577699  1
  Ni  Ni12  1  0.33603317  0.33527797  1.00144413  1
  Fe  Fe13  1  0.50162197  0.50168133  0.16892866  1
  Ni  Ni14  1  0.33613386  0.33517917  0.33619313  1
  Ni  Ni15  1  0.33572987  0.66931611  1.00169227  1
  Ni  Ni16  1  0.50120136  0.83501389  0.16907156  1
  Ni  Ni17  1  0.33582714  0.66936636  0.33588583  1
  Ni  Ni18  1  0.66876455  0.00235437  1.00156386  1
  Ni  Ni19  1  0.83578190  0.17014639  0.16907156  1
  Ni  Ni20  1  0.66866607  0.00245248  0.33607616  1
  Ni  Ni21  1  0.66881832  0.33528334  1.00199998  1
  Fe  Fe22  1  0.83559415  0.50172361  0.16899038  1
  Ni  Ni23  1  0.66877107  0.33523831  0.33563324  1
  Ni  Ni24  1  0.66876743  0.66896746  1.00141555  1
  Fe  Fe25  1  0.83552639  0.83713169  0.16835042  1
  Ni  Ni26  1  0.66867105  0.66891861  0.33616645  1
  Ni  Ni27  1  0.16813313  0.16791374  0.50145085  1
  Ni  Ni28  1  0.00247422  1.00181701  0.66902178  1
  Ni  Ni29  1  0.16836534  0.16881147  0.83607892  1
  Fe  Fe30  1  0.16938939  0.50174036  0.50266143  1
  Ni  Ni31  1  1.00117893  0.33543733  0.66902160  1
  Ni  Ni32  1  0.16836589  0.50265503  0.83547598  1
  Ni  Ni33  1  0.16962051  0.83578493  0.50169073  1
  Ni  Ni34  1  0.00241627  0.66934838  0.66906587  1
  Ni  Ni35  1  0.16896991  0.83513526  0.83614065  1
  Ni  Ni36  1  0.50230471  0.16916508  0.50134135  1
  Ni  Ni37  1  0.33535820  1.00176767  0.66896891  1
  Ni  Ni38  1  0.50230315  0.16916666  0.83588857  1
  Ni  Ni39  1  0.50350365  0.50283418  0.50140669  1
  Ni  Ni40  1  0.33660931  0.33543362  0.66896290  1
  Ni  Ni41  1  0.50260475  0.50260150  0.83612394  1
  Ni  Ni42  1  0.50075134  0.83460112  0.50159436  1
  Ni  Ni43  1  0.33541557  0.66939731  0.66902177  1
  Ni  Ni44  1  0.50164390  0.83483242  0.83593620  1
  Ni  Ni45  1  0.83616415  0.17066672  0.50164363  1
  Fe  Fe46  1  0.66858878  0.00303050  0.66914087  1
  Ni  Ni47  1  0.83593301  0.16977016  0.83588685  1
  Ni  Ni48  1  0.83498121  0.50135127  0.50170887  1
  Ni  Ni49  1  0.66881701  0.33549371  0.66896881  1
  Ni  Ni50  1  0.83563073  0.50199743  0.83612284  1
  Fe  Fe51  1  0.83556225  0.83599951  0.50211127  1
  Fe  Fe52  1  0.66859280  0.66797741  0.66908277  1
  Ni  Ni53  1  0.83598668  0.83483251  0.83593531  1
" 