2450,Ni16Fe12Cr70_3,-209.994273482743, 176.958049312216,Ni16Fe12Cr70,"# generated using pymatgen
 data_Cr20Fe3Ni4
_symmetry_space_group_name_H-M   'P 1'
_cell_length_a   7.56225012
_cell_length_b   7.56225012
_cell_length_c   10.69463669
_cell_angle_alpha   90.00000000
_cell_angle_beta   90.00000000
_cell_angle_gamma   90.00000000
_symmetry_Int_Tables_number   1
_chemical_formula_structural   Cr20Fe3Ni4
_chemical_formula_sum   'Cr40 Fe6 Ni8'
_cell_volume   611.60089329
_cell_formula_units_Z   2
loop_
 _symmetry_equiv_pos_site_id
 _symmetry_equiv_pos_as_xyz
  1  'x, y, z'
loop_
 _atom_site_type_symbol
 _atom_site_label
 _atom_site_symmetry_multiplicity
 _atom_site_fract_x
 _atom_site_fract_y
 _atom_site_fract_z
 _atom_site_occupancy
  Cr  Cr0  1  -0.00586860  0.99303437  0.99220051  1
  Cr  Cr1  1  0.16192421  0.16069465  0.16136555  1
  Cr  Cr2  1  -0.00457831  -0.00622850  0.32732336  1
  Cr  Cr3  1  -0.00584275  0.32676340  0.99343830  1
  Cr  Cr4  1  0.15971936  0.49399446  0.15983184  1
  Fe  Fe5  1  -0.00624661  0.32621842  0.32690398  1
  Ni  Ni6  1  0.99185394  0.66018789  -0.00583593  1
  Fe  Fe7  1  0.16098827  0.82708895  0.16078752  1
  Cr  Cr8  1  -0.00464099  0.66063484  0.32697938  1
  Cr  Cr9  1  0.32658666  -0.00517795  -0.00569901  1
  Cr  Cr10  1  0.49379337  0.15794769  0.16017389  1
  Ni  Ni11  1  0.32723014  0.99231128  0.32691497  1
  Ni  Ni12  1  0.32754237  0.32655435  0.99169790  1
  Cr  Cr13  1  0.49331387  0.49398464  0.15774680  1
  Cr  Cr14  1  0.32711562  0.32625062  0.32709216  1
  Cr  Cr15  1  0.32713577  0.65999618  -0.00441468  1
  Fe  Fe16  1  0.49470926  0.82870414  0.16039433  1
  Cr  Cr17  1  0.32626897  0.66347889  0.32684116  1
  Ni  Ni18  1  0.65994964  0.99257801  -0.00565575  1
  Cr  Cr19  1  0.82541761  0.15918617  0.16154191  1
  Ni  Ni20  1  0.65848062  -0.00582312  0.32677235  1
  Fe  Fe21  1  0.65917298  0.32739723  -0.00626152  1
  Cr  Cr22  1  0.82810631  0.49490556  0.15913567  1
  Cr  Cr23  1  0.66182187  0.32624061  0.32700511  1
  Ni  Ni24  1  0.66157094  0.66094745  -0.00608938  1
  Cr  Cr25  1  0.82539785  0.82698690  0.15796477  1
  Cr  Cr26  1  0.65945810  0.66028307  0.32792856  1
  Cr  Cr27  1  0.16086975  0.16077971  0.49396911  1
  Cr  Cr28  1  -0.00447512  -0.00514511  0.66160308  1
  Ni  Ni29  1  0.16152584  0.16286646  0.82628194  1
  Cr  Cr30  1  0.15976631  0.49309822  0.49438769  1
  Fe  Fe31  1  -0.00486580  0.32616487  0.66129221  1
  Cr  Cr32  1  0.16070422  0.49115375  0.82688773  1
  Ni  Ni33  1  0.16122394  0.82762861  0.49212831  1
  Cr  Cr34  1  -0.00555149  0.66086525  0.65975401  1
  Cr  Cr35  1  0.15895536  0.82721814  0.82762408  1
  Cr  Cr36  1  0.49297823  0.15868793  0.49252968  1
  Cr  Cr37  1  0.32460143  -0.00558188  0.66052405  1
  Cr  Cr38  1  0.49175073  0.16100120  0.82840615  1
  Cr  Cr39  1  0.49240087  0.49350997  0.49523937  1
  Fe  Fe40  1  0.32551746  0.32616159  0.66166339  1
  Cr  Cr41  1  0.49279260  0.49277389  0.82810105  1
  Cr  Cr42  1  0.49315878  0.82891570  0.49208574  1
  Cr  Cr43  1  0.32672166  0.66017283  0.65865334  1
  Cr  Cr44  1  0.49623049  0.82735682  0.82819203  1
  Cr  Cr45  1  0.82729994  0.16003185  0.49180439  1
  Cr  Cr46  1  0.66098363  -0.00542449  0.66010507  1
  Cr  Cr47  1  0.82750898  0.15926546  0.82778667  1
  Cr  Cr48  1  0.82896968  0.49325470  0.49313851  1
  Cr  Cr49  1  0.66032051  0.32759314  0.66016259  1
  Cr  Cr50  1  0.82761109  0.49560927  0.82886019  1
  Cr  Cr51  1  0.82684533  0.82780093  0.49428360  1
  Cr  Cr52  1  0.65993824  0.65893851  0.65966624  1
  Cr  Cr53  1  0.82592904  0.82625466  0.82887820  1
" 