6889,Ni16Fe77Cr6_9,-230.033657460468, 171.93389730549,Ni16Fe77Cr6,"# generated using pymatgen
 data_Cr4Fe41Ni9
_symmetry_space_group_name_H-M   'P 1'
_cell_length_a   7.42430402
_cell_length_b   7.42430402
_cell_length_c   10.49955144
_cell_angle_alpha   90.00000000
_cell_angle_beta   90.00000000
_cell_angle_gamma   90.00000000
_symmetry_Int_Tables_number   1
_chemical_formula_structural   Cr4Fe41Ni9
_chemical_formula_sum   'Cr4 Fe41 Ni9'
_cell_volume   578.73832182
_cell_formula_units_Z   1
loop_
 _symmetry_equiv_pos_site_id
 _symmetry_equiv_pos_as_xyz
  1  'x, y, z'
loop_
 _atom_site_type_symbol
 _atom_site_label
 _atom_site_symmetry_multiplicity
 _atom_site_fract_x
 _atom_site_fract_y
 _atom_site_fract_z
 _atom_site_occupancy
  Fe  Fe0  1  0.00329742  0.00294048  0.00354875  1
  Ni  Ni1  1  0.17028067  0.16883380  0.16900431  1
  Cr  Cr2  1  0.00290622  0.00304854  0.33512846  1
  Fe  Fe3  1  0.00401463  0.33529615  1.00267659  1
  Ni  Ni4  1  0.17115220  0.50305600  0.17030355  1
  Fe  Fe5  1  0.00481752  0.33657315  0.33670121  1
  Fe  Fe6  1  0.00401172  0.67039813  1.00214614  1
  Ni  Ni7  1  0.17024653  0.83674478  0.16857254  1
  Fe  Fe8  1  0.00370249  0.66769571  0.33625282  1
  Fe  Fe9  1  0.33564807  1.00282001  0.00306887  1
  Fe  Fe10  1  0.50147115  0.17037817  0.16981130  1
  Fe  Fe11  1  0.33764391  0.00431969  0.33556055  1
  Fe  Fe12  1  0.33621646  0.33670004  0.00382825  1
  Ni  Ni13  1  0.50230325  0.50283424  0.16966030  1
  Ni  Ni14  1  0.33649237  0.33653844  0.33611803  1
  Fe  Fe15  1  0.33633859  0.66911635  0.00329713  1
  Fe  Fe16  1  0.50168586  0.83562346  0.16959679  1
  Fe  Fe17  1  0.33668074  0.66829799  0.33471129  1
  Fe  Fe18  1  0.66969034  1.00281823  1.00284577  1
  Fe  Fe19  1  0.83638337  0.16925148  0.16870589  1
  Fe  Fe20  1  0.66770427  0.00320418  0.33629628  1
  Fe  Fe21  1  0.66840787  0.33598546  1.00151518  1
  Cr  Cr22  1  0.83532009  0.50248037  0.16946900  1
  Fe  Fe23  1  0.66830421  0.33560922  0.33721459  1
  Fe  Fe24  1  0.66828778  0.66983259  1.00216659  1
  Fe  Fe25  1  0.83646911  0.83644429  0.16885247  1
  Fe  Fe26  1  0.66825292  0.66982306  0.33670910  1
  Ni  Ni27  1  0.16929966  0.17170631  0.50341695  1
  Fe  Fe28  1  1.00049595  0.00382456  0.66984015  1
  Fe  Fe29  1  0.16936170  0.17064719  0.83690211  1
  Fe  Fe30  1  0.16940062  0.50103390  0.50244266  1
  Fe  Fe31  1  1.00278557  0.33618115  0.66926019  1
  Fe  Fe32  1  0.16973243  0.50326313  0.83635765  1
  Cr  Cr33  1  0.16956556  0.83608208  0.50294846  1
  Ni  Ni34  1  1.00181790  0.66917424  0.67020938  1
  Fe  Fe35  1  0.16906223  0.83472711  0.83690285  1
  Fe  Fe36  1  0.50299298  0.17040950  0.50220059  1
  Cr  Cr37  1  0.33652606  0.00401322  0.66961282  1
  Fe  Fe38  1  0.50395565  0.17092886  0.83662368  1
  Fe  Fe39  1  0.50227884  0.50205640  0.50287956  1
  Fe  Fe40  1  0.33620984  0.33812295  0.66905677  1
  Ni  Ni41  1  0.50381060  0.50288802  0.83562613  1
  Fe  Fe42  1  0.50462042  0.83617316  0.50213720  1
  Fe  Fe43  1  0.33721909  0.66674741  0.67062637  1
  Fe  Fe44  1  0.50356590  0.83513567  0.83690123  1
  Fe  Fe45  1  0.83579421  0.17025359  0.50389629  1
  Fe  Fe46  1  0.67152933  1.00281124  0.66949398  1
  Fe  Fe47  1  0.83531828  0.17025929  0.83603071  1
  Fe  Fe48  1  0.83695544  0.50265620  0.50326363  1
  Ni  Ni49  1  0.66932691  0.33655009  0.66971058  1
  Fe  Fe50  1  0.83572738  0.50287342  0.83580352  1
  Fe  Fe51  1  0.83476772  0.83572605  0.50383295  1
  Fe  Fe52  1  0.66958839  0.66903389  0.66975947  1
  Fe  Fe53  1  0.83600736  0.83550318  0.83594818  1
" 