6186,Ni16Fe84_1,-242.525246153187, 201.663299007616,Ni16Fe84,"# generated using pymatgen
 data_Fe4Ni23
_symmetry_space_group_name_H-M   'P 1'
_cell_length_a   7.43282741
_cell_length_b   7.43282741
_cell_length_c   10.51160533
_cell_angle_alpha   90.00000000
_cell_angle_beta   90.00000000
_cell_angle_gamma   90.00000000
_symmetry_Int_Tables_number   1
_chemical_formula_structural   Fe4Ni23
_chemical_formula_sum   'Fe8 Ni46'
_cell_volume   580.73385369
_cell_formula_units_Z   2
loop_
 _symmetry_equiv_pos_site_id
 _symmetry_equiv_pos_as_xyz
  1  'x, y, z'
loop_
 _atom_site_type_symbol
 _atom_site_label
 _atom_site_symmetry_multiplicity
 _atom_site_fract_x
 _atom_site_fract_y
 _atom_site_fract_z
 _atom_site_occupancy
  Fe  Fe0  1  1.00153114  0.00310097  0.00233161  1
  Fe  Fe1  1  0.16952198  0.16899732  0.17033345  1
  Ni  Ni2  1  1.00165568  1.00144797  0.33541104  1
  Ni  Ni3  1  0.00283368  0.33751422  1.00215309  1
  Ni  Ni4  1  0.16904638  0.50304500  0.16916204  1
  Ni  Ni5  1  1.00164553  0.33701687  0.33576048  1
  Ni  Ni6  1  1.00175152  0.66842248  1.00203893  1
  Ni  Ni7  1  0.16873446  0.83459881  0.16830681  1
  Ni  Ni8  1  0.00233941  0.66845058  0.33617536  1
  Ni  Ni9  1  0.33705598  0.00266846  1.00173356  1
  Ni  Ni10  1  0.50360624  0.16942540  0.16884510  1
  Ni  Ni11  1  0.33693405  1.00169755  0.33671572  1
  Ni  Ni12  1  0.33522641  0.33417089  0.00258647  1
  Ni  Ni13  1  0.50171539  0.50105020  0.16833489  1
  Ni  Ni14  1  0.33619584  0.33599223  0.33587729  1
  Fe  Fe15  1  0.33643257  0.66816212  0.00232434  1
  Ni  Ni16  1  0.50157772  0.83619999  0.16834098  1
  Ni  Ni17  1  0.33479788  0.66920559  0.33497367  1
  Ni  Ni18  1  0.66746112  1.00184829  0.00253265  1
  Ni  Ni19  1  0.83471331  0.16925025  0.16880185  1
  Ni  Ni20  1  0.66839103  0.00250307  0.33534812  1
  Ni  Ni21  1  0.66894531  0.33545362  1.00157566  1
  Ni  Ni22  1  0.83617766  0.50128924  0.16811250  1
  Ni  Ni23  1  0.66915997  0.33498583  0.33577544  1
  Ni  Ni24  1  0.67031089  0.66986129  0.00258578  1
  Ni  Ni25  1  0.83652778  0.83648429  0.16879385  1
  Fe  Fe26  1  0.66891279  0.66863754  0.33468068  1
  Ni  Ni27  1  0.16831361  0.16900607  0.50247862  1
  Ni  Ni28  1  1.00125171  1.00179439  0.66939781  1
  Fe  Fe29  1  0.17023032  0.16848646  0.83432719  1
  Ni  Ni30  1  0.16945945  0.50268535  0.50208833  1
  Ni  Ni31  1  0.00242326  0.33690487  0.66914417  1
  Ni  Ni32  1  0.16944899  0.50271509  0.83572713  1
  Ni  Ni33  1  0.16873531  0.83522814  0.50296261  1
  Ni  Ni34  1  1.00218557  0.66836940  0.66875156  1
  Ni  Ni35  1  0.16846517  0.83413606  0.83571662  1
  Ni  Ni36  1  0.50277515  0.16932451  0.50251270  1
  Ni  Ni37  1  0.33727167  1.00190361  0.66846877  1
  Ni  Ni38  1  0.50400802  0.16962770  0.83529149  1
  Ni  Ni39  1  0.50132261  0.50213433  0.50210158  1
  Ni  Ni40  1  0.33546686  0.33616948  0.66850189  1
  Ni  Ni41  1  0.50045606  0.50123380  0.83632428  1
  Ni  Ni42  1  0.50194412  0.83531033  0.50247156  1
  Ni  Ni43  1  0.33513280  0.66872410  0.66978441  1
  Ni  Ni44  1  0.50201197  0.83578235  0.83613409  1
  Ni  Ni45  1  0.83580227  0.16861751  0.50214654  1
  Ni  Ni46  1  0.66858227  1.00180471  0.66902207  1
  Ni  Ni47  1  0.83510190  0.16892741  0.83579640  1
  Ni  Ni48  1  0.83594674  0.50185723  0.50298175  1
  Fe  Fe49  1  0.66873251  0.33488185  0.66865506  1
  Fe  Fe50  1  0.83517967  0.50333554  0.83613214  1
  Ni  Ni51  1  0.83610787  0.83630223  0.50210061  1
  Fe  Fe52  1  0.66836639  0.66992930  0.66958857  1
  Ni  Ni53  1  0.83638205  0.83763415  0.83608673  1
" 