3365,Ni16Fe77Cr6_13,-229.763737155953, 172.762047423707,Ni16Fe77Cr6,"# generated using pymatgen
 data_Cr4Fe41Ni9
_symmetry_space_group_name_H-M   'P 1'
_cell_length_a   7.41760544
_cell_length_b   7.41760544
_cell_length_c   10.49007821
_cell_angle_alpha   90.00000000
_cell_angle_beta   90.00000000
_cell_angle_gamma   90.00000000
_symmetry_Int_Tables_number   1
_chemical_formula_structural   Cr4Fe41Ni9
_chemical_formula_sum   'Cr4 Fe41 Ni9'
_cell_volume   577.17323342
_cell_formula_units_Z   1
loop_
 _symmetry_equiv_pos_site_id
 _symmetry_equiv_pos_as_xyz
  1  'x, y, z'
loop_
 _atom_site_type_symbol
 _atom_site_label
 _atom_site_symmetry_multiplicity
 _atom_site_fract_x
 _atom_site_fract_y
 _atom_site_fract_z
 _atom_site_occupancy
  Cr  Cr0  1  0.00395509  0.00346140  1.00289457  1
  Ni  Ni1  1  0.17041540  0.17078263  0.17085500  1
  Fe  Fe2  1  0.00452251  1.00277030  0.33543988  1
  Fe  Fe3  1  0.00443908  0.33834357  1.00282391  1
  Ni  Ni4  1  0.16827958  0.50433363  0.16875502  1
  Fe  Fe5  1  1.00311758  0.33760170  0.33581089  1
  Fe  Fe6  1  0.00363110  0.66797960  1.00325286  1
  Fe  Fe7  1  0.17133539  0.83637847  0.17095590  1
  Fe  Fe8  1  0.00363448  0.66962990  0.33655966  1
  Fe  Fe9  1  0.33813223  0.00419303  0.00367648  1
  Ni  Ni10  1  0.50449145  0.16806704  0.16888348  1
  Fe  Fe11  1  0.33696379  1.00260250  0.33641295  1
  Fe  Fe12  1  0.33569678  0.33613132  0.00400112  1
  Fe  Fe13  1  0.50317067  0.50317460  0.16920398  1
  Cr  Cr14  1  0.33740206  0.33603524  0.33755245  1
  Fe  Fe15  1  0.33598575  0.66967599  1.00275589  1
  Fe  Fe16  1  0.50228234  0.83712164  0.16992986  1
  Fe  Fe17  1  0.33631639  0.67132233  0.33701973  1
  Fe  Fe18  1  0.66816573  0.00338206  0.00364642  1
  Fe  Fe19  1  0.83638291  0.17133331  0.17103320  1
  Fe  Fe20  1  0.66851405  1.00312008  0.33583897  1
  Fe  Fe21  1  0.66986075  0.33619907  1.00317196  1
  Fe  Fe22  1  0.83712642  0.50225548  0.17009477  1
  Fe  Fe23  1  0.67021047  0.33695489  0.33644353  1
  Fe  Fe24  1  0.67037616  0.67041204  0.00336889  1
  Fe  Fe25  1  0.83638071  0.83640858  0.17082390  1
  Fe  Fe26  1  0.67004293  0.66991852  0.33665545  1
  Fe  Fe27  1  0.17087587  0.16925125  0.50433955  1
  Fe  Fe28  1  0.00430789  0.00479865  0.67125631  1
  Ni  Ni29  1  0.17019646  0.17177033  0.83445122  1
  Fe  Fe30  1  0.17029394  0.50281877  0.50377300  1
  Ni  Ni31  1  0.00352625  0.33535399  0.67094860  1
  Ni  Ni32  1  0.17015581  0.50239247  0.83739378  1
  Fe  Fe33  1  0.17143752  0.83792680  0.50269654  1
  Cr  Cr34  1  0.00412343  0.67010983  0.67084819  1
  Fe  Fe35  1  0.17192051  0.83641460  0.83634692  1
  Ni  Ni36  1  0.50333269  0.16881672  0.50487701  1
  Fe  Fe37  1  0.33649290  0.00418895  0.66990567  1
  Fe  Fe38  1  0.50273742  0.17066342  0.83648258  1
  Fe  Fe39  1  0.50447378  0.50357636  0.50466172  1
  Fe  Fe40  1  0.33620559  0.33711576  0.67000770  1
  Fe  Fe41  1  0.50238418  0.50305705  0.83613301  1
  Fe  Fe42  1  0.50319519  0.83702740  0.50358532  1
  Ni  Ni43  1  0.33801574  0.67028436  0.66951577  1
  Fe  Fe44  1  0.50199341  0.83627835  0.83648120  1
  Cr  Cr45  1  0.83617866  0.17049473  0.50347852  1
  Fe  Fe46  1  0.66919718  1.00300583  0.67051426  1
  Fe  Fe47  1  0.83697241  0.17180259  0.83506398  1
  Fe  Fe48  1  0.83523196  0.50302227  0.50295158  1
  Ni  Ni49  1  0.66907358  0.33652533  0.67028963  1
  Fe  Fe50  1  0.83683928  0.50142719  0.83695669  1
  Fe  Fe51  1  0.83536749  0.83644474  0.50233620  1
  Fe  Fe52  1  0.66852084  0.66905088  0.66997392  1
  Fe  Fe53  1  0.83608716  0.83676143  0.83683931  1
" 