9018,Ni16Fe57Cr25_3,-225.330666410597, 182.308972578156,Ni16Fe57Cr25,"# generated using pymatgen
 data_Cr15Fe31Ni8
_symmetry_space_group_name_H-M   'P 1'
_cell_length_a   7.46820060
_cell_length_b   7.46820060
_cell_length_c   10.56163058
_cell_angle_alpha   90.00000000
_cell_angle_beta   90.00000000
_cell_angle_gamma   90.00000000
_symmetry_Int_Tables_number   1
_chemical_formula_structural   Cr15Fe31Ni8
_chemical_formula_sum   'Cr15 Fe31 Ni8'
_cell_volume   589.06459823
_cell_formula_units_Z   1
loop_
 _symmetry_equiv_pos_site_id
 _symmetry_equiv_pos_as_xyz
  1  'x, y, z'
loop_
 _atom_site_type_symbol
 _atom_site_label
 _atom_site_symmetry_multiplicity
 _atom_site_fract_x
 _atom_site_fract_y
 _atom_site_fract_z
 _atom_site_occupancy
  Cr  Cr0  1  0.99864980  0.00136901  0.99839909  1
  Fe  Fe1  1  0.16904159  0.16771549  0.16560363  1
  Cr  Cr2  1  0.00126833  0.99906525  0.33590309  1
  Ni  Ni3  1  0.00167458  0.33298675  0.99965471  1
  Fe  Fe4  1  0.16491317  0.49969665  0.16511627  1
  Cr  Cr5  1  0.00021856  0.33351906  0.33157297  1
  Fe  Fe6  1  0.00190307  0.66511197  0.00071163  1
  Fe  Fe7  1  0.16741886  0.83235941  0.16680138  1
  Ni  Ni8  1  0.99837462  0.66717712  0.33042774  1
  Fe  Fe9  1  0.33319027  0.00073513  0.00069241  1
  Fe  Fe10  1  0.49873054  0.16590108  0.16584802  1
  Ni  Ni11  1  0.33424287  0.00118965  0.33324879  1
  Ni  Ni12  1  0.33101391  0.33368437  0.99973857  1
  Cr  Cr13  1  0.50061648  0.49757159  0.16770886  1
  Fe  Fe14  1  0.33370061  0.32988861  0.33307859  1
  Fe  Fe15  1  0.33077939  0.66608922  0.99889059  1
  Fe  Fe16  1  0.49897002  0.83554859  0.16633545  1
  Cr  Cr17  1  0.33312220  0.66734188  0.33370259  1
  Fe  Fe18  1  0.66637802  0.00122655  0.00020263  1
  Fe  Fe19  1  0.83199465  0.16841319  0.16497432  1
  Cr  Cr20  1  0.66518497  0.00014885  0.33303003  1
  Fe  Fe21  1  0.66736247  0.33123423  0.00065910  1
  Fe  Fe22  1  0.83518866  0.49993591  0.16671572  1
  Fe  Fe23  1  0.66533657  0.33330456  0.33331634  1
  Cr  Cr24  1  0.66550899  0.66855287  0.99911280  1
  Fe  Fe25  1  0.83337684  0.83142277  0.16641435  1
  Fe  Fe26  1  0.66837469  0.66713820  0.33306522  1
  Ni  Ni27  1  0.16940629  0.16550491  0.49933661  1
  Cr  Cr28  1  0.99894924  0.00258176  0.66546526  1
  Ni  Ni29  1  0.16702061  0.16865959  0.83393007  1
  Cr  Cr30  1  0.16756728  0.49885901  0.50056283  1
  Fe  Fe31  1  0.00173246  0.33079346  0.66754179  1
  Fe  Fe32  1  0.16842976  0.49869824  0.83409535  1
  Fe  Fe33  1  0.16741231  0.83401171  0.49884150  1
  Cr  Cr34  1  0.00159908  0.66758317  0.66787481  1
  Fe  Fe35  1  0.16750970  0.83229705  0.83412669  1
  Fe  Fe36  1  0.49839661  0.16848677  0.49899411  1
  Cr  Cr37  1  0.33184454  0.99866707  0.66521650  1
  Cr  Cr38  1  0.49852308  0.16727248  0.83628285  1
  Fe  Fe39  1  0.49976305  0.49903908  0.50083876  1
  Fe  Fe40  1  0.33245660  0.33440711  0.66710249  1
  Fe  Fe41  1  0.49739516  0.50059912  0.83269829  1
  Fe  Fe42  1  0.49868197  0.83224122  0.49992558  1
  Ni  Ni43  1  0.33633880  0.66424085  0.66865481  1
  Fe  Fe44  1  0.49932129  0.83140670  0.83350605  1
  Fe  Fe45  1  0.83336922  0.16749301  0.50059261  1
  Cr  Cr46  1  0.66897645  0.99938098  0.66711784  1
  Fe  Fe47  1  0.83483305  0.16684893  0.83419925  1
  Cr  Cr48  1  0.83075305  0.50180407  0.49846098  1
  Fe  Fe49  1  0.66557750  0.33434219  0.66579869  1
  Cr  Cr50  1  0.83369026  0.49971997  0.83341091  1
  Fe  Fe51  1  0.83367739  0.83264845  0.49947896  1
  Fe  Fe52  1  0.66366976  0.66727340  0.66712119  1
  Ni  Ni53  1  0.83240231  0.83264325  0.83373185  1
" 