5093,Ni16Fe77Cr6_17,-229.490208281847, 172.913763741166,Ni16Fe77Cr6,"# generated using pymatgen
 data_Cr4Fe41Ni9
_symmetry_space_group_name_H-M   'P 1'
_cell_length_a   7.41850097
_cell_length_b   7.41850097
_cell_length_c   10.49134468
_cell_angle_alpha   90.00000000
_cell_angle_beta   90.00000000
_cell_angle_gamma   90.00000000
_symmetry_Int_Tables_number   1
_chemical_formula_structural   Cr4Fe41Ni9
_chemical_formula_sum   'Cr4 Fe41 Ni9'
_cell_volume   577.38230646
_cell_formula_units_Z   1
loop_
 _symmetry_equiv_pos_site_id
 _symmetry_equiv_pos_as_xyz
  1  'x, y, z'
loop_
 _atom_site_type_symbol
 _atom_site_label
 _atom_site_symmetry_multiplicity
 _atom_site_fract_x
 _atom_site_fract_y
 _atom_site_fract_z
 _atom_site_occupancy
  Fe  Fe0  1  0.00393036  1.00281679  1.00283345  1
  Fe  Fe1  1  0.16881717  0.17112868  0.17008180  1
  Fe  Fe2  1  1.00314628  0.00416670  0.33704678  1
  Fe  Fe3  1  1.00326646  0.33698322  0.00406833  1
  Fe  Fe4  1  0.17093929  0.50327671  0.16972355  1
  Ni  Ni5  1  0.00395651  0.33585082  0.33701010  1
  Fe  Fe6  1  0.00540400  0.67001215  1.00303595  1
  Fe  Fe7  1  0.17093650  0.83540619  0.16918432  1
  Fe  Fe8  1  1.00295016  0.66914765  0.33647934  1
  Fe  Fe9  1  0.33645158  1.00173178  1.00234864  1
  Cr  Cr10  1  0.50367082  0.17010999  0.16949481  1
  Fe  Fe11  1  0.33536861  1.00267764  0.33740482  1
  Ni  Ni12  1  0.33442486  0.33801728  0.00349931  1
  Ni  Ni13  1  0.50302181  0.50436282  0.17059693  1
  Fe  Fe14  1  0.33544449  0.33761761  0.33699840  1
  Ni  Ni15  1  0.33595279  0.66862003  1.00278797  1
  Ni  Ni16  1  0.50150032  0.83567895  0.17018917  1
  Fe  Fe17  1  0.33668453  0.66952125  0.33569724  1
  Ni  Ni18  1  0.67164899  1.00266463  1.00214727  1
  Fe  Fe19  1  0.83717163  0.17039458  0.17051122  1
  Fe  Fe20  1  0.67129733  1.00291801  0.33704011  1
  Fe  Fe21  1  0.66967860  0.33635421  1.00277198  1
  Ni  Ni22  1  0.83763565  0.50210029  0.17103174  1
  Fe  Fe23  1  0.67167197  0.33781576  0.33740895  1
  Cr  Cr24  1  0.66883826  0.67178381  0.00455851  1
  Fe  Fe25  1  0.83576104  0.83685796  0.17050695  1
  Fe  Fe26  1  0.67017948  0.66908237  0.33585560  1
  Fe  Fe27  1  0.16834561  0.16944451  0.50207947  1
  Fe  Fe28  1  0.00334344  1.00320779  0.66993571  1
  Fe  Fe29  1  0.16940637  0.16891999  0.83765432  1
  Fe  Fe30  1  0.16831763  0.50327096  0.50227980  1
  Fe  Fe31  1  1.00099857  0.33656014  0.66900456  1
  Fe  Fe32  1  0.16963307  0.50467686  0.83781065  1
  Fe  Fe33  1  0.16943838  0.83709893  0.50400105  1
  Fe  Fe34  1  0.00537241  0.67004835  0.67030061  1
  Ni  Ni35  1  0.17061400  0.83585549  0.83604657  1
  Fe  Fe36  1  0.50465669  0.16904232  0.50246349  1
  Fe  Fe37  1  0.33649320  1.00107455  0.67005969  1
  Fe  Fe38  1  0.50361721  0.16859400  0.83803494  1
  Fe  Fe39  1  0.50373107  0.50271680  0.50127531  1
  Cr  Cr40  1  0.33519420  0.33620716  0.66902047  1
  Fe  Fe41  1  0.50125548  0.50287119  0.83829949  1
  Fe  Fe42  1  0.50301717  0.83805861  0.50191355  1
  Fe  Fe43  1  0.33473122  0.67191258  0.67068609  1
  Fe  Fe44  1  0.50113461  0.83835416  0.83751926  1
  Ni  Ni45  1  0.83621053  0.17076305  0.50374913  1
  Fe  Fe46  1  0.66998082  0.00544937  0.67016344  1
  Fe  Fe47  1  0.83678719  0.16904281  0.83619794  1
  Fe  Fe48  1  0.83776541  0.50163155  0.50175629  1
  Fe  Fe49  1  0.67183932  0.33480256  0.66963829  1
  Fe  Fe50  1  0.83892179  0.50219623  0.83690083  1
  Fe  Fe51  1  0.83736156  0.83803212  0.50258635  1
  Cr  Cr52  1  0.67017293  0.67117727  0.67027044  1
  Fe  Fe53  1  0.83859851  0.83858070  0.83672692  1
" 