8930,Ni16Fe57Cr25_1,-225.046293237633, 175.454862122767,Ni16Fe57Cr25,"# generated using pymatgen
 data_Cr15Fe31Ni8
_symmetry_space_group_name_H-M   'P 1'
_cell_length_a   7.47204707
_cell_length_b   7.47204707
_cell_length_c   10.56707030
_cell_angle_alpha   90.00000000
_cell_angle_beta   90.00000000
_cell_angle_gamma   90.00000000
_symmetry_Int_Tables_number   1
_chemical_formula_structural   Cr15Fe31Ni8
_chemical_formula_sum   'Cr15 Fe31 Ni8'
_cell_volume   589.97525212
_cell_formula_units_Z   1
loop_
 _symmetry_equiv_pos_site_id
 _symmetry_equiv_pos_as_xyz
  1  'x, y, z'
loop_
 _atom_site_type_symbol
 _atom_site_label
 _atom_site_symmetry_multiplicity
 _atom_site_fract_x
 _atom_site_fract_y
 _atom_site_fract_z
 _atom_site_occupancy
  Cr  Cr0  1  0.00283984  0.99860337  0.99733362  1
  Fe  Fe1  1  0.16647371  0.16877247  0.16777737  1
  Fe  Fe2  1  0.99856400  0.00081431  0.33505730  1
  Fe  Fe3  1  0.00025376  0.33318757  -0.00007871  1
  Fe  Fe4  1  0.16333721  0.49831373  0.16606599  1
  Fe  Fe5  1  0.00022595  0.33184451  0.33286031  1
  Ni  Ni6  1  0.99795747  0.66393571  0.99917169  1
  Cr  Cr7  1  0.16560940  0.83109063  0.17021495  1
  Fe  Fe8  1  0.99774650  0.66593998  0.33382425  1
  Cr  Cr9  1  0.33425646  0.00003271  0.99877674  1
  Fe  Fe10  1  0.49978971  0.16597475  0.16492634  1
  Fe  Fe11  1  0.33238534  0.00102107  0.33430155  1
  Fe  Fe12  1  0.33244153  0.33301113  0.99792416  1
  Cr  Cr13  1  0.49692420  0.49924003  0.16509070  1
  Fe  Fe14  1  0.33337205  0.33033100  0.33319706  1
  Fe  Fe15  1  0.33232782  0.66744101  0.99910162  1
  Fe  Fe16  1  0.49846607  0.83312230  0.16543023  1
  Fe  Fe17  1  0.33470558  0.66734795  0.33398503  1
  Fe  Fe18  1  0.66600432  0.99870068  0.99859849  1
  Fe  Fe19  1  0.83358006  0.16930017  0.16494965  1
  Cr  Cr20  1  0.66432743  0.99939779  0.33215629  1
  Fe  Fe21  1  0.66636349  0.33364670  0.99861639  1
  Fe  Fe22  1  0.83536361  0.49868128  0.16473526  1
  Cr  Cr23  1  0.66852619  0.33386570  0.33742999  1
  Fe  Fe24  1  0.66620654  0.66662399  0.99692502  1
  Cr  Cr25  1  0.83227365  0.83481586  0.16407783  1
  Cr  Cr26  1  0.66775019  0.66626532  0.33405506  1
  Ni  Ni27  1  0.16569798  0.16536405  0.49711945  1
  Fe  Fe28  1  0.99850509  0.99795973  0.66549209  1
  Ni  Ni29  1  0.16638323  0.16647311  0.83377662  1
  Cr  Cr30  1  0.16963859  0.50056752  0.49813200  1
  Cr  Cr31  1  0.00043068  0.33332554  0.66709419  1
  Cr  Cr32  1  0.16822111  0.50145690  0.83463058  1
  Fe  Fe33  1  0.16435122  0.83467698  0.49814578  1
  Fe  Fe34  1  0.99787196  0.66940320  0.66711349  1
  Fe  Fe35  1  0.16627657  0.83205867  0.83299936  1
  Fe  Fe36  1  0.49838573  0.16313406  0.50057027  1
  Cr  Cr37  1  0.32999574  -0.00028042  0.66811902  1
  Ni  Ni38  1  0.50143054  0.16773116  0.83422706  1
  Fe  Fe39  1  0.49961686  0.50292514  0.50110604  1
  Cr  Cr40  1  0.33348168  0.33053755  0.66781574  1
  Ni  Ni41  1  0.50069779  0.50173670  0.83277262  1
  Fe  Fe42  1  0.49900192  0.83276076  0.50152093  1
  Fe  Fe43  1  0.33696401  0.66687234  0.66678224  1
  Fe  Fe44  1  0.50163934  0.83276629  0.83209677  1
  Fe  Fe45  1  0.83552394  0.16233288  0.50095645  1
  Ni  Ni46  1  0.66450768  0.99686130  0.66628316  1
  Cr  Cr47  1  0.83098585  0.16200164  0.83131113  1
  Fe  Fe48  1  0.83625221  0.50320781  0.50089243  1
  Cr  Cr49  1  0.66597266  0.33521814  0.66299687  1
  Fe  Fe50  1  0.83045040  0.50010645  0.83417335  1
  Ni  Ni51  1  0.83260024  0.83437373  0.50147373  1
  Ni  Ni52  1  0.66744851  0.66745695  0.66624079  1
  Fe  Fe53  1  0.83153101  0.82958475  0.83158830  1
" 