320,Ni16Fe12Cr70_9,-210.294405570028, 178.864109385558,Ni16Fe12Cr70,"# generated using pymatgen
 data_Cr20Fe3Ni4
_symmetry_space_group_name_H-M   'P 1'
_cell_length_a   7.56214052
_cell_length_b   7.56214052
_cell_length_c   10.69448168
_cell_angle_alpha   90.00000000
_cell_angle_beta   90.00000000
_cell_angle_gamma   90.00000000
_symmetry_Int_Tables_number   1
_chemical_formula_structural   Cr20Fe3Ni4
_chemical_formula_sum   'Cr40 Fe6 Ni8'
_cell_volume   611.57430039
_cell_formula_units_Z   2
loop_
 _symmetry_equiv_pos_site_id
 _symmetry_equiv_pos_as_xyz
  1  'x, y, z'
loop_
 _atom_site_type_symbol
 _atom_site_label
 _atom_site_symmetry_multiplicity
 _atom_site_fract_x
 _atom_site_fract_y
 _atom_site_fract_z
 _atom_site_occupancy
  Fe  Fe0  1  -0.00570830  -0.00442987  0.99242303  1
  Cr  Cr1  1  0.16005707  0.16115092  0.16086298  1
  Cr  Cr2  1  0.99336249  0.99150054  0.32771534  1
  Ni  Ni3  1  -0.00548147  0.32788946  0.99241385  1
  Cr  Cr4  1  0.15827795  0.49194814  0.15802433  1
  Cr  Cr5  1  0.99136203  0.32831222  0.32774271  1
  Fe  Fe6  1  -0.00574301  0.65802238  -0.00604244  1
  Fe  Fe7  1  0.15906532  0.82579312  0.15903627  1
  Cr  Cr8  1  0.99344477  0.66116733  0.32534604  1
  Cr  Cr9  1  0.32388422  0.99216158  0.99330400  1
  Cr  Cr10  1  0.49088287  0.16119386  0.15915052  1
  Cr  Cr11  1  0.32521345  0.99228099  0.32635756  1
  Ni  Ni12  1  0.32295599  0.32928296  -0.00569765  1
  Ni  Ni13  1  0.49314134  0.49392491  0.16007532  1
  Cr  Cr14  1  0.32955604  0.32981032  0.32704680  1
  Cr  Cr15  1  0.32370234  0.65928953  0.99322238  1
  Cr  Cr16  1  0.49395825  0.82640002  0.16046673  1
  Cr  Cr17  1  0.32677983  0.65889578  0.32618847  1
  Cr  Cr18  1  0.66304492  -0.00404636  0.99172568  1
  Cr  Cr19  1  0.83022594  0.16185249  0.15842156  1
  Cr  Cr20  1  0.66258125  -0.00562860  0.32810511  1
  Cr  Cr21  1  0.66147699  0.32766412  -0.00406509  1
  Ni  Ni22  1  0.82834758  0.49469930  0.15820935  1
  Cr  Cr23  1  0.66030001  0.32962013  0.32393774  1
  Cr  Cr24  1  0.66068662  0.65758040  -0.00394270  1
  Cr  Cr25  1  0.82838277  0.82476084  0.15976505  1
  Cr  Cr26  1  0.66102594  0.65724893  0.32696622  1
  Cr  Cr27  1  0.16000053  0.16297813  0.49314552  1
  Cr  Cr28  1  0.99292418  -0.00545073  0.66028972  1
  Cr  Cr29  1  0.15848807  0.16427883  0.82740157  1
  Cr  Cr30  1  0.15932783  0.49151680  0.49604746  1
  Ni  Ni31  1  0.99326593  0.32711514  0.66276551  1
  Fe  Fe32  1  0.15818186  0.49159094  0.82874027  1
  Cr  Cr33  1  0.15953977  0.82662319  0.49220152  1
  Cr  Cr34  1  -0.00560795  0.66041784  0.66123177  1
  Fe  Fe35  1  0.15805500  0.82674166  0.82811644  1
  Cr  Cr36  1  0.49204197  0.16002635  0.49304837  1
  Cr  Cr37  1  0.32494593  0.99263410  0.66106930  1
  Cr  Cr38  1  0.49291856  0.16054811  0.82893546  1
  Fe  Fe39  1  0.49543533  0.49512773  0.49447621  1
  Cr  Cr40  1  0.32578100  0.32877489  0.66033931  1
  Cr  Cr41  1  0.49280077  0.49488804  0.82624901  1
  Cr  Cr42  1  0.49714962  0.82519162  0.49565010  1
  Cr  Cr43  1  0.32635223  0.65968946  0.66148511  1
  Cr  Cr44  1  0.49511806  0.82560428  0.82496626  1
  Cr  Cr45  1  0.82892169  0.16047377  0.49509743  1
  Cr  Cr46  1  0.66309687  -0.00572398  0.66143632  1
  Ni  Ni47  1  0.83322802  0.16193101  0.82798149  1
  Cr  Cr48  1  0.82770293  0.49635369  0.49524325  1
  Cr  Cr49  1  0.66262899  0.32742984  0.66093764  1
  Cr  Cr50  1  0.83057191  0.49325797  0.82717790  1
  Ni  Ni51  1  0.82510108  0.82432599  0.49512993  1
  Ni  Ni52  1  0.66124886  0.66023866  0.65770203  1
  Cr  Cr53  1  0.82647635  0.82554980  0.82685456  1
" 