6557,Ni16Fe77Cr6_10,-229.832875602992, 177.127225485372,Ni16Fe77Cr6,"# generated using pymatgen
 data_Cr4Fe41Ni9
_symmetry_space_group_name_H-M   'P 1'
_cell_length_a   7.42046566
_cell_length_b   7.42046566
_cell_length_c   10.49412318
_cell_angle_alpha   90.00000000
_cell_angle_beta   90.00000000
_cell_angle_gamma   90.00000000
_symmetry_Int_Tables_number   1
_chemical_formula_structural   Cr4Fe41Ni9
_chemical_formula_sum   'Cr4 Fe41 Ni9'
_cell_volume   577.84116431
_cell_formula_units_Z   1
loop_
 _symmetry_equiv_pos_site_id
 _symmetry_equiv_pos_as_xyz
  1  'x, y, z'
loop_
 _atom_site_type_symbol
 _atom_site_label
 _atom_site_symmetry_multiplicity
 _atom_site_fract_x
 _atom_site_fract_y
 _atom_site_fract_z
 _atom_site_occupancy
  Ni  Ni0  1  1.00264197  1.00233396  0.00360180  1
  Fe  Fe1  1  0.16829143  0.16969691  0.17174069  1
  Fe  Fe2  1  0.00422718  1.00211688  0.33695715  1
  Fe  Fe3  1  1.00173252  0.33229992  0.00347685  1
  Ni  Ni4  1  0.16917266  0.50348598  0.17094549  1
  Fe  Fe5  1  0.00491923  0.33584753  0.33809643  1
  Fe  Fe6  1  0.00357566  0.67332701  0.00335793  1
  Fe  Fe7  1  0.17015750  0.83449581  0.17010165  1
  Fe  Fe8  1  0.00379738  0.67151459  0.33814390  1
  Fe  Fe9  1  0.33411929  1.00210454  1.00305784  1
  Fe  Fe10  1  0.50386194  0.17091062  0.17364617  1
  Fe  Fe11  1  0.33782586  1.00199121  0.33833863  1
  Cr  Cr12  1  0.33727690  0.33799930  0.00516138  1
  Ni  Ni13  1  0.50335138  0.50439485  0.16998674  1
  Fe  Fe14  1  0.33710379  0.33583300  0.33625811  1
  Fe  Fe15  1  0.33704559  0.67444333  0.00595699  1
  Fe  Fe16  1  0.50220486  0.83419796  0.17344129  1
  Ni  Ni17  1  0.33545766  0.66732669  0.33718384  1
  Cr  Cr18  1  0.67025690  1.00243596  0.00363785  1
  Fe  Fe19  1  0.83778814  0.16990130  0.17164375  1
  Ni  Ni20  1  0.67157521  0.00368016  0.33748301  1
  Fe  Fe21  1  0.67090391  0.33626759  1.00180252  1
  Cr  Cr22  1  0.83660690  0.50410269  0.16883556  1
  Fe  Fe23  1  0.66716954  0.33640691  0.33740425  1
  Fe  Fe24  1  0.66831773  0.66976756  1.00159434  1
  Fe  Fe25  1  0.83779027  0.83696253  0.17243236  1
  Fe  Fe26  1  0.66763564  0.67155312  0.33781942  1
  Ni  Ni27  1  0.17017888  0.17107325  0.50365207  1
  Fe  Fe28  1  1.00290993  1.00272547  0.66929764  1
  Fe  Fe29  1  0.16868433  0.16638059  0.83479383  1
  Fe  Fe30  1  0.17101803  0.50397272  0.50247062  1
  Fe  Fe31  1  1.00217224  0.33541504  0.66757500  1
  Cr  Cr32  1  0.16840447  0.50358349  0.83687918  1
  Fe  Fe33  1  0.17155113  0.83862475  0.50283857  1
  Fe  Fe34  1  1.00164689  0.67106884  0.66764318  1
  Fe  Fe35  1  0.16971922  0.83874845  0.83648868  1
  Ni  Ni36  1  0.50212679  0.16905629  0.50302969  1
  Fe  Fe37  1  0.33675764  0.00328085  0.66825422  1
  Fe  Fe38  1  0.50263645  0.17014673  0.83333197  1
  Fe  Fe39  1  0.50284997  0.50331924  0.50203747  1
  Fe  Fe40  1  0.33736403  0.33546682  0.66852398  1
  Fe  Fe41  1  0.50555156  0.50453711  0.83623632  1
  Ni  Ni42  1  0.50470947  0.83726272  0.50281258  1
  Fe  Fe43  1  0.33766234  0.67090304  0.66720359  1
  Fe  Fe44  1  0.50128029  0.83506929  0.83391225  1
  Fe  Fe45  1  0.83535058  0.16723039  0.50260572  1
  Fe  Fe46  1  0.66985553  1.00257681  0.66797003  1
  Fe  Fe47  1  0.83863524  0.17091374  0.83542919  1
  Fe  Fe48  1  0.83529266  0.50223351  0.50290089  1
  Fe  Fe49  1  0.66935035  0.33619664  0.66914171  1
  Fe  Fe50  1  0.83399478  0.50311116  0.83637012  1
  Ni  Ni51  1  0.83614732  0.83551351  0.50279455  1
  Fe  Fe52  1  0.67010803  0.67034559  0.66880434  1
  Fe  Fe53  1  0.83872720  0.83533845  0.83438907  1
" 