2567,Ni16Fe12Cr70_13,-210.03420580586, 177.705169093335,Ni16Fe12Cr70,"# generated using pymatgen
 data_Cr20Fe3Ni4
_symmetry_space_group_name_H-M   'P 1'
_cell_length_a   7.56147671
_cell_length_b   7.56147671
_cell_length_c   10.69354291
_cell_angle_alpha   90.00000000
_cell_angle_beta   90.00000000
_cell_angle_gamma   90.00000000
_symmetry_Int_Tables_number   1
_chemical_formula_structural   Cr20Fe3Ni4
_chemical_formula_sum   'Cr40 Fe6 Ni8'
_cell_volume   611.41326052
_cell_formula_units_Z   2
loop_
 _symmetry_equiv_pos_site_id
 _symmetry_equiv_pos_as_xyz
  1  'x, y, z'
loop_
 _atom_site_type_symbol
 _atom_site_label
 _atom_site_symmetry_multiplicity
 _atom_site_fract_x
 _atom_site_fract_y
 _atom_site_fract_z
 _atom_site_occupancy
  Cr  Cr0  1  0.99298775  0.99286023  -0.00433778  1
  Cr  Cr1  1  0.16164288  0.15909742  0.16021627  1
  Ni  Ni2  1  0.99083978  0.98962090  0.32582546  1
  Cr  Cr3  1  -0.00520810  0.32629353  0.99262190  1
  Cr  Cr4  1  0.16097940  0.49574882  0.16063115  1
  Cr  Cr5  1  0.99347671  0.32647897  0.32676582  1
  Cr  Cr6  1  0.99221884  0.66226464  -0.00368480  1
  Fe  Fe7  1  0.15877476  0.82750218  0.16301079  1
  Ni  Ni8  1  0.99111534  0.66542622  0.32622750  1
  Cr  Cr9  1  0.32762257  0.99130096  -0.00593509  1
  Cr  Cr10  1  0.49474973  0.15988346  0.16054732  1
  Cr  Cr11  1  0.32759098  0.99258073  0.32715369  1
  Ni  Ni12  1  0.32703316  0.32701226  -0.00613181  1
  Cr  Cr13  1  0.49384466  0.49269680  0.16003389  1
  Cr  Cr14  1  0.32838271  0.32704725  0.32975287  1
  Cr  Cr15  1  0.32915817  0.66286509  -0.00394396  1
  Ni  Ni16  1  0.49628815  0.82821247  0.16163215  1
  Cr  Cr17  1  0.32823496  0.66172786  0.32638609  1
  Cr  Cr18  1  0.66056187  0.98968428  -0.00598563  1
  Cr  Cr19  1  0.82500829  0.15765779  0.16271627  1
  Fe  Fe20  1  0.66060018  0.99128468  0.32705693  1
  Cr  Cr21  1  0.66175468  0.32793621  -0.00594835  1
  Cr  Cr22  1  0.82664251  0.49572269  0.16129180  1
  Fe  Fe23  1  0.66005425  0.32669943  0.32844765  1
  Cr  Cr24  1  0.65982316  0.66356866  -0.00620301  1
  Ni  Ni25  1  0.82664010  0.82771312  0.16466773  1
  Cr  Cr26  1  0.65952298  0.66162475  0.32717833  1
  Cr  Cr27  1  0.16105699  0.15752904  0.49385848  1
  Cr  Cr28  1  0.99292370  -0.00591507  0.66043776  1
  Cr  Cr29  1  0.16246121  0.15997463  0.82764656  1
  Cr  Cr30  1  0.15915818  0.49770122  0.49435443  1
  Cr  Cr31  1  0.99336875  0.32724288  0.66199880  1
  Cr  Cr32  1  0.16109498  0.49590459  0.82648781  1
  Cr  Cr33  1  0.15751323  0.82597955  0.49300463  1
  Ni  Ni34  1  0.99218622  0.66180322  0.65852108  1
  Cr  Cr35  1  0.16092155  0.82546474  0.82558745  1
  Ni  Ni36  1  0.49691149  0.15844198  0.49136305  1
  Cr  Cr37  1  0.32949170  0.99318963  0.66003200  1
  Cr  Cr38  1  0.49357951  0.15951162  0.82893840  1
  Fe  Fe39  1  0.49474038  0.49271890  0.49278843  1
  Cr  Cr40  1  0.32790779  0.32637105  0.65792809  1
  Cr  Cr41  1  0.49290041  0.49418182  0.82879418  1
  Fe  Fe42  1  0.49506115  0.82891434  0.49261244  1
  Cr  Cr43  1  0.32984544  0.66166467  0.65887685  1
  Ni  Ni44  1  0.49349580  0.82699183  0.82643243  1
  Cr  Cr45  1  0.82477068  0.15728197  0.49102090  1
  Cr  Cr46  1  0.65877091  0.99222604  0.65958375  1
  Cr  Cr47  1  0.82532481  0.15946742  0.82744957  1
  Cr  Cr48  1  0.82742351  0.49713856  0.49341709  1
  Cr  Cr49  1  0.65997651  0.32720278  0.65842675  1
  Cr  Cr50  1  0.82745800  0.49575936  0.82633482  1
  Fe  Fe51  1  0.82756709  0.82756686  0.49193316  1
  Cr  Cr52  1  0.65936057  0.66188293  0.66027390  1
  Cr  Cr53  1  0.82720809  0.82611112  0.82472307  1
" 