4823,Ni16Fe84_13,-242.474910295262, 201.805854952506,Ni16Fe84,"# generated using pymatgen
 data_Fe4Ni23
_symmetry_space_group_name_H-M   'P 1'
_cell_length_a   7.43234608
_cell_length_b   7.43234608
_cell_length_c   10.51092462
_cell_angle_alpha   90.00000000
_cell_angle_beta   90.00000000
_cell_angle_gamma   90.00000000
_symmetry_Int_Tables_number   1
_chemical_formula_structural   Fe4Ni23
_chemical_formula_sum   'Fe8 Ni46'
_cell_volume   580.62103953
_cell_formula_units_Z   2
loop_
 _symmetry_equiv_pos_site_id
 _symmetry_equiv_pos_as_xyz
  1  'x, y, z'
loop_
 _atom_site_type_symbol
 _atom_site_label
 _atom_site_symmetry_multiplicity
 _atom_site_fract_x
 _atom_site_fract_y
 _atom_site_fract_z
 _atom_site_occupancy
  Fe  Fe0  1  0.00261268  0.00246974  1.00225045  1
  Ni  Ni1  1  0.16945147  0.16876972  0.16786323  1
  Ni  Ni2  1  1.00199725  0.00290555  0.33548365  1
  Ni  Ni3  1  0.00281832  0.33633498  1.00163808  1
  Ni  Ni4  1  0.16906544  0.50285709  0.16847545  1
  Ni  Ni5  1  0.00384974  0.33553622  0.33628924  1
  Ni  Ni6  1  0.00241903  0.66785315  1.00227710  1
  Ni  Ni7  1  0.16949933  0.83531062  0.16929780  1
  Ni  Ni8  1  1.00197652  0.66857128  0.33627465  1
  Ni  Ni9  1  0.33666510  0.00258182  0.00237723  1
  Ni  Ni10  1  0.50240177  0.16875191  0.16910802  1
  Ni  Ni11  1  0.33625824  0.00288494  0.33622672  1
  Ni  Ni12  1  0.33480309  0.33501081  1.00164955  1
  Ni  Ni13  1  0.50234516  0.50255338  0.16769437  1
  Ni  Ni14  1  0.33460738  0.33561264  0.33583516  1
  Ni  Ni15  1  0.33528777  0.66926145  1.00223816  1
  Ni  Ni16  1  0.50207535  0.83574410  0.16850760  1
  Ni  Ni17  1  0.33634586  0.66849111  0.33585143  1
  Ni  Ni18  1  0.66792659  1.00231013  1.00181653  1
  Ni  Ni19  1  0.83516165  0.16910683  0.16844044  1
  Ni  Ni20  1  0.66875974  1.00120409  0.33627894  1
  Ni  Ni21  1  0.66920416  0.33513786  0.00278044  1
  Ni  Ni22  1  0.83561608  0.50258823  0.16901201  1
  Fe  Fe23  1  0.66890049  0.33594810  0.33562705  1
  Ni  Ni24  1  0.66937524  0.66960359  1.00136176  1
  Ni  Ni25  1  0.83547477  0.83533398  0.16795500  1
  Ni  Ni26  1  0.66866770  0.67040455  0.33588268  1
  Ni  Ni27  1  0.16898549  0.16843571  0.50340504  1
  Ni  Ni28  1  0.00241081  0.00284542  0.66946851  1
  Ni  Ni29  1  0.16942901  0.16846553  0.83581533  1
  Ni  Ni30  1  0.16892075  0.50286449  0.50285221  1
  Ni  Ni31  1  0.00286653  0.33574478  0.66909614  1
  Ni  Ni32  1  0.16794550  0.50348453  0.83547303  1
  Ni  Ni33  1  0.16892329  0.83570532  0.50195126  1
  Ni  Ni34  1  0.00233836  0.66858914  0.66831454  1
  Ni  Ni35  1  0.16975751  0.83495981  0.83592620  1
  Ni  Ni36  1  0.50267760  0.16878659  0.50232734  1
  Fe  Fe37  1  0.33532630  0.00246599  0.66908059  1
  Ni  Ni38  1  0.50312593  0.16842565  0.83555657  1
  Ni  Ni39  1  0.50278068  0.50262853  0.50306494  1
  Fe  Fe40  1  0.33557624  0.33529555  0.66898094  1
  Fe  Fe41  1  0.50205852  0.50053655  0.83631015  1
  Ni  Ni42  1  0.50220039  0.83562923  0.50304283  1
  Fe  Fe43  1  0.33510694  0.66909501  0.66863175  1
  Fe  Fe44  1  0.50228432  0.83604974  0.83611835  1
  Ni  Ni45  1  0.83537406  0.16893589  0.50289186  1
  Ni  Ni46  1  0.66835858  1.00230882  0.66889555  1
  Ni  Ni47  1  0.83452925  0.17029653  0.83564956  1
  Ni  Ni48  1  0.83531834  0.50251372  0.50251675  1
  Ni  Ni49  1  0.66909573  0.33547548  0.66841183  1
  Ni  Ni50  1  0.83534552  0.50223759  0.83542305  1
  Ni  Ni51  1  0.83572508  0.83561383  0.50348543  1
  Ni  Ni52  1  0.66874732  0.66922208  0.66979292  1
  Fe  Fe53  1  0.83728870  0.83631332  0.83508726  1
" 