7153,Ni16Fe57Cr25_9,-225.207985356437, 177.926078629855,Ni16Fe57Cr25,"# generated using pymatgen
 data_Cr15Fe31Ni8
_symmetry_space_group_name_H-M   'P 1'
_cell_length_a   7.46965552
_cell_length_b   7.46965552
_cell_length_c   10.56368815
_cell_angle_alpha   90.00000000
_cell_angle_beta   90.00000000
_cell_angle_gamma   90.00000000
_symmetry_Int_Tables_number   1
_chemical_formula_structural   Cr15Fe31Ni8
_chemical_formula_sum   'Cr15 Fe31 Ni8'
_cell_volume   589.40894137
_cell_formula_units_Z   1
loop_
 _symmetry_equiv_pos_site_id
 _symmetry_equiv_pos_as_xyz
  1  'x, y, z'
loop_
 _atom_site_type_symbol
 _atom_site_label
 _atom_site_symmetry_multiplicity
 _atom_site_fract_x
 _atom_site_fract_y
 _atom_site_fract_z
 _atom_site_occupancy
  Fe  Fe0  1  0.99877050  0.99798008  0.00273278  1
  Fe  Fe1  1  0.16709567  0.16568699  0.16366370  1
  Ni  Ni2  1  0.00132348  0.00262499  0.32989406  1
  Fe  Fe3  1  0.99848348  0.33456542  0.00109546  1
  Cr  Cr4  1  0.16769786  0.50112445  0.16854453  1
  Fe  Fe5  1  0.00225576  0.33113211  0.33179764  1
  Ni  Ni6  1  0.99851420  0.66642526  0.99965933  1
  Ni  Ni7  1  0.16374844  0.83373970  0.16596350  1
  Fe  Fe8  1  0.00179156  0.66862425  0.33016386  1
  Fe  Fe9  1  0.33203863  0.99800895  0.00173999  1
  Ni  Ni10  1  0.50177796  0.16672064  0.16312419  1
  Cr  Cr11  1  0.33143518  0.00259128  0.33243167  1
  Fe  Fe12  1  0.33082206  0.33158685  -0.00013837  1
  Cr  Cr13  1  0.49866147  0.49873719  0.16457722  1
  Fe  Fe14  1  0.33120769  0.33157840  0.33350338  1
  Fe  Fe15  1  0.32853541  0.66893965  -0.00006693  1
  Cr  Cr16  1  0.49743329  0.83237966  0.16749220  1
  Ni  Ni17  1  0.33019059  0.66720221  0.33446263  1
  Fe  Fe18  1  0.66837332  0.99981694  0.00039871  1
  Ni  Ni19  1  0.83480356  0.16526520  0.16722172  1
  Fe  Fe20  1  0.66700973  0.00197180  0.33144053  1
  Fe  Fe21  1  0.67091409  0.33195568  0.00136768  1
  Fe  Fe22  1  0.83473927  0.49891534  0.16342753  1
  Cr  Cr23  1  0.66717996  0.33150777  0.33217557  1
  Fe  Fe24  1  0.66962390  0.66819348  0.99925138  1
  Fe  Fe25  1  0.83516890  0.83555905  0.16535647  1
  Cr  Cr26  1  0.66864265  0.66713165  0.32966660  1
  Fe  Fe27  1  0.16361874  0.16876516  0.50104602  1
  Fe  Fe28  1  0.00202644  -0.00000227  0.66566814  1
  Cr  Cr29  1  0.16537456  0.16198539  0.83609602  1
  Fe  Fe30  1  0.16556139  0.49871089  0.49922577  1
  Fe  Fe31  1  0.00074454  0.33484793  0.66743951  1
  Fe  Fe32  1  0.16375892  0.49816255  0.83432679  1
  Cr  Cr33  1  0.16690349  0.83336958  0.50074093  1
  Fe  Fe34  1  0.00234247  0.66513398  0.67030202  1
  Fe  Fe35  1  0.16495154  0.82967954  0.83512299  1
  Fe  Fe36  1  0.49761421  0.16646218  0.49997059  1
  Fe  Fe37  1  0.33311450  0.00014024  0.66731602  1
  Fe  Fe38  1  0.49951978  0.16672587  0.83498176  1
  Cr  Cr39  1  0.49690959  0.50058984  0.49837951  1
  Ni  Ni40  1  0.32976474  0.33169956  0.66654107  1
  Cr  Cr41  1  0.49892413  0.49929842  0.83696969  1
  Fe  Fe42  1  0.49967340  0.83301606  0.49806517  1
  Fe  Fe43  1  0.33231182  0.66560797  0.66786470  1
  Fe  Fe44  1  0.49899712  0.83563627  0.83597729  1
  Fe  Fe45  1  0.83699171  0.16644469  0.49832364  1
  Cr  Cr46  1  0.66580365  0.99977613  0.66357062  1
  Cr  Cr47  1  0.83366710  0.16661077  0.83091574  1
  Cr  Cr48  1  0.83552121  0.49881821  0.50011696  1
  Fe  Fe49  1  0.66367100  0.33336022  0.66633407  1
  Ni  Ni50  1  0.83291880  0.49916733  0.83482273  1
  Cr  Cr51  1  0.83674073  0.83578723  0.49556062  1
  Cr  Cr52  1  0.66895417  0.66777553  0.66909058  1
  Fe  Fe53  1  0.83595502  0.83303912  0.83485739  1
" 