495,Ni16Fe57Cr25_2,-225.122895497131, 175.307991419038,Ni16Fe57Cr25,"# generated using pymatgen
 data_Cr15Fe31Ni8
_symmetry_space_group_name_H-M   'P 1'
_cell_length_a   7.46625718
_cell_length_b   7.46625718
_cell_length_c   10.55888216
_cell_angle_alpha   90.00000000
_cell_angle_beta   90.00000000
_cell_angle_gamma   90.00000000
_symmetry_Int_Tables_number   1
_chemical_formula_structural   Cr15Fe31Ni8
_chemical_formula_sum   'Cr15 Fe31 Ni8'
_cell_volume   588.60484586
_cell_formula_units_Z   1
loop_
 _symmetry_equiv_pos_site_id
 _symmetry_equiv_pos_as_xyz
  1  'x, y, z'
loop_
 _atom_site_type_symbol
 _atom_site_label
 _atom_site_symmetry_multiplicity
 _atom_site_fract_x
 _atom_site_fract_y
 _atom_site_fract_z
 _atom_site_occupancy
  Ni  Ni0  1  0.99697425  0.00217348  0.99947312  1
  Cr  Cr1  1  0.16508646  0.16694143  0.16594011  1
  Fe  Fe2  1  0.99965757  0.00297371  0.33337156  1
  Fe  Fe3  1  0.99945102  0.33024843  0.00011532  1
  Cr  Cr4  1  0.16842658  0.49667613  0.16741538  1
  Ni  Ni5  1  0.00005714  0.33518263  0.33401965  1
  Cr  Cr6  1  0.99880462  0.66782148  0.00090445  1
  Fe  Fe7  1  0.16646539  0.83545155  0.16623491  1
  Cr  Cr8  1  0.00099644  0.66723902  0.33509316  1
  Fe  Fe9  1  0.33350472  0.00320856  0.99951333  1
  Fe  Fe10  1  0.50032914  0.16684570  0.16618315  1
  Cr  Cr11  1  0.33551236  0.00016366  0.33451648  1
  Ni  Ni12  1  0.33774849  0.33012030  0.99733585  1
  Cr  Cr13  1  0.49981189  0.49966942  0.16730599  1
  Ni  Ni14  1  0.33254581  0.33207244  0.33639324  1
  Cr  Cr15  1  0.33372248  0.66697958  0.00043583  1
  Cr  Cr16  1  0.50096617  0.83415955  0.16772295  1
  Fe  Fe17  1  0.33358447  0.66640695  0.33613421  1
  Fe  Fe18  1  0.66599587  0.00248129  0.99880971  1
  Fe  Fe19  1  0.83232011  0.16735245  0.16653888  1
  Ni  Ni20  1  0.66614231  0.99981436  0.33494184  1
  Fe  Fe21  1  0.66698600  0.33088058  1.00001649  1
  Fe  Fe22  1  0.83324928  0.49780880  0.16587884  1
  Cr  Cr23  1  0.66628617  0.33034419  0.33225775  1
  Fe  Fe24  1  0.66633245  0.66706503  0.99835044  1
  Cr  Cr25  1  0.83173317  0.83693301  0.16765601  1
  Fe  Fe26  1  0.66662101  0.66781013  0.33568291  1
  Fe  Fe27  1  0.16908736  0.16799989  0.50007411  1
  Fe  Fe28  1  0.00097156  0.99942159  0.66772047  1
  Fe  Fe29  1  0.16599100  0.16669933  0.83444755  1
  Fe  Fe30  1  0.16724236  0.49812620  0.50108926  1
  Fe  Fe31  1  0.00138906  0.33311168  0.66460988  1
  Cr  Cr32  1  0.16820979  0.49700890  0.83210195  1
  Fe  Fe33  1  0.16878818  0.83428137  0.50285157  1
  Fe  Fe34  1  0.00046914  0.66772592  0.66451351  1
  Cr  Cr35  1  0.16736890  0.83622881  0.83481524  1
  Ni  Ni36  1  0.49998332  0.16501689  0.50063269  1
  Fe  Fe37  1  0.33501938  0.99987445  0.66490760  1
  Fe  Fe38  1  0.49971818  0.16706098  0.83217043  1
  Cr  Cr39  1  0.49895515  0.50062554  0.50015868  1
  Fe  Fe40  1  0.33437740  0.33132224  0.66601977  1
  Fe  Fe41  1  0.49972584  0.49981561  0.83204785  1
  Ni  Ni42  1  0.50085152  0.83370772  0.50069397  1
  Ni  Ni43  1  0.33343912  0.66782906  0.66568823  1
  Fe  Fe44  1  0.50212060  0.83295403  0.83109617  1
  Cr  Cr45  1  0.83503342  0.16540952  0.49927809  1
  Fe  Fe46  1  0.66401238  0.99889981  0.66556075  1
  Fe  Fe47  1  0.83451642  0.16434967  0.83285312  1
  Fe  Fe48  1  0.83292718  0.50042157  0.50187205  1
  Fe  Fe49  1  0.66442524  0.33216542  0.66648066  1
  Cr  Cr50  1  0.83216613  0.49907416  0.83298412  1
  Fe  Fe51  1  0.82992342  0.83358670  0.50032473  1
  Fe  Fe52  1  0.66545119  0.66885587  0.66653685  1
  Fe  Fe53  1  0.83138386  0.83646165  0.83308751  1
" 