2470,Ni16Fe57Cr25_8,-225.29594468304, 175.923348135933,Ni16Fe57Cr25,"# generated using pymatgen
 data_Cr15Fe31Ni8
_symmetry_space_group_name_H-M   'P 1'
_cell_length_a   7.47139392
_cell_length_b   7.47139392
_cell_length_c   10.56614662
_cell_angle_alpha   90.00000000
_cell_angle_beta   90.00000000
_cell_angle_gamma   90.00000000
_symmetry_Int_Tables_number   1
_chemical_formula_structural   Cr15Fe31Ni8
_chemical_formula_sum   'Cr15 Fe31 Ni8'
_cell_volume   589.82055373
_cell_formula_units_Z   1
loop_
 _symmetry_equiv_pos_site_id
 _symmetry_equiv_pos_as_xyz
  1  'x, y, z'
loop_
 _atom_site_type_symbol
 _atom_site_label
 _atom_site_symmetry_multiplicity
 _atom_site_fract_x
 _atom_site_fract_y
 _atom_site_fract_z
 _atom_site_occupancy
  Fe  Fe0  1  0.00034260  0.00071774  0.00021656  1
  Fe  Fe1  1  0.16470729  0.16522970  0.16785413  1
  Ni  Ni2  1  0.99821269  0.99948057  0.33176327  1
  Fe  Fe3  1  0.99882522  0.33004310  0.99968077  1
  Fe  Fe4  1  0.16569669  0.49961942  0.16712917  1
  Fe  Fe5  1  -0.00016695  0.33215057  0.33164143  1
  Cr  Cr6  1  0.99933313  0.66770400  0.00260366  1
  Fe  Fe7  1  0.16607613  0.83425366  0.16726830  1
  Ni  Ni8  1  0.99902719  0.66773249  0.33195905  1
  Fe  Fe9  1  0.33256402  0.99695284  0.99937513  1
  Fe  Fe10  1  0.50162764  0.16371406  0.16787067  1
  Fe  Fe11  1  0.33263328  0.99862812  0.33193691  1
  Cr  Cr12  1  0.33200159  0.33097476  0.00068330  1
  Cr  Cr13  1  0.49937506  0.49953975  0.16567317  1
  Fe  Fe14  1  0.33094212  0.32956332  0.33144401  1
  Ni  Ni15  1  0.33280175  0.66945105  -0.00001185  1
  Fe  Fe16  1  0.50013049  0.83587759  0.16570096  1
  Cr  Cr17  1  0.33241493  0.66530803  0.33258793  1
  Fe  Fe18  1  0.66628008  0.99827862  -0.00012426  1
  Fe  Fe19  1  0.83255184  0.16405915  0.16720803  1
  Ni  Ni20  1  0.66769645  0.00011753  0.33098874  1
  Fe  Fe21  1  0.66848372  0.33135382  0.99791325  1
  Cr  Cr22  1  0.83360099  0.49829327  0.16581686  1
  Fe  Fe23  1  0.66834721  0.33240215  0.33293250  1
  Fe  Fe24  1  0.66516063  0.66980390  0.99881782  1
  Fe  Fe25  1  0.83313018  0.83668316  0.16768902  1
  Cr  Cr26  1  0.66930179  0.66990016  0.33652535  1
  Fe  Fe27  1  0.16453805  0.16398286  0.49720283  1
  Fe  Fe28  1  0.99779825  0.00017550  0.66765192  1
  Fe  Fe29  1  0.16279030  0.16343816  0.83402741  1
  Cr  Cr30  1  0.16492636  0.49898383  0.49841353  1
  Fe  Fe31  1  0.99685762  0.33162308  0.66744115  1
  Cr  Cr32  1  0.16580431  0.50137444  0.83384589  1
  Cr  Cr33  1  0.16350806  0.83406729  0.50126125  1
  Fe  Fe34  1  0.99484269  0.66768322  0.66682437  1
  Fe  Fe35  1  0.16548548  0.83376797  0.83356282  1
  Cr  Cr36  1  0.50098123  0.16629366  0.49510305  1
  Cr  Cr37  1  0.33213411  -0.00022570  0.66797132  1
  Fe  Fe38  1  0.50302037  0.16490146  0.83411663  1
  Fe  Fe39  1  0.50343428  0.50155516  0.50133834  1
  Cr  Cr40  1  0.33335442  0.33103957  0.66441774  1
  Cr  Cr41  1  0.50118891  0.50086112  0.83248570  1
  Ni  Ni42  1  0.50115929  0.83269580  0.49984803  1
  Fe  Fe43  1  0.33638845  0.66761089  0.66627652  1
  Fe  Fe44  1  0.50020636  0.83260539  0.83462739  1
  Cr  Cr45  1  0.83436689  0.16508130  0.49801647  1
  Cr  Cr46  1  0.66758591  0.99809461  0.66636689  1
  Fe  Fe47  1  0.83332694  0.16752122  0.83344369  1
  Fe  Fe48  1  0.83225739  0.50168142  0.50063242  1
  Ni  Ni49  1  0.66906170  0.33567955  0.66707143  1
  Fe  Fe50  1  0.83252173  0.50060333  0.83262083  1
  Ni  Ni51  1  0.83372003  0.83323842  0.49807448  1
  Fe  Fe52  1  0.66803761  0.66678033  0.66477051  1
  Ni  Ni53  1  0.83389887  0.83534693  0.83373686  1
" 