2891,Ni16Fe12Cr70_18,-210.043418400291, 175.698754870546,Ni16Fe12Cr70,"# generated using pymatgen
 data_Cr20Fe3Ni4
_symmetry_space_group_name_H-M   'P 1'
_cell_length_a   7.56524498
_cell_length_b   7.56524498
_cell_length_c   10.69887206
_cell_angle_alpha   90.00000000
_cell_angle_beta   90.00000000
_cell_angle_gamma   90.00000000
_symmetry_Int_Tables_number   1
_chemical_formula_structural   Cr20Fe3Ni4
_chemical_formula_sum   'Cr40 Fe6 Ni8'
_cell_volume   612.32781279
_cell_formula_units_Z   2
loop_
 _symmetry_equiv_pos_site_id
 _symmetry_equiv_pos_as_xyz
  1  'x, y, z'
loop_
 _atom_site_type_symbol
 _atom_site_label
 _atom_site_symmetry_multiplicity
 _atom_site_fract_x
 _atom_site_fract_y
 _atom_site_fract_z
 _atom_site_occupancy
  Ni  Ni0  1  0.99335927  0.99326838  0.99191908  1
  Cr  Cr1  1  0.15968786  0.16025705  0.15908360  1
  Cr  Cr2  1  -0.00522893  0.99319875  0.32790552  1
  Cr  Cr3  1  0.99343642  0.32647770  0.99242161  1
  Ni  Ni4  1  0.16157480  0.49473973  0.16091869  1
  Cr  Cr5  1  -0.00568310  0.32753224  0.32734521  1
  Cr  Cr6  1  -0.00617890  0.66105858  -0.00602024  1
  Fe  Fe7  1  0.15967257  0.82559009  0.15973791  1
  Cr  Cr8  1  -0.00420649  0.65979807  0.32499454  1
  Cr  Cr9  1  0.32538894  -0.00624782  -0.00625092  1
  Fe  Fe10  1  0.49319008  0.16064227  0.16016479  1
  Cr  Cr11  1  0.32649140  0.99285668  0.32691453  1
  Cr  Cr12  1  0.32638886  0.32633058  -0.00643986  1
  Cr  Cr13  1  0.49121829  0.49326387  0.16068192  1
  Cr  Cr14  1  0.32697129  0.32788877  0.32774624  1
  Cr  Cr15  1  0.32524616  0.66044642  -0.00318205  1
  Cr  Cr16  1  0.49218210  0.82723288  0.16045777  1
  Fe  Fe17  1  0.32652215  0.65892920  0.32643222  1
  Cr  Cr18  1  0.66131451  -0.00586241  0.99335378  1
  Cr  Cr19  1  0.82649020  0.15928695  0.16005390  1
  Cr  Cr20  1  0.65926394  -0.00566314  0.32634179  1
  Cr  Cr21  1  0.66070388  0.32633042  -0.00596025  1
  Cr  Cr22  1  0.82838769  0.49277508  0.16020213  1
  Cr  Cr23  1  0.65923996  0.32687584  0.32627621  1
  Cr  Cr24  1  0.66146600  0.66006191  0.99082872  1
  Cr  Cr25  1  0.82816358  0.82846791  0.15998455  1
  Cr  Cr26  1  0.65890921  0.65931825  0.32869404  1
  Ni  Ni27  1  0.16123126  0.16132313  0.49475024  1
  Cr  Cr28  1  -0.00585039  0.99322045  0.66085906  1
  Ni  Ni29  1  0.15824127  0.16051876  0.82655807  1
  Cr  Cr30  1  0.16207328  0.49210410  0.49391162  1
  Cr  Cr31  1  -0.00470979  0.32700510  0.66075656  1
  Cr  Cr32  1  0.15962075  0.49135670  0.82597312  1
  Cr  Cr33  1  0.15973013  0.82724650  0.49268936  1
  Ni  Ni34  1  0.99075406  0.66019760  0.66167180  1
  Cr  Cr35  1  0.15721623  0.82843999  0.82794060  1
  Cr  Cr36  1  0.49154431  0.16205386  0.49329428  1
  Cr  Cr37  1  0.32554091  -0.00383496  0.65986718  1
  Cr  Cr38  1  0.49188852  0.16108819  0.82760354  1
  Ni  Ni39  1  0.49255829  0.49375086  0.49417168  1
  Ni  Ni40  1  0.32657802  0.32679662  0.65913840  1
  Cr  Cr41  1  0.49397057  0.49326805  0.82513770  1
  Cr  Cr42  1  0.49408081  0.82445555  0.49401885  1
  Cr  Cr43  1  0.32747114  0.65860881  0.65863421  1
  Cr  Cr44  1  0.49601648  0.82617313  0.82605715  1
  Cr  Cr45  1  0.82864021  0.15970913  0.49160922  1
  Cr  Cr46  1  0.66083888  0.99184498  0.66083389  1
  Fe  Fe47  1  0.82922891  0.15843899  0.82770767  1
  Cr  Cr48  1  0.82584335  0.49464280  0.49443867  1
  Cr  Cr49  1  0.65914410  0.32893735  0.66020759  1
  Fe  Fe50  1  0.82769762  0.49519976  0.82567511  1
  Cr  Cr51  1  0.82672247  0.82617769  0.49460765  1
  Fe  Fe52  1  0.66175735  0.65941326  0.66053816  1
  Ni  Ni53  1  0.82773776  0.82654764  0.82628144  1
" 