787,Ni16Fe12Cr70_8,-210.131941682863, 176.237681777728,Ni16Fe12Cr70,"# generated using pymatgen
 data_Cr20Fe3Ni4
_symmetry_space_group_name_H-M   'P 1'
_cell_length_a   7.56915700
_cell_length_b   7.56915700
_cell_length_c   10.70440448
_cell_angle_alpha   90.00000000
_cell_angle_beta   90.00000000
_cell_angle_gamma   90.00000000
_symmetry_Int_Tables_number   1
_chemical_formula_structural   Cr20Fe3Ni4
_chemical_formula_sum   'Cr40 Fe6 Ni8'
_cell_volume   613.27821534
_cell_formula_units_Z   2
loop_
 _symmetry_equiv_pos_site_id
 _symmetry_equiv_pos_as_xyz
  1  'x, y, z'
loop_
 _atom_site_type_symbol
 _atom_site_label
 _atom_site_symmetry_multiplicity
 _atom_site_fract_x
 _atom_site_fract_y
 _atom_site_fract_z
 _atom_site_occupancy
  Cr  Cr0  1  -0.00613547  -0.00444368  -0.00412595  1
  Ni  Ni1  1  0.16022097  0.15992956  0.16238036  1
  Ni  Ni2  1  -0.00137664  -0.00445878  0.32698707  1
  Cr  Cr3  1  -0.00649806  0.32829726  0.99094133  1
  Cr  Cr4  1  0.16038063  0.49135369  0.16161199  1
  Cr  Cr5  1  -0.00340993  0.32523768  0.32788730  1
  Fe  Fe6  1  -0.00563517  0.65941255  0.99185480  1
  Cr  Cr7  1  0.15869723  0.82770985  0.16029120  1
  Cr  Cr8  1  -0.00407634  0.65966220  0.32903440  1
  Cr  Cr9  1  0.32751078  0.99252736  -0.00492692  1
  Cr  Cr10  1  0.49080908  0.16262492  0.16005079  1
  Cr  Cr11  1  0.32763691  0.99241373  0.32425498  1
  Cr  Cr12  1  0.32294581  0.32700815  -0.00547557  1
  Cr  Cr13  1  0.49324840  0.49323783  0.16094558  1
  Fe  Fe14  1  0.32459472  0.32306597  0.32804244  1
  Cr  Cr15  1  0.32628436  0.66020062  -0.00633902  1
  Ni  Ni16  1  0.49347297  0.82510150  0.15856132  1
  Cr  Cr17  1  0.32623235  0.65986337  0.32748857  1
  Cr  Cr18  1  0.65849771  0.99213571  -0.00489475  1
  Cr  Cr19  1  0.82971101  0.16016809  0.16152622  1
  Cr  Cr20  1  0.65869614  0.99322931  0.32649868  1
  Fe  Fe21  1  0.65972352  0.32682410  0.99241347  1
  Cr  Cr22  1  0.82611248  0.49360128  0.15799734  1
  Cr  Cr23  1  0.65908099  0.32469138  0.32764787  1
  Fe  Fe24  1  0.66027003  0.65985335  -0.00674283  1
  Cr  Cr25  1  0.82850119  0.82581693  0.16149375  1
  Cr  Cr26  1  0.65819769  0.66198269  0.32536915  1
  Ni  Ni27  1  0.16321115  0.15829956  0.49124994  1
  Cr  Cr28  1  -0.00463407  -0.00527795  0.65777644  1
  Cr  Cr29  1  0.16191303  0.15852517  0.82641978  1
  Fe  Fe30  1  0.16063423  0.49011468  0.49303991  1
  Cr  Cr31  1  -0.00566231  0.32826816  0.66173458  1
  Ni  Ni32  1  0.15745705  0.49467400  0.82676535  1
  Fe  Fe33  1  0.16123383  0.83123786  0.49288953  1
  Cr  Cr34  1  -0.00520901  0.65680785  0.66021209  1
  Cr  Cr35  1  0.15997485  0.82741706  0.82505782  1
  Ni  Ni36  1  0.48547486  0.15919715  0.49365511  1
  Ni  Ni37  1  0.32443969  -0.00537463  0.65691619  1
  Cr  Cr38  1  0.49111304  0.16018487  0.82396054  1
  Cr  Cr39  1  0.49144187  0.49008323  0.49088432  1
  Cr  Cr40  1  0.32372568  0.32669173  0.65815160  1
  Cr  Cr41  1  0.49306597  0.49224800  0.82798937  1
  Cr  Cr42  1  0.49156297  0.82663569  0.49542338  1
  Cr  Cr43  1  0.32397217  0.66006333  0.65866210  1
  Cr  Cr44  1  0.49143746  0.82744257  0.82487015  1
  Cr  Cr45  1  0.82819374  0.15875648  0.49213164  1
  Cr  Cr46  1  0.65705553  -0.00568605  0.65776050  1
  Cr  Cr47  1  0.82594415  0.16045901  0.82671461  1
  Cr  Cr48  1  0.82620817  0.49362555  0.49266742  1
  Cr  Cr49  1  0.66158378  0.32654527  0.66038923  1
  Ni  Ni50  1  0.82800797  0.49543992  0.83070742  1
  Cr  Cr51  1  0.83062426  0.82733330  0.49149058  1
  Cr  Cr52  1  0.66110570  0.65905574  0.66039603  1
  Cr  Cr53  1  0.82819569  0.82595059  0.82707561  1
" 