5296,Ni16Fe12Cr70_1,-209.975978708533, 177.372124685552,Ni16Fe12Cr70,"# generated using pymatgen
 data_Cr20Fe3Ni4
_symmetry_space_group_name_H-M   'P 1'
_cell_length_a   7.56316693
_cell_length_b   7.56316693
_cell_length_c   10.69593324
_cell_angle_alpha   90.00000000
_cell_angle_beta   90.00000000
_cell_angle_gamma   90.00000000
_symmetry_Int_Tables_number   1
_chemical_formula_structural   Cr20Fe3Ni4
_chemical_formula_sum   'Cr40 Fe6 Ni8'
_cell_volume   611.82336083
_cell_formula_units_Z   2
loop_
 _symmetry_equiv_pos_site_id
 _symmetry_equiv_pos_as_xyz
  1  'x, y, z'
loop_
 _atom_site_type_symbol
 _atom_site_label
 _atom_site_symmetry_multiplicity
 _atom_site_fract_x
 _atom_site_fract_y
 _atom_site_fract_z
 _atom_site_occupancy
  Cr  Cr0  1  0.99298653  0.99316414  0.99034415  1
  Cr  Cr1  1  0.16010665  0.16073415  0.15858945  1
  Ni  Ni2  1  -0.00385725  0.99272254  0.32788307  1
  Cr  Cr3  1  0.99289426  0.32808568  0.99118968  1
  Fe  Fe4  1  0.16108335  0.49322727  0.15880101  1
  Cr  Cr5  1  -0.00535393  0.32826287  0.32597567  1
  Cr  Cr6  1  0.99323420  0.65983450  -0.00581057  1
  Cr  Cr7  1  0.15949158  0.82858895  0.16352845  1
  Cr  Cr8  1  -0.00444340  0.65925067  0.32567867  1
  Cr  Cr9  1  0.32724238  0.99305624  0.99186642  1
  Cr  Cr10  1  0.49397161  0.16218348  0.15831015  1
  Cr  Cr11  1  0.32840063  -0.00618477  0.32765114  1
  Fe  Fe12  1  0.32683837  0.32656058  0.99256854  1
  Cr  Cr13  1  0.49413622  0.49256038  0.15624535  1
  Cr  Cr14  1  0.32771435  0.32800589  0.32614815  1
  Cr  Cr15  1  0.32644176  0.66115232  -0.00625540  1
  Cr  Cr16  1  0.49517603  0.82580998  0.15697594  1
  Cr  Cr17  1  0.32724541  0.65925870  0.32804590  1
  Cr  Cr18  1  0.66041240  0.99343406  0.99077988  1
  Cr  Cr19  1  0.82714685  0.15989105  0.16220529  1
  Cr  Cr20  1  0.65832601  -0.00547294  0.32790233  1
  Ni  Ni21  1  0.66134439  0.32842143  0.99124102  1
  Cr  Cr22  1  0.82475191  0.49337864  0.15898267  1
  Cr  Cr23  1  0.65791400  0.32740214  0.33123281  1
  Fe  Fe24  1  0.66183867  0.65986966  0.99077857  1
  Cr  Cr25  1  0.82701193  0.82769057  0.16174437  1
  Cr  Cr26  1  0.65862803  0.65882577  0.32632612  1
  Cr  Cr27  1  0.15900144  0.15891697  0.49427388  1
  Cr  Cr28  1  0.99235237  -0.00628235  0.66396508  1
  Ni  Ni29  1  0.15971902  0.16053322  0.82790708  1
  Cr  Cr30  1  0.16117928  0.49494745  0.49590728  1
  Cr  Cr31  1  0.99150527  0.32753938  0.66499799  1
  Cr  Cr32  1  0.16162337  0.49203319  0.82695948  1
  Fe  Fe33  1  0.16090731  0.82757847  0.49433152  1
  Cr  Cr34  1  0.99323636  0.66005105  0.66153165  1
  Cr  Cr35  1  0.16193516  0.82704121  0.82365796  1
  Ni  Ni36  1  0.49124051  0.16146654  0.49321989  1
  Cr  Cr37  1  0.32868677  0.99305768  0.66104214  1
  Cr  Cr38  1  0.49172049  0.16183535  0.82836872  1
  Ni  Ni39  1  0.49088449  0.49372010  0.49528568  1
  Cr  Cr40  1  0.32755368  0.32596328  0.65923928  1
  Cr  Cr41  1  0.49485851  0.49436011  0.82757376  1
  Cr  Cr42  1  0.49352081  0.82542587  0.49602276  1
  Fe  Fe43  1  0.32918185  0.65999043  0.66096610  1
  Ni  Ni44  1  0.49681989  0.82584517  0.82774270  1
  Cr  Cr45  1  0.82787867  0.15880400  0.49218303  1
  Cr  Cr46  1  0.65967275  -0.00570093  0.66240616  1
  Fe  Fe47  1  0.82510148  0.16153876  0.82783884  1
  Cr  Cr48  1  0.82616542  0.49475981  0.49420306  1
  Cr  Cr49  1  0.66014230  0.32690278  0.65720562  1
  Ni  Ni50  1  0.82526464  0.49478878  0.82894054  1
  Cr  Cr51  1  0.82962302  0.82784113  0.49101267  1
  Cr  Cr52  1  0.66091488  0.66013230  0.66271188  1
  Ni  Ni53  1  0.82548775  0.82405678  0.82843686  1
" 