7664,Ni16Fe12Cr70_17,-209.977125014449, 175.402783494985,Ni16Fe12Cr70,"# generated using pymatgen
 data_Cr20Fe3Ni4
_symmetry_space_group_name_H-M   'P 1'
_cell_length_a   7.56967467
_cell_length_b   7.56967467
_cell_length_c   10.70513659
_cell_angle_alpha   90.00000000
_cell_angle_beta   90.00000000
_cell_angle_gamma   90.00000000
_symmetry_Int_Tables_number   1
_chemical_formula_structural   Cr20Fe3Ni4
_chemical_formula_sum   'Cr40 Fe6 Ni8'
_cell_volume   613.40405523
_cell_formula_units_Z   2
loop_
 _symmetry_equiv_pos_site_id
 _symmetry_equiv_pos_as_xyz
  1  'x, y, z'
loop_
 _atom_site_type_symbol
 _atom_site_label
 _atom_site_symmetry_multiplicity
 _atom_site_fract_x
 _atom_site_fract_y
 _atom_site_fract_z
 _atom_site_occupancy
  Cr  Cr0  1  -0.00635795  0.99308645  0.99298977  1
  Ni  Ni1  1  0.15519077  0.15598783  0.16235487  1
  Ni  Ni2  1  -0.00516126  0.99161804  0.32285805  1
  Cr  Cr3  1  -0.00519323  0.32427613  -0.00481773  1
  Cr  Cr4  1  0.15889057  0.49753590  0.15807117  1
  Cr  Cr5  1  -0.00332759  0.32580339  0.32528779  1
  Cr  Cr6  1  0.99141590  0.66251371  0.99253206  1
  Ni  Ni7  1  0.15578288  0.82779718  0.16102314  1
  Ni  Ni8  1  -0.00368203  0.66200482  0.32584892  1
  Cr  Cr9  1  0.32355458  -0.00561036  -0.00390104  1
  Cr  Cr10  1  0.49472332  0.15939159  0.15905149  1
  Cr  Cr11  1  0.32322800  -0.00437145  0.32543059  1
  Cr  Cr12  1  0.32379944  0.32500974  -0.00460801  1
  Cr  Cr13  1  0.49233446  0.49431189  0.15852325  1
  Cr  Cr14  1  0.32477130  0.32670460  0.32884650  1
  Fe  Fe15  1  0.32499146  0.66162884  -0.00581169  1
  Cr  Cr16  1  0.48880843  0.82600129  0.15958700  1
  Cr  Cr17  1  0.32608762  0.65843531  0.32697920  1
  Cr  Cr18  1  0.66260151  0.99100075  0.99305906  1
  Ni  Ni19  1  0.83083983  0.15587877  0.16095830  1
  Cr  Cr20  1  0.66137180  0.99218103  0.32387542  1
  Cr  Cr21  1  0.66154350  0.32660133  -0.00464392  1
  Cr  Cr22  1  0.82853473  0.49234965  0.16169448  1
  Cr  Cr23  1  0.65855155  0.32738406  0.32546961  1
  Cr  Cr24  1  0.66110668  0.66169719  0.99302823  1
  Fe  Fe25  1  0.83068884  0.82717860  0.16189132  1
  Cr  Cr26  1  0.66103987  0.65997934  0.32740377  1
  Fe  Fe27  1  0.15767993  0.15988952  0.49193657  1
  Cr  Cr28  1  -0.00623768  0.99270832  0.66094039  1
  Cr  Cr29  1  0.16101181  0.16085960  0.82488018  1
  Ni  Ni30  1  0.16190504  0.49432028  0.49476028  1
  Cr  Cr31  1  -0.00394023  0.32707322  0.65916337  1
  Cr  Cr32  1  0.16101625  0.49515768  0.82804607  1
  Cr  Cr33  1  0.15925287  0.82469879  0.49150102  1
  Cr  Cr34  1  -0.00647618  0.65956986  0.66063611  1
  Cr  Cr35  1  0.16178809  0.82475041  0.82653676  1
  Cr  Cr36  1  0.49456742  0.16078804  0.49569342  1
  Cr  Cr37  1  0.32466711  -0.00600935  0.65821158  1
  Cr  Cr38  1  0.49381387  0.16096776  0.82583424  1
  Fe  Fe39  1  0.49153979  0.49321611  0.49553307  1
  Fe  Fe40  1  0.32707076  0.32996101  0.65762209  1
  Cr  Cr41  1  0.49164387  0.49296093  0.82716217  1
  Cr  Cr42  1  0.49094997  0.82705922  0.49334227  1
  Ni  Ni43  1  0.32632267  0.65573718  0.65905656  1
  Cr  Cr44  1  0.48936917  0.82612601  0.82706000  1
  Cr  Cr45  1  0.82644415  0.15974263  0.49259409  1
  Cr  Cr46  1  0.66052346  0.99107501  0.66257878  1
  Cr  Cr47  1  0.82543576  0.16175776  0.82521180  1
  Cr  Cr48  1  0.82968435  0.49223638  0.49163746  1
  Ni  Ni49  1  0.65681189  0.32896577  0.65900678  1
  Cr  Cr50  1  0.82701024  0.49087301  0.82628180  1
  Cr  Cr51  1  0.82971700  0.82784361  0.49026983  1
  Cr  Cr52  1  0.65929387  0.65930103  0.65922493  1
  Fe  Fe53  1  0.82694298  0.82593781  0.82624000  1
" 