1867,Ni16Fe12Cr70_14,-209.973064680875, 176.873434123351,Ni16Fe12Cr70,"# generated using pymatgen
 data_Cr20Fe3Ni4
_symmetry_space_group_name_H-M   'P 1'
_cell_length_a   7.56583894
_cell_length_b   7.56583894
_cell_length_c   10.69971204
_cell_angle_alpha   90.00000000
_cell_angle_beta   90.00000000
_cell_angle_gamma   90.00000000
_symmetry_Int_Tables_number   1
_chemical_formula_structural   Cr20Fe3Ni4
_chemical_formula_sum   'Cr40 Fe6 Ni8'
_cell_volume   612.47204903
_cell_formula_units_Z   2
loop_
 _symmetry_equiv_pos_site_id
 _symmetry_equiv_pos_as_xyz
  1  'x, y, z'
loop_
 _atom_site_type_symbol
 _atom_site_label
 _atom_site_symmetry_multiplicity
 _atom_site_fract_x
 _atom_site_fract_y
 _atom_site_fract_z
 _atom_site_occupancy
  Cr  Cr0  1  0.99264191  -0.00524122  -0.00332888  1
  Cr  Cr1  1  0.16375534  0.16046825  0.16106429  1
  Cr  Cr2  1  -0.00619710  0.99321377  0.32694761  1
  Cr  Cr3  1  -0.00519177  0.32844166  0.99344523  1
  Ni  Ni4  1  0.16306873  0.49234642  0.15800367  1
  Cr  Cr5  1  0.99294945  0.32743605  0.32631401  1
  Cr  Cr6  1  -0.00497399  0.65697605  0.99327691  1
  Cr  Cr7  1  0.16251187  0.82551315  0.16024958  1
  Cr  Cr8  1  0.99313247  0.65978113  0.32570663  1
  Cr  Cr9  1  0.32968309  -0.00574374  0.99285889  1
  Cr  Cr10  1  0.49326997  0.16225982  0.15956304  1
  Ni  Ni11  1  0.32974269  0.99268559  0.32772502  1
  Fe  Fe12  1  0.32739610  0.32940136  0.99196356  1
  Cr  Cr13  1  0.49430906  0.49324479  0.16335270  1
  Cr  Cr14  1  0.32709531  0.32752052  0.32670647  1
  Cr  Cr15  1  0.32794473  0.65780805  0.99211231  1
  Cr  Cr16  1  0.49396959  0.82540424  0.16150244  1
  Cr  Cr17  1  0.32913073  0.66094223  0.32890830  1
  Cr  Cr18  1  0.65788025  -0.00607738  0.99066082  1
  Cr  Cr19  1  0.82338540  0.16210565  0.16163782  1
  Cr  Cr20  1  0.65916496  0.99266583  0.32710106  1
  Cr  Cr21  1  0.65781943  0.32715360  0.99102543  1
  Cr  Cr22  1  0.82340439  0.49431405  0.16168946  1
  Ni  Ni23  1  0.65775305  0.32999297  0.32842347  1
  Cr  Cr24  1  0.65730100  0.65920207  0.99124609  1
  Cr  Cr25  1  0.82444428  0.82409324  0.15979247  1
  Ni  Ni26  1  0.65828010  0.65930642  0.33076118  1
  Cr  Cr27  1  0.16295817  0.15950004  0.49363941  1
  Cr  Cr28  1  0.99054554  0.99295928  0.65669442  1
  Cr  Cr29  1  0.16169935  0.16015679  0.82593132  1
  Cr  Cr30  1  0.16243057  0.49383783  0.49474968  1
  Cr  Cr31  1  -0.00593686  0.32891776  0.66093613  1
  Ni  Ni32  1  0.16662311  0.49247002  0.82825384  1
  Cr  Cr33  1  0.16055437  0.82706101  0.49357314  1
  Cr  Cr34  1  -0.00641505  0.65823534  0.66149249  1
  Cr  Cr35  1  0.16025893  0.82595341  0.82657112  1
  Cr  Cr36  1  0.49399348  0.16219412  0.49297236  1
  Cr  Cr37  1  0.33209355  0.99207789  0.65940699  1
  Fe  Fe38  1  0.49269634  0.16119041  0.82566252  1
  Fe  Fe39  1  0.49553093  0.49457268  0.49260383  1
  Cr  Cr40  1  0.32822340  0.32905281  0.66214127  1
  Ni  Ni41  1  0.49205561  0.49212749  0.82649744  1
  Fe  Fe42  1  0.49623610  0.82747926  0.49240127  1
  Cr  Cr43  1  0.32999178  0.65929653  0.65984488  1
  Fe  Fe44  1  0.49291665  0.82532704  0.82572141  1
  Cr  Cr45  1  0.82370060  0.16032488  0.49397742  1
  Ni  Ni46  1  0.65678412  0.99129233  0.66069698  1
  Cr  Cr47  1  0.82499338  0.15900052  0.82444959  1
  Cr  Cr48  1  0.82314451  0.49533106  0.49254157  1
  Cr  Cr49  1  0.65830726  0.32710569  0.66130086  1
  Fe  Fe50  1  0.82696463  0.49342338  0.82660286  1
  Ni  Ni51  1  0.82033053  0.82564487  0.49362801  1
  Cr  Cr52  1  0.65727871  0.66127481  0.66006549  1
  Cr  Cr53  1  0.82581537  0.82642427  0.82638019  1
" 