5723,Ni16Fe77Cr6_16,-229.780821167155, 172.322508496077,Ni16Fe77Cr6,"# generated using pymatgen
 data_Cr4Fe41Ni9
_symmetry_space_group_name_H-M   'P 1'
_cell_length_a   7.42179199
_cell_length_b   7.42179199
_cell_length_c   10.49599889
_cell_angle_alpha   90.00000000
_cell_angle_beta   90.00000000
_cell_angle_gamma   90.00000000
_symmetry_Int_Tables_number   1
_chemical_formula_structural   Cr4Fe41Ni9
_chemical_formula_sum   'Cr4 Fe41 Ni9'
_cell_volume   578.15106775
_cell_formula_units_Z   1
loop_
 _symmetry_equiv_pos_site_id
 _symmetry_equiv_pos_as_xyz
  1  'x, y, z'
loop_
 _atom_site_type_symbol
 _atom_site_label
 _atom_site_symmetry_multiplicity
 _atom_site_fract_x
 _atom_site_fract_y
 _atom_site_fract_z
 _atom_site_occupancy
  Fe  Fe0  1  0.00354835  1.00262243  0.00320174  1
  Ni  Ni1  1  0.16962548  0.16876948  0.16908504  1
  Fe  Fe2  1  1.00292390  1.00230404  0.33599641  1
  Fe  Fe3  1  0.00418919  0.33679427  0.00314427  1
  Fe  Fe4  1  0.17095874  0.50343209  0.16810930  1
  Cr  Cr5  1  1.00207171  0.33533746  0.33510471  1
  Fe  Fe6  1  0.00358281  0.66972853  1.00257386  1
  Fe  Fe7  1  0.17021809  0.83690416  0.16962217  1
  Fe  Fe8  1  1.00225015  0.67048222  0.33675721  1
  Fe  Fe9  1  0.33528810  1.00204580  1.00275538  1
  Cr  Cr10  1  0.50196552  0.17047377  0.17006465  1
  Fe  Fe11  1  0.33558164  0.00327290  0.33694029  1
  Fe  Fe12  1  0.33523068  0.33795410  1.00192139  1
  Fe  Fe13  1  0.50254376  0.50407529  0.16923625  1
  Fe  Fe14  1  0.33737968  0.33680941  0.33696767  1
  Ni  Ni15  1  0.33665064  0.66999583  0.00375629  1
  Fe  Fe16  1  0.50215885  0.83514302  0.16952742  1
  Fe  Fe17  1  0.33670917  0.66906532  0.33598906  1
  Fe  Fe18  1  0.67030740  1.00144087  1.00150615  1
  Fe  Fe19  1  0.83740350  0.16918626  0.16918265  1
  Fe  Fe20  1  0.67063939  1.00298349  0.33760001  1
  Fe  Fe21  1  0.66972792  0.33792207  1.00272165  1
  Fe  Fe22  1  0.83564272  0.50273148  0.16995685  1
  Ni  Ni23  1  0.67023108  0.33677144  0.33777591  1
  Fe  Fe24  1  0.66914881  0.66978499  1.00209356  1
  Fe  Fe25  1  0.83677033  0.83722764  0.16916912  1
  Fe  Fe26  1  0.67018505  0.66868474  0.33713854  1
  Fe  Fe27  1  0.17082260  0.16859718  0.50247597  1
  Fe  Fe28  1  1.00198634  1.00055100  0.66994402  1
  Fe  Fe29  1  0.17048672  0.16950254  0.83766843  1
  Fe  Fe30  1  0.16991936  0.50389439  0.50277483  1
  Cr  Cr31  1  1.00269565  0.33663512  0.67001788  1
  Ni  Ni32  1  0.17072990  0.50288127  0.83785762  1
  Fe  Fe33  1  0.16843930  0.83665390  0.50207148  1
  Fe  Fe34  1  1.00016378  0.67156649  0.66981757  1
  Fe  Fe35  1  0.16915792  0.83582303  0.83745665  1
  Fe  Fe36  1  0.50403748  0.17020666  0.50280782  1
  Fe  Fe37  1  0.33719439  0.00444116  0.66945133  1
  Fe  Fe38  1  0.50334687  0.16999074  0.83621166  1
  Fe  Fe39  1  0.50483820  0.50218935  0.50262177  1
  Fe  Fe40  1  0.33885956  0.33519806  0.67026272  1
  Ni  Ni41  1  0.50306872  0.50148047  0.83682198  1
  Fe  Fe42  1  0.50471324  0.83675330  0.50268558  1
  Cr  Cr43  1  0.33728580  0.66978044  0.67039180  1
  Fe  Fe44  1  0.50409132  0.83591780  0.83693759  1
  Fe  Fe45  1  0.83428655  0.16872732  0.50296014  1
  Ni  Ni46  1  0.66986189  1.00236166  0.66969675  1
  Fe  Fe47  1  0.83531321  0.16911361  0.83700133  1
  Ni  Ni48  1  0.83443659  0.50557763  0.50413182  1
  Fe  Fe49  1  0.66790654  0.33702985  0.66905194  1
  Fe  Fe50  1  0.83540980  0.50456297  0.83637165  1
  Fe  Fe51  1  0.83599389  0.83585622  0.50416328  1
  Ni  Ni52  1  0.67016061  0.67101372  0.67009092  1
  Ni  Ni53  1  0.83649815  0.83638804  0.83499493  1
" 