2265,Ni16Fe77Cr6_18,-229.342829657577, 173.91534488035,Ni16Fe77Cr6,"# generated using pymatgen
 data_Cr4Fe41Ni9
_symmetry_space_group_name_H-M   'P 1'
_cell_length_a   7.41451360
_cell_length_b   7.41451360
_cell_length_c   10.48570568
_cell_angle_alpha   90.00000000
_cell_angle_beta   90.00000000
_cell_angle_gamma   90.00000000
_symmetry_Int_Tables_number   1
_chemical_formula_structural   Cr4Fe41Ni9
_chemical_formula_sum   'Cr4 Fe41 Ni9'
_cell_volume   576.45179433
_cell_formula_units_Z   1
loop_
 _symmetry_equiv_pos_site_id
 _symmetry_equiv_pos_as_xyz
  1  'x, y, z'
loop_
 _atom_site_type_symbol
 _atom_site_label
 _atom_site_symmetry_multiplicity
 _atom_site_fract_x
 _atom_site_fract_y
 _atom_site_fract_z
 _atom_site_occupancy
  Fe  Fe0  1  1.00164300  1.00189494  0.00473228  1
  Fe  Fe1  1  0.17109127  0.16807197  0.17207267  1
  Ni  Ni2  1  1.00320073  1.00347951  0.33623150  1
  Cr  Cr3  1  1.00214274  0.33540075  0.00374739  1
  Fe  Fe4  1  0.17088536  0.50488647  0.17100035  1
  Fe  Fe5  1  1.00250792  0.33673472  0.33514609  1
  Ni  Ni6  1  0.00474775  0.67077611  0.00410829  1
  Fe  Fe7  1  0.16966763  0.83797743  0.16948772  1
  Fe  Fe8  1  1.00336071  0.67113737  0.33621930  1
  Fe  Fe9  1  0.33717666  1.00339241  1.00309707  1
  Fe  Fe10  1  0.50435459  0.16938555  0.16974692  1
  Fe  Fe11  1  0.33787425  1.00237397  0.33583932  1
  Fe  Fe12  1  0.33812522  0.33791839  1.00342342  1
  Fe  Fe13  1  0.50389734  0.50234777  0.17117250  1
  Fe  Fe14  1  0.33728663  0.33673806  0.33614803  1
  Fe  Fe15  1  0.33518551  0.66959386  0.00358607  1
  Ni  Ni16  1  0.50261844  0.83658676  0.16969605  1
  Fe  Fe17  1  0.33642922  0.67162725  0.33687586  1
  Fe  Fe18  1  0.67153538  0.00534089  0.00378804  1
  Ni  Ni19  1  0.83638006  0.17027036  0.17096862  1
  Fe  Fe20  1  0.67053278  1.00348485  0.33609675  1
  Ni  Ni21  1  0.66930297  0.33553685  0.00381157  1
  Fe  Fe22  1  0.83553902  0.50425458  0.17104100  1
  Fe  Fe23  1  0.67105440  0.33542152  0.33580076  1
  Cr  Cr24  1  0.67038239  0.67008896  1.00235878  1
  Fe  Fe25  1  0.83707544  0.83834090  0.17018806  1
  Fe  Fe26  1  0.67063237  0.67181363  0.33634972  1
  Cr  Cr27  1  0.17102541  0.17001121  0.50434778  1
  Fe  Fe28  1  1.00273529  1.00127842  0.67073724  1
  Fe  Fe29  1  0.17085538  0.16714214  0.83531513  1
  Fe  Fe30  1  0.16991450  0.50399345  0.50237261  1
  Fe  Fe31  1  1.00277897  0.33825895  0.67145858  1
  Fe  Fe32  1  0.16990668  0.50405246  0.83726735  1
  Fe  Fe33  1  0.16925927  0.83706533  0.50289930  1
  Fe  Fe34  1  1.00201050  0.67057953  0.67148364  1
  Ni  Ni35  1  0.16829620  0.83641498  0.83840814  1
  Ni  Ni36  1  0.50447453  0.17042145  0.50200154  1
  Fe  Fe37  1  0.33916149  0.00496915  0.67203787  1
  Ni  Ni38  1  0.50354563  0.17207789  0.83825432  1
  Fe  Fe39  1  0.50449640  0.50148260  0.50215904  1
  Fe  Fe40  1  0.33910111  0.33567071  0.67119469  1
  Fe  Fe41  1  0.50392280  0.50251720  0.83695192  1
  Fe  Fe42  1  0.50439199  0.83914775  0.50128549  1
  Cr  Cr43  1  0.33808111  0.67207378  0.67055088  1
  Fe  Fe44  1  0.50363868  0.84089377  0.83802953  1
  Fe  Fe45  1  0.83502894  0.16982606  0.50208151  1
  Fe  Fe46  1  0.66886544  0.00358228  0.67072101  1
  Fe  Fe47  1  0.83514047  0.16730445  0.83683414  1
  Fe  Fe48  1  0.83631295  0.50227815  0.50353261  1
  Fe  Fe49  1  0.66888013  0.33604527  0.67096114  1
  Fe  Fe50  1  0.83670261  0.50355796  0.83575290  1
  Fe  Fe51  1  0.83699066  0.83852921  0.50401638  1
  Fe  Fe52  1  0.67263346  0.67107999  0.67053154  1
  Ni  Ni53  1  0.83852258  0.83617301  0.83738252  1
" 