1202,Ni16Fe84_3,-242.462021321144, 202.260230609878,Ni16Fe84,"# generated using pymatgen
 data_Fe4Ni23
_symmetry_space_group_name_H-M   'P 1'
_cell_length_a   7.43089304
_cell_length_b   7.43089304
_cell_length_c   10.50886971
_cell_angle_alpha   90.00000000
_cell_angle_beta   90.00000000
_cell_angle_gamma   90.00000000
_symmetry_Int_Tables_number   1
_chemical_formula_structural   Fe4Ni23
_chemical_formula_sum   'Fe8 Ni46'
_cell_volume   580.28056785
_cell_formula_units_Z   2
loop_
 _symmetry_equiv_pos_site_id
 _symmetry_equiv_pos_as_xyz
  1  'x, y, z'
loop_
 _atom_site_type_symbol
 _atom_site_label
 _atom_site_symmetry_multiplicity
 _atom_site_fract_x
 _atom_site_fract_y
 _atom_site_fract_z
 _atom_site_occupancy
  Ni  Ni0  1  0.00270931  1.00236299  1.00218423  1
  Fe  Fe1  1  0.16926013  0.16937676  0.16921688  1
  Ni  Ni2  1  0.00258512  0.00307588  0.33596987  1
  Fe  Fe3  1  0.00246898  0.33610624  1.00238734  1
  Ni  Ni4  1  0.16987356  0.50330785  0.16933778  1
  Ni  Ni5  1  1.00235635  0.33401013  0.33562493  1
  Ni  Ni6  1  0.00264087  0.67017734  0.00261648  1
  Ni  Ni7  1  0.16875947  0.83465568  0.16914536  1
  Fe  Fe8  1  1.00148584  0.66806968  0.33561516  1
  Ni  Ni9  1  0.33505809  0.00244261  0.00333674  1
  Ni  Ni10  1  0.50363777  0.16958163  0.16906492  1
  Fe  Fe11  1  0.33685342  0.00323136  0.33592947  1
  Ni  Ni12  1  0.33644798  0.33584573  1.00179488  1
  Ni  Ni13  1  0.50148501  0.50164070  0.16896780  1
  Ni  Ni14  1  0.33560000  0.33697977  0.33673695  1
  Ni  Ni15  1  0.33577654  0.66905080  1.00203792  1
  Ni  Ni16  1  0.50253836  0.83625576  0.16907068  1
  Ni  Ni17  1  0.33626561  0.66878915  0.33575913  1
  Ni  Ni18  1  0.66948767  0.00276419  1.00165455  1
  Ni  Ni19  1  0.83442998  0.16841226  0.16917896  1
  Ni  Ni20  1  0.67070454  1.00239417  0.33666559  1
  Ni  Ni21  1  0.66859497  0.33588016  0.00307865  1
  Ni  Ni22  1  0.83587077  0.50212627  0.16882746  1
  Ni  Ni23  1  0.66930355  0.33605305  0.33567277  1
  Ni  Ni24  1  0.66883473  0.66862737  0.00271958  1
  Ni  Ni25  1  0.83603312  0.83665791  0.16901952  1
  Ni  Ni26  1  0.66764243  0.66877989  0.33533882  1
  Ni  Ni27  1  0.16918837  0.16909744  0.50212751  1
  Ni  Ni28  1  0.00406765  0.00315784  0.66920112  1
  Ni  Ni29  1  0.16912214  0.16915899  0.83638105  1
  Ni  Ni30  1  0.16936966  0.50304698  0.50273386  1
  Ni  Ni31  1  1.00134289  0.33460570  0.66922080  1
  Ni  Ni32  1  0.16968683  0.50330195  0.83508592  1
  Ni  Ni33  1  0.16798747  0.83520987  0.50220265  1
  Ni  Ni34  1  0.00258604  0.66950763  0.66811248  1
  Ni  Ni35  1  0.16850017  0.83513267  0.83588617  1
  Ni  Ni36  1  0.50309398  0.17024419  0.50311602  1
  Ni  Ni37  1  0.33434830  1.00201879  0.66867141  1
  Ni  Ni38  1  0.50289911  0.16951229  0.83541239  1
  Ni  Ni39  1  0.50207723  0.50143552  0.50221547  1
  Fe  Fe40  1  0.33484718  0.33633507  0.66916562  1
  Ni  Ni41  1  0.50152219  0.50199736  0.83620362  1
  Fe  Fe42  1  0.50245957  0.83506389  0.50251776  1
  Ni  Ni43  1  0.33626110  0.67032624  0.66950491  1
  Ni  Ni44  1  0.50247935  0.83579550  0.83587619  1
  Ni  Ni45  1  0.83527967  0.16863503  0.50263759  1
  Fe  Fe46  1  0.66995156  1.00159573  0.66931631  1
  Ni  Ni47  1  0.83525292  0.16819653  0.83552639  1
  Ni  Ni48  1  0.83561029  0.50248223  0.50222977  1
  Ni  Ni49  1  0.66952474  0.33636901  0.66842471  1
  Fe  Fe50  1  0.83552454  0.50283911  0.83540324  1
  Ni  Ni51  1  0.83682142  0.83589081  0.50226106  1
  Ni  Ni52  1  0.66839259  0.66747545  0.66914476  1
  Ni  Ni53  1  0.83646580  0.83627977  0.83583574  1
" 