6107,Ni16Fe77Cr6_6,-229.492682447845, 173.281278404888,Ni16Fe77Cr6,"# generated using pymatgen
 data_Cr4Fe41Ni9
_symmetry_space_group_name_H-M   'P 1'
_cell_length_a   7.41724779
_cell_length_b   7.41724779
_cell_length_c   10.48957242
_cell_angle_alpha   90.00000000
_cell_angle_beta   90.00000000
_cell_angle_gamma   90.00000000
_symmetry_Int_Tables_number   1
_chemical_formula_structural   Cr4Fe41Ni9
_chemical_formula_sum   'Cr4 Fe41 Ni9'
_cell_volume   577.08975082
_cell_formula_units_Z   1
loop_
 _symmetry_equiv_pos_site_id
 _symmetry_equiv_pos_as_xyz
  1  'x, y, z'
loop_
 _atom_site_type_symbol
 _atom_site_label
 _atom_site_symmetry_multiplicity
 _atom_site_fract_x
 _atom_site_fract_y
 _atom_site_fract_z
 _atom_site_occupancy
  Fe  Fe0  1  1.00164955  1.00311444  1.00238226  1
  Cr  Cr1  1  0.16932611  0.17127552  0.17071835  1
  Fe  Fe2  1  1.00181071  1.00231774  0.33728662  1
  Fe  Fe3  1  1.00205852  0.33741776  1.00301050  1
  Ni  Ni4  1  0.17018434  0.50459555  0.17104497  1
  Fe  Fe5  1  1.00290899  0.33719574  0.33625446  1
  Fe  Fe6  1  1.00300681  0.66954518  0.00373161  1
  Fe  Fe7  1  0.16929955  0.83488398  0.17010511  1
  Ni  Ni8  1  0.00418193  0.67054092  0.33512972  1
  Fe  Fe9  1  0.33712439  0.00380062  1.00301913  1
  Fe  Fe10  1  0.50509976  0.17074966  0.17018506  1
  Fe  Fe11  1  0.33798378  1.00199466  0.33775779  1
  Fe  Fe12  1  0.33775447  0.33777371  1.00320461  1
  Fe  Fe13  1  0.50336429  0.50235105  0.17014487  1
  Ni  Ni14  1  0.33675414  0.33731656  0.33776321  1
  Fe  Fe15  1  0.33612801  0.66850307  0.00426851  1
  Fe  Fe16  1  0.50358152  0.83697369  0.17031301  1
  Fe  Fe17  1  0.33692817  0.66977753  0.33646619  1
  Fe  Fe18  1  0.67129563  0.00474133  0.00408406  1
  Ni  Ni19  1  0.83500107  0.17012088  0.17073446  1
  Ni  Ni20  1  0.67011511  1.00318650  0.33642052  1
  Ni  Ni21  1  0.66970909  0.33618012  0.00354193  1
  Fe  Fe22  1  0.83722072  0.50288988  0.17041733  1
  Fe  Fe23  1  0.66948231  0.33613203  0.33511318  1
  Fe  Fe24  1  0.67094172  0.66891038  0.00420718  1
  Fe  Fe25  1  0.83719280  0.83662548  0.17033522  1
  Ni  Ni26  1  0.67065732  0.67175631  0.33552187  1
  Fe  Fe27  1  0.16939714  0.17134437  0.50229859  1
  Fe  Fe28  1  1.00107451  1.00314949  0.67040502  1
  Fe  Fe29  1  0.16900635  0.17003540  0.83756306  1
  Fe  Fe30  1  0.17161900  0.50326606  0.50241199  1
  Fe  Fe31  1  0.00391810  0.33511911  0.67081241  1
  Fe  Fe32  1  0.16972831  0.50410932  0.83710122  1
  Fe  Fe33  1  0.16879549  0.83546405  0.50244489  1
  Fe  Fe34  1  0.00366947  0.67180308  0.67064650  1
  Fe  Fe35  1  0.16716338  0.83592987  0.83751458  1
  Fe  Fe36  1  0.50446199  0.17074767  0.50243968  1
  Cr  Cr37  1  0.33683952  0.00430953  0.66920946  1
  Fe  Fe38  1  0.50505750  0.17188750  0.83744654  1
  Fe  Fe39  1  0.50169534  0.50332506  0.50304160  1
  Fe  Fe40  1  0.33715740  0.33780117  0.66945136  1
  Fe  Fe41  1  0.50411715  0.50202957  0.83688476  1
  Fe  Fe42  1  0.50512389  0.83600581  0.50258775  1
  Fe  Fe43  1  0.33640656  0.66813069  0.66933836  1
  Cr  Cr44  1  0.50542729  0.83614285  0.83710367  1
  Fe  Fe45  1  0.83621629  0.16791994  0.50297488  1
  Ni  Ni46  1  0.67253751  0.00408843  0.66991528  1
  Fe  Fe47  1  0.83600724  0.16931644  0.83717620  1
  Cr  Cr48  1  0.83641361  0.50350262  0.50237324  1
  Fe  Fe49  1  0.66899815  0.33519571  0.67147932  1
  Fe  Fe50  1  0.83622413  0.50388789  0.83666369  1
  Fe  Fe51  1  0.83616094  0.83822434  0.50347392  1
  Fe  Fe52  1  0.67000134  0.67097658  0.66982520  1
  Ni  Ni53  1  0.83730108  0.83689671  0.83553464  1
" 