892,Ni16Fe84_8,-242.59415913374, 202.612571541917,Ni16Fe84,"# generated using pymatgen
 data_Fe4Ni23
_symmetry_space_group_name_H-M   'P 1'
_cell_length_a   7.43114646
_cell_length_b   7.43114646
_cell_length_c   10.50922810
_cell_angle_alpha   90.00000000
_cell_angle_beta   90.00000000
_cell_angle_gamma   90.00000000
_symmetry_Int_Tables_number   1
_chemical_formula_structural   Fe4Ni23
_chemical_formula_sum   'Fe8 Ni46'
_cell_volume   580.33993904
_cell_formula_units_Z   2
loop_
 _symmetry_equiv_pos_site_id
 _symmetry_equiv_pos_as_xyz
  1  'x, y, z'
loop_
 _atom_site_type_symbol
 _atom_site_label
 _atom_site_symmetry_multiplicity
 _atom_site_fract_x
 _atom_site_fract_y
 _atom_site_fract_z
 _atom_site_occupancy
  Ni  Ni0  1  0.00270968  0.00373496  0.00242384  1
  Ni  Ni1  1  0.16978954  0.16865237  0.16965683  1
  Ni  Ni2  1  0.00309563  1.00212406  0.33628404  1
  Ni  Ni3  1  0.00273921  0.33515606  0.00331219  1
  Ni  Ni4  1  0.16985744  0.50223920  0.16971648  1
  Ni  Ni5  1  0.00268730  0.33637548  0.33567236  1
  Fe  Fe6  1  0.00252442  0.66909516  1.00226685  1
  Ni  Ni7  1  0.16825965  0.83645246  0.16896704  1
  Ni  Ni8  1  1.00169467  0.66884709  0.33520297  1
  Ni  Ni9  1  0.33492391  1.00193932  1.00232962  1
  Ni  Ni10  1  0.50200882  0.17029689  0.16803628  1
  Ni  Ni11  1  0.33582045  0.00284569  0.33491284  1
  Ni  Ni12  1  0.33482358  0.33639258  1.00146766  1
  Ni  Ni13  1  0.50237918  0.50084816  0.16990567  1
  Ni  Ni14  1  0.33560821  0.33506011  0.33624571  1
  Ni  Ni15  1  0.33633402  0.66881737  0.00321105  1
  Fe  Fe16  1  0.50299520  0.83593079  0.16864100  1
  Fe  Fe17  1  0.33560323  0.66921559  0.33589310  1
  Ni  Ni18  1  0.66970089  1.00192645  1.00233780  1
  Ni  Ni19  1  0.83541865  0.16860773  0.17052390  1
  Ni  Ni20  1  0.66822374  1.00181006  0.33574369  1
  Ni  Ni21  1  0.66975865  0.33646201  0.00274367  1
  Ni  Ni22  1  0.83501094  0.50260192  0.16879835  1
  Ni  Ni23  1  0.66883916  0.33634081  0.33530443  1
  Ni  Ni24  1  0.66813561  0.66874599  1.00191174  1
  Ni  Ni25  1  0.83680290  0.83609491  0.16928207  1
  Ni  Ni26  1  0.66951048  0.66896089  0.33606141  1
  Fe  Fe27  1  0.16946019  0.16842510  0.50219376  1
  Ni  Ni28  1  0.00323537  0.00281226  0.66873370  1
  Ni  Ni29  1  0.16861603  0.16875942  0.83530673  1
  Fe  Fe30  1  0.16902247  0.50421671  0.50237769  1
  Ni  Ni31  1  1.00192947  0.33611041  0.66846004  1
  Ni  Ni32  1  0.16979127  0.50215519  0.83514289  1
  Ni  Ni33  1  0.16840273  0.83684239  0.50273393  1
  Ni  Ni34  1  0.00276748  0.66842230  0.67047541  1
  Ni  Ni35  1  0.16938839  0.83634001  0.83575740  1
  Ni  Ni36  1  0.50166727  0.16959204  0.50326988  1
  Ni  Ni37  1  0.33566006  1.00120837  0.66977598  1
  Fe  Fe38  1  0.50299652  0.16864578  0.83626343  1
  Ni  Ni39  1  0.50346873  0.50119955  0.50234167  1
  Fe  Fe40  1  0.33602803  0.33588577  0.66927247  1
  Ni  Ni41  1  0.50237283  0.50260138  0.83493858  1
  Ni  Ni42  1  0.50193708  0.83638163  0.50147613  1
  Ni  Ni43  1  0.33615738  0.67006152  0.66801996  1
  Ni  Ni44  1  0.50202664  0.83490378  0.83549828  1
  Fe  Fe45  1  0.83393074  0.16838577  0.50227377  1
  Ni  Ni46  1  0.66824570  1.00192599  0.66903908  1
  Ni  Ni47  1  0.83655328  0.16904475  0.83514115  1
  Ni  Ni48  1  0.83524428  0.50264043  0.50241756  1
  Ni  Ni49  1  0.67009432  0.33640672  0.66947613  1
  Ni  Ni50  1  0.83518284  0.50186429  0.83618604  1
  Ni  Ni51  1  0.83680312  0.83485696  0.50329384  1
  Ni  Ni52  1  0.66839240  0.66879187  0.66889031  1
  Ni  Ni53  1  0.83581187  0.83638718  0.83483327  1
" 