5758,Ni16Fe12Cr70_10,-210.23522393867, 179.600351656676,Ni16Fe12Cr70,"# generated using pymatgen
 data_Cr20Fe3Ni4
_symmetry_space_group_name_H-M   'P 1'
_cell_length_a   7.55949158
_cell_length_b   7.55949158
_cell_length_c   10.69073551
_cell_angle_alpha   90.00000000
_cell_angle_beta   90.00000000
_cell_angle_gamma   90.00000000
_symmetry_Int_Tables_number   1
_chemical_formula_structural   Cr20Fe3Ni4
_chemical_formula_sum   'Cr40 Fe6 Ni8'
_cell_volume   610.93184045
_cell_formula_units_Z   2
loop_
 _symmetry_equiv_pos_site_id
 _symmetry_equiv_pos_as_xyz
  1  'x, y, z'
loop_
 _atom_site_type_symbol
 _atom_site_label
 _atom_site_symmetry_multiplicity
 _atom_site_fract_x
 _atom_site_fract_y
 _atom_site_fract_z
 _atom_site_occupancy
  Fe  Fe0  1  -0.00208223  -0.00444171  0.99253491  1
  Cr  Cr1  1  0.16154214  0.15921471  0.16114168  1
  Cr  Cr2  1  -0.00526448  0.99328104  0.32698046  1
  Cr  Cr3  1  -0.00299656  0.32781900  0.99170582  1
  Fe  Fe4  1  0.16204177  0.49359080  0.15828352  1
  Cr  Cr5  1  -0.00127563  0.32894172  0.32762126  1
  Fe  Fe6  1  -0.00271656  0.66051547  0.99345316  1
  Cr  Cr7  1  0.16219807  0.82795134  0.15649013  1
  Cr  Cr8  1  -0.00470012  0.65932764  0.32483233  1
  Ni  Ni9  1  0.32705775  -0.00445671  0.99223788  1
  Ni  Ni10  1  0.49098564  0.16185119  0.15934129  1
  Cr  Cr11  1  0.32925513  -0.00338995  0.32747182  1
  Cr  Cr12  1  0.32653225  0.32485919  -0.00512530  1
  Cr  Cr13  1  0.49236050  0.49277340  0.15969493  1
  Fe  Fe14  1  0.32891123  0.32549705  0.32657398  1
  Ni  Ni15  1  0.32487674  0.66130711  0.99359861  1
  Cr  Cr16  1  0.49131397  0.82771878  0.15913403  1
  Cr  Cr17  1  0.32546944  0.65800884  0.32619329  1
  Cr  Cr18  1  0.65673516  -0.00402174  0.99387995  1
  Cr  Cr19  1  0.82681990  0.16110643  0.15921695  1
  Cr  Cr20  1  0.65772639  -0.00518391  0.32811155  1
  Fe  Fe21  1  0.65671314  0.32512916  0.99321019  1
  Cr  Cr22  1  0.82678731  0.49220326  0.15807615  1
  Cr  Cr23  1  0.65764862  0.32508670  0.32564454  1
  Cr  Cr24  1  0.66055541  0.66077897  0.99336988  1
  Cr  Cr25  1  0.82930053  0.82874231  0.15890048  1
  Cr  Cr26  1  0.66101504  0.66164635  0.32861317  1
  Cr  Cr27  1  0.16139619  0.16026504  0.49509919  1
  Cr  Cr28  1  -0.00351343  -0.00414531  0.66229461  1
  Ni  Ni29  1  0.16345499  0.15936564  0.82697585  1
  Cr  Cr30  1  0.16232325  0.49250165  0.49423394  1
  Ni  Ni31  1  -0.00262100  0.32640996  0.66228411  1
  Cr  Cr32  1  0.16213686  0.49398409  0.82643795  1
  Cr  Cr33  1  0.16296971  0.82855944  0.49626436  1
  Cr  Cr34  1  -0.00583779  0.65910541  0.66058973  1
  Cr  Cr35  1  0.16344129  0.83003822  0.82845073  1
  Ni  Ni36  1  0.49083663  0.16128158  0.49382537  1
  Ni  Ni37  1  0.32829752  -0.00244455  0.66281445  1
  Ni  Ni38  1  0.48977570  0.15917129  0.82915105  1
  Cr  Cr39  1  0.49246644  0.49225105  0.49485254  1
  Cr  Cr40  1  0.32604024  0.32341650  0.66145997  1
  Cr  Cr41  1  0.49269048  0.49372532  0.82794531  1
  Cr  Cr42  1  0.48999450  0.82732978  0.49648939  1
  Fe  Fe43  1  0.32594751  0.66089070  0.66175065  1
  Cr  Cr44  1  0.49028928  0.82695699  0.82624346  1
  Cr  Cr45  1  0.82778076  0.16245831  0.49446433  1
  Cr  Cr46  1  0.65667912  -0.00494272  0.65965721  1
  Cr  Cr47  1  0.82893379  0.16147417  0.82831060  1
  Cr  Cr48  1  0.82695209  0.49054022  0.49601372  1
  Cr  Cr49  1  0.65852365  0.32485295  0.66401090  1
  Cr  Cr50  1  0.82647564  0.49182213  0.82714162  1
  Cr  Cr51  1  0.82814640  0.82863493  0.49252620  1
  Cr  Cr52  1  0.66063937  0.66211358  0.65976967  1
  Cr  Cr53  1  0.82879106  0.82834795  0.82957721  1
" 