8765,Ni16Fe12Cr70_15,-210.085795748738, 180.763371200557,Ni16Fe12Cr70,"# generated using pymatgen
 data_Cr20Fe3Ni4
_symmetry_space_group_name_H-M   'P 1'
_cell_length_a   7.56115197
_cell_length_b   7.56115197
_cell_length_c   10.69308366
_cell_angle_alpha   90.00000000
_cell_angle_beta   90.00000000
_cell_angle_gamma   90.00000000
_symmetry_Int_Tables_number   1
_chemical_formula_structural   Cr20Fe3Ni4
_chemical_formula_sum   'Cr40 Fe6 Ni8'
_cell_volume   611.33449068
_cell_formula_units_Z   2
loop_
 _symmetry_equiv_pos_site_id
 _symmetry_equiv_pos_as_xyz
  1  'x, y, z'
loop_
 _atom_site_type_symbol
 _atom_site_label
 _atom_site_symmetry_multiplicity
 _atom_site_fract_x
 _atom_site_fract_y
 _atom_site_fract_z
 _atom_site_occupancy
  Fe  Fe0  1  -0.00530539  0.99252964  -0.00543109  1
  Cr  Cr1  1  0.15920695  0.15874992  0.16060948  1
  Ni  Ni2  1  -0.00566910  0.99200378  0.32643909  1
  Cr  Cr3  1  0.99371067  0.33105227  -0.00557623  1
  Fe  Fe4  1  0.15941183  0.49725640  0.15897909  1
  Cr  Cr5  1  -0.00594499  0.33175196  0.32608610  1
  Ni  Ni6  1  -0.00515382  0.65924816  -0.00394026  1
  Cr  Cr7  1  0.15936422  0.82705056  0.15994581  1
  Ni  Ni8  1  -0.00588863  0.66006858  0.32523006  1
  Cr  Cr9  1  0.32923538  0.99292820  0.99331662  1
  Fe  Fe10  1  0.49498490  0.16098948  0.15943919  1
  Cr  Cr11  1  0.32801297  -0.00620728  0.32570831  1
  Cr  Cr12  1  0.32754263  0.32756066  -0.00379887  1
  Ni  Ni13  1  0.49400161  0.49484024  0.15850156  1
  Cr  Cr14  1  0.32739379  0.32833245  0.32306461  1
  Ni  Ni15  1  0.32632300  0.66027129  0.99347354  1
  Cr  Cr16  1  0.49349504  0.82366709  0.15923691  1
  Cr  Cr17  1  0.32529831  0.65931170  0.32609829  1
  Cr  Cr18  1  0.65745896  0.99340456  0.99136662  1
  Cr  Cr19  1  0.82874633  0.15881413  0.16094806  1
  Cr  Cr20  1  0.65843839  0.99370731  0.32757734  1
  Cr  Cr21  1  0.66017930  0.32725430  -0.00423777  1
  Ni  Ni22  1  0.82629692  0.49613363  0.15945159  1
  Cr  Cr23  1  0.65997426  0.32850135  0.32395557  1
  Fe  Fe24  1  0.65865731  0.65896983  -0.00510167  1
  Cr  Cr25  1  0.82838988  0.82658360  0.15980424  1
  Cr  Cr26  1  0.66160044  0.65876584  0.32580036  1
  Cr  Cr27  1  0.16034490  0.16044187  0.49347203  1
  Cr  Cr28  1  -0.00575487  0.99221887  0.66123505  1
  Cr  Cr29  1  0.16070495  0.16103606  0.82748895  1
  Cr  Cr30  1  0.16351463  0.49392170  0.49530696  1
  Cr  Cr31  1  -0.00563737  0.32891294  0.66103399  1
  Cr  Cr32  1  0.16284217  0.49455228  0.82694659  1
  Cr  Cr33  1  0.16001592  0.82722513  0.49135853  1
  Cr  Cr34  1  -0.00551197  0.66034184  0.65937077  1
  Cr  Cr35  1  0.16071000  0.82568751  0.82996737  1
  Cr  Cr36  1  0.49289426  0.16299012  0.49296904  1
  Cr  Cr37  1  0.32870878  0.99209834  0.66214098  1
  Ni  Ni38  1  0.49244240  0.16058941  0.82721328  1
  Cr  Cr39  1  0.49229994  0.49364792  0.49626944  1
  Fe  Fe40  1  0.32807329  0.32573189  0.66183234  1
  Cr  Cr41  1  0.49259848  0.49483812  0.82624293  1
  Cr  Cr42  1  0.49291470  0.82468637  0.49427408  1
  Fe  Fe43  1  0.32722512  0.66224332  0.66224888  1
  Ni  Ni44  1  0.49224450  0.82529011  0.82841863  1
  Cr  Cr45  1  0.82822531  0.15953150  0.49264492  1
  Cr  Cr46  1  0.65838687  0.99264345  0.66199424  1
  Cr  Cr47  1  0.82770474  0.16008495  0.82795420  1
  Cr  Cr48  1  0.82577220  0.49416275  0.49310679  1
  Cr  Cr49  1  0.66112941  0.32584948  0.66132408  1
  Cr  Cr50  1  0.82584490  0.49513825  0.82905622  1
  Cr  Cr51  1  0.82835256  0.82769429  0.49029722  1
  Cr  Cr52  1  0.66102232  0.66306577  0.66154225  1
  Cr  Cr53  1  0.82713487  0.82580033  0.83130785  1
" 