927,Ni16Fe77Cr6_7,-229.715678873892, 172.126006383872,Ni16Fe77Cr6,"# generated using pymatgen
 data_Cr4Fe41Ni9
_symmetry_space_group_name_H-M   'P 1'
_cell_length_a   7.41872175
_cell_length_b   7.41872175
_cell_length_c   10.49165691
_cell_angle_alpha   90.00000000
_cell_angle_beta   90.00000000
_cell_angle_gamma   90.00000000
_symmetry_Int_Tables_number   1
_chemical_formula_structural   Cr4Fe41Ni9
_chemical_formula_sum   'Cr4 Fe41 Ni9'
_cell_volume   577.43385832
_cell_formula_units_Z   1
loop_
 _symmetry_equiv_pos_site_id
 _symmetry_equiv_pos_as_xyz
  1  'x, y, z'
loop_
 _atom_site_type_symbol
 _atom_site_label
 _atom_site_symmetry_multiplicity
 _atom_site_fract_x
 _atom_site_fract_y
 _atom_site_fract_z
 _atom_site_occupancy
  Fe  Fe0  1  1.00321907  1.00245737  0.00348304  1
  Fe  Fe1  1  0.16806431  0.17086123  0.16832875  1
  Fe  Fe2  1  1.00093282  1.00286759  0.33697395  1
  Ni  Ni3  1  1.00132649  0.33766595  0.00402670  1
  Fe  Fe4  1  0.16868390  0.50341728  0.16966468  1
  Fe  Fe5  1  1.00280011  0.33626110  0.33578899  1
  Fe  Fe6  1  1.00247274  0.67066077  0.00409769  1
  Fe  Fe7  1  0.16844741  0.83549176  0.16832174  1
  Fe  Fe8  1  1.00245244  0.67064241  0.33608150  1
  Ni  Ni9  1  0.33743907  1.00214970  1.00272338  1
  Fe  Fe10  1  0.50502810  0.17013145  0.16968498  1
  Cr  Cr11  1  0.33756441  0.00346353  0.33779268  1
  Fe  Fe12  1  0.33774108  0.33591808  0.00473459  1
  Fe  Fe13  1  0.50415242  0.50389766  0.16999104  1
  Fe  Fe14  1  0.33741540  0.33740141  0.33724922  1
  Fe  Fe15  1  0.33660065  0.67103585  0.00370979  1
  Fe  Fe16  1  0.50512605  0.83574087  0.16914022  1
  Fe  Fe17  1  0.33702872  0.66876688  0.33675195  1
  Fe  Fe18  1  0.66995765  0.00360252  0.00415435  1
  Fe  Fe19  1  0.83668270  0.16989309  0.16999328  1
  Ni  Ni20  1  0.67117203  1.00279105  0.33656979  1
  Fe  Fe21  1  0.67033446  0.33666160  1.00304049  1
  Ni  Ni22  1  0.83677825  0.50407751  0.17021871  1
  Fe  Fe23  1  0.66955700  0.33587503  0.33674774  1
  Fe  Fe24  1  0.67069430  0.66950816  0.00348672  1
  Ni  Ni25  1  0.83646250  0.83608742  0.17028387  1
  Fe  Fe26  1  0.67029121  0.67063970  0.33601236  1
  Fe  Fe27  1  0.16858666  0.16982330  0.50373800  1
  Ni  Ni28  1  1.00258321  1.00185418  0.66925247  1
  Cr  Cr29  1  0.16993956  0.16701791  0.83687879  1
  Fe  Fe30  1  0.16985914  0.50345294  0.50253245  1
  Fe  Fe31  1  0.99976132  0.33640263  0.66909927  1
  Cr  Cr32  1  0.16784047  0.50543912  0.83783690  1
  Fe  Fe33  1  0.16948754  0.83649388  0.50502114  1
  Fe  Fe34  1  1.00269161  0.67107790  0.66959264  1
  Ni  Ni35  1  0.17063655  0.83726178  0.83635395  1
  Ni  Ni36  1  0.50434238  0.16954694  0.50337751  1
  Fe  Fe37  1  0.33678997  1.00087278  0.66951767  1
  Fe  Fe38  1  0.50518543  0.16908035  0.83713249  1
  Fe  Fe39  1  0.50380163  0.50355483  0.50252580  1
  Cr  Cr40  1  0.33788510  0.33641503  0.66900788  1
  Fe  Fe41  1  0.50542167  0.50448558  0.83725345  1
  Fe  Fe42  1  0.50427596  0.83649024  0.50375186  1
  Fe  Fe43  1  0.33653331  0.67309356  0.66931163  1
  Fe  Fe44  1  0.50250448  0.83620300  0.83688136  1
  Fe  Fe45  1  0.83611299  0.16934961  0.50334816  1
  Fe  Fe46  1  0.66993830  0.00381143  0.66896658  1
  Fe  Fe47  1  0.83629043  0.17022260  0.83642785  1
  Fe  Fe48  1  0.83611146  0.50265654  0.50337845  1
  Fe  Fe49  1  0.67195651  0.33614955  0.66998203  1
  Ni  Ni50  1  0.83466722  0.50324762  0.83608943  1
  Fe  Fe51  1  0.83601238  0.83776191  0.50265075  1
  Fe  Fe52  1  0.67054205  0.66980798  0.67027152  1
  Fe  Fe53  1  0.83769651  0.83633899  0.83664692  1
" 