8246,Ni16Fe77Cr6_0,-229.683576327216, 169.991138101556,Ni16Fe77Cr6,"# generated using pymatgen
 data_Cr4Fe41Ni9
_symmetry_space_group_name_H-M   'P 1'
_cell_length_a   7.42016760
_cell_length_b   7.42016760
_cell_length_c   10.49370166
_cell_angle_alpha   90.00000000
_cell_angle_beta   90.00000000
_cell_angle_gamma   90.00000000
_symmetry_Int_Tables_number   1
_chemical_formula_structural   Cr4Fe41Ni9
_chemical_formula_sum   'Cr4 Fe41 Ni9'
_cell_volume   577.77153685
_cell_formula_units_Z   1
loop_
 _symmetry_equiv_pos_site_id
 _symmetry_equiv_pos_as_xyz
  1  'x, y, z'
loop_
 _atom_site_type_symbol
 _atom_site_label
 _atom_site_symmetry_multiplicity
 _atom_site_fract_x
 _atom_site_fract_y
 _atom_site_fract_z
 _atom_site_occupancy
  Fe  Fe0  1  1.00242392  0.00392994  0.00318901  1
  Ni  Ni1  1  0.16995462  0.16996384  0.17021355  1
  Fe  Fe2  1  1.00155224  0.00364632  0.33663555  1
  Fe  Fe3  1  1.00313982  0.33537726  0.00438050  1
  Fe  Fe4  1  0.17066378  0.50175725  0.16916939  1
  Fe  Fe5  1  1.00199733  0.33533594  0.33554728  1
  Fe  Fe6  1  1.00276200  0.67017232  0.00406793  1
  Fe  Fe7  1  0.16943864  0.83557874  0.17059817  1
  Fe  Fe8  1  1.00204262  0.67049373  0.33543286  1
  Cr  Cr9  1  0.33570868  0.00495017  0.00365038  1
  Ni  Ni10  1  0.50302191  0.17064659  0.17099987  1
  Fe  Fe11  1  0.33810029  0.00356917  0.33577194  1
  Ni  Ni12  1  0.33679506  0.33668096  0.00421456  1
  Ni  Ni13  1  0.50397094  0.50307543  0.16931674  1
  Fe  Fe14  1  0.33845255  0.33621617  0.33508500  1
  Fe  Fe15  1  0.33761315  0.66819995  0.00399390  1
  Fe  Fe16  1  0.50459290  0.83562418  0.17125950  1
  Fe  Fe17  1  0.33848826  0.66968975  0.33653985  1
  Fe  Fe18  1  0.67073272  0.00389893  0.00360060  1
  Fe  Fe19  1  0.83543851  0.17087878  0.17095190  1
  Ni  Ni20  1  0.67010942  1.00276005  0.33696357  1
  Fe  Fe21  1  0.66875610  0.33667471  0.00428065  1
  Ni  Ni22  1  0.83582255  0.50407217  0.16903535  1
  Ni  Ni23  1  0.66906552  0.33614666  0.33583746  1
  Fe  Fe24  1  0.66910441  0.66890709  0.00379560  1
  Fe  Fe25  1  0.83544255  0.83642551  0.17023558  1
  Ni  Ni26  1  0.66942541  0.67057406  0.33520242  1
  Fe  Fe27  1  0.16896140  0.17009301  0.50284754  1
  Fe  Fe28  1  1.00275237  0.00320777  0.66965222  1
  Fe  Fe29  1  0.16922592  0.16922974  0.83645643  1
  Fe  Fe30  1  0.17102573  0.50269981  0.50379138  1
  Fe  Fe31  1  1.00264999  0.33468422  0.66955037  1
  Cr  Cr32  1  0.17005752  0.50361194  0.83710240  1
  Fe  Fe33  1  0.16903193  0.83668300  0.50344033  1
  Fe  Fe34  1  0.00506847  0.67158410  0.66997327  1
  Fe  Fe35  1  0.16887633  0.83727058  0.83543871  1
  Fe  Fe36  1  0.50454212  0.16998338  0.50228793  1
  Fe  Fe37  1  0.33662075  1.00278125  0.67016409  1
  Fe  Fe38  1  0.50355755  0.17114048  0.83635363  1
  Fe  Fe39  1  0.50146060  0.50179045  0.50140712  1
  Fe  Fe40  1  0.33753177  0.33591936  0.66965916  1
  Fe  Fe41  1  0.50368322  0.50207019  0.83806682  1
  Fe  Fe42  1  0.50355992  0.83770299  0.50193691  1
  Fe  Fe43  1  0.33553976  0.67077735  0.66894263  1
  Fe  Fe44  1  0.50299366  0.83626904  0.83627926  1
  Ni  Ni45  1  0.83584641  0.16800511  0.50310965  1
  Fe  Fe46  1  0.67010203  0.00519857  0.66913423  1
  Fe  Fe47  1  0.83669118  0.16991130  0.83560191  1
  Cr  Cr48  1  0.83679088  0.50184752  0.50257194  1
  Fe  Fe49  1  0.66929655  0.33360365  0.66996919  1
  Fe  Fe50  1  0.83569244  0.50242061  0.83763418  1
  Fe  Fe51  1  0.83688450  0.83975539  0.50186201  1
  Cr  Cr52  1  0.66991906  0.66995370  0.67000174  1
  Fe  Fe53  1  0.83760582  0.83714360  0.83737963  1
" 