7619,Ni16Fe57Cr25_6,-225.106485257072, 168.430352320189,Ni16Fe57Cr25,"# generated using pymatgen
 data_Cr15Fe31Ni8
_symmetry_space_group_name_H-M   'P 1'
_cell_length_a   7.47595927
_cell_length_b   7.47595927
_cell_length_c   10.57260299
_cell_angle_alpha   90.00000000
_cell_angle_beta   90.00000000
_cell_angle_gamma   90.00000000
_symmetry_Int_Tables_number   1
_chemical_formula_structural   Cr15Fe31Ni8
_chemical_formula_sum   'Cr15 Fe31 Ni8'
_cell_volume   590.90243247
_cell_formula_units_Z   1
loop_
 _symmetry_equiv_pos_site_id
 _symmetry_equiv_pos_as_xyz
  1  'x, y, z'
loop_
 _atom_site_type_symbol
 _atom_site_label
 _atom_site_symmetry_multiplicity
 _atom_site_fract_x
 _atom_site_fract_y
 _atom_site_fract_z
 _atom_site_occupancy
  Fe  Fe0  1  0.99654045  0.99667730  -0.00031235  1
  Fe  Fe1  1  0.16681940  0.16628564  0.16664269  1
  Cr  Cr2  1  0.00086079  0.99610559  0.33132840  1
  Fe  Fe3  1  -0.00032222  0.33559690  0.00065222  1
  Ni  Ni4  1  0.16593459  0.50118127  0.16687114  1
  Cr  Cr5  1  -0.00026937  0.33589877  0.33132108  1
  Fe  Fe6  1  0.00065656  0.66587938  0.00095385  1
  Fe  Fe7  1  0.16497395  0.82923308  0.16629946  1
  Fe  Fe8  1  0.99853941  0.66611608  0.33185710  1
  Cr  Cr9  1  0.33127096  0.99651682  0.00202319  1
  Fe  Fe10  1  0.49918598  0.16550792  0.16590606  1
  Fe  Fe11  1  0.33385074  0.99886331  0.33226684  1
  Cr  Cr12  1  0.33078839  0.33348997  0.00073738  1
  Cr  Cr13  1  0.50002363  0.50138970  0.16495742  1
  Fe  Fe14  1  0.33247622  0.33284755  0.33193595  1
  Fe  Fe15  1  0.33203187  0.66642613  0.99884582  1
  Fe  Fe16  1  0.50032908  0.83139729  0.16512288  1
  Fe  Fe17  1  0.33141357  0.66644642  0.33314195  1
  Fe  Fe18  1  0.66668485  0.99658534  0.99938522  1
  Cr  Cr19  1  0.83275533  0.16501868  0.16165688  1
  Cr  Cr20  1  0.66460126  0.99723966  0.33321257  1
  Ni  Ni21  1  0.66873232  0.33411706  -0.00005838  1
  Fe  Fe22  1  0.83436913  0.50303229  0.16363963  1
  Cr  Cr23  1  0.66563309  0.33481634  0.33445910  1
  Ni  Ni24  1  0.66871263  0.66887460  0.00168727  1
  Ni  Ni25  1  0.83256744  0.83061089  0.16526707  1
  Fe  Fe26  1  0.66820053  0.66745254  0.33269949  1
  Cr  Cr27  1  0.16611120  0.16491483  0.49851276  1
  Fe  Fe28  1  0.99724882  0.99806328  0.66555030  1
  Cr  Cr29  1  0.16153996  0.16583202  0.83242678  1
  Fe  Fe30  1  0.16610122  0.50297760  0.49926242  1
  Fe  Fe31  1  0.99748989  0.33391410  0.66518327  1
  Ni  Ni32  1  0.16339158  0.50278944  0.83149865  1
  Fe  Fe33  1  0.16714383  0.83039430  0.50050966  1
  Fe  Fe34  1  0.00197963  0.66603615  0.66571104  1
  Fe  Fe35  1  0.16726944  0.83023848  0.83136900  1
  Fe  Fe36  1  0.49988467  0.16482314  0.50154981  1
  Ni  Ni37  1  0.33138445  0.99528627  0.66453701  1
  Cr  Cr38  1  0.50266119  0.16402328  0.83185171  1
  Fe  Fe39  1  0.49843787  0.50002471  0.49891662  1
  Cr  Cr40  1  0.33344451  0.33431045  0.66593602  1
  Cr  Cr41  1  0.49898026  0.50302459  0.83403427  1
  Fe  Fe42  1  0.49639161  0.83312744  0.50053566  1
  Fe  Fe43  1  0.33136787  0.66839820  0.66623031  1
  Ni  Ni44  1  0.50018310  0.83289692  0.83301872  1
  Fe  Fe45  1  0.83177685  0.16582232  0.50187979  1
  Fe  Fe46  1  0.66529725  -0.00014318  0.66499158  1
  Fe  Fe47  1  0.83166913  0.16544526  0.83300871  1
  Fe  Fe48  1  0.83405715  0.49987438  0.50085930  1
  Ni  Ni49  1  0.66940183  0.33175474  0.66344591  1
  Cr  Cr50  1  0.83334369  0.49832773  0.83592048  1
  Fe  Fe51  1  0.83452519  0.83201195  0.49910260  1
  Cr  Cr52  1  0.66676691  0.66636422  0.66460421  1
  Fe  Fe53  1  0.83260519  0.83367571  0.83486833  1
" 