8527,Ni16Fe84_7,-242.49129261923, 200.511223543217,Ni16Fe84,"# generated using pymatgen
 data_Fe4Ni23
_symmetry_space_group_name_H-M   'P 1'
_cell_length_a   7.43405138
_cell_length_b   7.43405138
_cell_length_c   10.51333629
_cell_angle_alpha   90.00000000
_cell_angle_beta   90.00000000
_cell_angle_gamma   90.00000000
_symmetry_Int_Tables_number   1
_chemical_formula_structural   Fe4Ni23
_chemical_formula_sum   'Fe8 Ni46'
_cell_volume   581.02079135
_cell_formula_units_Z   2
loop_
 _symmetry_equiv_pos_site_id
 _symmetry_equiv_pos_as_xyz
  1  'x, y, z'
loop_
 _atom_site_type_symbol
 _atom_site_label
 _atom_site_symmetry_multiplicity
 _atom_site_fract_x
 _atom_site_fract_y
 _atom_site_fract_z
 _atom_site_occupancy
  Ni  Ni0  1  0.00310930  0.00327134  0.00253436  1
  Fe  Fe1  1  0.16760147  0.16764554  0.16963050  1
  Ni  Ni2  1  0.00230183  1.00215475  0.33533776  1
  Ni  Ni3  1  0.00266463  0.33527853  1.00195444  1
  Ni  Ni4  1  0.16852353  0.50251740  0.16773894  1
  Ni  Ni5  1  0.00260027  0.33576660  0.33550723  1
  Fe  Fe6  1  1.00037845  0.67023250  0.00243301  1
  Ni  Ni7  1  0.16968597  0.83368103  0.16957454  1
  Ni  Ni8  1  0.00228490  0.66848532  0.33479467  1
  Ni  Ni9  1  0.33454539  1.00170420  1.00214323  1
  Ni  Ni10  1  0.50262037  0.16859183  0.16848754  1
  Ni  Ni11  1  0.33539373  1.00207420  0.33550813  1
  Fe  Fe12  1  0.33683421  0.33368176  0.00247506  1
  Fe  Fe13  1  0.50371159  0.50338336  0.16860575  1
  Ni  Ni14  1  0.33537643  0.33616684  0.33430678  1
  Fe  Fe15  1  0.33586807  0.66974689  1.00208084  1
  Ni  Ni16  1  0.50122908  0.83742548  0.16837498  1
  Ni  Ni17  1  0.33598021  0.66853157  0.33523688  1
  Ni  Ni18  1  0.66866500  1.00171755  1.00170349  1
  Ni  Ni19  1  0.83365535  0.16984002  0.16887393  1
  Ni  Ni20  1  0.66868137  1.00172989  0.33475863  1
  Ni  Ni21  1  0.66999787  0.33667106  0.00227284  1
  Ni  Ni22  1  0.83753074  0.50140425  0.16883462  1
  Ni  Ni23  1  0.66874199  0.33635960  0.33525436  1
  Ni  Ni24  1  0.66810568  0.66859086  1.00202085  1
  Ni  Ni25  1  0.83557392  0.83558909  0.16850236  1
  Ni  Ni26  1  0.66872720  0.66896405  0.33533325  1
  Ni  Ni27  1  0.16985546  0.16974326  0.50179141  1
  Ni  Ni28  1  0.00256991  0.00224286  0.66864810  1
  Fe  Fe29  1  0.16834237  0.16756826  0.83474333  1
  Ni  Ni30  1  0.16836188  0.50262888  0.50297938  1
  Ni  Ni31  1  1.00218468  0.33532390  0.66893986  1
  Fe  Fe32  1  0.16867333  0.50221060  0.83512373  1
  Ni  Ni33  1  0.16944402  0.83428447  0.50178409  1
  Ni  Ni34  1  1.00202876  0.66889228  0.66982606  1
  Ni  Ni35  1  0.16927436  0.83466107  0.83537861  1
  Ni  Ni36  1  0.50223248  0.16864583  0.50261643  1
  Ni  Ni37  1  0.33506576  1.00203320  0.66886350  1
  Ni  Ni38  1  0.50255145  0.16901226  0.83556868  1
  Fe  Fe39  1  0.50209700  0.50224494  0.50292572  1
  Ni  Ni40  1  0.33537566  0.33547375  0.66982424  1
  Ni  Ni41  1  0.50225739  0.50148745  0.83584128  1
  Ni  Ni42  1  0.50150349  0.83695262  0.50263748  1
  Ni  Ni43  1  0.33591943  0.66905970  0.66946042  1
  Ni  Ni44  1  0.50096695  0.83594442  0.83565962  1
  Ni  Ni45  1  0.83457972  0.16968114  0.50221653  1
  Ni  Ni46  1  0.66888101  1.00169903  0.67022369  1
  Ni  Ni47  1  0.83448891  0.16984655  0.83556788  1
  Ni  Ni48  1  0.83721014  0.50192753  0.50218435  1
  Ni  Ni49  1  0.66902312  0.33625501  0.66930003  1
  Ni  Ni50  1  0.83588182  0.50147839  0.83571844  1
  Ni  Ni51  1  0.83568527  0.83501721  0.50223851  1
  Ni  Ni52  1  0.66877061  0.66879912  0.66947443  1
  Ni  Ni53  1  0.83622662  0.83552093  0.83602543  1
" 