6629,Ni16Fe84_14,-242.75458552522, 202.594671228517,Ni16Fe84,"# generated using pymatgen
 data_Fe4Ni23
_symmetry_space_group_name_H-M   'P 1'
_cell_length_a   7.43160594
_cell_length_b   7.43160594
_cell_length_c   10.50987791
_cell_angle_alpha   90.00000000
_cell_angle_beta   90.00000000
_cell_angle_gamma   90.00000000
_symmetry_Int_Tables_number   1
_chemical_formula_structural   Fe4Ni23
_chemical_formula_sum   'Fe8 Ni46'
_cell_volume   580.44759661
_cell_formula_units_Z   2
loop_
 _symmetry_equiv_pos_site_id
 _symmetry_equiv_pos_as_xyz
  1  'x, y, z'
loop_
 _atom_site_type_symbol
 _atom_site_label
 _atom_site_symmetry_multiplicity
 _atom_site_fract_x
 _atom_site_fract_y
 _atom_site_fract_z
 _atom_site_occupancy
  Ni  Ni0  1  1.00183094  0.00288637  0.00266050  1
  Ni  Ni1  1  0.16918696  0.16857275  0.16724893  1
  Ni  Ni2  1  0.00294074  0.00331050  0.33493704  1
  Ni  Ni3  1  1.00031225  0.33616924  1.00231606  1
  Ni  Ni4  1  0.16899838  0.50252448  0.17023344  1
  Ni  Ni5  1  1.00228553  0.33514545  0.33575335  1
  Ni  Ni6  1  0.00405871  0.66831756  0.00332681  1
  Ni  Ni7  1  0.16871812  0.83597188  0.16996260  1
  Ni  Ni8  1  1.00142179  0.66864522  0.33537083  1
  Ni  Ni9  1  0.33642210  1.00098394  1.00220502  1
  Ni  Ni10  1  0.50198613  0.16929819  0.16958734  1
  Ni  Ni11  1  0.33579577  0.00254176  0.33522814  1
  Fe  Fe12  1  0.33486706  0.33554595  0.00241228  1
  Ni  Ni13  1  0.50227896  0.50182294  0.16848365  1
  Ni  Ni14  1  0.33531956  0.33512266  0.33447985  1
  Ni  Ni15  1  0.33552459  0.66929011  0.00327011  1
  Ni  Ni16  1  0.50199244  0.83603123  0.16863877  1
  Ni  Ni17  1  0.33729813  0.66955758  0.33619629  1
  Ni  Ni18  1  0.66886159  0.00427646  0.00318312  1
  Ni  Ni19  1  0.83570365  0.16900635  0.17028351  1
  Fe  Fe20  1  0.66865723  1.00075554  0.33577364  1
  Ni  Ni21  1  0.66972019  0.33495179  0.00325527  1
  Ni  Ni22  1  0.83588306  0.50240917  0.16829526  1
  Fe  Fe23  1  0.66892336  0.33696757  0.33546749  1
  Fe  Fe24  1  0.67017496  0.66971546  0.00254918  1
  Ni  Ni25  1  0.83675631  0.83588502  0.16872256  1
  Ni  Ni26  1  0.66860795  0.66892753  0.33439211  1
  Ni  Ni27  1  0.17014084  0.16830672  0.50371130  1
  Ni  Ni28  1  1.00215903  0.00244089  0.66942569  1
  Fe  Fe29  1  0.16762984  0.16962679  0.83561179  1
  Fe  Fe30  1  0.16996661  0.50260819  0.50195210  1
  Ni  Ni31  1  1.00163814  0.33613273  0.66891862  1
  Ni  Ni32  1  0.16922483  0.50420765  0.83448408  1
  Ni  Ni33  1  0.16819852  0.83738275  0.50192367  1
  Ni  Ni34  1  1.00228009  0.66873737  0.66836625  1
  Ni  Ni35  1  0.16825751  0.83544920  0.83523410  1
  Ni  Ni36  1  0.50052554  0.16990876  0.50201907  1
  Ni  Ni37  1  0.33625373  1.00215149  0.66980279  1
  Ni  Ni38  1  0.50275237  0.16976293  0.83540804  1
  Ni  Ni39  1  0.50374904  0.50147874  0.50270283  1
  Ni  Ni40  1  0.33617603  0.33582416  0.66982653  1
  Ni  Ni41  1  0.50231153  0.50027588  0.83591857  1
  Ni  Ni42  1  0.50247498  0.83576702  0.50356146  1
  Ni  Ni43  1  0.33633285  0.66925186  0.66781550  1
  Fe  Fe44  1  0.50293898  0.83515940  0.83580272  1
  Fe  Fe45  1  0.83586604  0.16805963  0.50275617  1
  Ni  Ni46  1  0.66856769  1.00236988  0.66834173  1
  Ni  Ni47  1  0.83378234  0.16876943  0.83439870  1
  Ni  Ni48  1  0.83492870  0.50332098  0.50309907  1
  Ni  Ni49  1  0.66912984  0.33573651  0.66805538  1
  Ni  Ni50  1  0.83564224  0.50235035  0.83587463  1
  Ni  Ni51  1  0.83654685  0.83411218  0.50276332  1
  Ni  Ni52  1  0.66887859  0.66872964  0.67095435  1
  Ni  Ni53  1  0.83788501  0.83621042  0.83580265  1
" 