2532,Ni16Fe57Cr25_14,-225.202536002922, 171.770133288362,Ni16Fe57Cr25,"# generated using pymatgen
 data_Cr15Fe31Ni8
_symmetry_space_group_name_H-M   'P 1'
_cell_length_a   7.47251087
_cell_length_b   7.47251087
_cell_length_c   10.56772621
_cell_angle_alpha   90.00000000
_cell_angle_beta   90.00000000
_cell_angle_gamma   90.00000000
_symmetry_Int_Tables_number   1
_chemical_formula_structural   Cr15Fe31Ni8
_chemical_formula_sum   'Cr15 Fe31 Ni8'
_cell_volume   590.08512032
_cell_formula_units_Z   1
loop_
 _symmetry_equiv_pos_site_id
 _symmetry_equiv_pos_as_xyz
  1  'x, y, z'
loop_
 _atom_site_type_symbol
 _atom_site_label
 _atom_site_symmetry_multiplicity
 _atom_site_fract_x
 _atom_site_fract_y
 _atom_site_fract_z
 _atom_site_occupancy
  Fe  Fe0  1  0.00019542  0.99868061  0.00243095  1
  Fe  Fe1  1  0.16539812  0.16537720  0.16495741  1
  Cr  Cr2  1  0.00026885  0.00005385  0.33183233  1
  Ni  Ni3  1  0.00076248  0.33307255  0.00149807  1
  Fe  Fe4  1  0.16603954  0.50086270  0.16590240  1
  Fe  Fe5  1  0.00094493  0.33420791  0.32962945  1
  Ni  Ni6  1  0.99877923  0.66799729  0.00106306  1
  Fe  Fe7  1  0.16788382  0.83252470  0.16494228  1
  Fe  Fe8  1  0.00149171  0.66743744  0.32958877  1
  Ni  Ni9  1  0.33153447  0.99686616  0.00001861  1
  Cr  Cr10  1  0.49910210  0.16205307  0.16712285  1
  Fe  Fe11  1  0.33202986  0.99628045  0.33191397  1
  Cr  Cr12  1  0.33167312  0.33036566  0.99792850  1
  Fe  Fe13  1  0.49943446  0.50159420  0.16730985  1
  Fe  Fe14  1  0.32970547  0.33323247  0.33027487  1
  Fe  Fe15  1  0.33129483  0.66727992  0.00167859  1
  Fe  Fe16  1  0.49870156  0.83073595  0.16640188  1
  Ni  Ni17  1  0.33365005  0.66770669  0.33049532  1
  Fe  Fe18  1  0.66561212  0.99735542  0.00061977  1
  Fe  Fe19  1  0.83444726  0.16641698  0.16537853  1
  Fe  Fe20  1  0.66650354  0.99639628  0.33220926  1
  Cr  Cr21  1  0.66689094  0.33399487  0.00050383  1
  Fe  Fe22  1  0.83421311  0.50169975  0.16542093  1
  Fe  Fe23  1  0.66848951  0.33299249  0.33039038  1
  Ni  Ni24  1  0.66686834  0.67012995  0.00208473  1
  Fe  Fe25  1  0.83234218  0.83325359  0.16482500  1
  Fe  Fe26  1  0.66696922  0.66958574  0.33073246  1
  Fe  Fe27  1  0.16553681  0.16549215  0.49933085  1
  Fe  Fe28  1  -0.00033345  0.99806443  0.66487186  1
  Fe  Fe29  1  0.16549173  0.16218557  0.83449448  1
  Cr  Cr30  1  0.16524890  0.50172967  0.50045282  1
  Fe  Fe31  1  0.00178279  0.32992667  0.66782832  1
  Fe  Fe32  1  0.16466309  0.50033570  0.83540201  1
  Fe  Fe33  1  0.16854718  0.83371388  0.49831433  1
  Fe  Fe34  1  0.00191458  0.67139427  0.66833158  1
  Fe  Fe35  1  0.16523376  0.83529513  0.83568441  1
  Cr  Cr36  1  0.49844366  0.16354209  0.49765945  1
  Ni  Ni37  1  0.32936920  0.99847361  0.66520375  1
  Ni  Ni38  1  0.49745063  0.15866971  0.83342986  1
  Cr  Cr39  1  0.49894849  0.50142365  0.49499318  1
  Cr  Cr40  1  0.33274779  0.33023590  0.67023191  1
  Cr  Cr41  1  0.50016107  0.50121504  0.83596459  1
  Ni  Ni42  1  0.49862858  0.83611167  0.49707844  1
  Cr  Cr43  1  0.33396959  0.66981245  0.66918557  1
  Fe  Fe44  1  0.49982354  0.83587662  0.83513088  1
  Fe  Fe45  1  0.83346904  0.16487468  0.49935344  1
  Fe  Fe46  1  0.66276418  0.99826453  0.66615470  1
  Cr  Cr47  1  0.83268894  0.16315866  0.83475816  1
  Cr  Cr48  1  0.83680228  0.50049345  0.49908989  1
  Cr  Cr49  1  0.66623007  0.33208217  0.66694633  1
  Cr  Cr50  1  0.83728469  0.50205041  0.83364683  1
  Fe  Fe51  1  0.83231545  0.83464035  0.49864511  1
  Cr  Cr52  1  0.66738561  0.66945062  0.66522327  1
  Fe  Fe53  1  0.83246551  0.83359292  0.83569988  1
" 