7717,Ni16Fe84_9,-242.515226020895, 201.623012603418,Ni16Fe84,"# generated using pymatgen
 data_Fe4Ni23
_symmetry_space_group_name_H-M   'P 1'
_cell_length_a   7.43399018
_cell_length_b   7.43399018
_cell_length_c   10.51324974
_cell_angle_alpha   90.00000000
_cell_angle_beta   90.00000000
_cell_angle_gamma   90.00000000
_symmetry_Int_Tables_number   1
_chemical_formula_structural   Fe4Ni23
_chemical_formula_sum   'Fe8 Ni46'
_cell_volume   581.00644222
_cell_formula_units_Z   2
loop_
 _symmetry_equiv_pos_site_id
 _symmetry_equiv_pos_as_xyz
  1  'x, y, z'
loop_
 _atom_site_type_symbol
 _atom_site_label
 _atom_site_symmetry_multiplicity
 _atom_site_fract_x
 _atom_site_fract_y
 _atom_site_fract_z
 _atom_site_occupancy
  Ni  Ni0  1  1.00215201  0.00244390  0.00268133  1
  Ni  Ni1  1  0.16873224  0.16933196  0.16927549  1
  Fe  Fe2  1  0.00226006  1.00200019  0.33564205  1
  Ni  Ni3  1  0.00259277  0.33469498  0.00323105  1
  Ni  Ni4  1  0.16991571  0.50284451  0.16916309  1
  Fe  Fe5  1  0.00237407  0.33804082  0.33603329  1
  Ni  Ni6  1  0.00259168  0.66955658  1.00159881  1
  Ni  Ni7  1  0.16805120  0.83473933  0.16840060  1
  Ni  Ni8  1  0.00253481  0.67104288  0.33643132  1
  Ni  Ni9  1  0.33522272  1.00203205  0.00240174  1
  Ni  Ni10  1  0.50274829  0.16987012  0.16816473  1
  Fe  Fe11  1  0.33603080  1.00173807  0.33424159  1
  Ni  Ni12  1  0.33517585  0.33548349  0.00231939  1
  Ni  Ni13  1  0.50165036  0.50192676  0.16874657  1
  Ni  Ni14  1  0.33601562  0.33536233  0.33578248  1
  Ni  Ni15  1  0.33555324  0.66917630  0.00314247  1
  Ni  Ni16  1  0.50274472  0.83466134  0.16928657  1
  Ni  Ni17  1  0.33514179  0.66836114  0.33556682  1
  Ni  Ni18  1  0.66928033  1.00205092  0.00268511  1
  Ni  Ni19  1  0.83512808  0.16799599  0.16942804  1
  Fe  Fe20  1  0.66830883  1.00165419  0.33534839  1
  Ni  Ni21  1  0.66892160  0.33503599  1.00202102  1
  Fe  Fe22  1  0.83537554  0.50269638  0.16884915  1
  Ni  Ni23  1  0.66800382  0.33496544  0.33604149  1
  Ni  Ni24  1  0.66854598  0.66956552  0.00287449  1
  Ni  Ni25  1  0.83588281  0.83586485  0.16857791  1
  Ni  Ni26  1  0.66903748  0.66871633  0.33579792  1
  Ni  Ni27  1  0.16972383  0.16830688  0.50152874  1
  Ni  Ni28  1  1.00201685  0.00249789  0.66862359  1
  Ni  Ni29  1  0.16847454  0.16917406  0.83586830  1
  Ni  Ni30  1  0.16977195  0.50286523  0.50225372  1
  Ni  Ni31  1  0.00258901  0.33338637  0.66724026  1
  Ni  Ni32  1  0.16915922  0.50219918  0.83531804  1
  Ni  Ni33  1  0.16822384  0.83555240  0.50254052  1
  Fe  Fe34  1  1.00117628  0.66764697  0.66891028  1
  Ni  Ni35  1  0.16851154  0.83522892  0.83581127  1
  Ni  Ni36  1  0.50234354  0.16990391  0.50231628  1
  Fe  Fe37  1  0.33618321  0.00338009  0.66996479  1
  Ni  Ni38  1  0.50294231  0.16931606  0.83598702  1
  Ni  Ni39  1  0.50216353  0.50141437  0.50210475  1
  Ni  Ni40  1  0.33508399  0.33659156  0.66857698  1
  Ni  Ni41  1  0.50213075  0.50231561  0.83582247  1
  Fe  Fe42  1  0.50212329  0.83492703  0.50235662  1
  Ni  Ni43  1  0.33564877  0.66854281  0.66804668  1
  Ni  Ni44  1  0.50276277  0.83519923  0.83550005  1
  Ni  Ni45  1  0.83480712  0.16833964  0.50176238  1
  Ni  Ni46  1  0.67086388  1.00203220  0.66804815  1
  Ni  Ni47  1  0.83543936  0.16859949  0.83540538  1
  Ni  Ni48  1  0.83455514  0.50269758  0.50177936  1
  Ni  Ni49  1  0.66900538  0.33532202  0.66858377  1
  Ni  Ni50  1  0.83518391  0.50201422  0.83582068  1
  Ni  Ni51  1  0.83613759  0.83558095  0.50244735  1
  Ni  Ni52  1  0.66767653  0.66930700  0.66804642  1
  Ni  Ni53  1  0.83539287  0.83586941  0.83566669  1
" 