2639,Ni16Fe12Cr70_7,-209.844599469448, 176.225060204438,Ni16Fe12Cr70,"# generated using pymatgen
 data_Cr20Fe3Ni4
_symmetry_space_group_name_H-M   'P 1'
_cell_length_a   7.56115939
_cell_length_b   7.56115939
_cell_length_c   10.69309416
_cell_angle_alpha   90.00000000
_cell_angle_beta   90.00000000
_cell_angle_gamma   90.00000000
_symmetry_Int_Tables_number   1
_chemical_formula_structural   Cr20Fe3Ni4
_chemical_formula_sum   'Cr40 Fe6 Ni8'
_cell_volume   611.33629070
_cell_formula_units_Z   2
loop_
 _symmetry_equiv_pos_site_id
 _symmetry_equiv_pos_as_xyz
  1  'x, y, z'
loop_
 _atom_site_type_symbol
 _atom_site_label
 _atom_site_symmetry_multiplicity
 _atom_site_fract_x
 _atom_site_fract_y
 _atom_site_fract_z
 _atom_site_occupancy
  Cr  Cr0  1  -0.00523795  0.99199214  0.99306563  1
  Cr  Cr1  1  0.16207501  0.16110137  0.16113046  1
  Cr  Cr2  1  -0.00452009  0.99249358  0.32770509  1
  Cr  Cr3  1  0.99207551  0.32830048  -0.00595955  1
  Ni  Ni4  1  0.16188739  0.49561545  0.16139817  1
  Cr  Cr5  1  -0.00558167  0.32825247  0.32764440  1
  Cr  Cr6  1  -0.00498879  0.66103273  -0.00525703  1
  Fe  Fe7  1  0.16090826  0.82500798  0.16129801  1
  Fe  Fe8  1  -0.00415784  0.66086568  0.32672297  1
  Cr  Cr9  1  0.32751311  0.99349323  -0.00579237  1
  Ni  Ni10  1  0.49384231  0.16283923  0.15901086  1
  Cr  Cr11  1  0.32667477  0.99288785  0.32725417  1
  Cr  Cr12  1  0.33055235  0.32716870  -0.00483620  1
  Ni  Ni13  1  0.49279176  0.49240173  0.15851837  1
  Cr  Cr14  1  0.32704865  0.32716919  0.32571985  1
  Cr  Cr15  1  0.32612944  0.66066614  -0.00559585  1
  Cr  Cr16  1  0.49396833  0.82675324  0.16063242  1
  Cr  Cr17  1  0.32538409  0.66127274  0.32706060  1
  Cr  Cr18  1  0.65906005  -0.00357015  -0.00582120  1
  Cr  Cr19  1  0.82565621  0.16012205  0.15985954  1
  Cr  Cr20  1  0.65917364  -0.00583630  0.32740009  1
  Ni  Ni21  1  0.65803745  0.32738232  -0.00534484  1
  Cr  Cr22  1  0.82678804  0.49497167  0.15986112  1
  Cr  Cr23  1  0.65986442  0.32696201  0.32547112  1
  Fe  Fe24  1  0.65963069  0.65792418  -0.00536874  1
  Cr  Cr25  1  0.82769713  0.82623610  0.16044186  1
  Cr  Cr26  1  0.66025488  0.66020678  0.32773727  1
  Ni  Ni27  1  0.16010593  0.15726934  0.49467155  1
  Fe  Fe28  1  -0.00582948  0.99334933  0.65910957  1
  Cr  Cr29  1  0.16121853  0.15947308  0.82558468  1
  Cr  Cr30  1  0.16063889  0.49341612  0.49300048  1
  Cr  Cr31  1  -0.00619918  0.32589767  0.65964351  1
  Cr  Cr32  1  0.16113800  0.49397257  0.82661691  1
  Ni  Ni33  1  0.15993871  0.82895684  0.49386607  1
  Cr  Cr34  1  -0.00492322  0.66190929  0.66054508  1
  Fe  Fe35  1  0.16049658  0.82788849  0.82626426  1
  Cr  Cr36  1  0.49248227  0.15862852  0.49425929  1
  Cr  Cr37  1  0.32708358  0.99283869  0.65986803  1
  Ni  Ni38  1  0.49498581  0.15969026  0.82751211  1
  Cr  Cr39  1  0.49303376  0.49530091  0.49416219  1
  Cr  Cr40  1  0.32685705  0.32583797  0.66044194  1
  Cr  Cr41  1  0.49414959  0.49298100  0.82858228  1
  Fe  Fe42  1  0.49249717  0.82836348  0.49464217  1
  Cr  Cr43  1  0.32626307  0.66265633  0.65986402  1
  Cr  Cr44  1  0.49457400  0.82802104  0.82602202  1
  Cr  Cr45  1  0.82875018  0.15844441  0.49519313  1
  Ni  Ni46  1  0.66012490  -0.00610423  0.66045899  1
  Cr  Cr47  1  0.82590477  0.15905629  0.82627481  1
  Cr  Cr48  1  0.82766003  0.49493941  0.49303211  1
  Cr  Cr49  1  0.66067323  0.32508194  0.66127305  1
  Cr  Cr50  1  0.82604087  0.49433083  0.82844273  1
  Cr  Cr51  1  0.82686742  0.82794681  0.49412763  1
  Cr  Cr52  1  0.65998704  0.66213592  0.65976087  1
  Cr  Cr53  1  0.82689141  0.82794312  0.82676232  1
" 