138,Ni16Fe84_15,-242.156085814203, 200.359103181222,Ni16Fe84,"# generated using pymatgen
 data_Fe4Ni23
_symmetry_space_group_name_H-M   'P 1'
_cell_length_a   7.43046515
_cell_length_b   7.43046515
_cell_length_c   10.50826459
_cell_angle_alpha   90.00000000
_cell_angle_beta   90.00000000
_cell_angle_gamma   90.00000000
_symmetry_Int_Tables_number   1
_chemical_formula_structural   Fe4Ni23
_chemical_formula_sum   'Fe8 Ni46'
_cell_volume   580.18033305
_cell_formula_units_Z   2
loop_
 _symmetry_equiv_pos_site_id
 _symmetry_equiv_pos_as_xyz
  1  'x, y, z'
loop_
 _atom_site_type_symbol
 _atom_site_label
 _atom_site_symmetry_multiplicity
 _atom_site_fract_x
 _atom_site_fract_y
 _atom_site_fract_z
 _atom_site_occupancy
  Ni  Ni0  1  0.00256087  1.00244699  0.00333866  1
  Ni  Ni1  1  0.16853149  0.16856522  0.16910393  1
  Fe  Fe2  1  0.00351288  1.00162848  0.33585740  1
  Ni  Ni3  1  0.00296753  0.33632851  1.00200795  1
  Fe  Fe4  1  0.16951220  0.50214357  0.16853508  1
  Ni  Ni5  1  0.00321259  0.33650255  0.33584269  1
  Ni  Ni6  1  1.00127589  0.66852978  0.00248565  1
  Ni  Ni7  1  0.16844510  0.83548230  0.16873522  1
  Ni  Ni8  1  1.00205081  0.66726862  0.33588159  1
  Ni  Ni9  1  0.33661764  0.00332904  0.00255524  1
  Ni  Ni10  1  0.50255121  0.17082306  0.16916710  1
  Ni  Ni11  1  0.33742500  0.00317422  0.33549105  1
  Ni  Ni12  1  0.33517525  0.33456619  0.00257049  1
  Ni  Ni13  1  0.50230325  0.50250157  0.16921222  1
  Ni  Ni14  1  0.33378202  0.33518597  0.33583544  1
  Fe  Fe15  1  0.33614185  0.66935295  1.00209245  1
  Ni  Ni16  1  0.50234416  0.83416160  0.16941695  1
  Ni  Ni17  1  0.33541312  0.66903322  0.33552356  1
  Ni  Ni18  1  0.66822824  1.00170970  0.00262194  1
  Ni  Ni19  1  0.83631045  0.16880949  0.16999729  1
  Ni  Ni20  1  0.66829001  1.00192778  0.33538907  1
  Ni  Ni21  1  0.66934551  0.33606654  0.00343596  1
  Fe  Fe22  1  0.83541196  0.50253320  0.16969033  1
  Fe  Fe23  1  0.66812609  0.33650981  0.33613511  1
  Ni  Ni24  1  0.67038305  0.66966577  0.00260286  1
  Ni  Ni25  1  0.83674016  0.83593348  0.16953261  1
  Ni  Ni26  1  0.66980551  0.67083650  0.33604150  1
  Ni  Ni27  1  0.16903279  0.16781862  0.50271662  1
  Ni  Ni28  1  1.00245333  0.00250223  0.66855426  1
  Ni  Ni29  1  0.16836229  0.16905402  0.83567417  1
  Fe  Fe30  1  0.16819825  0.50169487  0.50305778  1
  Ni  Ni31  1  0.00264521  0.33595463  0.66946811  1
  Ni  Ni32  1  0.17057345  0.50279013  0.83532738  1
  Ni  Ni33  1  0.16842590  0.83542062  0.50237889  1
  Ni  Ni34  1  1.00209881  0.66870596  0.66896792  1
  Ni  Ni35  1  0.16790321  0.83553083  0.83613534  1
  Ni  Ni36  1  0.50226710  0.17189714  0.50233303  1
  Ni  Ni37  1  0.33628276  0.00295324  0.66936766  1
  Ni  Ni38  1  0.50296745  0.17089607  0.83606169  1
  Ni  Ni39  1  0.50225236  0.50273717  0.50243178  1
  Ni  Ni40  1  0.33534831  0.33521453  0.66890367  1
  Ni  Ni41  1  0.50227121  0.50198433  0.83569376  1
  Fe  Fe42  1  0.50310964  0.83691939  0.50243874  1
  Ni  Ni43  1  0.33574882  0.66933957  0.66870770  1
  Ni  Ni44  1  0.50269516  0.83441372  0.83530672  1
  Ni  Ni45  1  0.83608228  0.16912688  0.50191985  1
  Ni  Ni46  1  0.66879338  1.00239087  0.66935864  1
  Ni  Ni47  1  0.83604829  0.16838661  0.83573321  1
  Ni  Ni48  1  0.83394672  0.50287350  0.50270705  1
  Ni  Ni49  1  0.66923808  0.33558381  0.66864076  1
  Fe  Fe50  1  0.83567517  0.50224397  0.83520831  1
  Ni  Ni51  1  0.83770630  0.83538506  0.50228041  1
  Ni  Ni52  1  0.66953650  0.66971056  0.66880841  1
  Ni  Ni53  1  0.83680266  0.83638484  0.83564811  1
" 