7736,Ni16Fe12Cr70_6,-210.076388956152, 180.046775812787,Ni16Fe12Cr70,"# generated using pymatgen
 data_Cr20Fe3Ni4
_symmetry_space_group_name_H-M   'P 1'
_cell_length_a   7.56286424
_cell_length_b   7.56286424
_cell_length_c   10.69550518
_cell_angle_alpha   90.00000000
_cell_angle_beta   90.00000000
_cell_angle_gamma   90.00000000
_symmetry_Int_Tables_number   1
_chemical_formula_structural   Cr20Fe3Ni4
_chemical_formula_sum   'Cr40 Fe6 Ni8'
_cell_volume   611.74990674
_cell_formula_units_Z   2
loop_
 _symmetry_equiv_pos_site_id
 _symmetry_equiv_pos_as_xyz
  1  'x, y, z'
loop_
 _atom_site_type_symbol
 _atom_site_label
 _atom_site_symmetry_multiplicity
 _atom_site_fract_x
 _atom_site_fract_y
 _atom_site_fract_z
 _atom_site_occupancy
  Fe  Fe0  1  0.99345155  0.99263235  -0.00548877  1
  Ni  Ni1  1  0.16051587  0.15802436  0.15943513  1
  Cr  Cr2  1  0.99195293  0.99273611  0.32502360  1
  Fe  Fe3  1  0.99319005  0.32692819  -0.00549482  1
  Cr  Cr4  1  0.15876045  0.49285429  0.15970026  1
  Cr  Cr5  1  -0.00599888  0.32657152  0.32631514  1
  Ni  Ni6  1  0.99200137  0.66320175  -0.00616048  1
  Cr  Cr7  1  0.16089549  0.82780728  0.15968826  1
  Cr  Cr8  1  -0.00579695  0.66185059  0.32753244  1
  Cr  Cr9  1  0.32663428  -0.00542974  -0.00498204  1
  Ni  Ni10  1  0.49299657  0.15686797  0.16284991  1
  Fe  Fe11  1  0.32808503  -0.00523559  0.32519937  1
  Cr  Cr12  1  0.32779882  0.32518748  -0.00296959  1
  Cr  Cr13  1  0.49503708  0.49662482  0.15921469  1
  Cr  Cr14  1  0.32837714  0.32627103  0.32427762  1
  Cr  Cr15  1  0.32560747  0.66140356  0.99148909  1
  Cr  Cr16  1  0.49586616  0.82709906  0.16276155  1
  Ni  Ni17  1  0.32749299  0.66202705  0.32685203  1
  Cr  Cr18  1  0.66080993  -0.00548200  -0.00568595  1
  Cr  Cr19  1  0.82873184  0.15945895  0.15834156  1
  Ni  Ni20  1  0.65792388  -0.00626004  0.32567802  1
  Cr  Cr21  1  0.65918620  0.32532544  0.99307163  1
  Cr  Cr22  1  0.82693621  0.49566468  0.15898740  1
  Cr  Cr23  1  0.65883694  0.32373498  0.32731791  1
  Ni  Ni24  1  0.66546996  0.66234490  -0.00383426  1
  Fe  Fe25  1  0.82671509  0.82777386  0.15973738  1
  Fe  Fe26  1  0.65988938  0.66118602  0.32543555  1
  Cr  Cr27  1  0.16181696  0.15898138  0.49188623  1
  Cr  Cr28  1  0.99291273  0.99127830  0.66255427  1
  Cr  Cr29  1  0.15729872  0.15970114  0.82910070  1
  Cr  Cr30  1  0.16125637  0.49358653  0.49268743  1
  Cr  Cr31  1  0.99243167  0.32686277  0.65919613  1
  Cr  Cr32  1  0.15842559  0.49251414  0.82818464  1
  Cr  Cr33  1  0.16292712  0.82831709  0.49370749  1
  Cr  Cr34  1  -0.00572228  0.66247338  0.65925434  1
  Fe  Fe35  1  0.15754389  0.82770393  0.82955626  1
  Ni  Ni36  1  0.49379816  0.15737777  0.49089312  1
  Cr  Cr37  1  0.32695405  0.99322482  0.66078207  1
  Cr  Cr38  1  0.49407318  0.15925078  0.82610767  1
  Cr  Cr39  1  0.49347924  0.49556684  0.49307755  1
  Cr  Cr40  1  0.32892815  0.32672624  0.65928806  1
  Cr  Cr41  1  0.49514112  0.49577572  0.82884437  1
  Cr  Cr42  1  0.49346465  0.82875628  0.49074562  1
  Cr  Cr43  1  0.32465781  0.66142668  0.66298145  1
  Cr  Cr44  1  0.49390603  0.82631074  0.82759993  1
  Cr  Cr45  1  0.82655843  0.15891732  0.49513636  1
  Cr  Cr46  1  0.66090490  -0.00471884  0.66048047  1
  Ni  Ni47  1  0.83040719  0.15934255  0.82879480  1
  Cr  Cr48  1  0.82620887  0.49369728  0.49282326  1
  Cr  Cr49  1  0.65965203  0.32486833  0.66053815  1
  Cr  Cr50  1  0.82750365  0.49231147  0.82880880  1
  Cr  Cr51  1  0.82424058  0.82790824  0.49023137  1
  Cr  Cr52  1  0.66135998  0.66099281  0.66030344  1
  Cr  Cr53  1  0.82643168  0.82760480  0.83007073  1
" 