4935,Ni16Fe84_10,-242.508640392574, 202.590120083717,Ni16Fe84,"# generated using pymatgen
 data_Fe4Ni23
_symmetry_space_group_name_H-M   'P 1'
_cell_length_a   7.43117079
_cell_length_b   7.43117079
_cell_length_c   10.50926251
_cell_angle_alpha   90.00000000
_cell_angle_beta   90.00000000
_cell_angle_gamma   90.00000000
_symmetry_Int_Tables_number   1
_chemical_formula_structural   Fe4Ni23
_chemical_formula_sum   'Fe8 Ni46'
_cell_volume   580.34564000
_cell_formula_units_Z   2
loop_
 _symmetry_equiv_pos_site_id
 _symmetry_equiv_pos_as_xyz
  1  'x, y, z'
loop_
 _atom_site_type_symbol
 _atom_site_label
 _atom_site_symmetry_multiplicity
 _atom_site_fract_x
 _atom_site_fract_y
 _atom_site_fract_z
 _atom_site_occupancy
  Fe  Fe0  1  1.00208512  1.00161420  0.00262608  1
  Ni  Ni1  1  0.16951760  0.16893785  0.16901660  1
  Ni  Ni2  1  0.00304953  1.00175737  0.33512141  1
  Fe  Fe3  1  1.00193565  0.33586537  0.00256318  1
  Ni  Ni4  1  0.16830898  0.50299105  0.16843972  1
  Ni  Ni5  1  0.00340966  0.33674975  0.33546457  1
  Ni  Ni6  1  1.00195962  0.66930190  0.00242610  1
  Ni  Ni7  1  0.16970209  0.83531969  0.16918694  1
  Ni  Ni8  1  1.00179909  0.66873482  0.33609837  1
  Ni  Ni9  1  0.33578342  0.00341416  0.00242066  1
  Ni  Ni10  1  0.50267884  0.16824585  0.16933248  1
  Ni  Ni11  1  0.33597476  0.00352620  0.33545372  1
  Ni  Ni12  1  0.33569405  0.33462588  0.00250144  1
  Fe  Fe13  1  0.50238826  0.50215510  0.16832468  1
  Ni  Ni14  1  0.33522756  0.33480193  0.33570802  1
  Ni  Ni15  1  0.33458723  0.66908427  1.00202478  1
  Ni  Ni16  1  0.50204290  0.83608867  0.16768459  1
  Fe  Fe17  1  0.33583379  0.66927193  0.33533412  1
  Ni  Ni18  1  0.66864644  0.00255720  1.00215032  1
  Ni  Ni19  1  0.83490349  0.16959618  0.16886648  1
  Ni  Ni20  1  0.66820991  1.00174543  0.33599721  1
  Ni  Ni21  1  0.66808100  0.33550098  0.00257174  1
  Ni  Ni22  1  0.83597248  0.50234419  0.16876956  1
  Ni  Ni23  1  0.66851313  0.33614431  0.33557150  1
  Ni  Ni24  1  0.67068220  0.66931401  0.00253364  1
  Ni  Ni25  1  0.83555045  0.83527508  0.16948244  1
  Ni  Ni26  1  0.67039610  0.66932925  0.33485264  1
  Ni  Ni27  1  0.16861790  0.16848161  0.50232236  1
  Ni  Ni28  1  0.00323034  1.00166648  0.66910340  1
  Ni  Ni29  1  0.16949412  0.16737211  0.83589753  1
  Ni  Ni30  1  0.16880858  0.50310201  0.50352317  1
  Ni  Ni31  1  0.00313555  0.33627567  0.66981909  1
  Fe  Fe32  1  0.16832625  0.50140831  0.83607299  1
  Ni  Ni33  1  0.17009543  0.83576381  0.50187288  1
  Ni  Ni34  1  1.00177000  0.66915452  0.66892769  1
  Ni  Ni35  1  0.16923442  0.83576066  0.83606522  1
  Ni  Ni36  1  0.50276205  0.16883861  0.50272172  1
  Ni  Ni37  1  0.33544168  0.00367061  0.66943890  1
  Ni  Ni38  1  0.50240262  0.17045034  0.83519664  1
  Ni  Ni39  1  0.50314292  0.50298392  0.50146475  1
  Ni  Ni40  1  0.33575185  0.33478645  0.66895315  1
  Ni  Ni41  1  0.50316865  0.50235259  0.83637660  1
  Ni  Ni42  1  0.50139596  0.83550480  0.50354112  1
  Fe  Fe43  1  0.33609855  0.66895321  0.66958913  1
  Fe  Fe44  1  0.50358915  0.83680344  0.83641524  1
  Ni  Ni45  1  0.83585589  0.17032846  0.50273956  1
  Ni  Ni46  1  0.66872859  1.00214378  0.66923364  1
  Ni  Ni47  1  0.83520570  0.16951570  0.83565651  1
  Ni  Ni48  1  0.83543290  0.50169136  0.50273117  1
  Ni  Ni49  1  0.66825736  0.33641222  0.66883697  1
  Ni  Ni50  1  0.83424052  0.50252210  0.83581997  1
  Fe  Fe51  1  0.83559660  0.83603941  0.50244061  1
  Ni  Ni52  1  0.67048186  0.66888076  0.66970718  1
  Ni  Ni53  1  0.83715403  0.83519729  0.83536267  1
" 