2500,Ni16Fe77Cr6_2,-229.709368459222, 176.106265092784,Ni16Fe77Cr6,"# generated using pymatgen
 data_Cr4Fe41Ni9
_symmetry_space_group_name_H-M   'P 1'
_cell_length_a   7.41761228
_cell_length_b   7.41761228
_cell_length_c   10.49008789
_cell_angle_alpha   90.00000000
_cell_angle_beta   90.00000000
_cell_angle_gamma   90.00000000
_symmetry_Int_Tables_number   1
_chemical_formula_structural   Cr4Fe41Ni9
_chemical_formula_sum   'Cr4 Fe41 Ni9'
_cell_volume   577.17483108
_cell_formula_units_Z   1
loop_
 _symmetry_equiv_pos_site_id
 _symmetry_equiv_pos_as_xyz
  1  'x, y, z'
loop_
 _atom_site_type_symbol
 _atom_site_label
 _atom_site_symmetry_multiplicity
 _atom_site_fract_x
 _atom_site_fract_y
 _atom_site_fract_z
 _atom_site_occupancy
  Fe  Fe0  1  1.00185072  1.00174099  1.00220738  1
  Cr  Cr1  1  0.16985699  0.17019333  0.16934547  1
  Fe  Fe2  1  1.00278755  0.00337440  0.33680061  1
  Fe  Fe3  1  1.00201526  0.33791337  1.00273477  1
  Fe  Fe4  1  0.16975989  0.50539847  0.16994736  1
  Fe  Fe5  1  1.00198713  0.33682233  0.33749119  1
  Ni  Ni6  1  1.00268445  0.67019085  0.00412061  1
  Fe  Fe7  1  0.16844885  0.83506768  0.16958240  1
  Fe  Fe8  1  0.00370992  0.66980702  0.33529198  1
  Ni  Ni9  1  0.33631668  0.00381642  1.00214055  1
  Fe  Fe10  1  0.50510769  0.17121055  0.16980221  1
  Fe  Fe11  1  0.33709998  1.00323613  0.33785388  1
  Fe  Fe12  1  0.33825763  0.33821559  1.00176277  1
  Fe  Fe13  1  0.50362555  0.50144572  0.16955342  1
  Fe  Fe14  1  0.33819235  0.33724702  0.33836575  1
  Fe  Fe15  1  0.33660937  0.66896534  1.00241133  1
  Cr  Cr16  1  0.50483246  0.83579416  0.16942965  1
  Fe  Fe17  1  0.33660690  0.66951040  0.33788235  1
  Fe  Fe18  1  0.67110239  0.00339413  1.00285557  1
  Fe  Fe19  1  0.83434517  0.16989658  0.17029361  1
  Ni  Ni20  1  0.66948967  0.00537512  0.33653073  1
  Ni  Ni21  1  0.66974226  0.33724545  0.00412208  1
  Fe  Fe22  1  0.83661575  0.50354595  0.16926338  1
  Fe  Fe23  1  0.66980930  0.33633364  0.33637565  1
  Ni  Ni24  1  0.67251177  0.66807634  1.00283396  1
  Fe  Fe25  1  0.83829722  0.83655626  0.16957853  1
  Fe  Fe26  1  0.66968086  0.66870761  0.33654482  1
  Fe  Fe27  1  0.16974645  0.17143119  0.50263808  1
  Fe  Fe28  1  1.00278691  0.00445787  0.67099103  1
  Fe  Fe29  1  0.16977635  0.17074245  0.83753990  1
  Fe  Fe30  1  0.17050616  0.50326126  0.50352048  1
  Fe  Fe31  1  0.00416061  0.33624885  0.66976852  1
  Fe  Fe32  1  0.16988470  0.50381596  0.83653349  1
  Fe  Fe33  1  0.17132686  0.83530384  0.50240034  1
  Fe  Fe34  1  0.00465982  0.66930019  0.67150313  1
  Fe  Fe35  1  0.16913495  0.83544340  0.83800542  1
  Fe  Fe36  1  0.50432138  0.17101742  0.50240725  1
  Cr  Cr37  1  0.33729801  0.00361180  0.66857404  1
  Fe  Fe38  1  0.50429660  0.17096357  0.83777960  1
  Ni  Ni39  1  0.50227064  0.50294178  0.50283291  1
  Ni  Ni40  1  0.33667592  0.33778105  0.66987106  1
  Ni  Ni41  1  0.50251045  0.50318742  0.83739005  1
  Fe  Fe42  1  0.50279897  0.83565895  0.50185532  1
  Fe  Fe43  1  0.33718492  0.66726750  0.66970046  1
  Fe  Fe44  1  0.50468139  0.83548244  0.83816273  1
  Fe  Fe45  1  0.83592690  0.17183677  0.50294704  1
  Fe  Fe46  1  0.67075327  0.00438833  0.67034236  1
  Fe  Fe47  1  0.83592056  0.17021018  0.83675907  1
  Fe  Fe48  1  0.83627877  0.50174498  0.50320285  1
  Fe  Fe49  1  0.66871141  0.33697403  0.67041841  1
  Fe  Fe50  1  0.83596183  0.50419959  0.83754044  1
  Cr  Cr51  1  0.83611951  0.83751276  0.50297398  1
  Fe  Fe52  1  0.66814823  0.66864651  0.67149993  1
  Ni  Ni53  1  0.83675855  0.83743292  0.83766395  1
" 