3961,Ni17Fe81Cr1_13,-230.528135819785, 171.91412169205,Ni17Fe81Cr1,"# generated using pymatgen
 data_CrFe44Ni9
_symmetry_space_group_name_H-M   'P 1'
_cell_length_a   7.40665351
_cell_length_b   7.40665351
_cell_length_c   10.47458984
_cell_angle_alpha   90.00000000
_cell_angle_beta   90.00000000
_cell_angle_gamma   90.00000000
_symmetry_Int_Tables_number   1
_chemical_formula_structural   CrFe44Ni9
_chemical_formula_sum   'Cr1 Fe44 Ni9'
_cell_volume   574.62045609
_cell_formula_units_Z   1
loop_
 _symmetry_equiv_pos_site_id
 _symmetry_equiv_pos_as_xyz
  1  'x, y, z'
loop_
 _atom_site_type_symbol
 _atom_site_label
 _atom_site_symmetry_multiplicity
 _atom_site_fract_x
 _atom_site_fract_y
 _atom_site_fract_z
 _atom_site_occupancy
  Fe  Fe0  1  1.00403799  0.00414883  0.00410848  1
  Fe  Fe1  1  0.17069456  0.17177412  0.17006055  1
  Fe  Fe2  1  1.00233948  1.00361878  0.33733821  1
  Fe  Fe3  1  0.00423261  0.33749710  1.00374348  1
  Ni  Ni4  1  0.17074747  0.50369394  0.17132442  1
  Fe  Fe5  1  0.00448128  0.33837131  0.33767191  1
  Fe  Fe6  1  0.00437807  0.67058458  0.00479567  1
  Fe  Fe7  1  0.17006499  0.83595679  0.16999429  1
  Ni  Ni8  1  1.00240988  0.67000662  0.33679520  1
  Fe  Fe9  1  0.33756525  1.00377732  1.00402739  1
  Fe  Fe10  1  0.50412781  0.17177157  0.17013302  1
  Cr  Cr11  1  0.33784287  0.00513322  0.33666347  1
  Fe  Fe12  1  0.33741083  0.33790879  0.00467328  1
  Fe  Fe13  1  0.50358753  0.50446193  0.17067225  1
  Ni  Ni14  1  0.33705311  0.33799243  0.33713676  1
  Fe  Fe15  1  0.33763652  0.67054404  0.00419465  1
  Ni  Ni16  1  0.50540014  0.83677369  0.17008138  1
  Fe  Fe17  1  0.33741132  0.66855284  0.33688055  1
  Fe  Fe18  1  0.67062932  1.00392341  1.00391934  1
  Fe  Fe19  1  0.83740983  0.17064038  0.17055947  1
  Fe  Fe20  1  0.67225701  1.00339315  0.33760084  1
  Fe  Fe21  1  0.67058784  0.33756898  1.00370261  1
  Fe  Fe22  1  0.83745101  0.50509139  0.17119815  1
  Fe  Fe23  1  0.67056469  0.33814524  0.33741061  1
  Fe  Fe24  1  0.67021718  0.67073821  0.00449092  1
  Fe  Fe25  1  0.83744781  0.83649813  0.17123242  1
  Ni  Ni26  1  0.67241478  0.67071693  0.33679743  1
  Fe  Fe27  1  0.17021040  0.17180405  0.50521882  1
  Fe  Fe28  1  0.00410773  0.00461288  0.67078462  1
  Fe  Fe29  1  0.17123418  0.17123519  0.83695162  1
  Fe  Fe30  1  0.17040077  0.50377920  0.50325329  1
  Ni  Ni31  1  0.00419755  0.33846600  0.67114122  1
  Fe  Fe32  1  0.17090063  0.50384906  0.83774427  1
  Fe  Fe33  1  0.16984062  0.83664923  0.50505400  1
  Fe  Fe34  1  0.00414850  0.67133841  0.67025380  1
  Fe  Fe35  1  0.17146078  0.83714895  0.83718194  1
  Fe  Fe36  1  0.50461154  0.17127498  0.50514234  1
  Ni  Ni37  1  0.33866206  0.00421265  0.67185456  1
  Fe  Fe38  1  0.50407662  0.17074590  0.83695522  1
  Fe  Fe39  1  0.50411924  0.50400862  0.50407466  1
  Fe  Fe40  1  0.33766930  0.33666065  0.67044815  1
  Ni  Ni41  1  0.50399509  0.50407650  0.83732891  1
  Fe  Fe42  1  0.50521082  0.83694706  0.50471857  1
  Fe  Fe43  1  0.33763851  0.67107645  0.67115572  1
  Fe  Fe44  1  0.50407834  0.83740762  0.83744499  1
  Fe  Fe45  1  0.83740954  0.17071140  0.50465163  1
  Ni  Ni46  1  0.66910096  1.00352961  0.67087326  1
  Fe  Fe47  1  0.83691993  0.17130410  0.83702131  1
  Fe  Fe48  1  0.83771065  0.50437749  0.50385011  1
  Fe  Fe49  1  0.67055863  0.33661869  0.67111774  1
  Fe  Fe50  1  0.83718113  0.50385184  0.83718080  1
  Fe  Fe51  1  0.83717926  0.83714303  0.50374338  1
  Fe  Fe52  1  0.67044347  0.67096921  0.67055440  1
  Fe  Fe53  1  0.83669148  0.83707642  0.83725286  1
" 