2934,Ni17Fe81Cr1_10,-230.42304642056, 159.764276196666,Ni17Fe81Cr1,"# generated using pymatgen
 data_CrFe44Ni9
_symmetry_space_group_name_H-M   'P 1'
_cell_length_a   7.41086925
_cell_length_b   7.41086925
_cell_length_c   10.48055180
_cell_angle_alpha   90.00000000
_cell_angle_beta   90.00000000
_cell_angle_gamma   90.00000000
_symmetry_Int_Tables_number   1
_chemical_formula_structural   CrFe44Ni9
_chemical_formula_sum   'Cr1 Fe44 Ni9'
_cell_volume   575.60220772
_cell_formula_units_Z   1
loop_
 _symmetry_equiv_pos_site_id
 _symmetry_equiv_pos_as_xyz
  1  'x, y, z'
loop_
 _atom_site_type_symbol
 _atom_site_label
 _atom_site_symmetry_multiplicity
 _atom_site_fract_x
 _atom_site_fract_y
 _atom_site_fract_z
 _atom_site_occupancy
  Fe  Fe0  1  1.00371582  1.00367937  0.00415732  1
  Fe  Fe1  1  0.17052442  0.17045617  0.17127345  1
  Ni  Ni2  1  0.00476028  1.00335961  0.33781032  1
  Fe  Fe3  1  1.00371600  0.33715799  1.00353090  1
  Fe  Fe4  1  0.17019768  0.50337544  0.17148277  1
  Ni  Ni5  1  0.00475586  0.33764051  0.33720643  1
  Fe  Fe6  1  0.00387559  0.67053329  0.00395280  1
  Fe  Fe7  1  0.17019578  0.83753796  0.17148602  1
  Ni  Ni8  1  1.00218474  0.67037317  0.33675531  1
  Fe  Fe9  1  0.33719943  1.00371510  0.00419312  1
  Fe  Fe10  1  0.50319727  0.17045767  0.17074815  1
  Ni  Ni11  1  0.33720941  0.00492491  0.33678740  1
  Fe  Fe12  1  0.33727750  0.33720056  0.00427083  1
  Fe  Fe13  1  0.50394146  0.50379427  0.17068603  1
  Ni  Ni14  1  0.33684221  0.33570203  0.33715329  1
  Fe  Fe15  1  0.33708139  0.67045507  1.00345171  1
  Fe  Fe16  1  0.50394306  0.83711894  0.17068216  1
  Fe  Fe17  1  0.33548224  0.67045433  0.33766388  1
  Fe  Fe18  1  0.67045583  0.00387560  1.00356619  1
  Fe  Fe19  1  0.83765963  0.17045649  0.17067903  1
  Fe  Fe20  1  0.67100798  0.00390182  0.33704902  1
  Fe  Fe21  1  0.67037753  0.33704013  1.00364423  1
  Fe  Fe22  1  0.83722939  0.50412145  0.17101056  1
  Fe  Fe23  1  0.67092871  0.33701851  0.33697143  1
  Fe  Fe24  1  0.67041324  0.67045523  0.00423452  1
  Fe  Fe25  1  0.83723133  0.83679421  0.17101398  1
  Ni  Ni26  1  0.67134187  0.67073915  0.33742692  1
  Fe  Fe27  1  0.17023888  0.17072246  0.50311061  1
  Fe  Fe28  1  0.00390141  0.00581957  0.66995044  1
  Fe  Fe29  1  0.17017160  0.17071172  0.83699136  1
  Ni  Ni30  1  0.17114457  0.50352143  0.50240808  1
  Ni  Ni31  1  0.00406457  0.33589012  0.67110136  1
  Fe  Fe32  1  0.17110009  0.50255153  0.83729448  1
  Ni  Ni33  1  0.17117119  0.83728380  0.50239042  1
  Cr  Cr34  1  1.00347988  0.66952634  0.66986082  1
  Fe  Fe35  1  0.17142901  0.83810143  0.83762309  1
  Fe  Fe36  1  0.50210764  0.17037937  0.50342418  1
  Fe  Fe37  1  0.33623450  1.00376357  0.66987597  1
  Fe  Fe38  1  0.50377990  0.17038060  0.83719642  1
  Fe  Fe39  1  0.50280935  0.50444191  0.50344241  1
  Fe  Fe40  1  0.33626616  0.33769684  0.66987474  1
  Fe  Fe41  1  0.50386613  0.50390017  0.83724460  1
  Fe  Fe42  1  0.50280645  0.83654909  0.50352586  1
  Fe  Fe43  1  0.33784144  0.66990891  0.67024237  1
  Fe  Fe44  1  0.50386606  0.83708989  0.83716139  1
  Fe  Fe45  1  0.83903622  0.17072419  0.50386623  1
  Fe  Fe46  1  0.67123974  0.00425499  0.67075582  1
  Fe  Fe47  1  0.83742018  0.17071239  0.83683520  1
  Fe  Fe48  1  0.83773759  0.50349739  0.50251643  1
  Fe  Fe49  1  0.67121088  0.33720539  0.67075544  1
  Fe  Fe50  1  0.83640546  0.50263401  0.83784548  1
  Fe  Fe51  1  0.83739532  0.83714298  0.50218366  1
  Fe  Fe52  1  0.66912974  0.66990820  0.67013357  1
  Fe  Fe53  1  0.83607485  0.83801721  0.83817628  1
" 