8015,Ni17Cr83_3,-233.126980690859, 157.372170023555,Ni17Cr83,"# generated using pymatgen
 data_CrNi5
_symmetry_space_group_name_H-M   'P 1'
_cell_length_a   7.47419912
_cell_length_b   7.47419912
_cell_length_c   10.57011376
_cell_angle_alpha   90.00000000
_cell_angle_beta   90.00000000
_cell_angle_gamma   90.00000000
_symmetry_Int_Tables_number   1
_chemical_formula_structural   CrNi5
_chemical_formula_sum   'Cr9 Ni45'
_cell_volume   590.48516202
_cell_formula_units_Z   9
loop_
 _symmetry_equiv_pos_site_id
 _symmetry_equiv_pos_as_xyz
  1  'x, y, z'
loop_
 _atom_site_type_symbol
 _atom_site_label
 _atom_site_symmetry_multiplicity
 _atom_site_fract_x
 _atom_site_fract_y
 _atom_site_fract_z
 _atom_site_occupancy
  Ni  Ni0  1  0.99752782  0.99924386  0.00133780  1
  Ni  Ni1  1  0.16512442  0.16534615  0.16705052  1
  Ni  Ni2  1  0.99869885  0.99825121  0.33212745  1
  Ni  Ni3  1  0.99736144  0.33353214  0.00020561  1
  Ni  Ni4  1  0.16511934  0.50070203  0.16680030  1
  Ni  Ni5  1  0.99901456  0.33346580  0.33188576  1
  Ni  Ni6  1  0.00001097  0.66586413  -0.00000165  1
  Ni  Ni7  1  0.16619949  0.83254636  0.16617944  1
  Ni  Ni8  1  -0.00037621  0.66689705  0.33313374  1
  Ni  Ni9  1  0.33467679  0.99790841  0.00134483  1
  Ni  Ni10  1  0.50110571  0.16542033  0.16700862  1
  Ni  Ni11  1  0.33347348  0.99838817  0.33192209  1
  Cr  Cr12  1  0.33336281  0.33331080  0.00037467  1
  Ni  Ni13  1  0.50005278  0.49954748  0.16800968  1
  Ni  Ni14  1  0.33329199  0.33345876  0.33230955  1
  Ni  Ni15  1  0.33206117  0.66720344  0.00000451  1
  Ni  Ni16  1  0.49888331  0.83354988  0.16685840  1
  Ni  Ni17  1  0.33254099  0.66675820  0.33290288  1
  Ni  Ni18  1  0.66637433  0.00069689  0.99901027  1
  Ni  Ni19  1  0.83233598  0.16652003  0.16596219  1
  Ni  Ni20  1  0.66639470  0.99897645  0.33312036  1
  Ni  Ni21  1  0.66774176  0.33122956  0.99917475  1
  Ni  Ni22  1  0.83331396  0.49852965  0.16697955  1
  Ni  Ni23  1  0.66625268  0.33251334  0.33291765  1
  Cr  Cr24  1  0.66615878  0.66746304  0.00005935  1
  Ni  Ni25  1  0.83345186  0.83351192  0.16704820  1
  Ni  Ni26  1  0.66640534  0.66711833  0.33287359  1
  Cr  Cr27  1  0.16621557  0.16377057  0.49770019  1
  Ni  Ni28  1  0.99633214  0.99664059  0.66513950  1
  Cr  Cr29  1  0.16493295  0.16385576  0.83379144  1
  Ni  Ni30  1  0.16619061  0.50347646  0.49821396  1
  Cr  Cr31  1  0.99767962  0.33467307  0.66617929  1
  Ni  Ni32  1  0.16503318  0.50261904  0.83347913  1
  Ni  Ni33  1  0.16635412  0.83093574  0.49976962  1
  Ni  Ni34  1  0.00000470  0.66741672  0.66544923  1
  Cr  Cr35  1  0.16625115  0.83193797  0.83252275  1
  Ni  Ni36  1  0.50165776  0.16420755  0.49808852  1
  Ni  Ni37  1  0.33587104  0.99671993  0.66527865  1
  Ni  Ni38  1  0.50254994  0.16309832  0.83348079  1
  Ni  Ni39  1  0.49893272  0.50076496  0.49679986  1
  Cr  Cr40  1  0.33460558  0.33462946  0.66590657  1
  Ni  Ni41  1  0.49901508  0.50081710  0.83377861  1
  Ni  Ni42  1  0.49876456  0.83350229  0.49899748  1
  Ni  Ni43  1  0.33235319  0.66728847  0.66564218  1
  Ni  Ni44  1  0.49940620  0.83457736  0.83279220  1
  Ni  Ni45  1  0.83071602  0.16437363  0.49807244  1
  Ni  Ni46  1  0.66640430  0.99896812  0.66644618  1
  Ni  Ni47  1  0.83082791  0.16425820  0.83447060  1
  Ni  Ni48  1  0.83346509  0.50056524  0.49672158  1
  Cr  Cr49  1  0.66627227  0.33129742  0.66657349  1
  Ni  Ni50  1  0.83451079  0.49971407  0.83482926  1
  Ni  Ni51  1  0.83346157  0.83353939  0.49894677  1
  Cr  Cr52  1  0.66681514  0.66800073  0.66583945  1
  Ni  Ni53  1  0.83298338  0.83456410  0.83265583  1
" 