518,Ni17Fe81Cr1_11,-230.558883549333, 171.615692417023,Ni17Fe81Cr1,"# generated using pymatgen
 data_CrFe44Ni9
_symmetry_space_group_name_H-M   'P 1'
_cell_length_a   7.40653030
_cell_length_b   7.40653030
_cell_length_c   10.47441560
_cell_angle_alpha   90.00000000
_cell_angle_beta   90.00000000
_cell_angle_gamma   90.00000000
_symmetry_Int_Tables_number   1
_chemical_formula_structural   CrFe44Ni9
_chemical_formula_sum   'Cr1 Fe44 Ni9'
_cell_volume   574.59178093
_cell_formula_units_Z   1
loop_
 _symmetry_equiv_pos_site_id
 _symmetry_equiv_pos_as_xyz
  1  'x, y, z'
loop_
 _atom_site_type_symbol
 _atom_site_label
 _atom_site_symmetry_multiplicity
 _atom_site_fract_x
 _atom_site_fract_y
 _atom_site_fract_z
 _atom_site_occupancy
  Fe  Fe0  1  0.00439348  0.00428250  1.00385880  1
  Fe  Fe1  1  0.17210893  0.17043054  0.17075233  1
  Ni  Ni2  1  0.00592520  1.00224355  0.33882334  1
  Ni  Ni3  1  0.00424240  0.33845631  1.00313528  1
  Fe  Fe4  1  0.17026047  0.50375716  0.17033868  1
  Fe  Fe5  1  0.00484375  0.33793608  0.33797720  1
  Fe  Fe6  1  1.00375762  0.66936839  1.00324113  1
  Fe  Fe7  1  0.17026323  0.83806663  0.17100263  1
  Fe  Fe8  1  1.00375731  0.67052889  0.33810149  1
  Fe  Fe9  1  0.33758094  0.00521236  0.00412184  1
  Fe  Fe10  1  0.50273025  0.17126227  0.17058893  1
  Fe  Fe11  1  0.33772108  0.00441379  0.33747465  1
  Fe  Fe12  1  0.33708165  0.33763797  1.00378770  1
  Fe  Fe13  1  0.50498990  0.50334157  0.17129805  1
  Fe  Fe14  1  0.33729272  0.33734721  0.33797204  1
  Fe  Fe15  1  0.33724702  0.66940669  1.00391424  1
  Fe  Fe16  1  0.50416145  0.83765637  0.17113513  1
  Fe  Fe17  1  0.33775354  0.67049615  0.33809956  1
  Fe  Fe18  1  0.67028295  0.00412089  1.00298646  1
  Cr  Cr19  1  0.83741393  0.17075866  0.17027158  1
  Fe  Fe20  1  0.67015673  1.00332707  0.33860566  1
  Ni  Ni21  1  0.67002534  0.33844258  1.00253265  1
  Fe  Fe22  1  0.83700156  0.50518702  0.17033752  1
  Ni  Ni23  1  0.66889448  0.33878585  0.33878883  1
  Fe  Fe24  1  0.67125180  0.66986622  0.00420310  1
  Fe  Fe25  1  0.83783492  0.83580609  0.17100569  1
  Fe  Fe26  1  0.67074470  0.67095561  0.33781041  1
  Fe  Fe27  1  0.17163587  0.17084725  0.50371749  1
  Fe  Fe28  1  1.00392297  1.00358202  0.67020368  1
  Fe  Fe29  1  0.17054315  0.17135067  0.83778810  1
  Ni  Ni30  1  0.17107125  0.50382528  0.50372682  1
  Fe  Fe31  1  0.00475797  0.33843916  0.67145798  1
  Ni  Ni32  1  0.17058835  0.50394984  0.83798771  1
  Fe  Fe33  1  0.17130784  0.83643702  0.50400882  1
  Ni  Ni34  1  0.00488313  0.67111629  0.67056890  1
  Fe  Fe35  1  0.17049925  0.83673530  0.83724613  1
  Fe  Fe36  1  0.50382688  0.17163444  0.50388218  1
  Fe  Fe37  1  0.33728966  1.00328736  0.67065960  1
  Fe  Fe38  1  0.50382723  0.17147048  0.83778427  1
  Ni  Ni39  1  0.50305235  0.50511775  0.50441925  1
  Fe  Fe40  1  0.33645434  0.33872930  0.67049810  1
  Fe  Fe41  1  0.50390728  0.50375496  0.83728146  1
  Ni  Ni42  1  0.50474406  0.83719573  0.50394739  1
  Fe  Fe43  1  0.33690811  0.67023947  0.67024346  1
  Fe  Fe44  1  0.50345651  0.83703154  0.83695302  1
  Fe  Fe45  1  0.83679411  0.17129997  0.50326233  1
  Fe  Fe46  1  0.67104571  1.00312609  0.67066098  1
  Fe  Fe47  1  0.83788419  0.17180148  0.83823983  1
  Fe  Fe48  1  0.83671338  0.50459622  0.50405304  1
  Fe  Fe49  1  0.67104290  0.33805853  0.67049637  1
  Fe  Fe50  1  0.83818285  0.50380137  0.83786332  1
  Fe  Fe51  1  0.83750010  0.83636018  0.50413268  1
  Fe  Fe52  1  0.67075411  0.67107378  0.67024397  1
  Fe  Fe53  1  0.83830079  0.83665579  0.83711992  1
" 