7908,Ni17Cr83_14,-233.251002565642, 158.839067696812,Ni17Cr83,"# generated using pymatgen
 data_CrNi5
_symmetry_space_group_name_H-M   'P 1'
_cell_length_a   7.47265747
_cell_length_b   7.47265747
_cell_length_c   10.56793354
_cell_angle_alpha   90.00000000
_cell_angle_beta   90.00000000
_cell_angle_gamma   90.00000000
_symmetry_Int_Tables_number   1
_chemical_formula_structural   CrNi5
_chemical_formula_sum   'Cr9 Ni45'
_cell_volume   590.11985239
_cell_formula_units_Z   9
loop_
 _symmetry_equiv_pos_site_id
 _symmetry_equiv_pos_as_xyz
  1  'x, y, z'
loop_
 _atom_site_type_symbol
 _atom_site_label
 _atom_site_symmetry_multiplicity
 _atom_site_fract_x
 _atom_site_fract_y
 _atom_site_fract_z
 _atom_site_occupancy
  Ni  Ni0  1  0.99931797  0.99944655  -0.00031063  1
  Ni  Ni1  1  0.16574873  0.16570897  0.16780741  1
  Ni  Ni2  1  -0.00023272  0.99948294  0.33331603  1
  Ni  Ni3  1  0.99854805  0.33269416  0.99877405  1
  Ni  Ni4  1  0.16574623  0.50041018  0.16681949  1
  Ni  Ni5  1  0.00163738  0.33156753  0.33289538  1
  Ni  Ni6  1  0.00210052  0.66673310  0.99898111  1
  Ni  Ni7  1  0.16666305  0.83275561  0.16604728  1
  Ni  Ni8  1  0.99959134  0.66782332  0.33226604  1
  Ni  Ni9  1  0.33330191  0.99793988  -0.00037502  1
  Ni  Ni10  1  0.49966001  0.16292095  0.16572447  1
  Ni  Ni11  1  0.33196889  0.99875014  0.33186685  1
  Cr  Cr12  1  0.33169280  0.33132532  0.00026899  1
  Cr  Cr13  1  0.49719482  0.50024656  0.16758550  1
  Ni  Ni14  1  0.33027388  0.33247729  0.33201290  1
  Ni  Ni15  1  0.32924418  0.66951362  -0.00031339  1
  Ni  Ni16  1  0.49856655  0.83572077  0.16720691  1
  Ni  Ni17  1  0.33305434  0.66764665  0.33271844  1
  Ni  Ni18  1  0.66625414  0.00149272  0.00004784  1
  Ni  Ni19  1  0.83346599  0.16384057  0.16519631  1
  Ni  Ni20  1  0.66713780  0.99670284  0.33137897  1
  Ni  Ni21  1  0.66903654  0.32863498  0.99856232  1
  Cr  Cr22  1  0.83619079  0.49957318  0.16587523  1
  Cr  Cr23  1  0.66672978  0.33237794  0.33340082  1
  Cr  Cr24  1  0.66735052  0.66859502  0.99876814  1
  Ni  Ni25  1  0.83364390  0.83571730  0.16745029  1
  Ni  Ni26  1  0.66622784  0.66951725  0.33547085  1
  Ni  Ni27  1  0.16428855  0.16490432  0.49955937  1
  Ni  Ni28  1  -0.00019679  0.00175598  0.66586841  1
  Ni  Ni29  1  0.16530019  0.16567301  0.83150747  1
  Cr  Cr30  1  0.16739597  0.49851979  0.49831189  1
  Ni  Ni31  1  0.99871240  0.33035423  0.66720354  1
  Ni  Ni32  1  0.16452657  0.49980487  0.83376595  1
  Ni  Ni33  1  0.16706254  0.83529316  0.49871257  1
  Cr  Cr34  1  0.99854623  0.66727482  0.66760804  1
  Ni  Ni35  1  0.16730473  0.83339679  0.83411393  1
  Cr  Cr36  1  0.49856410  0.16574311  0.50065537  1
  Ni  Ni37  1  0.33238145  0.99916204  0.66738246  1
  Ni  Ni38  1  0.50071834  0.16398721  0.83273940  1
  Ni  Ni39  1  0.50084077  0.50254212  0.50047544  1
  Ni  Ni40  1  0.33255786  0.33203236  0.66681624  1
  Cr  Cr41  1  0.49962138  0.49962415  0.83081318  1
  Ni  Ni42  1  0.50007362  0.83048209  0.49955970  1
  Ni  Ni43  1  0.33533073  0.66768060  0.66646900  1
  Ni  Ni44  1  0.49853078  0.83526388  0.83210739  1
  Ni  Ni45  1  0.83560311  0.16567117  0.50047441  1
  Ni  Ni46  1  0.66668936  0.99898290  0.66744729  1
  Ni  Ni47  1  0.83285640  0.16676495  0.83320251  1
  Ni  Ni48  1  0.83079289  0.49976897  0.49977026  1
  Ni  Ni49  1  0.66760341  0.33330160  0.66667625  1
  Ni  Ni50  1  0.83472457  0.49761709  0.83299122  1
  Ni  Ni51  1  0.83173834  0.83343394  0.49828955  1
  Ni  Ni52  1  0.66500946  0.66658899  0.66463305  1
  Ni  Ni53  1  0.83303841  0.83449113  0.83313411  1
" 