8236,Ni17Fe81Cr1_4,-230.424588870654, 174.001403292652,Ni17Fe81Cr1,"# generated using pymatgen
 data_CrFe44Ni9
_symmetry_space_group_name_H-M   'P 1'
_cell_length_a   7.40446789
_cell_length_b   7.40446789
_cell_length_c   10.47149892
_cell_angle_alpha   90.00000000
_cell_angle_beta   90.00000000
_cell_angle_gamma   90.00000000
_symmetry_Int_Tables_number   1
_chemical_formula_structural   CrFe44Ni9
_chemical_formula_sum   'Cr1 Fe44 Ni9'
_cell_volume   574.11191598
_cell_formula_units_Z   1
loop_
 _symmetry_equiv_pos_site_id
 _symmetry_equiv_pos_as_xyz
  1  'x, y, z'
loop_
 _atom_site_type_symbol
 _atom_site_label
 _atom_site_symmetry_multiplicity
 _atom_site_fract_x
 _atom_site_fract_y
 _atom_site_fract_z
 _atom_site_occupancy
  Fe  Fe0  1  0.00498792  1.00331260  1.00406654  1
  Fe  Fe1  1  0.17103546  0.17056453  0.17087390  1
  Ni  Ni2  1  1.00314795  1.00402765  0.33817337  1
  Fe  Fe3  1  0.00518239  0.33798927  1.00367977  1
  Fe  Fe4  1  0.17217856  0.50379054  0.17077500  1
  Fe  Fe5  1  0.00509848  0.33520212  0.33643896  1
  Fe  Fe6  1  0.00427838  0.67109364  0.00427988  1
  Fe  Fe7  1  0.17171682  0.83861753  0.17092287  1
  Fe  Fe8  1  0.00534626  0.67271814  0.33630290  1
  Fe  Fe9  1  0.33750406  1.00386142  1.00404368  1
  Ni  Ni10  1  0.50320320  0.17032376  0.17033535  1
  Fe  Fe11  1  0.33800207  0.00645876  0.33748541  1
  Fe  Fe12  1  0.33762864  0.33731339  0.00480201  1
  Fe  Fe13  1  0.50348739  0.50394385  0.17057602  1
  Ni  Ni14  1  0.33745263  0.33913867  0.33719446  1
  Ni  Ni15  1  0.33724034  0.67012787  1.00398830  1
  Fe  Fe16  1  0.50400341  0.83827357  0.17044441  1
  Fe  Fe17  1  0.33754483  0.67280145  0.33658891  1
  Fe  Fe18  1  0.67027850  1.00328022  1.00396098  1
  Fe  Fe19  1  0.83684246  0.17014774  0.17093570  1
  Ni  Ni20  1  0.67117734  1.00392926  0.33731988  1
  Fe  Fe21  1  0.66991288  0.33808410  0.00454991  1
  Fe  Fe22  1  0.83685907  0.50332341  0.17122308  1
  Fe  Fe23  1  0.66890503  0.33437282  0.33654273  1
  Fe  Fe24  1  0.67061099  0.67093079  1.00379351  1
  Fe  Fe25  1  0.83692697  0.83905281  0.17043321  1
  Fe  Fe26  1  0.66981530  0.67240635  0.33626229  1
  Fe  Fe27  1  0.17064850  0.17142942  0.50430808  1
  Fe  Fe28  1  0.00447472  1.00417591  0.67134604  1
  Ni  Ni29  1  0.17279661  0.17103505  0.83811161  1
  Fe  Fe30  1  0.17360120  0.50370583  0.50423331  1
  Fe  Fe31  1  0.00482485  0.33559738  0.67241077  1
  Fe  Fe32  1  0.17075320  0.50453684  0.83763154  1
  Fe  Fe33  1  0.17112347  0.83805971  0.50378055  1
  Fe  Fe34  1  0.00452135  0.67287742  0.67180209  1
  Fe  Fe35  1  0.17080411  0.83821451  0.83816250  1
  Ni  Ni36  1  0.50339927  0.17001432  0.50406454  1
  Fe  Fe37  1  0.33831013  0.00478792  0.67112398  1
  Fe  Fe38  1  0.50503716  0.16965719  0.83741057  1
  Fe  Fe39  1  0.50219883  0.50363491  0.50408756  1
  Fe  Fe40  1  0.33827880  0.33603739  0.67039812  1
  Fe  Fe41  1  0.50361502  0.50442979  0.83797161  1
  Fe  Fe42  1  0.50536579  0.83827872  0.50444162  1
  Fe  Fe43  1  0.33826382  0.67185685  0.67183418  1
  Fe  Fe44  1  0.50387572  0.83844230  0.83779161  1
  Fe  Fe45  1  0.83625667  0.16921892  0.50434433  1
  Ni  Ni46  1  0.67173341  0.00434084  0.67147928  1
  Fe  Fe47  1  0.83852224  0.16914535  0.83780163  1
  Cr  Cr48  1  0.83769985  0.50524114  0.50377471  1
  Fe  Fe49  1  0.66945777  0.33585389  0.67150728  1
  Fe  Fe50  1  0.83827418  0.50325044  0.83715668  1
  Fe  Fe51  1  0.83657390  0.84060556  0.50510896  1
  Fe  Fe52  1  0.66997220  0.67244367  0.67230985  1
  Ni  Ni53  1  0.83744353  0.83623608  0.83780758  1
" 