6063,Ni17Cr83_11,-233.253911652632, 162.020774487798,Ni17Cr83,"# generated using pymatgen
 data_CrNi5
_symmetry_space_group_name_H-M   'P 1'
_cell_length_a   7.47356738
_cell_length_b   7.47356738
_cell_length_c   10.56922035
_cell_angle_alpha   90.00000000
_cell_angle_beta   90.00000000
_cell_angle_gamma   90.00000000
_symmetry_Int_Tables_number   1
_chemical_formula_structural   CrNi5
_chemical_formula_sum   'Cr9 Ni45'
_cell_volume   590.33544748
_cell_formula_units_Z   9
loop_
 _symmetry_equiv_pos_site_id
 _symmetry_equiv_pos_as_xyz
  1  'x, y, z'
loop_
 _atom_site_type_symbol
 _atom_site_label
 _atom_site_symmetry_multiplicity
 _atom_site_fract_x
 _atom_site_fract_y
 _atom_site_fract_z
 _atom_site_occupancy
  Ni  Ni0  1  0.99948911  0.00126306  0.99937619  1
  Ni  Ni1  1  0.16529647  0.16879053  0.16529479  1
  Ni  Ni2  1  0.99793772  0.99944328  0.33302543  1
  Ni  Ni3  1  0.00053376  0.33201125  0.00007930  1
  Ni  Ni4  1  0.16529563  0.49700516  0.16704058  1
  Ni  Ni5  1  0.00076234  0.33402794  0.33215136  1
  Ni  Ni6  1  0.99875428  0.66541708  -0.00008954  1
  Cr  Cr7  1  0.16473370  0.83289753  0.16600655  1
  Ni  Ni8  1  0.99867622  0.66522019  0.33423766  1
  Ni  Ni9  1  0.33377208  0.00182826  0.99785294  1
  Ni  Ni10  1  0.50063450  0.16717801  0.16529519  1
  Cr  Cr11  1  0.33353509  0.00055252  0.33398201  1
  Ni  Ni12  1  0.33272674  0.33144619  -0.00036329  1
  Ni  Ni13  1  0.50063468  0.49861681  0.16704052  1
  Ni  Ni14  1  0.33272664  0.33493683  0.33282371  1
  Cr  Cr15  1  0.33393361  0.66541701  0.99805717  1
  Ni  Ni16  1  0.50329151  0.83289680  0.16599728  1
  Ni  Ni17  1  0.33394280  0.66344069  0.33417615  1
  Ni  Ni18  1  0.66543047  0.00004776  0.00025037  1
  Ni  Ni19  1  0.83276015  0.16613511  0.16586111  1
  Ni  Ni20  1  0.66698120  0.99822767  0.33215132  1
  Ni  Ni21  1  0.66543041  0.33218123  -0.00032397  1
  Ni  Ni22  1  0.83276075  0.49966046  0.16613360  1
  Ni  Ni23  1  0.66520227  0.33419867  0.33255492  1
  Ni  Ni24  1  0.66599495  0.66646251  0.00132483  1
  Ni  Ni25  1  0.83114954  0.83289594  0.16636670  1
  Ni  Ni26  1  0.66607307  0.66626490  0.33282337  1
  Ni  Ni27  1  0.16645949  0.16599831  0.49968897  1
  Ni  Ni28  1  0.00111200  -0.00035843  0.66628962  1
  Ni  Ni29  1  0.16592493  0.16518747  0.83370706  1
  Ni  Ni30  1  0.16468037  0.50022505  0.49800373  1
  Ni  Ni31  1  0.99933318  0.33262175  0.66646044  1
  Ni  Ni32  1  0.16561793  0.49901740  0.83364763  1
  Ni  Ni33  1  0.16468138  0.83246823  0.50046058  1
  Ni  Ni34  1  0.00111940  0.66642810  0.66454285  1
  Ni  Ni35  1  0.16666231  0.83448691  0.83223351  1
  Ni  Ni36  1  0.49950455  0.16616840  0.50009230  1
  Ni  Ni37  1  0.33276094  0.99947116  0.66659991  1
  Ni  Ni38  1  0.50004022  0.16535798  0.83330345  1
  Ni  Ni39  1  0.50023847  0.49900681  0.49712603  1
  Cr  Cr40  1  0.33292092  0.33164496  0.66622806  1
  Ni  Ni41  1  0.49929896  0.49779782  0.83452581  1
  Ni  Ni42  1  0.50006690  0.83351586  0.49904356  1
  Cr  Cr43  1  0.33161887  0.66772529  0.66648081  1
  Ni  Ni44  1  0.49808518  0.83553580  0.83365093  1
  Cr  Cr45  1  0.83249864  0.16640630  0.50040669  1
  Ni  Ni46  1  0.66481782  0.00125661  0.66628992  1
  Ni  Ni47  1  0.83272624  0.16640008  0.83262926  1
  Ni  Ni48  1  0.83377340  0.50078657  0.49925077  1
  Ni  Ni49  1  0.66659811  0.33100417  0.66646070  1
  Cr  Cr50  1  0.83353643  0.49729602  0.83308974  1
  Ni  Ni51  1  0.83394369  0.83173665  0.49861418  1
  Cr  Cr52  1  0.66603140  0.66603136  0.66477812  1
  Cr  Cr53  1  0.83393434  0.83476579  0.83371490  1
" 