7495,Ni17Fe73Cr8_8,-229.194549353237, 179.727624652626,Ni17Fe73Cr8,"# generated using pymatgen
 data_Cr2Fe13Ni3
_symmetry_space_group_name_H-M   'P 1'
_cell_length_a   7.43072151
_cell_length_b   7.43072151
_cell_length_c   10.50862713
_cell_angle_alpha   90.00000000
_cell_angle_beta   90.00000000
_cell_angle_gamma   90.00000000
_symmetry_Int_Tables_number   1
_chemical_formula_structural   Cr2Fe13Ni3
_chemical_formula_sum   'Cr6 Fe39 Ni9'
_cell_volume   580.24038473
_cell_formula_units_Z   3
loop_
 _symmetry_equiv_pos_site_id
 _symmetry_equiv_pos_as_xyz
  1  'x, y, z'
loop_
 _atom_site_type_symbol
 _atom_site_label
 _atom_site_symmetry_multiplicity
 _atom_site_fract_x
 _atom_site_fract_y
 _atom_site_fract_z
 _atom_site_occupancy
  Fe  Fe0  1  1.00141659  0.00419390  1.00160418  1
  Fe  Fe1  1  0.16897329  0.16858123  0.16805167  1
  Fe  Fe2  1  0.00276501  1.00169809  0.33685500  1
  Ni  Ni3  1  1.00125147  0.33392754  1.00153362  1
  Cr  Cr4  1  0.16968498  0.50283277  0.16877415  1
  Cr  Cr5  1  1.00243211  0.33472389  0.33676213  1
  Fe  Fe6  1  0.99969888  0.66894269  1.00149530  1
  Cr  Cr7  1  0.16877757  0.83620328  0.17031124  1
  Fe  Fe8  1  1.00227204  0.67098761  0.33737907  1
  Fe  Fe9  1  0.33661539  0.00377362  1.00110277  1
  Fe  Fe10  1  0.50178854  0.16989747  0.16784041  1
  Fe  Fe11  1  0.33522574  0.00291374  0.33681207  1
  Fe  Fe12  1  0.33731452  0.33412071  1.00194877  1
  Fe  Fe13  1  0.50355315  0.50124132  0.16851313  1
  Fe  Fe14  1  0.33898886  0.33531029  0.33694906  1
  Fe  Fe15  1  0.33826148  0.66943941  1.00116283  1
  Fe  Fe16  1  0.50279035  0.83619175  0.16751880  1
  Fe  Fe17  1  0.33638417  0.66911041  0.33804028  1
  Fe  Fe18  1  0.66929669  0.00325015  0.00262305  1
  Ni  Ni19  1  0.83498461  0.16906570  0.16769550  1
  Cr  Cr20  1  0.66863418  1.00228623  0.33605058  1
  Fe  Fe21  1  0.66979384  0.33583536  1.00198759  1
  Fe  Fe22  1  0.83477743  0.50176825  0.16658677  1
  Fe  Fe23  1  0.66745700  0.33580241  0.33575062  1
  Fe  Fe24  1  0.66937122  0.66824568  1.00181725  1
  Fe  Fe25  1  0.83609144  0.83622138  0.16761738  1
  Cr  Cr26  1  0.66825817  0.66852052  0.33488265  1
  Fe  Fe27  1  0.17077533  0.16798116  0.50352026  1
  Ni  Ni28  1  0.00260740  0.00304382  0.66912095  1
  Fe  Fe29  1  0.16976005  0.16803366  0.83576037  1
  Fe  Fe30  1  0.17117370  0.50389503  0.50301535  1
  Fe  Fe31  1  1.00132247  0.33458590  0.66886236  1
  Cr  Cr32  1  0.16822623  0.50275510  0.83569149  1
  Fe  Fe33  1  0.16987369  0.83545729  0.50237012  1
  Fe  Fe34  1  1.00129330  0.67027610  0.66846616  1
  Fe  Fe35  1  0.16998459  0.83712649  0.83572991  1
  Fe  Fe36  1  0.50158038  0.17003577  0.50364885  1
  Fe  Fe37  1  0.33594125  1.00214426  0.66942317  1
  Ni  Ni38  1  0.50308135  0.16790252  0.83528312  1
  Ni  Ni39  1  0.50116599  0.50200333  0.50270735  1
  Fe  Fe40  1  0.33684040  0.33462023  0.66843424  1
  Ni  Ni41  1  0.50412841  0.50250586  0.83620280  1
  Ni  Ni42  1  0.50014863  0.83549220  0.50349470  1
  Fe  Fe43  1  0.33719681  0.67056754  0.66813853  1
  Ni  Ni44  1  0.50214331  0.83692465  0.83607977  1
  Fe  Fe45  1  0.83497729  0.16873896  0.50366962  1
  Fe  Fe46  1  0.66887603  1.00211382  0.66909438  1
  Fe  Fe47  1  0.83485868  0.16993307  0.83633730  1
  Fe  Fe48  1  0.83463318  0.50307925  0.50457405  1
  Fe  Fe49  1  0.66916953  0.33584040  0.66959279  1
  Ni  Ni50  1  0.83526430  0.50178056  0.83627050  1
  Fe  Fe51  1  0.83668523  0.83551289  0.50427763  1
  Fe  Fe52  1  0.66883845  0.66937766  0.66912858  1
  Fe  Fe53  1  0.83458849  0.83518028  0.83543303  1
" 