688,Ni17Fe73Cr8_9,-229.597578355825, 175.540836970799,Ni17Fe73Cr8,"# generated using pymatgen
 data_Cr2Fe13Ni3
_symmetry_space_group_name_H-M   'P 1'
_cell_length_a   7.43190679
_cell_length_b   7.43190679
_cell_length_c   10.51030337
_cell_angle_alpha   90.00000000
_cell_angle_beta   90.00000000
_cell_angle_gamma   90.00000000
_symmetry_Int_Tables_number   1
_chemical_formula_structural   Cr2Fe13Ni3
_chemical_formula_sum   'Cr6 Fe39 Ni9'
_cell_volume   580.51809256
_cell_formula_units_Z   3
loop_
 _symmetry_equiv_pos_site_id
 _symmetry_equiv_pos_as_xyz
  1  'x, y, z'
loop_
 _atom_site_type_symbol
 _atom_site_label
 _atom_site_symmetry_multiplicity
 _atom_site_fract_x
 _atom_site_fract_y
 _atom_site_fract_z
 _atom_site_occupancy
  Ni  Ni0  1  0.00267239  1.00191570  0.00288889  1
  Fe  Fe1  1  0.17103344  0.16883827  0.16880698  1
  Fe  Fe2  1  0.00499330  0.00303579  0.33479058  1
  Fe  Fe3  1  0.00366185  0.33163349  1.00168422  1
  Cr  Cr4  1  0.16859916  0.50146614  0.16894853  1
  Fe  Fe5  1  0.00316579  0.33445584  0.33805656  1
  Cr  Cr6  1  0.00339584  0.67080809  1.00202636  1
  Fe  Fe7  1  0.17036338  0.83886317  0.16978066  1
  Fe  Fe8  1  0.00345828  0.67003327  0.33659493  1
  Fe  Fe9  1  0.33336064  0.00314419  0.00309721  1
  Ni  Ni10  1  0.50113052  0.16900247  0.16828000  1
  Ni  Ni11  1  0.33585821  0.00345133  0.33518332  1
  Ni  Ni12  1  0.33655448  0.33619585  1.00035445  1
  Fe  Fe13  1  0.50215050  0.50017044  0.16897313  1
  Ni  Ni14  1  0.33581143  0.33574997  0.33851640  1
  Fe  Fe15  1  0.33728629  0.67056743  1.00131969  1
  Fe  Fe16  1  0.50016041  0.83465606  0.16952763  1
  Fe  Fe17  1  0.33580525  0.66949597  0.33721148  1
  Cr  Cr18  1  0.66925757  1.00201142  1.00149862  1
  Fe  Fe19  1  0.83730295  0.17078786  0.16895005  1
  Cr  Cr20  1  0.66881613  0.00289379  0.33736287  1
  Fe  Fe21  1  0.66834303  0.33556534  0.00332875  1
  Fe  Fe22  1  0.83279346  0.50092650  0.17036775  1
  Fe  Fe23  1  0.66667370  0.33554458  0.33675414  1
  Fe  Fe24  1  0.66649146  0.66846801  0.00350169  1
  Fe  Fe25  1  0.83620278  0.83571265  0.16998475  1
  Fe  Fe26  1  0.66764429  0.66739369  0.33595280  1
  Fe  Fe27  1  0.16910509  0.17019229  0.50219730  1
  Fe  Fe28  1  0.00241214  0.00353353  0.66990197  1
  Fe  Fe29  1  0.16827489  0.16920248  0.83601653  1
  Ni  Ni30  1  0.16781164  0.50323353  0.50389356  1
  Ni  Ni31  1  0.00339568  0.33630806  0.66906409  1
  Fe  Fe32  1  0.17188024  0.50106164  0.83434133  1
  Fe  Fe33  1  0.16959487  0.83613046  0.50194015  1
  Fe  Fe34  1  0.00285329  0.66840451  0.66808687  1
  Fe  Fe35  1  0.16963549  0.83735531  0.83466798  1
  Ni  Ni36  1  0.50048696  0.16653301  0.50302194  1
  Fe  Fe37  1  0.33541292  0.00356729  0.66794783  1
  Fe  Fe38  1  0.50047668  0.16941076  0.83539471  1
  Fe  Fe39  1  0.50129030  0.50234399  0.50143984  1
  Fe  Fe40  1  0.33378003  0.33548594  0.66832802  1
  Fe  Fe41  1  0.50079157  0.50314896  0.83623131  1
  Fe  Fe42  1  0.50063804  0.83407873  0.50316888  1
  Fe  Fe43  1  0.33483123  0.66776113  0.66886715  1
  Fe  Fe44  1  0.50168506  0.83443816  0.83407310  1
  Fe  Fe45  1  0.83827457  0.17051832  0.50284615  1
  Fe  Fe46  1  0.66919154  1.00157960  0.66846807  1
  Fe  Fe47  1  0.83846871  0.16778738  0.83477370  1
  Ni  Ni48  1  0.83724937  0.50366211  0.50053947  1
  Cr  Cr49  1  0.66812708  0.33535763  0.66708704  1
  Cr  Cr50  1  0.83646050  0.50184672  0.83684855  1
  Fe  Fe51  1  0.83670717  0.83488127  0.50328584  1
  Fe  Fe52  1  0.66976548  0.66933834  0.66778147  1
  Fe  Fe53  1  0.83607900  0.83771758  0.83371076  1
" 