1204,Ni17Fe73Cr8_12,-229.232884892209, 172.938376904172,Ni17Fe73Cr8,"# generated using pymatgen
 data_Cr2Fe13Ni3
_symmetry_space_group_name_H-M   'P 1'
_cell_length_a   7.43234422
_cell_length_b   7.43234422
_cell_length_c   10.51092200
_cell_angle_alpha   90.00000000
_cell_angle_beta   90.00000000
_cell_angle_gamma   90.00000000
_symmetry_Int_Tables_number   1
_chemical_formula_structural   Cr2Fe13Ni3
_chemical_formula_sum   'Cr6 Fe39 Ni9'
_cell_volume   580.62060541
_cell_formula_units_Z   3
loop_
 _symmetry_equiv_pos_site_id
 _symmetry_equiv_pos_as_xyz
  1  'x, y, z'
loop_
 _atom_site_type_symbol
 _atom_site_label
 _atom_site_symmetry_multiplicity
 _atom_site_fract_x
 _atom_site_fract_y
 _atom_site_fract_z
 _atom_site_occupancy
  Ni  Ni0  1  0.00238677  1.00115777  1.00209335  1
  Fe  Fe1  1  0.16896177  0.16844742  0.16930766  1
  Fe  Fe2  1  0.00490154  1.00220487  0.33593938  1
  Fe  Fe3  1  1.00171211  0.33589489  0.00255839  1
  Fe  Fe4  1  0.16832286  0.50137042  0.16799900  1
  Fe  Fe5  1  0.00325222  0.33566849  0.33711166  1
  Fe  Fe6  1  1.00167664  0.67017680  0.00315106  1
  Fe  Fe7  1  0.16820859  0.83718517  0.16824271  1
  Fe  Fe8  1  1.00071292  0.66913460  0.33553192  1
  Fe  Fe9  1  0.33561799  1.00095937  0.00239790  1
  Cr  Cr10  1  0.50017019  0.16863635  0.16929822  1
  Ni  Ni11  1  0.33357090  0.00234055  0.33605764  1
  Fe  Fe12  1  0.33606831  0.33569080  0.00280018  1
  Fe  Fe13  1  0.50350799  0.50253722  0.16857236  1
  Fe  Fe14  1  0.33541446  0.33404876  0.33647332  1
  Fe  Fe15  1  0.33607417  0.67035205  0.00294733  1
  Fe  Fe16  1  0.50221349  0.83460928  0.16794343  1
  Cr  Cr17  1  0.33574066  0.66979952  0.33548063  1
  Fe  Fe18  1  0.66905319  1.00093139  1.00004037  1
  Cr  Cr19  1  0.83751894  0.16946769  0.16844117  1
  Cr  Cr20  1  0.66836315  1.00177862  0.33676440  1
  Fe  Fe21  1  0.66922182  0.33634696  1.00133029  1
  Fe  Fe22  1  0.83517520  0.50329564  0.16933143  1
  Ni  Ni23  1  0.66978116  0.33830795  0.33758132  1
  Fe  Fe24  1  0.66925351  0.66972632  1.00220679  1
  Fe  Fe25  1  0.83658007  0.83397116  0.16797987  1
  Fe  Fe26  1  0.66963306  0.66780843  0.33581752  1
  Ni  Ni27  1  0.16868871  0.16967808  0.50064422  1
  Fe  Fe28  1  1.00134544  0.00247278  0.66853854  1
  Cr  Cr29  1  0.16891072  0.16853104  0.83676049  1
  Fe  Fe30  1  0.16849436  0.50141590  0.50359081  1
  Ni  Ni31  1  1.00111307  0.33614608  0.66806177  1
  Cr  Cr32  1  0.16783785  0.50308953  0.83499464  1
  Fe  Fe33  1  0.16907251  0.83706816  0.50262157  1
  Fe  Fe34  1  1.00116910  0.66949168  0.66831848  1
  Fe  Fe35  1  0.16974327  0.83627447  0.83613860  1
  Fe  Fe36  1  0.50137334  0.16892629  0.50292847  1
  Fe  Fe37  1  0.33694194  1.00210569  0.66777108  1
  Ni  Ni38  1  0.50437855  0.16764123  0.83523061  1
  Fe  Fe39  1  0.50278343  0.50147268  0.50257395  1
  Fe  Fe40  1  0.33682731  0.33476472  0.66773032  1
  Fe  Fe41  1  0.50344490  0.50212857  0.83586065  1
  Ni  Ni42  1  0.50300646  0.83558721  0.50287704  1
  Fe  Fe43  1  0.33683410  0.67013444  0.66821921  1
  Ni  Ni44  1  0.50360140  0.83635876  0.83643306  1
  Fe  Fe45  1  0.83618712  0.16950766  0.50309363  1
  Ni  Ni46  1  0.66845318  0.00238251  0.67005962  1
  Fe  Fe47  1  0.83369071  0.16846741  0.83567771  1
  Fe  Fe48  1  0.83572878  0.50184319  0.50223756  1
  Fe  Fe49  1  0.66936236  0.33493816  0.66885891  1
  Fe  Fe50  1  0.83379391  0.50187337  0.83543903  1
  Fe  Fe51  1  0.83612939  0.83565712  0.50323063  1
  Fe  Fe52  1  0.66900004  0.66960038  0.66898283  1
  Fe  Fe53  1  0.83506375  0.83666381  0.83579670  1
" 