2354,Ni17Fe81Cr1_1,-230.700880564764, 170.981582704664,Ni17Fe81Cr1,"# generated using pymatgen
 data_CrFe44Ni9
_symmetry_space_group_name_H-M   'P 1'
_cell_length_a   7.40679425
_cell_length_b   7.40679425
_cell_length_c   10.47478889
_cell_angle_alpha   90.00000000
_cell_angle_beta   90.00000000
_cell_angle_gamma   90.00000000
_symmetry_Int_Tables_number   1
_chemical_formula_structural   CrFe44Ni9
_chemical_formula_sum   'Cr1 Fe44 Ni9'
_cell_volume   574.65321475
_cell_formula_units_Z   1
loop_
 _symmetry_equiv_pos_site_id
 _symmetry_equiv_pos_as_xyz
  1  'x, y, z'
loop_
 _atom_site_type_symbol
 _atom_site_label
 _atom_site_symmetry_multiplicity
 _atom_site_fract_x
 _atom_site_fract_y
 _atom_site_fract_z
 _atom_site_occupancy
  Fe  Fe0  1  1.00349408  0.00420399  1.00359323  1
  Fe  Fe1  1  0.16975667  0.17167615  0.17077168  1
  Fe  Fe2  1  1.00391901  0.00428318  0.33772722  1
  Fe  Fe3  1  0.00559948  0.33768860  0.00507468  1
  Ni  Ni4  1  0.17058568  0.50414143  0.17077978  1
  Fe  Fe5  1  1.00388966  0.33768903  0.33657305  1
  Fe  Fe6  1  1.00371449  0.67030924  0.00435432  1
  Fe  Fe7  1  0.16986164  0.83696309  0.17080245  1
  Fe  Fe8  1  0.00413947  0.67022964  0.33696564  1
  Fe  Fe9  1  0.33782488  0.00449145  1.00399003  1
  Fe  Fe10  1  0.50369653  0.17079910  0.17113973  1
  Fe  Fe11  1  0.33747019  1.00399856  0.33740065  1
  Fe  Fe12  1  0.33593592  0.33761931  1.00377955  1
  Fe  Fe13  1  0.50373138  0.50447353  0.17113995  1
  Fe  Fe14  1  0.33714481  0.33762013  0.33721898  1
  Fe  Fe15  1  0.33753504  0.67009129  0.00413993  1
  Fe  Fe16  1  0.50450150  0.83692967  0.17091164  1
  Fe  Fe17  1  0.33718102  0.67058424  0.33725122  1
  Fe  Fe18  1  0.67088244  1.00260718  1.00351569  1
  Ni  Ni19  1  0.83793544  0.16982674  0.17163886  1
  Fe  Fe20  1  0.67081285  0.00424699  0.33755294  1
  Cr  Cr21  1  0.67080500  0.33760776  0.00430113  1
  Ni  Ni22  1  0.83907246  0.50452657  0.17163942  1
  Fe  Fe23  1  0.67116988  0.33740060  0.33723089  1
  Fe  Fe24  1  0.67095371  0.67219580  1.00391698  1
  Fe  Fe25  1  0.83784010  0.83693009  0.17022953  1
  Fe  Fe26  1  0.67088403  0.67055385  0.33715102  1
  Fe  Fe27  1  0.17051257  0.17044432  0.50421877  1
  Ni  Ni28  1  1.00395700  1.00339243  0.67068757  1
  Fe  Fe29  1  0.17101300  0.17047474  0.83721122  1
  Fe  Fe30  1  0.17080302  0.50413603  0.50345799  1
  Fe  Fe31  1  1.00319169  0.33648795  0.67055667  1
  Fe  Fe32  1  0.17130295  0.50410550  0.83797273  1
  Fe  Fe33  1  0.17058394  0.83762073  0.50421938  1
  Fe  Fe34  1  1.00290680  0.67146004  0.67088394  1
  Fe  Fe35  1  0.17101886  0.83762100  0.83717997  1
  Fe  Fe36  1  0.50443862  0.17073337  0.50490817  1
  Fe  Fe37  1  0.33801858  0.00482241  0.67080948  1
  Ni  Ni38  1  0.50307149  0.17047470  0.83590569  1
  Fe  Fe39  1  0.50421812  0.50391812  0.50475936  1
  Fe  Fe40  1  0.33830059  0.33645884  0.67119932  1
  Ni  Ni41  1  0.50272784  0.50390542  0.83633173  1
  Fe  Fe42  1  0.50415146  0.83755293  0.50393984  1
  Fe  Fe43  1  0.33801739  0.67092073  0.67081008  1
  Fe  Fe44  1  0.50469120  0.83755100  0.83735159  1
  Fe  Fe45  1  0.83725084  0.17051328  0.50418841  1
  Ni  Ni46  1  0.67134206  0.00512705  0.67137273  1
  Fe  Fe47  1  0.83707844  0.16967403  0.83633472  1
  Fe  Fe48  1  0.83717973  0.50384666  0.50367665  1
  Ni  Ni49  1  0.67017916  0.33716773  0.67042406  1
  Fe  Fe50  1  0.83700720  0.50468932  0.83684377  1
  Fe  Fe51  1  0.83746855  0.83784174  0.50505064  1
  Fe  Fe52  1  0.67127690  0.67117721  0.67113548  1
  Ni  Ni53  1  0.83759636  0.83783721  0.83742150  1
" 