1910,Ni17Fe73Cr8_14,-229.033156222949, 173.302663985151,Ni17Fe73Cr8,"# generated using pymatgen
 data_Cr2Fe13Ni3
_symmetry_space_group_name_H-M   'P 1'
_cell_length_a   7.42844636
_cell_length_b   7.42844636
_cell_length_c   10.50540960
_cell_angle_alpha   90.00000000
_cell_angle_beta   90.00000000
_cell_angle_gamma   90.00000000
_symmetry_Int_Tables_number   1
_chemical_formula_structural   Cr2Fe13Ni3
_chemical_formula_sum   'Cr6 Fe39 Ni9'
_cell_volume   579.70757281
_cell_formula_units_Z   3
loop_
 _symmetry_equiv_pos_site_id
 _symmetry_equiv_pos_as_xyz
  1  'x, y, z'
loop_
 _atom_site_type_symbol
 _atom_site_label
 _atom_site_symmetry_multiplicity
 _atom_site_fract_x
 _atom_site_fract_y
 _atom_site_fract_z
 _atom_site_occupancy
  Fe  Fe0  1  0.00435639  1.00122039  1.00249178  1
  Fe  Fe1  1  0.16909712  0.16868450  0.16920008  1
  Ni  Ni2  1  0.00426100  0.00348009  0.33555242  1
  Fe  Fe3  1  0.00408835  0.33510210  1.00255638  1
  Fe  Fe4  1  0.16929789  0.50263075  0.16944928  1
  Fe  Fe5  1  0.00308777  0.33625181  0.33610430  1
  Fe  Fe6  1  0.00432123  0.67147727  1.00248889  1
  Fe  Fe7  1  0.16938319  0.83650872  0.16791961  1
  Fe  Fe8  1  0.00452874  0.67051299  0.33623661  1
  Ni  Ni9  1  0.33528433  1.00163434  0.00309578  1
  Fe  Fe10  1  0.50255094  0.16865802  0.16834035  1
  Fe  Fe11  1  0.33453903  0.00310515  0.33339767  1
  Fe  Fe12  1  0.33623331  0.33489612  0.00299627  1
  Fe  Fe13  1  0.50114458  0.50147379  0.16879398  1
  Fe  Fe14  1  0.33492156  0.33580017  0.33608240  1
  Ni  Ni15  1  0.33541631  0.66886462  0.00371411  1
  Fe  Fe16  1  0.50138888  0.83717270  0.16762187  1
  Fe  Fe17  1  0.33224854  0.66851985  0.33462490  1
  Ni  Ni18  1  0.66960495  1.00225278  0.00352495  1
  Fe  Fe19  1  0.83635748  0.16885188  0.16891966  1
  Fe  Fe20  1  0.67144665  0.00437443  0.33465028  1
  Fe  Fe21  1  0.66747787  0.33520760  1.00223419  1
  Fe  Fe22  1  0.83718409  0.50127270  0.16759706  1
  Fe  Fe23  1  0.66953942  0.33343939  0.33634247  1
  Fe  Fe24  1  0.66788182  0.67097170  0.00294372  1
  Fe  Fe25  1  0.83724356  0.83780581  0.16950914  1
  Cr  Cr26  1  0.66797090  0.66836859  0.33534424  1
  Fe  Fe27  1  0.17044091  0.16741916  0.50111453  1
  Ni  Ni28  1  0.00516023  0.00274659  0.66962436  1
  Fe  Fe29  1  0.17011051  0.16717343  0.83730271  1
  Ni  Ni30  1  0.17032967  0.50258921  0.50221755  1
  Cr  Cr31  1  0.00414262  0.33472231  0.66835211  1
  Fe  Fe32  1  0.17037607  0.50446674  0.83683762  1
  Fe  Fe33  1  0.16781919  0.83498632  0.50319051  1
  Fe  Fe34  1  0.00380376  0.67133846  0.66885173  1
  Ni  Ni35  1  0.16903876  0.83592541  0.83549125  1
  Fe  Fe36  1  0.50024440  0.17059623  0.50019572  1
  Fe  Fe37  1  0.33355107  0.00407197  0.67153963  1
  Fe  Fe38  1  0.50056134  0.16794618  0.83831647  1
  Ni  Ni39  1  0.49875955  0.50089064  0.50183144  1
  Fe  Fe40  1  0.33556445  0.33526148  0.66875168  1
  Fe  Fe41  1  0.49915981  0.50326128  0.83757999  1
  Cr  Cr42  1  0.50073144  0.83681892  0.50257307  1
  Fe  Fe43  1  0.33257686  0.66785067  0.67041203  1
  Fe  Fe44  1  0.49971941  0.83642293  0.83879122  1
  Fe  Fe45  1  0.83775072  0.16844394  0.49975627  1
  Cr  Cr46  1  0.67099839  0.00318979  0.66907620  1
  Fe  Fe47  1  0.83781334  0.16729168  0.83842094  1
  Fe  Fe48  1  0.83760862  0.50447769  0.50051025  1
  Cr  Cr49  1  0.66876068  0.33662486  0.66794251  1
  Fe  Fe50  1  0.83812142  0.50355525  0.83925044  1
  Ni  Ni51  1  0.83910029  0.83829048  0.50237779  1
  Cr  Cr52  1  0.66854719  0.66846865  0.67105194  1
  Fe  Fe53  1  0.83865645  0.83693451  0.83721068  1
" 