7586,Ni17Fe81Cr1_8,-230.494219431236, 174.635728736338,Ni17Fe81Cr1,"# generated using pymatgen
 data_CrFe44Ni9
_symmetry_space_group_name_H-M   'P 1'
_cell_length_a   7.40286251
_cell_length_b   7.40286251
_cell_length_c   10.46922857
_cell_angle_alpha   90.00000000
_cell_angle_beta   90.00000000
_cell_angle_gamma   90.00000000
_symmetry_Int_Tables_number   1
_chemical_formula_structural   CrFe44Ni9
_chemical_formula_sum   'Cr1 Fe44 Ni9'
_cell_volume   573.73857334
_cell_formula_units_Z   1
loop_
 _symmetry_equiv_pos_site_id
 _symmetry_equiv_pos_as_xyz
  1  'x, y, z'
loop_
 _atom_site_type_symbol
 _atom_site_label
 _atom_site_symmetry_multiplicity
 _atom_site_fract_x
 _atom_site_fract_y
 _atom_site_fract_z
 _atom_site_occupancy
  Fe  Fe0  1  1.00396249  1.00397469  1.00396286  1
  Fe  Fe1  1  0.17131321  0.17154117  0.17130239  1
  Fe  Fe2  1  1.00376892  0.00528484  0.33773802  1
  Fe  Fe3  1  0.00464665  0.33842486  0.00445095  1
  Ni  Ni4  1  0.17007131  0.50499082  0.17129449  1
  Ni  Ni5  1  1.00394248  0.33744448  0.33726374  1
  Ni  Ni6  1  1.00430453  0.67098490  1.00367322  1
  Fe  Fe7  1  0.17126634  0.83756198  0.17070172  1
  Fe  Fe8  1  1.00403396  0.66975635  0.33690736  1
  Fe  Fe9  1  0.33754739  1.00400160  0.00464180  1
  Ni  Ni10  1  0.50526055  0.17035996  0.17097488  1
  Fe  Fe11  1  0.33841825  0.00556902  0.33795963  1
  Fe  Fe12  1  0.33693285  0.33846643  0.00449703  1
  Fe  Fe13  1  0.50417845  0.50364259  0.17115614  1
  Fe  Fe14  1  0.33782551  0.33742806  0.33736119  1
  Fe  Fe15  1  0.33671205  0.67054111  1.00422785  1
  Fe  Fe16  1  0.50376634  0.83761637  0.17142879  1
  Fe  Fe17  1  0.33762320  0.67000848  0.33777457  1
  Fe  Fe18  1  0.67149496  1.00418373  1.00422865  1
  Fe  Fe19  1  0.83771244  0.17195309  0.17095809  1
  Fe  Fe20  1  0.67082628  0.00548730  0.33791603  1
  Fe  Fe21  1  0.67142319  0.33759010  0.00472577  1
  Fe  Fe22  1  0.83777170  0.50369040  0.17137472  1
  Ni  Ni23  1  0.67116489  0.33768839  0.33832901  1
  Fe  Fe24  1  0.67145066  0.67122325  1.00404275  1
  Fe  Fe25  1  0.83796993  0.83736528  0.17062398  1
  Fe  Fe26  1  0.67134333  0.67035852  0.33825942  1
  Fe  Fe27  1  0.17172511  0.17051840  0.50418195  1
  Fe  Fe28  1  1.00381458  0.00434648  0.67130212  1
  Fe  Fe29  1  0.17046468  0.17139420  0.83751735  1
  Fe  Fe30  1  0.17175846  0.50420860  0.50421006  1
  Fe  Fe31  1  1.00419111  0.33788670  0.67103002  1
  Ni  Ni32  1  0.17059607  0.50556133  0.83715415  1
  Fe  Fe33  1  0.17201577  0.83827899  0.50443488  1
  Fe  Fe34  1  0.00634157  0.67077811  0.67178633  1
  Fe  Fe35  1  0.17021187  0.83754187  0.83786216  1
  Ni  Ni36  1  0.50543720  0.16995379  0.50511505  1
  Fe  Fe37  1  0.33841003  1.00404485  0.67040512  1
  Fe  Fe38  1  0.50431320  0.17157403  0.83771834  1
  Fe  Fe39  1  0.50384638  0.50339897  0.50340110  1
  Fe  Fe40  1  0.33780950  0.33796209  0.67115159  1
  Fe  Fe41  1  0.50358981  0.50297319  0.83845837  1
  Ni  Ni42  1  0.50384126  0.83957161  0.50305195  1
  Fe  Fe43  1  0.33596407  0.67100928  0.67099223  1
  Fe  Fe44  1  0.50346700  0.83845926  0.83795953  1
  Fe  Fe45  1  0.83678038  0.17096553  0.50448474  1
  Fe  Fe46  1  0.67077737  0.00618310  0.67085867  1
  Ni  Ni47  1  0.83670955  0.17052625  0.83735873  1
  Fe  Fe48  1  0.83739698  0.50310167  0.50295202  1
  Fe  Fe49  1  0.67100504  0.33543390  0.67058348  1
  Fe  Fe50  1  0.83913061  0.50323151  0.83868061  1
  Fe  Fe51  1  0.83758921  0.83894475  0.50354874  1
  Cr  Cr52  1  0.67085961  0.67085322  0.67129718  1
  Fe  Fe53  1  0.83932004  0.83825885  0.83882680  1
" 