7002,Ni17Cr83_16,-233.260075086123, 162.359555898621,Ni17Cr83,"# generated using pymatgen
 data_CrNi5
_symmetry_space_group_name_H-M   'P 1'
_cell_length_a   7.47254383
_cell_length_b   7.47254383
_cell_length_c   10.56777283
_cell_angle_alpha   90.00000000
_cell_angle_beta   90.00000000
_cell_angle_gamma   90.00000000
_symmetry_Int_Tables_number   1
_chemical_formula_structural   CrNi5
_chemical_formula_sum   'Cr9 Ni45'
_cell_volume   590.09292914
_cell_formula_units_Z   9
loop_
 _symmetry_equiv_pos_site_id
 _symmetry_equiv_pos_as_xyz
  1  'x, y, z'
loop_
 _atom_site_type_symbol
 _atom_site_label
 _atom_site_symmetry_multiplicity
 _atom_site_fract_x
 _atom_site_fract_y
 _atom_site_fract_z
 _atom_site_occupancy
  Ni  Ni0  1  0.99823797  0.99937923  0.99764480  1
  Cr  Cr1  1  0.16529300  0.16760993  0.16542491  1
  Ni  Ni2  1  0.99800617  0.99960661  0.33460830  1
  Ni  Ni3  1  -0.00031198  0.33302821  0.00016232  1
  Ni  Ni4  1  0.16553367  0.50028221  0.16578936  1
  Ni  Ni5  1  0.99871572  0.33365365  0.33355274  1
  Ni  Ni6  1  0.99806919  0.66649115  -0.00007129  1
  Cr  Cr7  1  0.16674180  0.83123431  0.16629693  1
  Ni  Ni8  1  0.00068414  0.66563699  0.33354931  1
  Ni  Ni9  1  0.33359907  0.00060507  0.99887008  1
  Ni  Ni10  1  0.50088460  0.16379100  0.16541033  1
  Ni  Ni11  1  0.33445403  0.99798579  0.33460807  1
  Ni  Ni12  1  0.33337529  0.33302742  0.99955332  1
  Ni  Ni13  1  0.49802844  0.50151472  0.16417700  1
  Cr  Cr14  1  0.33274733  0.33381574  0.33356663  1
  Ni  Ni15  1  0.33376798  0.66526386  0.00115666  1
  Ni  Ni16  1  0.50088411  0.83359073  0.16579133  1
  Ni  Ni17  1  0.33177414  0.66726089  0.33354939  1
  Ni  Ni18  1  0.66706004  0.99898592  0.00121831  1
  Ni  Ni19  1  0.83247397  0.16502550  0.16664378  1
  Ni  Ni20  1  0.66643666  -0.00004589  0.33249537  1
  Cr  Cr21  1  0.66585586  0.33318657  -0.00014546  1
  Ni  Ni22  1  0.83533362  0.50028044  0.16541243  1
  Cr  Cr23  1  0.66758987  0.33145431  0.33274490  1
  Ni  Ni24  1  0.66706029  0.66671147  0.00037292  1
  Ni  Ni25  1  0.83124734  0.83359062  0.16518197  1
  Cr  Cr26  1  0.66627488  0.66734377  0.33274616  1
  Ni  Ni27  1  0.16553464  0.16588662  0.50065353  1
  Ni  Ni28  1  -0.00011530  0.99937943  0.66664570  1
  Ni  Ni29  1  0.16616212  0.16491953  0.83306284  1
  Ni  Ni30  1  0.16553414  0.50027843  0.49966969  1
  Ni  Ni31  1  0.00028076  0.33220459  0.66518263  1
  Cr  Cr32  1  0.16632265  0.49921495  0.83341414  1
  Ni  Ni33  1  0.16676398  0.83273204  0.49953638  1
  Ni  Ni34  1  0.99866028  0.66731306  0.66541912  1
  Ni  Ni35  1  0.16454662  0.83495175  0.83306303  1
  Ni  Ni36  1  0.49869514  0.16359528  0.50022377  1
  Ni  Ni37  1  0.33195186  0.00060679  0.66541911  1
  Ni  Ni38  1  0.49783917  0.16621537  0.83326285  1
  Ni  Ni39  1  0.49763511  0.50151385  0.50163099  1
  Ni  Ni40  1  0.33278347  0.33220442  0.66579267  1
  Ni  Ni41  1  0.49963014  0.49951522  0.83308837  1
  Ni  Ni42  1  0.49869680  0.83378733  0.49984215  1
  Ni  Ni43  1  0.33317555  0.66608481  0.66418917  1
  Cr  Cr44  1  0.50001130  0.83276006  0.83301170  1
  Ni  Ni45  1  0.83466751  0.16482923  0.49899033  1
  Ni  Ni46  1  0.66706071  0.99898718  0.66518213  1
  Ni  Ni47  1  0.83489571  0.16460171  0.83326294  1
  Ni  Ni48  1  0.83572622  0.50028015  0.50039608  1
  Cr  Cr49  1  0.66585625  0.33340641  0.66629710  1
  Ni  Ni50  1  0.83310663  0.50113403  0.83308822  1
  Ni  Ni51  1  0.83343512  0.83378713  0.50045172  1
  Ni  Ni52  1  0.66706179  0.66648015  0.66579145  1
  Ni  Ni53  1  0.83440530  0.83316119  0.83326253  1
" 