3021,Ni17Cr83_13,-233.213907035588, 159.343461304411,Ni17Cr83,"# generated using pymatgen
 data_CrNi5
_symmetry_space_group_name_H-M   'P 1'
_cell_length_a   7.47402771
_cell_length_b   7.47402771
_cell_length_c   10.56987135
_cell_angle_alpha   90.00000000
_cell_angle_beta   90.00000000
_cell_angle_gamma   90.00000000
_symmetry_Int_Tables_number   1
_chemical_formula_structural   CrNi5
_chemical_formula_sum   'Cr9 Ni45'
_cell_volume   590.44453600
_cell_formula_units_Z   9
loop_
 _symmetry_equiv_pos_site_id
 _symmetry_equiv_pos_as_xyz
  1  'x, y, z'
loop_
 _atom_site_type_symbol
 _atom_site_label
 _atom_site_symmetry_multiplicity
 _atom_site_fract_x
 _atom_site_fract_y
 _atom_site_fract_z
 _atom_site_occupancy
  Ni  Ni0  1  0.00027394  0.99823841  0.99952061  1
  Ni  Ni1  1  0.16416169  0.16594830  0.16733534  1
  Ni  Ni2  1  -0.00014873  -0.00040160  0.33267897  1
  Ni  Ni3  1  -0.00034225  0.33316543  0.00092212  1
  Ni  Ni4  1  0.16531240  0.50042345  0.16644146  1
  Ni  Ni5  1  0.00003890  0.33273337  0.33286649  1
  Ni  Ni6  1  -0.00009927  0.66719519  0.99952105  1
  Ni  Ni7  1  0.16568254  0.83222643  0.16618979  1
  Ni  Ni8  1  0.99947787  0.66626753  0.33305376  1
  Cr  Cr9  1  0.33037186  -0.00028518  0.00011041  1
  Ni  Ni10  1  0.50074579  0.16691147  0.16829723  1
  Ni  Ni11  1  0.33318632  -0.00002579  0.33267897  1
  Cr  Cr12  1  0.33294371  0.33380452  0.99871997  1
  Ni  Ni13  1  0.50074097  0.50060861  0.16599869  1
  Ni  Ni14  1  0.33300116  0.33235988  0.33286617  1
  Ni  Ni15  1  0.33207489  0.66489379  0.99940575  1
  Ni  Ni16  1  0.49941042  0.83107916  0.16774295  1
  Ni  Ni17  1  0.33318629  0.66626476  0.33305391  1
  Cr  Cr18  1  0.66777561  0.99912758  0.00077804  1
  Ni  Ni19  1  0.83369145  0.16727964  0.16640762  1
  Ni  Ni20  1  0.66556178  0.99941318  0.33327183  1
  Ni  Ni21  1  0.66590124  0.33512178  0.00048024  1
  Ni  Ni22  1  0.83254558  0.49909085  0.16551660  1
  Ni  Ni23  1  0.66555894  0.33273324  0.33286638  1
  Ni  Ni24  1  0.66662270  0.66427554  0.00107530  1
  Ni  Ni25  1  0.83350685  0.83222817  0.16607149  1
  Ni  Ni26  1  0.66593483  0.66645291  0.33246140  1
  Ni  Ni27  1  0.16416443  0.16619907  0.49814546  1
  Ni  Ni28  1  0.99832197  0.99845465  0.66639915  1
  Ni  Ni29  1  0.16454854  0.16595164  0.83311942  1
  Ni  Ni30  1  0.16531205  0.50067690  0.49954556  1
  Ni  Ni31  1  -0.00034238  0.33273233  0.66481056  1
  Ni  Ni32  1  0.16684401  0.50156596  0.83261168  1
  Ni  Ni33  1  0.16568429  0.83172251  0.49954468  1
  Ni  Ni34  1  0.00185417  0.66741198  0.66602464  1
  Ni  Ni35  1  0.16329832  0.83108128  0.83286538  1
  Ni  Ni36  1  0.50188971  0.16601488  0.49858768  1
  Cr  Cr37  1  0.33223964  0.99949732  0.66606056  1
  Ni  Ni38  1  0.50039606  0.16887699  0.83171580  1
  Ni  Ni39  1  0.49959648  0.49971689  0.49858707  1
  Cr  Cr40  1  0.33294406  0.33424092  0.66701283  1
  Ni  Ni41  1  0.49810162  0.49864407  0.83401183  1
  Ni  Ni42  1  0.49941044  0.83286703  0.49799368  1
  Ni  Ni43  1  0.33012246  0.66511460  0.66614003  1
  Cr  Cr44  1  0.49909908  0.83107652  0.83286281  1
  Ni  Ni45  1  0.83254518  0.16638624  0.50047172  1
  Ni  Ni46  1  0.66820284  0.00137224  0.66484377  1
  Cr  Cr47  1  0.83348718  0.16566945  0.83172840  1
  Ni  Ni48  1  0.83369011  0.49819832  0.49907060  1
  Ni  Ni49  1  0.66590096  0.33077874  0.66525259  1
  Cr  Cr50  1  0.83348810  0.49957879  0.83400250  1
  Ni  Ni51  1  0.83350531  0.83401482  0.49966235  1
  Cr  Cr52  1  0.66678402  0.66643696  0.66451649  1
  Ni  Ni53  1  0.83657819  0.83337261  0.83286455  1
" 