4986,Ni17Fe81Cr1_18,-230.396550836557, 173.515743352981,Ni17Fe81Cr1,"# generated using pymatgen
 data_CrFe44Ni9
_symmetry_space_group_name_H-M   'P 1'
_cell_length_a   7.40474788
_cell_length_b   7.40474788
_cell_length_c   10.47189488
_cell_angle_alpha   90.00000000
_cell_angle_beta   90.00000000
_cell_angle_gamma   90.00000000
_symmetry_Int_Tables_number   1
_chemical_formula_structural   CrFe44Ni9
_chemical_formula_sum   'Cr1 Fe44 Ni9'
_cell_volume   574.17704637
_cell_formula_units_Z   1
loop_
 _symmetry_equiv_pos_site_id
 _symmetry_equiv_pos_as_xyz
  1  'x, y, z'
loop_
 _atom_site_type_symbol
 _atom_site_label
 _atom_site_symmetry_multiplicity
 _atom_site_fract_x
 _atom_site_fract_y
 _atom_site_fract_z
 _atom_site_occupancy
  Fe  Fe0  1  1.00210867  1.00397192  1.00400353  1
  Fe  Fe1  1  0.16962598  0.17133356  0.17244293  1
  Fe  Fe2  1  1.00399827  0.00491904  0.33818508  1
  Fe  Fe3  1  0.00482445  0.33762794  1.00389280  1
  Fe  Fe4  1  0.17063330  0.50463611  0.17040843  1
  Fe  Fe5  1  0.00467936  0.33745754  0.33754983  1
  Fe  Fe6  1  0.00443123  0.67101979  0.00428282  1
  Fe  Fe7  1  0.16950266  0.83664834  0.17161589  1
  Fe  Fe8  1  1.00364821  0.67024303  0.33738818  1
  Cr  Cr9  1  0.33646619  1.00375371  1.00420637  1
  Fe  Fe10  1  0.50568811  0.17172215  0.17267305  1
  Fe  Fe11  1  0.33813153  0.00582896  0.33771487  1
  Fe  Fe12  1  0.33715000  0.33955139  0.00448966  1
  Fe  Fe13  1  0.50476307  0.50432345  0.17131229  1
  Ni  Ni14  1  0.33865596  0.33720011  0.33713286  1
  Fe  Fe15  1  0.33730400  0.66885350  1.00381559  1
  Fe  Fe16  1  0.50549360  0.83657168  0.17145652  1
  Fe  Fe17  1  0.33805302  0.66976267  0.33735166  1
  Fe  Fe18  1  0.67280727  1.00381849  0.00451698  1
  Fe  Fe19  1  0.83730359  0.17060085  0.17076705  1
  Fe  Fe20  1  0.67048855  0.00480303  0.33751480  1
  Fe  Fe21  1  0.67064747  0.33723709  1.00412928  1
  Fe  Fe22  1  0.83722532  0.50444395  0.17103250  1
  Ni  Ni23  1  0.67015844  0.33785770  0.33719183  1
  Fe  Fe24  1  0.67088637  0.67156560  0.00451947  1
  Ni  Ni25  1  0.83717498  0.83767839  0.16976920  1
  Fe  Fe26  1  0.67091719  0.67044082  0.33738786  1
  Ni  Ni27  1  0.17239020  0.17190846  0.50456939  1
  Ni  Ni28  1  0.00520938  1.00325466  0.67163892  1
  Fe  Fe29  1  0.16966865  0.17192388  0.83605099  1
  Fe  Fe30  1  0.17118996  0.50365022  0.50440464  1
  Fe  Fe31  1  0.00428190  0.33713970  0.67117996  1
  Ni  Ni32  1  0.17147364  0.50375732  0.83796643  1
  Fe  Fe33  1  0.17067326  0.83884926  0.50452110  1
  Fe  Fe34  1  1.00361382  0.67082544  0.67094767  1
  Fe  Fe35  1  0.16989952  0.83632973  0.83648716  1
  Ni  Ni36  1  0.50307024  0.17157998  0.50419305  1
  Fe  Fe37  1  0.33766153  0.00519835  0.67070024  1
  Fe  Fe38  1  0.50489622  0.17259306  0.83605271  1
  Fe  Fe39  1  0.50452069  0.50301850  0.50389082  1
  Fe  Fe40  1  0.33718538  0.33675652  0.67023349  1
  Fe  Fe41  1  0.50393606  0.50404564  0.83741387  1
  Fe  Fe42  1  0.50401207  0.83845624  0.50428416  1
  Fe  Fe43  1  0.33730243  0.67066927  0.67145417  1
  Fe  Fe44  1  0.50435283  0.83598044  0.83687920  1
  Fe  Fe45  1  0.83730236  0.17063060  0.50460296  1
  Fe  Fe46  1  0.67131738  0.00453267  0.67058549  1
  Fe  Fe47  1  0.83805452  0.17150733  0.83725215  1
  Fe  Fe48  1  0.83691076  0.50317218  0.50420559  1
  Ni  Ni49  1  0.67051073  0.33816608  0.67085883  1
  Fe  Fe50  1  0.83770133  0.50381417  0.83738085  1
  Ni  Ni51  1  0.83718893  0.83692999  0.50453377  1
  Fe  Fe52  1  0.67170395  0.67130546  0.67071018  1
  Fe  Fe53  1  0.83836952  0.83729808  0.83741494  1
" 