6552,Ni17Cr83_6,-233.156732734421, 159.306767227967,Ni17Cr83,"# generated using pymatgen
 data_CrNi5
_symmetry_space_group_name_H-M   'P 1'
_cell_length_a   7.47380042
_cell_length_b   7.47380042
_cell_length_c   10.56954992
_cell_angle_alpha   90.00000000
_cell_angle_beta   90.00000000
_cell_angle_gamma   90.00000000
_symmetry_Int_Tables_number   1
_chemical_formula_structural   CrNi5
_chemical_formula_sum   'Cr9 Ni45'
_cell_volume   590.39067197
_cell_formula_units_Z   9
loop_
 _symmetry_equiv_pos_site_id
 _symmetry_equiv_pos_as_xyz
  1  'x, y, z'
loop_
 _atom_site_type_symbol
 _atom_site_label
 _atom_site_symmetry_multiplicity
 _atom_site_fract_x
 _atom_site_fract_y
 _atom_site_fract_z
 _atom_site_occupancy
  Ni  Ni0  1  0.99786567  0.99737379  -0.00016907  1
  Ni  Ni1  1  0.16600026  0.16481321  0.16825365  1
  Cr  Cr2  1  -0.00035289  0.99917609  0.33240771  1
  Cr  Cr3  1  0.99759506  0.33175655  0.99868513  1
  Cr  Cr4  1  0.16600289  0.50129711  0.16819702  1
  Ni  Ni5  1  0.99924134  0.33207843  0.33210132  1
  Ni  Ni6  1  0.99846562  0.66934936  0.99911589  1
  Ni  Ni7  1  0.16430076  0.83270579  0.16603852  1
  Ni  Ni8  1  0.99888158  0.66688486  0.33146549  1
  Cr  Cr9  1  0.33152272  0.99931530  0.99892635  1
  Ni  Ni10  1  0.50141396  0.16804675  0.16806703  1
  Ni  Ni11  1  0.33330749  0.00096178  0.33381617  1
  Cr  Cr12  1  0.33551820  0.33355735  0.99871543  1
  Ni  Ni13  1  0.50201425  0.49831802  0.16707556  1
  Ni  Ni14  1  0.33474503  0.33130533  0.33238930  1
  Ni  Ni15  1  0.33296149  0.66618363  0.99765009  1
  Cr  Cr16  1  0.50014593  0.83260442  0.16670727  1
  Ni  Ni17  1  0.33382188  0.66637754  0.33367309  1
  Ni  Ni18  1  0.66910389  0.00018385  0.99887069  1
  Ni  Ni19  1  0.83123100  0.16652296  0.16603869  1
  Ni  Ni20  1  0.66516465  0.00060187  0.33367206  1
  Ni  Ni21  1  0.66593762  0.33320707  -0.00013970  1
  Ni  Ni22  1  0.83080764  0.50001757  0.16717651  1
  Ni  Ni23  1  0.66465793  0.33259419  0.33146611  1
  Ni  Ni24  1  0.66721746  0.66525444  0.99893724  1
  Ni  Ni25  1  0.83403786  0.83210388  0.16517926  1
  Ni  Ni26  1  0.66594096  0.66544938  0.33274941  1
  Ni  Ni27  1  0.16642213  0.16439987  0.49923404  1
  Ni  Ni28  1  -0.00028425  -0.00028579  0.66642588  1
  Ni  Ni29  1  0.16449329  0.16498293  0.83115747  1
  Cr  Cr30  1  0.16628148  0.50022355  0.49861473  1
  Ni  Ni31  1  0.99801197  0.33085136  0.66785508  1
  Ni  Ni32  1  0.16541868  0.50219495  0.83208446  1
  Ni  Ni33  1  0.16770594  0.83377258  0.50015671  1
  Ni  Ni34  1  0.99953281  0.66807848  0.66806414  1
  Ni  Ni35  1  0.16578100  0.83146667  0.83244959  1
  Ni  Ni36  1  0.50034069  0.16464443  0.49813286  1
  Ni  Ni37  1  0.33232463  0.99801411  0.66589069  1
  Ni  Ni38  1  0.50206422  0.16554939  0.83244524  1
  Ni  Ni39  1  0.50016314  0.50065090  0.49819764  1
  Cr  Cr40  1  0.33369442  0.33220672  0.66752033  1
  Ni  Ni41  1  0.50077835  0.50126869  0.83337125  1
  Ni  Ni42  1  0.49923670  0.83335025  0.49962626  1
  Ni  Ni43  1  0.33361055  0.66867477  0.66732023  1
  Ni  Ni44  1  0.49985100  0.83182754  0.83181325  1
  Ni  Ni45  1  0.83188129  0.16532714  0.50051760  1
  Ni  Ni46  1  0.66660438  0.99953453  0.66610087  1
  Ni  Ni47  1  0.83208756  0.16591153  0.83208892  1
  Cr  Cr48  1  0.83218811  0.49912656  0.49949639  1
  Ni  Ni49  1  0.66720251  0.33213951  0.66731896  1
  Ni  Ni50  1  0.83244790  0.49998158  0.83223312  1
  Ni  Ni51  1  0.83170161  0.83394939  0.50009162  1
  Ni  Ni52  1  0.66550148  0.66697040  0.66695724  1
  Ni  Ni53  1  0.83301279  0.83275208  0.83337384  1
" 