2161,Ni17Fe81Cr1_2,-230.722778936548, 169.684454324777,Ni17Fe81Cr1,"# generated using pymatgen
 data_CrFe44Ni9
_symmetry_space_group_name_H-M   'P 1'
_cell_length_a   7.41053315
_cell_length_b   7.41053315
_cell_length_c   10.48007649
_cell_angle_alpha   90.00000000
_cell_angle_beta   90.00000000
_cell_angle_gamma   90.00000000
_symmetry_Int_Tables_number   1
_chemical_formula_structural   CrFe44Ni9
_chemical_formula_sum   'Cr1 Fe44 Ni9'
_cell_volume   575.52389775
_cell_formula_units_Z   1
loop_
 _symmetry_equiv_pos_site_id
 _symmetry_equiv_pos_as_xyz
  1  'x, y, z'
loop_
 _atom_site_type_symbol
 _atom_site_label
 _atom_site_symmetry_multiplicity
 _atom_site_fract_x
 _atom_site_fract_y
 _atom_site_fract_z
 _atom_site_occupancy
  Fe  Fe0  1  0.00418627  1.00281601  1.00362684  1
  Fe  Fe1  1  0.16899099  0.17022680  0.17042164  1
  Fe  Fe2  1  0.00440698  0.00476901  0.33757436  1
  Ni  Ni3  1  0.00423624  0.33806871  0.00405608  1
  Fe  Fe4  1  0.16907729  0.50476133  0.16907870  1
  Ni  Ni5  1  1.00250289  0.33712622  0.33776005  1
  Ni  Ni6  1  0.00491634  0.66919640  1.00334118  1
  Fe  Fe7  1  0.17067724  0.83644754  0.16941539  1
  Fe  Fe8  1  0.00389426  0.66986967  0.33657899  1
  Fe  Fe9  1  0.33627858  1.00305393  1.00358196  1
  Fe  Fe10  1  0.50518948  0.16910233  0.16926278  1
  Fe  Fe11  1  0.33622994  1.00282808  0.33757529  1
  Fe  Fe12  1  0.33685757  0.33759710  0.00422109  1
  Fe  Fe13  1  0.50433019  0.50511065  0.16951041  1
  Cr  Cr14  1  0.33525096  0.33722426  0.33756000  1
  Ni  Ni15  1  0.33682114  0.67064921  0.00405582  1
  Fe  Fe16  1  0.50385849  0.83722829  0.17014552  1
  Fe  Fe17  1  0.33674100  0.67181359  0.33657938  1
  Ni  Ni18  1  0.66968663  1.00341543  1.00338201  1
  Fe  Fe19  1  0.83725143  0.17070037  0.17032353  1
  Fe  Fe20  1  0.67080105  0.00454064  0.33649708  1
  Fe  Fe21  1  0.67108152  0.33800741  1.00358171  1
  Fe  Fe22  1  0.83803328  0.50342834  0.16984495  1
  Fe  Fe23  1  0.67273400  0.33731206  0.33714554  1
  Fe  Fe24  1  0.67131840  0.67010277  1.00362721  1
  Fe  Fe25  1  0.83690401  0.83730874  0.17018632  1
  Fe  Fe26  1  0.67080355  0.66958641  0.33739455  1
  Ni  Ni27  1  0.16960606  0.16934587  0.50456566  1
  Fe  Fe28  1  0.00450593  0.00426085  0.67023881  1
  Fe  Fe29  1  0.16937737  0.17113540  0.83633595  1
  Fe  Fe30  1  0.16907611  0.50362123  0.50460205  1
  Ni  Ni31  1  0.00434629  0.33724039  0.66962438  1
  Fe  Fe32  1  0.16940695  0.50442691  0.83776328  1
  Fe  Fe33  1  0.17067908  0.83766925  0.50434372  1
  Fe  Fe34  1  1.00364561  0.67011051  0.67158597  1
  Ni  Ni35  1  0.17083770  0.83764637  0.83736744  1
  Fe  Fe36  1  0.50423251  0.16936560  0.50476321  1
  Fe  Fe37  1  0.33596778  0.00449624  0.67028343  1
  Fe  Fe38  1  0.50424127  0.17005194  0.83741460  1
  Fe  Fe39  1  0.50411269  0.50436241  0.50468197  1
  Fe  Fe40  1  0.33659315  0.33671757  0.66972464  1
  Fe  Fe41  1  0.50342744  0.50472658  0.83725020  1
  Fe  Fe42  1  0.50329336  0.83771146  0.50369527  1
  Fe  Fe43  1  0.33647638  0.67022552  0.67119477  1
  Fe  Fe44  1  0.50384528  0.83666033  0.83759790  1
  Fe  Fe45  1  0.83820903  0.17096571  0.50369755  1
  Fe  Fe46  1  0.67096705  0.00437624  0.67096758  1
  Fe  Fe47  1  0.83782128  0.17071951  0.83741686  1
  Fe  Fe48  1  0.83824610  0.50268166  0.50434532  1
  Fe  Fe49  1  0.67108222  0.33757775  0.67071395  1
  Ni  Ni50  1  0.83654871  0.50355311  0.83773524  1
  Fe  Fe51  1  0.83746630  0.83779285  0.50364882  1
  Fe  Fe52  1  0.67131611  0.66948473  0.67041924  1
  Fe  Fe53  1  0.83752079  0.83669103  0.83760209  1
" 