8777,Ni17Fe81Cr1_0,-230.497517540685, 172.36200807071,Ni17Fe81Cr1,"# generated using pymatgen
 data_CrFe44Ni9
_symmetry_space_group_name_H-M   'P 1'
_cell_length_a   7.40940121
_cell_length_b   7.40940121
_cell_length_c   10.47847569
_cell_angle_alpha   90.00000000
_cell_angle_beta   90.00000000
_cell_angle_gamma   90.00000000
_symmetry_Int_Tables_number   1
_chemical_formula_structural   CrFe44Ni9
_chemical_formula_sum   'Cr1 Fe44 Ni9'
_cell_volume   575.26020871
_cell_formula_units_Z   1
loop_
 _symmetry_equiv_pos_site_id
 _symmetry_equiv_pos_as_xyz
  1  'x, y, z'
loop_
 _atom_site_type_symbol
 _atom_site_label
 _atom_site_symmetry_multiplicity
 _atom_site_fract_x
 _atom_site_fract_y
 _atom_site_fract_z
 _atom_site_occupancy
  Fe  Fe0  1  0.00425789  0.00417107  1.00341215  1
  Fe  Fe1  1  0.17097960  0.17063298  0.17055546  1
  Fe  Fe2  1  0.00445672  1.00388964  0.33745291  1
  Fe  Fe3  1  1.00369158  0.33665983  0.00393227  1
  Fe  Fe4  1  0.17097510  0.50389104  0.17128238  1
  Fe  Fe5  1  0.00438570  0.33718827  0.33725800  1
  Fe  Fe6  1  0.00413746  0.67083829  1.00360780  1
  Fe  Fe7  1  0.17098025  0.83714444  0.16987464  1
  Fe  Fe8  1  0.00446365  0.67059236  0.33718071  1
  Ni  Ni9  1  0.33609491  1.00364869  1.00373697  1
  Fe  Fe10  1  0.50396687  0.17055462  0.17047782  1
  Fe  Fe11  1  0.33762206  1.00381298  0.33657390  1
  Fe  Fe12  1  0.33780548  0.33664824  0.00389141  1
  Fe  Fe13  1  0.50364204  0.50364261  0.17080290  1
  Ni  Ni14  1  0.33648179  0.33863139  0.33575557  1
  Fe  Fe15  1  0.33743258  0.67092460  0.00425152  1
  Fe  Fe16  1  0.50371617  0.83747287  0.17088648  1
  Ni  Ni17  1  0.33648351  0.66905924  0.33707515  1
  Fe  Fe18  1  0.67008583  0.00454488  0.00400966  1
  Fe  Fe19  1  0.83672488  0.17055732  0.17055526  1
  Ni  Ni20  1  0.67217502  1.00361236  0.33676835  1
  Ni  Ni21  1  0.67093511  0.33759826  1.00376452  1
  Fe  Fe22  1  0.83705001  0.50364305  0.17007408  1
  Fe  Fe23  1  0.66959631  0.33725219  0.33646139  1
  Fe  Fe24  1  0.67010025  0.67035654  1.00336150  1
  Fe  Fe25  1  0.83697396  0.83747065  0.17095914  1
  Fe  Fe26  1  0.66951991  0.67052475  0.33775216  1
  Fe  Fe27  1  0.17187636  0.17217789  0.50300404  1
  Cr  Cr28  1  1.00297633  1.00342959  0.67101722  1
  Fe  Fe29  1  0.17194404  0.17095021  0.83811135  1
  Fe  Fe30  1  0.17127439  0.50348352  0.50352097  1
  Fe  Fe31  1  1.00325139  0.33899579  0.67047975  1
  Fe  Fe32  1  0.17069453  0.50413717  0.83686450  1
  Fe  Fe33  1  0.17154552  0.83600918  0.50320559  1
  Fe  Fe34  1  1.00356455  0.66902815  0.67088209  1
  Ni  Ni35  1  0.17163872  0.83642779  0.83796101  1
  Fe  Fe36  1  0.50388578  0.17052522  0.50392101  1
  Fe  Fe37  1  0.33969575  1.00361782  0.67156486  1
  Fe  Fe38  1  0.50328309  0.16999704  0.83727263  1
  Fe  Fe39  1  0.50323157  0.50388418  0.50389044  1
  Ni  Ni40  1  0.33657164  0.33813855  0.67151304  1
  Fe  Fe41  1  0.50361268  0.50417085  0.83697448  1
  Fe  Fe42  1  0.50461912  0.83726081  0.50384057  1
  Fe  Fe43  1  0.33777763  0.67106514  0.67027336  1
  Fe  Fe44  1  0.50364151  0.83750353  0.83694615  1
  Fe  Fe45  1  0.83590678  0.17079315  0.50292343  1
  Ni  Ni46  1  0.67020175  1.00262819  0.67187650  1
  Fe  Fe47  1  0.83644125  0.17092049  0.83819521  1
  Fe  Fe48  1  0.83715887  0.50421590  0.50425156  1
  Fe  Fe49  1  0.67035679  0.33707296  0.67124292  1
  Fe  Fe50  1  0.83736350  0.50449645  0.83734428  1
  Fe  Fe51  1  0.83550843  0.83665896  0.50324875  1
  Ni  Ni52  1  0.67089736  0.67126239  0.67055671  1
  Fe  Fe53  1  0.83641059  0.83625051  0.83746805  1
" 