2515,Ni17Cr83_12,-232.910296828652, 154.995631865533,Ni17Cr83,"# generated using pymatgen
 data_CrNi5
_symmetry_space_group_name_H-M   'P 1'
_cell_length_a   7.47566899
_cell_length_b   7.47566899
_cell_length_c   10.57219247
_cell_angle_alpha   90.00000000
_cell_angle_beta   90.00000000
_cell_angle_gamma   90.00000000
_symmetry_Int_Tables_number   1
_chemical_formula_structural   CrNi5
_chemical_formula_sum   'Cr9 Ni45'
_cell_volume   590.83360268
_cell_formula_units_Z   9
loop_
 _symmetry_equiv_pos_site_id
 _symmetry_equiv_pos_as_xyz
  1  'x, y, z'
loop_
 _atom_site_type_symbol
 _atom_site_label
 _atom_site_symmetry_multiplicity
 _atom_site_fract_x
 _atom_site_fract_y
 _atom_site_fract_z
 _atom_site_occupancy
  Ni  Ni0  1  0.00109765  -0.00040639  0.99812251  1
  Ni  Ni1  1  0.16811272  0.16426284  0.16591688  1
  Ni  Ni2  1  0.00110094  0.99928824  0.33405410  1
  Ni  Ni3  1  0.00027083  0.33173200  0.99672636  1
  Cr  Cr4  1  0.16558022  0.49942419  0.16608937  1
  Ni  Ni5  1  0.00025876  0.33188556  0.33521985  1
  Ni  Ni6  1  0.00008681  0.66694413  0.99714491  1
  Ni  Ni7  1  0.16814207  0.83457804  0.16626374  1
  Ni  Ni8  1  0.00010500  0.66709828  0.33526982  1
  Ni  Ni9  1  0.33174970  0.99878091  0.00061411  1
  Ni  Ni10  1  0.49763236  0.16406791  0.16645962  1
  Ni  Ni11  1  0.33175221  0.00041695  0.33157207  1
  Ni  Ni12  1  0.33193756  0.33190294  0.99912728  1
  Cr  Cr13  1  0.49944834  0.49942642  0.16609194  1
  Ni  Ni14  1  0.33291534  0.33108923  0.33405125  1
  Ni  Ni15  1  0.33291660  0.66758250  0.99776643  1
  Ni  Ni16  1  0.49760071  0.83477767  0.16571622  1
  Ni  Ni17  1  0.33193999  0.66676458  0.33342358  1
  Ni  Ni18  1  0.66542179  0.99862079  0.99876261  1
  Cr  Cr19  1  0.83283598  0.16636877  0.16565507  1
  Ni  Ni20  1  0.66542453  0.00026424  0.33341422  1
  Ni  Ni21  1  0.66606340  0.33291545  0.99792823  1
  Cr  Cr22  1  0.83323559  0.49939837  0.16608807  1
  Ni  Ni23  1  0.66510250  0.33209250  0.33523330  1
  Ni  Ni24  1  0.66527134  0.66674061  0.99712674  1
  Cr  Cr25  1  0.83282687  0.83250475  0.16652731  1
  Ni  Ni26  1  0.66622622  0.66591706  0.33407726  1
  Ni  Ni27  1  0.16592379  0.16642699  0.49746164  1
  Cr  Cr28  1  -0.00054100  -0.00055083  0.66609140  1
  Ni  Ni29  1  0.16423274  0.16626476  0.83489370  1
  Ni  Ni30  1  0.16491843  0.50008294  0.49851103  1
  Ni  Ni31  1  0.99771676  0.33425701  0.66631254  1
  Ni  Ni32  1  0.16491213  0.50041686  0.83367509  1
  Ni  Ni33  1  0.16525181  0.83174755  0.49831123  1
  Ni  Ni34  1  0.99926165  0.66475033  0.66586796  1
  Ni  Ni35  1  0.16694282  0.83158678  0.83369090  1
  Ni  Ni36  1  0.50044974  0.16694749  0.49811587  1
  Ni  Ni37  1  0.33272075  0.99775034  0.66608876  1
  Cr  Cr38  1  0.50019127  0.16479833  0.83293596  1
  Ni  Ni39  1  0.50028234  0.49842447  0.49846025  1
  Cr  Cr40  1  0.33205360  0.33359692  0.66503755  1
  Ni  Ni41  1  0.50028210  0.50206814  0.83371730  1
  Cr  Cr42  1  0.49916204  0.83319500  0.50026913  1
  Ni  Ni43  1  0.33224361  0.66677725  0.66712183  1
  Ni  Ni44  1  0.49942930  0.83106244  0.83304980  1
  Ni  Ni45  1  0.83189796  0.16728115  0.49868202  1
  Ni  Ni46  1  0.66626387  0.99927951  0.66608745  1
  Ni  Ni47  1  0.83356680  0.16712210  0.83367222  1
  Ni  Ni48  1  0.83307709  0.49906975  0.49917194  1
  Ni  Ni49  1  0.66826966  0.33376412  0.66506391  1
  Ni  Ni50  1  0.83307652  0.49939443  0.83301058  1
  Ni  Ni51  1  0.83355970  0.83191796  0.49829001  1
  Ni  Ni52  1  0.66676041  0.66523047  0.66711335  1
  Ni  Ni53  1  0.83190011  0.83176121  0.83371575  1
" 