629,Ni17Fe73Cr8_6,-229.102787473608, 170.348734361689,Ni17Fe73Cr8,"# generated using pymatgen
 data_Cr2Fe13Ni3
_symmetry_space_group_name_H-M   'P 1'
_cell_length_a   7.43749976
_cell_length_b   7.43749976
_cell_length_c   10.51821303
_cell_angle_alpha   90.00000000
_cell_angle_beta   90.00000000
_cell_angle_gamma   90.00000000
_symmetry_Int_Tables_number   1
_chemical_formula_structural   Cr2Fe13Ni3
_chemical_formula_sum   'Cr6 Fe39 Ni9'
_cell_volume   581.82970801
_cell_formula_units_Z   3
loop_
 _symmetry_equiv_pos_site_id
 _symmetry_equiv_pos_as_xyz
  1  'x, y, z'
loop_
 _atom_site_type_symbol
 _atom_site_label
 _atom_site_symmetry_multiplicity
 _atom_site_fract_x
 _atom_site_fract_y
 _atom_site_fract_z
 _atom_site_occupancy
  Fe  Fe0  1  0.00263175  1.00190843  0.00239237  1
  Ni  Ni1  1  0.16919384  0.16943187  0.16677357  1
  Fe  Fe2  1  0.00225208  1.00132681  0.33539068  1
  Fe  Fe3  1  1.00117742  0.33468636  0.00300903  1
  Fe  Fe4  1  0.16940839  0.50161760  0.16890576  1
  Fe  Fe5  1  0.00288738  0.33597551  0.33506578  1
  Fe  Fe6  1  1.00117448  0.66936404  0.00293808  1
  Ni  Ni7  1  0.16718894  0.83487004  0.16754617  1
  Fe  Fe8  1  0.00287006  0.66865496  0.33583468  1
  Fe  Fe9  1  0.33364777  0.00226662  0.00285095  1
  Ni  Ni10  1  0.50187844  0.17042730  0.16840454  1
  Cr  Cr11  1  0.33387009  0.00350132  0.33482408  1
  Fe  Fe12  1  0.33540661  0.33463601  0.00427517  1
  Fe  Fe13  1  0.50090627  0.50006610  0.16913384  1
  Ni  Ni14  1  0.33605213  0.33685853  0.33493350  1
  Fe  Fe15  1  0.33504995  0.66905894  0.00250169  1
  Cr  Cr16  1  0.50167370  0.83615736  0.16834411  1
  Ni  Ni17  1  0.33326796  0.66542962  0.33559387  1
  Fe  Fe18  1  0.66968039  0.00226354  0.00210546  1
  Fe  Fe19  1  0.83560631  0.16843315  0.16848437  1
  Fe  Fe20  1  0.67031222  0.00342851  0.33537407  1
  Fe  Fe21  1  0.66937373  0.33608873  0.00310469  1
  Ni  Ni22  1  0.83589253  0.50166847  0.16775991  1
  Fe  Fe23  1  0.66759958  0.33595998  0.33504594  1
  Fe  Fe24  1  0.66973209  0.66760726  1.00133318  1
  Fe  Fe25  1  0.83716015  0.83589757  0.16902850  1
  Fe  Fe26  1  0.66970857  0.66657229  0.33566454  1
  Fe  Fe27  1  0.16731761  0.16897144  0.50214886  1
  Fe  Fe28  1  0.00208699  0.00282761  0.66816983  1
  Fe  Fe29  1  0.16720123  0.16738544  0.83573725  1
  Fe  Fe30  1  0.16910996  0.50251539  0.50110094  1
  Fe  Fe31  1  1.00096772  0.33350200  0.66788301  1
  Cr  Cr32  1  0.16795600  0.50106641  0.83625787  1
  Ni  Ni33  1  0.16754617  0.83522689  0.50256775  1
  Cr  Cr34  1  1.00080651  0.66983376  0.66719982  1
  Fe  Fe35  1  0.16963903  0.83752499  0.83600798  1
  Fe  Fe36  1  0.50301737  0.17048440  0.50219522  1
  Fe  Fe37  1  0.33345309  1.00159211  0.66839245  1
  Cr  Cr38  1  0.50178841  0.16770181  0.83546131  1
  Fe  Fe39  1  0.50189236  0.50167089  0.50158451  1
  Fe  Fe40  1  0.33521036  0.33537101  0.66690302  1
  Fe  Fe41  1  0.50324924  0.50348062  0.83524043  1
  Cr  Cr42  1  0.50207823  0.83530362  0.50293382  1
  Fe  Fe43  1  0.33644581  0.66899467  0.66806447  1
  Fe  Fe44  1  0.50184925  0.83367241  0.83529750  1
  Fe  Fe45  1  0.83562408  0.16782982  0.50223456  1
  Fe  Fe46  1  0.67041924  1.00158550  0.66847993  1
  Fe  Fe47  1  0.83690910  0.16878999  0.83523993  1
  Ni  Ni48  1  0.83512784  0.50107830  0.50263535  1
  Fe  Fe49  1  0.66977954  0.33649398  0.66780928  1
  Fe  Fe50  1  0.83305508  0.50104597  0.83606471  1
  Ni  Ni51  1  0.83611905  0.83515798  0.50056448  1
  Fe  Fe52  1  0.66854436  0.66787719  0.66896105  1
  Fe  Fe53  1  0.83446968  0.83612503  0.83551230  1
" 