7766,Ni17Fe81Cr1_15,-230.330519286098, 171.628991132372,Ni17Fe81Cr1,"# generated using pymatgen
 data_CrFe44Ni9
_symmetry_space_group_name_H-M   'P 1'
_cell_length_a   7.40421964
_cell_length_b   7.40421964
_cell_length_c   10.47114783
_cell_angle_alpha   90.00000000
_cell_angle_beta   90.00000000
_cell_angle_gamma   90.00000000
_symmetry_Int_Tables_number   1
_chemical_formula_structural   CrFe44Ni9
_chemical_formula_sum   'Cr1 Fe44 Ni9'
_cell_volume   574.05417190
_cell_formula_units_Z   1
loop_
 _symmetry_equiv_pos_site_id
 _symmetry_equiv_pos_as_xyz
  1  'x, y, z'
loop_
 _atom_site_type_symbol
 _atom_site_label
 _atom_site_symmetry_multiplicity
 _atom_site_fract_x
 _atom_site_fract_y
 _atom_site_fract_z
 _atom_site_occupancy
  Ni  Ni0  1  0.00526894  1.00418807  0.00488499  1
  Fe  Fe1  1  0.17083618  0.17103735  0.17047817  1
  Fe  Fe2  1  1.00389718  1.00400400  0.33686651  1
  Fe  Fe3  1  0.00457381  0.33719808  0.00455900  1
  Ni  Ni4  1  0.17063893  0.50525474  0.17090487  1
  Fe  Fe5  1  1.00381482  0.33738152  0.33757162  1
  Fe  Fe6  1  0.00524560  0.67132795  0.00463392  1
  Ni  Ni7  1  0.17062261  0.83715909  0.17116827  1
  Fe  Fe8  1  1.00420475  0.67134439  0.33702818  1
  Fe  Fe9  1  0.33509325  0.00456245  1.00392555  1
  Fe  Fe10  1  0.50232378  0.17187316  0.17135905  1
  Fe  Fe11  1  0.33800598  1.00400574  0.33745991  1
  Ni  Ni12  1  0.33671598  0.33878541  1.00415614  1
  Fe  Fe13  1  0.50296997  0.50460073  0.17063524  1
  Fe  Fe14  1  0.33792811  0.33722471  0.33682149  1
  Fe  Fe15  1  0.33641731  0.67141961  1.00412027  1
  Fe  Fe16  1  0.50275810  0.83625529  0.17234994  1
  Fe  Fe17  1  0.33753451  0.67149871  0.33762082  1
  Cr  Cr18  1  0.67215706  1.00344506  1.00360801  1
  Fe  Fe19  1  0.83957048  0.17125002  0.17196095  1
  Ni  Ni20  1  0.67155215  1.00406263  0.33811321  1
  Fe  Fe21  1  0.67071161  0.33852553  1.00392983  1
  Fe  Fe22  1  0.83852873  0.50483519  0.17095167  1
  Fe  Fe23  1  0.67098464  0.33691053  0.33761554  1
  Fe  Fe24  1  0.67106399  0.66896781  1.00372601  1
  Fe  Fe25  1  0.83937373  0.83664040  0.17188402  1
  Fe  Fe26  1  0.67098699  0.67141707  0.33813457  1
  Fe  Fe27  1  0.17075551  0.17106282  0.50424543  1
  Fe  Fe28  1  0.00452249  1.00289778  0.67169704  1
  Fe  Fe29  1  0.17130696  0.17040030  0.83800660  1
  Fe  Fe30  1  0.17115059  0.50424847  0.50388422  1
  Fe  Fe31  1  1.00409152  0.33876401  0.67059763  1
  Fe  Fe32  1  0.17197407  0.50404953  0.83801277  1
  Fe  Fe33  1  0.17114808  0.83741535  0.50455986  1
  Fe  Fe34  1  0.00448410  0.67106567  0.67106795  1
  Ni  Ni35  1  0.17050530  0.83731624  0.83758378  1
  Fe  Fe36  1  0.50447793  0.17067200  0.50436597  1
  Fe  Fe37  1  0.33812211  1.00316820  0.67134018  1
  Ni  Ni38  1  0.50429347  0.17230892  0.83614728  1
  Fe  Fe39  1  0.50424055  0.50479462  0.50479396  1
  Fe  Fe40  1  0.33839793  0.33833174  0.67157975  1
  Fe  Fe41  1  0.50360073  0.50453131  0.83729795  1
  Fe  Fe42  1  0.50463171  0.83726004  0.50440289  1
  Ni  Ni43  1  0.33808377  0.67013102  0.67095028  1
  Fe  Fe44  1  0.50302480  0.83660627  0.83597591  1
  Fe  Fe45  1  0.83749655  0.17066973  0.50385401  1
  Fe  Fe46  1  0.67008322  1.00356805  0.67069793  1
  Fe  Fe47  1  0.83883483  0.17097602  0.83691359  1
  Fe  Fe48  1  0.83733708  0.50440592  0.50455912  1
  Fe  Fe49  1  0.67024029  0.33837718  0.67117845  1
  Fe  Fe50  1  0.83715084  0.50448262  0.83721737  1
  Fe  Fe51  1  0.83694924  0.83765320  0.50416723  1
  Ni  Ni52  1  0.67007224  0.67150430  0.67086336  1
  Fe  Fe53  1  0.83835141  0.83727002  0.83667829  1
" 