5247,Ni17Cr83_10,-233.083331265153, 159.109259100134,Ni17Cr83,"# generated using pymatgen
 data_CrNi5
_symmetry_space_group_name_H-M   'P 1'
_cell_length_a   7.47149325
_cell_length_b   7.47149325
_cell_length_c   10.56628708
_cell_angle_alpha   90.00000000
_cell_angle_beta   90.00000000
_cell_angle_gamma   90.00000000
_symmetry_Int_Tables_number   1
_chemical_formula_structural   CrNi5
_chemical_formula_sum   'Cr9 Ni45'
_cell_volume   589.84407676
_cell_formula_units_Z   9
loop_
 _symmetry_equiv_pos_site_id
 _symmetry_equiv_pos_as_xyz
  1  'x, y, z'
loop_
 _atom_site_type_symbol
 _atom_site_label
 _atom_site_symmetry_multiplicity
 _atom_site_fract_x
 _atom_site_fract_y
 _atom_site_fract_z
 _atom_site_occupancy
  Ni  Ni0  1  0.00091248  0.00053032  0.99781749  1
  Ni  Ni1  1  0.16743696  0.16738945  0.16561051  1
  Ni  Ni2  1  0.99885847  0.00037015  0.33559825  1
  Ni  Ni3  1  -0.00027179  0.33300991  0.99810668  1
  Cr  Cr4  1  0.16625388  0.49825780  0.16636790  1
  Ni  Ni5  1  0.00038765  0.33218476  0.33364225  1
  Ni  Ni6  1  0.99867834  0.66558505  0.99706861  1
  Cr  Cr7  1  0.16694163  0.83390924  0.16575209  1
  Ni  Ni8  1  0.99934117  0.66656222  0.33492188  1
  Ni  Ni9  1  0.33367731  0.00054735  0.99895294  1
  Ni  Ni10  1  0.49905486  0.16735315  0.16560000  1
  Cr  Cr11  1  0.33268987  0.00137385  0.33263144  1
  Ni  Ni12  1  0.33284151  0.33098731  0.00029282  1
  Ni  Ni13  1  0.50121074  0.49973915  0.16717943  1
  Ni  Ni14  1  0.33382974  0.33389364  0.33388822  1
  Ni  Ni15  1  0.33385974  0.66757024  0.99925452  1
  Ni  Ni16  1  0.50057034  0.83201235  0.16523028  1
  Ni  Ni17  1  0.33384562  0.66388058  0.33390234  1
  Ni  Ni18  1  0.66453841  0.99950503  0.99807821  1
  Cr  Cr19  1  0.83356338  0.16761230  0.16679845  1
  Ni  Ni20  1  0.66758988  0.00033812  0.33409303  1
  Ni  Ni21  1  0.66653875  0.33318698  0.00011522  1
  Ni  Ni22  1  0.83099222  0.49958501  0.16603266  1
  Ni  Ni23  1  0.66488891  0.33333824  0.33286456  1
  Ni  Ni24  1  0.66657025  0.66641377  0.00034069  1
  Cr  Cr25  1  0.83186094  0.83202124  0.16723375  1
  Ni  Ni26  1  0.66591312  0.66542949  0.33162995  1
  Ni  Ni27  1  0.16616953  0.16803838  0.49903962  1
  Cr  Cr28  1  -0.00028998  0.99950799  0.66571394  1
  Ni  Ni29  1  0.16684269  0.16703932  0.83446583  1
  Ni  Ni30  1  0.16802967  0.49974277  0.49976565  1
  Ni  Ni31  1  0.00056549  0.33406111  0.66735990  1
  Ni  Ni32  1  0.16429520  0.49991552  0.83271505  1
  Ni  Ni33  1  0.16463498  0.83132067  0.49941109  1
  Ni  Ni34  1  0.00053550  0.66554072  0.66712941  1
  Ni  Ni35  1  0.16700810  0.83215403  0.83391531  1
  Ni  Ni36  1  0.50056248  0.16870693  0.50059145  1
  Ni  Ni37  1  0.33405530  0.00055046  0.66756700  1
  Ni  Ni38  1  0.49989271  0.16429873  0.83290746  1
  Ni  Ni39  1  0.49763559  0.49801992  0.49896340  1
  Ni  Ni40  1  0.33250174  0.33230556  0.66488507  1
  Cr  Cr41  1  0.49944324  0.49964213  0.83219893  1
  Cr  Cr42  1  0.50057250  0.83216966  0.50093894  1
  Ni  Ni43  1  0.33148727  0.66624546  0.66593188  1
  Ni  Ni44  1  0.49972744  0.83486570  0.83345739  1
  Ni  Ni45  1  0.83236596  0.16528763  0.49855742  1
  Ni  Ni46  1  0.66533699  0.00053088  0.66697167  1
  Ni  Ni47  1  0.83236881  0.16701061  0.83373797  1
  Cr  Cr48  1  0.83296330  0.49949095  0.49970494  1
  Ni  Ni49  1  0.66603309  0.33149130  0.66610253  1
  Ni  Ni50  1  0.83508452  0.49974804  0.83363563  1
  Ni  Ni51  1  0.83409457  0.83422589  0.49838014  1
  Ni  Ni52  1  0.66707288  0.66708793  0.66714485  1
  Ni  Ni53  1  0.83237068  0.83234966  0.83373800  1
" 