668,Ni17Fe73Cr8_5,-228.9923712934, 167.454999324305,Ni17Fe73Cr8,"# generated using pymatgen
 data_Cr2Fe13Ni3
_symmetry_space_group_name_H-M   'P 1'
_cell_length_a   7.43579435
_cell_length_b   7.43579435
_cell_length_c   10.51580122
_cell_angle_alpha   90.00000000
_cell_angle_beta   90.00000000
_cell_angle_gamma   90.00000000
_symmetry_Int_Tables_number   1
_chemical_formula_structural   Cr2Fe13Ni3
_chemical_formula_sum   'Cr6 Fe39 Ni9'
_cell_volume   581.42956107
_cell_formula_units_Z   3
loop_
 _symmetry_equiv_pos_site_id
 _symmetry_equiv_pos_as_xyz
  1  'x, y, z'
loop_
 _atom_site_type_symbol
 _atom_site_label
 _atom_site_symmetry_multiplicity
 _atom_site_fract_x
 _atom_site_fract_y
 _atom_site_fract_z
 _atom_site_occupancy
  Fe  Fe0  1  1.00193074  0.00220277  0.00332639  1
  Fe  Fe1  1  0.16919591  0.16733328  0.16727809  1
  Fe  Fe2  1  1.00135069  1.00068366  0.33510810  1
  Fe  Fe3  1  1.00160440  0.33497131  0.00261088  1
  Fe  Fe4  1  0.16957244  0.50325976  0.16687045  1
  Cr  Cr5  1  1.00205014  0.33478683  0.33529759  1
  Fe  Fe6  1  1.00162818  0.66912707  0.00366291  1
  Ni  Ni7  1  0.16822089  0.83422011  0.16896480  1
  Fe  Fe8  1  1.00190113  0.67013831  0.33524921  1
  Fe  Fe9  1  0.33603885  0.00222356  0.00321127  1
  Ni  Ni10  1  0.50364309  0.16899289  0.16782421  1
  Fe  Fe11  1  0.33614935  1.00078758  0.33530056  1
  Fe  Fe12  1  0.33674014  0.33532657  0.00347574  1
  Ni  Ni13  1  0.50172878  0.50285776  0.16664131  1
  Cr  Cr14  1  0.33454190  0.33401308  0.33429600  1
  Ni  Ni15  1  0.33727603  0.66906189  0.00409792  1
  Fe  Fe16  1  0.50202853  0.83532794  0.16875660  1
  Fe  Fe17  1  0.33514673  0.67048261  0.33371613  1
  Fe  Fe18  1  0.66833412  0.00224723  0.00245090  1
  Ni  Ni19  1  0.83449888  0.16736645  0.16737010  1
  Fe  Fe20  1  0.66880593  1.00167925  0.33556949  1
  Fe  Fe21  1  0.66796148  0.33563067  0.00310299  1
  Fe  Fe22  1  0.83464695  0.50321322  0.16765318  1
  Cr  Cr23  1  0.66971260  0.33473600  0.33496478  1
  Fe  Fe24  1  0.66798353  0.66842793  0.00265758  1
  Fe  Fe25  1  0.83475119  0.83570279  0.16905130  1
  Ni  Ni26  1  0.66914920  0.67205917  0.33424206  1
  Fe  Fe27  1  0.16869069  0.16789801  0.50396378  1
  Fe  Fe28  1  1.00117240  0.00354457  0.66787150  1
  Fe  Fe29  1  0.16844717  0.16909258  0.83505748  1
  Fe  Fe30  1  0.16704795  0.50214537  0.50413364  1
  Ni  Ni31  1  1.00156904  0.33438374  0.66780960  1
  Cr  Cr32  1  0.16946415  0.50237166  0.83546966  1
  Fe  Fe33  1  0.16901899  0.83625721  0.50177780  1
  Fe  Fe34  1  1.00077149  0.66819341  0.66739224  1
  Cr  Cr35  1  0.16819357  0.83574865  0.83525951  1
  Ni  Ni36  1  0.50346679  0.16671055  0.50355769  1
  Fe  Fe37  1  0.33589502  0.00356445  0.66779484  1
  Fe  Fe38  1  0.50165316  0.16867826  0.83535530  1
  Cr  Cr39  1  0.50189428  0.50197292  0.50362353  1
  Fe  Fe40  1  0.33513333  0.33377732  0.66830388  1
  Fe  Fe41  1  0.50303213  0.50273114  0.83605507  1
  Fe  Fe42  1  0.50288761  0.83757565  0.50198736  1
  Fe  Fe43  1  0.33551727  0.66896084  0.66866426  1
  Fe  Fe44  1  0.50308354  0.83489503  0.83556068  1
  Ni  Ni45  1  0.83500321  0.16706710  0.50388766  1
  Fe  Fe46  1  0.66923718  0.00316517  0.66828664  1
  Fe  Fe47  1  0.83620461  0.16903336  0.83517404  1
  Fe  Fe48  1  0.83641823  0.50251565  0.50361371  1
  Fe  Fe49  1  0.67000110  0.33417910  0.66879084  1
  Fe  Fe50  1  0.83454578  0.50208752  0.83503101  1
  Fe  Fe51  1  0.83439869  0.83593685  0.50187183  1
  Fe  Fe52  1  0.67001732  0.66895585  0.66905966  1
  Fe  Fe53  1  0.83412669  0.83518160  0.83537950  1
" 