2179,Ni17Cr83_19,-233.125151580532, 157.341035446378,Ni17Cr83,"# generated using pymatgen
 data_CrNi5
_symmetry_space_group_name_H-M   'P 1'
_cell_length_a   7.47679419
_cell_length_b   7.47679419
_cell_length_c   10.57378374
_cell_angle_alpha   90.00000000
_cell_angle_beta   90.00000000
_cell_angle_gamma   90.00000000
_symmetry_Int_Tables_number   1
_chemical_formula_structural   CrNi5
_chemical_formula_sum   'Cr9 Ni45'
_cell_volume   591.10043084
_cell_formula_units_Z   9
loop_
 _symmetry_equiv_pos_site_id
 _symmetry_equiv_pos_as_xyz
  1  'x, y, z'
loop_
 _atom_site_type_symbol
 _atom_site_label
 _atom_site_symmetry_multiplicity
 _atom_site_fract_x
 _atom_site_fract_y
 _atom_site_fract_z
 _atom_site_occupancy
  Ni  Ni0  1  0.99778179  0.99855690  0.00065040  1
  Ni  Ni1  1  0.16619798  0.16441685  0.16577957  1
  Ni  Ni2  1  -0.00023526  0.99900883  0.33153817  1
  Ni  Ni3  1  0.99593822  0.33268154  0.00157499  1
  Ni  Ni4  1  0.16619798  0.50094624  0.16577957  1
  Cr  Cr5  1  0.99724541  0.33268154  0.33147736  1
  Ni  Ni6  1  0.99778179  0.66680619  0.00065040  1
  Ni  Ni7  1  0.16606212  0.83268154  0.16588821  1
  Ni  Ni8  1  -0.00023526  0.66635426  0.33153817  1
  Ni  Ni9  1  0.33431301  0.99701234  0.00033541  1
  Ni  Ni10  1  0.50069667  0.16494704  0.16718621  1
  Ni  Ni11  1  0.33350216  0.99931527  0.33237521  1
  Cr  Cr12  1  0.33754679  0.33268154  0.00311277  1
  Ni  Ni13  1  0.50069667  0.50041605  0.16718621  1
  Ni  Ni14  1  0.33443084  0.33268154  0.33254706  1
  Ni  Ni15  1  0.33431301  0.66835075  0.00033541  1
  Ni  Ni16  1  0.50001866  0.83268154  0.16646867  1
  Ni  Ni17  1  0.33350216  0.66604782  0.33237521  1
  Ni  Ni18  1  0.66589880  -0.00052275  0.99930528  1
  Ni  Ni19  1  0.83107654  0.16479490  0.16501713  1
  Ni  Ni20  1  0.66484952  0.00045700  0.33164372  1
  Ni  Ni21  1  0.66822539  0.33268154  0.00007077  1
  Ni  Ni22  1  0.83107654  0.50056819  0.16501713  1
  Ni  Ni23  1  0.66415616  0.33268154  0.33177935  1
  Ni  Ni24  1  0.66589880  0.66588584  0.99930528  1
  Ni  Ni25  1  0.83202200  0.83268154  0.16651800  1
  Ni  Ni26  1  0.66484952  0.66490609  0.33164372  1
  Ni  Ni27  1  0.16700705  0.16712434  0.49834677  1
  Cr  Cr28  1  0.99736355  -0.00026746  0.66515309  1
  Cr  Cr29  1  0.16586409  0.16652427  0.83445492  1
  Ni  Ni30  1  0.16700705  0.49823875  0.49834677  1
  Ni  Ni31  1  0.99684411  0.33268154  0.66416535  1
  Cr  Cr32  1  0.16586409  0.49883882  0.83445492  1
  Ni  Ni33  1  0.16743959  0.83268154  0.49485424  1
  Cr  Cr34  1  0.99736355  0.66563055  0.66515309  1
  Ni  Ni35  1  0.16585177  0.83268154  0.83730884  1
  Ni  Ni36  1  0.50051529  0.16672015  0.49844454  1
  Cr  Cr37  1  0.33514674  0.99897032  0.66604834  1
  Ni  Ni38  1  0.50296887  0.16609081  0.83276755  1
  Ni  Ni39  1  0.50051529  0.49864294  0.49844454  1
  Ni  Ni40  1  0.33524364  0.33268154  0.66374524  1
  Ni  Ni41  1  0.50296887  0.49927228  0.83276755  1
  Ni  Ni42  1  0.49976071  0.83268154  0.49734694  1
  Cr  Cr43  1  0.33514674  0.66639277  0.66604834  1
  Ni  Ni44  1  0.50220508  0.83268154  0.83470006  1
  Ni  Ni45  1  0.83033853  0.16741257  0.49926318  1
  Ni  Ni46  1  0.66518282  0.00016708  0.66688804  1
  Ni  Ni47  1  0.82982150  0.16659104  0.83337512  1
  Ni  Ni48  1  0.83033853  0.49795052  0.49926318  1
  Ni  Ni49  1  0.66601754  0.33268154  0.66607698  1
  Ni  Ni50  1  0.82982150  0.49877205  0.83337512  1
  Cr  Cr51  1  0.82915206  0.83268154  0.49538816  1
  Ni  Ni52  1  0.66518282  0.66519601  0.66688804  1
  Ni  Ni53  1  0.83006409  0.83268154  0.83463509  1
" 