2455,Ni17Fe73Cr8_1,-229.072071701672, 176.117143567078,Ni17Fe73Cr8,"# generated using pymatgen
 data_Cr2Fe13Ni3
_symmetry_space_group_name_H-M   'P 1'
_cell_length_a   7.42686152
_cell_length_b   7.42686152
_cell_length_c   10.50316829
_cell_angle_alpha   90.00000000
_cell_angle_beta   90.00000000
_cell_angle_gamma   90.00000000
_symmetry_Int_Tables_number   1
_chemical_formula_structural   Cr2Fe13Ni3
_chemical_formula_sum   'Cr6 Fe39 Ni9'
_cell_volume   579.33661434
_cell_formula_units_Z   3
loop_
 _symmetry_equiv_pos_site_id
 _symmetry_equiv_pos_as_xyz
  1  'x, y, z'
loop_
 _atom_site_type_symbol
 _atom_site_label
 _atom_site_symmetry_multiplicity
 _atom_site_fract_x
 _atom_site_fract_y
 _atom_site_fract_z
 _atom_site_occupancy
  Fe  Fe0  1  0.00291756  1.00256795  1.00175009  1
  Cr  Cr1  1  0.16791364  0.17023109  0.16936435  1
  Ni  Ni2  1  0.00307595  0.00311346  0.33597589  1
  Fe  Fe3  1  1.00160779  0.33530861  1.00072706  1
  Fe  Fe4  1  0.17026993  0.50384318  0.16884831  1
  Fe  Fe5  1  0.99950392  0.33670805  0.33657652  1
  Fe  Fe6  1  0.00361841  0.67006854  1.00242337  1
  Fe  Fe7  1  0.17050379  0.83548525  0.16848797  1
  Fe  Fe8  1  1.00261150  0.67160602  0.33404413  1
  Ni  Ni9  1  0.33643071  0.00319003  1.00083150  1
  Cr  Cr10  1  0.50406088  0.16841547  0.16946382  1
  Fe  Fe11  1  0.33577225  1.00165712  0.33608225  1
  Ni  Ni12  1  0.33501903  0.33834398  1.00186729  1
  Ni  Ni13  1  0.50191929  0.50344373  0.16844997  1
  Fe  Fe14  1  0.33757180  0.33746368  0.33629531  1
  Fe  Fe15  1  0.33720722  0.67038065  1.00261283  1
  Fe  Fe16  1  0.50159908  0.83541183  0.16755928  1
  Fe  Fe17  1  0.33345661  0.67019683  0.33376326  1
  Ni  Ni18  1  0.67081204  1.00085099  0.00316295  1
  Fe  Fe19  1  0.83557871  0.16946930  0.16961567  1
  Fe  Fe20  1  0.67263887  0.00365706  0.33673062  1
  Fe  Fe21  1  0.66770321  0.33525951  1.00212430  1
  Fe  Fe22  1  0.83633771  0.50063013  0.16706009  1
  Fe  Fe23  1  0.67036542  0.33394139  0.33693094  1
  Fe  Fe24  1  0.66751793  0.66906997  0.00278159  1
  Fe  Fe25  1  0.83629408  0.83728674  0.16803822  1
  Cr  Cr26  1  0.66857282  0.66712733  0.33486885  1
  Fe  Fe27  1  0.17123691  0.16963644  0.50072238  1
  Cr  Cr28  1  0.00457570  0.00457826  0.67007254  1
  Fe  Fe29  1  0.17083211  0.17121346  0.83830557  1
  Cr  Cr30  1  0.16713772  0.50571260  0.50319533  1
  Fe  Fe31  1  0.99966949  0.33702823  0.67038433  1
  Fe  Fe32  1  0.16920028  0.50254576  0.83550876  1
  Fe  Fe33  1  0.16835749  0.83970874  0.50155381  1
  Fe  Fe34  1  0.99979653  0.67029651  0.67137502  1
  Fe  Fe35  1  0.17064819  0.83536607  0.83758100  1
  Ni  Ni36  1  0.50460078  0.16824742  0.50306197  1
  Fe  Fe37  1  0.33943074  0.00379592  0.67169214  1
  Fe  Fe38  1  0.50371329  0.16820896  0.83693842  1
  Fe  Fe39  1  0.50327152  0.49867566  0.50350132  1
  Fe  Fe40  1  0.33818875  0.33436424  0.67080904  1
  Fe  Fe41  1  0.50274738  0.50247635  0.83690808  1
  Cr  Cr42  1  0.50254382  0.83645992  0.50362862  1
  Fe  Fe43  1  0.33648100  0.67071252  0.67165467  1
  Fe  Fe44  1  0.50462098  0.83691167  0.83584278  1
  Ni  Ni45  1  0.83567406  0.16930403  0.50148348  1
  Ni  Ni46  1  0.67083147  1.00129711  0.66881728  1
  Fe  Fe47  1  0.83380403  0.16891840  0.83650704  1
  Fe  Fe48  1  0.83293840  0.50133993  0.50447572  1
  Fe  Fe49  1  0.66947300  0.33340016  0.66919196  1
  Fe  Fe50  1  0.83521770  0.50296094  0.83626116  1
  Fe  Fe51  1  0.83744401  0.83624674  0.50309452  1
  Ni  Ni52  1  0.66890553  0.66686885  0.67033885  1
  Fe  Fe53  1  0.83387355  0.83509184  0.83675237  1
" 