4888,Ni17Fe81Cr1_19,-230.49451939489, 172.578679525556,Ni17Fe81Cr1,"# generated using pymatgen
 data_CrFe44Ni9
_symmetry_space_group_name_H-M   'P 1'
_cell_length_a   7.40623740
_cell_length_b   7.40623740
_cell_length_c   10.47400137
_cell_angle_alpha   90.00000000
_cell_angle_beta   90.00000000
_cell_angle_gamma   90.00000000
_symmetry_Int_Tables_number   1
_chemical_formula_structural   CrFe44Ni9
_chemical_formula_sum   'Cr1 Fe44 Ni9'
_cell_volume   574.52361412
_cell_formula_units_Z   1
loop_
 _symmetry_equiv_pos_site_id
 _symmetry_equiv_pos_as_xyz
  1  'x, y, z'
loop_
 _atom_site_type_symbol
 _atom_site_label
 _atom_site_symmetry_multiplicity
 _atom_site_fract_x
 _atom_site_fract_y
 _atom_site_fract_z
 _atom_site_occupancy
  Fe  Fe0  1  1.00361728  1.00361728  0.00410877  1
  Ni  Ni1  1  0.17086150  0.17130883  0.17065505  1
  Fe  Fe2  1  0.00435102  0.00574425  0.33779320  1
  Ni  Ni3  1  0.00418487  0.33757949  1.00388830  1
  Fe  Fe4  1  0.17054940  0.50350321  0.17048096  1
  Fe  Fe5  1  0.00431496  0.33669576  0.33726319  1
  Ni  Ni6  1  1.00362526  0.67091332  1.00381003  1
  Fe  Fe7  1  0.17061664  0.83766284  0.17063101  1
  Fe  Fe8  1  0.00410894  0.66987397  0.33700864  1
  Fe  Fe9  1  0.33671365  1.00383234  0.00433578  1
  Fe  Fe10  1  0.50358274  0.17114032  0.17120119  1
  Fe  Fe11  1  0.33745756  0.00540805  0.33735850  1
  Fe  Fe12  1  0.33673079  0.33819994  0.00470945  1
  Fe  Fe13  1  0.50383914  0.50339640  0.17113417  1
  Ni  Ni14  1  0.33823398  0.33664440  0.33834908  1
  Fe  Fe15  1  0.33701810  0.67028687  1.00404016  1
  Fe  Fe16  1  0.50376927  0.83777871  0.17053820  1
  Fe  Fe17  1  0.33806437  0.66983749  0.33758639  1
  Fe  Fe18  1  0.67198024  1.00333340  1.00370659  1
  Fe  Fe19  1  0.83781751  0.17122014  0.17132995  1
  Fe  Fe20  1  0.67051268  0.00520200  0.33776001  1
  Fe  Fe21  1  0.67170937  0.33844751  0.00430910  1
  Fe  Fe22  1  0.83792892  0.50369071  0.17023893  1
  Ni  Ni23  1  0.67000387  0.33700160  0.33702945  1
  Ni  Ni24  1  0.67134717  0.67111607  1.00346051  1
  Fe  Fe25  1  0.83792829  0.83740884  0.16976506  1
  Fe  Fe26  1  0.67014226  0.66980998  0.33696942  1
  Ni  Ni27  1  0.17043239  0.17159250  0.50452978  1
  Fe  Fe28  1  1.00366475  0.00454374  0.67040923  1
  Fe  Fe29  1  0.17020838  0.17053213  0.83763878  1
  Fe  Fe30  1  0.17049375  0.50307821  0.50405964  1
  Fe  Fe31  1  0.00586846  0.33692244  0.67083090  1
  Fe  Fe32  1  0.16983715  0.50463654  0.83778022  1
  Fe  Fe33  1  0.17028063  0.83830363  0.50417318  1
  Fe  Fe34  1  1.00373737  0.67084606  0.67148451  1
  Fe  Fe35  1  0.17016419  0.83714516  0.83750923  1
  Fe  Fe36  1  0.50335180  0.17035400  0.50289290  1
  Fe  Fe37  1  0.33742860  0.00447653  0.67062709  1
  Fe  Fe38  1  0.50373465  0.16935251  0.83823561  1
  Fe  Fe39  1  0.50327325  0.50353391  0.50281421  1
  Fe  Fe40  1  0.33552938  0.33729669  0.67014683  1
  Fe  Fe41  1  0.50395468  0.50566299  0.83836935  1
  Fe  Fe42  1  0.50406315  0.83842046  0.50420635  1
  Fe  Fe43  1  0.33772938  0.67055163  0.67068900  1
  Fe  Fe44  1  0.50478183  0.83729844  0.83756392  1
  Ni  Ni45  1  0.83895625  0.17004700  0.50309076  1
  Fe  Fe46  1  0.67122191  1.00234339  0.67083410  1
  Fe  Fe47  1  0.83837711  0.16968842  0.83787802  1
  Fe  Fe48  1  0.83855685  0.50379268  0.50301958  1
  Cr  Cr49  1  0.67107240  0.33700660  0.67094627  1
  Fe  Fe50  1  0.83851611  0.50568112  0.83902991  1
  Fe  Fe51  1  0.83797403  0.83835512  0.50469368  1
  Fe  Fe52  1  0.67084062  0.67274380  0.67154447  1
  Ni  Ni53  1  0.83662941  0.83682883  0.83722959  1
" 