199,Ni17Fe73Cr8_7,-229.040470695747, 177.147309103478,Ni17Fe73Cr8,"# generated using pymatgen
 data_Cr2Fe13Ni3
_symmetry_space_group_name_H-M   'P 1'
_cell_length_a   7.42793412
_cell_length_b   7.42793412
_cell_length_c   10.50468518
_cell_angle_alpha   90.00000000
_cell_angle_beta   90.00000000
_cell_angle_gamma   90.00000000
_symmetry_Int_Tables_number   1
_chemical_formula_structural   Cr2Fe13Ni3
_chemical_formula_sum   'Cr6 Fe39 Ni9'
_cell_volume   579.58765736
_cell_formula_units_Z   3
loop_
 _symmetry_equiv_pos_site_id
 _symmetry_equiv_pos_as_xyz
  1  'x, y, z'
loop_
 _atom_site_type_symbol
 _atom_site_label
 _atom_site_symmetry_multiplicity
 _atom_site_fract_x
 _atom_site_fract_y
 _atom_site_fract_z
 _atom_site_occupancy
  Fe  Fe0  1  1.00060211  1.00065485  1.00205016  1
  Cr  Cr1  1  0.17129777  0.17047202  0.16977836  1
  Ni  Ni2  1  1.00108069  0.00284386  0.33760718  1
  Fe  Fe3  1  1.00157848  0.33906708  0.00356114  1
  Ni  Ni4  1  0.16733759  0.50218160  0.16894848  1
  Ni  Ni5  1  1.00163869  0.33479400  0.33616066  1
  Fe  Fe6  1  1.00053244  0.66758965  1.00103506  1
  Cr  Cr7  1  0.16763687  0.83358949  0.16871882  1
  Fe  Fe8  1  1.00034465  0.66708126  0.33679935  1
  Fe  Fe9  1  0.33865134  1.00176667  1.00077394  1
  Fe  Fe10  1  0.50390751  0.16943727  0.16721166  1
  Fe  Fe11  1  0.33588622  0.00339945  0.33665999  1
  Fe  Fe12  1  0.33701462  0.33813941  1.00107001  1
  Fe  Fe13  1  0.50141262  0.50341790  0.16619961  1
  Fe  Fe14  1  0.33316434  0.33649993  0.33662778  1
  Fe  Fe15  1  0.33620313  0.66777972  1.00085239  1
  Fe  Fe16  1  0.50453163  0.83505745  0.16779578  1
  Cr  Cr17  1  0.33863216  0.66819024  0.33492883  1
  Fe  Fe18  1  0.66825314  1.00073153  1.00223224  1
  Fe  Fe19  1  0.83815651  0.16919560  0.16802430  1
  Fe  Fe20  1  0.67137638  1.00091776  0.33519804  1
  Fe  Fe21  1  0.66808575  0.33738248  0.00402981  1
  Ni  Ni22  1  0.83641893  0.50454877  0.16818148  1
  Cr  Cr23  1  0.67011823  0.33830236  0.33342682  1
  Ni  Ni24  1  0.66852875  0.66924061  1.00240629  1
  Fe  Fe25  1  0.83553495  0.83529270  0.16782924  1
  Fe  Fe26  1  0.67364685  0.67165378  0.33448449  1
  Fe  Fe27  1  0.16705036  0.17023859  0.50219732  1
  Fe  Fe28  1  0.00368657  0.99994055  0.66890914  1
  Fe  Fe29  1  0.16902348  0.16851501  0.83703725  1
  Ni  Ni30  1  0.16853391  0.50382816  0.50175903  1
  Fe  Fe31  1  0.00445175  0.33836707  0.66788732  1
  Fe  Fe32  1  0.16871094  0.50246446  0.83562101  1
  Fe  Fe33  1  0.16980744  0.83591024  0.50315094  1
  Fe  Fe34  1  0.00414517  0.66891411  0.66983289  1
  Fe  Fe35  1  0.16927992  0.83676959  0.83657827  1
  Cr  Cr36  1  0.50263459  0.16832449  0.50308357  1
  Fe  Fe37  1  0.33530486  1.00165933  0.67140714  1
  Ni  Ni38  1  0.50127318  0.17013837  0.83614677  1
  Fe  Fe39  1  0.50203922  0.50477502  0.50546281  1
  Fe  Fe40  1  0.33422377  0.33804000  0.67059312  1
  Fe  Fe41  1  0.50459251  0.50309877  0.83579560  1
  Fe  Fe42  1  0.50259300  0.83271792  0.50443376  1
  Ni  Ni43  1  0.33628183  0.66977564  0.67166913  1
  Fe  Fe44  1  0.50465685  0.83620333  0.83623199  1
  Fe  Fe45  1  0.83869937  0.16974564  0.50441491  1
  Fe  Fe46  1  0.66803810  0.99937436  0.67045307  1
  Cr  Cr47  1  0.83362761  0.16948528  0.83562398  1
  Fe  Fe48  1  0.83640625  0.50297100  0.50291785  1
  Fe  Fe49  1  0.66772711  0.33842474  0.66947932  1
  Fe  Fe50  1  0.83429263  0.50371410  0.83713682  1
  Fe  Fe51  1  0.83648856  0.83550682  0.50416987  1
  Fe  Fe52  1  0.67004871  0.66969183  0.67117100  1
  Ni  Ni53  1  0.83698458  0.83435282  0.83641890  1
" 