593,Ni17Fe81Cr1_9,-230.620447542751, 172.020918097056,Ni17Fe81Cr1,"# generated using pymatgen
 data_CrFe44Ni9
_symmetry_space_group_name_H-M   'P 1'
_cell_length_a   7.40646682
_cell_length_b   7.40646682
_cell_length_c   10.47432582
_cell_angle_alpha   90.00000000
_cell_angle_beta   90.00000000
_cell_angle_gamma   90.00000000
_symmetry_Int_Tables_number   1
_chemical_formula_structural   CrFe44Ni9
_chemical_formula_sum   'Cr1 Fe44 Ni9'
_cell_volume   574.57700629
_cell_formula_units_Z   1
loop_
 _symmetry_equiv_pos_site_id
 _symmetry_equiv_pos_as_xyz
  1  'x, y, z'
loop_
 _atom_site_type_symbol
 _atom_site_label
 _atom_site_symmetry_multiplicity
 _atom_site_fract_x
 _atom_site_fract_y
 _atom_site_fract_z
 _atom_site_occupancy
  Fe  Fe0  1  1.00403129  0.00443425  1.00357763  1
  Fe  Fe1  1  0.16992929  0.16922218  0.17076755  1
  Fe  Fe2  1  1.00402956  1.00374557  0.33760394  1
  Fe  Fe3  1  1.00260527  0.33645843  1.00365165  1
  Cr  Cr4  1  0.16996036  0.50495122  0.17109115  1
  Fe  Fe5  1  1.00260579  0.33601748  0.33769651  1
  Fe  Fe6  1  1.00286539  0.67137817  1.00403319  1
  Fe  Fe7  1  0.16963393  0.83926425  0.17119650  1
  Ni  Ni8  1  1.00331666  0.67033555  0.33806991  1
  Fe  Fe9  1  0.33730249  0.00408977  0.00477584  1
  Fe  Fe10  1  0.50492646  0.17104257  0.17183915  1
  Ni  Ni11  1  0.33843361  0.00473632  0.33727647  1
  Fe  Fe12  1  0.33838428  0.33645943  1.00296235  1
  Fe  Fe13  1  0.50708347  0.50353042  0.17042359  1
  Fe  Fe14  1  0.33864374  0.33560009  0.33872992  1
  Fe  Fe15  1  0.33846748  0.67172055  1.00231797  1
  Fe  Fe16  1  0.50496705  0.83769977  0.17111122  1
  Fe  Fe17  1  0.33834444  0.67288605  0.33894650  1
  Fe  Fe18  1  0.67093369  0.00435099  0.00426801  1
  Ni  Ni19  1  0.83663902  0.17069475  0.17114606  1
  Ni  Ni20  1  0.66989440  0.00514294  0.33658615  1
  Fe  Fe21  1  0.67127714  0.33762315  0.00464797  1
  Ni  Ni22  1  0.83631126  0.50367652  0.17065043  1
  Fe  Fe23  1  0.67101459  0.33675947  0.33704592  1
  Fe  Fe24  1  0.67093405  0.67029422  0.00430378  1
  Fe  Fe25  1  0.83766622  0.83710178  0.17119655  1
  Fe  Fe26  1  0.67105697  0.67146363  0.33695909  1
  Fe  Fe27  1  0.17135969  0.17043657  0.50413491  1
  Ni  Ni28  1  1.00274226  0.00462359  0.67037873  1
  Fe  Fe29  1  0.17041116  0.17061328  0.83736485  1
  Fe  Fe30  1  0.17140298  0.50404647  0.50392965  1
  Fe  Fe31  1  1.00408815  0.33690255  0.67092209  1
  Fe  Fe32  1  0.17118126  0.50435056  0.83740531  1
  Fe  Fe33  1  0.17131891  0.83778290  0.50405442  1
  Fe  Fe34  1  1.00405033  0.67184268  0.67019090  1
  Fe  Fe35  1  0.17075512  0.83730366  0.83701665  1
  Ni  Ni36  1  0.50415844  0.16978205  0.50463642  1
  Fe  Fe37  1  0.33760077  1.00381952  0.67001638  1
  Fe  Fe38  1  0.50435314  0.17057422  0.83668123  1
  Fe  Fe39  1  0.50362602  0.50374404  0.50456413  1
  Fe  Fe40  1  0.33768348  0.33664005  0.67057810  1
  Fe  Fe41  1  0.50362589  0.50443309  0.83728112  1
  Fe  Fe42  1  0.50409787  0.83847349  0.50409578  1
  Ni  Ni43  1  0.33712380  0.66947810  0.67077252  1
  Fe  Fe44  1  0.50409167  0.83726077  0.83706149  1
  Fe  Fe45  1  0.83654881  0.16996721  0.50403916  1
  Ni  Ni46  1  0.67159909  0.00502974  0.67139399  1
  Fe  Fe47  1  0.83750383  0.17014961  0.83746156  1
  Fe  Fe48  1  0.83723946  0.50378622  0.50314612  1
  Fe  Fe49  1  0.67049708  0.33672397  0.67057768  1
  Fe  Fe50  1  0.83746165  0.50409054  0.83818985  1
  Fe  Fe51  1  0.83685157  0.83851673  0.50425680  1
  Fe  Fe52  1  0.67079331  0.67176231  0.67100550  1
  Fe  Fe53  1  0.83742136  0.83803157  0.83681467  1
" 