7945,Ni17Fe73Cr8_10,-229.223119121199, 176.321122308628,Ni17Fe73Cr8,"# generated using pymatgen
 data_Cr2Fe13Ni3
_symmetry_space_group_name_H-M   'P 1'
_cell_length_a   7.43173844
_cell_length_b   7.43173844
_cell_length_c   10.51006530
_cell_angle_alpha   90.00000000
_cell_angle_beta   90.00000000
_cell_angle_gamma   90.00000000
_symmetry_Int_Tables_number   1
_chemical_formula_structural   Cr2Fe13Ni3
_chemical_formula_sum   'Cr6 Fe39 Ni9'
_cell_volume   580.47864471
_cell_formula_units_Z   3
loop_
 _symmetry_equiv_pos_site_id
 _symmetry_equiv_pos_as_xyz
  1  'x, y, z'
loop_
 _atom_site_type_symbol
 _atom_site_label
 _atom_site_symmetry_multiplicity
 _atom_site_fract_x
 _atom_site_fract_y
 _atom_site_fract_z
 _atom_site_occupancy
  Fe  Fe0  1  1.00195800  0.00239190  1.00211666  1
  Fe  Fe1  1  0.16912768  0.16953729  0.16966180  1
  Fe  Fe2  1  0.00244005  0.00352631  0.33610791  1
  Ni  Ni3  1  1.00213497  0.33486793  0.00305249  1
  Fe  Fe4  1  0.16875401  0.50227667  0.16848125  1
  Fe  Fe5  1  0.00310974  0.33483505  0.33477232  1
  Ni  Ni6  1  1.00195382  0.66967461  0.00339200  1
  Fe  Fe7  1  0.16871851  0.83531130  0.16863376  1
  Fe  Fe8  1  0.00446176  0.66876386  0.33439983  1
  Fe  Fe9  1  0.33514773  1.00226336  1.00194538  1
  Fe  Fe10  1  0.50241833  0.16956691  0.16926478  1
  Fe  Fe11  1  0.33567417  0.00242316  0.33564809  1
  Fe  Fe12  1  0.33580051  0.33545771  0.00280329  1
  Fe  Fe13  1  0.50092476  0.50038038  0.16970781  1
  Ni  Ni14  1  0.33495586  0.33537028  0.33565539  1
  Fe  Fe15  1  0.33392918  0.66940738  0.00315628  1
  Fe  Fe16  1  0.50093112  0.83717956  0.16956105  1
  Fe  Fe17  1  0.33518984  0.66832803  0.33595810  1
  Fe  Fe18  1  0.67002067  0.00425871  1.00178708  1
  Fe  Fe19  1  0.83557844  0.16953219  0.16858659  1
  Fe  Fe20  1  0.66901048  0.00377187  0.33520534  1
  Fe  Fe21  1  0.67020076  0.33428851  1.00234687  1
  Fe  Fe22  1  0.83744789  0.50078714  0.16894397  1
  Ni  Ni23  1  0.66825503  0.33475945  0.33395582  1
  Cr  Cr24  1  0.67023889  0.66865123  1.00178035  1
  Fe  Fe25  1  0.83747737  0.83680815  0.16880281  1
  Cr  Cr26  1  0.66856846  0.66950907  0.33527994  1
  Ni  Ni27  1  0.16738738  0.17028375  0.50197029  1
  Fe  Fe28  1  1.00142232  0.00343450  0.66890035  1
  Fe  Fe29  1  0.16839289  0.16886168  0.83585746  1
  Fe  Fe30  1  0.17174032  0.50170807  0.50263048  1
  Fe  Fe31  1  0.00309926  0.33350200  0.66952938  1
  Cr  Cr32  1  0.16829705  0.50314742  0.83573802  1
  Fe  Fe33  1  0.16871899  0.83546450  0.50165059  1
  Fe  Fe34  1  0.00302904  0.67019310  0.66954777  1
  Fe  Fe35  1  0.16799062  0.83707784  0.83684556  1
  Cr  Cr36  1  0.50296352  0.16900647  0.50060197  1
  Cr  Cr37  1  0.33421555  0.00364951  0.66984939  1
  Ni  Ni38  1  0.50444135  0.16913484  0.83747072  1
  Fe  Fe39  1  0.49939798  0.50238777  0.50281836  1
  Ni  Ni40  1  0.33562534  0.33636173  0.66894182  1
  Fe  Fe41  1  0.50333139  0.50027539  0.83459259  1
  Ni  Ni42  1  0.50214573  0.83464124  0.50194221  1
  Fe  Fe43  1  0.33682505  0.66809601  0.66801251  1
  Fe  Fe44  1  0.50273762  0.83662019  0.83518777  1
  Fe  Fe45  1  0.83695134  0.16721089  0.50255373  1
  Fe  Fe46  1  0.67046783  1.00225454  0.67012933  1
  Ni  Ni47  1  0.83421010  0.16884254  0.83533053  1
  Cr  Cr48  1  0.83711841  0.50111514  0.50342076  1
  Fe  Fe49  1  0.66837730  0.33510680  0.67066480  1
  Fe  Fe50  1  0.83502481  0.50067571  0.83537870  1
  Fe  Fe51  1  0.83626950  0.83854145  0.50312387  1
  Fe  Fe52  1  0.66727305  0.66976189  0.66938550  1
  Fe  Fe53  1  0.83639879  0.83699756  0.83519914  1
" 