5623,Ni17Fe81Cr1_5,-230.727863854488, 173.224849018604,Ni17Fe81Cr1,"# generated using pymatgen
 data_CrFe44Ni9
_symmetry_space_group_name_H-M   'P 1'
_cell_length_a   7.40687073
_cell_length_b   7.40687073
_cell_length_c   10.47489704
_cell_angle_alpha   90.00000000
_cell_angle_beta   90.00000000
_cell_angle_gamma   90.00000000
_symmetry_Int_Tables_number   1
_chemical_formula_structural   CrFe44Ni9
_chemical_formula_sum   'Cr1 Fe44 Ni9'
_cell_volume   574.67101467
_cell_formula_units_Z   1
loop_
 _symmetry_equiv_pos_site_id
 _symmetry_equiv_pos_as_xyz
  1  'x, y, z'
loop_
 _atom_site_type_symbol
 _atom_site_label
 _atom_site_symmetry_multiplicity
 _atom_site_fract_x
 _atom_site_fract_y
 _atom_site_fract_z
 _atom_site_occupancy
  Fe  Fe0  1  0.00451216  1.00320547  1.00358156  1
  Fe  Fe1  1  0.17091525  0.17045501  0.17036852  1
  Fe  Fe2  1  1.00351618  0.00419297  0.33777951  1
  Fe  Fe3  1  0.00454568  0.33775217  0.00438530  1
  Fe  Fe4  1  0.17068424  0.50527681  0.17072964  1
  Fe  Fe5  1  1.00324695  0.33762025  0.33724678  1
  Ni  Ni6  1  1.00400042  0.67026366  0.00434916  1
  Fe  Fe7  1  0.17104648  0.83645484  0.17045426  1
  Fe  Fe8  1  1.00315936  0.67037325  0.33687881  1
  Ni  Ni9  1  0.33822895  0.00437989  0.00409962  1
  Fe  Fe10  1  0.50500776  0.17049969  0.17032776  1
  Fe  Fe11  1  0.33880150  1.00383212  0.33653371  1
  Fe  Fe12  1  0.33691558  0.33698842  1.00344333  1
  Fe  Fe13  1  0.50461244  0.50460937  0.17145199  1
  Fe  Fe14  1  0.33844463  0.33735471  0.33765211  1
  Fe  Fe15  1  0.33699848  0.67154856  0.00496790  1
  Ni  Ni16  1  0.50358644  0.83806768  0.17065182  1
  Ni  Ni17  1  0.33582554  0.67084189  0.33745688  1
  Fe  Fe18  1  0.67040326  1.00312720  0.00420226  1
  Fe  Fe19  1  0.83626741  0.17086167  0.17161964  1
  Ni  Ni20  1  0.67060260  0.00592193  0.33713705  1
  Fe  Fe21  1  0.67072476  0.33747880  0.00456208  1
  Ni  Ni22  1  0.83816386  0.50400555  0.17114687  1
  Ni  Ni23  1  0.67104388  0.33585031  0.33754541  1
  Fe  Fe24  1  0.67117218  0.67158141  0.00413015  1
  Fe  Fe25  1  0.83693257  0.83685153  0.17005956  1
  Fe  Fe26  1  0.67012949  0.67073158  0.33697200  1
  Fe  Fe27  1  0.17051896  0.17072709  0.50427335  1
  Fe  Fe28  1  1.00378997  0.00578000  0.67082847  1
  Fe  Fe29  1  0.17100997  0.16987037  0.83754508  1
  Fe  Fe30  1  0.17208386  0.50342200  0.50296314  1
  Fe  Fe31  1  0.00423330  0.33540572  0.67055639  1
  Fe  Fe32  1  0.17145274  0.50334266  0.83849416  1
  Fe  Fe33  1  0.17199805  0.83803728  0.50287715  1
  Cr  Cr34  1  0.00440373  0.67072737  0.67053113  1
  Fe  Fe35  1  0.17168090  0.83897173  0.83885414  1
  Fe  Fe36  1  0.50469464  0.17081365  0.50427584  1
  Fe  Fe37  1  0.33733045  0.00425239  0.67167452  1
  Ni  Ni38  1  0.50307568  0.17076721  0.83728706  1
  Fe  Fe39  1  0.50389183  0.50410114  0.50372354  1
  Fe  Fe40  1  0.33732827  0.33737615  0.67109072  1
  Fe  Fe41  1  0.50464640  0.50396666  0.83701207  1
  Fe  Fe42  1  0.50389081  0.83727249  0.50287923  1
  Fe  Fe43  1  0.33938943  0.67055895  0.66979773  1
  Fe  Fe44  1  0.50433052  0.83826521  0.83812994  1
  Fe  Fe45  1  0.83697513  0.17072833  0.50346857  1
  Fe  Fe46  1  0.67106361  1.00372351  0.67069181  1
  Fe  Fe47  1  0.83679374  0.17018658  0.83709860  1
  Fe  Fe48  1  0.83621065  0.50262136  0.50229307  1
  Fe  Fe49  1  0.67062275  0.33746204  0.67041885  1
  Fe  Fe50  1  0.83608828  0.50329553  0.83925221  1
  Fe  Fe51  1  0.83629496  0.83883922  0.50372118  1
  Fe  Fe52  1  0.66909754  0.67100186  0.67108788  1
  Ni  Ni53  1  0.83697640  0.83771741  0.83880111  1
" 