2900,Ni17Fe81Cr1_16,-230.645017264125, 171.177503018555,Ni17Fe81Cr1,"# generated using pymatgen
 data_CrFe44Ni9
_symmetry_space_group_name_H-M   'P 1'
_cell_length_a   7.41015676
_cell_length_b   7.41015676
_cell_length_c   10.47954419
_cell_angle_alpha   90.00000000
_cell_angle_beta   90.00000000
_cell_angle_gamma   90.00000000
_symmetry_Int_Tables_number   1
_chemical_formula_structural   CrFe44Ni9
_chemical_formula_sum   'Cr1 Fe44 Ni9'
_cell_volume   575.43620645
_cell_formula_units_Z   1
loop_
 _symmetry_equiv_pos_site_id
 _symmetry_equiv_pos_as_xyz
  1  'x, y, z'
loop_
 _atom_site_type_symbol
 _atom_site_label
 _atom_site_symmetry_multiplicity
 _atom_site_fract_x
 _atom_site_fract_y
 _atom_site_fract_z
 _atom_site_occupancy
  Fe  Fe0  1  0.00425941  1.00228917  0.00402715  1
  Fe  Fe1  1  0.16759746  0.16996634  0.17080684  1
  Fe  Fe2  1  1.00352694  1.00319915  0.33731773  1
  Ni  Ni3  1  1.00247416  0.33660181  0.00480203  1
  Fe  Fe4  1  0.17028406  0.50409863  0.16888346  1
  Fe  Fe5  1  0.00422997  0.33747518  0.33749396  1
  Ni  Ni6  1  0.00492192  0.66937511  0.00450888  1
  Fe  Fe7  1  0.17103966  0.83747236  0.17027607  1
  Fe  Fe8  1  0.00410534  0.67040286  0.33611523  1
  Fe  Fe9  1  0.33433962  1.00365894  1.00146044  1
  Cr  Cr10  1  0.50215461  0.17209719  0.16906333  1
  Fe  Fe11  1  0.33633999  1.00321340  0.33924561  1
  Fe  Fe12  1  0.33393982  0.34049063  1.00188577  1
  Fe  Fe13  1  0.50448800  0.50674448  0.17056721  1
  Fe  Fe14  1  0.33579779  0.33858387  0.33890085  1
  Ni  Ni15  1  0.33794332  0.67221957  0.00429149  1
  Fe  Fe16  1  0.50470490  0.83669101  0.17025422  1
  Fe  Fe17  1  0.33684269  0.67010914  0.33649434  1
  Fe  Fe18  1  0.67277180  1.00180938  1.00276061  1
  Fe  Fe19  1  0.83774470  0.16974587  0.17041648  1
  Fe  Fe20  1  0.67163636  1.00277392  0.33726118  1
  Fe  Fe21  1  0.67095187  0.33986767  1.00173346  1
  Fe  Fe22  1  0.83697631  0.50330079  0.17052561  1
  Fe  Fe23  1  0.67100008  0.33795881  0.33900224  1
  Fe  Fe24  1  0.67223003  0.67002287  0.00390418  1
  Ni  Ni25  1  0.83816851  0.83613103  0.17040596  1
  Fe  Fe26  1  0.67105324  0.67085403  0.33741754  1
  Fe  Fe27  1  0.17057239  0.17033648  0.50493069  1
  Fe  Fe28  1  0.00424099  0.00576014  0.67034162  1
  Fe  Fe29  1  0.16952157  0.17186638  0.83580407  1
  Fe  Fe30  1  0.17024784  0.50402792  0.50540888  1
  Ni  Ni31  1  1.00321612  0.33798063  0.66955748  1
  Ni  Ni32  1  0.17007774  0.50354422  0.83656084  1
  Fe  Fe33  1  0.17046216  0.83646656  0.50459772  1
  Fe  Fe34  1  0.00452681  0.66987654  0.67142536  1
  Fe  Fe35  1  0.17054994  0.83570295  0.83695118  1
  Fe  Fe36  1  0.50377212  0.17038689  0.50454188  1
  Ni  Ni37  1  0.33757082  1.00208534  0.67051541  1
  Fe  Fe38  1  0.50277602  0.17140711  0.83673517  1
  Fe  Fe39  1  0.50374878  0.50360461  0.50449534  1
  Ni  Ni40  1  0.33733883  0.33551084  0.67039675  1
  Fe  Fe41  1  0.50296190  0.50391230  0.83666147  1
  Fe  Fe42  1  0.50360701  0.83667753  0.50453290  1
  Fe  Fe43  1  0.33709814  0.66776113  0.67156598  1
  Fe  Fe44  1  0.50289607  0.83615229  0.83694491  1
  Fe  Fe45  1  0.83729910  0.17108515  0.50425872  1
  Fe  Fe46  1  0.67055577  0.00592690  0.67122334  1
  Fe  Fe47  1  0.83850150  0.17242685  0.83684465  1
  Fe  Fe48  1  0.83755299  0.50425338  0.50441616  1
  Ni  Ni49  1  0.67107801  0.33774383  0.67040318  1
  Fe  Fe50  1  0.83906518  0.50340404  0.83669141  1
  Fe  Fe51  1  0.83770982  0.83676032  0.50338583  1
  Fe  Fe52  1  0.67005195  0.66978273  0.67040108  1
  Fe  Fe53  1  0.83876809  0.83569396  0.83787635  1
" 