8055,Ni17Cr83_5,-233.009706375375, 158.258638924795,Ni17Cr83,"# generated using pymatgen
 data_CrNi5
_symmetry_space_group_name_H-M   'P 1'
_cell_length_a   7.47360924
_cell_length_b   7.47360924
_cell_length_c   10.56927955
_cell_angle_alpha   90.00000000
_cell_angle_beta   90.00000000
_cell_angle_gamma   90.00000000
_symmetry_Int_Tables_number   1
_chemical_formula_structural   CrNi5
_chemical_formula_sum   'Cr9 Ni45'
_cell_volume   590.34536579
_cell_formula_units_Z   9
loop_
 _symmetry_equiv_pos_site_id
 _symmetry_equiv_pos_as_xyz
  1  'x, y, z'
loop_
 _atom_site_type_symbol
 _atom_site_label
 _atom_site_symmetry_multiplicity
 _atom_site_fract_x
 _atom_site_fract_y
 _atom_site_fract_z
 _atom_site_occupancy
  Ni  Ni0  1  0.00093642  0.00059682  0.99857883  1
  Ni  Ni1  1  0.16442072  0.16474880  0.16630694  1
  Ni  Ni2  1  -0.00004359  0.00149155  0.33284528  1
  Ni  Ni3  1  0.99918716  0.33054504  0.00004044  1
  Cr  Cr4  1  0.16391951  0.49949048  0.16625969  1
  Ni  Ni5  1  0.99842137  0.33172105  0.33348427  1
  Ni  Ni6  1  0.99855104  0.66753980  0.99854790  1
  Ni  Ni7  1  0.16727272  0.83439918  0.16559764  1
  Ni  Ni8  1  0.99869129  0.66549127  0.33376601  1
  Ni  Ni9  1  0.33056632  0.99928071  -0.00007839  1
  Cr  Cr10  1  0.49963807  0.16363693  0.16707028  1
  Ni  Ni11  1  0.33140070  0.99815759  0.33152217  1
  Ni  Ni12  1  0.33099665  0.33056488  0.99725167  1
  Cr  Cr13  1  0.50024017  0.50159476  0.16664529  1
  Ni  Ni14  1  0.33072678  0.33285678  0.33498289  1
  Ni  Ni15  1  0.33299016  0.66882400  -0.00019748  1
  Ni  Ni16  1  0.49830047  0.83320130  0.16675876  1
  Ni  Ni17  1  0.33389437  0.66763980  0.33373159  1
  Ni  Ni18  1  0.66724514  0.99873207  0.99876754  1
  Ni  Ni19  1  0.83564689  0.16652897  0.16738906  1
  Ni  Ni20  1  0.66739418  0.99830739  0.33376111  1
  Cr  Cr21  1  0.66857546  0.33300585  0.99737981  1
  Ni  Ni22  1  0.83422492  0.49896066  0.16693844  1
  Ni  Ni23  1  0.66957219  0.33426415  0.33386803  1
  Ni  Ni24  1  0.66711363  0.66692621  0.99870395  1
  Cr  Cr25  1  0.83276010  0.83286408  0.16605638  1
  Ni  Ni26  1  0.66609894  0.66605385  0.33458909  1
  Ni  Ni27  1  0.16443686  0.16819964  0.49941884  1
  Ni  Ni28  1  0.99875614  0.00072939  0.66736889  1
  Ni  Ni29  1  0.16596221  0.16496156  0.83295213  1
  Ni  Ni30  1  0.16584394  0.49790655  0.49941443  1
  Ni  Ni31  1  0.99834456  0.33173812  0.66511593  1
  Cr  Cr32  1  0.16570579  0.50014227  0.83261099  1
  Cr  Cr33  1  0.16507728  0.83297092  0.50042292  1
  Ni  Ni34  1  0.99741237  0.66628954  0.66642070  1
  Ni  Ni35  1  0.16408245  0.83451244  0.83342702  1
  Cr  Cr36  1  0.50015510  0.16560128  0.50000661  1
  Ni  Ni37  1  0.33152376  0.00036329  0.66735854  1
  Ni  Ni38  1  0.49886059  0.16675095  0.83208480  1
  Ni  Ni39  1  0.49959487  0.50072250  0.49988868  1
  Ni  Ni40  1  0.33285421  0.33285851  0.66641740  1
  Ni  Ni41  1  0.50013337  0.49872234  0.83183094  1
  Ni  Ni42  1  0.50158533  0.83145224  0.49866372  1
  Ni  Ni43  1  0.33405160  0.66549673  0.66502097  1
  Cr  Cr44  1  0.50018927  0.83344536  0.83277375  1
  Ni  Ni45  1  0.83438575  0.16603310  0.49920284  1
  Ni  Ni46  1  0.66837758  0.99950902  0.66619733  1
  Ni  Ni47  1  0.83379432  0.16500817  0.83211297  1
  Ni  Ni48  1  0.83325669  0.49959028  0.49917036  1
  Ni  Ni49  1  0.66746121  0.33416804  0.66733474  1
  Ni  Ni50  1  0.83264294  0.50059876  0.83258692  1
  Ni  Ni51  1  0.83123218  0.83305697  0.50011666  1
  Ni  Ni52  1  0.66719069  0.66496233  0.66528632  1
  Ni  Ni53  1  0.83464186  0.83308043  0.83252215  1
" 