5355,Ni17Fe73Cr8_2,-229.834458438297, 175.033731893138,Ni17Fe73Cr8,"# generated using pymatgen
 data_Cr2Fe13Ni3
_symmetry_space_group_name_H-M   'P 1'
_cell_length_a   7.43623649
_cell_length_b   7.43623649
_cell_length_c   10.51642650
_cell_angle_alpha   90.00000000
_cell_angle_beta   90.00000000
_cell_angle_gamma   90.00000000
_symmetry_Int_Tables_number   1
_chemical_formula_structural   Cr2Fe13Ni3
_chemical_formula_sum   'Cr6 Fe39 Ni9'
_cell_volume   581.53328465
_cell_formula_units_Z   3
loop_
 _symmetry_equiv_pos_site_id
 _symmetry_equiv_pos_as_xyz
  1  'x, y, z'
loop_
 _atom_site_type_symbol
 _atom_site_label
 _atom_site_symmetry_multiplicity
 _atom_site_fract_x
 _atom_site_fract_y
 _atom_site_fract_z
 _atom_site_occupancy
  Fe  Fe0  1  1.00008583  0.00493720  0.00305499  1
  Fe  Fe1  1  0.16858778  0.16835390  0.16873936  1
  Fe  Fe2  1  1.00131934  0.00236476  0.33562992  1
  Ni  Ni3  1  0.00264194  0.33496156  0.00246154  1
  Fe  Fe4  1  0.16796681  0.50142222  0.16914368  1
  Fe  Fe5  1  1.00136250  0.33484699  0.33407721  1
  Fe  Fe6  1  1.00143097  0.66755736  0.00335853  1
  Fe  Fe7  1  0.16795802  0.83618481  0.16908783  1
  Fe  Fe8  1  1.00163018  0.66953871  0.33625433  1
  Fe  Fe9  1  0.33538718  0.00460414  0.00470818  1
  Fe  Fe10  1  0.50344468  0.16712697  0.16951148  1
  Fe  Fe11  1  0.33666195  1.00063763  0.33479963  1
  Fe  Fe12  1  0.33425641  0.33428341  0.00360502  1
  Fe  Fe13  1  0.50271877  0.50132267  0.16902658  1
  Fe  Fe14  1  0.33644095  0.33515163  0.33536715  1
  Fe  Fe15  1  0.33428973  0.66711408  0.00597994  1
  Ni  Ni16  1  0.50036370  0.83468542  0.16926472  1
  Ni  Ni17  1  0.33458735  0.66722301  0.33484094  1
  Fe  Fe18  1  0.67066260  0.00408600  0.00398624  1
  Ni  Ni19  1  0.83706588  0.17047285  0.16988132  1
  Ni  Ni20  1  0.66992861  0.00344053  0.33423882  1
  Fe  Fe21  1  0.67074382  0.33291050  0.00402335  1
  Fe  Fe22  1  0.83551249  0.50184526  0.16810161  1
  Fe  Fe23  1  0.66872708  0.33522478  0.33510574  1
  Fe  Fe24  1  0.67029470  0.66896059  0.00501310  1
  Fe  Fe25  1  0.83399725  0.83714056  0.16952516  1
  Fe  Fe26  1  0.66724722  0.66991207  0.33458898  1
  Fe  Fe27  1  0.16856098  0.16955488  0.50059753  1
  Cr  Cr28  1  0.99911537  0.00280297  0.66923433  1
  Fe  Fe29  1  0.16933917  0.17159643  0.83662260  1
  Fe  Fe30  1  0.16645062  0.50022197  0.49993870  1
  Fe  Fe31  1  0.00248637  0.33461278  0.66771040  1
  Fe  Fe32  1  0.16769659  0.49915293  0.83630215  1
  Fe  Fe33  1  0.16732837  0.83578840  0.50039707  1
  Ni  Ni34  1  0.00269916  0.66745199  0.66805271  1
  Cr  Cr35  1  0.16908961  0.83561959  0.83751059  1
  Fe  Fe36  1  0.50399141  0.16783619  0.50161687  1
  Fe  Fe37  1  0.33545008  0.00411992  0.66668274  1
  Fe  Fe38  1  0.50329905  0.16906623  0.83529298  1
  Fe  Fe39  1  0.50350757  0.50038236  0.50048574  1
  Fe  Fe40  1  0.33421480  0.33193216  0.66750697  1
  Cr  Cr41  1  0.50258265  0.50176176  0.83640340  1
  Fe  Fe42  1  0.50417533  0.83776955  0.49988376  1
  Cr  Cr43  1  0.33405100  0.66623878  0.66663328  1
  Cr  Cr44  1  0.50196939  0.83590767  0.83538219  1
  Ni  Ni45  1  0.83574747  0.17031566  0.50059764  1
  Ni  Ni46  1  0.66875057  0.00493217  0.66915968  1
  Ni  Ni47  1  0.83557960  0.16996559  0.83633887  1
  Fe  Fe48  1  0.83594911  0.50170186  0.50223118  1
  Fe  Fe49  1  0.66987897  0.33315527  0.66670417  1
  Cr  Cr50  1  0.83523943  0.50036679  0.83399479  1
  Fe  Fe51  1  0.83383199  0.83649419  0.50133123  1
  Fe  Fe52  1  0.67150273  0.67114318  0.66582834  1
  Fe  Fe53  1  0.83406999  0.83567023  0.83605585  1
" 