8127,Ni17Fe73Cr8_15,-228.781735307031, 174.666131030095,Ni17Fe73Cr8,"# generated using pymatgen
 data_Cr2Fe13Ni3
_symmetry_space_group_name_H-M   'P 1'
_cell_length_a   7.42635193
_cell_length_b   7.42635193
_cell_length_c   10.50244762
_cell_angle_alpha   90.00000000
_cell_angle_beta   90.00000000
_cell_angle_gamma   90.00000000
_symmetry_Int_Tables_number   1
_chemical_formula_structural   Cr2Fe13Ni3
_chemical_formula_sum   'Cr6 Fe39 Ni9'
_cell_volume   579.21736925
_cell_formula_units_Z   3
loop_
 _symmetry_equiv_pos_site_id
 _symmetry_equiv_pos_as_xyz
  1  'x, y, z'
loop_
 _atom_site_type_symbol
 _atom_site_label
 _atom_site_symmetry_multiplicity
 _atom_site_fract_x
 _atom_site_fract_y
 _atom_site_fract_z
 _atom_site_occupancy
  Fe  Fe0  1  0.00569679  1.00187790  0.00293537  1
  Fe  Fe1  1  0.16805598  0.17124105  0.16856665  1
  Fe  Fe2  1  1.00187412  1.00248985  0.33517836  1
  Fe  Fe3  1  0.00356565  0.33684775  0.00448808  1
  Fe  Fe4  1  0.16881708  0.50213646  0.17009722  1
  Ni  Ni5  1  0.00285905  0.33796027  0.33522348  1
  Fe  Fe6  1  0.00282073  0.66948988  1.00251079  1
  Fe  Fe7  1  0.16815731  0.83484447  0.16806048  1
  Fe  Fe8  1  0.00299610  0.66853388  0.33603190  1
  Fe  Fe9  1  0.33333676  1.00230207  0.00305859  1
  Fe  Fe10  1  0.50304082  0.17166555  0.16892859  1
  Cr  Cr11  1  0.33602151  0.00301727  0.33516966  1
  Ni  Ni12  1  0.33466676  0.33665611  0.00339260  1
  Fe  Fe13  1  0.50307875  0.50251382  0.16844582  1
  Fe  Fe14  1  0.33528051  0.33789444  0.33587211  1
  Fe  Fe15  1  0.33623799  0.66904815  1.00233140  1
  Fe  Fe16  1  0.50332043  0.83403685  0.16965716  1
  Fe  Fe17  1  0.33520756  0.66710266  0.33634504  1
  Cr  Cr18  1  0.66894949  1.00036999  0.00306064  1
  Fe  Fe19  1  0.83711643  0.17099393  0.17060829  1
  Fe  Fe20  1  0.67071107  1.00255982  0.33501978  1
  Fe  Fe21  1  0.66873016  0.33973585  0.00419265  1
  Ni  Ni22  1  0.83575733  0.50185392  0.16949273  1
  Fe  Fe23  1  0.66927803  0.33677139  0.33512321  1
  Fe  Fe24  1  0.66916164  0.66691294  1.00192608  1
  Fe  Fe25  1  0.83674364  0.83479829  0.16970283  1
  Fe  Fe26  1  0.67002121  0.66888271  0.33628958  1
  Fe  Fe27  1  0.17020025  0.17084183  0.50353846  1
  Fe  Fe28  1  0.00407794  1.00024710  0.67009804  1
  Fe  Fe29  1  0.16992100  0.16879685  0.83611557  1
  Ni  Ni30  1  0.17062134  0.50318113  0.50213707  1
  Fe  Fe31  1  0.00614255  0.33785340  0.66835493  1
  Fe  Fe32  1  0.16968719  0.50302367  0.83585657  1
  Fe  Fe33  1  0.16881061  0.83529314  0.50425768  1
  Fe  Fe34  1  0.00274686  0.67011213  0.66967239  1
  Ni  Ni35  1  0.16882521  0.83570349  0.83622847  1
  Fe  Fe36  1  0.50029588  0.16952230  0.50317796  1
  Ni  Ni37  1  0.33460452  1.00211558  0.67003948  1
  Cr  Cr38  1  0.50070411  0.17046915  0.83530954  1
  Fe  Fe39  1  0.50185377  0.50364694  0.50280524  1
  Fe  Fe40  1  0.33432676  0.33733186  0.66910494  1
  Ni  Ni41  1  0.50134652  0.50473419  0.83744416  1
  Fe  Fe42  1  0.50323540  0.83506163  0.50392310  1
  Fe  Fe43  1  0.33658000  0.66949106  0.66954597  1
  Fe  Fe44  1  0.50223542  0.83335276  0.83464155  1
  Cr  Cr45  1  0.83598703  0.16775494  0.50163852  1
  Fe  Fe46  1  0.66837376  0.99801685  0.66892290  1
  Cr  Cr47  1  0.83798593  0.16864593  0.83652765  1
  Fe  Fe48  1  0.83749668  0.50503285  0.50130078  1
  Cr  Cr49  1  0.66939432  0.33995099  0.66969797  1
  Fe  Fe50  1  0.83629089  0.50630341  0.83714078  1
  Fe  Fe51  1  0.83617471  0.83373076  0.50356452  1
  Ni  Ni52  1  0.67047739  0.67088508  0.67055252  1
  Ni  Ni53  1  0.83805849  0.83432106  0.83465150  1
" 