878,Ni17Cr83_7,-233.192105565761, 159.994765101355,Ni17Cr83,"# generated using pymatgen
 data_CrNi5
_symmetry_space_group_name_H-M   'P 1'
_cell_length_a   7.47408823
_cell_length_b   7.47408823
_cell_length_c   10.56995694
_cell_angle_alpha   90.00000000
_cell_angle_beta   90.00000000
_cell_angle_gamma   90.00000000
_symmetry_Int_Tables_number   1
_chemical_formula_structural   CrNi5
_chemical_formula_sum   'Cr9 Ni45'
_cell_volume   590.45888049
_cell_formula_units_Z   9
loop_
 _symmetry_equiv_pos_site_id
 _symmetry_equiv_pos_as_xyz
  1  'x, y, z'
loop_
 _atom_site_type_symbol
 _atom_site_label
 _atom_site_symmetry_multiplicity
 _atom_site_fract_x
 _atom_site_fract_y
 _atom_site_fract_z
 _atom_site_occupancy
  Ni  Ni0  1  0.00024278  0.00052891  0.00052930  1
  Ni  Ni1  1  0.16514502  0.16698535  0.16576725  1
  Ni  Ni2  1  0.99885378  0.00032726  0.33032092  1
  Ni  Ni3  1  0.00006069  0.33155423  -0.00004187  1
  Ni  Ni4  1  0.16514616  0.49898542  0.16721602  1
  Ni  Ni5  1  0.99945130  0.33282785  0.33182180  1
  Ni  Ni6  1  0.99946996  0.66650376  0.00106101  1
  Ni  Ni7  1  0.16386688  0.83261605  0.16629547  1
  Ni  Ni8  1  0.99852684  0.66543227  0.33053316  1
  Ni  Ni9  1  0.33261678  0.00111899  0.99889404  1
  Ni  Ni10  1  0.50044880  0.16698459  0.16540798  1
  Cr  Cr11  1  0.33325158  0.00015491  0.33270967  1
  Ni  Ni12  1  0.33279632  0.33096067  0.99946340  1
  Ni  Ni13  1  0.50026785  0.49880565  0.16742565  1
  Ni  Ni14  1  0.33340754  0.33378208  0.33231917  1
  Cr  Cr15  1  0.33305053  0.66624565  0.99947787  1
  Ni  Ni16  1  0.50154810  0.83279618  0.16650568  1
  Ni  Ni17  1  0.33451405  0.66466115  0.33160221  1
  Ni  Ni18  1  0.66572717  0.00052848  0.00013981  1
  Ni  Ni19  1  0.83299292  0.16570589  0.16618398  1
  Ni  Ni20  1  0.66650067  0.99922016  0.33157235  1
  Ni  Ni21  1  0.66572982  0.33173423  0.00013803  1
  Ni  Ni22  1  0.83317299  0.50008367  0.16665118  1
  Ni  Ni23  1  0.66572894  0.33410749  0.33249754  1
  Ni  Ni24  1  0.66632097  0.66632461  0.00124109  1
  Ni  Ni25  1  0.83317230  0.83279744  0.16650735  1
  Ni  Ni26  1  0.66554699  0.66525938  0.33256188  1
  Ni  Ni27  1  0.16806084  0.16806606  0.49965597  1
  Cr  Cr28  1  0.00129640  0.00143573  0.66749764  1
  Ni  Ni29  1  0.16727759  0.16699062  0.83316365  1
  Cr  Cr30  1  0.16609424  0.49799084  0.49958118  1
  Ni  Ni31  1  0.00027207  0.33386238  0.66680699  1
  Ni  Ni32  1  0.16695025  0.49877696  0.83152957  1
  Cr  Cr33  1  0.16747715  0.83269784  0.49957585  1
  Ni  Ni34  1  0.00045050  0.66354167  0.66699299  1
  Ni  Ni35  1  0.16787898  0.83281899  0.83245548  1
  Ni  Ni36  1  0.49881294  0.16695017  0.50076097  1
  Ni  Ni37  1  0.33532829  -0.00009992  0.66695288  1
  Ni  Ni38  1  0.49917645  0.16588547  0.83241861  1
  Ni  Ni39  1  0.50129041  0.49945023  0.49959531  1
  Ni  Ni40  1  0.33361567  0.33215111  0.66680396  1
  Ni  Ni41  1  0.49821791  0.49859693  0.83156619  1
  Ni  Ni42  1  0.50069725  0.83218648  0.50094091  1
  Ni  Ni43  1  0.33472159  0.66653618  0.66776604  1
  Ni  Ni44  1  0.49839415  0.83410426  0.83114092  1
  Cr  Cr45  1  0.83205098  0.16817285  0.49890408  1
  Ni  Ni46  1  0.66170402  0.00007833  0.66687491  1
  Ni  Ni47  1  0.83213212  0.16681416  0.83348786  1
  Ni  Ni48  1  0.83112311  0.49962696  0.49987736  1
  Ni  Ni49  1  0.66469947  0.33325316  0.66595216  1
  Cr  Cr50  1  0.83314757  0.49823586  0.83233802  1
  Cr  Cr51  1  0.83067235  0.83062701  0.49869116  1
  Ni  Ni52  1  0.66341536  0.66525575  0.66478564  1
  Cr  Cr53  1  0.83205049  0.83352750  0.83364763  1
" 