5275,Ni17Fe81Cr1_12,-230.473250880125, 173.818764134279,Ni17Fe81Cr1,"# generated using pymatgen
 data_CrFe44Ni9
_symmetry_space_group_name_H-M   'P 1'
_cell_length_a   7.40439913
_cell_length_b   7.40439913
_cell_length_c   10.47140168
_cell_angle_alpha   90.00000000
_cell_angle_beta   90.00000000
_cell_angle_gamma   90.00000000
_symmetry_Int_Tables_number   1
_chemical_formula_structural   CrFe44Ni9
_chemical_formula_sum   'Cr1 Fe44 Ni9'
_cell_volume   574.09592185
_cell_formula_units_Z   1
loop_
 _symmetry_equiv_pos_site_id
 _symmetry_equiv_pos_as_xyz
  1  'x, y, z'
loop_
 _atom_site_type_symbol
 _atom_site_label
 _atom_site_symmetry_multiplicity
 _atom_site_fract_x
 _atom_site_fract_y
 _atom_site_fract_z
 _atom_site_occupancy
  Ni  Ni0  1  0.00514720  1.00419464  0.00462780  1
  Fe  Fe1  1  0.17067206  0.17058381  0.17156805  1
  Fe  Fe2  1  1.00350169  0.00492330  0.33767113  1
  Fe  Fe3  1  0.00440429  0.33719141  1.00411685  1
  Fe  Fe4  1  0.17101887  0.50277589  0.17021577  1
  Fe  Fe5  1  0.00513831  0.33657965  0.33749929  1
  Fe  Fe6  1  0.00514308  0.67160712  1.00372418  1
  Fe  Fe7  1  0.17072586  0.83916755  0.16996904  1
  Fe  Fe8  1  1.00340165  0.67111681  0.33726649  1
  Fe  Fe9  1  0.33690186  1.00392408  1.00389543  1
  Ni  Ni10  1  0.50417539  0.17014837  0.17090628  1
  Fe  Fe11  1  0.33861754  0.00494139  0.33766366  1
  Fe  Fe12  1  0.33656671  0.33684497  1.00397393  1
  Fe  Fe13  1  0.50386797  0.50399497  0.16951657  1
  Fe  Fe14  1  0.33628451  0.33631955  0.33744754  1
  Fe  Fe15  1  0.33586819  0.67179663  1.00361850  1
  Fe  Fe16  1  0.50518993  0.83870733  0.17128866  1
  Fe  Fe17  1  0.33829932  0.67131781  0.33725573  1
  Fe  Fe18  1  0.67153858  0.00467664  0.00540840  1
  Ni  Ni19  1  0.83757477  0.17039863  0.17128830  1
  Ni  Ni20  1  0.67127604  1.00389759  0.33814499  1
  Fe  Fe21  1  0.67165950  0.33613806  0.00503536  1
  Fe  Fe22  1  0.83775317  0.50399759  0.16989940  1
  Cr  Cr23  1  0.67038360  0.33713204  0.33846289  1
  Fe  Fe24  1  0.67168656  0.67172150  1.00313413  1
  Fe  Fe25  1  0.83697868  0.83915128  0.17094613  1
  Fe  Fe26  1  0.67099794  0.67292775  0.33880366  1
  Ni  Ni27  1  0.17098335  0.17096669  0.50392947  1
  Ni  Ni28  1  0.00543005  0.00467181  0.67071458  1
  Fe  Fe29  1  0.17018233  0.17028637  0.83653075  1
  Fe  Fe30  1  0.17100622  0.50371237  0.50464438  1
  Fe  Fe31  1  1.00407640  0.33771061  0.67067385  1
  Ni  Ni32  1  0.17054553  0.50480413  0.83673796  1
  Fe  Fe33  1  0.17060647  0.83860300  0.50498426  1
  Fe  Fe34  1  1.00367626  0.67176566  0.67120852  1
  Ni  Ni35  1  0.17060864  0.83724685  0.83684029  1
  Fe  Fe36  1  0.50254645  0.16927952  0.50435567  1
  Fe  Fe37  1  0.33735493  1.00354758  0.67079856  1
  Fe  Fe38  1  0.50280333  0.17094834  0.83846938  1
  Fe  Fe39  1  0.50224533  0.50478460  0.50575488  1
  Fe  Fe40  1  0.33691133  0.33731409  0.67083274  1
  Fe  Fe41  1  0.50313055  0.50510815  0.83724683  1
  Fe  Fe42  1  0.50400956  0.83812794  0.50428326  1
  Fe  Fe43  1  0.33673187  0.67184043  0.67131648  1
  Fe  Fe44  1  0.50364357  0.83643017  0.83704846  1
  Fe  Fe45  1  0.83948806  0.16902666  0.50449925  1
  Fe  Fe46  1  0.67164459  1.00337411  0.67025058  1
  Fe  Fe47  1  0.83987409  0.16995381  0.83845615  1
  Fe  Fe48  1  0.83918961  0.50490786  0.50554966  1
  Fe  Fe49  1  0.67170602  0.33675295  0.67079158  1
  Fe  Fe50  1  0.83819481  0.50524773  0.83709031  1
  Fe  Fe51  1  0.83809637  0.83846694  0.50488979  1
  Ni  Ni52  1  0.66989635  0.66993698  0.67031536  1
  Fe  Fe53  1  0.83909112  0.83745476  0.83688529  1
" 