8387,Ni17Cr83_9,-233.134728577457, 157.932015597222,Ni17Cr83,"# generated using pymatgen
 data_CrNi5
_symmetry_space_group_name_H-M   'P 1'
_cell_length_a   7.47204981
_cell_length_b   7.47204981
_cell_length_c   10.56707418
_cell_angle_alpha   90.00000000
_cell_angle_beta   90.00000000
_cell_angle_gamma   90.00000000
_symmetry_Int_Tables_number   1
_chemical_formula_structural   CrNi5
_chemical_formula_sum   'Cr9 Ni45'
_cell_volume   589.97590247
_cell_formula_units_Z   9
loop_
 _symmetry_equiv_pos_site_id
 _symmetry_equiv_pos_as_xyz
  1  'x, y, z'
loop_
 _atom_site_type_symbol
 _atom_site_label
 _atom_site_symmetry_multiplicity
 _atom_site_fract_x
 _atom_site_fract_y
 _atom_site_fract_z
 _atom_site_occupancy
  Ni  Ni0  1  0.00048668  0.99922514  0.99880006  1
  Ni  Ni1  1  0.16997500  0.16478099  0.16469446  1
  Cr  Cr2  1  0.00050303  0.99763358  0.33379863  1
  Ni  Ni3  1  0.00050332  0.33204824  0.99857329  1
  Cr  Cr4  1  0.16571304  0.49984326  0.16493136  1
  Cr  Cr5  1  0.00051067  0.33341912  0.33380911  1
  Ni  Ni6  1  0.99964996  0.66772542  0.00031686  1
  Ni  Ni7  1  0.16625587  0.83445520  0.16488018  1
  Ni  Ni8  1  0.99779630  0.66793080  0.33278706  1
  Ni  Ni9  1  0.33196850  0.99890510  0.00115696  1
  Ni  Ni10  1  0.49801627  0.16646389  0.16689903  1
  Ni  Ni11  1  0.33460921  0.00138647  0.33256260  1
  Ni  Ni12  1  0.33196118  0.33238321  0.00094208  1
  Ni  Ni13  1  0.50236935  0.49860052  0.16567770  1
  Ni  Ni14  1  0.33561445  0.33070085  0.33378513  1
  Ni  Ni15  1  0.33313230  0.66770171  0.99919024  1
  Ni  Ni16  1  0.50053364  0.83392974  0.16532051  1
  Cr  Cr17  1  0.33376791  0.66693892  0.33401311  1
  Ni  Ni18  1  0.66654992  0.99806569  0.99955451  1
  Cr  Cr19  1  0.83141818  0.16651699  0.16471886  1
  Ni  Ni20  1  0.66408580  0.99885165  0.33400670  1
  Ni  Ni21  1  0.66653748  0.33319513  0.00178200  1
  Ni  Ni22  1  0.83049485  0.50229347  0.16570373  1
  Ni  Ni23  1  0.66307498  0.33320912  0.33278847  1
  Ni  Ni24  1  0.66620287  0.66773281  0.00176671  1
  Ni  Ni25  1  0.83220110  0.83007465  0.16587921  1
  Ni  Ni26  1  0.66709546  0.66693282  0.33178515  1
  Ni  Ni27  1  0.16828707  0.16645375  0.50092166  1
  Ni  Ni28  1  0.99931159  0.00002796  0.66641053  1
  Ni  Ni29  1  0.16447373  0.16629702  0.83338727  1
  Ni  Ni30  1  0.16778502  0.49959711  0.50160380  1
  Ni  Ni31  1  0.00130562  0.33124232  0.66663202  1
  Ni  Ni32  1  0.16593391  0.49976557  0.83269042  1
  Ni  Ni33  1  0.16625532  0.83294558  0.50089803  1
  Ni  Ni34  1  0.00144830  0.66772878  0.66588494  1
  Ni  Ni35  1  0.16611068  0.83293463  0.83321690  1
  Ni  Ni36  1  0.49951646  0.16646285  0.49888018  1
  Ni  Ni37  1  0.33215639  0.99871625  0.66527472  1
  Cr  Cr38  1  0.49985556  0.16472773  0.83320910  1
  Ni  Ni39  1  0.49885080  0.49843386  0.50026708  1
  Ni  Ni40  1  0.33115213  0.33354915  0.66426511  1
  Cr  Cr41  1  0.49823986  0.50106507  0.83280460  1
  Ni  Ni42  1  0.50035721  0.83409384  0.50062202  1
  Ni  Ni43  1  0.33233247  0.66672944  0.66580196  1
  Ni  Ni44  1  0.49956680  0.83311550  0.83304721  1
  Ni  Ni45  1  0.83119551  0.16495880  0.50182876  1
  Ni  Ni46  1  0.66752944  0.99885515  0.66544395  1
  Ni  Ni47  1  0.83481769  0.16477199  0.83269148  1
  Cr  Cr48  1  0.83259464  0.50068424  0.49965452  1
  Ni  Ni49  1  0.66653552  0.33140598  0.66441802  1
  Cr  Cr50  1  0.83438326  0.49947429  0.83340176  1
  Ni  Ni51  1  0.83237099  0.83362059  0.50006581  1
  Ni  Ni52  1  0.66521528  0.66872942  0.66542820  1
  Ni  Ni53  1  0.83331611  0.83459333  0.83305093  1
" 