8294,Ni17Cr83_0,-233.018941048988, 156.248166889683,Ni17Cr83,"# generated using pymatgen
 data_CrNi5
_symmetry_space_group_name_H-M   'P 1'
_cell_length_a   7.47483421
_cell_length_b   7.47483421
_cell_length_c   10.57101192
_cell_angle_alpha   90.00000000
_cell_angle_beta   90.00000000
_cell_angle_gamma   90.00000000
_symmetry_Int_Tables_number   1
_chemical_formula_structural   CrNi5
_chemical_formula_sum   'Cr9 Ni45'
_cell_volume   590.63569786
_cell_formula_units_Z   9
loop_
 _symmetry_equiv_pos_site_id
 _symmetry_equiv_pos_as_xyz
  1  'x, y, z'
loop_
 _atom_site_type_symbol
 _atom_site_label
 _atom_site_symmetry_multiplicity
 _atom_site_fract_x
 _atom_site_fract_y
 _atom_site_fract_z
 _atom_site_occupancy
  Ni  Ni0  1  0.99835133  0.00013722  0.99840734  1
  Ni  Ni1  1  0.16480993  0.16688114  0.16588553  1
  Ni  Ni2  1  0.99924013  0.00308523  0.33102887  1
  Ni  Ni3  1  0.00079886  0.33234296  0.00063453  1
  Ni  Ni4  1  0.16619597  0.49782641  0.16409015  1
  Ni  Ni5  1  0.99880855  0.33200634  0.33234795  1
  Ni  Ni6  1  0.99940055  0.66596907  0.99927903  1
  Cr  Cr7  1  0.16756569  0.83417089  0.16599244  1
  Cr  Cr8  1  0.99827308  0.66298984  0.33203415  1
  Ni  Ni9  1  0.33399556  0.00065212  0.99861622  1
  Ni  Ni10  1  0.50074954  0.16551697  0.16520083  1
  Ni  Ni11  1  0.33513380  -0.00014752  0.33327542  1
  Ni  Ni12  1  0.33163923  0.33186098  0.00024370  1
  Ni  Ni13  1  0.50078934  0.50049063  0.16545149  1
  Cr  Cr14  1  0.33276612  0.33240988  0.33270491  1
  Ni  Ni15  1  0.33249859  0.66588545  -0.00048452  1
  Ni  Ni16  1  0.50113850  0.83242957  0.16683473  1
  Ni  Ni17  1  0.33653730  0.66612856  0.33325064  1
  Ni  Ni18  1  0.66608439  0.99928948  0.99929057  1
  Ni  Ni19  1  0.83286868  0.16652699  0.16639508  1
  Ni  Ni20  1  0.66408147  0.99914644  0.33096865  1
  Ni  Ni21  1  0.66599641  0.33073418  0.00162398  1
  Ni  Ni22  1  0.83148131  0.49813271  0.16589647  1
  Ni  Ni23  1  0.66703198  0.33354299  0.33216672  1
  Ni  Ni24  1  0.66653342  0.66837524  0.00162984  1
  Ni  Ni25  1  0.83023152  0.83380747  0.16522237  1
  Ni  Ni26  1  0.66378509  0.66572882  0.33234700  1
  Ni  Ni27  1  0.16686985  0.16715025  0.50020187  1
  Ni  Ni28  1  0.00029510  0.00224888  0.66894621  1
  Ni  Ni29  1  0.16577659  0.16551343  0.83233158  1
  Ni  Ni30  1  0.16750305  0.49686333  0.50066925  1
  Ni  Ni31  1  0.00162802  0.33126567  0.66545339  1
  Ni  Ni32  1  0.16706821  0.49881081  0.83367384  1
  Cr  Cr33  1  0.16975874  0.83556309  0.49864943  1
  Cr  Cr34  1  -0.00006800  0.66538577  0.66736623  1
  Ni  Ni35  1  0.16707669  0.83413227  0.83349864  1
  Ni  Ni36  1  0.49861207  0.16566731  0.50061488  1
  Ni  Ni37  1  0.33415027  0.00078386  0.66652258  1
  Ni  Ni38  1  0.49950138  0.16416694  0.83259060  1
  Ni  Ni39  1  0.50046811  0.50058161  0.50040272  1
  Ni  Ni40  1  0.33183233  0.33163666  0.66521948  1
  Cr  Cr41  1  0.49805588  0.49901858  0.83317286  1
  Ni  Ni42  1  0.49896442  0.83215261  0.49928344  1
  Ni  Ni43  1  0.33452820  0.66598984  0.66570000  1
  Ni  Ni44  1  0.49906935  0.83448402  0.83233287  1
  Cr  Cr45  1  0.83321548  0.16774776  0.49950681  1
  Ni  Ni46  1  0.66398771  0.99940981  0.66815359  1
  Ni  Ni47  1  0.83316868  0.16401272  0.83253806  1
  Ni  Ni48  1  0.83049105  0.49719005  0.49927966  1
  Ni  Ni49  1  0.66496620  0.33155092  0.66470197  1
  Cr  Cr50  1  0.83241126  0.49764940  0.83332620  1
  Cr  Cr51  1  0.82986008  0.83366288  0.49918368  1
  Ni  Ni52  1  0.66362473  0.66740983  0.66449071  1
  Ni  Ni53  1  0.83227207  0.83590549  0.83372924  1
" 