3060,Ni17Fe73Cr8_18,-228.732479717906, 172.611612466755,Ni17Fe73Cr8,"# generated using pymatgen
 data_Cr2Fe13Ni3
_symmetry_space_group_name_H-M   'P 1'
_cell_length_a   7.42649804
_cell_length_b   7.42649804
_cell_length_c   10.50265424
_cell_angle_alpha   90.00000000
_cell_angle_beta   90.00000000
_cell_angle_gamma   90.00000000
_symmetry_Int_Tables_number   1
_chemical_formula_structural   Cr2Fe13Ni3
_chemical_formula_sum   'Cr6 Fe39 Ni9'
_cell_volume   579.25155665
_cell_formula_units_Z   3
loop_
 _symmetry_equiv_pos_site_id
 _symmetry_equiv_pos_as_xyz
  1  'x, y, z'
loop_
 _atom_site_type_symbol
 _atom_site_label
 _atom_site_symmetry_multiplicity
 _atom_site_fract_x
 _atom_site_fract_y
 _atom_site_fract_z
 _atom_site_occupancy
  Fe  Fe0  1  0.00286355  0.00668451  1.00187381  1
  Fe  Fe1  1  0.16980918  0.17161244  0.16966885  1
  Fe  Fe2  1  0.99959125  0.00332138  0.33609465  1
  Ni  Ni3  1  1.00249913  0.33646061  1.00223901  1
  Fe  Fe4  1  0.16996353  0.50000090  0.16914204  1
  Fe  Fe5  1  0.00310654  0.33720005  0.33394895  1
  Fe  Fe6  1  0.00305398  0.66691791  1.00200366  1
  Cr  Cr7  1  0.16772621  0.83622505  0.16964495  1
  Fe  Fe8  1  1.00103359  0.66781869  0.33755427  1
  Fe  Fe9  1  0.33704182  0.00495522  1.00195477  1
  Ni  Ni10  1  0.50270221  0.17056638  0.16891034  1
  Fe  Fe11  1  0.33947256  0.00355588  0.33526466  1
  Fe  Fe12  1  0.33566797  0.33462902  0.00315657  1
  Fe  Fe13  1  0.50182476  0.50297286  0.16768115  1
  Fe  Fe14  1  0.33574598  0.33680551  0.33548346  1
  Fe  Fe15  1  0.33548250  0.66875144  1.00204064  1
  Fe  Fe16  1  0.50424659  0.83717281  0.16830331  1
  Fe  Fe17  1  0.33781817  0.66811797  0.33693848  1
  Fe  Fe18  1  0.66840071  0.00595043  1.00243139  1
  Fe  Fe19  1  0.83680956  0.16844619  0.16694959  1
  Fe  Fe20  1  0.66869772  1.00111370  0.33628679  1
  Ni  Ni21  1  0.67022041  0.33434835  1.00272316  1
  Fe  Fe22  1  0.83637147  0.50268900  0.16795121  1
  Cr  Cr23  1  0.66884293  0.33426260  0.33614097  1
  Fe  Fe24  1  0.66947315  0.66822087  0.00461546  1
  Fe  Fe25  1  0.83317526  0.83691477  0.16922303  1
  Fe  Fe26  1  0.66921381  0.67078033  0.33612166  1
  Cr  Cr27  1  0.16894566  0.16948194  0.50225581  1
  Fe  Fe28  1  1.00189600  0.00550444  0.67024329  1
  Fe  Fe29  1  0.16982782  0.16914739  0.83574755  1
  Fe  Fe30  1  0.17105966  0.50291097  0.50211198  1
  Fe  Fe31  1  1.00153203  0.33476511  0.67116462  1
  Fe  Fe32  1  0.16918486  0.50181431  0.83710683  1
  Fe  Fe33  1  0.17052861  0.83542709  0.50167415  1
  Cr  Cr34  1  0.00489680  0.66980766  0.67057113  1
  Ni  Ni35  1  0.17091925  0.83730003  0.83572359  1
  Fe  Fe36  1  0.50290121  0.16875910  0.50345767  1
  Fe  Fe37  1  0.33767971  1.00263416  0.67062573  1
  Fe  Fe38  1  0.50438649  0.16679668  0.83620765  1
  Fe  Fe39  1  0.50143357  0.50224439  0.50470512  1
  Ni  Ni40  1  0.33658508  0.33539580  0.66985645  1
  Cr  Cr41  1  0.50473713  0.50113732  0.83595727  1
  Fe  Fe42  1  0.50257009  0.83687089  0.50360139  1
  Fe  Fe43  1  0.33869357  0.67024679  0.66901963  1
  Ni  Ni44  1  0.50152170  0.83552932  0.83673457  1
  Fe  Fe45  1  0.83481373  0.16834938  0.50488342  1
  Ni  Ni46  1  0.66768978  0.00365293  0.66904819  1
  Ni  Ni47  1  0.83647528  0.17127369  0.83506724  1
  Fe  Fe48  1  0.83610327  0.50180532  0.50324151  1
  Ni  Ni49  1  0.66895149  0.33359864  0.66917427  1
  Fe  Fe50  1  0.83627075  0.50094490  0.83707842  1
  Fe  Fe51  1  0.83527085  0.83782979  0.50255748  1
  Fe  Fe52  1  0.66760086  0.66972603  0.66765628  1
  Cr  Cr53  1  0.83409348  0.83797430  0.83760519  1
" 