4840,Ni17Cr83_18,-233.220223133996, 158.202622662094,Ni17Cr83,"# generated using pymatgen
 data_CrNi5
_symmetry_space_group_name_H-M   'P 1'
_cell_length_a   7.47299368
_cell_length_b   7.47299368
_cell_length_c   10.56840902
_cell_angle_alpha   90.00000000
_cell_angle_beta   90.00000000
_cell_angle_gamma   90.00000000
_symmetry_Int_Tables_number   1
_chemical_formula_structural   CrNi5
_chemical_formula_sum   'Cr9 Ni45'
_cell_volume   590.19950785
_cell_formula_units_Z   9
loop_
 _symmetry_equiv_pos_site_id
 _symmetry_equiv_pos_as_xyz
  1  'x, y, z'
loop_
 _atom_site_type_symbol
 _atom_site_label
 _atom_site_symmetry_multiplicity
 _atom_site_fract_x
 _atom_site_fract_y
 _atom_site_fract_z
 _atom_site_occupancy
  Ni  Ni0  1  0.99926581  -0.00022412  0.00018050  1
  Ni  Ni1  1  0.16548423  0.16332984  0.16573669  1
  Ni  Ni2  1  0.00028267  0.99697158  0.33248849  1
  Ni  Ni3  1  0.99787943  0.33337621  -0.00022330  1
  Ni  Ni4  1  0.16353633  0.50195224  0.16569882  1
  Cr  Cr5  1  0.99840709  0.33291181  0.33091344  1
  Ni  Ni6  1  0.99945432  0.66565452  -0.00000669  1
  Ni  Ni7  1  0.16644164  0.83352567  0.16710193  1
  Ni  Ni8  1  0.00080901  0.66874558  0.33198231  1
  Ni  Ni9  1  0.33363119  0.99801511  0.00018067  1
  Ni  Ni10  1  0.50030986  0.16404227  0.16555387  1
  Ni  Ni11  1  0.33143341  0.99600918  0.33064594  1
  Cr  Cr12  1  0.33072367  0.33135224  -0.00032228  1
  Cr  Cr13  1  0.50206206  0.50109145  0.16702259  1
  Cr  Cr14  1  0.33347354  0.33404501  0.33225980  1
  Ni  Ni15  1  0.33115937  0.66969857  -0.00000860  1
  Ni  Ni16  1  0.49820726  0.83395994  0.16551989  1
  Ni  Ni17  1  0.33204852  0.66856484  0.33433204  1
  Ni  Ni18  1  0.66590951  0.99958886  0.99958959  1
  Ni  Ni19  1  0.83301277  0.16694731  0.16519269  1
  Cr  Cr20  1  0.66735075  0.99881817  0.33247906  1
  Ni  Ni21  1  0.66995261  0.33090446  0.00036644  1
  Ni  Ni22  1  0.83344731  0.49984778  0.16536848  1
  Ni  Ni23  1  0.66690997  0.33370322  0.33204702  1
  Ni  Ni24  1  0.66819181  0.66831280  -0.00000878  1
  Ni  Ni25  1  0.83415707  0.83201131  0.16596200  1
  Ni  Ni26  1  0.66594888  0.66636529  0.33312427  1
  Cr  Cr27  1  0.16445327  0.16388091  0.50114416  1
  Ni  Ni28  1  0.99833740  0.99935548  0.66613707  1
  Ni  Ni29  1  0.16548709  0.16536648  0.83194248  1
  Ni  Ni30  1  0.16853403  0.50344529  0.50138308  1
  Ni  Ni31  1  0.00003946  0.33287211  0.66812382  1
  Ni  Ni32  1  0.16354311  0.50016908  0.83172480  1
  Ni  Ni33  1  0.16640334  0.83114217  0.49883701  1
  Ni  Ni34  1  0.00080955  0.66657887  0.66683073  1
  Ni  Ni35  1  0.16644160  0.83327190  0.83286759  1
  Cr  Cr36  1  0.50103848  0.16701714  0.50113899  1
  Ni  Ni37  1  0.33337734  0.99839777  0.66797857  1
  Ni  Ni38  1  0.50030311  0.16379902  0.83212928  1
  Ni  Ni39  1  0.49899075  0.50230033  0.49998218  1
  Ni  Ni40  1  0.33186316  0.33401731  0.66658407  1
  Cr  Cr41  1  0.50092739  0.50044211  0.83177537  1
  Ni  Ni42  1  0.49846110  0.82962753  0.50023241  1
  Ni  Ni43  1  0.33205024  0.66639137  0.66448319  1
  Ni  Ni44  1  0.49934717  0.83484106  0.83305477  1
  Ni  Ni45  1  0.83279655  0.16474853  0.50112235  1
  Ni  Ni46  1  0.66709083  0.99916923  0.66698202  1
  Ni  Ni47  1  0.83301689  0.16669685  0.83249276  1
  Cr  Cr48  1  0.83131748  0.50019474  0.50000540  1
  Ni  Ni49  1  0.66690435  0.33154411  0.66639289  1
  Ni  Ni50  1  0.83458607  0.49921254  0.83345850  1
  Ni  Ni51  1  0.83394244  0.83352372  0.50023263  1
  Ni  Ni52  1  0.66594681  0.66809309  0.66569087  1
  Ni  Ni53  1  0.83301769  0.83289692  0.83261295  1
" 