4807,Ni17Fe81Cr1_6,-230.637543165201, 174.575418911776,Ni17Fe81Cr1,"# generated using pymatgen
 data_CrFe44Ni9
_symmetry_space_group_name_H-M   'P 1'
_cell_length_a   7.40638610
_cell_length_b   7.40638610
_cell_length_c   10.47421167
_cell_angle_alpha   90.00000000
_cell_angle_beta   90.00000000
_cell_angle_gamma   90.00000000
_symmetry_Int_Tables_number   1
_chemical_formula_structural   CrFe44Ni9
_chemical_formula_sum   'Cr1 Fe44 Ni9'
_cell_volume   574.55822032
_cell_formula_units_Z   1
loop_
 _symmetry_equiv_pos_site_id
 _symmetry_equiv_pos_as_xyz
  1  'x, y, z'
loop_
 _atom_site_type_symbol
 _atom_site_label
 _atom_site_symmetry_multiplicity
 _atom_site_fract_x
 _atom_site_fract_y
 _atom_site_fract_z
 _atom_site_occupancy
  Fe  Fe0  1  1.00400687  1.00399583  0.00532253  1
  Fe  Fe1  1  0.17083087  0.16979319  0.17135403  1
  Ni  Ni2  1  0.00451823  1.00364710  0.33685193  1
  Ni  Ni3  1  1.00361966  0.33736652  0.00458320  1
  Fe  Fe4  1  0.16953741  0.50524992  0.16952747  1
  Fe  Fe5  1  0.00472254  0.33639007  0.33646667  1
  Ni  Ni6  1  1.00390626  0.67030994  1.00279349  1
  Ni  Ni7  1  0.16993048  0.83678811  0.17084549  1
  Ni  Ni8  1  1.00378355  0.67002362  0.33823880  1
  Fe  Fe9  1  0.33614899  0.00442104  0.00486907  1
  Fe  Fe10  1  0.50289228  0.16958375  0.17009011  1
  Ni  Ni11  1  0.33841516  0.00463016  0.33817900  1
  Fe  Fe12  1  0.33631439  0.33801437  1.00319057  1
  Fe  Fe13  1  0.50340719  0.50490451  0.17200703  1
  Fe  Fe14  1  0.33629649  0.33729706  0.33780303  1
  Fe  Fe15  1  0.33571241  0.66999323  1.00367677  1
  Fe  Fe16  1  0.50288915  0.83785944  0.17085415  1
  Fe  Fe17  1  0.33597514  0.67190718  0.33792752  1
  Fe  Fe18  1  0.67222215  0.00465939  1.00343533  1
  Fe  Fe19  1  0.83865739  0.17018118  0.17074508  1
  Fe  Fe20  1  0.67202571  1.00367920  0.33719044  1
  Fe  Fe21  1  0.67153690  0.33754425  0.00424130  1
  Fe  Fe22  1  0.83914236  0.50543732  0.17061660  1
  Fe  Fe23  1  0.67134637  0.33662126  0.33739332  1
  Fe  Fe24  1  0.67195451  0.67002126  0.00426547  1
  Fe  Fe25  1  0.83896678  0.83644356  0.17093272  1
  Fe  Fe26  1  0.67094041  0.67186057  0.33783006  1
  Fe  Fe27  1  0.17114732  0.17102002  0.50339367  1
  Fe  Fe28  1  0.00444492  1.00362189  0.66949742  1
  Fe  Fe29  1  0.17115198  0.17179567  0.83775110  1
  Fe  Fe30  1  0.16992463  0.50286845  0.50402668  1
  Fe  Fe31  1  0.00478537  0.33796028  0.67194089  1
  Ni  Ni32  1  0.16948951  0.50427450  0.83795927  1
  Fe  Fe33  1  0.17023298  0.83802875  0.50161917  1
  Fe  Fe34  1  1.00250877  0.67066684  0.67127686  1
  Fe  Fe35  1  0.17025477  0.83891962  0.83941089  1
  Fe  Fe36  1  0.50405370  0.17107241  0.50465519  1
  Fe  Fe37  1  0.33750622  0.00620288  0.67024115  1
  Ni  Ni38  1  0.50474909  0.17055254  0.83725445  1
  Ni  Ni39  1  0.50466374  0.50316262  0.50333113  1
  Fe  Fe40  1  0.33752284  0.33618569  0.67116026  1
  Fe  Fe41  1  0.50445153  0.50227173  0.83757399  1
  Fe  Fe42  1  0.50527093  0.83790313  0.50299922  1
  Cr  Cr43  1  0.33720762  0.67122292  0.67068364  1
  Fe  Fe44  1  0.50442669  0.83847471  0.83880363  1
  Fe  Fe45  1  0.83732912  0.17121118  0.50381981  1
  Fe  Fe46  1  0.67046251  1.00384037  0.67143497  1
  Fe  Fe47  1  0.83810421  0.17176452  0.83758668  1
  Fe  Fe48  1  0.83712026  0.50402277  0.50370960  1
  Fe  Fe49  1  0.66991859  0.33776591  0.67046447  1
  Fe  Fe50  1  0.83743176  0.50311369  0.83800208  1
  Fe  Fe51  1  0.83727307  0.83686829  0.50367951  1
  Fe  Fe52  1  0.67240269  0.67042177  0.67015846  1
  Fe  Fe53  1  0.83760724  0.83730552  0.83747631  1
" 