4575,Ni17Cr83_2,-233.028894552498, 154.514183161288,Ni17Cr83,"# generated using pymatgen
 data_CrNi5
_symmetry_space_group_name_H-M   'P 1'
_cell_length_a   7.47286493
_cell_length_b   7.47286493
_cell_length_c   10.56822693
_cell_angle_alpha   90.00000000
_cell_angle_beta   90.00000000
_cell_angle_gamma   90.00000000
_symmetry_Int_Tables_number   1
_chemical_formula_structural   CrNi5
_chemical_formula_sum   'Cr9 Ni45'
_cell_volume   590.16900242
_cell_formula_units_Z   9
loop_
 _symmetry_equiv_pos_site_id
 _symmetry_equiv_pos_as_xyz
  1  'x, y, z'
loop_
 _atom_site_type_symbol
 _atom_site_label
 _atom_site_symmetry_multiplicity
 _atom_site_fract_x
 _atom_site_fract_y
 _atom_site_fract_z
 _atom_site_occupancy
  Ni  Ni0  1  0.99806732  0.99796279  0.99936685  1
  Ni  Ni1  1  0.16446117  0.16634411  0.16632202  1
  Ni  Ni2  1  0.99689829  0.99907290  0.33227584  1
  Cr  Cr3  1  0.99902209  0.33349647  0.99958401  1
  Ni  Ni4  1  0.16675942  0.50135210  0.16657089  1
  Ni  Ni5  1  0.99632721  0.33385211  0.33250052  1
  Ni  Ni6  1  0.99949751  0.66785813  0.99935563  1
  Ni  Ni7  1  0.16425279  0.83112015  0.16658740  1
  Ni  Ni8  1  0.99950295  0.66589192  0.33321618  1
  Cr  Cr9  1  0.33291888  0.99921439  0.00040980  1
  Ni  Ni10  1  0.50241212  0.16751623  0.16513202  1
  Cr  Cr11  1  0.33324744  0.99520847  0.33066374  1
  Ni  Ni12  1  0.33484376  0.33446174  0.99892180  1
  Ni  Ni13  1  0.50010004  0.50015659  0.16539767  1
  Cr  Cr14  1  0.33276681  0.33596583  0.33128368  1
  Ni  Ni15  1  0.33310823  0.66467577  -0.00021006  1
  Ni  Ni16  1  0.50142765  0.83113012  0.16682926  1
  Ni  Ni17  1  0.33293236  0.66657405  0.33347138  1
  Ni  Ni18  1  0.66762526  -0.00030664  0.99936416  1
  Ni  Ni19  1  0.83195673  0.16504609  0.16796555  1
  Ni  Ni20  1  0.66904064  0.99888516  0.33248458  1
  Ni  Ni21  1  0.66447701  0.33306107  -0.00020343  1
  Ni  Ni22  1  0.83196228  0.50037371  0.16754954  1
  Ni  Ni23  1  0.66976918  0.33385124  0.33206137  1
  Ni  Ni24  1  0.66622848  0.66607194  0.99935329  1
  Ni  Ni25  1  0.83315854  0.83343032  0.16610872  1
  Ni  Ni26  1  0.66639568  0.66608037  0.33341828  1
  Cr  Cr27  1  0.16282198  0.16647380  0.49983838  1
  Ni  Ni28  1  0.99725719  0.99698911  0.66717912  1
  Ni  Ni29  1  0.16646857  0.16647863  0.83263865  1
  Ni  Ni30  1  0.16656037  0.50353495  0.49986444  1
  Cr  Cr31  1  -0.00029550  0.33435651  0.66678985  1
  Ni  Ni32  1  0.16871171  0.50118210  0.83239976  1
  Ni  Ni33  1  0.16409622  0.82879339  0.49958596  1
  Ni  Ni34  1  -0.00014212  0.66806553  0.66625289  1
  Ni  Ni35  1  0.16396619  0.83118691  0.83265699  1
  Cr  Cr36  1  0.50308178  0.16652391  0.49983165  1
  Cr  Cr37  1  0.33324917  0.99750290  0.66772787  1
  Ni  Ni38  1  0.50041543  0.16767055  0.83383328  1
  Ni  Ni39  1  0.49932519  0.50349658  0.49985826  1
  Ni  Ni40  1  0.33274100  0.33651492  0.66866884  1
  Ni  Ni41  1  0.49816276  0.49996626  0.83358139  1
  Ni  Ni42  1  0.50177071  0.82877474  0.49958624  1
  Ni  Ni43  1  0.33293310  0.66483293  0.66558300  1
  Ni  Ni44  1  0.50171300  0.83119709  0.83241378  1
  Ni  Ni45  1  0.83293966  0.16404128  0.49746315  1
  Ni  Ni46  1  0.66868137  0.99680367  0.66697180  1
  Ni  Ni47  1  0.83193881  0.16288039  0.83340225  1
  Ni  Ni48  1  0.83294507  0.50173837  0.49744411  1
  Cr  Cr49  1  0.66636112  0.33435168  0.66702372  1
  Ni  Ni50  1  0.83194267  0.50255690  0.83382948  1
  Ni  Ni51  1  0.83297791  0.83305684  0.50011024  1
  Ni  Ni52  1  0.66603955  0.66825047  0.66605253  1
  Ni  Ni53  1  0.83315887  0.83341406  0.83261330  1
" 