4766,Ni17Fe73Cr8_4,-229.100132168664, 169.58275012746,Ni17Fe73Cr8,"# generated using pymatgen
 data_Cr2Fe13Ni3
_symmetry_space_group_name_H-M   'P 1'
_cell_length_a   7.43290691
_cell_length_b   7.43290691
_cell_length_c   10.51171776
_cell_angle_alpha   90.00000000
_cell_angle_beta   90.00000000
_cell_angle_gamma   90.00000000
_symmetry_Int_Tables_number   1
_chemical_formula_structural   Cr2Fe13Ni3
_chemical_formula_sum   'Cr6 Fe39 Ni9'
_cell_volume   580.75248735
_cell_formula_units_Z   3
loop_
 _symmetry_equiv_pos_site_id
 _symmetry_equiv_pos_as_xyz
  1  'x, y, z'
loop_
 _atom_site_type_symbol
 _atom_site_label
 _atom_site_symmetry_multiplicity
 _atom_site_fract_x
 _atom_site_fract_y
 _atom_site_fract_z
 _atom_site_occupancy
  Fe  Fe0  1  1.00177088  0.00379438  0.00484800  1
  Fe  Fe1  1  0.16922081  0.16836496  0.16922225  1
  Fe  Fe2  1  0.00295406  1.00154727  0.33445640  1
  Fe  Fe3  1  0.00347431  0.33655050  0.00318669  1
  Fe  Fe4  1  0.16973231  0.50305450  0.17080010  1
  Ni  Ni5  1  0.00386985  0.33588422  0.33522858  1
  Fe  Fe6  1  1.00166682  0.66662521  0.00462889  1
  Ni  Ni7  1  0.16770846  0.83534897  0.16920815  1
  Fe  Fe8  1  0.00234997  0.66758034  0.33576907  1
  Fe  Fe9  1  0.33626503  0.00385137  0.00270817  1
  Fe  Fe10  1  0.50072748  0.16926795  0.17107602  1
  Fe  Fe11  1  0.33575766  0.00308885  0.33599419  1
  Fe  Fe12  1  0.33459412  0.33649777  0.00286842  1
  Fe  Fe13  1  0.50114864  0.50269504  0.17150222  1
  Ni  Ni14  1  0.33354501  0.33505103  0.33463803  1
  Fe  Fe15  1  0.33595704  0.66637617  0.00354200  1
  Cr  Cr16  1  0.50203169  0.83406823  0.16848249  1
  Ni  Ni17  1  0.33355054  0.66972280  0.33576208  1
  Fe  Fe18  1  0.66868596  0.00268688  0.00333589  1
  Fe  Fe19  1  0.83693218  0.16727431  0.17148340  1
  Ni  Ni20  1  0.66930195  1.00150444  0.33544916  1
  Cr  Cr21  1  0.66914824  0.33625199  0.00350821  1
  Fe  Fe22  1  0.83596791  0.50464207  0.17054686  1
  Ni  Ni23  1  0.66955798  0.33521004  0.33401928  1
  Ni  Ni24  1  0.66885960  0.66876992  1.00121901  1
  Fe  Fe25  1  0.83671318  0.83506153  0.16874269  1
  Ni  Ni26  1  0.67032347  0.67006652  0.33606247  1
  Fe  Fe27  1  0.17077027  0.17116386  0.50173213  1
  Fe  Fe28  1  0.00359064  0.00282876  0.66814844  1
  Fe  Fe29  1  0.16844437  0.17046706  0.83580101  1
  Ni  Ni30  1  0.16893364  0.50255249  0.50183660  1
  Fe  Fe31  1  0.00369420  0.33706673  0.66856942  1
  Fe  Fe32  1  0.16865974  0.50044645  0.83461895  1
  Fe  Fe33  1  0.16925409  0.83490522  0.50160546  1
  Fe  Fe34  1  0.00261432  0.66729140  0.66720082  1
  Cr  Cr35  1  0.16987408  0.83456814  0.83713729  1
  Fe  Fe36  1  0.49994335  0.16840141  0.50086754  1
  Fe  Fe37  1  0.33647103  0.00306917  0.66815428  1
  Fe  Fe38  1  0.50120021  0.16733690  0.83468702  1
  Cr  Cr39  1  0.50195695  0.50095747  0.49874580  1
  Fe  Fe40  1  0.33447252  0.33519571  0.66872727  1
  Fe  Fe41  1  0.50140801  0.50444091  0.83474336  1
  Fe  Fe42  1  0.50218720  0.83656834  0.50082308  1
  Fe  Fe43  1  0.33527253  0.66867042  0.66742158  1
  Fe  Fe44  1  0.50227100  0.83528544  0.83620575  1
  Cr  Cr45  1  0.83466960  0.16971279  0.50141620  1
  Fe  Fe46  1  0.66675024  1.00220092  0.66801458  1
  Fe  Fe47  1  0.83733072  0.16997994  0.83415961  1
  Fe  Fe48  1  0.83762588  0.50323890  0.50103759  1
  Fe  Fe49  1  0.66855841  0.33580796  0.67054369  1
  Fe  Fe50  1  0.83687569  0.50221182  0.83500347  1
  Fe  Fe51  1  0.83532914  0.83302161  0.50220534  1
  Fe  Fe52  1  0.66880470  0.66882084  0.66897644  1
  Cr  Cr53  1  0.83523828  0.83696798  0.83734452  1
" 