6862,Ni17Fe81Cr1_3,-230.764097332755, 174.997397113489,Ni17Fe81Cr1,"# generated using pymatgen
 data_CrFe44Ni9
_symmetry_space_group_name_H-M   'P 1'
_cell_length_a   7.40676898
_cell_length_b   7.40676898
_cell_length_c   10.47475315
_cell_angle_alpha   90.00000000
_cell_angle_beta   90.00000000
_cell_angle_gamma   90.00000000
_symmetry_Int_Tables_number   1
_chemical_formula_structural   CrFe44Ni9
_chemical_formula_sum   'Cr1 Fe44 Ni9'
_cell_volume   574.64733266
_cell_formula_units_Z   1
loop_
 _symmetry_equiv_pos_site_id
 _symmetry_equiv_pos_as_xyz
  1  'x, y, z'
loop_
 _atom_site_type_symbol
 _atom_site_label
 _atom_site_symmetry_multiplicity
 _atom_site_fract_x
 _atom_site_fract_y
 _atom_site_fract_z
 _atom_site_occupancy
  Fe  Fe0  1  0.00544020  0.00544161  0.00547562  1
  Ni  Ni1  1  0.17141604  0.16950255  0.17121296  1
  Fe  Fe2  1  1.00403449  0.00450100  0.33685393  1
  Fe  Fe3  1  0.00407799  0.33682012  1.00396723  1
  Fe  Fe4  1  0.17074036  0.50421526  0.17088722  1
  Fe  Fe5  1  1.00359019  0.33747919  0.33747848  1
  Fe  Fe6  1  0.00486024  0.66994133  0.00493648  1
  Ni  Ni7  1  0.17043274  0.83875707  0.17023923  1
  Fe  Fe8  1  1.00348972  0.67023183  0.33747506  1
  Ni  Ni9  1  0.33653652  1.00291692  1.00351593  1
  Fe  Fe10  1  0.50333413  0.17040413  0.17107603  1
  Fe  Fe11  1  0.33767333  0.00480819  0.33666037  1
  Fe  Fe12  1  0.33788432  0.33684323  1.00399484  1
  Fe  Fe13  1  0.50346188  0.50365497  0.17023053  1
  Fe  Fe14  1  0.33788279  0.33692960  0.33755095  1
  Fe  Fe15  1  0.33798400  0.67080045  1.00403698  1
  Fe  Fe16  1  0.50273271  0.83814535  0.17046422  1
  Fe  Fe17  1  0.33767060  0.67046848  0.33715960  1
  Fe  Fe18  1  0.66939368  0.00533501  0.00485691  1
  Fe  Fe19  1  0.83797521  0.17060770  0.17070445  1
  Fe  Fe20  1  0.67049748  0.00471124  0.33786368  1
  Ni  Ni21  1  0.67161652  0.33799953  1.00307171  1
  Fe  Fe22  1  0.83800966  0.50361968  0.17077679  1
  Ni  Ni23  1  0.67100350  0.33758346  0.33827628  1
  Fe  Fe24  1  0.66936092  0.66943085  0.00431329  1
  Fe  Fe25  1  0.83852730  0.83798252  0.17058893  1
  Fe  Fe26  1  0.67104708  0.67002042  0.33770992  1
  Fe  Fe27  1  0.17070328  0.17124623  0.50370653  1
  Fe  Fe28  1  0.00500530  0.00485744  0.66987904  1
  Fe  Fe29  1  0.17067950  0.17129352  0.83807347  1
  Fe  Fe30  1  0.17077006  0.50363290  0.50414051  1
  Fe  Fe31  1  1.00370741  0.33787970  0.67076810  1
  Fe  Fe32  1  0.17051709  0.50436255  0.83717978  1
  Fe  Fe33  1  0.17070570  0.83732855  0.50366350  1
  Fe  Fe34  1  0.00445542  0.66947255  0.66980119  1
  Fe  Fe35  1  0.17268709  0.83654508  0.83807203  1
  Ni  Ni36  1  0.50337024  0.17065906  0.50374616  1
  Fe  Fe37  1  0.33756434  0.00427615  0.67096640  1
  Fe  Fe38  1  0.50486695  0.17149071  0.83729689  1
  Fe  Fe39  1  0.50470706  0.50334840  0.50426353  1
  Fe  Fe40  1  0.33772795  0.33732374  0.67065997  1
  Ni  Ni41  1  0.50481261  0.50328200  0.83687909  1
  Fe  Fe42  1  0.50460601  0.83744401  0.50417544  1
  Fe  Fe43  1  0.33756657  0.67060393  0.67100548  1
  Fe  Fe44  1  0.50262600  0.83657811  0.83756330  1
  Fe  Fe45  1  0.83660852  0.17135223  0.50386489  1
  Fe  Fe46  1  0.66963846  0.00501745  0.66949136  1
  Fe  Fe47  1  0.83666282  0.17365595  0.83763654  1
  Ni  Ni48  1  0.83717395  0.50485911  0.50450711  1
  Fe  Fe49  1  0.67076815  0.33787419  0.67075799  1
  Ni  Ni50  1  0.83631683  0.50297539  0.83770943  1
  Fe  Fe51  1  0.83689566  0.83751259  0.50436348  1
  Fe  Fe52  1  0.67018585  0.66931166  0.67018904  1
  Cr  Cr53  1  0.83773211  0.83639963  0.83799670  1
" 