2795,Ni17Cr83_1,-233.092855248753, 159.007810627687,Ni17Cr83,"# generated using pymatgen
 data_CrNi5
_symmetry_space_group_name_H-M   'P 1'
_cell_length_a   7.47443929
_cell_length_b   7.47443929
_cell_length_c   10.57045341
_cell_angle_alpha   90.00000000
_cell_angle_beta   90.00000000
_cell_angle_gamma   90.00000000
_symmetry_Int_Tables_number   1
_chemical_formula_structural   CrNi5
_chemical_formula_sum   'Cr9 Ni45'
_cell_volume   590.54208593
_cell_formula_units_Z   9
loop_
 _symmetry_equiv_pos_site_id
 _symmetry_equiv_pos_as_xyz
  1  'x, y, z'
loop_
 _atom_site_type_symbol
 _atom_site_label
 _atom_site_symmetry_multiplicity
 _atom_site_fract_x
 _atom_site_fract_y
 _atom_site_fract_z
 _atom_site_occupancy
  Ni  Ni0  1  0.99889883  0.00040571  0.99847487  1
  Cr  Cr1  1  0.16432067  0.16540831  0.16809151  1
  Ni  Ni2  1  0.99846764  0.99849129  0.33382854  1
  Ni  Ni3  1  -0.00040199  0.33115820  0.99950267  1
  Ni  Ni4  1  0.16510511  0.49993774  0.16696630  1
  Ni  Ni5  1  0.99757514  0.33265143  0.33256803  1
  Cr  Cr6  1  0.00028001  0.66731385  0.00057111  1
  Ni  Ni7  1  0.16660127  0.83271095  0.16754941  1
  Ni  Ni8  1  0.00005693  0.66734475  0.33177980  1
  Ni  Ni9  1  0.33171947  0.99890475  0.99843622  1
  Cr  Cr10  1  0.50065918  0.16362145  0.16602705  1
  Ni  Ni11  1  0.33292082  0.99773225  0.33514307  1
  Ni  Ni12  1  0.33079581  0.33217144  0.99710021  1
  Cr  Cr13  1  0.49836974  0.49904812  0.16463865  1
  Ni  Ni14  1  0.33286874  0.33258427  0.33519923  1
  Ni  Ni15  1  0.33140943  0.66740183  0.00066787  1
  Ni  Ni16  1  0.49866586  0.83360584  0.16515774  1
  Ni  Ni17  1  0.33123091  0.66805529  0.33237577  1
  Ni  Ni18  1  0.66801019  -0.00016744  -0.00031913  1
  Ni  Ni19  1  0.83324502  0.16561786  0.16623277  1
  Ni  Ni20  1  0.66709083  0.00029908  0.33363935  1
  Ni  Ni21  1  0.66819154  0.33060081  0.99944530  1
  Ni  Ni22  1  0.83446229  0.49773830  0.16658972  1
  Ni  Ni23  1  0.66797201  0.33094895  0.33488288  1
  Ni  Ni24  1  0.66691714  0.66818327  0.00165174  1
  Ni  Ni25  1  0.83311632  0.83517159  0.16595614  1
  Cr  Cr26  1  0.66712658  0.66713517  0.33363838  1
  Ni  Ni27  1  0.16563415  0.16433758  0.49929396  1
  Ni  Ni28  1  -0.00041600  -0.00023159  0.66652957  1
  Ni  Ni29  1  0.16564343  0.16559814  0.83256452  1
  Cr  Cr30  1  0.16474351  0.49958999  0.49931657  1
  Ni  Ni31  1  -0.00040408  0.33064672  0.66655563  1
  Ni  Ni32  1  0.16664838  0.49869733  0.83220333  1
  Ni  Ni33  1  0.16575277  0.83474618  0.49933627  1
  Ni  Ni34  1  -0.00031115  0.66824388  0.66598398  1
  Ni  Ni35  1  0.16561670  0.83415288  0.83157032  1
  Ni  Ni36  1  0.49958143  0.16559311  0.49943982  1
  Ni  Ni37  1  0.33205849  0.00062855  0.66531586  1
  Ni  Ni38  1  0.49964384  0.16578843  0.83302918  1
  Ni  Ni39  1  0.49990833  0.49882858  0.50085147  1
  Ni  Ni40  1  0.33276822  0.33069087  0.66648143  1
  Cr  Cr41  1  0.49909926  0.49906540  0.83250440  1
  Ni  Ni42  1  0.49875475  0.83408566  0.50010025  1
  Ni  Ni43  1  0.33174315  0.66724914  0.66529096  1
  Cr  Cr44  1  0.50101329  0.83417956  0.83334849  1
  Ni  Ni45  1  0.83331780  0.16564601  0.49905904  1
  Ni  Ni46  1  0.66703367  0.00080540  0.66519992  1
  Ni  Ni47  1  0.83322033  0.16451316  0.83323411  1
  Ni  Ni48  1  0.83233334  0.49859855  0.50048769  1
  Ni  Ni49  1  0.66617166  0.33040153  0.66386390  1
  Cr  Cr50  1  0.83302596  0.49973783  0.83049279  1
  Ni  Ni51  1  0.83388589  0.83415321  0.50097850  1
  Ni  Ni52  1  0.66715906  0.66756466  0.66290370  1
  Ni  Ni53  1  0.83399729  0.83591317  0.83156808  1
" 