3138,Ni17Cr83_17,-233.014902578641, 156.176485746995,Ni17Cr83,"# generated using pymatgen
 data_CrNi5
_symmetry_space_group_name_H-M   'P 1'
_cell_length_a   7.47433422
_cell_length_b   7.47433422
_cell_length_c   10.57030482
_cell_angle_alpha   90.00000000
_cell_angle_beta   90.00000000
_cell_angle_gamma   90.00000000
_symmetry_Int_Tables_number   1
_chemical_formula_structural   CrNi5
_chemical_formula_sum   'Cr9 Ni45'
_cell_volume   590.51718195
_cell_formula_units_Z   9
loop_
 _symmetry_equiv_pos_site_id
 _symmetry_equiv_pos_as_xyz
  1  'x, y, z'
loop_
 _atom_site_type_symbol
 _atom_site_label
 _atom_site_symmetry_multiplicity
 _atom_site_fract_x
 _atom_site_fract_y
 _atom_site_fract_z
 _atom_site_occupancy
  Ni  Ni0  1  0.00039140  0.99673617  0.00081546  1
  Ni  Ni1  1  0.16778668  0.16441444  0.16617295  1
  Ni  Ni2  1  0.99861929  0.99906938  0.33159757  1
  Cr  Cr3  1  0.00044863  0.33314979  -0.00009927  1
  Ni  Ni4  1  0.16794065  0.49951482  0.16477780  1
  Cr  Cr5  1  0.99853143  0.33241897  0.33214337  1
  Ni  Ni6  1  0.99938065  0.66801113  0.99934832  1
  Ni  Ni7  1  0.16602030  0.83457827  0.16467439  1
  Cr  Cr8  1  -0.00034678  0.66751341  0.33305294  1
  Ni  Ni9  1  0.33199641  0.00026390  0.00022890  1
  Ni  Ni10  1  0.49950977  0.16633121  0.16635778  1
  Ni  Ni11  1  0.33375152  0.00050040  0.33218684  1
  Ni  Ni12  1  0.33460172  0.33281720  -0.00044258  1
  Ni  Ni13  1  0.49950795  0.49772158  0.16445071  1
  Ni  Ni14  1  0.33534919  0.33167650  0.33180682  1
  Ni  Ni15  1  0.33209397  0.66545096  0.00064751  1
  Ni  Ni16  1  0.49950695  0.83447592  0.16485081  1
  Cr  Cr17  1  0.33321646  0.66614741  0.33305435  1
  Ni  Ni18  1  0.66616311  0.99926878  0.00131167  1
  Ni  Ni19  1  0.83124348  0.16441324  0.16693157  1
  Ni  Ni20  1  0.66615719  0.00150540  0.33323786  1
  Ni  Ni21  1  0.66359222  0.33382123  0.00061002  1
  Ni  Ni22  1  0.83109058  0.49949901  0.16440824  1
  Ni  Ni23  1  0.66453240  0.33067116  0.33287490  1
  Ni  Ni24  1  0.66706918  0.66543002  0.00043576  1
  Ni  Ni25  1  0.83300753  0.83459591  0.16429094  1
  Cr  Cr26  1  0.66567974  0.66614534  0.33282764  1
  Cr  Cr27  1  0.16756529  0.16652053  0.49908325  1
  Cr  Cr28  1  -0.00046784  0.99824445  0.66667500  1
  Ni  Ni29  1  0.16954135  0.16633126  0.83302519  1
  Ni  Ni30  1  0.16693709  0.50054814  0.50213782  1
  Ni  Ni31  1  0.99950367  0.33647903  0.66589301  1
  Ni  Ni32  1  0.16690673  0.50030200  0.83157730  1
  Ni  Ni33  1  0.16699127  0.83188326  0.50021447  1
  Ni  Ni34  1  0.99950749  0.66437079  0.66612037  1
  Ni  Ni35  1  0.16537023  0.83190162  0.83370004  1
  Ni  Ni36  1  0.50138014  0.16607529  0.49956242  1
  Ni  Ni37  1  0.33458718  -0.00046198  0.66611273  1
  Ni  Ni38  1  0.49760220  0.16790228  0.83262659  1
  Ni  Ni39  1  0.49965222  0.49799272  0.50103729  1
  Ni  Ni40  1  0.33377153  0.33383998  0.66715873  1
  Ni  Ni41  1  0.49937246  0.49779657  0.83304590  1
  Ni  Ni42  1  0.49964574  0.83445732  0.50109446  1
  Ni  Ni43  1  0.33199402  0.66518217  0.66485377  1
  Cr  Cr44  1  0.49985232  0.83271575  0.83287843  1
  Ni  Ni45  1  0.82939948  0.16620170  0.49896463  1
  Ni  Ni46  1  0.66442928  -0.00046579  0.66401555  1
  Cr  Cr47  1  0.83100798  0.16616545  0.83262212  1
  Ni  Ni48  1  0.83194604  0.49877499  0.50233174  1
  Ni  Ni49  1  0.66525062  0.33384863  0.66505436  1
  Ni  Ni50  1  0.83225935  0.50200279  0.83175747  1
  Ni  Ni51  1  0.83188152  0.83357961  0.50040693  1
  Ni  Ni52  1  0.66704789  0.66516978  0.66529768  1
  Ni  Ni53  1  0.83390123  0.83017822  0.83387762  1
" 