7449,Ni17Fe73Cr8_3,-228.919112689956, 173.548784804283,Ni17Fe73Cr8,"# generated using pymatgen
 data_Cr2Fe13Ni3
_symmetry_space_group_name_H-M   'P 1'
_cell_length_a   7.43113885
_cell_length_b   7.43113885
_cell_length_c   10.50921735
_cell_angle_alpha   90.00000000
_cell_angle_beta   90.00000000
_cell_angle_gamma   90.00000000
_symmetry_Int_Tables_number   1
_chemical_formula_structural   Cr2Fe13Ni3
_chemical_formula_sum   'Cr6 Fe39 Ni9'
_cell_volume   580.33815776
_cell_formula_units_Z   3
loop_
 _symmetry_equiv_pos_site_id
 _symmetry_equiv_pos_as_xyz
  1  'x, y, z'
loop_
 _atom_site_type_symbol
 _atom_site_label
 _atom_site_symmetry_multiplicity
 _atom_site_fract_x
 _atom_site_fract_y
 _atom_site_fract_z
 _atom_site_occupancy
  Fe  Fe0  1  0.00276264  1.00213297  1.00220879  1
  Fe  Fe1  1  0.16905203  0.16611795  0.16790285  1
  Fe  Fe2  1  1.00192788  0.00278119  0.33503502  1
  Fe  Fe3  1  1.00170837  0.33502301  1.00075120  1
  Cr  Cr4  1  0.16773636  0.50343243  0.16808827  1
  Fe  Fe5  1  1.00027793  0.33508701  0.33699788  1
  Fe  Fe6  1  1.00133085  0.67009598  1.00145118  1
  Ni  Ni7  1  0.16939921  0.83802985  0.16925626  1
  Fe  Fe8  1  1.00113012  0.66938538  0.33585785  1
  Fe  Fe9  1  0.33542923  1.00229950  0.00292112  1
  Fe  Fe10  1  0.50250649  0.16608225  0.16848477  1
  Fe  Fe11  1  0.33645732  1.00129889  0.33435507  1
  Fe  Fe12  1  0.33583261  0.33420754  1.00069844  1
  Cr  Cr13  1  0.50454113  0.50307307  0.16825683  1
  Cr  Cr14  1  0.33584559  0.33423631  0.33773181  1
  Fe  Fe15  1  0.33604487  0.67074680  1.00094421  1
  Ni  Ni16  1  0.50177047  0.83744939  0.17016683  1
  Fe  Fe17  1  0.33643674  0.67167909  0.33639209  1
  Fe  Fe18  1  0.66905610  1.00191918  0.00253427  1
  Fe  Fe19  1  0.83569007  0.16858026  0.16922251  1
  Fe  Fe20  1  0.66885993  1.00215419  0.33582946  1
  Fe  Fe21  1  0.66970773  0.33563593  1.00115837  1
  Fe  Fe22  1  0.83580823  0.50325219  0.16867415  1
  Fe  Fe23  1  0.67116261  0.33506471  0.33657337  1
  Fe  Fe24  1  0.66987025  0.66969498  1.00116494  1
  Fe  Fe25  1  0.83577228  0.83541721  0.16916505  1
  Fe  Fe26  1  0.66968036  0.67003187  0.33650602  1
  Fe  Fe27  1  0.16753741  0.16965940  0.50390403  1
  Fe  Fe28  1  1.00179930  0.00449525  0.66999841  1
  Ni  Ni29  1  0.16898238  0.16928874  0.83481031  1
  Fe  Fe30  1  0.16860830  0.50147544  0.50262964  1
  Ni  Ni31  1  0.00367369  0.33417326  0.66867248  1
  Fe  Fe32  1  0.16932755  0.50161221  0.83605649  1
  Cr  Cr33  1  0.16908449  0.83676742  0.50174449  1
  Cr  Cr34  1  1.00200353  0.66813560  0.67082059  1
  Fe  Fe35  1  0.16958844  0.83572295  0.83657957  1
  Fe  Fe36  1  0.50283974  0.16693882  0.50223022  1
  Fe  Fe37  1  0.33565353  0.00350370  0.66997244  1
  Fe  Fe38  1  0.50222665  0.16892007  0.83653776  1
  Fe  Fe39  1  0.50238369  0.50480288  0.50292269  1
  Fe  Fe40  1  0.33361184  0.33640180  0.66932720  1
  Ni  Ni41  1  0.50207801  0.50293802  0.83602288  1
  Fe  Fe42  1  0.50408899  0.83550424  0.50212802  1
  Ni  Ni43  1  0.33761329  0.66897563  0.66972158  1
  Fe  Fe44  1  0.50267753  0.83492768  0.83593322  1
  Fe  Fe45  1  0.83687310  0.16794800  0.50179309  1
  Fe  Fe46  1  0.66979400  1.00021062  0.66888551  1
  Fe  Fe47  1  0.83677139  0.16918029  0.83623160  1
  Fe  Fe48  1  0.83625808  0.50272600  0.50150295  1
  Cr  Cr49  1  0.66994819  0.33537623  0.66926901  1
  Ni  Ni50  1  0.83452287  0.50288072  0.83745557  1
  Ni  Ni51  1  0.83353499  0.83679219  0.50146149  1
  Fe  Fe52  1  0.66816219  0.67002472  0.66958066  1
  Ni  Ni53  1  0.83502888  0.83617840  0.83594890  1
" 