1836,Ni17Cr83_8,-233.247851181378, 158.279904262122,Ni17Cr83,"# generated using pymatgen
 data_CrNi5
_symmetry_space_group_name_H-M   'P 1'
_cell_length_a   7.47392975
_cell_length_b   7.47392975
_cell_length_c   10.56973282
_cell_angle_alpha   90.00000000
_cell_angle_beta   90.00000000
_cell_angle_gamma   90.00000000
_symmetry_Int_Tables_number   1
_chemical_formula_structural   CrNi5
_chemical_formula_sum   'Cr9 Ni45'
_cell_volume   590.42132202
_cell_formula_units_Z   9
loop_
 _symmetry_equiv_pos_site_id
 _symmetry_equiv_pos_as_xyz
  1  'x, y, z'
loop_
 _atom_site_type_symbol
 _atom_site_label
 _atom_site_symmetry_multiplicity
 _atom_site_fract_x
 _atom_site_fract_y
 _atom_site_fract_z
 _atom_site_occupancy
  Ni  Ni0  1  0.99624136  0.99837365  0.99875467  1
  Cr  Cr1  1  0.16459503  0.16457544  0.16504178  1
  Ni  Ni2  1  0.99661639  0.99807992  0.33262191  1
  Ni  Ni3  1  0.99787004  0.33388256  0.99833763  1
  Ni  Ni4  1  0.16495115  0.50213737  0.16350325  1
  Cr  Cr5  1  0.99613421  0.33409237  0.33435879  1
  Ni  Ni6  1  0.99883893  0.66635276  -0.00015627  1
  Ni  Ni7  1  0.16418449  0.83139103  0.16621664  1
  Ni  Ni8  1  0.99614182  0.66694462  0.33211696  1
  Cr  Cr9  1  0.33494431  0.99770062  0.99806310  1
  Ni  Ni10  1  0.50302989  0.16639910  0.16667722  1
  Ni  Ni11  1  0.33512652  0.99930761  0.33359823  1
  Ni  Ni12  1  0.33381735  0.33520707  0.99873609  1
  Ni  Ni13  1  0.50210641  0.49959523  0.16417900  1
  Cr  Cr14  1  0.33393496  0.33173922  0.33310049  1
  Ni  Ni15  1  0.33305879  0.66499325  -0.00034740  1
  Ni  Ni16  1  0.50163032  0.83268746  0.16668104  1
  Cr  Cr17  1  0.33287235  0.66710707  0.33066667  1
  Ni  Ni18  1  0.66824040  0.99919928  -0.00036647  1
  Ni  Ni19  1  0.83011651  0.16532520  0.16516667  1
  Ni  Ni20  1  0.66689217  0.99932002  0.33277244  1
  Ni  Ni21  1  0.66692547  0.33259312  -0.00016866  1
  Ni  Ni22  1  0.83143020  0.50057574  0.16579743  1
  Ni  Ni23  1  0.66771426  0.33171505  0.33202033  1
  Ni  Ni24  1  0.66668920  0.66685183  0.99940666  1
  Ni  Ni25  1  0.83285771  0.83270071  0.16638447  1
  Ni  Ni26  1  0.66925865  0.66758868  0.33236287  1
  Ni  Ni27  1  0.16493693  0.16429462  0.50070863  1
  Ni  Ni28  1  0.99771537  0.00044921  0.66718665  1
  Ni  Ni29  1  0.16422671  0.16607521  0.83229772  1
  Ni  Ni30  1  0.16141571  0.49914883  0.50047441  1
  Ni  Ni31  1  0.99729495  0.33265451  0.66601870  1
  Ni  Ni32  1  0.16399568  0.49953604  0.83471299  1
  Cr  Cr33  1  0.16394253  0.83468458  0.49925265  1
  Ni  Ni34  1  0.99645905  0.66538807  0.66664696  1
  Ni  Ni35  1  0.16393570  0.83301542  0.83315145  1
  Ni  Ni36  1  0.50191259  0.16284365  0.49922427  1
  Ni  Ni37  1  0.33414682  0.00041598  0.66643177  1
  Ni  Ni38  1  0.50166830  0.16659132  0.83267270  1
  Cr  Cr39  1  0.50484779  0.50013432  0.49989461  1
  Cr  Cr40  1  0.33164247  0.33090573  0.66669590  1
  Ni  Ni41  1  0.50208464  0.49942648  0.83506117  1
  Ni  Ni42  1  0.50339015  0.83663093  0.49963368  1
  Cr  Cr43  1  0.33331115  0.66792621  0.66875208  1
  Ni  Ni44  1  0.50181618  0.83274155  0.83233606  1
  Ni  Ni45  1  0.83177552  0.16503160  0.50021808  1
  Ni  Ni46  1  0.66682840  0.99945253  0.66627291  1
  Ni  Ni47  1  0.83281684  0.16634808  0.83322637  1
  Ni  Ni48  1  0.83315948  0.50056988  0.50043595  1
  Ni  Ni49  1  0.66934963  0.33147947  0.66677540  1
  Ni  Ni50  1  0.83250622  0.49956995  0.83234960  1
  Ni  Ni51  1  0.83132980  0.83294999  0.49944998  1
  Ni  Ni52  1  0.66945519  0.66773591  0.66694904  1
  Ni  Ni53  1  0.83295520  0.83270181  0.83278262  1
" 