8321,Ni17Fe81Cr1_14,-230.770374686122, 171.08338177361,Ni17Fe81Cr1,"# generated using pymatgen
 data_CrFe44Ni9
_symmetry_space_group_name_H-M   'P 1'
_cell_length_a   7.40945664
_cell_length_b   7.40945664
_cell_length_c   10.47855407
_cell_angle_alpha   90.00000000
_cell_angle_beta   90.00000000
_cell_angle_gamma   90.00000000
_symmetry_Int_Tables_number   1
_chemical_formula_structural   CrFe44Ni9
_chemical_formula_sum   'Cr1 Fe44 Ni9'
_cell_volume   575.27311885
_cell_formula_units_Z   1
loop_
 _symmetry_equiv_pos_site_id
 _symmetry_equiv_pos_as_xyz
  1  'x, y, z'
loop_
 _atom_site_type_symbol
 _atom_site_label
 _atom_site_symmetry_multiplicity
 _atom_site_fract_x
 _atom_site_fract_y
 _atom_site_fract_z
 _atom_site_occupancy
  Fe  Fe0  1  0.00451245  1.00376638  1.00378251  1
  Fe  Fe1  1  0.17044513  0.17114805  0.17070216  1
  Ni  Ni2  1  1.00383506  1.00359752  0.33714131  1
  Fe  Fe3  1  0.00412775  0.33769403  0.00405956  1
  Fe  Fe4  1  0.17087865  0.50356461  0.17030662  1
  Fe  Fe5  1  1.00363828  0.33705234  0.33719931  1
  Fe  Fe6  1  0.00415660  0.67019734  0.00406046  1
  Fe  Fe7  1  0.17026842  0.83694714  0.17035223  1
  Fe  Fe8  1  1.00339934  0.67104169  0.33672823  1
  Fe  Fe9  1  0.33754388  0.00470054  1.00326776  1
  Ni  Ni10  1  0.50306563  0.17158962  0.17130789  1
  Fe  Fe11  1  0.33697367  0.00412974  0.33735016  1
  Ni  Ni12  1  0.33798818  0.33733908  1.00357342  1
  Ni  Ni13  1  0.50431489  0.50218195  0.17063691  1
  Fe  Fe14  1  0.33718732  0.33659173  0.33631933  1
  Fe  Fe15  1  0.33707256  0.67009588  1.00370577  1
  Fe  Fe16  1  0.50505421  0.83654677  0.17070368  1
  Fe  Fe17  1  0.33687036  0.67093558  0.33730778  1
  Fe  Fe18  1  0.66960345  0.00472643  0.00403139  1
  Fe  Fe19  1  0.83652674  0.17074839  0.17094889  1
  Fe  Fe20  1  0.67093553  1.00388561  0.33683354  1
  Fe  Fe21  1  0.66950223  0.33722087  0.00430907  1
  Ni  Ni22  1  0.83704639  0.50504676  0.17110172  1
  Fe  Fe23  1  0.67083087  0.33694597  0.33663349  1
  Fe  Fe24  1  0.67043212  0.66971221  0.00470561  1
  Ni  Ni25  1  0.83866754  0.83629890  0.17084674  1
  Fe  Fe26  1  0.67139369  0.67082579  0.33655402  1
  Fe  Fe27  1  0.16903381  0.17101475  0.50293332  1
  Ni  Ni28  1  1.00240524  1.00360074  0.67095838  1
  Fe  Fe29  1  0.17008756  0.17094194  0.83802475  1
  Fe  Fe30  1  0.17073940  0.50380881  0.50399529  1
  Fe  Fe31  1  0.00396088  0.33665911  0.67040189  1
  Fe  Fe32  1  0.17142696  0.50360474  0.83735556  1
  Fe  Fe33  1  0.16925996  0.83683450  0.50360529  1
  Fe  Fe34  1  0.00435068  0.67142918  0.67087208  1
  Ni  Ni35  1  0.16880397  0.83620921  0.83735078  1
  Fe  Fe36  1  0.50476048  0.17150430  0.50308708  1
  Cr  Cr37  1  0.33600177  0.00418986  0.67101067  1
  Ni  Ni38  1  0.50461804  0.17203296  0.83715543  1
  Fe  Fe39  1  0.50377557  0.50403669  0.50347420  1
  Fe  Fe40  1  0.33701724  0.33820733  0.67123984  1
  Fe  Fe41  1  0.50301358  0.50375617  0.83779800  1
  Fe  Fe42  1  0.50476120  0.83611865  0.50308737  1
  Fe  Fe43  1  0.33638005  0.66964343  0.67064518  1
  Fe  Fe44  1  0.50427140  0.83675788  0.83786951  1
  Fe  Fe45  1  0.83786182  0.17002741  0.50406907  1
  Fe  Fe46  1  0.67246095  0.00420488  0.67079600  1
  Fe  Fe47  1  0.83757356  0.16968146  0.83664280  1
  Fe  Fe48  1  0.83714397  0.50381057  0.50351736  1
  Fe  Fe49  1  0.67068184  0.33623556  0.67071928  1
  Fe  Fe50  1  0.83721870  0.50388561  0.83758963  1
  Fe  Fe51  1  0.83763402  0.83782066  0.50339718  1
  Fe  Fe52  1  0.67092418  0.67122100  0.67040199  1
  Fe  Fe53  1  0.83742323  0.83809267  0.83739354  1
" 