8141,Ni17Fe73Cr8_16,-229.083848449211, 170.06036365426,Ni17Fe73Cr8,"# generated using pymatgen
 data_Cr2Fe13Ni3
_symmetry_space_group_name_H-M   'P 1'
_cell_length_a   7.43167334
_cell_length_b   7.43167334
_cell_length_c   10.50997323
_cell_angle_alpha   90.00000000
_cell_angle_beta   90.00000000
_cell_angle_gamma   90.00000000
_symmetry_Int_Tables_number   1
_chemical_formula_structural   Cr2Fe13Ni3
_chemical_formula_sum   'Cr6 Fe39 Ni9'
_cell_volume   580.46339010
_cell_formula_units_Z   3
loop_
 _symmetry_equiv_pos_site_id
 _symmetry_equiv_pos_as_xyz
  1  'x, y, z'
loop_
 _atom_site_type_symbol
 _atom_site_label
 _atom_site_symmetry_multiplicity
 _atom_site_fract_x
 _atom_site_fract_y
 _atom_site_fract_z
 _atom_site_occupancy
  Fe  Fe0  1  0.00275559  1.00116078  0.00264422  1
  Fe  Fe1  1  0.16908374  0.16808479  0.16900144  1
  Fe  Fe2  1  0.00306993  1.00216758  0.33556741  1
  Fe  Fe3  1  0.00502770  0.33677847  1.00202106  1
  Fe  Fe4  1  0.16882448  0.50321845  0.16872629  1
  Fe  Fe5  1  0.00263248  0.33686374  0.33636616  1
  Fe  Fe6  1  1.00174685  0.66919055  0.00287375  1
  Fe  Fe7  1  0.16872312  0.83583714  0.16948295  1
  Ni  Ni8  1  0.00371161  0.66907965  0.33476479  1
  Fe  Fe9  1  0.33627310  1.00148989  1.00168396  1
  Cr  Cr10  1  0.50138449  0.16827023  0.16848627  1
  Fe  Fe11  1  0.33523399  1.00151561  0.33625121  1
  Fe  Fe12  1  0.33299794  0.33545520  1.00213120  1
  Fe  Fe13  1  0.50258976  0.50481537  0.16990132  1
  Fe  Fe14  1  0.33497684  0.33682572  0.33633825  1
  Fe  Fe15  1  0.33595560  0.67019026  0.00276929  1
  Ni  Ni16  1  0.50326469  0.83383650  0.16958196  1
  Fe  Fe17  1  0.33589856  0.66879647  0.33546979  1
  Ni  Ni18  1  0.66769218  0.99905754  1.00115990  1
  Cr  Cr19  1  0.83754664  0.16717416  0.17127831  1
  Fe  Fe20  1  0.66883790  1.00125125  0.33530442  1
  Cr  Cr21  1  0.66864718  0.33664180  1.00196474  1
  Fe  Fe22  1  0.83572488  0.50517241  0.17031052  1
  Ni  Ni23  1  0.66891918  0.33674329  0.33750842  1
  Fe  Fe24  1  0.66943405  0.67245912  0.00284990  1
  Ni  Ni25  1  0.83518480  0.83475991  0.16828436  1
  Fe  Fe26  1  0.66888333  0.66836317  0.33495277  1
  Fe  Fe27  1  0.16889265  0.16869383  0.50235755  1
  Fe  Fe28  1  0.00279476  0.00248446  0.66893012  1
  Fe  Fe29  1  0.17103356  0.16928069  0.83578058  1
  Fe  Fe30  1  0.16863717  0.50287146  0.50256510  1
  Fe  Fe31  1  1.00235560  0.33705982  0.66875629  1
  Ni  Ni32  1  0.16823524  0.50191145  0.83529855  1
  Fe  Fe33  1  0.17007430  0.83557493  0.50207764  1
  Fe  Fe34  1  1.00231858  0.66759515  0.66948280  1
  Fe  Fe35  1  0.16951624  0.83521617  0.83557769  1
  Fe  Fe36  1  0.50304327  0.16947926  0.50216283  1
  Fe  Fe37  1  0.33690822  1.00213329  0.66920215  1
  Fe  Fe38  1  0.50034746  0.16706558  0.83523142  1
  Fe  Fe39  1  0.50335094  0.50213803  0.50278696  1
  Fe  Fe40  1  0.33565932  0.33572872  0.66866736  1
  Cr  Cr41  1  0.50054769  0.50361777  0.83539264  1
  Fe  Fe42  1  0.50112688  0.83552085  0.50273706  1
  Fe  Fe43  1  0.33604949  0.66927952  0.66890040  1
  Ni  Ni44  1  0.50297669  0.83682640  0.83540567  1
  Fe  Fe45  1  0.83520437  0.17091958  0.50241246  1
  Fe  Fe46  1  0.66743780  1.00209342  0.66985082  1
  Cr  Cr47  1  0.83575233  0.16767473  0.83464072  1
  Fe  Fe48  1  0.83515460  0.50096143  0.50239789  1
  Ni  Ni49  1  0.66908146  0.33611823  0.66753379  1
  Fe  Fe50  1  0.83732354  0.50480415  0.83443048  1
  Cr  Cr51  1  0.83525306  0.83638015  0.50247495  1
  Ni  Ni52  1  0.66931458  0.66814994  0.66975669  1
  Fe  Fe53  1  0.83510777  0.83374013  0.83603291  1
" 