2260,Ni17Fe73Cr8_17,-228.996206465021, 171.012792144778,Ni17Fe73Cr8,"# generated using pymatgen
 data_Cr2Fe13Ni3
_symmetry_space_group_name_H-M   'P 1'
_cell_length_a   7.43315850
_cell_length_b   7.43315850
_cell_length_c   10.51207357
_cell_angle_alpha   90.00000000
_cell_angle_beta   90.00000000
_cell_angle_gamma   90.00000000
_symmetry_Int_Tables_number   1
_chemical_formula_structural   Cr2Fe13Ni3
_chemical_formula_sum   'Cr6 Fe39 Ni9'
_cell_volume   580.81146308
_cell_formula_units_Z   3
loop_
 _symmetry_equiv_pos_site_id
 _symmetry_equiv_pos_as_xyz
  1  'x, y, z'
loop_
 _atom_site_type_symbol
 _atom_site_label
 _atom_site_symmetry_multiplicity
 _atom_site_fract_x
 _atom_site_fract_y
 _atom_site_fract_z
 _atom_site_occupancy
  Fe  Fe0  1  0.00268243  1.00224230  1.00214210  1
  Cr  Cr1  1  0.16950915  0.16825727  0.16834122  1
  Fe  Fe2  1  0.00326866  1.00128689  0.33660614  1
  Fe  Fe3  1  1.00190863  0.33630761  1.00143968  1
  Fe  Fe4  1  0.16818180  0.50293535  0.16931800  1
  Fe  Fe5  1  1.00108676  0.33642715  0.33662943  1
  Fe  Fe6  1  1.00204682  0.66828602  0.00259902  1
  Fe  Fe7  1  0.16847636  0.83523796  0.16944728  1
  Fe  Fe8  1  1.00206987  0.66912592  0.33606694  1
  Ni  Ni9  1  0.33547979  0.00262882  1.00193308  1
  Fe  Fe10  1  0.50298512  0.16962040  0.16721796  1
  Fe  Fe11  1  0.33464950  1.00132044  0.33604325  1
  Fe  Fe12  1  0.33722861  0.33456864  1.00085107  1
  Fe  Fe13  1  0.50315737  0.50116292  0.16921863  1
  Fe  Fe14  1  0.33581916  0.33537950  0.33553017  1
  Cr  Cr15  1  0.33382109  0.66919729  1.00209319  1
  Fe  Fe16  1  0.50190240  0.83605517  0.16866770  1
  Fe  Fe17  1  0.33479581  0.67014051  0.33544130  1
  Fe  Fe18  1  0.66800967  0.00442616  0.00381350  1
  Fe  Fe19  1  0.83468891  0.16991626  0.16798583  1
  Cr  Cr20  1  0.66902118  0.00330007  0.33577685  1
  Ni  Ni21  1  0.67007361  0.33461640  0.00228494  1
  Fe  Fe22  1  0.83549899  0.50185583  0.16930108  1
  Fe  Fe23  1  0.66993798  0.33658231  0.33462612  1
  Fe  Fe24  1  0.66974151  0.66720288  0.00373696  1
  Fe  Fe25  1  0.83645602  0.83506674  0.16802903  1
  Fe  Fe26  1  0.66997393  0.66795942  0.33506808  1
  Fe  Fe27  1  0.16852646  0.16909576  0.50181228  1
  Fe  Fe28  1  0.00396607  1.00189109  0.66808906  1
  Fe  Fe29  1  0.17021027  0.16879007  0.83616231  1
  Fe  Fe30  1  0.16717672  0.50300694  0.50290293  1
  Fe  Fe31  1  0.00269632  0.33667565  0.66876390  1
  Ni  Ni32  1  0.16880542  0.50121186  0.83472489  1
  Ni  Ni33  1  0.16842688  0.83721008  0.50146180  1
  Fe  Fe34  1  0.00410228  0.66827604  0.66817291  1
  Ni  Ni35  1  0.16745795  0.83648210  0.83606176  1
  Fe  Fe36  1  0.50158314  0.16814331  0.50339381  1
  Fe  Fe37  1  0.33465571  1.00216949  0.66886214  1
  Ni  Ni38  1  0.50190964  0.17176878  0.83658849  1
  Cr  Cr39  1  0.50356190  0.50219345  0.50249783  1
  Fe  Fe40  1  0.33523895  0.33571120  0.67045772  1
  Ni  Ni41  1  0.50269256  0.49847895  0.83548196  1
  Fe  Fe42  1  0.50133315  0.83556290  0.50331693  1
  Ni  Ni43  1  0.33343643  0.66932902  0.66886757  1
  Cr  Cr44  1  0.50154425  0.83599483  0.83425501  1
  Fe  Fe45  1  0.83672873  0.16988443  0.50295077  1
  Fe  Fe46  1  0.66821232  0.00357280  0.66740861  1
  Fe  Fe47  1  0.83514173  0.17097237  0.83590422  1
  Ni  Ni48  1  0.83599519  0.50219318  0.50194300  1
  Fe  Fe49  1  0.66890615  0.33557056  0.67040227  1
  Fe  Fe50  1  0.83512290  0.50071642  0.83543689  1
  Fe  Fe51  1  0.83658904  0.83420722  0.50311274  1
  Fe  Fe52  1  0.66917687  0.66769517  0.66803146  1
  Cr  Cr53  1  0.83742971  0.83518795  0.83582603  1
" 