6549,Ni17Fe81Cr1_7,-230.696667977466, 175.32225731485,Ni17Fe81Cr1,"# generated using pymatgen
 data_CrFe44Ni9
_symmetry_space_group_name_H-M   'P 1'
_cell_length_a   7.40620905
_cell_length_b   7.40620905
_cell_length_c   10.47396129
_cell_angle_alpha   90.00000000
_cell_angle_beta   90.00000000
_cell_angle_gamma   90.00000000
_symmetry_Int_Tables_number   1
_chemical_formula_structural   CrFe44Ni9
_chemical_formula_sum   'Cr1 Fe44 Ni9'
_cell_volume   574.51701830
_cell_formula_units_Z   1
loop_
 _symmetry_equiv_pos_site_id
 _symmetry_equiv_pos_as_xyz
  1  'x, y, z'
loop_
 _atom_site_type_symbol
 _atom_site_label
 _atom_site_symmetry_multiplicity
 _atom_site_fract_x
 _atom_site_fract_y
 _atom_site_fract_z
 _atom_site_occupancy
  Fe  Fe0  1  0.00543657  1.00343726  0.00527705  1
  Ni  Ni1  1  0.17062962  0.17030821  0.17080387  1
  Fe  Fe2  1  1.00357083  1.00357219  0.33743906  1
  Fe  Fe3  1  0.00477693  0.33861411  0.00474379  1
  Fe  Fe4  1  0.17088791  0.50398450  0.17069813  1
  Fe  Fe5  1  1.00295359  0.33743982  0.33739539  1
  Fe  Fe6  1  1.00356843  0.67027095  1.00391372  1
  Fe  Fe7  1  0.17074019  0.83740130  0.17115475  1
  Fe  Fe8  1  1.00298703  0.67130830  0.33751844  1
  Fe  Fe9  1  0.33736147  0.00414099  1.00395677  1
  Fe  Fe10  1  0.50434856  0.17055706  0.17090877  1
  Fe  Fe11  1  0.33822619  1.00332369  0.33772319  1
  Fe  Fe12  1  0.33718968  0.33707371  0.00440285  1
  Fe  Fe13  1  0.50416206  0.50432742  0.17102771  1
  Fe  Fe14  1  0.33834270  0.33718891  0.33710977  1
  Fe  Fe15  1  0.33769155  0.67110636  0.00427926  1
  Ni  Ni16  1  0.50370075  0.83748087  0.17159693  1
  Fe  Fe17  1  0.33855887  0.67180921  0.33751842  1
  Fe  Fe18  1  0.66952436  1.00293809  0.00573510  1
  Fe  Fe19  1  0.83723483  0.17040842  0.17079094  1
  Ni  Ni20  1  0.67038272  1.00293759  0.33704960  1
  Fe  Fe21  1  0.67035465  0.33894261  0.00478879  1
  Ni  Ni22  1  0.83695699  0.50349971  0.17076933  1
  Fe  Fe23  1  0.67102498  0.33777255  0.33727260  1
  Fe  Fe24  1  0.67105976  0.67044383  0.00478506  1
  Fe  Fe25  1  0.83689330  0.83758661  0.17123831  1
  Ni  Ni26  1  0.67076999  0.67164364  0.33675548  1
  Fe  Fe27  1  0.17074024  0.17035376  0.50418494  1
  Fe  Fe28  1  0.00593799  1.00344158  0.66960524  1
  Fe  Fe29  1  0.17207608  0.17139011  0.83755739  1
  Fe  Fe30  1  0.17060710  0.50436057  0.50443054  1
  Ni  Ni31  1  0.00507691  0.33897766  0.67043382  1
  Fe  Fe32  1  0.16979407  0.50362549  0.83719339  1
  Ni  Ni33  1  0.17169271  0.83796766  0.50370286  1
  Fe  Fe34  1  0.00468867  0.67081902  0.67088584  1
  Fe  Fe35  1  0.17025465  0.83730908  0.83657263  1
  Fe  Fe36  1  0.50360716  0.16973627  0.50430307  1
  Ni  Ni37  1  0.33765476  0.00420611  0.67129108  1
  Fe  Fe38  1  0.50263940  0.17106083  0.83711081  1
  Fe  Fe39  1  0.50366272  0.50489740  0.50385279  1
  Fe  Fe40  1  0.33702300  0.33682192  0.67080931  1
  Fe  Fe41  1  0.50483728  0.50387474  0.83744046  1
  Fe  Fe42  1  0.50385945  0.83768838  0.50332030  1
  Fe  Fe43  1  0.33657643  0.67107015  0.67052414  1
  Fe  Fe44  1  0.50470774  0.83738750  0.83780674  1
  Fe  Fe45  1  0.83797590  0.17015626  0.50441903  1
  Fe  Fe46  1  0.66981444  1.00388462  0.66939739  1
  Cr  Cr47  1  0.83799725  0.17244008  0.83751737  1
  Fe  Fe48  1  0.83805249  0.50461252  0.50421948  1
  Fe  Fe49  1  0.67006419  0.33807347  0.67025809  1
  Ni  Ni50  1  0.83725973  0.50508336  0.83654332  1
  Fe  Fe51  1  0.83744014  0.83755474  0.50356183  1
  Fe  Fe52  1  0.67105743  0.67036772  0.67067764  1
  Fe  Fe53  1  0.83735998  0.83511350  0.83751984  1
" 