8914,Ni17Cr83_4,-232.939584627576, 154.503332130095,Ni17Cr83,"# generated using pymatgen
 data_CrNi5
_symmetry_space_group_name_H-M   'P 1'
_cell_length_a   7.47206721
_cell_length_b   7.47206721
_cell_length_c   10.56709879
_cell_angle_alpha   90.00000000
_cell_angle_beta   90.00000000
_cell_angle_gamma   90.00000000
_symmetry_Int_Tables_number   1
_chemical_formula_structural   CrNi5
_chemical_formula_sum   'Cr9 Ni45'
_cell_volume   589.98002327
_cell_formula_units_Z   9
loop_
 _symmetry_equiv_pos_site_id
 _symmetry_equiv_pos_as_xyz
  1  'x, y, z'
loop_
 _atom_site_type_symbol
 _atom_site_label
 _atom_site_symmetry_multiplicity
 _atom_site_fract_x
 _atom_site_fract_y
 _atom_site_fract_z
 _atom_site_occupancy
  Ni  Ni0  1  0.00138571  0.99790206  0.00017451  1
  Ni  Ni1  1  0.16793652  0.16436216  0.16632761  1
  Ni  Ni2  1  0.00236152  0.00092434  0.33165932  1
  Cr  Cr3  1  0.99927861  0.33237872  0.00008668  1
  Ni  Ni4  1  0.16919815  0.50074716  0.16564840  1
  Cr  Cr5  1  -0.00029775  0.33202403  0.33346389  1
  Ni  Ni6  1  0.99876632  0.66840942  0.00061101  1
  Ni  Ni7  1  0.16669343  0.83389744  0.16567490  1
  Cr  Cr8  1  0.00216606  0.66626302  0.33212045  1
  Ni  Ni9  1  0.33156714  0.99947736  0.99956554  1
  Ni  Ni10  1  0.49808592  0.16864047  0.16631784  1
  Ni  Ni11  1  0.33156819  0.99963351  0.33295870  1
  Ni  Ni12  1  0.33443137  0.33130319  0.00174408  1
  Ni  Ni13  1  0.49898842  0.49860646  0.16569806  1
  Ni  Ni14  1  0.33440606  0.33283235  0.33272378  1
  Ni  Ni15  1  0.33299890  0.66818662  0.00194060  1
  Ni  Ni16  1  0.49713362  0.83175518  0.16562204  1
  Ni  Ni17  1  0.33299103  0.66652815  0.33313737  1
  Cr  Cr18  1  0.66558695  0.99953209  0.99921687  1
  Ni  Ni19  1  0.83300666  0.16617834  0.16689996  1
  Cr  Cr20  1  0.66509964  0.00165164  0.33231441  1
  Ni  Ni21  1  0.66570717  0.33403671  0.00102169  1
  Ni  Ni22  1  0.83082167  0.49980470  0.16432991  1
  Ni  Ni23  1  0.66479539  0.33268417  0.33276649  1
  Ni  Ni24  1  0.66721771  0.66563047  0.00061212  1
  Ni  Ni25  1  0.83516375  0.83302187  0.16434014  1
  Cr  Cr26  1  0.66385699  0.66447551  0.33212551  1
  Ni  Ni27  1  0.16719167  0.16554775  0.50035189  1
  Ni  Ni28  1  0.00039519  0.00072071  0.66712093  1
  Ni  Ni29  1  0.16707146  0.16329148  0.83230920  1
  Ni  Ni30  1  0.16849972  0.49969263  0.50127586  1
  Ni  Ni31  1  0.99860456  0.33246262  0.66523171  1
  Cr  Cr32  1  0.16623792  0.50036983  0.83231087  1
  Ni  Ni33  1  0.16877361  0.83375954  0.50013599  1
  Ni  Ni34  1  0.99949633  0.66581413  0.66648756  1
  Ni  Ni35  1  0.16578370  0.83507165  0.83320042  1
  Ni  Ni36  1  0.49880845  0.16777125  0.50035278  1
  Ni  Ni37  1  0.33332335  0.99947774  0.66647184  1
  Ni  Ni38  1  0.49893465  0.16557145  0.83230574  1
  Ni  Ni39  1  0.49865360  0.49856914  0.49993163  1
  Ni  Ni40  1  0.33265659  0.33119573  0.66454862  1
  Cr  Cr41  1  0.50089042  0.49918028  0.83367883  1
  Ni  Ni42  1  0.49608128  0.83264744  0.50147001  1
  Ni  Ni43  1  0.33297759  0.66828875  0.66396184  1
  Ni  Ni44  1  0.49907211  0.83391513  0.83188758  1
  Ni  Ni45  1  0.83299976  0.16814750  0.50099394  1
  Ni  Ni46  1  0.66527150  0.00038752  0.66711510  1
  Ni  Ni47  1  0.83299618  0.16584006  0.83104009  1
  Ni  Ni48  1  0.83183259  0.49703091  0.50254917  1
  Ni  Ni49  1  0.66771940  0.33212697  0.66522122  1
  Ni  Ni50  1  0.83188393  0.50072844  0.83212828  1
  Cr  Cr51  1  0.83419530  0.83446787  0.50165436  1
  Ni  Ni52  1  0.66647817  0.66647230  0.66650120  1
  Ni  Ni53  1  0.83411772  0.83242593  0.83252334  1
" 