2461,Ni17Cr83_15,-233.032149857397, 157.549127677946,Ni17Cr83,"# generated using pymatgen
 data_CrNi5
_symmetry_space_group_name_H-M   'P 1'
_cell_length_a   7.47521114
_cell_length_b   7.47521114
_cell_length_c   10.57154497
_cell_angle_alpha   90.00000000
_cell_angle_beta   90.00000000
_cell_angle_gamma   90.00000000
_symmetry_Int_Tables_number   1
_chemical_formula_structural   CrNi5
_chemical_formula_sum   'Cr9 Ni45'
_cell_volume   590.72505251
_cell_formula_units_Z   9
loop_
 _symmetry_equiv_pos_site_id
 _symmetry_equiv_pos_as_xyz
  1  'x, y, z'
loop_
 _atom_site_type_symbol
 _atom_site_label
 _atom_site_symmetry_multiplicity
 _atom_site_fract_x
 _atom_site_fract_y
 _atom_site_fract_z
 _atom_site_occupancy
  Ni  Ni0  1  0.99927460  0.99714964  0.00128286  1
  Ni  Ni1  1  0.16462882  0.16537759  0.16724173  1
  Ni  Ni2  1  0.00019555  -0.00027842  0.33227743  1
  Ni  Ni3  1  0.99792661  0.33498157  0.00151546  1
  Ni  Ni4  1  0.16472920  0.49940473  0.16588854  1
  Ni  Ni5  1  0.00018949  0.33243994  0.33169613  1
  Ni  Ni6  1  0.99901411  0.66627226  0.99928254  1
  Ni  Ni7  1  0.16562147  0.83357928  0.16520738  1
  Cr  Cr8  1  0.99846111  0.66620023  0.33276230  1
  Ni  Ni9  1  0.33293293  0.99821209  -0.00038878  1
  Ni  Ni10  1  0.50042371  0.16523544  0.16694350  1
  Ni  Ni11  1  0.33112177  0.00166631  0.33234258  1
  Cr  Cr12  1  0.33345040  0.33223094  0.99889141  1
  Cr  Cr13  1  0.49987978  0.50059880  0.16778800  1
  Ni  Ni14  1  0.33217954  0.33155614  0.33411749  1
  Ni  Ni15  1  0.33074272  0.66756385  0.99755250  1
  Cr  Cr16  1  0.49886905  0.83254072  0.16655116  1
  Ni  Ni17  1  0.33084971  0.66506660  0.33374200  1
  Ni  Ni18  1  0.66616816  0.99942478  0.99924478  1
  Ni  Ni19  1  0.83335519  0.16618738  0.16590034  1
  Ni  Ni20  1  0.66707670  0.00060720  0.33200582  1
  Ni  Ni21  1  0.66752599  0.33278281  0.99944478  1
  Ni  Ni22  1  0.83337320  0.49829454  0.16511382  1
  Ni  Ni23  1  0.66601848  0.33264739  0.33263993  1
  Ni  Ni24  1  0.66854517  0.66615129  0.99787418  1
  Ni  Ni25  1  0.83320773  0.83385193  0.16553988  1
  Ni  Ni26  1  0.66802277  0.66502499  0.33382905  1
  Ni  Ni27  1  0.16621876  0.16717062  0.49857705  1
  Ni  Ni28  1  0.99898959  0.99599817  0.66484915  1
  Cr  Cr29  1  0.16363691  0.16664271  0.83220226  1
  Ni  Ni30  1  0.16703582  0.49855147  0.50038083  1
  Ni  Ni31  1  0.00031085  0.33628570  0.66513999  1
  Ni  Ni32  1  0.16528265  0.50193822  0.83198693  1
  Ni  Ni33  1  0.16504118  0.83265480  0.49948819  1
  Ni  Ni34  1  0.99905817  0.66609875  0.66629941  1
  Ni  Ni35  1  0.16539884  0.83033094  0.83378424  1
  Ni  Ni36  1  0.49905716  0.16839018  0.49863564  1
  Cr  Cr37  1  0.33346025  0.00002994  0.66659824  1
  Ni  Ni38  1  0.50137352  0.16613369  0.83277469  1
  Ni  Ni39  1  0.49927400  0.49840471  0.49940640  1
  Ni  Ni40  1  0.33397058  0.33500114  0.66501625  1
  Ni  Ni41  1  0.50021259  0.50105067  0.83160232  1
  Cr  Cr42  1  0.50034610  0.83074775  0.49738815  1
  Ni  Ni43  1  0.33182647  0.66380171  0.66705688  1
  Ni  Ni44  1  0.50023047  0.83118311  0.83401743  1
  Cr  Cr45  1  0.83382435  0.16616509  0.50044582  1
  Ni  Ni46  1  0.66660144  0.99847228  0.66711631  1
  Cr  Cr47  1  0.83304758  0.16664447  0.83238033  1
  Ni  Ni48  1  0.83195797  0.49963502  0.50024004  1
  Ni  Ni49  1  0.66414216  0.33470133  0.66640615  1
  Ni  Ni50  1  0.83287728  0.50076127  0.83295971  1
  Ni  Ni51  1  0.83333489  0.83229383  0.50045852  1
  Ni  Ni52  1  0.66747188  0.66516964  0.66662352  1
  Ni  Ni53  1  0.83274842  0.83148660  0.83239258  1
" 