5603,Ni17Fe73Cr8_11,-229.227021785808, 175.646601420446,Ni17Fe73Cr8,"# generated using pymatgen
 data_Cr2Fe13Ni3
_symmetry_space_group_name_H-M   'P 1'
_cell_length_a   7.42777172
_cell_length_b   7.42777172
_cell_length_c   10.50445550
_cell_angle_alpha   90.00000000
_cell_angle_beta   90.00000000
_cell_angle_gamma   90.00000000
_symmetry_Int_Tables_number   1
_chemical_formula_structural   Cr2Fe13Ni3
_chemical_formula_sum   'Cr6 Fe39 Ni9'
_cell_volume   579.54964082
_cell_formula_units_Z   3
loop_
 _symmetry_equiv_pos_site_id
 _symmetry_equiv_pos_as_xyz
  1  'x, y, z'
loop_
 _atom_site_type_symbol
 _atom_site_label
 _atom_site_symmetry_multiplicity
 _atom_site_fract_x
 _atom_site_fract_y
 _atom_site_fract_z
 _atom_site_occupancy
  Fe  Fe0  1  1.00246403  0.00423891  0.00288278  1
  Fe  Fe1  1  0.16884898  0.16892111  0.16902018  1
  Fe  Fe2  1  0.00500314  0.00361294  0.33695553  1
  Fe  Fe3  1  1.00222328  0.33534951  0.00319920  1
  Fe  Fe4  1  0.16758080  0.50200647  0.17006907  1
  Fe  Fe5  1  0.00266401  0.33484957  0.33446645  1
  Fe  Fe6  1  1.00243188  0.66838678  0.00275667  1
  Fe  Fe7  1  0.16972306  0.83704600  0.17026058  1
  Fe  Fe8  1  0.00403847  0.66949837  0.33602994  1
  Ni  Ni9  1  0.33709248  0.00463650  0.00453463  1
  Fe  Fe10  1  0.50326116  0.16929644  0.16791648  1
  Fe  Fe11  1  0.33422218  1.00208331  0.33539499  1
  Fe  Fe12  1  0.33661277  0.33361648  1.00248599  1
  Fe  Fe13  1  0.50403517  0.50129968  0.17162881  1
  Fe  Fe14  1  0.33641889  0.33609007  0.33639629  1
  Cr  Cr15  1  0.33514843  0.66890438  0.00439093  1
  Ni  Ni16  1  0.49910905  0.83718196  0.16950804  1
  Fe  Fe17  1  0.33649017  0.66979209  0.33617567  1
  Ni  Ni18  1  0.66851254  0.00501587  1.00157061  1
  Ni  Ni19  1  0.83658830  0.17279267  0.16808372  1
  Cr  Cr20  1  0.66917233  0.00334851  0.33695299  1
  Fe  Fe21  1  0.66912848  0.33373406  1.00260883  1
  Ni  Ni22  1  0.83635243  0.49932908  0.16942849  1
  Fe  Fe23  1  0.66882741  0.33706253  0.33547988  1
  Cr  Cr24  1  0.66975692  0.66991840  1.00200244  1
  Cr  Cr25  1  0.83730251  0.83580009  0.16846627  1
  Fe  Fe26  1  0.66733808  0.66742567  0.33527628  1
  Fe  Fe27  1  0.16973178  0.16958498  0.50258807  1
  Fe  Fe28  1  1.00106434  0.00371585  0.66803891  1
  Fe  Fe29  1  0.16973117  0.17076398  0.83636245  1
  Fe  Fe30  1  0.17140312  0.50334489  0.50268256  1
  Fe  Fe31  1  1.00225974  0.33455246  0.67021812  1
  Fe  Fe32  1  0.16846993  0.50035305  0.83523731  1
  Ni  Ni33  1  0.16970404  0.83754550  0.50187209  1
  Fe  Fe34  1  1.00187852  0.66969203  0.66910263  1
  Cr  Cr35  1  0.16923782  0.83764328  0.83716397  1
  Fe  Fe36  1  0.50201778  0.17038513  0.50414369  1
  Fe  Fe37  1  0.33744587  0.00365768  0.66878507  1
  Fe  Fe38  1  0.50286051  0.16851012  0.83591187  1
  Ni  Ni39  1  0.50226331  0.50187787  0.50259740  1
  Fe  Fe40  1  0.33739008  0.33578803  0.66903776  1
  Fe  Fe41  1  0.50253847  0.50097893  0.83338204  1
  Fe  Fe42  1  0.50174663  0.83465979  0.50311627  1
  Fe  Fe43  1  0.33780568  0.66854678  0.66813267  1
  Fe  Fe44  1  0.50437156  0.83851189  0.83551477  1
  Fe  Fe45  1  0.83621439  0.16847059  0.50349908  1
  Ni  Ni46  1  0.66974425  0.00279142  0.66947229  1
  Fe  Fe47  1  0.83535887  0.16880786  0.83611604  1
  Cr  Cr48  1  0.83373093  0.50166781  0.50201086  1
  Ni  Ni49  1  0.66894020  0.33447602  0.66962226  1
  Fe  Fe50  1  0.83691252  0.50185343  0.83525569  1
  Fe  Fe51  1  0.83665251  0.83639379  0.50366178  1
  Fe  Fe52  1  0.66819752  0.66967295  0.67006267  1
  Fe  Fe53  1  0.83474969  0.83728459  0.83523805  1
" 