6228,Ni17Fe81Cr1_17,-230.418234891082, 171.323480123777,Ni17Fe81Cr1,"# generated using pymatgen
 data_CrFe44Ni9
_symmetry_space_group_name_H-M   'P 1'
_cell_length_a   7.40446104
_cell_length_b   7.40446104
_cell_length_c   10.47148922
_cell_angle_alpha   90.00000000
_cell_angle_beta   90.00000000
_cell_angle_gamma   90.00000000
_symmetry_Int_Tables_number   1
_chemical_formula_structural   CrFe44Ni9
_chemical_formula_sum   'Cr1 Fe44 Ni9'
_cell_volume   574.11032073
_cell_formula_units_Z   1
loop_
 _symmetry_equiv_pos_site_id
 _symmetry_equiv_pos_as_xyz
  1  'x, y, z'
loop_
 _atom_site_type_symbol
 _atom_site_label
 _atom_site_symmetry_multiplicity
 _atom_site_fract_x
 _atom_site_fract_y
 _atom_site_fract_z
 _atom_site_occupancy
  Fe  Fe0  1  0.00422753  0.00430086  0.00460859  1
  Fe  Fe1  1  0.17136732  0.17077455  0.17092731  1
  Fe  Fe2  1  1.00392478  0.00445126  0.33733153  1
  Fe  Fe3  1  1.00419143  0.33803314  1.00378432  1
  Fe  Fe4  1  0.17140621  0.50367891  0.17092704  1
  Fe  Fe5  1  0.00623174  0.33771959  0.33771838  1
  Fe  Fe6  1  0.00422814  0.67034285  1.00331242  1
  Fe  Fe7  1  0.17133024  0.83822460  0.17097075  1
  Fe  Fe8  1  0.00423764  0.67050666  0.33823293  1
  Fe  Fe9  1  0.33802991  1.00422297  1.00385911  1
  Ni  Ni10  1  0.50361553  0.16918789  0.17028104  1
  Fe  Fe11  1  0.33794511  0.00468547  0.33760962  1
  Fe  Fe12  1  0.33751668  0.33756372  0.00448966  1
  Fe  Fe13  1  0.50341400  0.50456113  0.17067340  1
  Fe  Fe14  1  0.33602443  0.33786987  0.33771637  1
  Fe  Fe15  1  0.33755877  0.67089267  1.00389841  1
  Fe  Fe16  1  0.50426039  0.83810522  0.17033463  1
  Fe  Fe17  1  0.33778304  0.67012111  0.33795399  1
  Fe  Fe18  1  0.67042164  0.00426013  1.00389622  1
  Fe  Fe19  1  0.83797234  0.16992911  0.17008200  1
  Fe  Fe20  1  0.67080792  1.00268933  0.33768798  1
  Fe  Fe21  1  0.67097094  0.33756349  0.00467839  1
  Fe  Fe22  1  0.83785634  0.50460037  0.16941327  1
  Cr  Cr23  1  0.67043474  0.33755968  0.33771141  1
  Fe  Fe24  1  0.67089261  0.67085600  1.00393392  1
  Fe  Fe25  1  0.83708782  0.83814796  0.17108178  1
  Fe  Fe26  1  0.67065548  0.67242942  0.33764277  1
  Fe  Fe27  1  0.17164512  0.17167504  0.50427683  1
  Fe  Fe28  1  1.00415010  1.00382039  0.67073860  1
  Fe  Fe29  1  0.17113167  0.17112958  0.83747468  1
  Ni  Ni30  1  0.17098332  0.50390980  0.50358550  1
  Fe  Fe31  1  0.00443318  0.33763923  0.67117156  1
  Ni  Ni32  1  0.16946250  0.50410588  0.83751098  1
  Fe  Fe33  1  0.17132895  0.83657095  0.50447379  1
  Ni  Ni34  1  0.00456402  0.66984052  0.67122219  1
  Fe  Fe35  1  0.17085777  0.83656840  0.83723490  1
  Fe  Fe36  1  0.50282238  0.17059408  0.50499581  1
  Ni  Ni37  1  0.33856996  0.00438434  0.67113061  1
  Fe  Fe38  1  0.50422645  0.17090301  0.83767513  1
  Ni  Ni39  1  0.50259128  0.50520329  0.50555526  1
  Fe  Fe40  1  0.33727195  0.33772173  0.67047302  1
  Fe  Fe41  1  0.50430306  0.50470730  0.83727553  1
  Fe  Fe42  1  0.50374701  0.83705434  0.50518216  1
  Fe  Fe43  1  0.33758662  0.67148856  0.67082779  1
  Ni  Ni44  1  0.50450256  0.83893027  0.83754779  1
  Fe  Fe45  1  0.83821054  0.17079563  0.50519893  1
  Ni  Ni46  1  0.66956146  0.00503311  0.67057576  1
  Fe  Fe47  1  0.83732006  0.17120544  0.83739665  1
  Fe  Fe48  1  0.83868462  0.50535063  0.50571391  1
  Fe  Fe49  1  0.67097283  0.33740764  0.67059561  1
  Ni  Ni50  1  0.83907944  0.50410565  0.83692809  1
  Fe  Fe51  1  0.83760171  0.83653144  0.50444061  1
  Fe  Fe52  1  0.67062231  0.67177117  0.67110435  1
  Fe  Fe53  1  0.83759525  0.83649347  0.83715553  1
" 