1763,Ni17Fe73Cr8_13,-229.004954145103, 174.066286561872,Ni17Fe73Cr8,"# generated using pymatgen
 data_Cr2Fe13Ni3
_symmetry_space_group_name_H-M   'P 1'
_cell_length_a   7.42688624
_cell_length_b   7.42688624
_cell_length_c   10.50320324
_cell_angle_alpha   90.00000000
_cell_angle_beta   90.00000000
_cell_angle_gamma   90.00000000
_symmetry_Int_Tables_number   1
_chemical_formula_structural   Cr2Fe13Ni3
_chemical_formula_sum   'Cr6 Fe39 Ni9'
_cell_volume   579.34239775
_cell_formula_units_Z   3
loop_
 _symmetry_equiv_pos_site_id
 _symmetry_equiv_pos_as_xyz
  1  'x, y, z'
loop_
 _atom_site_type_symbol
 _atom_site_label
 _atom_site_symmetry_multiplicity
 _atom_site_fract_x
 _atom_site_fract_y
 _atom_site_fract_z
 _atom_site_occupancy
  Fe  Fe0  1  0.00451899  0.00325492  0.00316299  1
  Ni  Ni1  1  0.16870042  0.16895174  0.16976720  1
  Fe  Fe2  1  0.00279902  0.00447342  0.33551206  1
  Fe  Fe3  1  1.00228083  0.33545973  0.00312857  1
  Fe  Fe4  1  0.16855467  0.49943841  0.16763900  1
  Fe  Fe5  1  0.00430309  0.33486277  0.33546723  1
  Fe  Fe6  1  1.00235945  0.66922268  0.00286356  1
  Fe  Fe7  1  0.16844378  0.83716737  0.16782771  1
  Cr  Cr8  1  0.00270807  0.66864854  0.33586857  1
  Fe  Fe9  1  0.33322313  0.00285962  0.00434841  1
  Fe  Fe10  1  0.50143060  0.17159753  0.16917907  1
  Fe  Fe11  1  0.33623316  0.00403797  0.33603876  1
  Fe  Fe12  1  0.33501210  0.33664987  0.00356504  1
  Ni  Ni13  1  0.50315802  0.50450395  0.16779946  1
  Fe  Fe14  1  0.33411894  0.33525917  0.33540512  1
  Fe  Fe15  1  0.33497411  0.66853743  0.00365298  1
  Fe  Fe16  1  0.50326684  0.83646398  0.16996994  1
  Cr  Cr17  1  0.33540781  0.66829863  0.33593512  1
  Cr  Cr18  1  0.67142618  0.00462506  0.00478340  1
  Ni  Ni19  1  0.83862996  0.16969525  0.16995470  1
  Fe  Fe20  1  0.66979351  1.00066898  0.33625703  1
  Fe  Fe21  1  0.67062975  0.33825572  0.00452593  1
  Ni  Ni22  1  0.83590269  0.50265543  0.16891319  1
  Cr  Cr23  1  0.66903793  0.33502590  0.33608950  1
  Fe  Fe24  1  0.67039161  0.66757666  0.00285561  1
  Fe  Fe25  1  0.83659451  0.83563051  0.16960218  1
  Fe  Fe26  1  0.66904354  0.67012783  0.33610491  1
  Fe  Fe27  1  0.16996785  0.16899539  0.50201902  1
  Fe  Fe28  1  1.00177026  1.00230381  0.66950472  1
  Fe  Fe29  1  0.16828085  0.16983673  0.83669005  1
  Ni  Ni30  1  0.16784271  0.50050713  0.50291548  1
  Fe  Fe31  1  1.00201212  0.33664810  0.66942367  1
  Ni  Ni32  1  0.16793193  0.50273619  0.83669602  1
  Fe  Fe33  1  0.17001505  0.83668920  0.50413015  1
  Fe  Fe34  1  1.00253867  0.66887921  0.66903869  1
  Fe  Fe35  1  0.16806781  0.83552847  0.83622186  1
  Fe  Fe36  1  0.50116058  0.16878023  0.50430108  1
  Fe  Fe37  1  0.33594599  1.00169481  0.66740019  1
  Cr  Cr38  1  0.50330733  0.16930516  0.83557104  1
  Fe  Fe39  1  0.50211374  0.50355474  0.50373864  1
  Fe  Fe40  1  0.33544290  0.33781877  0.66887417  1
  Fe  Fe41  1  0.50197221  0.50273827  0.83643078  1
  Ni  Ni42  1  0.50421743  0.83727618  0.50272627  1
  Fe  Fe43  1  0.33567777  0.66845096  0.66762074  1
  Cr  Cr44  1  0.50332099  0.83520871  0.83560344  1
  Fe  Fe45  1  0.83725077  0.16837226  0.50288185  1
  Ni  Ni46  1  0.67080208  0.00328996  0.66786576  1
  Fe  Fe47  1  0.83850201  0.17009556  0.83539635  1
  Fe  Fe48  1  0.83575368  0.50348860  0.50363835  1
  Fe  Fe49  1  0.67052444  0.33683980  0.66817214  1
  Fe  Fe50  1  0.83537007  0.50318674  0.83626609  1
  Fe  Fe51  1  0.83583289  0.83583829  0.50389414  1
  Ni  Ni52  1  0.66953839  0.66890433  0.66835785  1
  Fe  Fe53  1  0.83790101  0.83508762  0.83440848  1
" 