6308,Ni17Fe73Cr8_0,-229.089812110747, 171.950121856484,Ni17Fe73Cr8,"# generated using pymatgen
 data_Cr2Fe13Ni3
_symmetry_space_group_name_H-M   'P 1'
_cell_length_a   7.43383526
_cell_length_b   7.43383526
_cell_length_c   10.51303064
_cell_angle_alpha   90.00000000
_cell_angle_beta   90.00000000
_cell_angle_gamma   90.00000000
_symmetry_Int_Tables_number   1
_chemical_formula_structural   Cr2Fe13Ni3
_chemical_formula_sum   'Cr6 Fe39 Ni9'
_cell_volume   580.97011816
_cell_formula_units_Z   3
loop_
 _symmetry_equiv_pos_site_id
 _symmetry_equiv_pos_as_xyz
  1  'x, y, z'
loop_
 _atom_site_type_symbol
 _atom_site_label
 _atom_site_symmetry_multiplicity
 _atom_site_fract_x
 _atom_site_fract_y
 _atom_site_fract_z
 _atom_site_occupancy
  Fe  Fe0  1  1.00099390  1.00056920  0.00272955  1
  Fe  Fe1  1  0.16811056  0.16908319  0.17047375  1
  Ni  Ni2  1  1.00207800  0.00394788  0.33566744  1
  Cr  Cr3  1  1.00166517  0.33643544  0.00330980  1
  Fe  Fe4  1  0.16952394  0.50182396  0.16971386  1
  Fe  Fe5  1  1.00137294  0.33436945  0.33565590  1
  Fe  Fe6  1  1.00067646  0.67018998  0.00250859  1
  Fe  Fe7  1  0.16749867  0.83579770  0.17016834  1
  Cr  Cr8  1  0.00287797  0.66864482  0.33515734  1
  Cr  Cr9  1  0.33655641  0.00301551  1.00208578  1
  Fe  Fe10  1  0.50374704  0.17064539  0.16968977  1
  Fe  Fe11  1  0.33563309  1.00163955  0.33557062  1
  Fe  Fe12  1  0.33692072  0.33543959  1.00211302  1
  Fe  Fe13  1  0.50343927  0.50136918  0.17011793  1
  Fe  Fe14  1  0.33531410  0.33574634  0.33536784  1
  Cr  Cr15  1  0.33494409  0.66796194  1.00170982  1
  Fe  Fe16  1  0.50390388  0.83468427  0.17056229  1
  Ni  Ni17  1  0.33659327  0.66923090  0.33632912  1
  Fe  Fe18  1  0.66999337  1.00196555  1.00163308  1
  Fe  Fe19  1  0.83484252  0.16861923  0.17065077  1
  Fe  Fe20  1  0.66899170  1.00212548  0.33624510  1
  Fe  Fe21  1  0.66733973  0.33574888  0.00312358  1
  Ni  Ni22  1  0.83440001  0.50196994  0.16833985  1
  Ni  Ni23  1  0.66908281  0.33456946  0.33596972  1
  Fe  Fe24  1  0.67049429  0.66898583  1.00156920  1
  Fe  Fe25  1  0.83530596  0.83609813  0.16811613  1
  Fe  Fe26  1  0.66761488  0.66860080  0.33632702  1
  Fe  Fe27  1  0.16797934  0.16854085  0.50211081  1
  Fe  Fe28  1  0.00299902  0.00359859  0.66818746  1
  Fe  Fe29  1  0.16946733  0.16836605  0.83412034  1
  Fe  Fe30  1  0.17023743  0.50102226  0.50208297  1
  Fe  Fe31  1  1.00102548  0.33447684  0.66866109  1
  Fe  Fe32  1  0.17030049  0.50193150  0.83490744  1
  Fe  Fe33  1  0.16982507  0.83713886  0.50158389  1
  Cr  Cr34  1  1.00177957  0.66859824  0.66894180  1
  Fe  Fe35  1  0.16860586  0.83640342  0.83494290  1
  Fe  Fe36  1  0.50283894  0.17000442  0.50121478  1
  Fe  Fe37  1  0.33501160  1.00093815  0.66930771  1
  Fe  Fe38  1  0.50209799  0.16993292  0.83579166  1
  Fe  Fe39  1  0.50353398  0.50251746  0.50197270  1
  Fe  Fe40  1  0.33587903  0.33601731  0.66922039  1
  Fe  Fe41  1  0.50313304  0.50223794  0.83460859  1
  Ni  Ni42  1  0.50025509  0.83418221  0.50109244  1
  Fe  Fe43  1  0.33831555  0.66973883  0.66864046  1
  Ni  Ni44  1  0.50240022  0.83457507  0.83504557  1
  Ni  Ni45  1  0.83773717  0.17119516  0.50097529  1
  Cr  Cr46  1  0.66833605  0.00228782  0.66821404  1
  Fe  Fe47  1  0.83513925  0.16823951  0.83511367  1
  Ni  Ni48  1  0.83420294  0.49923717  0.50269446  1
  Fe  Fe49  1  0.66979993  0.33777849  0.66785898  1
  Fe  Fe50  1  0.83326403  0.50310009  0.83536334  1
  Fe  Fe51  1  0.83439206  0.83643129  0.50161084  1
  Ni  Ni52  1  0.66733066  0.66750160  0.66849291  1
  Fe  Fe53  1  0.83482678  0.83535902  0.83696696  1
" 