3140,Ni17Fe73Cr8_19,-229.045190813236, 175.96780425775,Ni17Fe73Cr8,"# generated using pymatgen
 data_Cr2Fe13Ni3
_symmetry_space_group_name_H-M   'P 1'
_cell_length_a   7.42832467
_cell_length_b   7.42832467
_cell_length_c   10.50523749
_cell_angle_alpha   90.00000000
_cell_angle_beta   90.00000000
_cell_angle_gamma   90.00000000
_symmetry_Int_Tables_number   1
_chemical_formula_structural   Cr2Fe13Ni3
_chemical_formula_sum   'Cr6 Fe39 Ni9'
_cell_volume   579.67908180
_cell_formula_units_Z   3
loop_
 _symmetry_equiv_pos_site_id
 _symmetry_equiv_pos_as_xyz
  1  'x, y, z'
loop_
 _atom_site_type_symbol
 _atom_site_label
 _atom_site_symmetry_multiplicity
 _atom_site_fract_x
 _atom_site_fract_y
 _atom_site_fract_z
 _atom_site_occupancy
  Fe  Fe0  1  0.00296541  0.00431017  1.00130170  1
  Fe  Fe1  1  0.17050121  0.16973083  0.16987521  1
  Fe  Fe2  1  1.00149354  0.00437454  0.33581166  1
  Cr  Cr3  1  0.00305300  0.33459328  0.00327020  1
  Fe  Fe4  1  0.17095943  0.50117560  0.17170066  1
  Fe  Fe5  1  0.00340621  0.33597554  0.33632420  1
  Cr  Cr6  1  0.00359666  0.66981174  1.00132916  1
  Cr  Cr7  1  0.17026043  0.83833112  0.16937864  1
  Fe  Fe8  1  1.00154059  0.66752848  0.33617960  1
  Fe  Fe9  1  0.33491279  0.00446548  1.00216485  1
  Fe  Fe10  1  0.50153147  0.16985918  0.17030372  1
  Ni  Ni11  1  0.33763705  0.00403516  0.33598717  1
  Fe  Fe12  1  0.33808931  0.33591990  1.00202854  1
  Fe  Fe13  1  0.50275415  0.50255779  0.16809626  1
  Fe  Fe14  1  0.33545460  0.33554722  0.33617064  1
  Fe  Fe15  1  0.33940690  0.66747334  1.00093365  1
  Fe  Fe16  1  0.50308110  0.83541327  0.17061560  1
  Fe  Fe17  1  0.33730198  0.66789506  0.33675150  1
  Cr  Cr18  1  0.66876932  0.00341294  1.00187245  1
  Fe  Fe19  1  0.83577565  0.16935072  0.17062907  1
  Fe  Fe20  1  0.66857415  1.00250148  0.33563381  1
  Ni  Ni21  1  0.66693089  0.33565082  0.00390014  1
  Fe  Fe22  1  0.83407993  0.50254961  0.17104415  1
  Fe  Fe23  1  0.66892538  0.33549974  0.33609491  1
  Fe  Fe24  1  0.66675230  0.66746498  0.00278245  1
  Fe  Fe25  1  0.83434544  0.83588442  0.17088450  1
  Fe  Fe26  1  0.66899612  0.66981085  0.33672673  1
  Fe  Fe27  1  0.16895980  0.17173786  0.50276811  1
  Fe  Fe28  1  1.00132973  0.00314266  0.67072272  1
  Ni  Ni29  1  0.17033371  0.16588618  0.83589289  1
  Ni  Ni30  1  0.16835367  0.50181454  0.50292973  1
  Fe  Fe31  1  0.00331440  0.33651875  0.66824803  1
  Fe  Fe32  1  0.17345100  0.50215371  0.83344430  1
  Cr  Cr33  1  0.17029851  0.83618396  0.50287229  1
  Fe  Fe34  1  1.00188558  0.66804448  0.66873312  1
  Fe  Fe35  1  0.17086564  0.83636477  0.83486765  1
  Fe  Fe36  1  0.50243667  0.17017938  0.50232286  1
  Fe  Fe37  1  0.33783497  0.00320717  0.66978543  1
  Fe  Fe38  1  0.50201788  0.17173139  0.83517997  1
  Fe  Fe39  1  0.50271137  0.50312386  0.50429262  1
  Fe  Fe40  1  0.33677541  0.33747272  0.66969451  1
  Ni  Ni41  1  0.50294985  0.50261177  0.83665258  1
  Fe  Fe42  1  0.50389590  0.83452065  0.50273389  1
  Ni  Ni43  1  0.33634204  0.66865626  0.67006335  1
  Fe  Fe44  1  0.50119490  0.83423021  0.83447527  1
  Fe  Fe45  1  0.83647328  0.17060645  0.50288942  1
  Fe  Fe46  1  0.66869204  1.00184576  0.66938466  1
  Fe  Fe47  1  0.83539817  0.16882165  0.83432804  1
  Ni  Ni48  1  0.83512420  0.50200026  0.50220723  1
  Ni  Ni49  1  0.66932467  0.33511741  0.66855312  1
  Cr  Cr50  1  0.83124737  0.50210507  0.83430893  1
  Fe  Fe51  1  0.83467859  0.83437656  0.50285406  1
  Ni  Ni52  1  0.66796984  0.66969850  0.66876448  1
  Fe  Fe53  1  0.83579351  0.83747241  0.83398725  1
" 