239,Ni18Fe61Cr20_11,-227.222705212178, 178.107357629012,Ni18Fe61Cr20,"# generated using pymatgen
 data_Cr4Fe11Ni3
_symmetry_space_group_name_H-M   'P 1'
_cell_length_a   7.45779455
_cell_length_b   7.45779455
_cell_length_c   10.54691420
_cell_angle_alpha   90.00000000
_cell_angle_beta   90.00000000
_cell_angle_gamma   90.00000000
_symmetry_Int_Tables_number   1
_chemical_formula_structural   Cr4Fe11Ni3
_chemical_formula_sum   'Cr12 Fe33 Ni9'
_cell_volume   586.60565181
_cell_formula_units_Z   3
loop_
 _symmetry_equiv_pos_site_id
 _symmetry_equiv_pos_as_xyz
  1  'x, y, z'
loop_
 _atom_site_type_symbol
 _atom_site_label
 _atom_site_symmetry_multiplicity
 _atom_site_fract_x
 _atom_site_fract_y
 _atom_site_fract_z
 _atom_site_occupancy
  Ni  Ni0  1  0.00111831  0.00084511  0.00078283  1
  Fe  Fe1  1  0.16864927  0.16515707  0.16482912  1
  Cr  Cr2  1  0.99968782  0.00105597  0.33149260  1
  Ni  Ni3  1  0.00202053  0.33130439  1.00059901  1
  Cr  Cr4  1  0.16716995  0.49897433  0.16672372  1
  Fe  Fe5  1  0.99997988  0.33354978  0.33258620  1
  Fe  Fe6  1  0.00077026  0.66886421  0.00166654  1
  Fe  Fe7  1  0.16857027  0.83503166  0.16588949  1
  Fe  Fe8  1  0.00079432  0.66700041  0.33219700  1
  Ni  Ni9  1  0.33333822  0.00102556  1.00057365  1
  Fe  Fe10  1  0.49887759  0.16554058  0.16580081  1
  Fe  Fe11  1  0.33708726  0.00128464  0.33174631  1
  Ni  Ni12  1  0.33339253  0.33339988  1.00023366  1
  Fe  Fe13  1  0.50003862  0.50249972  0.16652698  1
  Fe  Fe14  1  0.33524996  0.33257238  0.33389161  1
  Fe  Fe15  1  0.33516287  0.66871573  1.00035516  1
  Ni  Ni16  1  0.50080816  0.83633883  0.16609110  1
  Fe  Fe17  1  0.33431309  0.66796774  0.33298400  1
  Ni  Ni18  1  0.66742491  0.99931365  0.00227964  1
  Fe  Fe19  1  0.83418519  0.16601805  0.16564631  1
  Fe  Fe20  1  0.66553328  0.00232750  0.33146208  1
  Cr  Cr21  1  0.66581983  0.33344669  0.00234231  1
  Fe  Fe22  1  0.83334505  0.50195712  0.16602924  1
  Fe  Fe23  1  0.66671166  0.33092272  0.33260315  1
  Ni  Ni24  1  0.66548653  0.66862019  0.00122387  1
  Ni  Ni25  1  0.83325447  0.83377837  0.16534287  1
  Cr  Cr26  1  0.66637440  0.66797860  0.33282137  1
  Fe  Fe27  1  0.16670641  0.16872786  0.50002741  1
  Fe  Fe28  1  0.00262608  0.00441602  0.66838588  1
  Fe  Fe29  1  0.16668193  0.16635090  0.83628101  1
  Fe  Fe30  1  0.16856605  0.49850074  0.49775347  1
  Fe  Fe31  1  0.00098077  0.33120994  0.66846607  1
  Fe  Fe32  1  0.16862720  0.49936126  0.83726713  1
  Cr  Cr33  1  0.16936714  0.83506871  0.49837557  1
  Cr  Cr34  1  0.00309084  0.66758770  0.66717037  1
  Fe  Fe35  1  0.16904346  0.83643349  0.83555352  1
  Fe  Fe36  1  0.50162944  0.16594872  0.50070467  1
  Fe  Fe37  1  0.33450543  0.00102510  0.66905062  1
  Ni  Ni38  1  0.49869400  0.16584933  0.83555495  1
  Fe  Fe39  1  0.50003294  0.49991216  0.49941745  1
  Cr  Cr40  1  0.33356361  0.33382198  0.66848809  1
  Fe  Fe41  1  0.50059911  0.50043724  0.83615829  1
  Fe  Fe42  1  0.50080329  0.83598442  0.49972662  1
  Cr  Cr43  1  0.33592449  0.66726159  0.66855774  1
  Fe  Fe44  1  0.50038589  0.83592979  0.83695243  1
  Fe  Fe45  1  0.83336495  0.16715455  0.50133420  1
  Fe  Fe46  1  0.66417423  0.00286774  0.66888813  1
  Fe  Fe47  1  0.83309989  0.16621100  0.83503250  1
  Cr  Cr48  1  0.83470686  0.49885498  0.50052821  1
  Fe  Fe49  1  0.66661846  0.33226111  0.66833322  1
  Cr  Cr50  1  0.83485653  0.50019994  0.83563305  1
  Cr  Cr51  1  0.83200220  0.83526352  0.50246352  1
  Fe  Fe52  1  0.66462827  0.66637877  0.66823109  1
  Cr  Cr53  1  0.83305585  0.83499007  0.83444367  1
" 