5042,Ni18Fe21Cr59_5,-215.669429305255, 173.791698136835,Ni18Fe21Cr59,"# generated using pymatgen
 data_Cr33Fe11Ni10
_symmetry_space_group_name_H-M   'P 1'
_cell_length_a   7.53723558
_cell_length_b   7.53723558
_cell_length_c   10.65926079
_cell_angle_alpha   90.00000000
_cell_angle_beta   90.00000000
_cell_angle_gamma   90.00000000
_symmetry_Int_Tables_number   1
_chemical_formula_structural   Cr33Fe11Ni10
_chemical_formula_sum   'Cr33 Fe11 Ni10'
_cell_volume   605.55175514
_cell_formula_units_Z   1
loop_
 _symmetry_equiv_pos_site_id
 _symmetry_equiv_pos_as_xyz
  1  'x, y, z'
loop_
 _atom_site_type_symbol
 _atom_site_label
 _atom_site_symmetry_multiplicity
 _atom_site_fract_x
 _atom_site_fract_y
 _atom_site_fract_z
 _atom_site_occupancy
  Cr  Cr0  1  0.99421469  -0.00279200  -0.00348969  1
  Ni  Ni1  1  0.16732832  0.16056922  0.16143935  1
  Cr  Cr2  1  0.99507821  -0.00437930  0.32341101  1
  Cr  Cr3  1  -0.00370512  0.32609977  0.99472102  1
  Cr  Cr4  1  0.16262927  0.49513906  0.16303905  1
  Cr  Cr5  1  -0.00146492  0.32840794  0.32799636  1
  Cr  Cr6  1  0.99276775  0.66303302  -0.00336664  1
  Cr  Cr7  1  0.16582700  0.83166776  0.16123520  1
  Cr  Cr8  1  0.99411686  0.66256501  0.32959325  1
  Ni  Ni9  1  0.33121680  -0.00182702  -0.00194650  1
  Fe  Fe10  1  0.49363501  0.16095927  0.16188572  1
  Ni  Ni11  1  0.33291213  -0.00097068  0.32788970  1
  Cr  Cr12  1  0.33119022  0.32963264  -0.00343946  1
  Fe  Fe13  1  0.49626306  0.49410730  0.16178151  1
  Cr  Cr14  1  0.33139642  0.32754016  0.32908631  1
  Fe  Fe15  1  0.33062237  0.66195516  0.99531614  1
  Cr  Cr16  1  0.49347422  0.82922498  0.16042876  1
  Cr  Cr17  1  0.33162754  0.65930404  0.33266002  1
  Cr  Cr18  1  0.66399221  0.99533907  0.99380889  1
  Cr  Cr19  1  0.82614836  0.16498672  0.16286058  1
  Cr  Cr20  1  0.65964829  0.99496886  0.33128666  1
  Fe  Fe21  1  0.66089911  0.32805976  0.99460768  1
  Cr  Cr22  1  0.82400907  0.49468040  0.16274056  1
  Fe  Fe23  1  0.65802330  0.32857762  0.32965496  1
  Fe  Fe24  1  0.65946892  0.66063734  -0.00373657  1
  Ni  Ni25  1  0.82513294  0.82757165  0.16110860  1
  Cr  Cr26  1  0.66034422  0.66228603  0.32840084  1
  Cr  Cr27  1  0.16358791  0.16301796  0.49534316  1
  Cr  Cr28  1  0.99073585  0.99529690  0.66601245  1
  Cr  Cr29  1  0.16300427  0.16221771  0.82871127  1
  Fe  Fe30  1  0.16352221  0.49443129  0.49816780  1
  Fe  Fe31  1  -0.00397671  0.32907688  0.66237686  1
  Cr  Cr32  1  0.16233395  0.49589121  0.82454259  1
  Cr  Cr33  1  0.16509432  0.82891759  0.49487250  1
  Ni  Ni34  1  0.99480040  0.65755923  0.66025158  1
  Cr  Cr35  1  0.16593523  0.82808939  0.83077868  1
  Fe  Fe36  1  0.49587988  0.16243589  0.49674017  1
  Cr  Cr37  1  0.33335973  -0.00233933  0.66006909  1
  Cr  Cr38  1  0.49706900  0.16236585  0.82645019  1
  Ni  Ni39  1  0.49585419  0.49243468  0.49660007  1
  Ni  Ni40  1  0.33106624  0.33114164  0.65955186  1
  Fe  Fe41  1  0.49592350  0.49316854  0.82783856  1
  Ni  Ni42  1  0.49430328  0.82921191  0.49562568  1
  Cr  Cr43  1  0.33019871  0.65704989  0.66007898  1
  Cr  Cr44  1  0.49308747  0.82825478  0.83025937  1
  Cr  Cr45  1  0.82559965  0.16567917  0.49832895  1
  Ni  Ni46  1  0.66163082  -0.00139062  0.66099384  1
  Ni  Ni47  1  0.82481205  0.16597353  0.82602764  1
  Cr  Cr48  1  0.82864716  0.49211780  0.49559714  1
  Fe  Fe49  1  0.65889042  0.32825070  0.66168674  1
  Cr  Cr50  1  0.82628271  0.49155999  0.82779504  1
  Cr  Cr51  1  0.82709318  0.82844408  0.49624240  1
  Cr  Cr52  1  0.66016986  0.66429119  0.66128719  1
  Cr  Cr53  1  0.82687000  0.82807990  0.82736846  1
" 