8409,Ni18Fe23Cr57_10,-216.246739685279, 171.073395043443,Ni18Fe23Cr57,"# generated using pymatgen
 data_Cr16Fe6Ni5
_symmetry_space_group_name_H-M   'P 1'
_cell_length_a   7.53242185
_cell_length_b   7.53242185
_cell_length_c   10.65245314
_cell_angle_alpha   90.00000000
_cell_angle_beta   90.00000000
_cell_angle_gamma   90.00000000
_symmetry_Int_Tables_number   1
_chemical_formula_structural   Cr16Fe6Ni5
_chemical_formula_sum   'Cr32 Fe12 Ni10'
_cell_volume   604.39227102
_cell_formula_units_Z   2
loop_
 _symmetry_equiv_pos_site_id
 _symmetry_equiv_pos_as_xyz
  1  'x, y, z'
loop_
 _atom_site_type_symbol
 _atom_site_label
 _atom_site_symmetry_multiplicity
 _atom_site_fract_x
 _atom_site_fract_y
 _atom_site_fract_z
 _atom_site_occupancy
  Fe  Fe0  1  0.99450586  -0.00406605  -0.00428472  1
  Fe  Fe1  1  0.16089519  0.16164736  0.16266678  1
  Cr  Cr2  1  -0.00414967  -0.00417442  0.32669580  1
  Cr  Cr3  1  -0.00262215  0.32598224  -0.00366567  1
  Cr  Cr4  1  0.16233445  0.49616533  0.16422123  1
  Fe  Fe5  1  0.99290236  0.32711943  0.32988828  1
  Cr  Cr6  1  0.99336943  0.66366359  0.99300410  1
  Fe  Fe7  1  0.16318072  0.82891173  0.16271950  1
  Cr  Cr8  1  -0.00431325  0.66414113  0.33233313  1
  Cr  Cr9  1  0.32820134  -0.00270293  -0.00396913  1
  Cr  Cr10  1  0.49870624  0.16058508  0.16314198  1
  Cr  Cr11  1  0.32800805  0.99474600  0.32935821  1
  Cr  Cr12  1  0.32787231  0.32589738  0.99352159  1
  Cr  Cr13  1  0.49604052  0.49723152  0.16156760  1
  Cr  Cr14  1  0.33203195  0.32741335  0.32874781  1
  Cr  Cr15  1  0.33046859  0.66334312  -0.00331177  1
  Fe  Fe16  1  0.49682914  0.82901997  0.16116418  1
  Fe  Fe17  1  0.33059568  0.66245690  0.33020784  1
  Ni  Ni18  1  0.66275518  0.99315699  0.99530546  1
  Fe  Fe19  1  0.82877596  0.16321466  0.16300409  1
  Cr  Cr20  1  0.66288415  -0.00121158  0.33031659  1
  Cr  Cr21  1  0.66202530  0.32881321  -0.00308580  1
  Cr  Cr22  1  0.82884489  0.49497487  0.16394991  1
  Ni  Ni23  1  0.66338692  0.32901068  0.33201682  1
  Ni  Ni24  1  0.66286844  0.66741640  0.99405704  1
  Cr  Cr25  1  0.82754151  0.83136798  0.15798959  1
  Cr  Cr26  1  0.66253190  0.66071336  0.33016111  1
  Cr  Cr27  1  0.16066555  0.16129828  0.49833508  1
  Cr  Cr28  1  0.99537386  0.99474608  0.66297067  1
  Fe  Fe29  1  0.16246909  0.15997248  0.82727006  1
  Cr  Cr30  1  0.16273616  0.49572447  0.49540755  1
  Fe  Fe31  1  0.99217443  0.32664356  0.66138515  1
  Cr  Cr32  1  0.16127209  0.49372365  0.82771903  1
  Ni  Ni33  1  0.16386495  0.82976492  0.49457782  1
  Cr  Cr34  1  0.99366933  0.66197066  0.66106047  1
  Cr  Cr35  1  0.16325876  0.83014213  0.82710224  1
  Fe  Fe36  1  0.49717792  0.16304804  0.49749811  1
  Ni  Ni37  1  0.33008422  -0.00408465  0.66162197  1
  Cr  Cr38  1  0.49809966  0.15874482  0.82533093  1
  Ni  Ni39  1  0.49724944  0.49278542  0.49452842  1
  Cr  Cr40  1  0.33149625  0.32693923  0.66489593  1
  Cr  Cr41  1  0.49678594  0.49727922  0.83133206  1
  Cr  Cr42  1  0.49439527  0.83081740  0.49625023  1
  Cr  Cr43  1  0.32983229  0.66357840  0.66072915  1
  Ni  Ni44  1  0.49764430  0.83289592  0.83040986  1
  Ni  Ni45  1  0.82652682  0.16605642  0.49470033  1
  Ni  Ni46  1  0.66131708  -0.00156665  0.66170366  1
  Cr  Cr47  1  0.82821251  0.15974957  0.82945906  1
  Fe  Fe48  1  0.82749748  0.49296554  0.49590297  1
  Ni  Ni49  1  0.66328442  0.32722429  0.65747035  1
  Cr  Cr50  1  0.82847472  0.49418171  0.82796579  1
  Cr  Cr51  1  0.82870360  0.83370451  0.49877933  1
  Cr  Cr52  1  0.66242477  0.66162024  0.66409857  1
  Fe  Fe53  1  0.82450381  0.83090278  0.82943937  1
" 