373,Ni18Fe61Cr20_1,-226.655941407819, 177.269763117283,Ni18Fe61Cr20,"# generated using pymatgen
 data_Cr4Fe11Ni3
_symmetry_space_group_name_H-M   'P 1'
_cell_length_a   7.45472315
_cell_length_b   7.45472315
_cell_length_c   10.54257058
_cell_angle_alpha   90.00000000
_cell_angle_beta   90.00000000
_cell_angle_gamma   90.00000000
_symmetry_Int_Tables_number   1
_chemical_formula_structural   Cr4Fe11Ni3
_chemical_formula_sum   'Cr12 Fe33 Ni9'
_cell_volume   585.88119118
_cell_formula_units_Z   3
loop_
 _symmetry_equiv_pos_site_id
 _symmetry_equiv_pos_as_xyz
  1  'x, y, z'
loop_
 _atom_site_type_symbol
 _atom_site_label
 _atom_site_symmetry_multiplicity
 _atom_site_fract_x
 _atom_site_fract_y
 _atom_site_fract_z
 _atom_site_occupancy
  Fe  Fe0  1  0.00104926  1.00065139  0.00201505  1
  Ni  Ni1  1  0.16768471  0.16699090  0.16645582  1
  Ni  Ni2  1  1.00050383  1.00075978  0.33445731  1
  Cr  Cr3  1  0.99995665  0.33325753  1.00066253  1
  Fe  Fe4  1  0.16869715  0.50008685  0.16851707  1
  Cr  Cr5  1  0.00113869  0.33334660  0.33654266  1
  Cr  Cr6  1  1.00061301  0.66749723  0.00245664  1
  Fe  Fe7  1  0.16716456  0.83761735  0.16946497  1
  Fe  Fe8  1  1.00022182  0.66894147  0.33501921  1
  Fe  Fe9  1  0.33272799  0.00181217  1.00051505  1
  Fe  Fe10  1  0.50011674  0.16716469  0.16768469  1
  Fe  Fe11  1  0.33131881  1.00076672  0.33391687  1
  Fe  Fe12  1  0.33672534  0.33242082  0.00200420  1
  Fe  Fe13  1  0.50174359  0.49832592  0.16878267  1
  Cr  Cr14  1  0.33424059  0.33416664  0.33702928  1
  Cr  Cr15  1  0.33498179  0.66959439  1.00064343  1
  Ni  Ni16  1  0.49909753  0.83324398  0.16891228  1
  Fe  Fe17  1  0.33287866  0.66948372  0.33290635  1
  Cr  Cr18  1  0.66575731  0.00128152  0.00088841  1
  Ni  Ni19  1  0.83492032  0.16850317  0.16825072  1
  Cr  Cr20  1  0.66689431  0.00101418  0.33511228  1
  Fe  Fe21  1  0.66680947  0.33392211  0.99979271  1
  Fe  Fe22  1  0.83212289  0.49981947  0.17010799  1
  Fe  Fe23  1  0.66874479  0.33430814  0.33573846  1
  Cr  Cr24  1  0.66714162  0.66810405  1.00074926  1
  Fe  Fe25  1  0.83508852  0.83628065  0.16976940  1
  Fe  Fe26  1  0.66909893  0.66617475  0.33376143  1
  Fe  Fe27  1  0.16761635  0.16269429  0.50088471  1
  Fe  Fe28  1  0.00106882  0.00163784  0.66511098  1
  Fe  Fe29  1  0.16758836  0.16393002  0.83407634  1
  Fe  Fe30  1  0.16761266  0.50530203  0.50199817  1
  Cr  Cr31  1  1.00038325  0.33361089  0.66479221  1
  Cr  Cr32  1  0.16959501  0.49933890  0.83270561  1
  Fe  Fe33  1  0.16520610  0.83433399  0.50127632  1
  Fe  Fe34  1  1.00077040  0.66871784  0.66545932  1
  Fe  Fe35  1  0.16767507  0.83731694  0.83232925  1
  Fe  Fe36  1  0.50242143  0.16856835  0.50360879  1
  Ni  Ni37  1  0.33403574  0.99987367  0.66743604  1
  Fe  Fe38  1  0.50056242  0.16853654  0.83182442  1
  Fe  Fe39  1  0.50390316  0.50085817  0.50200029  1
  Fe  Fe40  1  0.33642536  0.33162911  0.66537480  1
  Fe  Fe41  1  0.50367318  0.49839124  0.83220831  1
  Cr  Cr42  1  0.50044966  0.83438369  0.50154750  1
  Fe  Fe43  1  0.33498781  0.66696026  0.66777133  1
  Fe  Fe44  1  0.49893642  0.83595631  0.83165475  1
  Fe  Fe45  1  0.83251374  0.16569600  0.50142422  1
  Fe  Fe46  1  0.66759507  0.00387311  0.66677666  1
  Ni  Ni47  1  0.83383998  0.16724731  0.83302146  1
  Ni  Ni48  1  0.83351865  0.50227975  0.50128116  1
  Ni  Ni49  1  0.66799471  0.33427776  0.66674272  1
  Fe  Fe50  1  0.83209293  0.49900575  0.83193552  1
  Ni  Ni51  1  0.83450191  0.83323617  0.50099650  1
  Fe  Fe52  1  0.66761874  0.66612397  0.66675464  1
  Cr  Cr53  1  0.83461172  0.83532148  0.83148876  1
" 