3067,Ni18Fe23Cr57_18,-216.283639203051, 175.626114545161,Ni18Fe23Cr57,"# generated using pymatgen
 data_Cr16Fe6Ni5
_symmetry_space_group_name_H-M   'P 1'
_cell_length_a   7.53250508
_cell_length_b   7.53250508
_cell_length_c   10.65257085
_cell_angle_alpha   90.00000000
_cell_angle_beta   90.00000000
_cell_angle_gamma   90.00000000
_symmetry_Int_Tables_number   1
_chemical_formula_structural   Cr16Fe6Ni5
_chemical_formula_sum   'Cr32 Fe12 Ni10'
_cell_volume   604.41230565
_cell_formula_units_Z   2
loop_
 _symmetry_equiv_pos_site_id
 _symmetry_equiv_pos_as_xyz
  1  'x, y, z'
loop_
 _atom_site_type_symbol
 _atom_site_label
 _atom_site_symmetry_multiplicity
 _atom_site_fract_x
 _atom_site_fract_y
 _atom_site_fract_z
 _atom_site_occupancy
  Cr  Cr0  1  -0.00155763  -0.00259565  0.00019445  1
  Cr  Cr1  1  0.16220123  0.16416616  0.16262781  1
  Ni  Ni2  1  0.00267527  -0.00420695  0.32906640  1
  Ni  Ni3  1  0.99508266  0.33303492  0.99282817  1
  Cr  Cr4  1  0.16430121  0.49877471  0.16034475  1
  Cr  Cr5  1  0.99484286  0.32951175  0.33120664  1
  Fe  Fe6  1  -0.00405421  0.66326534  -0.00333233  1
  Ni  Ni7  1  0.16497218  0.82839252  0.16446528  1
  Cr  Cr8  1  -0.00282355  0.66445062  0.33188923  1
  Cr  Cr9  1  0.33017282  0.99536104  -0.00351663  1
  Ni  Ni10  1  0.49439855  0.16280367  0.16530147  1
  Ni  Ni11  1  0.32724432  -0.00355586  0.32872304  1
  Cr  Cr12  1  0.33053045  0.32805899  -0.00371390  1
  Ni  Ni13  1  0.49327219  0.49372008  0.16537783  1
  Fe  Fe14  1  0.32854110  0.32750880  0.32695531  1
  Fe  Fe15  1  0.32994154  0.66131241  -0.00365577  1
  Cr  Cr16  1  0.49479539  0.82677765  0.16169960  1
  Fe  Fe17  1  0.32734011  0.66544421  0.32863327  1
  Ni  Ni18  1  0.65912233  0.99430304  0.99510028  1
  Cr  Cr19  1  0.82798600  0.16091935  0.16205201  1
  Cr  Cr20  1  0.66039390  0.99515786  0.32718861  1
  Cr  Cr21  1  0.66037268  0.32801355  -0.00093842  1
  Cr  Cr22  1  0.82896839  0.49542472  0.16091377  1
  Fe  Fe23  1  0.66028942  0.32633136  0.32688759  1
  Cr  Cr24  1  0.65941227  0.65946091  0.99299591  1
  Cr  Cr25  1  0.83121712  0.82937669  0.16217132  1
  Cr  Cr26  1  0.66132786  0.65694743  0.33055113  1
  Cr  Cr27  1  0.16467453  0.16478680  0.49831444  1
  Cr  Cr28  1  -0.00014037  0.99386577  0.65894720  1
  Cr  Cr29  1  0.16240800  0.16495636  0.82572833  1
  Fe  Fe30  1  0.16321051  0.49710100  0.49537239  1
  Fe  Fe31  1  -0.00370075  0.33026280  0.66202804  1
  Cr  Cr32  1  0.16298120  0.49551514  0.83046001  1
  Ni  Ni33  1  0.16439210  0.82967706  0.49272411  1
  Cr  Cr34  1  0.99453244  0.66048122  0.65895137  1
  Cr  Cr35  1  0.16227229  0.82777189  0.83188939  1
  Cr  Cr36  1  0.49467819  0.16236447  0.49579878  1
  Ni  Ni37  1  0.32932587  -0.00367727  0.66225015  1
  Cr  Cr38  1  0.49641081  0.16166471  0.82480871  1
  Cr  Cr39  1  0.49202828  0.49387772  0.49102249  1
  Fe  Fe40  1  0.33002622  0.33213245  0.66259913  1
  Ni  Ni41  1  0.49494000  0.49625316  0.82957437  1
  Cr  Cr42  1  0.49383458  0.82938079  0.49813361  1
  Cr  Cr43  1  0.32833943  0.66463076  0.66257670  1
  Fe  Fe44  1  0.49414251  0.82923860  0.82836852  1
  Cr  Cr45  1  0.82886999  0.16119541  0.49493173  1
  Fe  Fe46  1  0.66204125  0.99453273  0.66321922  1
  Cr  Cr47  1  0.82998441  0.16102379  0.82992958  1
  Fe  Fe48  1  0.82896275  0.49432890  0.49523188  1
  Cr  Cr49  1  0.66375900  0.33168794  0.66169316  1
  Fe  Fe50  1  0.82924682  0.49434441  0.83022177  1
  Cr  Cr51  1  0.82867235  0.83006619  0.49394388  1
  Cr  Cr52  1  0.66167226  0.66026072  0.66341580  1
  Cr  Cr53  1  0.82683885  0.82948716  0.83121840  1
" 