3307,Ni18Fe23Cr57_0,-215.868863303549, 166.116649410505,Ni18Fe23Cr57,"# generated using pymatgen
 data_Cr16Fe6Ni5
_symmetry_space_group_name_H-M   'P 1'
_cell_length_a   7.53136506
_cell_length_b   7.53136506
_cell_length_c   10.65095861
_cell_angle_alpha   90.00000000
_cell_angle_beta   90.00000000
_cell_angle_gamma   90.00000000
_symmetry_Int_Tables_number   1
_chemical_formula_structural   Cr16Fe6Ni5
_chemical_formula_sum   'Cr32 Fe12 Ni10'
_cell_volume   604.13791913
_cell_formula_units_Z   2
loop_
 _symmetry_equiv_pos_site_id
 _symmetry_equiv_pos_as_xyz
  1  'x, y, z'
loop_
 _atom_site_type_symbol
 _atom_site_label
 _atom_site_symmetry_multiplicity
 _atom_site_fract_x
 _atom_site_fract_y
 _atom_site_fract_z
 _atom_site_occupancy
  Cr  Cr0  1  -0.00220838  0.99441239  0.99502008  1
  Cr  Cr1  1  0.16433003  0.16069901  0.16098717  1
  Cr  Cr2  1  -0.00236199  0.99360327  0.32701873  1
  Cr  Cr3  1  -0.00357754  0.32896112  -0.00360784  1
  Cr  Cr4  1  0.16260775  0.49727229  0.16169160  1
  Ni  Ni5  1  -0.00384755  0.33225320  0.32859630  1
  Cr  Cr6  1  0.99495915  0.66418671  -0.00235752  1
  Ni  Ni7  1  0.16623725  0.82758800  0.16370444  1
  Fe  Fe8  1  -0.00331122  0.66045839  0.32782197  1
  Ni  Ni9  1  0.32921829  0.99318208  0.99567769  1
  Cr  Cr10  1  0.49510661  0.16162449  0.16151117  1
  Fe  Fe11  1  0.32938444  0.99523898  0.32785464  1
  Fe  Fe12  1  0.33073680  0.32533796  0.99437332  1
  Cr  Cr13  1  0.49547199  0.49573295  0.16031059  1
  Cr  Cr14  1  0.32944781  0.32985692  0.33177794  1
  Fe  Fe15  1  0.32901354  0.66629054  -0.00350261  1
  Fe  Fe16  1  0.49156533  0.82870409  0.16206174  1
  Fe  Fe17  1  0.32675542  0.66268217  0.32917877  1
  Cr  Cr18  1  0.66088546  0.99439207  -0.00395496  1
  Cr  Cr19  1  0.82809377  0.16608017  0.16435849  1
  Cr  Cr20  1  0.66057356  0.99554789  0.32741829  1
  Ni  Ni21  1  0.66019376  0.32962658  -0.00345828  1
  Ni  Ni22  1  0.82838288  0.49652147  0.16391259  1
  Ni  Ni23  1  0.66190088  0.33108270  0.32969453  1
  Cr  Cr24  1  0.66263613  0.66352475  -0.00330705  1
  Fe  Fe25  1  0.83127493  0.82782609  0.16306099  1
  Cr  Cr26  1  0.66147473  0.66166903  0.32667108  1
  Cr  Cr27  1  0.16173143  0.16164218  0.49421989  1
  Cr  Cr28  1  -0.00169191  0.99469219  0.66590425  1
  Ni  Ni29  1  0.16741121  0.15914614  0.83165988  1
  Ni  Ni30  1  0.16284943  0.49930052  0.49313455  1
  Cr  Cr31  1  0.00028132  0.32892680  0.66233480  1
  Cr  Cr32  1  0.16427287  0.49642374  0.83156381  1
  Fe  Fe33  1  0.16285252  0.82798923  0.49308817  1
  Cr  Cr34  1  -0.00230385  0.66365737  0.66277779  1
  Fe  Fe35  1  0.16605943  0.83009139  0.83113972  1
  Ni  Ni36  1  0.49496895  0.16147409  0.49393908  1
  Cr  Cr37  1  0.32879289  -0.00266734  0.66212644  1
  Ni  Ni38  1  0.49300957  0.16029703  0.83173640  1
  Fe  Fe39  1  0.49521424  0.49470917  0.49391208  1
  Cr  Cr40  1  0.32927261  0.32846928  0.66161004  1
  Cr  Cr41  1  0.49484623  0.49621445  0.83132729  1
  Cr  Cr42  1  0.49355876  0.82946233  0.49401018  1
  Cr  Cr43  1  0.32864640  0.66140634  0.66043892  1
  Fe  Fe44  1  0.49236298  0.83089834  0.83035954  1
  Cr  Cr45  1  0.82779134  0.16252857  0.49421740  1
  Cr  Cr46  1  0.66002976  0.99571061  0.66412746  1
  Cr  Cr47  1  0.82817525  0.16301298  0.82841658  1
  Cr  Cr48  1  0.83071268  0.49545750  0.49491807  1
  Cr  Cr49  1  0.65763638  0.32872790  0.65989255  1
  Cr  Cr50  1  0.82844534  0.49586996  0.82925121  1
  Cr  Cr51  1  0.82975109  0.82897280  0.49710307  1
  Cr  Cr52  1  0.66086309  0.66311964  0.66410607  1
  Fe  Fe53  1  0.82893761  0.82953291  0.82959233  1
" 