1391,Ni18Fe80Cr1_1,-231.281521988061, 177.309768274505,Ni18Fe80Cr1,"# generated using pymatgen
 data_CrFe43Ni10
_symmetry_space_group_name_H-M   'P 1'
_cell_length_a   7.40365948
_cell_length_b   7.40365948
_cell_length_c   10.47035565
_cell_angle_alpha   90.00000000
_cell_angle_beta   90.00000000
_cell_angle_gamma   90.00000000
_symmetry_Int_Tables_number   1
_chemical_formula_structural   CrFe43Ni10
_chemical_formula_sum   'Cr1 Fe43 Ni10'
_cell_volume   573.92389421
_cell_formula_units_Z   1
loop_
 _symmetry_equiv_pos_site_id
 _symmetry_equiv_pos_as_xyz
  1  'x, y, z'
loop_
 _atom_site_type_symbol
 _atom_site_label
 _atom_site_symmetry_multiplicity
 _atom_site_fract_x
 _atom_site_fract_y
 _atom_site_fract_z
 _atom_site_occupancy
  Cr  Cr0  1  1.00368117  0.00442590  1.00295423  1
  Fe  Fe1  1  0.17173219  0.17240561  0.17203020  1
  Fe  Fe2  1  0.00454816  0.00439715  0.33762658  1
  Ni  Ni3  1  0.00466431  0.34024351  0.00493746  1
  Fe  Fe4  1  0.17069672  0.50397762  0.17077013  1
  Fe  Fe5  1  0.00481059  0.33758058  0.33750723  1
  Ni  Ni6  1  0.00431802  0.66850761  1.00411079  1
  Fe  Fe7  1  0.17165112  0.83645823  0.17107755  1
  Fe  Fe8  1  0.00455033  0.67086310  0.33731445  1
  Fe  Fe9  1  0.33877658  1.00420758  1.00325586  1
  Fe  Fe10  1  0.50427427  0.17084247  0.17099118  1
  Fe  Fe11  1  0.33773374  0.00504076  0.33830541  1
  Fe  Fe12  1  0.33732449  0.33724403  0.00477533  1
  Fe  Fe13  1  0.50397671  0.50419995  0.17140026  1
  Ni  Ni14  1  0.33775751  0.33766302  0.33854219  1
  Fe  Fe15  1  0.33664608  0.67138877  1.00412953  1
  Fe  Fe16  1  0.50457836  0.83779930  0.17068722  1
  Fe  Fe17  1  0.33761406  0.67034194  0.33746747  1
  Ni  Ni18  1  0.66855666  1.00375755  1.00401786  1
  Fe  Fe19  1  0.83682932  0.17180263  0.17127374  1
  Fe  Fe20  1  0.67056237  0.00477603  0.33747070  1
  Fe  Fe21  1  0.67188517  0.33721120  1.00405393  1
  Fe  Fe22  1  0.83817094  0.50428178  0.17039104  1
  Fe  Fe23  1  0.67003832  0.33746211  0.33784288  1
  Fe  Fe24  1  0.67218650  0.67104624  0.00442927  1
  Fe  Fe25  1  0.83660936  0.83675820  0.17199203  1
  Fe  Fe26  1  0.67068100  0.67060473  0.33792066  1
  Fe  Fe27  1  0.17106457  0.17075215  0.50436070  1
  Fe  Fe28  1  0.00481199  1.00413408  0.67093920  1
  Fe  Fe29  1  0.17203754  0.17165530  0.83644875  1
  Fe  Fe30  1  0.17087330  0.50375340  0.50413025  1
  Ni  Ni31  1  1.00415744  0.33786894  0.67060545  1
  Fe  Fe32  1  0.17065764  0.50400065  0.83794634  1
  Fe  Fe33  1  0.17121827  0.83833628  0.50500425  1
  Fe  Fe34  1  0.00477227  0.67154900  0.67139882  1
  Ni  Ni35  1  0.17081002  0.83610162  0.83702063  1
  Ni  Ni36  1  0.50387982  0.17177392  0.50362430  1
  Ni  Ni37  1  0.33840854  1.00391079  0.67082862  1
  Ni  Ni38  1  0.50448990  0.17126748  0.83874777  1
  Fe  Fe39  1  0.50462132  0.50424376  0.50383087  1
  Fe  Fe40  1  0.33777075  0.33669717  0.67029997  1
  Fe  Fe41  1  0.50378580  0.50447091  0.83761458  1
  Fe  Fe42  1  0.50466556  0.83823091  0.50443526  1
  Fe  Fe43  1  0.33682242  0.67112798  0.67124542  1
  Fe  Fe44  1  0.50374979  0.83855747  0.83771839  1
  Fe  Fe45  1  0.83745504  0.17071195  0.50443274  1
  Fe  Fe46  1  0.67079125  0.00508402  0.67116998  1
  Fe  Fe47  1  0.83702376  0.17169195  0.83713121  1
  Fe  Fe48  1  0.83734648  0.50408762  0.50458292  1
  Fe  Fe49  1  0.67036840  0.33673579  0.67094722  1
  Fe  Fe50  1  0.83840051  0.50397717  0.83786998  1
  Ni  Ni51  1  0.83852545  0.83696134  0.50427722  1
  Fe  Fe52  1  0.67124765  0.67102536  0.67049335  1
  Fe  Fe53  1  0.83655718  0.83717209  0.83678734  1
" 