1689,Ni18Fe21Cr59_11,-215.634151689856, 175.648530732993,Ni18Fe21Cr59,"# generated using pymatgen
 data_Cr33Fe11Ni10
_symmetry_space_group_name_H-M   'P 1'
_cell_length_a   7.53576846
_cell_length_b   7.53576846
_cell_length_c   10.65718596
_cell_angle_alpha   90.00000000
_cell_angle_beta   90.00000000
_cell_angle_gamma   90.00000000
_symmetry_Int_Tables_number   1
_chemical_formula_structural   Cr33Fe11Ni10
_chemical_formula_sum   'Cr33 Fe11 Ni10'
_cell_volume   605.19821147
_cell_formula_units_Z   1
loop_
 _symmetry_equiv_pos_site_id
 _symmetry_equiv_pos_as_xyz
  1  'x, y, z'
loop_
 _atom_site_type_symbol
 _atom_site_label
 _atom_site_symmetry_multiplicity
 _atom_site_fract_x
 _atom_site_fract_y
 _atom_site_fract_z
 _atom_site_occupancy
  Fe  Fe0  1  0.99317020  -0.00163292  -0.00369186  1
  Cr  Cr1  1  0.16041578  0.16480562  0.16203845  1
  Cr  Cr2  1  0.99325107  -0.00431935  0.32653338  1
  Ni  Ni3  1  0.99426854  0.32595852  0.99407329  1
  Cr  Cr4  1  0.15919519  0.49582400  0.16005915  1
  Ni  Ni5  1  0.99316713  0.32879447  0.32745383  1
  Fe  Fe6  1  0.99230774  0.65965418  0.99523614  1
  Cr  Cr7  1  0.16104080  0.82607825  0.16119928  1
  Ni  Ni8  1  0.99330366  0.66105654  0.32889011  1
  Cr  Cr9  1  0.32829320  -0.00282359  -0.00072308  1
  Ni  Ni10  1  0.49712708  0.16436393  0.16422900  1
  Fe  Fe11  1  0.32833637  -0.00368975  0.32671363  1
  Fe  Fe12  1  0.33048996  0.32935469  -0.00253375  1
  Fe  Fe13  1  0.49600241  0.49482084  0.16084557  1
  Cr  Cr14  1  0.33092870  0.32951931  0.32769391  1
  Ni  Ni15  1  0.32977355  0.66044013  -0.00357023  1
  Cr  Cr16  1  0.49585731  0.82787049  0.16021304  1
  Cr  Cr17  1  0.32973296  0.66174684  0.32975540  1
  Cr  Cr18  1  0.66439662  -0.00252144  -0.00379251  1
  Ni  Ni19  1  0.82813899  0.16493050  0.16234352  1
  Cr  Cr20  1  0.66193712  -0.00343732  0.32572397  1
  Cr  Cr21  1  0.66518128  0.32766351  -0.00255150  1
  Cr  Cr22  1  0.82996448  0.49439258  0.16318216  1
  Fe  Fe23  1  0.66321395  0.32991883  0.32626947  1
  Ni  Ni24  1  0.66168546  0.65997325  -0.00386698  1
  Cr  Cr25  1  0.82916163  0.82594235  0.16068519  1
  Fe  Fe26  1  0.66286346  0.66076693  0.32785312  1
  Cr  Cr27  1  0.16082204  0.16281588  0.49485667  1
  Fe  Fe28  1  0.99308684  -0.00442554  0.66332736  1
  Fe  Fe29  1  0.15938754  0.16180429  0.83167518  1
  Cr  Cr30  1  0.15994948  0.49389243  0.49329288  1
  Cr  Cr31  1  0.99407437  0.32817882  0.66505430  1
  Cr  Cr32  1  0.16074324  0.49499243  0.83323567  1
  Cr  Cr33  1  0.15995040  0.82961258  0.49271485  1
  Cr  Cr34  1  0.99401130  0.66224121  0.66090307  1
  Cr  Cr35  1  0.16186688  0.82871509  0.83253790  1
  Cr  Cr36  1  0.49713654  0.16329297  0.49533354  1
  Cr  Cr37  1  0.32578250  0.99539701  0.66131312  1
  Cr  Cr38  1  0.49647777  0.16133218  0.82714846  1
  Ni  Ni39  1  0.49953944  0.49597119  0.49225938  1
  Cr  Cr40  1  0.32788069  0.33081640  0.66332682  1
  Cr  Cr41  1  0.49693145  0.49617089  0.83193421  1
  Cr  Cr42  1  0.49818347  0.83077966  0.49646517  1
  Cr  Cr43  1  0.32855467  0.66032597  0.66047995  1
  Cr  Cr44  1  0.49579792  0.82886080  0.82950208  1
  Cr  Cr45  1  0.82839648  0.16247063  0.49504823  1
  Fe  Fe46  1  0.66645618  -0.00374114  0.66299936  1
  Ni  Ni47  1  0.83216473  0.16235732  0.82928464  1
  Cr  Cr48  1  0.82897131  0.49457468  0.49090936  1
  Cr  Cr49  1  0.66413057  0.33055805  0.66334482  1
  Ni  Ni50  1  0.83046273  0.49386429  0.83237302  1
  Fe  Fe51  1  0.82810201  0.82842313  0.49346766  1
  Cr  Cr52  1  0.66366477  0.66081734  0.66114063  1
  Cr  Cr53  1  0.82804923  0.82822926  0.82958918  1
" 