1803,Ni18Fe21Cr59_2,-215.320753216276, 171.17884913556,Ni18Fe21Cr59,"# generated using pymatgen
 data_Cr33Fe11Ni10
_symmetry_space_group_name_H-M   'P 1'
_cell_length_a   7.54228135
_cell_length_b   7.54228135
_cell_length_c   10.66639658
_cell_angle_alpha   90.00000000
_cell_angle_beta   90.00000000
_cell_angle_gamma   90.00000000
_symmetry_Int_Tables_number   1
_chemical_formula_structural   Cr33Fe11Ni10
_chemical_formula_sum   'Cr33 Fe11 Ni10'
_cell_volume   606.76872138
_cell_formula_units_Z   1
loop_
 _symmetry_equiv_pos_site_id
 _symmetry_equiv_pos_as_xyz
  1  'x, y, z'
loop_
 _atom_site_type_symbol
 _atom_site_label
 _atom_site_symmetry_multiplicity
 _atom_site_fract_x
 _atom_site_fract_y
 _atom_site_fract_z
 _atom_site_occupancy
  Ni  Ni0  1  0.99492370  0.99294662  -0.00360252  1
  Fe  Fe1  1  0.16094894  0.16074464  0.16195753  1
  Cr  Cr2  1  -0.00368445  0.99457157  0.32636694  1
  Cr  Cr3  1  -0.00379317  0.32924804  -0.00354849  1
  Ni  Ni4  1  0.16194772  0.49601990  0.16088695  1
  Fe  Fe5  1  -0.00409693  0.32771486  0.32678044  1
  Cr  Cr6  1  -0.00414231  0.66254749  0.99421577  1
  Ni  Ni7  1  0.16245889  0.83015737  0.16104439  1
  Cr  Cr8  1  -0.00464754  0.65959427  0.32841880  1
  Cr  Cr9  1  0.32733823  0.99428102  -0.00190442  1
  Fe  Fe10  1  0.49399896  0.15941314  0.16348500  1
  Ni  Ni11  1  0.32967698  -0.00425093  0.32527265  1
  Cr  Cr12  1  0.32644548  0.32916570  0.99413314  1
  Cr  Cr13  1  0.49356991  0.49609341  0.15984140  1
  Cr  Cr14  1  0.32588517  0.32605324  0.32778654  1
  Fe  Fe15  1  0.32565364  0.66251307  -0.00346842  1
  Fe  Fe16  1  0.49335211  0.82987561  0.16315189  1
  Cr  Cr17  1  0.32616913  0.66430260  0.32527294  1
  Cr  Cr18  1  0.66302084  0.99370698  -0.00342874  1
  Fe  Fe19  1  0.83013912  0.15927164  0.16199479  1
  Ni  Ni20  1  0.66015652  -0.00439600  0.32461145  1
  Cr  Cr21  1  0.66229640  0.32790976  0.99357323  1
  Cr  Cr22  1  0.82931583  0.49302643  0.16404362  1
  Cr  Cr23  1  0.66348334  0.32691656  0.32922999  1
  Cr  Cr24  1  0.66335941  0.66323887  0.99414043  1
  Fe  Fe25  1  0.83025106  0.83008830  0.16121204  1
  Cr  Cr26  1  0.66350557  0.66383863  0.32936261  1
  Cr  Cr27  1  0.16104798  0.16091596  0.49506680  1
  Fe  Fe28  1  0.99417880  0.99280596  0.66312157  1
  Cr  Cr29  1  0.16013300  0.16099140  0.82707463  1
  Cr  Cr30  1  0.16164666  0.49534578  0.49566759  1
  Cr  Cr31  1  -0.00423016  0.33086880  0.66134541  1
  Fe  Fe32  1  0.16089113  0.49649388  0.82693636  1
  Cr  Cr33  1  0.16178934  0.82867344  0.49714054  1
  Fe  Fe34  1  0.99363861  0.66110904  0.66358195  1
  Cr  Cr35  1  0.15917590  0.82769164  0.82687413  1
  Cr  Cr36  1  0.49454497  0.16160791  0.49462825  1
  Cr  Cr37  1  0.32768712  -0.00408494  0.65993559  1
  Cr  Cr38  1  0.49426784  0.16389476  0.82706885  1
  Cr  Cr39  1  0.49542809  0.49631369  0.49771152  1
  Ni  Ni40  1  0.32589458  0.33171408  0.66272883  1
  Cr  Cr41  1  0.49376409  0.49640190  0.82768670  1
  Cr  Cr42  1  0.49461359  0.82727795  0.49370937  1
  Ni  Ni43  1  0.32741218  0.65915455  0.66329258  1
  Cr  Cr44  1  0.49513625  0.82487073  0.82802610  1
  Cr  Cr45  1  0.82947919  0.16161158  0.49317062  1
  Cr  Cr46  1  0.66279318  0.99243510  0.66294246  1
  Cr  Cr47  1  0.83071416  0.15950014  0.83014830  1
  Fe  Fe48  1  0.82848571  0.49608667  0.49655276  1
  Cr  Cr49  1  0.66179186  0.33071376  0.66242077  1
  Ni  Ni50  1  0.82881192  0.49852044  0.82573463  1
  Cr  Cr51  1  0.82858473  0.82791455  0.49705314  1
  Ni  Ni52  1  0.66467356  0.66121187  0.66269538  1
  Ni  Ni53  1  0.83079002  0.82604343  0.82753207  1
" 