1263,Ni18Fe23Cr57_19,-215.962920943064, 172.570629112932,Ni18Fe23Cr57,"# generated using pymatgen
 data_Cr16Fe6Ni5
_symmetry_space_group_name_H-M   'P 1'
_cell_length_a   7.53059718
_cell_length_b   7.53059718
_cell_length_c   10.64987266
_cell_angle_alpha   90.00000000
_cell_angle_beta   90.00000000
_cell_angle_gamma   90.00000000
_symmetry_Int_Tables_number   1
_chemical_formula_structural   Cr16Fe6Ni5
_chemical_formula_sum   'Cr32 Fe12 Ni10'
_cell_volume   603.95314872
_cell_formula_units_Z   2
loop_
 _symmetry_equiv_pos_site_id
 _symmetry_equiv_pos_as_xyz
  1  'x, y, z'
loop_
 _atom_site_type_symbol
 _atom_site_label
 _atom_site_symmetry_multiplicity
 _atom_site_fract_x
 _atom_site_fract_y
 _atom_site_fract_z
 _atom_site_occupancy
  Fe  Fe0  1  -0.00336804  0.99401530  -0.00359525  1
  Cr  Cr1  1  0.16149386  0.16049003  0.15992848  1
  Ni  Ni2  1  0.99528102  0.99546314  0.32614712  1
  Fe  Fe3  1  0.99523594  0.32754646  -0.00274924  1
  Cr  Cr4  1  0.16263787  0.49597213  0.15954303  1
  Cr  Cr5  1  0.99436455  0.33135765  0.32778181  1
  Cr  Cr6  1  -0.00339634  0.66306730  -0.00266621  1
  Ni  Ni7  1  0.16425270  0.83298119  0.15912625  1
  Cr  Cr8  1  -0.00340625  0.66325339  0.32810228  1
  Ni  Ni9  1  0.32981175  0.98996134  -0.00368386  1
  Fe  Fe10  1  0.49433360  0.16175708  0.16155849  1
  Cr  Cr11  1  0.32951056  0.99541987  0.32675823  1
  Cr  Cr12  1  0.33304417  0.32845774  0.99503923  1
  Cr  Cr13  1  0.49758151  0.49936222  0.16268483  1
  Cr  Cr14  1  0.33000953  0.32906774  0.33271727  1
  Fe  Fe15  1  0.33183953  0.66562154  -0.00418340  1
  Ni  Ni16  1  0.49459937  0.83009207  0.16127317  1
  Cr  Cr17  1  0.32452704  0.66370180  0.32671992  1
  Cr  Cr18  1  0.66117725  -0.00409534  -0.00378261  1
  Fe  Fe19  1  0.83006743  0.16211058  0.16243283  1
  Cr  Cr20  1  0.66198598  -0.00067270  0.32588156  1
  Cr  Cr21  1  0.66395247  0.32818617  -0.00199872  1
  Ni  Ni22  1  0.82728221  0.49364598  0.16185593  1
  Ni  Ni23  1  0.66311860  0.32946335  0.32449239  1
  Fe  Fe24  1  0.66092599  0.66412769  -0.00346040  1
  Cr  Cr25  1  0.82892833  0.82799704  0.16437865  1
  Fe  Fe26  1  0.66294035  0.66223994  0.32623125  1
  Fe  Fe27  1  0.15869285  0.16182031  0.49649643  1
  Ni  Ni28  1  -0.00410414  0.99335778  0.66575422  1
  Cr  Cr29  1  0.16115716  0.15950334  0.82888770  1
  Fe  Fe30  1  0.16029847  0.49610222  0.49637843  1
  Ni  Ni31  1  -0.00404679  0.32896530  0.66139029  1
  Cr  Cr32  1  0.16328842  0.49284189  0.83160266  1
  Cr  Cr33  1  0.16063386  0.83441174  0.49378264  1
  Cr  Cr34  1  -0.00398792  0.66261586  0.66250201  1
  Fe  Fe35  1  0.16406734  0.82918360  0.83202608  1
  Cr  Cr36  1  0.49667408  0.16212081  0.49439062  1
  Cr  Cr37  1  0.33060120  0.99395631  0.66198484  1
  Cr  Cr38  1  0.49272601  0.16235799  0.82992978  1
  Cr  Cr39  1  0.49799634  0.49849060  0.49496589  1
  Cr  Cr40  1  0.32810368  0.33125972  0.65928687  1
  Ni  Ni41  1  0.49676070  0.50331832  0.83051055  1
  Cr  Cr42  1  0.49808077  0.82593727  0.49379093  1
  Cr  Cr43  1  0.32715176  0.66291867  0.66449931  1
  Ni  Ni44  1  0.49578521  0.82561927  0.83171798  1
  Cr  Cr45  1  0.83226273  0.16118722  0.49650485  1
  Cr  Cr46  1  0.66262368  0.99288069  0.66661517  1
  Cr  Cr47  1  0.83432261  0.16148576  0.82977238  1
  Cr  Cr48  1  0.82584138  0.49632819  0.49479918  1
  Cr  Cr49  1  0.66135555  0.32798811  0.66516283  1
  Cr  Cr50  1  0.82797236  0.49598943  0.83036877  1
  Cr  Cr51  1  0.82829690  0.83013932  0.49643651  1
  Fe  Fe52  1  0.66216031  0.66298155  0.66568446  1
  Fe  Fe53  1  0.82870559  0.82779915  0.83037668  1
" 