4308,Ni18Fe21Cr59_13,-215.531841624542, 171.336964455789,Ni18Fe21Cr59,"# generated using pymatgen
 data_Cr33Fe11Ni10
_symmetry_space_group_name_H-M   'P 1'
_cell_length_a   7.54015152
_cell_length_b   7.54015152
_cell_length_c   10.66338455
_cell_angle_alpha   90.00000000
_cell_angle_beta   90.00000000
_cell_angle_gamma   90.00000000
_symmetry_Int_Tables_number   1
_chemical_formula_structural   Cr33Fe11Ni10
_chemical_formula_sum   'Cr33 Fe11 Ni10'
_cell_volume   606.25483880
_cell_formula_units_Z   1
loop_
 _symmetry_equiv_pos_site_id
 _symmetry_equiv_pos_as_xyz
  1  'x, y, z'
loop_
 _atom_site_type_symbol
 _atom_site_label
 _atom_site_symmetry_multiplicity
 _atom_site_fract_x
 _atom_site_fract_y
 _atom_site_fract_z
 _atom_site_occupancy
  Ni  Ni0  1  -0.00065273  0.99157617  0.99259978  1
  Cr  Cr1  1  0.16144960  0.15870655  0.16118773  1
  Cr  Cr2  1  -0.00261553  0.99361256  0.33116401  1
  Cr  Cr3  1  0.99470075  0.32720078  -0.00444232  1
  Cr  Cr4  1  0.16006474  0.49817846  0.15982447  1
  Cr  Cr5  1  0.99252352  0.32850085  0.32968366  1
  Fe  Fe6  1  0.99407727  0.66541263  -0.00468989  1
  Ni  Ni7  1  0.16160645  0.82885712  0.15966549  1
  Cr  Cr8  1  0.99501550  0.66363074  0.32926090  1
  Ni  Ni9  1  0.32304471  0.99229762  -0.00386912  1
  Cr  Cr10  1  0.49413848  0.15948085  0.16321006  1
  Fe  Fe11  1  0.32534594  0.99443569  0.32879743  1
  Cr  Cr12  1  0.32797201  0.32678859  0.99099041  1
  Cr  Cr13  1  0.49525783  0.49707445  0.16086913  1
  Cr  Cr14  1  0.32738588  0.32745755  0.33071904  1
  Fe  Fe15  1  0.32804088  0.66501255  -0.00423723  1
  Cr  Cr16  1  0.49316924  0.82927597  0.16098143  1
  Cr  Cr17  1  0.32563045  0.66603256  0.32848887  1
  Cr  Cr18  1  0.66294222  0.99378070  0.99226696  1
  Cr  Cr19  1  0.82994034  0.16076651  0.16134186  1
  Cr  Cr20  1  0.66387324  -0.00458451  0.33132712  1
  Cr  Cr21  1  0.66277046  0.33107226  -0.00185776  1
  Fe  Fe22  1  0.82919822  0.49831012  0.16063935  1
  Cr  Cr23  1  0.66525130  0.32956958  0.32655775  1
  Ni  Ni24  1  0.66404480  0.66243425  0.99359168  1
  Cr  Cr25  1  0.83066749  0.82826454  0.15813150  1
  Cr  Cr26  1  0.66440984  0.66074479  0.33026048  1
  Ni  Ni27  1  0.15874860  0.16073658  0.49709566  1
  Fe  Fe28  1  0.99392032  0.99511011  0.66122407  1
  Ni  Ni29  1  0.16052804  0.16066373  0.82783667  1
  Cr  Cr30  1  0.15972082  0.49368773  0.49816246  1
  Fe  Fe31  1  -0.00381776  0.32593556  0.66024793  1
  Cr  Cr32  1  0.16078372  0.49368028  0.82691181  1
  Fe  Fe33  1  0.15821987  0.83084641  0.49584798  1
  Fe  Fe34  1  0.99182163  0.66387933  0.66054989  1
  Cr  Cr35  1  0.15830752  0.82893791  0.83174457  1
  Cr  Cr36  1  0.49465643  0.16066739  0.49352743  1
  Cr  Cr37  1  0.32493283  -0.00428177  0.66121217  1
  Cr  Cr38  1  0.49319749  0.16048203  0.82830327  1
  Cr  Cr39  1  0.49535805  0.49574092  0.49675006  1
  Fe  Fe40  1  0.32571105  0.32586978  0.66187104  1
  Cr  Cr41  1  0.49436301  0.49711186  0.82754880  1
  Cr  Cr42  1  0.49699997  0.82912622  0.49442364  1
  Cr  Cr43  1  0.32728561  0.66276334  0.66154477  1
  Cr  Cr44  1  0.49841784  0.82795342  0.82995671  1
  Ni  Ni45  1  0.83211100  0.16050787  0.49742863  1
  Fe  Fe46  1  0.66520603  0.99307871  0.66081962  1
  Cr  Cr47  1  0.83224174  0.15756347  0.82767831  1
  Ni  Ni48  1  0.83053545  0.49644595  0.49648200  1
  Cr  Cr49  1  0.66393193  0.32839516  0.66084645  1
  Cr  Cr50  1  0.83013751  0.49911437  0.82912740  1
  Ni  Ni51  1  0.83016652  0.82858503  0.49988353  1
  Fe  Fe52  1  0.66586195  0.66408718  0.66145274  1
  Ni  Ni53  1  0.82962721  0.82764883  0.82728692  1
" 