2031,Ni18Fe80Cr1_17,-231.408295786422, 177.24352556219,Ni18Fe80Cr1,"# generated using pymatgen
 data_CrFe43Ni10
_symmetry_space_group_name_H-M   'P 1'
_cell_length_a   7.40290231
_cell_length_b   7.40290231
_cell_length_c   10.46928485
_cell_angle_alpha   90.00000000
_cell_angle_beta   90.00000000
_cell_angle_gamma   90.00000000
_symmetry_Int_Tables_number   1
_chemical_formula_structural   CrFe43Ni10
_chemical_formula_sum   'Cr1 Fe43 Ni10'
_cell_volume   573.74782713
_cell_formula_units_Z   1
loop_
 _symmetry_equiv_pos_site_id
 _symmetry_equiv_pos_as_xyz
  1  'x, y, z'
loop_
 _atom_site_type_symbol
 _atom_site_label
 _atom_site_symmetry_multiplicity
 _atom_site_fract_x
 _atom_site_fract_y
 _atom_site_fract_z
 _atom_site_occupancy
  Fe  Fe0  1  0.00447147  0.00488373  1.00401242  1
  Fe  Fe1  1  0.16947110  0.17093159  0.17105981  1
  Fe  Fe2  1  0.00465229  1.00360732  0.33815251  1
  Ni  Ni3  1  1.00332924  0.33912376  1.00422543  1
  Fe  Fe4  1  0.16895514  0.50549411  0.17227134  1
  Fe  Fe5  1  0.00436764  0.33855344  0.33702928  1
  Ni  Ni6  1  0.00437009  0.67045823  1.00401828  1
  Fe  Fe7  1  0.17009181  0.83657129  0.17165250  1
  Ni  Ni8  1  0.00475162  0.67105326  0.33842780  1
  Fe  Fe9  1  0.33684306  1.00275484  1.00409433  1
  Fe  Fe10  1  0.50609136  0.17029967  0.17182610  1
  Fe  Fe11  1  0.33689302  1.00360129  0.33786679  1
  Cr  Cr12  1  0.33705747  0.33783391  1.00354589  1
  Fe  Fe13  1  0.50563591  0.50516224  0.17206951  1
  Fe  Fe14  1  0.33696957  0.33835374  0.33767665  1
  Fe  Fe15  1  0.33733651  0.67297365  1.00433176  1
  Fe  Fe16  1  0.50514322  0.83753555  0.17063963  1
  Fe  Fe17  1  0.33678099  0.67104471  0.33827576  1
  Ni  Ni18  1  0.67052916  1.00416940  1.00386758  1
  Fe  Fe19  1  0.83742901  0.17143007  0.17063551  1
  Fe  Fe20  1  0.67145601  1.00379794  0.33706704  1
  Fe  Fe21  1  0.67428489  0.33826028  1.00388457  1
  Ni  Ni22  1  0.83741829  0.50402807  0.17098673  1
  Fe  Fe23  1  0.67165824  0.33843528  0.33801294  1
  Fe  Fe24  1  0.67218233  0.67031990  1.00433009  1
  Fe  Fe25  1  0.83776396  0.83701129  0.17083056  1
  Fe  Fe26  1  0.67165561  0.67076165  0.33735388  1
  Fe  Fe27  1  0.17107319  0.17093171  0.50486120  1
  Fe  Fe28  1  0.00435697  0.00492123  0.67082529  1
  Ni  Ni29  1  0.17069258  0.16940996  0.83648945  1
  Ni  Ni30  1  0.17071804  0.50500146  0.50442136  1
  Fe  Fe31  1  1.00403374  0.33775741  0.67188059  1
  Fe  Fe32  1  0.16918899  0.50476637  0.83677625  1
  Ni  Ni33  1  0.17146453  0.83746548  0.50433269  1
  Fe  Fe34  1  1.00395928  0.67031600  0.67059649  1
  Fe  Fe35  1  0.17033839  0.83735740  0.83732125  1
  Fe  Fe36  1  0.50360229  0.17124045  0.50448760  1
  Fe  Fe37  1  0.33771568  0.00487852  0.67102772  1
  Fe  Fe38  1  0.50577240  0.17052672  0.83668046  1
  Fe  Fe39  1  0.50341044  0.50453235  0.50465721  1
  Fe  Fe40  1  0.33781050  0.33759284  0.67114885  1
  Fe  Fe41  1  0.50534658  0.50448572  0.83627278  1
  Fe  Fe42  1  0.50325719  0.83722106  0.50433347  1
  Fe  Fe43  1  0.33794273  0.67052062  0.67039386  1
  Fe  Fe44  1  0.50453627  0.83797777  0.83801934  1
  Fe  Fe45  1  0.83831753  0.17108938  0.50457714  1
  Fe  Fe46  1  0.67093006  0.00479640  0.67143890  1
  Fe  Fe47  1  0.83783429  0.17167665  0.83778652  1
  Fe  Fe48  1  0.83866810  0.50484569  0.50434361  1
  Ni  Ni49  1  0.67020919  0.33710713  0.67169723  1
  Ni  Ni50  1  0.83697897  0.50403954  0.83795726  1
  Fe  Fe51  1  0.83899489  0.83705971  0.50401692  1
  Fe  Fe52  1  0.67109130  0.67019933  0.67131635  1
  Fe  Fe53  1  0.83811876  0.83778479  0.83814743  1
" 