1583,Ni18Fe80Cr1_11,-231.517218747769, 175.424697319621,Ni18Fe80Cr1,"# generated using pymatgen
 data_CrFe43Ni10
_symmetry_space_group_name_H-M   'P 1'
_cell_length_a   7.40747214
_cell_length_b   7.40747214
_cell_length_c   10.47574757
_cell_angle_alpha   90.00000000
_cell_angle_beta   90.00000000
_cell_angle_gamma   90.00000000
_symmetry_Int_Tables_number   1
_chemical_formula_structural   CrFe43Ni10
_chemical_formula_sum   'Cr1 Fe43 Ni10'
_cell_volume   574.81101054
_cell_formula_units_Z   1
loop_
 _symmetry_equiv_pos_site_id
 _symmetry_equiv_pos_as_xyz
  1  'x, y, z'
loop_
 _atom_site_type_symbol
 _atom_site_label
 _atom_site_symmetry_multiplicity
 _atom_site_fract_x
 _atom_site_fract_y
 _atom_site_fract_z
 _atom_site_occupancy
  Ni  Ni0  1  1.00304634  1.00342415  0.00412268  1
  Fe  Fe1  1  0.17009351  0.17060977  0.17023473  1
  Fe  Fe2  1  0.00433330  1.00333643  0.33655170  1
  Fe  Fe3  1  0.00499634  0.33735321  1.00402113  1
  Ni  Ni4  1  0.17101764  0.50324867  0.17036875  1
  Fe  Fe5  1  1.00358210  0.33747039  0.33654315  1
  Fe  Fe6  1  0.00470612  0.67040882  0.00419055  1
  Fe  Fe7  1  0.17004306  0.83691094  0.17079695  1
  Fe  Fe8  1  1.00337971  0.67125424  0.33614544  1
  Fe  Fe9  1  0.33701878  0.00458623  1.00394472  1
  Fe  Fe10  1  0.50385525  0.17100769  0.17029052  1
  Fe  Fe11  1  0.33763872  1.00322371  0.33778653  1
  Ni  Ni12  1  0.33764702  0.33813577  0.00459998  1
  Fe  Fe13  1  0.50354027  0.50446120  0.17116161  1
  Fe  Fe14  1  0.33816377  0.33735650  0.33631364  1
  Fe  Fe15  1  0.33634962  0.67023562  0.00454048  1
  Fe  Fe16  1  0.50382285  0.83659644  0.17152274  1
  Ni  Ni17  1  0.33862420  0.67103204  0.33684329  1
  Fe  Fe18  1  0.67088992  0.00429873  0.00426313  1
  Fe  Fe19  1  0.83811556  0.17032889  0.17044597  1
  Fe  Fe20  1  0.67009151  1.00302090  0.33727686  1
  Fe  Fe21  1  0.67072223  0.33668539  0.00402165  1
  Fe  Fe22  1  0.83779787  0.50451120  0.17131983  1
  Fe  Fe23  1  0.67032007  0.33831185  0.33794569  1
  Fe  Fe24  1  0.67100573  0.67108172  0.00418788  1
  Ni  Ni25  1  0.83663789  0.83856122  0.17062176  1
  Fe  Fe26  1  0.67020871  0.67073547  0.33794751  1
  Fe  Fe27  1  0.17137042  0.16952264  0.50433712  1
  Fe  Fe28  1  0.00457504  0.00461599  0.67124847  1
  Fe  Fe29  1  0.17093257  0.17137428  0.83749169  1
  Cr  Cr30  1  0.17104970  0.50345774  0.50424890  1
  Fe  Fe31  1  1.00354452  0.33695054  0.67149923  1
  Ni  Ni32  1  0.17080362  0.50326163  0.83739776  1
  Fe  Fe33  1  0.17141394  0.83799483  0.50378045  1
  Fe  Fe34  1  1.00358143  0.67049411  0.67172948  1
  Fe  Fe35  1  0.17029299  0.83715206  0.83748589  1
  Fe  Fe36  1  0.50415052  0.17167271  0.50433569  1
  Fe  Fe37  1  0.33763896  0.00425924  0.67033259  1
  Fe  Fe38  1  0.50301751  0.17176955  0.83743711  1
  Ni  Ni39  1  0.50544377  0.50451042  0.50429540  1
  Ni  Ni40  1  0.33860958  0.33710934  0.67054591  1
  Fe  Fe41  1  0.50301517  0.50346054  0.83688173  1
  Ni  Ni42  1  0.50460540  0.83818146  0.50392372  1
  Fe  Fe43  1  0.33848142  0.67100577  0.67081173  1
  Fe  Fe44  1  0.50357825  0.83683467  0.83675871  1
  Fe  Fe45  1  0.83654414  0.17138872  0.50401939  1
  Fe  Fe46  1  0.66985099  0.00429776  0.67052464  1
  Fe  Fe47  1  0.83811535  0.17081100  0.83759848  1
  Ni  Ni48  1  0.83595515  0.50361259  0.50393525  1
  Fe  Fe49  1  0.67036175  0.33779310  0.67009676  1
  Fe  Fe50  1  0.83779636  0.50409749  0.83664616  1
  Fe  Fe51  1  0.83658072  0.83620668  0.50357910  1
  Fe  Fe52  1  0.67000259  0.66997493  0.66992951  1
  Fe  Fe53  1  0.83819076  0.83715372  0.83827092  1
" 