7101,Ni18Fe80Cr1_19,-231.208731101028, 178.290968567672,Ni18Fe80Cr1,"# generated using pymatgen
 data_CrFe43Ni10
_symmetry_space_group_name_H-M   'P 1'
_cell_length_a   7.40415020
_cell_length_b   7.40415020
_cell_length_c   10.47104964
_cell_angle_alpha   90.00000000
_cell_angle_beta   90.00000000
_cell_angle_gamma   90.00000000
_symmetry_Int_Tables_number   1
_chemical_formula_structural   CrFe43Ni10
_chemical_formula_sum   'Cr1 Fe43 Ni10'
_cell_volume   574.03802191
_cell_formula_units_Z   1
loop_
 _symmetry_equiv_pos_site_id
 _symmetry_equiv_pos_as_xyz
  1  'x, y, z'
loop_
 _atom_site_type_symbol
 _atom_site_label
 _atom_site_symmetry_multiplicity
 _atom_site_fract_x
 _atom_site_fract_y
 _atom_site_fract_z
 _atom_site_occupancy
  Ni  Ni0  1  0.00562084  1.00285193  1.00410681  1
  Fe  Fe1  1  0.17089660  0.17024265  0.17034501  1
  Fe  Fe2  1  1.00387914  1.00389695  0.33700850  1
  Fe  Fe3  1  0.00441567  0.33674647  1.00419491  1
  Fe  Fe4  1  0.17055017  0.50459698  0.17182913  1
  Fe  Fe5  1  1.00407285  0.33732398  0.33796190  1
  Ni  Ni6  1  0.00496216  0.67018218  0.00447187  1
  Fe  Fe7  1  0.17059321  0.83779751  0.17083126  1
  Fe  Fe8  1  0.00454274  0.67151811  0.33719658  1
  Ni  Ni9  1  0.33754681  0.00438974  0.00514801  1
  Fe  Fe10  1  0.50447021  0.17085554  0.17060186  1
  Fe  Fe11  1  0.33772511  1.00367513  0.33779930  1
  Fe  Fe12  1  0.33624404  0.33750512  0.00461080  1
  Fe  Fe13  1  0.50470609  0.50398736  0.17058907  1
  Fe  Fe14  1  0.33768450  0.33758897  0.33773995  1
  Fe  Fe15  1  0.33691744  0.67147000  0.00445043  1
  Fe  Fe16  1  0.50428069  0.83807838  0.17032804  1
  Fe  Fe17  1  0.33754541  0.67152408  0.33800915  1
  Fe  Fe18  1  0.67169374  1.00415166  0.00462604  1
  Fe  Fe19  1  0.83733920  0.17058087  0.17037903  1
  Ni  Ni20  1  0.67029176  1.00418722  0.33742100  1
  Ni  Ni21  1  0.67020502  0.33834713  1.00411755  1
  Fe  Fe22  1  0.83735709  0.50439674  0.16993534  1
  Fe  Fe23  1  0.67095537  0.33698973  0.33654210  1
  Fe  Fe24  1  0.67128409  0.67202177  1.00326083  1
  Fe  Fe25  1  0.83799304  0.83768662  0.17073143  1
  Fe  Fe26  1  0.67069783  0.67166998  0.33831832  1
  Fe  Fe27  1  0.17093621  0.17097388  0.50436899  1
  Fe  Fe28  1  0.00519151  1.00334133  0.67147751  1
  Fe  Fe29  1  0.17219939  0.16922215  0.83777501  1
  Ni  Ni30  1  0.17070498  0.50487547  0.50412368  1
  Fe  Fe31  1  1.00423342  0.33747079  0.67058360  1
  Fe  Fe32  1  0.17124049  0.50522492  0.83695182  1
  Ni  Ni33  1  0.17085923  0.83731891  0.50437540  1
  Fe  Fe34  1  0.00481989  0.67183824  0.67110997  1
  Fe  Fe35  1  0.17198206  0.83831371  0.83760392  1
  Fe  Fe36  1  0.50189034  0.17138136  0.50281921  1
  Ni  Ni37  1  0.33645706  0.00489196  0.66982646  1
  Fe  Fe38  1  0.50202201  0.17091991  0.83922833  1
  Fe  Fe39  1  0.50316621  0.50497044  0.50420874  1
  Fe  Fe40  1  0.33821340  0.33799355  0.67039256  1
  Fe  Fe41  1  0.50482587  0.50494684  0.83768274  1
  Fe  Fe42  1  0.50251169  0.83614326  0.50426479  1
  Fe  Fe43  1  0.33878239  0.67242704  0.67067409  1
  Ni  Ni44  1  0.50325652  0.83735085  0.83860810  1
  Fe  Fe45  1  0.83943593  0.17127038  0.50280527  1
  Cr  Cr46  1  0.66926866  1.00294230  0.67192099  1
  Fe  Fe47  1  0.83804481  0.17128766  0.83954338  1
  Fe  Fe48  1  0.83887860  0.50507102  0.50446727  1
  Fe  Fe49  1  0.67017765  0.33841063  0.67175194  1
  Fe  Fe50  1  0.83670317  0.50530413  0.83806845  1
  Fe  Fe51  1  0.83907845  0.83601737  0.50300947  1
  Ni  Ni52  1  0.67179368  0.66955522  0.67031394  1
  Fe  Fe53  1  0.83821744  0.83563576  0.83885207  1
" 