2297,Ni18Fe23Cr57_7,-215.758751729273, 164.191776460441,Ni18Fe23Cr57,"# generated using pymatgen
 data_Cr16Fe6Ni5
_symmetry_space_group_name_H-M   'P 1'
_cell_length_a   7.53858075
_cell_length_b   7.53858075
_cell_length_c   10.66116313
_cell_angle_alpha   90.00000000
_cell_angle_beta   90.00000000
_cell_angle_gamma   90.00000000
_symmetry_Int_Tables_number   1
_chemical_formula_structural   Cr16Fe6Ni5
_chemical_formula_sum   'Cr32 Fe12 Ni10'
_cell_volume   605.87602934
_cell_formula_units_Z   2
loop_
 _symmetry_equiv_pos_site_id
 _symmetry_equiv_pos_as_xyz
  1  'x, y, z'
loop_
 _atom_site_type_symbol
 _atom_site_label
 _atom_site_symmetry_multiplicity
 _atom_site_fract_x
 _atom_site_fract_y
 _atom_site_fract_z
 _atom_site_occupancy
  Fe  Fe0  1  -0.00254016  -0.00374672  -0.00443624  1
  Cr  Cr1  1  0.16231214  0.16048240  0.16360092  1
  Ni  Ni2  1  0.99517230  -0.00348694  0.32890771  1
  Cr  Cr3  1  0.99390921  0.32811665  0.99425418  1
  Cr  Cr4  1  0.16166379  0.49606372  0.16832767  1
  Ni  Ni5  1  0.99342470  0.32709290  0.32831341  1
  Cr  Cr6  1  0.99442367  0.65930111  -0.00191255  1
  Cr  Cr7  1  0.16255820  0.82866512  0.16189421  1
  Fe  Fe8  1  -0.00450903  0.66246843  0.32844223  1
  Ni  Ni9  1  0.32949959  0.99466647  0.99472620  1
  Cr  Cr10  1  0.49585394  0.16185701  0.16440314  1
  Ni  Ni11  1  0.32694128  0.99352031  0.32898009  1
  Cr  Cr12  1  0.32699602  0.32868206  0.99451841  1
  Cr  Cr13  1  0.49572907  0.49418658  0.16186718  1
  Ni  Ni14  1  0.32793381  0.32882047  0.32825740  1
  Ni  Ni15  1  0.33051461  0.66283673  0.99431256  1
  Cr  Cr16  1  0.49412206  0.82967911  0.15930761  1
  Ni  Ni17  1  0.32969433  0.66341540  0.32912215  1
  Fe  Fe18  1  0.66178648  -0.00376677  -0.00445039  1
  Cr  Cr19  1  0.82721028  0.16231556  0.16240648  1
  Cr  Cr20  1  0.66248034  0.99437674  0.33228389  1
  Fe  Fe21  1  0.66169873  0.33018397  0.99523865  1
  Fe  Fe22  1  0.82833276  0.49370075  0.16396826  1
  Ni  Ni23  1  0.66493350  0.32957095  0.32720616  1
  Fe  Fe24  1  0.66070758  0.65983113  0.99519497  1
  Cr  Cr25  1  0.82958508  0.82914807  0.16121144  1
  Cr  Cr26  1  0.66203359  0.66242845  0.32904644  1
  Cr  Cr27  1  0.16031607  0.16390698  0.49415761  1
  Cr  Cr28  1  0.99415684  -0.00206564  0.66244266  1
  Fe  Fe29  1  0.16084925  0.16035451  0.82958255  1
  Cr  Cr30  1  0.16063426  0.49389025  0.49314354  1
  Ni  Ni31  1  0.99227281  0.32656315  0.66435809  1
  Cr  Cr32  1  0.16062989  0.49580510  0.82494227  1
  Cr  Cr33  1  0.16144387  0.82809554  0.49258384  1
  Cr  Cr34  1  0.99340208  0.66153465  0.66011447  1
  Cr  Cr35  1  0.16150011  0.82887153  0.83137116  1
  Cr  Cr36  1  0.49591247  0.16341365  0.49080631  1
  Cr  Cr37  1  0.32928511  0.99518081  0.66083651  1
  Cr  Cr38  1  0.49773607  0.16175451  0.83034684  1
  Cr  Cr39  1  0.49466321  0.49390229  0.49459308  1
  Cr  Cr40  1  0.32670020  0.32762341  0.66428750  1
  Fe  Fe41  1  0.49676703  0.49659203  0.83090348  1
  Ni  Ni42  1  0.49494310  0.82872976  0.49340204  1
  Cr  Cr43  1  0.33069637  0.66273205  0.66154085  1
  Cr  Cr44  1  0.49618434  0.82909538  0.83061635  1
  Fe  Fe45  1  0.83072426  0.16363932  0.49300163  1
  Cr  Cr46  1  0.66283062  0.99448930  0.65579893  1
  Fe  Fe47  1  0.82933516  0.16217051  0.82948291  1
  Cr  Cr48  1  0.83064416  0.49268498  0.49389650  1
  Cr  Cr49  1  0.66346066  0.32814741  0.66313235  1
  Fe  Fe50  1  0.82692481  0.49446367  0.82880997  1
  Fe  Fe51  1  0.82994256  0.82900828  0.49336692  1
  Cr  Cr52  1  0.66131585  0.66314848  0.66098843  1
  Cr  Cr53  1  0.82805964  0.82965705  0.83029964  1
" 