140,Ni18Fe80Cr1_7,-231.088979579545, 178.0808429214,Ni18Fe80Cr1,"# generated using pymatgen
 data_CrFe43Ni10
_symmetry_space_group_name_H-M   'P 1'
_cell_length_a   7.40430067
_cell_length_b   7.40430067
_cell_length_c   10.47126243
_cell_angle_alpha   90.00000000
_cell_angle_beta   90.00000000
_cell_angle_gamma   90.00000000
_symmetry_Int_Tables_number   1
_chemical_formula_structural   CrFe43Ni10
_chemical_formula_sum   'Cr1 Fe43 Ni10'
_cell_volume   574.07301930
_cell_formula_units_Z   1
loop_
 _symmetry_equiv_pos_site_id
 _symmetry_equiv_pos_as_xyz
  1  'x, y, z'
loop_
 _atom_site_type_symbol
 _atom_site_label
 _atom_site_symmetry_multiplicity
 _atom_site_fract_x
 _atom_site_fract_y
 _atom_site_fract_z
 _atom_site_occupancy
  Fe  Fe0  1  1.00352673  1.00343475  0.00433908  1
  Fe  Fe1  1  0.17132775  0.17206401  0.17058813  1
  Fe  Fe2  1  0.00441114  1.00331668  0.33774836  1
  Fe  Fe3  1  1.00357760  0.33688963  0.00549604  1
  Ni  Ni4  1  0.17163256  0.50554906  0.17125709  1
  Fe  Fe5  1  1.00411345  0.33787709  0.33688370  1
  Fe  Fe6  1  0.00499494  0.67248968  0.00662122  1
  Fe  Fe7  1  0.17106132  0.83763676  0.17160099  1
  Ni  Ni8  1  1.00408983  0.67084473  0.33752391  1
  Ni  Ni9  1  0.33687922  0.00502259  1.00419099  1
  Fe  Fe10  1  0.50368827  0.17181600  0.17118926  1
  Fe  Fe11  1  0.33669435  1.00272963  0.33761696  1
  Fe  Fe12  1  0.33914348  0.33836575  0.00595085  1
  Ni  Ni13  1  0.50318892  0.50555224  0.17086949  1
  Fe  Fe14  1  0.33696616  0.33889885  0.33727379  1
  Ni  Ni15  1  0.33877488  0.67326239  0.00474380  1
  Fe  Fe16  1  0.50450512  0.83780793  0.17066310  1
  Fe  Fe17  1  0.33688581  0.67135782  0.33720137  1
  Fe  Fe18  1  0.66998368  1.00310125  0.00433285  1
  Ni  Ni19  1  0.83702181  0.16898474  0.17098919  1
  Fe  Fe20  1  0.67162755  1.00339248  0.33771951  1
  Fe  Fe21  1  0.67001954  0.33688674  0.00494990  1
  Fe  Fe22  1  0.83733849  0.50368620  0.17108426  1
  Fe  Fe23  1  0.67155123  0.33836878  0.33689536  1
  Ni  Ni24  1  0.67164836  0.66980721  0.00446887  1
  Fe  Fe25  1  0.83722174  0.83568813  0.17109529  1
  Fe  Fe26  1  0.67040476  0.67083480  0.33675888  1
  Fe  Fe27  1  0.17194383  0.16911638  0.50424034  1
  Fe  Fe28  1  1.00396912  1.00418917  0.67073016  1
  Fe  Fe29  1  0.17021913  0.16963631  0.83767635  1
  Fe  Fe30  1  0.17120959  0.50546291  0.50352195  1
  Fe  Fe31  1  1.00290272  0.33619465  0.67041367  1
  Cr  Cr32  1  0.17273196  0.50644789  0.83835055  1
  Ni  Ni33  1  0.17154501  0.83697733  0.50433011  1
  Fe  Fe34  1  1.00356785  0.67204295  0.66876884  1
  Fe  Fe35  1  0.17070866  0.84040497  0.83729458  1
  Fe  Fe36  1  0.50340025  0.16921174  0.50382929  1
  Fe  Fe37  1  0.33784818  1.00341089  0.67092561  1
  Fe  Fe38  1  0.50362257  0.17101079  0.83754936  1
  Fe  Fe39  1  0.50389437  0.50541760  0.50335336  1
  Fe  Fe40  1  0.33872776  0.33688064  0.66964088  1
  Fe  Fe41  1  0.50715509  0.50402670  0.83893529  1
  Ni  Ni42  1  0.50434753  0.83735030  0.50355619  1
  Fe  Fe43  1  0.33919014  0.67232432  0.67043134  1
  Fe  Fe44  1  0.50441505  0.83767709  0.83788557  1
  Fe  Fe45  1  0.83734482  0.16922169  0.50405240  1
  Fe  Fe46  1  0.67077255  1.00397665  0.67050163  1
  Ni  Ni47  1  0.83652211  0.16994240  0.83775766  1
  Fe  Fe48  1  0.83748388  0.50623393  0.50402787  1
  Fe  Fe49  1  0.67112318  0.33711193  0.67072432  1
  Fe  Fe50  1  0.83638781  0.50363282  0.83744148  1
  Fe  Fe51  1  0.83759882  0.83710286  0.50364151  1
  Fe  Fe52  1  0.67015756  0.67138800  0.67130072  1
  Fe  Fe53  1  0.83774032  0.83674977  0.83787530  1
" 