8947,Ni18Fe23Cr57_13,-216.675328208167, 181.756749390833,Ni18Fe23Cr57,"# generated using pymatgen
 data_Cr16Fe6Ni5
_symmetry_space_group_name_H-M   'P 1'
_cell_length_a   7.53081253
_cell_length_b   7.53081253
_cell_length_c   10.65017721
_cell_angle_alpha   90.00000000
_cell_angle_beta   90.00000000
_cell_angle_gamma   90.00000000
_symmetry_Int_Tables_number   1
_chemical_formula_structural   Cr16Fe6Ni5
_chemical_formula_sum   'Cr32 Fe12 Ni10'
_cell_volume   604.00496247
_cell_formula_units_Z   2
loop_
 _symmetry_equiv_pos_site_id
 _symmetry_equiv_pos_as_xyz
  1  'x, y, z'
loop_
 _atom_site_type_symbol
 _atom_site_label
 _atom_site_symmetry_multiplicity
 _atom_site_fract_x
 _atom_site_fract_y
 _atom_site_fract_z
 _atom_site_occupancy
  Cr  Cr0  1  0.99398449  -0.00278758  -0.00361222  1
  Fe  Fe1  1  0.16690131  0.16332453  0.16162130  1
  Cr  Cr2  1  0.99315949  -0.00163709  0.32360589  1
  Cr  Cr3  1  0.99439427  0.32754369  0.99442636  1
  Cr  Cr4  1  0.16192441  0.49457492  0.16182279  1
  Cr  Cr5  1  0.99380170  0.32808800  0.32976114  1
  Fe  Fe6  1  -0.00265129  0.66319889  0.99437250  1
  Fe  Fe7  1  0.16475050  0.82980085  0.16200588  1
  Cr  Cr8  1  -0.00382795  0.66130166  0.33031396  1
  Cr  Cr9  1  0.33090922  0.99474672  -0.00391291  1
  Ni  Ni10  1  0.49483638  0.16229907  0.16288563  1
  Cr  Cr11  1  0.33256346  0.99339299  0.32823760  1
  Ni  Ni12  1  0.32792881  0.32954764  -0.00380668  1
  Cr  Cr13  1  0.49678958  0.49222586  0.15912036  1
  Ni  Ni14  1  0.33015367  0.32729162  0.32614442  1
  Cr  Cr15  1  0.33040702  0.66290190  -0.00225040  1
  Ni  Ni16  1  0.49886417  0.83229433  0.16319659  1
  Cr  Cr17  1  0.33186402  0.66176375  0.32779536  1
  Cr  Cr18  1  0.66326535  -0.00409877  -0.00384870  1
  Fe  Fe19  1  0.82301926  0.16435801  0.16229494  1
  Ni  Ni20  1  0.66051967  -0.00287978  0.32700746  1
  Fe  Fe21  1  0.66147093  0.32563794  0.99556320  1
  Cr  Cr22  1  0.82776797  0.49698929  0.16170391  1
  Fe  Fe23  1  0.65939181  0.32643791  0.32769942  1
  Fe  Fe24  1  0.66272119  0.66453097  -0.00368081  1
  Cr  Cr25  1  0.82977591  0.82795615  0.16150977  1
  Cr  Cr26  1  0.65939374  0.66457198  0.33099035  1
  Cr  Cr27  1  0.16486549  0.16177817  0.49515049  1
  Cr  Cr28  1  0.99372496  -0.00289192  0.66666709  1
  Cr  Cr29  1  0.16536426  0.16281733  0.82769791  1
  Cr  Cr30  1  0.16137862  0.49499613  0.49460777  1
  Cr  Cr31  1  0.99240751  0.32990192  0.66243261  1
  Ni  Ni32  1  0.16058466  0.49810837  0.83094844  1
  Cr  Cr33  1  0.16126704  0.83127497  0.49718023  1
  Fe  Fe34  1  0.99464933  0.66176477  0.66432105  1
  Fe  Fe35  1  0.16040838  0.82661475  0.82926649  1
  Cr  Cr36  1  0.49528066  0.16183165  0.49698127  1
  Fe  Fe37  1  0.33054761  0.99545031  0.66212183  1
  Cr  Cr38  1  0.49622727  0.16406211  0.82766344  1
  Cr  Cr39  1  0.49731456  0.49242315  0.49482313  1
  Cr  Cr40  1  0.32868151  0.33379011  0.66435600  1
  Cr  Cr41  1  0.49560743  0.49391849  0.83379478  1
  Ni  Ni42  1  0.49850003  0.82988112  0.49646283  1
  Cr  Cr43  1  0.33066851  0.66392104  0.66191366  1
  Cr  Cr44  1  0.49872180  0.82859187  0.82728619  1
  Cr  Cr45  1  0.82658281  0.16169272  0.49329506  1
  Cr  Cr46  1  0.66379796  0.99563780  0.66359314  1
  Ni  Ni47  1  0.82802071  0.16177753  0.83047527  1
  Fe  Fe48  1  0.82618467  0.49582654  0.49717753  1
  Ni  Ni49  1  0.66498106  0.33033285  0.66363065  1
  Cr  Cr50  1  0.82740796  0.49846605  0.83037256  1
  Cr  Cr51  1  0.82878198  0.82819328  0.49596848  1
  Fe  Fe52  1  0.66389544  0.66057872  0.66204183  1
  Ni  Ni53  1  0.83145418  0.82727023  0.83018864  1
" 