5526,Ni18Fe21Cr59_12,-215.404646044643, 170.624488755778,Ni18Fe21Cr59,"# generated using pymatgen
 data_Cr33Fe11Ni10
_symmetry_space_group_name_H-M   'P 1'
_cell_length_a   7.53844022
_cell_length_b   7.53844022
_cell_length_c   10.66096440
_cell_angle_alpha   90.00000000
_cell_angle_beta   90.00000000
_cell_angle_gamma   90.00000000
_symmetry_Int_Tables_number   1
_chemical_formula_structural   Cr33Fe11Ni10
_chemical_formula_sum   'Cr33 Fe11 Ni10'
_cell_volume   605.84214731
_cell_formula_units_Z   1
loop_
 _symmetry_equiv_pos_site_id
 _symmetry_equiv_pos_as_xyz
  1  'x, y, z'
loop_
 _atom_site_type_symbol
 _atom_site_label
 _atom_site_symmetry_multiplicity
 _atom_site_fract_x
 _atom_site_fract_y
 _atom_site_fract_z
 _atom_site_occupancy
  Cr  Cr0  1  -0.00205701  -0.00237727  0.99438570  1
  Fe  Fe1  1  0.16275499  0.16347290  0.16085520  1
  Fe  Fe2  1  -0.00266953  0.99510217  0.32776981  1
  Ni  Ni3  1  -0.00058943  0.33203272  -0.00400210  1
  Fe  Fe4  1  0.16139325  0.49386143  0.15993644  1
  Cr  Cr5  1  -0.00180763  0.32642548  0.32638075  1
  Fe  Fe6  1  -0.00344512  0.65892032  0.99497966  1
  Cr  Cr7  1  0.16082791  0.82601514  0.16214148  1
  Cr  Cr8  1  0.99502083  0.65881305  0.32684767  1
  Cr  Cr9  1  0.32552371  -0.00332223  0.99252097  1
  Cr  Cr10  1  0.49200520  0.16456906  0.16072443  1
  Fe  Fe11  1  0.32479213  -0.00312226  0.32872018  1
  Ni  Ni12  1  0.32185141  0.33045342  0.99462955  1
  Cr  Cr13  1  0.48995191  0.49345252  0.16275920  1
  Fe  Fe14  1  0.32660226  0.32874174  0.32812311  1
  Cr  Cr15  1  0.32678072  0.66089516  0.99225625  1
  Cr  Cr16  1  0.49314243  0.82825587  0.16317683  1
  Ni  Ni17  1  0.32586531  0.66216863  0.32791647  1
  Cr  Cr18  1  0.66210138  0.99323249  -0.00311026  1
  Cr  Cr19  1  0.83071619  0.16172302  0.16023295  1
  Cr  Cr20  1  0.66284751  0.99477951  0.32686029  1
  Cr  Cr21  1  0.66454028  0.33169175  0.99378993  1
  Fe  Fe22  1  0.83124435  0.49630407  0.16011976  1
  Cr  Cr23  1  0.66540175  0.32956106  0.32993416  1
  Cr  Cr24  1  0.66401778  0.66124341  -0.00303101  1
  Ni  Ni25  1  0.83293353  0.82679497  0.16172380  1
  Cr  Cr26  1  0.66193854  0.66157479  0.32733351  1
  Ni  Ni27  1  0.16281444  0.16170903  0.49325340  1
  Fe  Fe28  1  -0.00064437  -0.00266734  0.66395000  1
  Ni  Ni29  1  0.16153890  0.16632486  0.82992394  1
  Cr  Cr30  1  0.16420007  0.49547271  0.49390364  1
  Cr  Cr31  1  -0.00093990  0.32808948  0.66204138  1
  Ni  Ni32  1  0.16092173  0.49387995  0.83042727  1
  Cr  Cr33  1  0.15990237  0.82842711  0.49604020  1
  Fe  Fe34  1  -0.00230923  0.65956133  0.66452911  1
  Ni  Ni35  1  0.15775593  0.82555533  0.82746885  1
  Cr  Cr36  1  0.49363781  0.16503902  0.49587364  1
  Cr  Cr37  1  0.32448959  -0.00301399  0.66433210  1
  Cr  Cr38  1  0.49435748  0.16697289  0.82959232  1
  Cr  Cr39  1  0.49251210  0.49336590  0.49597016  1
  Ni  Ni40  1  0.32543155  0.32833970  0.66329437  1
  Fe  Fe41  1  0.49159212  0.49250362  0.82786682  1
  Cr  Cr42  1  0.49271336  0.82747456  0.49195483  1
  Cr  Cr43  1  0.32688409  0.66093116  0.66455454  1
  Cr  Cr44  1  0.49459449  0.82816027  0.83019584  1
  Cr  Cr45  1  0.83065317  0.16114838  0.49795214  1
  Cr  Cr46  1  0.66079517  0.99526051  0.66219602  1
  Cr  Cr47  1  0.82981652  0.16351926  0.82750383  1
  Cr  Cr48  1  0.82973734  0.49491501  0.49781215  1
  Ni  Ni49  1  0.66140847  0.33105671  0.66390497  1
  Fe  Fe50  1  0.83306105  0.49449970  0.82839789  1
  Cr  Cr51  1  0.83310840  0.82925265  0.49685047  1
  Cr  Cr52  1  0.66160384  0.65990123  0.66237635  1
  Cr  Cr53  1  0.83297605  0.82735524  0.82815625  1
" 