1708,Ni18Fe21Cr59_17,-215.602257684252, 177.641018764617,Ni18Fe21Cr59,"# generated using pymatgen
 data_Cr33Fe11Ni10
_symmetry_space_group_name_H-M   'P 1'
_cell_length_a   7.53378170
_cell_length_b   7.53378170
_cell_length_c   10.65437626
_cell_angle_alpha   90.00000000
_cell_angle_beta   90.00000000
_cell_angle_gamma   90.00000000
_symmetry_Int_Tables_number   1
_chemical_formula_structural   Cr33Fe11Ni10
_chemical_formula_sum   'Cr33 Fe11 Ni10'
_cell_volume   604.71966721
_cell_formula_units_Z   1
loop_
 _symmetry_equiv_pos_site_id
 _symmetry_equiv_pos_as_xyz
  1  'x, y, z'
loop_
 _atom_site_type_symbol
 _atom_site_label
 _atom_site_symmetry_multiplicity
 _atom_site_fract_x
 _atom_site_fract_y
 _atom_site_fract_z
 _atom_site_occupancy
  Ni  Ni0  1  -0.00322124  0.99448830  0.99531465  1
  Ni  Ni1  1  0.16062085  0.16049242  0.16151329  1
  Cr  Cr2  1  0.99487657  0.99411873  0.32977698  1
  Cr  Cr3  1  -0.00101262  0.33058772  0.99392993  1
  Cr  Cr4  1  0.16180118  0.49522613  0.16316162  1
  Cr  Cr5  1  -0.00133097  0.32882460  0.33113331  1
  Cr  Cr6  1  -0.00356005  0.66359450  0.99539928  1
  Cr  Cr7  1  0.16236786  0.82987445  0.16184899  1
  Ni  Ni8  1  0.99156501  0.66324909  0.32974149  1
  Cr  Cr9  1  0.32903456  0.99443134  -0.00166562  1
  Cr  Cr10  1  0.49499841  0.16269492  0.16059412  1
  Cr  Cr11  1  0.33014915  -0.00248071  0.32978329  1
  Fe  Fe12  1  0.32639539  0.32988920  0.99432583  1
  Cr  Cr13  1  0.49652483  0.49687945  0.16327479  1
  Cr  Cr14  1  0.32843694  0.32598534  0.32955419  1
  Cr  Cr15  1  0.32845883  0.66076010  0.99155935  1
  Ni  Ni16  1  0.49828004  0.82857279  0.16252004  1
  Cr  Cr17  1  0.32649597  0.66324252  0.32868470  1
  Fe  Fe18  1  0.66381631  0.99253665  -0.00330901  1
  Cr  Cr19  1  0.83102033  0.16269905  0.15803105  1
  Cr  Cr20  1  0.66168589  0.99491832  0.32783349  1
  Cr  Cr21  1  0.65952908  0.32998436  0.99311321  1
  Cr  Cr22  1  0.82824562  0.49588537  0.16671997  1
  Fe  Fe23  1  0.66210766  0.32670746  0.33015136  1
  Cr  Cr24  1  0.66174629  0.66399324  0.99470157  1
  Fe  Fe25  1  0.82899301  0.82954196  0.16170612  1
  Fe  Fe26  1  0.66314953  0.66559175  0.32830674  1
  Fe  Fe27  1  0.16405910  0.16235553  0.49814684  1
  Fe  Fe28  1  -0.00118213  -0.00257504  0.66262699  1
  Cr  Cr29  1  0.16108063  0.15870971  0.82873877  1
  Fe  Fe30  1  0.16230795  0.49546912  0.49660064  1
  Ni  Ni31  1  -0.00097726  0.33089658  0.66129981  1
  Ni  Ni32  1  0.16453832  0.49687426  0.82633060  1
  Cr  Cr33  1  0.16148232  0.82874750  0.49867910  1
  Cr  Cr34  1  -0.00388943  0.66110358  0.66343569  1
  Ni  Ni35  1  0.16282835  0.82915644  0.82683869  1
  Ni  Ni36  1  0.49500395  0.16191869  0.49546520  1
  Ni  Ni37  1  0.32796693  0.99538952  0.66036679  1
  Cr  Cr38  1  0.49478472  0.16144107  0.83095787  1
  Cr  Cr39  1  0.49683520  0.49657699  0.49442832  1
  Cr  Cr40  1  0.32812717  0.32848360  0.66252618  1
  Ni  Ni41  1  0.49170630  0.49689393  0.82728952  1
  Cr  Cr42  1  0.49317103  0.82784080  0.49798236  1
  Fe  Fe43  1  0.32762402  0.66097490  0.66440883  1
  Cr  Cr44  1  0.49166552  0.82861357  0.82586391  1
  Cr  Cr45  1  0.83073752  0.16346198  0.49901970  1
  Cr  Cr46  1  0.66084496  0.99470135  0.66195660  1
  Cr  Cr47  1  0.83141395  0.16147713  0.82953658  1
  Cr  Cr48  1  0.82914505  0.49668849  0.49321779  1
  Cr  Cr49  1  0.66149715  0.32879761  0.66284640  1
  Cr  Cr50  1  0.82847960  0.49380669  0.82710319  1
  Fe  Fe51  1  0.82775342  0.82791388  0.49588666  1
  Fe  Fe52  1  0.66109138  0.66097284  0.66310277  1
  Cr  Cr53  1  0.83156440  0.83185475  0.82847400  1
" 