891,Ni18Fe21Cr59_8,-215.681898153619, 174.673434956833,Ni18Fe21Cr59,"# generated using pymatgen
 data_Cr33Fe11Ni10
_symmetry_space_group_name_H-M   'P 1'
_cell_length_a   7.54169196
_cell_length_b   7.54169196
_cell_length_c   10.66556306
_cell_angle_alpha   90.00000000
_cell_angle_beta   90.00000000
_cell_angle_gamma   90.00000000
_symmetry_Int_Tables_number   1
_chemical_formula_structural   Cr33Fe11Ni10
_chemical_formula_sum   'Cr33 Fe11 Ni10'
_cell_volume   606.62648463
_cell_formula_units_Z   1
loop_
 _symmetry_equiv_pos_site_id
 _symmetry_equiv_pos_as_xyz
  1  'x, y, z'
loop_
 _atom_site_type_symbol
 _atom_site_label
 _atom_site_symmetry_multiplicity
 _atom_site_fract_x
 _atom_site_fract_y
 _atom_site_fract_z
 _atom_site_occupancy
  Cr  Cr0  1  0.99494314  -0.00427620  0.99294998  1
  Ni  Ni1  1  0.16279232  0.16210812  0.16024327  1
  Cr  Cr2  1  -0.00086823  -0.00265573  0.32707221  1
  Cr  Cr3  1  0.99401512  0.32525217  -0.00432525  1
  Cr  Cr4  1  0.16171915  0.49669340  0.15821911  1
  Cr  Cr5  1  0.99377097  0.32849252  0.32868682  1
  Fe  Fe6  1  0.99259397  0.66224288  0.99390988  1
  Cr  Cr7  1  0.15926714  0.82482595  0.16161914  1
  Ni  Ni8  1  0.99168753  0.66130129  0.32943060  1
  Cr  Cr9  1  0.32692408  0.99194065  0.99480476  1
  Cr  Cr10  1  0.49608808  0.16094322  0.16167851  1
  Cr  Cr11  1  0.32745804  0.99389545  0.33085076  1
  Fe  Fe12  1  0.32696846  0.32514420  0.99495866  1
  Cr  Cr13  1  0.49314314  0.49428631  0.15883163  1
  Cr  Cr14  1  0.32600098  0.32585785  0.32840695  1
  Fe  Fe15  1  0.32852683  0.66230534  0.99298914  1
  Cr  Cr16  1  0.49787457  0.82953409  0.16293328  1
  Cr  Cr17  1  0.33176899  0.66372347  0.32944438  1
  Fe  Fe18  1  0.66288412  0.99462821  0.99078764  1
  Cr  Cr19  1  0.82530266  0.15820227  0.16249158  1
  Fe  Fe20  1  0.66160323  0.99279930  0.33068129  1
  Cr  Cr21  1  0.66488168  0.32944565  0.99445263  1
  Cr  Cr22  1  0.82950935  0.49875821  0.16461139  1
  Cr  Cr23  1  0.66346342  0.33433501  0.32840443  1
  Cr  Cr24  1  0.66056107  0.66403479  0.99063698  1
  Cr  Cr25  1  0.82870474  0.82861478  0.16329778  1
  Ni  Ni26  1  0.66400763  0.66444322  0.33285803  1
  Fe  Fe27  1  0.16010340  0.16248638  0.49695715  1
  Fe  Fe28  1  0.99071699  0.99478241  0.66367172  1
  Fe  Fe29  1  0.16021390  0.16002810  0.82731161  1
  Cr  Cr30  1  0.15969376  0.49544310  0.49782081  1
  Fe  Fe31  1  -0.00454950  0.32568890  0.66194258  1
  Cr  Cr32  1  0.16268745  0.49346642  0.82919565  1
  Cr  Cr33  1  0.15853331  0.82670279  0.49454404  1
  Fe  Fe34  1  0.99255153  0.66256343  0.66125022  1
  Cr  Cr35  1  0.15741262  0.82426969  0.82825661  1
  Cr  Cr36  1  0.49633569  0.15976640  0.49530063  1
  Cr  Cr37  1  0.32449256  0.99437523  0.65957014  1
  Cr  Cr38  1  0.49684149  0.16066211  0.82879456  1
  Cr  Cr39  1  0.49645342  0.49526224  0.49666760  1
  Fe  Fe40  1  0.32893264  0.32713204  0.66159116  1
  Cr  Cr41  1  0.49248065  0.49423492  0.82877652  1
  Ni  Ni42  1  0.49758058  0.82943215  0.49679333  1
  Cr  Cr43  1  0.33441119  0.66422675  0.66200622  1
  Ni  Ni44  1  0.49646045  0.82995408  0.82680954  1
  Cr  Cr45  1  0.82693119  0.16033727  0.49641065  1
  Ni  Ni46  1  0.66137290  0.99301711  0.66544730  1
  Ni  Ni47  1  0.82941078  0.15863991  0.82615439  1
  Ni  Ni48  1  0.83093268  0.49694136  0.49658070  1
  Cr  Cr49  1  0.66595160  0.33236199  0.66229936  1
  Cr  Cr50  1  0.83174279  0.49741220  0.82525333  1
  Cr  Cr51  1  0.82741194  0.82857052  0.49528413  1
  Ni  Ni52  1  0.66575606  0.66579104  0.66133851  1
  Ni  Ni53  1  0.82631159  0.83234091  0.82581182  1
" 