6504,Ni18Fe80Cr1_3,-231.153225546091, 177.605687558701,Ni18Fe80Cr1,"# generated using pymatgen
 data_CrFe43Ni10
_symmetry_space_group_name_H-M   'P 1'
_cell_length_a   7.40492144
_cell_length_b   7.40492144
_cell_length_c   10.47214033
_cell_angle_alpha   90.00000000
_cell_angle_beta   90.00000000
_cell_angle_gamma   90.00000000
_symmetry_Int_Tables_number   1
_chemical_formula_structural   CrFe43Ni10
_chemical_formula_sum   'Cr1 Fe43 Ni10'
_cell_volume   574.21742019
_cell_formula_units_Z   1
loop_
 _symmetry_equiv_pos_site_id
 _symmetry_equiv_pos_as_xyz
  1  'x, y, z'
loop_
 _atom_site_type_symbol
 _atom_site_label
 _atom_site_symmetry_multiplicity
 _atom_site_fract_x
 _atom_site_fract_y
 _atom_site_fract_z
 _atom_site_occupancy
  Ni  Ni0  1  1.00282466  1.00352596  0.00423419  1
  Fe  Fe1  1  0.17098196  0.17148329  0.17102546  1
  Ni  Ni2  1  1.00329262  1.00338608  0.33683440  1
  Ni  Ni3  1  0.00490064  0.33769618  1.00385540  1
  Fe  Fe4  1  0.17119728  0.50394242  0.17069104  1
  Fe  Fe5  1  0.00462303  0.33690286  0.33718228  1
  Ni  Ni6  1  1.00413470  0.67136330  1.00375712  1
  Fe  Fe7  1  0.17056728  0.83715891  0.17077077  1
  Fe  Fe8  1  0.00473840  0.67093578  0.33726355  1
  Fe  Fe9  1  0.33657204  1.00378301  1.00382602  1
  Fe  Fe10  1  0.50419299  0.17144597  0.17110237  1
  Fe  Fe11  1  0.33690297  0.00462283  0.33772601  1
  Fe  Fe12  1  0.33691577  0.33749221  0.00427725  1
  Ni  Ni13  1  0.50418687  0.50418726  0.17111819  1
  Ni  Ni14  1  0.33858992  0.33868313  0.33743497  1
  Fe  Fe15  1  0.33724316  0.67131022  1.00394660  1
  Fe  Fe16  1  0.50452645  0.83727850  0.17014544  1
  Fe  Fe17  1  0.33732005  0.67073161  0.33727402  1
  Ni  Ni18  1  0.67143023  1.00351031  1.00374534  1
  Fe  Fe19  1  0.83740903  0.17081888  0.17035518  1
  Fe  Fe20  1  0.67085474  0.00473782  0.33718215  1
  Fe  Fe21  1  0.67218488  0.33753187  0.00427723  1
  Fe  Fe22  1  0.83753020  0.50427598  0.17043878  1
  Fe  Fe23  1  0.67065066  0.33731943  0.33735529  1
  Fe  Fe24  1  0.67168940  0.67110552  1.00394587  1
  Fe  Fe25  1  0.83748674  0.83748703  0.17052067  1
  Fe  Fe26  1  0.67052704  0.67052812  0.33743720  1
  Fe  Fe27  1  0.17204790  0.17204914  0.50300858  1
  Cr  Cr28  1  1.00327855  1.00327958  0.67239619  1
  Fe  Fe29  1  0.17271518  0.17212953  0.83855432  1
  Fe  Fe30  1  0.17125011  0.50368790  0.50431177  1
  Fe  Fe31  1  0.00462150  0.33939211  0.67132692  1
  Fe  Fe32  1  0.17162373  0.50448507  0.83758065  1
  Fe  Fe33  1  0.17129958  0.83684699  0.50292617  1
  Fe  Fe34  1  0.00473756  0.66836562  0.67116246  1
  Fe  Fe35  1  0.17233838  0.83597072  0.83888895  1
  Fe  Fe36  1  0.50368861  0.17133091  0.50423058  1
  Fe  Fe37  1  0.33964169  0.00437238  0.67103090  1
  Fe  Fe38  1  0.50419381  0.17074935  0.83725125  1
  Fe  Fe39  1  0.50369127  0.50361100  0.50411194  1
  Ni  Ni40  1  0.33886452  0.33886530  0.67109288  1
  Ni  Ni41  1  0.50418825  0.50488136  0.83717389  1
  Fe  Fe42  1  0.50435776  0.83764741  0.50485633  1
  Fe  Fe43  1  0.33787339  0.67067854  0.67136297  1
  Ni  Ni44  1  0.50420754  0.83718818  0.83737241  1
  Fe  Fe45  1  0.83684720  0.17138036  0.50300772  1
  Fe  Fe46  1  0.66811672  0.00448838  0.67157460  1
  Fe  Fe47  1  0.83567627  0.17146765  0.83922199  1
  Fe  Fe48  1  0.83764773  0.50435692  0.50431261  1
  Fe  Fe49  1  0.67042876  0.33762391  0.67095163  1
  Fe  Fe50  1  0.83710282  0.50481769  0.83783155  1
  Fe  Fe51  1  0.83692360  0.83684381  0.50292591  1
  Fe  Fe52  1  0.66997434  0.67047428  0.67120024  1
  Fe  Fe53  1  0.83571543  0.83629737  0.83913772  1
" 