6263,Ni18Fe21Cr59_7,-215.856202102433, 174.198485423835,Ni18Fe21Cr59,"# generated using pymatgen
 data_Cr33Fe11Ni10
_symmetry_space_group_name_H-M   'P 1'
_cell_length_a   7.53464769
_cell_length_b   7.53464769
_cell_length_c   10.65560095
_cell_angle_alpha   90.00000000
_cell_angle_beta   90.00000000
_cell_angle_gamma   90.00000000
_symmetry_Int_Tables_number   1
_chemical_formula_structural   Cr33Fe11Ni10
_chemical_formula_sum   'Cr33 Fe11 Ni10'
_cell_volume   604.92822453
_cell_formula_units_Z   1
loop_
 _symmetry_equiv_pos_site_id
 _symmetry_equiv_pos_as_xyz
  1  'x, y, z'
loop_
 _atom_site_type_symbol
 _atom_site_label
 _atom_site_symmetry_multiplicity
 _atom_site_fract_x
 _atom_site_fract_y
 _atom_site_fract_z
 _atom_site_occupancy
  Cr  Cr0  1  0.99420902  0.99221096  0.99545372  1
  Cr  Cr1  1  0.16436364  0.16116853  0.16328265  1
  Cr  Cr2  1  -0.00353873  0.99343564  0.32839233  1
  Cr  Cr3  1  -0.00437451  0.32738112  0.99532546  1
  Cr  Cr4  1  0.15977105  0.49908675  0.15857317  1
  Cr  Cr5  1  -0.00359516  0.32901609  0.33240099  1
  Ni  Ni6  1  0.99245454  0.66564833  0.99510086  1
  Cr  Cr7  1  0.16056502  0.82584509  0.16320297  1
  Ni  Ni8  1  0.99320095  0.66572475  0.33027062  1
  Cr  Cr9  1  0.32972879  -0.00339578  0.99435780  1
  Ni  Ni10  1  0.49846652  0.16029919  0.16215427  1
  Fe  Fe11  1  0.32822445  -0.00445407  0.32957379  1
  Cr  Cr12  1  0.33108053  0.32603760  -0.00397445  1
  Cr  Cr13  1  0.49672026  0.49344395  0.16136647  1
  Cr  Cr14  1  0.32953350  0.32722976  0.32891188  1
  Cr  Cr15  1  0.32976682  0.66380612  0.99462446  1
  Cr  Cr16  1  0.49629345  0.83229574  0.16598516  1
  Cr  Cr17  1  0.32997908  0.66261683  0.33051953  1
  Cr  Cr18  1  0.66229488  0.99400338  0.99476864  1
  Cr  Cr19  1  0.82394123  0.16147566  0.16173868  1
  Fe  Fe20  1  0.66148673  0.99419984  0.32816962  1
  Ni  Ni21  1  0.65946997  0.32675912  -0.00428984  1
  Cr  Cr22  1  0.83043604  0.49682769  0.16137432  1
  Cr  Cr23  1  0.66064109  0.33112765  0.33090997  1
  Cr  Cr24  1  0.66422021  0.66480069  0.99498409  1
  Fe  Fe25  1  0.82903959  0.82699442  0.16314963  1
  Fe  Fe26  1  0.66492652  0.66216399  0.33041521  1
  Fe  Fe27  1  0.16357238  0.15675320  0.49658154  1
  Ni  Ni28  1  -0.00320598  0.99307620  0.66192209  1
  Fe  Fe29  1  0.16153365  0.16000492  0.82682583  1
  Cr  Cr30  1  0.16179965  0.50089504  0.49656361  1
  Cr  Cr31  1  -0.00303986  0.32569070  0.65868889  1
  Cr  Cr32  1  0.16162188  0.49861895  0.83131568  1
  Ni  Ni33  1  0.16148785  0.82914506  0.49771850  1
  Fe  Fe34  1  -0.00419293  0.66646283  0.66182356  1
  Cr  Cr35  1  0.16182066  0.82751906  0.82572440  1
  Cr  Cr36  1  0.49681274  0.15940721  0.49489517  1
  Fe  Fe37  1  0.32813084  0.99371882  0.66233636  1
  Fe  Fe38  1  0.49659923  0.15954281  0.82828460  1
  Ni  Ni39  1  0.49512151  0.49680781  0.49555258  1
  Cr  Cr40  1  0.32834668  0.32940419  0.66152313  1
  Cr  Cr41  1  0.49460850  0.49485852  0.82969266  1
  Cr  Cr42  1  0.49251081  0.82975267  0.49621659  1
  Ni  Ni43  1  0.32890396  0.66493910  0.66071032  1
  Fe  Fe44  1  0.49737486  0.83049728  0.82552748  1
  Cr  Cr45  1  0.82780836  0.16044073  0.49735626  1
  Ni  Ni46  1  0.66345590  0.99280046  0.66524504  1
  Cr  Cr47  1  0.82611192  0.16012390  0.82770342  1
  Fe  Fe48  1  0.82791795  0.49934297  0.49432959  1
  Cr  Cr49  1  0.66129927  0.33028950  0.66060586  1
  Cr  Cr50  1  0.83043754  0.49612739  0.82979656  1
  Cr  Cr51  1  0.83072928  0.83023955  0.49521602  1
  Cr  Cr52  1  0.66051878  0.66407823  0.66105790  1
  Ni  Ni53  1  0.83036787  0.83147265  0.82780316  1
" 