6119,Ni18Fe80Cr1_16,-231.490754846118, 178.036931402555,Ni18Fe80Cr1,"# generated using pymatgen
 data_CrFe43Ni10
_symmetry_space_group_name_H-M   'P 1'
_cell_length_a   7.40467427
_cell_length_b   7.40467427
_cell_length_c   10.47179078
_cell_angle_alpha   90.00000000
_cell_angle_beta   90.00000000
_cell_angle_gamma   90.00000000
_symmetry_Int_Tables_number   1
_chemical_formula_structural   CrFe43Ni10
_chemical_formula_sum   'Cr1 Fe43 Ni10'
_cell_volume   574.15992230
_cell_formula_units_Z   1
loop_
 _symmetry_equiv_pos_site_id
 _symmetry_equiv_pos_as_xyz
  1  'x, y, z'
loop_
 _atom_site_type_symbol
 _atom_site_label
 _atom_site_symmetry_multiplicity
 _atom_site_fract_x
 _atom_site_fract_y
 _atom_site_fract_z
 _atom_site_occupancy
  Ni  Ni0  1  1.00254666  0.00443777  1.00393871  1
  Fe  Fe1  1  0.17033095  0.17149788  0.17053816  1
  Ni  Ni2  1  1.00327285  1.00376201  0.33802871  1
  Ni  Ni3  1  0.00586827  0.33706597  1.00396994  1
  Fe  Fe4  1  0.17107540  0.50316592  0.17029500  1
  Fe  Fe5  1  1.00374360  0.33703985  0.33719764  1
  Fe  Fe6  1  0.00428785  0.67088265  1.00396566  1
  Fe  Fe7  1  0.17045049  0.83797349  0.17104069  1
  Fe  Fe8  1  1.00378743  0.67146546  0.33837185  1
  Fe  Fe9  1  0.33724279  0.00546987  1.00368340  1
  Fe  Fe10  1  0.50471886  0.17146339  0.16990757  1
  Fe  Fe11  1  0.33695861  1.00416924  0.33791200  1
  Ni  Ni12  1  0.33725534  0.33879112  0.00467548  1
  Ni  Ni13  1  0.50348180  0.50415088  0.17029561  1
  Fe  Fe14  1  0.33733469  0.33724873  0.33706880  1
  Fe  Fe15  1  0.33716645  0.67064339  0.00451031  1
  Fe  Fe16  1  0.50500842  0.83759495  0.17070780  1
  Fe  Fe17  1  0.33724977  0.67121811  0.33724400  1
  Ni  Ni18  1  0.67191702  1.00312643  0.00465302  1
  Ni  Ni19  1  0.83818995  0.17023637  0.17066288  1
  Fe  Fe20  1  0.67180519  1.00420934  0.33707908  1
  Fe  Fe21  1  0.67114550  0.33624052  0.00443476  1
  Fe  Fe22  1  0.83721131  0.50345110  0.17125356  1
  Fe  Fe23  1  0.67155645  0.33733172  0.33748946  1
  Fe  Fe24  1  0.67117955  0.67057979  0.00446629  1
  Fe  Fe25  1  0.83717348  0.83833667  0.17117384  1
  Fe  Fe26  1  0.67159752  0.67109215  0.33795578  1
  Fe  Fe27  1  0.16858945  0.16968541  0.50301566  1
  Fe  Fe28  1  0.00435856  1.00403564  0.67046205  1
  Fe  Fe29  1  0.17026740  0.17026845  0.83908049  1
  Fe  Fe30  1  0.16888590  0.50570062  0.50342681  1
  Fe  Fe31  1  1.00207154  0.33803853  0.67109300  1
  Fe  Fe32  1  0.17056272  0.50411045  0.83891180  1
  Fe  Fe33  1  0.16961419  0.83725218  0.50399678  1
  Fe  Fe34  1  1.00394610  0.67055974  0.67029580  1
  Fe  Fe35  1  0.17128748  0.83826290  0.83759788  1
  Fe  Fe36  1  0.50617003  0.16993165  0.50405891  1
  Fe  Fe37  1  0.33787793  1.00258168  0.67104641  1
  Ni  Ni38  1  0.50466286  0.17003582  0.83966497  1
  Fe  Fe39  1  0.50620547  0.50578415  0.50263177  1
  Cr  Cr40  1  0.33770992  0.33835978  0.67052129  1
  Fe  Fe41  1  0.50474353  0.50448690  0.83921035  1
  Fe  Fe42  1  0.50523109  0.83691911  0.50432987  1
  Fe  Fe43  1  0.33746381  0.67285091  0.67087926  1
  Fe  Fe44  1  0.50442914  0.83829338  0.83760003  1
  Fe  Fe45  1  0.83787753  0.17065938  0.50336814  1
  Fe  Fe46  1  0.67040147  0.00444916  0.67150466  1
  Fe  Fe47  1  0.83729631  0.17058081  0.83889468  1
  Ni  Ni48  1  0.83783406  0.50476658  0.50407846  1
  Fe  Fe49  1  0.67268431  0.33762380  0.67071516  1
  Fe  Fe50  1  0.83733318  0.50345745  0.83688665  1
  Ni  Ni51  1  0.83822986  0.83694557  0.50401699  1
  Fe  Fe52  1  0.67122695  0.67055801  0.67020934  1
  Fe  Fe53  1  0.83691776  0.83859190  0.83741751  1
" 