1794,Ni18Fe23Cr57_8,-216.028962328382, 173.621392982738,Ni18Fe23Cr57,"# generated using pymatgen
 data_Cr16Fe6Ni5
_symmetry_space_group_name_H-M   'P 1'
_cell_length_a   7.53059255
_cell_length_b   7.53059255
_cell_length_c   10.64986611
_cell_angle_alpha   90.00000000
_cell_angle_beta   90.00000000
_cell_angle_gamma   90.00000000
_symmetry_Int_Tables_number   1
_chemical_formula_structural   Cr16Fe6Ni5
_chemical_formula_sum   'Cr32 Fe12 Ni10'
_cell_volume   603.95203407
_cell_formula_units_Z   2
loop_
 _symmetry_equiv_pos_site_id
 _symmetry_equiv_pos_as_xyz
  1  'x, y, z'
loop_
 _atom_site_type_symbol
 _atom_site_label
 _atom_site_symmetry_multiplicity
 _atom_site_fract_x
 _atom_site_fract_y
 _atom_site_fract_z
 _atom_site_occupancy
  Cr  Cr0  1  -0.00364106  -0.00173476  0.99316594  1
  Cr  Cr1  1  0.16128800  0.16388303  0.16328745  1
  Fe  Fe2  1  -0.00324598  0.99531062  0.33070455  1
  Ni  Ni3  1  0.99564180  0.33179623  0.99341490  1
  Cr  Cr4  1  0.16423689  0.49628608  0.16342355  1
  Ni  Ni5  1  -0.00278681  0.32961751  0.32987724  1
  Fe  Fe6  1  -0.00314540  0.66320744  0.99188361  1
  Cr  Cr7  1  0.16156355  0.82601165  0.16030109  1
  Cr  Cr8  1  -0.00273766  0.66014961  0.33420250  1
  Cr  Cr9  1  0.32816077  0.99359706  0.98997010  1
  Cr  Cr10  1  0.49500118  0.16190476  0.16427195  1
  Cr  Cr11  1  0.32814375  0.99404157  0.32967059  1
  Cr  Cr12  1  0.32895210  0.32822571  -0.00164378  1
  Fe  Fe13  1  0.49503607  0.49813833  0.16168725  1
  Fe  Fe14  1  0.32958712  0.32986412  0.33072547  1
  Ni  Ni15  1  0.33032365  0.66249011  0.99427182  1
  Cr  Cr16  1  0.49628739  0.82765550  0.16046707  1
  Cr  Cr17  1  0.32961401  0.66173024  0.33451959  1
  Cr  Cr18  1  0.66266286  -0.00306043  0.99475323  1
  Cr  Cr19  1  0.83052132  0.16163429  0.16785036  1
  Ni  Ni20  1  0.65959254  -0.00376291  0.33095050  1
  Cr  Cr21  1  0.66502739  0.33157121  -0.00279818  1
  Cr  Cr22  1  0.83339092  0.49886825  0.15725778  1
  Cr  Cr23  1  0.66296925  0.33159914  0.32722962  1
  Fe  Fe24  1  0.66260378  0.66409294  0.99283527  1
  Cr  Cr25  1  0.82906311  0.82921472  0.16489488  1
  Cr  Cr26  1  0.66054706  0.66069967  0.33012672  1
  Cr  Cr27  1  0.16237333  0.16368615  0.49622876  1
  Cr  Cr28  1  -0.00358138  0.99501166  0.66384011  1
  Fe  Fe29  1  0.16104543  0.16484258  0.82820378  1
  Fe  Fe30  1  0.16216781  0.49245467  0.49718491  1
  Ni  Ni31  1  -0.00390184  0.32885292  0.66405921  1
  Cr  Cr32  1  0.16201093  0.49501184  0.82831443  1
  Ni  Ni33  1  0.16299445  0.82916093  0.49608669  1
  Cr  Cr34  1  -0.00374500  0.66199937  0.66206022  1
  Fe  Fe35  1  0.16307751  0.82530120  0.82933858  1
  Cr  Cr36  1  0.49651233  0.16271146  0.49958141  1
  Cr  Cr37  1  0.32826727  0.99328137  0.66702358  1
  Cr  Cr38  1  0.49549412  0.16339734  0.82450041  1
  Ni  Ni39  1  0.49233107  0.49314205  0.49633365  1
  Fe  Fe40  1  0.32730266  0.33022574  0.66160162  1
  Cr  Cr41  1  0.49360545  0.49659405  0.82956103  1
  Fe  Fe42  1  0.49663040  0.83090958  0.49693232  1
  Cr  Cr43  1  0.32941721  0.66325022  0.65682329  1
  Ni  Ni44  1  0.49808981  0.82738410  0.82803888  1
  Cr  Cr45  1  0.82839536  0.16152458  0.49488988  1
  Ni  Ni46  1  0.66196995  0.99376431  0.66336799  1
  Cr  Cr47  1  0.82837037  0.16369426  0.82469772  1
  Cr  Cr48  1  0.82943534  0.49366134  0.50007485  1
  Fe  Fe49  1  0.66244517  0.32991800  0.66206050  1
  Fe  Fe50  1  0.82870493  0.49747505  0.82884430  1
  Cr  Cr51  1  0.82834983  0.83154840  0.49335580  1
  Cr  Cr52  1  0.66132180  0.66221648  0.66197920  1
  Ni  Ni53  1  0.82842567  0.82811620  0.82988336  1
" 