3462,Ni18Fe80Cr1_10,-231.18791293102, 175.316720334441,Ni18Fe80Cr1,"# generated using pymatgen
 data_CrFe43Ni10
_symmetry_space_group_name_H-M   'P 1'
_cell_length_a   7.40423185
_cell_length_b   7.40423185
_cell_length_c   10.47116510
_cell_angle_alpha   90.00000000
_cell_angle_beta   90.00000000
_cell_angle_gamma   90.00000000
_symmetry_Int_Tables_number   1
_chemical_formula_structural   CrFe43Ni10
_chemical_formula_sum   'Cr1 Fe43 Ni10'
_cell_volume   574.05701229
_cell_formula_units_Z   1
loop_
 _symmetry_equiv_pos_site_id
 _symmetry_equiv_pos_as_xyz
  1  'x, y, z'
loop_
 _atom_site_type_symbol
 _atom_site_label
 _atom_site_symmetry_multiplicity
 _atom_site_fract_x
 _atom_site_fract_y
 _atom_site_fract_z
 _atom_site_occupancy
  Ni  Ni0  1  1.00421052  1.00371752  0.00445566  1
  Fe  Fe1  1  0.17117822  0.16904603  0.17078333  1
  Ni  Ni2  1  0.00446731  0.00433705  0.33774575  1
  Fe  Fe3  1  1.00423547  0.33682789  0.00453928  1
  Fe  Fe4  1  0.17177806  0.50509662  0.17155022  1
  Fe  Fe5  1  0.00494891  0.33633074  0.33703583  1
  Fe  Fe6  1  0.00434021  0.67111085  1.00338679  1
  Fe  Fe7  1  0.17089226  0.83841907  0.17181169  1
  Fe  Fe8  1  0.00487703  0.67183749  0.33876703  1
  Fe  Fe9  1  0.33803613  1.00350170  0.00504078  1
  Fe  Fe10  1  0.50390042  0.17055224  0.17224957  1
  Ni  Ni11  1  0.33686425  1.00399865  0.33771959  1
  Fe  Fe12  1  0.33654954  0.33678563  0.00436099  1
  Fe  Fe13  1  0.50439023  0.50488472  0.17073607  1
  Fe  Fe14  1  0.33672653  0.33607295  0.33823108  1
  Fe  Fe15  1  0.33767384  0.67267380  1.00385469  1
  Ni  Ni16  1  0.50408601  0.83841121  0.17150281  1
  Fe  Fe17  1  0.33667631  0.67218422  0.33810503  1
  Fe  Fe18  1  0.67091522  1.00372457  0.00437475  1
  Fe  Fe19  1  0.83766363  0.16936343  0.17079829  1
  Fe  Fe20  1  0.67059488  0.00438660  0.33764391  1
  Fe  Fe21  1  0.67195151  0.33646473  1.00357318  1
  Fe  Fe22  1  0.83653112  0.50505630  0.17102968  1
  Fe  Fe23  1  0.67103691  0.33552974  0.33869761  1
  Fe  Fe24  1  0.67085544  0.67276647  0.00464411  1
  Fe  Fe25  1  0.83804715  0.83822133  0.17095106  1
  Fe  Fe26  1  0.67075993  0.67282385  0.33678973  1
  Fe  Fe27  1  0.17182911  0.16999603  0.50349457  1
  Fe  Fe28  1  1.00413523  1.00406150  0.67073074  1
  Fe  Fe29  1  0.17132738  0.16954128  0.83844274  1
  Ni  Ni30  1  0.16882449  0.50375326  0.50347047  1
  Fe  Fe31  1  1.00417640  0.33913373  0.67101489  1
  Fe  Fe32  1  0.17041718  0.50425783  0.83757828  1
  Ni  Ni33  1  0.16971916  0.83747049  0.50381986  1
  Ni  Ni34  1  1.00410945  0.67181933  0.67129821  1
  Fe  Fe35  1  0.17015516  0.83905859  0.83757122  1
  Ni  Ni36  1  0.50536655  0.17019225  0.50443865  1
  Fe  Fe37  1  0.33780881  0.00567914  0.66965849  1
  Fe  Fe38  1  0.50433528  0.17081552  0.83625673  1
  Fe  Fe39  1  0.50403947  0.50262460  0.50317461  1
  Fe  Fe40  1  0.33685686  0.33673559  0.67006711  1
  Fe  Fe41  1  0.50553134  0.50381539  0.83862661  1
  Fe  Fe42  1  0.50360754  0.83874160  0.50264263  1
  Cr  Cr43  1  0.33725703  0.67159509  0.66964060  1
  Ni  Ni44  1  0.50504278  0.83870704  0.83740016  1
  Fe  Fe45  1  0.83862908  0.17087899  0.50440864  1
  Fe  Fe46  1  0.67077964  1.00355237  0.67081025  1
  Fe  Fe47  1  0.83706242  0.17004667  0.83771627  1
  Fe  Fe48  1  0.83735495  0.50420100  0.50493521  1
  Ni  Ni49  1  0.67074379  0.33707137  0.67098475  1
  Fe  Fe50  1  0.83660044  0.50489831  0.83702128  1
  Fe  Fe51  1  0.83857265  0.83773882  0.50420189  1
  Fe  Fe52  1  0.67272386  0.67072885  0.67146586  1
  Fe  Fe53  1  0.83786854  0.83782159  0.83781242  1
" 