8929,Ni18Fe21Cr59_1,-215.812947314459, 176.303503146334,Ni18Fe21Cr59,"# generated using pymatgen
 data_Cr33Fe11Ni10
_symmetry_space_group_name_H-M   'P 1'
_cell_length_a   7.53825054
_cell_length_b   7.53825054
_cell_length_c   10.66069615
_cell_angle_alpha   90.00000000
_cell_angle_beta   90.00000000
_cell_angle_gamma   90.00000000
_symmetry_Int_Tables_number   1
_chemical_formula_structural   Cr33Fe11Ni10
_chemical_formula_sum   'Cr33 Fe11 Ni10'
_cell_volume   605.79641750
_cell_formula_units_Z   1
loop_
 _symmetry_equiv_pos_site_id
 _symmetry_equiv_pos_as_xyz
  1  'x, y, z'
loop_
 _atom_site_type_symbol
 _atom_site_label
 _atom_site_symmetry_multiplicity
 _atom_site_fract_x
 _atom_site_fract_y
 _atom_site_fract_z
 _atom_site_occupancy
  Cr  Cr0  1  -0.00189854  -0.00425951  -0.00319316  1
  Fe  Fe1  1  0.16429129  0.16001524  0.16386902  1
  Ni  Ni2  1  -0.00410495  -0.00257399  0.33039858  1
  Fe  Fe3  1  -0.00122425  0.32745983  -0.00325258  1
  Ni  Ni4  1  0.16321262  0.49148696  0.16157587  1
  Cr  Cr5  1  -0.00351161  0.32574372  0.32939614  1
  Cr  Cr6  1  -0.00213353  0.66406019  -0.00426784  1
  Fe  Fe7  1  0.16169642  0.82987683  0.16364201  1
  Cr  Cr8  1  -0.00469552  0.66423535  0.33123213  1
  Ni  Ni9  1  0.32661331  -0.00252746  -0.00422769  1
  Fe  Fe10  1  0.49390132  0.16154331  0.16414514  1
  Fe  Fe11  1  0.32620677  -0.00242842  0.32733918  1
  Cr  Cr12  1  0.32979844  0.32729325  -0.00320876  1
  Cr  Cr13  1  0.49435194  0.49453289  0.16458996  1
  Fe  Fe14  1  0.32689875  0.32385455  0.32770478  1
  Cr  Cr15  1  0.32794899  0.66329127  0.99499403  1
  Cr  Cr16  1  0.49395213  0.83326410  0.16525815  1
  Cr  Cr17  1  0.32664015  0.65994786  0.32671111  1
  Cr  Cr18  1  0.65960359  -0.00249016  -0.00462114  1
  Cr  Cr19  1  0.82991841  0.16132869  0.16067077  1
  Ni  Ni20  1  0.66419276  -0.00143809  0.32997079  1
  Cr  Cr21  1  0.65943153  0.32765026  0.99240394  1
  Cr  Cr22  1  0.83195129  0.49343602  0.15898965  1
  Cr  Cr23  1  0.66217045  0.32667725  0.33172339  1
  Cr  Cr24  1  0.65989156  0.66161767  -0.00344948  1
  Cr  Cr25  1  0.82759975  0.83101499  0.16420341  1
  Cr  Cr26  1  0.66354211  0.66314559  0.32997077  1
  Ni  Ni27  1  0.16102147  0.15963892  0.49213256  1
  Cr  Cr28  1  0.99456380  0.99491001  0.65896922  1
  Cr  Cr29  1  0.16310991  0.16078700  0.82882912  1
  Cr  Cr30  1  0.16140032  0.49266949  0.49523534  1
  Cr  Cr31  1  0.99485157  0.32506683  0.65789456  1
  Cr  Cr32  1  0.16047016  0.49434043  0.82812570  1
  Cr  Cr33  1  0.16334293  0.83077983  0.49735537  1
  Fe  Fe34  1  0.99252492  0.66254960  0.65974980  1
  Fe  Fe35  1  0.16223669  0.82990738  0.82772674  1
  Cr  Cr36  1  0.49372879  0.15917290  0.49527162  1
  Fe  Fe37  1  0.32929963  -0.00323198  0.66237665  1
  Fe  Fe38  1  0.49504978  0.16232261  0.82641526  1
  Cr  Cr39  1  0.49440846  0.49459128  0.49398551  1
  Cr  Cr40  1  0.33020011  0.32745686  0.66068250  1
  Ni  Ni41  1  0.49470878  0.49435291  0.82767900  1
  Cr  Cr42  1  0.49600077  0.83129809  0.49287011  1
  Cr  Cr43  1  0.32771412  0.66211816  0.66477823  1
  Cr  Cr44  1  0.49371891  0.83221650  0.82781821  1
  Ni  Ni45  1  0.82874945  0.15939555  0.49503407  1
  Ni  Ni46  1  0.66287693  -0.00254386  0.66029654  1
  Cr  Cr47  1  0.82896647  0.16224276  0.82923047  1
  Ni  Ni48  1  0.82927517  0.49439974  0.49728374  1
  Fe  Fe49  1  0.66281629  0.32689979  0.66084967  1
  Cr  Cr50  1  0.82939130  0.49356875  0.82965161  1
  Ni  Ni51  1  0.82833284  0.83279891  0.49431720  1
  Cr  Cr52  1  0.66164991  0.66224514  0.65968164  1
  Cr  Cr53  1  0.82831543  0.82925830  0.82816152  1
" 