2919,Ni18Fe21Cr59_0,-215.277012476847, 172.358192218883,Ni18Fe21Cr59,"# generated using pymatgen
 data_Cr33Fe11Ni10
_symmetry_space_group_name_H-M   'P 1'
_cell_length_a   7.53496384
_cell_length_b   7.53496384
_cell_length_c   10.65604805
_cell_angle_alpha   90.00000000
_cell_angle_beta   90.00000000
_cell_angle_gamma   90.00000000
_symmetry_Int_Tables_number   1
_chemical_formula_structural   Cr33Fe11Ni10
_chemical_formula_sum   'Cr33 Fe11 Ni10'
_cell_volume   605.00437464
_cell_formula_units_Z   1
loop_
 _symmetry_equiv_pos_site_id
 _symmetry_equiv_pos_as_xyz
  1  'x, y, z'
loop_
 _atom_site_type_symbol
 _atom_site_label
 _atom_site_symmetry_multiplicity
 _atom_site_fract_x
 _atom_site_fract_y
 _atom_site_fract_z
 _atom_site_occupancy
  Fe  Fe0  1  -0.00409531  -0.00124089  0.99469834  1
  Cr  Cr1  1  0.15777298  0.16111898  0.16466028  1
  Fe  Fe2  1  0.99372233  -0.00285723  0.33020689  1
  Cr  Cr3  1  -0.00301635  0.33001633  0.99429688  1
  Fe  Fe4  1  0.16021789  0.49356002  0.16284636  1
  Ni  Ni5  1  0.99523451  0.32735191  0.33074027  1
  Cr  Cr6  1  -0.00387618  0.66084796  0.99525235  1
  Cr  Cr7  1  0.16269675  0.82884516  0.15959998  1
  Cr  Cr8  1  0.99354445  0.66113559  0.33048091  1
  Cr  Cr9  1  0.32969259  -0.00028708  0.99210282  1
  Cr  Cr10  1  0.49787875  0.16141924  0.16475035  1
  Fe  Fe11  1  0.32845382  -0.00388478  0.32989969  1
  Cr  Cr12  1  0.32857188  0.32849349  0.99375761  1
  Cr  Cr13  1  0.49339057  0.49667006  0.16172037  1
  Cr  Cr14  1  0.32595324  0.32653512  0.32882216  1
  Fe  Fe15  1  0.32951521  0.65940420  0.99322834  1
  Cr  Cr16  1  0.49388117  0.82820744  0.16234500  1
  Cr  Cr17  1  0.32701943  0.66134509  0.32718694  1
  Cr  Cr18  1  0.66221734  -0.00262228  -0.00413296  1
  Ni  Ni19  1  0.83246210  0.16176935  0.16365971  1
  Ni  Ni20  1  0.66483631  -0.00426525  0.32877734  1
  Cr  Cr21  1  0.66077320  0.32739842  0.99537782  1
  Cr  Cr22  1  0.82959652  0.49119176  0.16309475  1
  Cr  Cr23  1  0.66388343  0.32833918  0.32737178  1
  Cr  Cr24  1  0.66402984  0.66121389  0.99507414  1
  Cr  Cr25  1  0.83056301  0.83337349  0.16169104  1
  Cr  Cr26  1  0.66547036  0.66469536  0.33106971  1
  Ni  Ni27  1  0.15862433  0.16173974  0.49379440  1
  Cr  Cr28  1  -0.00413904  -0.00427916  0.66213915  1
  Ni  Ni29  1  0.16091042  0.16459357  0.82769221  1
  Cr  Cr30  1  0.16143351  0.49331311  0.49549085  1
  Fe  Fe31  1  -0.00418561  0.32763868  0.66159647  1
  Fe  Fe32  1  0.16381575  0.49433038  0.82719619  1
  Cr  Cr33  1  0.16357916  0.83042020  0.49514358  1
  Cr  Cr34  1  0.99336826  0.65992505  0.66047782  1
  Cr  Cr35  1  0.16230990  0.82865841  0.83091486  1
  Cr  Cr36  1  0.49650130  0.16173103  0.49463357  1
  Cr  Cr37  1  0.32950680  -0.00148071  0.66229225  1
  Ni  Ni38  1  0.49643097  0.16572079  0.82624561  1
  Cr  Cr39  1  0.49748953  0.49621778  0.49734274  1
  Cr  Cr40  1  0.32763732  0.32665527  0.66317700  1
  Ni  Ni41  1  0.49598252  0.49462327  0.82707770  1
  Cr  Cr42  1  0.49520556  0.82824990  0.49694262  1
  Ni  Ni43  1  0.32842875  0.65913379  0.66541450  1
  Cr  Cr44  1  0.49499236  0.82694738  0.82750734  1
  Cr  Cr45  1  0.82968684  0.16463578  0.49507076  1
  Ni  Ni46  1  0.66245085  -0.00352389  0.66260603  1
  Cr  Cr47  1  0.82976632  0.16396061  0.82918777  1
  Ni  Ni48  1  0.82911396  0.49385796  0.49855929  1
  Fe  Fe49  1  0.66236545  0.32938805  0.66362346  1
  Fe  Fe50  1  0.82706231  0.49403791  0.82615764  1
  Fe  Fe51  1  0.82749652  0.83093233  0.49682591  1
  Fe  Fe52  1  0.66126977  0.66174970  0.66253111  1
  Cr  Cr53  1  0.82914247  0.82968464  0.82841642  1
" 