6890,Ni18Fe80Cr1_14,-231.286896965083, 172.851626699166,Ni18Fe80Cr1,"# generated using pymatgen
 data_CrFe43Ni10
_symmetry_space_group_name_H-M   'P 1'
_cell_length_a   7.40518552
_cell_length_b   7.40518552
_cell_length_c   10.47251380
_cell_angle_alpha   90.00000000
_cell_angle_beta   90.00000000
_cell_angle_gamma   90.00000000
_symmetry_Int_Tables_number   1
_chemical_formula_structural   CrFe43Ni10
_chemical_formula_sum   'Cr1 Fe43 Ni10'
_cell_volume   574.27885752
_cell_formula_units_Z   1
loop_
 _symmetry_equiv_pos_site_id
 _symmetry_equiv_pos_as_xyz
  1  'x, y, z'
loop_
 _atom_site_type_symbol
 _atom_site_label
 _atom_site_symmetry_multiplicity
 _atom_site_fract_x
 _atom_site_fract_y
 _atom_site_fract_z
 _atom_site_occupancy
  Fe  Fe0  1  1.00283851  1.00324342  1.00409640  1
  Fe  Fe1  1  0.17023307  0.17067141  0.17135351  1
  Fe  Fe2  1  1.00385926  0.00480300  0.33758255  1
  Fe  Fe3  1  1.00244528  0.33823299  0.00441876  1
  Fe  Fe4  1  0.16996489  0.50511587  0.17103333  1
  Ni  Ni5  1  0.00589903  0.33769704  0.33780281  1
  Ni  Ni6  1  1.00375439  0.67056458  1.00403569  1
  Fe  Fe7  1  0.17007320  0.83674309  0.17075938  1
  Fe  Fe8  1  1.00354389  0.67005714  0.33666097  1
  Fe  Fe9  1  0.33847366  1.00263467  1.00417661  1
  Fe  Fe10  1  0.50439829  0.16920906  0.16984289  1
  Fe  Fe11  1  0.33737590  0.00476892  0.33742599  1
  Fe  Fe12  1  0.33799390  0.33795832  0.00421503  1
  Fe  Fe13  1  0.50435933  0.50626705  0.16992213  1
  Fe  Fe14  1  0.33513826  0.33743240  0.33766443  1
  Fe  Fe15  1  0.33852550  0.67193959  1.00409596  1
  Ni  Ni16  1  0.50449998  0.83792262  0.17203986  1
  Fe  Fe17  1  0.33745691  0.67033125  0.33758566  1
  Ni  Ni18  1  0.67023327  1.00384913  0.00431686  1
  Fe  Fe19  1  0.83790253  0.16932222  0.16963883  1
  Fe  Fe20  1  0.67129376  1.00248044  0.33666199  1
  Fe  Fe21  1  0.67209877  0.33828336  1.00400597  1
  Ni  Ni22  1  0.83921644  0.50507953  0.17043426  1
  Cr  Cr23  1  0.67178965  0.33750860  0.33625841  1
  Ni  Ni24  1  0.67151834  0.67157187  0.00432715  1
  Ni  Ni25  1  0.83621391  0.83664154  0.17077987  1
  Fe  Fe26  1  0.67153213  0.67229846  0.33642110  1
  Fe  Fe27  1  0.17068178  0.17111859  0.50382255  1
  Fe  Fe28  1  1.00409095  0.00449490  0.67085296  1
  Fe  Fe29  1  0.17044135  0.17092231  0.83735632  1
  Fe  Fe30  1  0.17075914  0.50390419  0.50390203  1
  Fe  Fe31  1  1.00365938  0.33743208  0.67068457  1
  Fe  Fe32  1  0.17019980  0.50433969  0.83759628  1
  Fe  Fe33  1  0.17083985  0.83750816  0.50433422  1
  Fe  Fe34  1  1.00409070  0.67060430  0.67145753  1
  Fe  Fe35  1  0.17002917  0.83726821  0.83743647  1
  Fe  Fe36  1  0.50319166  0.17001124  0.50508677  1
  Fe  Fe37  1  0.33766985  1.00385470  0.67093077  1
  Fe  Fe38  1  0.50535574  0.17072134  0.83759733  1
  Fe  Fe39  1  0.50311307  0.50500905  0.50516541  1
  Fe  Fe40  1  0.33754584  0.33751044  0.67065189  1
  Fe  Fe41  1  0.50527951  0.50422553  0.83743880  1
  Fe  Fe42  1  0.50413864  0.83751022  0.50421815  1
  Fe  Fe43  1  0.33774947  0.67116608  0.67085183  1
  Ni  Ni44  1  0.50318224  0.83770036  0.83710612  1
  Fe  Fe45  1  0.83866083  0.17009377  0.50545145  1
  Fe  Fe46  1  0.67076828  0.00428997  0.67166616  1
  Ni  Ni47  1  0.83819095  0.17228518  0.83769285  1
  Fe  Fe48  1  0.83866281  0.50485066  0.50484592  1
  Fe  Fe49  1  0.67132991  0.33751093  0.67093971  1
  Ni  Ni50  1  0.83820005  0.50293066  0.83710531  1
  Fe  Fe51  1  0.83755191  0.83758742  0.50361404  1
  Fe  Fe52  1  0.67068914  0.67073050  0.67158579  1
  Fe  Fe53  1  0.83685092  0.83734690  0.83860731  1
" 