1094,Ni18Fe80Cr1_13,-231.226329573725, 176.127963682144,Ni18Fe80Cr1,"# generated using pymatgen
 data_CrFe43Ni10
_symmetry_space_group_name_H-M   'P 1'
_cell_length_a   7.40299314
_cell_length_b   7.40299314
_cell_length_c   10.46941330
_cell_angle_alpha   90.00000000
_cell_angle_beta   90.00000000
_cell_angle_gamma   90.00000000
_symmetry_Int_Tables_number   1
_chemical_formula_structural   CrFe43Ni10
_chemical_formula_sum   'Cr1 Fe43 Ni10'
_cell_volume   573.76894470
_cell_formula_units_Z   1
loop_
 _symmetry_equiv_pos_site_id
 _symmetry_equiv_pos_as_xyz
  1  'x, y, z'
loop_
 _atom_site_type_symbol
 _atom_site_label
 _atom_site_symmetry_multiplicity
 _atom_site_fract_x
 _atom_site_fract_y
 _atom_site_fract_z
 _atom_site_occupancy
  Fe  Fe0  1  0.00476161  1.00364952  0.00436595  1
  Fe  Fe1  1  0.17092409  0.17012880  0.17160711  1
  Fe  Fe2  1  1.00382855  1.00407229  0.33761994  1
  Fe  Fe3  1  0.00472504  0.33805704  0.00447218  1
  Fe  Fe4  1  0.17120543  0.50540226  0.17070995  1
  Fe  Fe5  1  1.00407329  0.33784619  0.33779749  1
  Fe  Fe6  1  0.00482299  0.67127302  1.00378762  1
  Fe  Fe7  1  0.17106176  0.83744690  0.17016970  1
  Fe  Fe8  1  1.00354922  0.67106220  0.33791258  1
  Fe  Fe9  1  0.33790384  1.00326565  1.00408649  1
  Fe  Fe10  1  0.50486330  0.17024294  0.17092093  1
  Fe  Fe11  1  0.33836855  1.00371807  0.33797634  1
  Fe  Fe12  1  0.33758441  0.33808390  1.00393365  1
  Fe  Fe13  1  0.50479272  0.50549961  0.17099459  1
  Fe  Fe14  1  0.33776769  0.33784411  0.33840935  1
  Ni  Ni15  1  0.33753057  0.67104298  0.00445547  1
  Ni  Ni16  1  0.50517938  0.83722665  0.17065675  1
  Fe  Fe17  1  0.33864974  0.67141690  0.33704140  1
  Fe  Fe18  1  0.67031371  1.00336574  0.00433345  1
  Fe  Fe19  1  0.83719123  0.17009865  0.17084692  1
  Fe  Fe20  1  0.67077964  1.00319226  0.33757825  1
  Fe  Fe21  1  0.67066929  0.33802377  1.00421959  1
  Fe  Fe22  1  0.83698045  0.50536015  0.17127770  1
  Fe  Fe23  1  0.67113597  0.33812583  0.33762039  1
  Fe  Fe24  1  0.67028452  0.67158750  0.00511761  1
  Ni  Ni25  1  0.83654206  0.83723520  0.17066225  1
  Ni  Ni26  1  0.67116037  0.67189707  0.33769202  1
  Ni  Ni27  1  0.17029638  0.17182113  0.50522835  1
  Fe  Fe28  1  0.00686005  0.00451210  0.67099321  1
  Fe  Fe29  1  0.17167124  0.17028284  0.83694868  1
  Fe  Fe30  1  0.17146240  0.50423094  0.50475049  1
  Fe  Fe31  1  0.00468167  0.33766884  0.67071201  1
  Fe  Fe32  1  0.17167134  0.50550159  0.83752024  1
  Fe  Fe33  1  0.17106045  0.83797868  0.50510938  1
  Ni  Ni34  1  0.00462061  0.67113056  0.67099786  1
  Ni  Ni35  1  0.17184509  0.83795017  0.83719099  1
  Fe  Fe36  1  0.50278787  0.17175019  0.50378531  1
  Fe  Fe37  1  0.33554820  1.00393167  0.67091747  1
  Fe  Fe38  1  0.50296501  0.17128209  0.83827247  1
  Fe  Fe39  1  0.50389144  0.50406436  0.50428597  1
  Ni  Ni40  1  0.33728424  0.33752011  0.67132538  1
  Fe  Fe41  1  0.50346888  0.50499889  0.83770025  1
  Ni  Ni42  1  0.50396521  0.83621860  0.50358383  1
  Fe  Fe43  1  0.33765385  0.67140662  0.67181460  1
  Ni  Ni44  1  0.50298625  0.83641623  0.83873821  1
  Fe  Fe45  1  0.83843845  0.17135081  0.50349882  1
  Cr  Cr46  1  0.67078153  1.00382713  0.67049728  1
  Fe  Fe47  1  0.83834158  0.17088200  0.83863132  1
  Fe  Fe48  1  0.83762546  0.50475277  0.50435761  1
  Fe  Fe49  1  0.67117896  0.33977400  0.67113906  1
  Fe  Fe50  1  0.83783722  0.50540329  0.83734326  1
  Fe  Fe51  1  0.83860595  0.83687614  0.50296147  1
  Fe  Fe52  1  0.67059891  0.66922792  0.67038124  1
  Fe  Fe53  1  0.83884011  0.83669290  0.83866731  1
" 