1280,Ni18Fe80Cr1_18,-231.448721963814, 180.477236497618,Ni18Fe80Cr1,"# generated using pymatgen
 data_CrFe43Ni10
_symmetry_space_group_name_H-M   'P 1'
_cell_length_a   7.40452609
_cell_length_b   7.40452609
_cell_length_c   10.47158123
_cell_angle_alpha   90.00000000
_cell_angle_beta   90.00000000
_cell_angle_gamma   90.00000000
_symmetry_Int_Tables_number   1
_chemical_formula_structural   CrFe43Ni10
_chemical_formula_sum   'Cr1 Fe43 Ni10'
_cell_volume   574.12545384
_cell_formula_units_Z   1
loop_
 _symmetry_equiv_pos_site_id
 _symmetry_equiv_pos_as_xyz
  1  'x, y, z'
loop_
 _atom_site_type_symbol
 _atom_site_label
 _atom_site_symmetry_multiplicity
 _atom_site_fract_x
 _atom_site_fract_y
 _atom_site_fract_z
 _atom_site_occupancy
  Fe  Fe0  1  1.00390917  0.00481492  0.00426550  1
  Fe  Fe1  1  0.17002733  0.17156024  0.17123868  1
  Ni  Ni2  1  0.00498854  0.00433506  0.33692425  1
  Ni  Ni3  1  1.00401551  0.33790913  1.00319585  1
  Fe  Fe4  1  0.16976145  0.50391047  0.17010327  1
  Fe  Fe5  1  0.00437542  0.33700123  0.33648582  1
  Ni  Ni6  1  0.00433367  0.67136315  0.00485075  1
  Fe  Fe7  1  0.17039523  0.83749022  0.17027000  1
  Fe  Fe8  1  0.00637408  0.67224463  0.33670034  1
  Fe  Fe9  1  0.33621695  0.00486435  0.00482992  1
  Fe  Fe10  1  0.50456375  0.17137693  0.17071706  1
  Ni  Ni11  1  0.33675768  0.00467418  0.33830842  1
  Fe  Fe12  1  0.33649703  0.33805269  1.00288173  1
  Fe  Fe13  1  0.50375476  0.50255655  0.16948759  1
  Fe  Fe14  1  0.33721683  0.33681636  0.33888944  1
  Fe  Fe15  1  0.33643896  0.66984548  1.00368786  1
  Fe  Fe16  1  0.50314390  0.83858565  0.17027508  1
  Fe  Fe17  1  0.33522628  0.67224564  0.33751580  1
  Fe  Fe18  1  0.67250451  0.00474431  1.00376498  1
  Fe  Fe19  1  0.83804089  0.17186371  0.17023412  1
  Fe  Fe20  1  0.67129326  0.00540811  0.33800288  1
  Ni  Ni21  1  0.67059142  0.33765441  1.00334795  1
  Ni  Ni22  1  0.83830832  0.50312260  0.17043627  1
  Fe  Fe23  1  0.67114032  0.33427210  0.33628394  1
  Fe  Fe24  1  0.67252421  0.66972714  0.00493394  1
  Fe  Fe25  1  0.83930335  0.83836282  0.17016056  1
  Cr  Cr26  1  0.67158929  0.66960344  0.33661888  1
  Fe  Fe27  1  0.17022284  0.17046223  0.50422774  1
  Fe  Fe28  1  0.00443328  1.00405849  0.67054303  1
  Fe  Fe29  1  0.17011541  0.17000700  0.83738272  1
  Fe  Fe30  1  0.17036054  0.50443975  0.50501701  1
  Fe  Fe31  1  0.00506267  0.33744481  0.67172347  1
  Fe  Fe32  1  0.16989678  0.50555030  0.83761347  1
  Fe  Fe33  1  0.17015268  0.83798046  0.50463951  1
  Fe  Fe34  1  0.00429672  0.67122482  0.67206180  1
  Ni  Ni35  1  0.17051182  0.83803495  0.83746159  1
  Fe  Fe36  1  0.50443977  0.17041031  0.50467292  1
  Fe  Fe37  1  0.33710967  0.00472392  0.67065438  1
  Fe  Fe38  1  0.50425426  0.16968743  0.83771977  1
  Fe  Fe39  1  0.50371457  0.50361205  0.50571448  1
  Ni  Ni40  1  0.33730298  0.33674029  0.67172941  1
  Fe  Fe41  1  0.50426926  0.50534082  0.83721749  1
  Fe  Fe42  1  0.50385408  0.83871962  0.50470296  1
  Fe  Fe43  1  0.33711593  0.67036753  0.67136239  1
  Fe  Fe44  1  0.50418789  0.83759723  0.83780659  1
  Fe  Fe45  1  0.83813908  0.17018442  0.50394802  1
  Fe  Fe46  1  0.67123899  1.00408806  0.67119521  1
  Fe  Fe47  1  0.83820048  0.16999881  0.83801744  1
  Fe  Fe48  1  0.83896146  0.50358675  0.50428356  1
  Fe  Fe49  1  0.67038961  0.33747874  0.67199516  1
  Fe  Fe50  1  0.83838051  0.50547643  0.83914927  1
  Ni  Ni51  1  0.83864472  0.83802751  0.50407436  1
  Fe  Fe52  1  0.67131360  0.67114616  0.67029381  1
  Ni  Ni53  1  0.83811788  0.83718517  0.83836118  1
" 