991,Ni18Fe23Cr57_11,-216.097140772178, 166.104964135578,Ni18Fe23Cr57,"# generated using pymatgen
 data_Cr16Fe6Ni5
_symmetry_space_group_name_H-M   'P 1'
_cell_length_a   7.53846955
_cell_length_b   7.53846955
_cell_length_c   10.66100587
_cell_angle_alpha   90.00000000
_cell_angle_beta   90.00000000
_cell_angle_gamma   90.00000000
_symmetry_Int_Tables_number   1
_chemical_formula_structural   Cr16Fe6Ni5
_chemical_formula_sum   'Cr32 Fe12 Ni10'
_cell_volume   605.84921823
_cell_formula_units_Z   2
loop_
 _symmetry_equiv_pos_site_id
 _symmetry_equiv_pos_as_xyz
  1  'x, y, z'
loop_
 _atom_site_type_symbol
 _atom_site_label
 _atom_site_symmetry_multiplicity
 _atom_site_fract_x
 _atom_site_fract_y
 _atom_site_fract_z
 _atom_site_occupancy
  Ni  Ni0  1  0.99511629  0.99311264  0.99270779  1
  Cr  Cr1  1  0.16247270  0.16079866  0.16274593  1
  Cr  Cr2  1  -0.00417130  -0.00389456  0.32858676  1
  Cr  Cr3  1  -0.00343649  0.32744109  0.99517278  1
  Ni  Ni4  1  0.16393760  0.49632870  0.16488934  1
  Fe  Fe5  1  -0.00289927  0.32955618  0.32914530  1
  Cr  Cr6  1  -0.00310797  0.66666610  0.99454622  1
  Fe  Fe7  1  0.16279689  0.82809797  0.16200090  1
  Cr  Cr8  1  -0.00168185  0.66143755  0.32690820  1
  Cr  Cr9  1  0.32698944  -0.00322823  -0.00450336  1
  Ni  Ni10  1  0.49340413  0.16183048  0.16185616  1
  Fe  Fe11  1  0.32911065  0.99393258  0.32824498  1
  Cr  Cr12  1  0.33107762  0.32837304  -0.00294772  1
  Fe  Fe13  1  0.49269840  0.49458260  0.16291528  1
  Cr  Cr14  1  0.32731287  0.32908977  0.32589839  1
  Cr  Cr15  1  0.32566403  0.66041302  -0.00400346  1
  Cr  Cr16  1  0.49272739  0.82902166  0.16626671  1
  Ni  Ni17  1  0.32645959  0.66094843  0.32854666  1
  Cr  Cr18  1  0.66427045  -0.00276035  0.99327436  1
  Cr  Cr19  1  0.82939331  0.16212236  0.16226055  1
  Cr  Cr20  1  0.66125836  -0.00355629  0.32988825  1
  Cr  Cr21  1  0.65814025  0.32589246  0.99517857  1
  Cr  Cr22  1  0.82949672  0.49482068  0.16233637  1
  Cr  Cr23  1  0.66069549  0.32663822  0.32682547  1
  Cr  Cr24  1  0.66311551  0.66240174  -0.00446560  1
  Cr  Cr25  1  0.82986905  0.82910197  0.15979439  1
  Cr  Cr26  1  0.66032168  0.66264670  0.32852196  1
  Fe  Fe27  1  0.15971587  0.16234694  0.49638680  1
  Ni  Ni28  1  0.99402500  -0.00372273  0.66381548  1
  Cr  Cr29  1  0.16009462  0.15874422  0.82772715  1
  Fe  Fe30  1  0.16252433  0.49476702  0.49443529  1
  Fe  Fe31  1  0.99217443  0.32474818  0.66147368  1
  Cr  Cr32  1  0.16214017  0.49609431  0.82653816  1
  Cr  Cr33  1  0.16633377  0.83041867  0.49535607  1
  Cr  Cr34  1  -0.00266051  0.66444852  0.66412281  1
  Ni  Ni35  1  0.16014676  0.83163251  0.82832834  1
  Cr  Cr36  1  0.49463547  0.15861167  0.49697026  1
  Fe  Fe37  1  0.32851519  0.99437885  0.66243730  1
  Fe  Fe38  1  0.49818825  0.16033210  0.82647796  1
  Cr  Cr39  1  0.49473618  0.49794366  0.49593777  1
  Cr  Cr40  1  0.32837089  0.32845231  0.66311660  1
  Cr  Cr41  1  0.49600752  0.49449551  0.82834761  1
  Fe  Fe42  1  0.49394552  0.82904757  0.49583482  1
  Fe  Fe43  1  0.32811555  0.66455824  0.66133365  1
  Cr  Cr44  1  0.49409741  0.82986760  0.82404074  1
  Fe  Fe45  1  0.82966394  0.16178529  0.49875873  1
  Ni  Ni46  1  0.66411255  -0.00156328  0.66271942  1
  Ni  Ni47  1  0.82833665  0.15853782  0.82511093  1
  Cr  Cr48  1  0.83010088  0.49111019  0.49556440  1
  Ni  Ni49  1  0.66200850  0.32359703  0.66323002  1
  Cr  Cr50  1  0.82758160  0.49320134  0.82781666  1
  Cr  Cr51  1  0.82694070  0.83047536  0.49604214  1
  Cr  Cr52  1  0.66240218  0.66401746  0.66167262  1
  Ni  Ni53  1  0.83090817  0.83405159  0.82800654  1
" 