1016,Ni18Fe23Cr57_6,-216.440901566313, 173.770367578157,Ni18Fe23Cr57,"# generated using pymatgen
 data_Cr16Fe6Ni5
_symmetry_space_group_name_H-M   'P 1'
_cell_length_a   7.53516189
_cell_length_b   7.53516189
_cell_length_c   10.65632814
_cell_angle_alpha   90.00000000
_cell_angle_beta   90.00000000
_cell_angle_gamma   90.00000000
_symmetry_Int_Tables_number   1
_chemical_formula_structural   Cr16Fe6Ni5
_chemical_formula_sum   'Cr32 Fe12 Ni10'
_cell_volume   605.05208209
_cell_formula_units_Z   2
loop_
 _symmetry_equiv_pos_site_id
 _symmetry_equiv_pos_as_xyz
  1  'x, y, z'
loop_
 _atom_site_type_symbol
 _atom_site_label
 _atom_site_symmetry_multiplicity
 _atom_site_fract_x
 _atom_site_fract_y
 _atom_site_fract_z
 _atom_site_occupancy
  Fe  Fe0  1  0.99328807  -0.00442534  0.99538409  1
  Cr  Cr1  1  0.16325555  0.16254257  0.15982998  1
  Cr  Cr2  1  0.99329998  -0.00382641  0.32528932  1
  Ni  Ni3  1  0.99496418  0.32877466  0.99373956  1
  Cr  Cr4  1  0.16469313  0.49481956  0.16341670  1
  Cr  Cr5  1  -0.00247813  0.32847788  0.33185815  1
  Cr  Cr6  1  0.99362160  0.66127197  -0.00439138  1
  Cr  Cr7  1  0.16120007  0.82947043  0.16138541  1
  Cr  Cr8  1  0.99535855  0.66145887  0.32976464  1
  Cr  Cr9  1  0.33023352  0.99436573  0.99400089  1
  Cr  Cr10  1  0.49522881  0.16405226  0.16440976  1
  Fe  Fe11  1  0.33104986  -0.00370355  0.33067793  1
  Fe  Fe12  1  0.32790035  0.32945770  0.99533753  1
  Cr  Cr13  1  0.49432417  0.49349655  0.15951688  1
  Ni  Ni14  1  0.32912491  0.32851108  0.32970929  1
  Fe  Fe15  1  0.32859247  0.66284620  0.99377100  1
  Cr  Cr16  1  0.49455819  0.82897292  0.16462363  1
  Fe  Fe17  1  0.32923426  0.66159410  0.33066748  1
  Cr  Cr18  1  0.66108931  0.99355914  0.99445589  1
  Cr  Cr19  1  0.82806978  0.16116133  0.16028569  1
  Ni  Ni20  1  0.65942946  0.99502482  0.33149259  1
  Fe  Fe21  1  0.66517687  0.32786138  0.99329362  1
  Cr  Cr22  1  0.82766270  0.49478620  0.16144304  1
  Cr  Cr23  1  0.66183862  0.32686037  0.33017099  1
  Cr  Cr24  1  0.66103959  0.66375441  -0.00373217  1
  Ni  Ni25  1  0.82833478  0.83110480  0.16281943  1
  Cr  Cr26  1  0.66201771  0.66532347  0.32579879  1
  Cr  Cr27  1  0.16405703  0.15961745  0.49378383  1
  Cr  Cr28  1  -0.00408351  -0.00152046  0.66456339  1
  Cr  Cr29  1  0.16150113  0.16110570  0.83208332  1
  Fe  Fe30  1  0.16396625  0.49626205  0.49610028  1
  Cr  Cr31  1  0.99448269  0.32917981  0.66042146  1
  Cr  Cr32  1  0.16208970  0.49649029  0.82711808  1
  Cr  Cr33  1  0.16363711  0.82775814  0.49766816  1
  Fe  Fe34  1  -0.00341534  0.66117556  0.66239330  1
  Cr  Cr35  1  0.16365310  0.82912828  0.82719470  1
  Fe  Fe36  1  0.49744229  0.16006079  0.49609998  1
  Ni  Ni37  1  0.33231364  0.99283064  0.66112724  1
  Cr  Cr38  1  0.49664621  0.16248395  0.82659244  1
  Cr  Cr39  1  0.49488172  0.49513431  0.49484132  1
  Cr  Cr40  1  0.32914020  0.32747817  0.66088949  1
  Cr  Cr41  1  0.49694367  0.49526054  0.83187698  1
  Fe  Fe42  1  0.49574599  0.83115160  0.49657946  1
  Ni  Ni43  1  0.33065237  0.66483506  0.66211812  1
  Ni  Ni44  1  0.49460514  0.82934121  0.82532185  1
  Ni  Ni45  1  0.82484503  0.16050291  0.49752123  1
  Fe  Fe46  1  0.65947742  -0.00279002  0.66087406  1
  Fe  Fe47  1  0.82768267  0.16487832  0.82895686  1
  Cr  Cr48  1  0.82719680  0.49542184  0.49766503  1
  Ni  Ni49  1  0.66376950  0.32714591  0.66348595  1
  Ni  Ni50  1  0.82833955  0.49269939  0.82844103  1
  Cr  Cr51  1  0.82831491  0.83112228  0.49558302  1
  Cr  Cr52  1  0.66089522  0.66232347  0.66430953  1
  Cr  Cr53  1  0.82904397  0.82926256  0.82730398  1
" 