7290,Ni18Fe61Cr20_0,-226.769453334125, 173.623189872466,Ni18Fe61Cr20,"# generated using pymatgen
 data_Cr4Fe11Ni3
_symmetry_space_group_name_H-M   'P 1'
_cell_length_a   7.45677852
_cell_length_b   7.45677852
_cell_length_c   10.54547731
_cell_angle_alpha   90.00000000
_cell_angle_beta   90.00000000
_cell_angle_gamma   90.00000000
_symmetry_Int_Tables_number   1
_chemical_formula_structural   Cr4Fe11Ni3
_chemical_formula_sum   'Cr12 Fe33 Ni9'
_cell_volume   586.36593158
_cell_formula_units_Z   3
loop_
 _symmetry_equiv_pos_site_id
 _symmetry_equiv_pos_as_xyz
  1  'x, y, z'
loop_
 _atom_site_type_symbol
 _atom_site_label
 _atom_site_symmetry_multiplicity
 _atom_site_fract_x
 _atom_site_fract_y
 _atom_site_fract_z
 _atom_site_occupancy
  Fe  Fe0  1  0.00225717  0.00361803  1.00052329  1
  Ni  Ni1  1  0.16672733  0.17179024  0.16741485  1
  Ni  Ni2  1  0.99969515  0.00270333  0.33613664  1
  Fe  Fe3  1  1.00061278  0.33271376  0.00073534  1
  Fe  Fe4  1  0.16782398  0.49995540  0.17114030  1
  Fe  Fe5  1  0.00342217  0.33179827  0.33479884  1
  Cr  Cr6  1  0.00215654  0.66654216  0.99846144  1
  Cr  Cr7  1  0.16802371  0.83763289  0.16791714  1
  Fe  Fe8  1  0.00287858  0.66846964  0.33592940  1
  Fe  Fe9  1  0.33284127  0.00347650  0.00201135  1
  Fe  Fe10  1  0.49816056  0.16567497  0.16864848  1
  Cr  Cr11  1  0.33383124  1.00014271  0.33594134  1
  Fe  Fe12  1  0.33308678  0.33221363  1.00061894  1
  Fe  Fe13  1  0.49717507  0.49990454  0.16907664  1
  Fe  Fe14  1  0.33219917  0.33287415  0.33691365  1
  Cr  Cr15  1  0.33145200  0.66760890  0.00148636  1
  Ni  Ni16  1  0.50093820  0.83335444  0.17000194  1
  Ni  Ni17  1  0.33301223  0.66483766  0.33596398  1
  Cr  Cr18  1  0.66734800  0.00433356  0.00196738  1
  Fe  Fe19  1  0.83682880  0.16673078  0.17000825  1
  Ni  Ni20  1  0.66874923  0.00136644  0.33693347  1
  Fe  Fe21  1  0.66832808  0.33464150  0.00178684  1
  Fe  Fe22  1  0.83672077  0.49872442  0.16962112  1
  Cr  Cr23  1  0.66598518  0.33137920  0.33327815  1
  Cr  Cr24  1  0.66842090  0.66625488  0.00244977  1
  Cr  Cr25  1  0.83339246  0.83449166  0.17250160  1
  Fe  Fe26  1  0.66395305  0.66906845  0.33489355  1
  Fe  Fe27  1  0.16578843  0.16956493  0.50041628  1
  Fe  Fe28  1  0.00133431  0.00305142  0.66521388  1
  Fe  Fe29  1  0.16900663  0.16810075  0.83410372  1
  Ni  Ni30  1  0.16829397  0.50066599  0.50039993  1
  Fe  Fe31  1  0.00371962  0.33223662  0.66620717  1
  Fe  Fe32  1  0.16717250  0.49820726  0.82995589  1
  Fe  Fe33  1  0.16531210  0.83391515  0.50058082  1
  Fe  Fe34  1  0.00302920  0.66660837  0.66761858  1
  Fe  Fe35  1  0.16612282  0.83697156  0.83118099  1
  Ni  Ni36  1  0.50032658  0.16506059  0.50249261  1
  Fe  Fe37  1  0.33250138  0.00308124  0.66456063  1
  Fe  Fe38  1  0.49748930  0.16752687  0.83197930  1
  Fe  Fe39  1  0.49840471  0.49861305  0.50120839  1
  Ni  Ni40  1  0.33266173  0.33336145  0.66432561  1
  Cr  Cr41  1  0.50014485  0.49968308  0.83120798  1
  Fe  Fe42  1  0.50161922  0.83225864  0.50032900  1
  Fe  Fe43  1  0.33220864  0.66680956  0.66343604  1
  Cr  Cr44  1  0.49908319  0.83595261  0.83205032  1
  Ni  Ni45  1  0.83484696  0.16525650  0.49975244  1
  Fe  Fe46  1  0.66758947  1.00006641  0.66427480  1
  Fe  Fe47  1  0.83590976  0.16666648  0.83260047  1
  Cr  Cr48  1  0.83643062  0.50073855  0.49988847  1
  Cr  Cr49  1  0.66760287  0.33096054  0.66719942  1
  Fe  Fe50  1  0.83610115  0.49956108  0.83200238  1
  Fe  Fe51  1  0.83502676  0.83619447  0.49980801  1
  Fe  Fe52  1  0.66825306  0.66821327  0.66598268  1
  Fe  Fe53  1  0.83518274  0.83555448  0.83124713  1
" 