1356,Ni18Fe80Cr1_2,-231.467543998749, 177.563318733365,Ni18Fe80Cr1,"# generated using pymatgen
 data_CrFe43Ni10
_symmetry_space_group_name_H-M   'P 1'
_cell_length_a   7.40678962
_cell_length_b   7.40678962
_cell_length_c   10.47478234
_cell_angle_alpha   90.00000000
_cell_angle_beta   90.00000000
_cell_angle_gamma   90.00000000
_symmetry_Int_Tables_number   1
_chemical_formula_structural   CrFe43Ni10
_chemical_formula_sum   'Cr1 Fe43 Ni10'
_cell_volume   574.65213666
_cell_formula_units_Z   1
loop_
 _symmetry_equiv_pos_site_id
 _symmetry_equiv_pos_as_xyz
  1  'x, y, z'
loop_
 _atom_site_type_symbol
 _atom_site_label
 _atom_site_symmetry_multiplicity
 _atom_site_fract_x
 _atom_site_fract_y
 _atom_site_fract_z
 _atom_site_occupancy
  Fe  Fe0  1  0.00506878  0.00464214  1.00353663  1
  Ni  Ni1  1  0.17051204  0.17197415  0.17037189  1
  Fe  Fe2  1  0.00414368  0.00406805  0.33797534  1
  Ni  Ni3  1  1.00265991  0.33552244  0.00511088  1
  Fe  Fe4  1  0.17130580  0.50417523  0.17005272  1
  Fe  Fe5  1  0.00414103  0.33747710  0.33675417  1
  Fe  Fe6  1  1.00346040  0.67089840  0.00506720  1
  Fe  Fe7  1  0.17150973  0.83753610  0.17061904  1
  Fe  Fe8  1  1.00338033  0.67066078  0.33801548  1
  Fe  Fe9  1  0.33694806  0.00417369  0.00418550  1
  Fe  Fe10  1  0.50374848  0.17026277  0.17103098  1
  Fe  Fe11  1  0.33747258  0.00428943  0.33678594  1
  Fe  Fe12  1  0.33717286  0.33647354  0.00499562  1
  Fe  Fe13  1  0.50323074  0.50426591  0.17054545  1
  Fe  Fe14  1  0.33716549  0.33694616  0.33724382  1
  Ni  Ni15  1  0.33903326  0.67200329  0.00566729  1
  Ni  Ni16  1  0.50476255  0.83705704  0.17143425  1
  Fe  Fe17  1  0.33770797  0.67096910  0.33709407  1
  Fe  Fe18  1  0.67019120  1.00344946  0.00414256  1
  Fe  Fe19  1  0.83752331  0.17046098  0.17043016  1
  Fe  Fe20  1  0.67058731  1.00352578  0.33732826  1
  Fe  Fe21  1  0.67084222  0.33808138  1.00403400  1
  Fe  Fe22  1  0.83766574  0.50368864  0.17096952  1
  Fe  Fe23  1  0.67089600  0.33771059  0.33778387  1
  Fe  Fe24  1  0.67037968  0.67067237  0.00410893  1
  Fe  Fe25  1  0.83743513  0.83805137  0.17138379  1
  Fe  Fe26  1  0.67111644  0.67096550  0.33763358  1
  Fe  Fe27  1  0.16942785  0.17053469  0.50426000  1
  Ni  Ni28  1  1.00363265  0.00480554  0.67094588  1
  Ni  Ni29  1  0.17049652  0.17020253  0.83718734  1
  Fe  Fe30  1  0.17007389  0.50494450  0.50444094  1
  Fe  Fe31  1  1.00378302  0.33658504  0.67045153  1
  Cr  Cr32  1  0.17004752  0.50235624  0.83733368  1
  Fe  Fe33  1  0.16961542  0.83672576  0.50456559  1
  Fe  Fe34  1  1.00307027  0.67205523  0.66912355  1
  Fe  Fe35  1  0.17151550  0.83925082  0.83701924  1
  Fe  Fe36  1  0.50528924  0.17095247  0.50391899  1
  Fe  Fe37  1  0.33690179  1.00375041  0.67123109  1
  Fe  Fe38  1  0.50360915  0.17055804  0.83725336  1
  Fe  Fe39  1  0.50477173  0.50464868  0.50433079  1
  Fe  Fe40  1  0.33752362  0.33613100  0.66996161  1
  Fe  Fe41  1  0.50472736  0.50450224  0.83732696  1
  Fe  Fe42  1  0.50480215  0.83660176  0.50422062  1
  Ni  Ni43  1  0.33901163  0.67147171  0.66914722  1
  Ni  Ni44  1  0.50503964  0.83741711  0.83674913  1
  Fe  Fe45  1  0.83748504  0.17049911  0.50430041  1
  Fe  Fe46  1  0.67062772  1.00302871  0.67073250  1
  Fe  Fe47  1  0.83796894  0.17045055  0.83747475  1
  Ni  Ni48  1  0.83788031  0.50487403  0.50463261  1
  Fe  Fe49  1  0.67089515  0.33774166  0.67038724  1
  Fe  Fe50  1  0.83585549  0.50361352  0.83728151  1
  Ni  Ni51  1  0.83657604  0.83638615  0.50402410  1
  Fe  Fe52  1  0.67108288  0.67143307  0.67046242  1
  Fe  Fe53  1  0.83788744  0.83813673  0.83659469  1
" 