1545,Ni18Fe21Cr59_9,-215.18542130787, 170.818393916066,Ni18Fe21Cr59,"# generated using pymatgen
 data_Cr33Fe11Ni10
_symmetry_space_group_name_H-M   'P 1'
_cell_length_a   7.53514633
_cell_length_b   7.53514633
_cell_length_c   10.65630614
_cell_angle_alpha   90.00000000
_cell_angle_beta   90.00000000
_cell_angle_gamma   90.00000000
_symmetry_Int_Tables_number   1
_chemical_formula_structural   Cr33Fe11Ni10
_chemical_formula_sum   'Cr33 Fe11 Ni10'
_cell_volume   605.04833483
_cell_formula_units_Z   1
loop_
 _symmetry_equiv_pos_site_id
 _symmetry_equiv_pos_as_xyz
  1  'x, y, z'
loop_
 _atom_site_type_symbol
 _atom_site_label
 _atom_site_symmetry_multiplicity
 _atom_site_fract_x
 _atom_site_fract_y
 _atom_site_fract_z
 _atom_site_occupancy
  Cr  Cr0  1  -0.00189068  0.99360167  0.99324572  1
  Cr  Cr1  1  0.16264165  0.16353001  0.16161319  1
  Cr  Cr2  1  -0.00337577  -0.00305566  0.32996122  1
  Cr  Cr3  1  0.99400268  0.33149992  -0.00237650  1
  Fe  Fe4  1  0.16347774  0.49645761  0.16492438  1
  Cr  Cr5  1  0.99519991  0.32966387  0.32924542  1
  Fe  Fe6  1  0.99479293  0.66162718  0.99505091  1
  Cr  Cr7  1  0.16164571  0.82451928  0.16349670  1
  Fe  Fe8  1  -0.00352122  0.65711182  0.32839840  1
  Cr  Cr9  1  0.32876250  0.99338832  0.99323463  1
  Ni  Ni10  1  0.49620552  0.16266291  0.16535195  1
  Cr  Cr11  1  0.32840642  -0.00325041  0.32928842  1
  Cr  Cr12  1  0.33039703  0.32992588  0.00087284  1
  Fe  Fe13  1  0.49483141  0.49808692  0.16438066  1
  Ni  Ni14  1  0.32961786  0.33097315  0.32706119  1
  Cr  Cr15  1  0.33017435  0.66393628  -0.00318706  1
  Ni  Ni16  1  0.49569003  0.82936968  0.16438992  1
  Ni  Ni17  1  0.33048547  0.66028201  0.32552165  1
  Cr  Cr18  1  0.65944341  0.99399839  -0.00230709  1
  Fe  Fe19  1  0.82703943  0.16150936  0.16287589  1
  Fe  Fe20  1  0.65838333  -0.00296347  0.32660129  1
  Cr  Cr21  1  0.66220908  0.33241171  0.00046963  1
  Ni  Ni22  1  0.83175727  0.49715728  0.16170202  1
  Cr  Cr23  1  0.66205776  0.33115291  0.32638597  1
  Cr  Cr24  1  0.66166225  0.66099329  0.99259114  1
  Cr  Cr25  1  0.82847979  0.82814468  0.16497429  1
  Cr  Cr26  1  0.66245051  0.65871967  0.32969005  1
  Fe  Fe27  1  0.16469335  0.16523668  0.49551359  1
  Cr  Cr28  1  -0.00198139  -0.00436029  0.66173498  1
  Cr  Cr29  1  0.16237555  0.16544200  0.82667774  1
  Cr  Cr30  1  0.16454767  0.49560556  0.49413095  1
  Fe  Fe31  1  -0.00275763  0.33046435  0.66033367  1
  Cr  Cr32  1  0.16298253  0.49537838  0.82903103  1
  Cr  Cr33  1  0.16343537  0.82424563  0.49281468  1
  Cr  Cr34  1  0.99365932  0.66221653  0.66258812  1
  Ni  Ni35  1  0.16214170  0.82449427  0.82872237  1
  Fe  Fe36  1  0.49314438  0.16504696  0.49423084  1
  Cr  Cr37  1  0.32705224  0.99393301  0.66282922  1
  Cr  Cr38  1  0.49612461  0.16405118  0.82807132  1
  Cr  Cr39  1  0.49244619  0.49568189  0.49696198  1
  Ni  Ni40  1  0.32710392  0.32883941  0.65850641  1
  Cr  Cr41  1  0.49267391  0.49423936  0.82629007  1
  Cr  Cr42  1  0.49473886  0.82762447  0.49422211  1
  Ni  Ni43  1  0.32731496  0.66181330  0.66406147  1
  Ni  Ni44  1  0.49357119  0.82651100  0.82725045  1
  Cr  Cr45  1  0.82680204  0.16155541  0.49422013  1
  Cr  Cr46  1  0.66130674  0.99367295  0.66136861  1
  Cr  Cr47  1  0.82821639  0.16357870  0.83079523  1
  Ni  Ni48  1  0.83097188  0.49325110  0.49690697  1
  Cr  Cr49  1  0.66447194  0.33193233  0.66120596  1
  Fe  Fe50  1  0.83032825  0.49676560  0.82955786  1
  Cr  Cr51  1  0.82799654  0.82747704  0.49078130  1
  Cr  Cr52  1  0.66240876  0.66152348  0.66414097  1
  Fe  Fe53  1  0.82919245  0.82831350  0.82958322  1
" 