5567,Ni18Fe23Cr57_5,-215.951939561358, 174.014223649052,Ni18Fe23Cr57,"# generated using pymatgen
 data_Cr16Fe6Ni5
_symmetry_space_group_name_H-M   'P 1'
_cell_length_a   7.52717579
_cell_length_b   7.52717579
_cell_length_c   10.64503409
_cell_angle_alpha   90.00000000
_cell_angle_beta   90.00000000
_cell_angle_gamma   90.00000000
_symmetry_Int_Tables_number   1
_chemical_formula_structural   Cr16Fe6Ni5
_chemical_formula_sum   'Cr32 Fe12 Ni10'
_cell_volume   603.13033768
_cell_formula_units_Z   2
loop_
 _symmetry_equiv_pos_site_id
 _symmetry_equiv_pos_as_xyz
  1  'x, y, z'
loop_
 _atom_site_type_symbol
 _atom_site_label
 _atom_site_symmetry_multiplicity
 _atom_site_fract_x
 _atom_site_fract_y
 _atom_site_fract_z
 _atom_site_occupancy
  Cr  Cr0  1  -0.00293364  0.99505093  -0.00272165  1
  Cr  Cr1  1  0.16335488  0.16226036  0.16290820  1
  Fe  Fe2  1  -0.00321058  0.99089808  0.33066325  1
  Cr  Cr3  1  -0.00249833  0.33306687  0.99366418  1
  Fe  Fe4  1  0.16164061  0.49860696  0.16291125  1
  Cr  Cr5  1  0.99492709  0.33245575  0.32942655  1
  Ni  Ni6  1  -0.00200301  0.65929415  0.99525986  1
  Fe  Fe7  1  0.16138020  0.82501948  0.16377050  1
  Ni  Ni8  1  0.99594346  0.66364977  0.33083705  1
  Cr  Cr9  1  0.33040496  0.99247650  -0.00287949  1
  Cr  Cr10  1  0.49609252  0.16573982  0.16252562  1
  Cr  Cr11  1  0.32958213  0.99261273  0.33003490  1
  Fe  Fe12  1  0.32959132  0.33307021  -0.00378595  1
  Ni  Ni13  1  0.49437927  0.49811547  0.16232453  1
  Cr  Cr14  1  0.32983710  0.33215831  0.32841428  1
  Cr  Cr15  1  0.33044591  0.66179894  -0.00199016  1
  Fe  Fe16  1  0.49756540  0.82727121  0.16258088  1
  Cr  Cr17  1  0.32901716  0.66379717  0.32896648  1
  Cr  Cr18  1  0.66050318  0.99161893  0.99409096  1
  Cr  Cr19  1  0.82846364  0.16154517  0.16472296  1
  Cr  Cr20  1  0.66132350  0.99362146  0.33104376  1
  Cr  Cr21  1  0.66355559  0.33278491  0.99548129  1
  Cr  Cr22  1  0.82775194  0.49909755  0.16373834  1
  Fe  Fe23  1  0.66059385  0.33219884  0.33031726  1
  Fe  Fe24  1  0.66249991  0.66057002  0.99516450  1
  Cr  Cr25  1  0.83142503  0.82659649  0.16122903  1
  Cr  Cr26  1  0.66135383  0.66257064  0.32991958  1
  Cr  Cr27  1  0.16454533  0.16204343  0.49595393  1
  Cr  Cr28  1  0.99523828  0.99524892  0.66004282  1
  Cr  Cr29  1  0.16492767  0.16319588  0.82966809  1
  Cr  Cr30  1  0.16312047  0.49917437  0.49797090  1
  Cr  Cr31  1  0.99435623  0.33381652  0.66620270  1
  Fe  Fe32  1  0.16404814  0.49982551  0.82930101  1
  Ni  Ni33  1  0.16138513  0.82502877  0.49505074  1
  Fe  Fe34  1  0.99473016  0.66309517  0.66154013  1
  Cr  Cr35  1  0.16253543  0.82706119  0.82658583  1
  Ni  Ni36  1  0.49685501  0.16412366  0.49456792  1
  Cr  Cr37  1  0.33157938  0.99196316  0.66031002  1
  Cr  Cr38  1  0.49467218  0.16374432  0.82940758  1
  Fe  Fe39  1  0.49617521  0.49777885  0.49565433  1
  Cr  Cr40  1  0.33000061  0.33284541  0.66404499  1
  Ni  Ni41  1  0.49600836  0.49887846  0.82979841  1
  Ni  Ni42  1  0.49568461  0.82743586  0.49678964  1
  Fe  Fe43  1  0.33106328  0.66322334  0.66224762  1
  Ni  Ni44  1  0.49459529  0.82297990  0.83049506  1
  Cr  Cr45  1  0.82806082  0.16243461  0.49306409  1
  Cr  Cr46  1  0.66119094  0.99290124  0.66294501  1
  Cr  Cr47  1  0.82868791  0.16266014  0.83005816  1
  Fe  Fe48  1  0.82940520  0.49990877  0.49552570  1
  Cr  Cr49  1  0.66378551  0.33238488  0.65975601  1
  Ni  Ni50  1  0.82865373  0.50080790  0.82957657  1
  Ni  Ni51  1  0.83075437  0.82539540  0.49514348  1
  Cr  Cr52  1  0.66154683  0.66292992  0.66305972  1
  Cr  Cr53  1  0.82972704  0.82548773  0.83094162  1
" 