2438,Ni18Fe23Cr57_16,-216.212646022403, 175.390914429106,Ni18Fe23Cr57,"# generated using pymatgen
 data_Cr16Fe6Ni5
_symmetry_space_group_name_H-M   'P 1'
_cell_length_a   7.52352121
_cell_length_b   7.52352121
_cell_length_c   10.63986574
_cell_angle_alpha   90.00000000
_cell_angle_beta   90.00000000
_cell_angle_gamma   90.00000000
_symmetry_Int_Tables_number   1
_chemical_formula_structural   Cr16Fe6Ni5
_chemical_formula_sum   'Cr32 Fe12 Ni10'
_cell_volume   602.25227223
_cell_formula_units_Z   2
loop_
 _symmetry_equiv_pos_site_id
 _symmetry_equiv_pos_as_xyz
  1  'x, y, z'
loop_
 _atom_site_type_symbol
 _atom_site_label
 _atom_site_symmetry_multiplicity
 _atom_site_fract_x
 _atom_site_fract_y
 _atom_site_fract_z
 _atom_site_occupancy
  Ni  Ni0  1  0.99489764  -0.00271113  0.99543006  1
  Cr  Cr1  1  0.16302279  0.16544798  0.16436913  1
  Cr  Cr2  1  -0.00041133  -0.00178035  0.33182033  1
  Cr  Cr3  1  0.99515284  0.32748722  -0.00310479  1
  Cr  Cr4  1  0.16221951  0.49375788  0.15994698  1
  Ni  Ni5  1  0.99341265  0.32751021  0.33050418  1
  Cr  Cr6  1  -0.00323505  0.66419372  -0.00350053  1
  Cr  Cr7  1  0.16266723  0.82949558  0.16252790  1
  Cr  Cr8  1  0.99474073  0.66133015  0.33010778  1
  Cr  Cr9  1  0.32988045  -0.00152738  -0.00171656  1
  Ni  Ni10  1  0.49822251  0.16212786  0.16274303  1
  Fe  Fe11  1  0.33046328  -0.00214474  0.32956654  1
  Ni  Ni12  1  0.33256827  0.32928792  0.99345855  1
  Cr  Cr13  1  0.49418150  0.49443534  0.16171174  1
  Cr  Cr14  1  0.33071717  0.32622897  0.32994648  1
  Fe  Fe15  1  0.32970555  0.66003935  0.99482695  1
  Cr  Cr16  1  0.49820569  0.83266674  0.16389311  1
  Cr  Cr17  1  0.33025652  0.66617311  0.33038116  1
  Fe  Fe18  1  0.66371028  0.00055905  0.99518636  1
  Fe  Fe19  1  0.82871825  0.16262327  0.16309496  1
  Fe  Fe20  1  0.66352711  -0.00071587  0.32969991  1
  Cr  Cr21  1  0.66033483  0.32790050  0.99624129  1
  Fe  Fe22  1  0.83008818  0.49367009  0.16363270  1
  Cr  Cr23  1  0.66512769  0.33023533  0.32901783  1
  Cr  Cr24  1  0.66169767  0.66086852  -0.00317002  1
  Cr  Cr25  1  0.82820689  0.83209172  0.16051818  1
  Cr  Cr26  1  0.66334502  0.65960498  0.33049881  1
  Fe  Fe27  1  0.16187692  0.16346247  0.49522917  1
  Cr  Cr28  1  -0.00346019  -0.00240761  0.66276948  1
  Cr  Cr29  1  0.16273130  0.16642154  0.82980161  1
  Cr  Cr30  1  0.16370553  0.49373171  0.49753243  1
  Cr  Cr31  1  0.99512453  0.32777287  0.66169310  1
  Fe  Fe32  1  0.16703258  0.49471526  0.82999278  1
  Fe  Fe33  1  0.16413698  0.83049660  0.49620501  1
  Cr  Cr34  1  -0.00227839  0.66345317  0.66195499  1
  Cr  Cr35  1  0.16226661  0.82720557  0.83080284  1
  Cr  Cr36  1  0.49730234  0.16309068  0.49611460  1
  Cr  Cr37  1  0.32920031  -0.00288388  0.66022067  1
  Ni  Ni38  1  0.49766309  0.16572126  0.82970010  1
  Ni  Ni39  1  0.49398610  0.49625002  0.49815335  1
  Fe  Fe40  1  0.33186672  0.33099812  0.66447808  1
  Ni  Ni41  1  0.49051754  0.49404420  0.82911943  1
  Cr  Cr42  1  0.49728987  0.82979405  0.49531064  1
  Fe  Fe43  1  0.33092568  0.66064132  0.66280203  1
  Cr  Cr44  1  0.49824780  0.82964204  0.82948525  1
  Ni  Ni45  1  0.83110747  0.16271571  0.49531035  1
  Ni  Ni46  1  0.66218886  -0.00071132  0.66466744  1
  Ni  Ni47  1  0.82747859  0.16046203  0.83084064  1
  Fe  Fe48  1  0.82823680  0.49303511  0.49555324  1
  Cr  Cr49  1  0.66125743  0.32883611  0.66344893  1
  Cr  Cr50  1  0.83023767  0.49531593  0.82883691  1
  Cr  Cr51  1  0.82800424  0.83208777  0.49833553  1
  Cr  Cr52  1  0.66096861  0.66015701  0.66130696  1
  Cr  Cr53  1  0.82829177  0.83442689  0.83003301  1
" 