491,Ni18Fe80Cr1_0,-230.97348704077, 176.1956805154,Ni18Fe80Cr1,"# generated using pymatgen
 data_CrFe43Ni10
_symmetry_space_group_name_H-M   'P 1'
_cell_length_a   7.39959368
_cell_length_b   7.39959368
_cell_length_c   10.46460574
_cell_angle_alpha   90.00000000
_cell_angle_beta   90.00000000
_cell_angle_gamma   90.00000000
_symmetry_Int_Tables_number   1
_chemical_formula_structural   CrFe43Ni10
_chemical_formula_sum   'Cr1 Fe43 Ni10'
_cell_volume   572.97888312
_cell_formula_units_Z   1
loop_
 _symmetry_equiv_pos_site_id
 _symmetry_equiv_pos_as_xyz
  1  'x, y, z'
loop_
 _atom_site_type_symbol
 _atom_site_label
 _atom_site_symmetry_multiplicity
 _atom_site_fract_x
 _atom_site_fract_y
 _atom_site_fract_z
 _atom_site_occupancy
  Fe  Fe0  1  0.00534378  1.00345106  0.00473394  1
  Fe  Fe1  1  0.17181946  0.17113463  0.17021909  1
  Fe  Fe2  1  1.00448952  1.00250189  0.33818644  1
  Fe  Fe3  1  0.00529985  0.33889589  0.00491277  1
  Ni  Ni4  1  0.17252829  0.50520952  0.17011033  1
  Cr  Cr5  1  1.00441249  0.33892643  0.33760351  1
  Ni  Ni6  1  1.00434456  0.67034473  0.00549005  1
  Fe  Fe7  1  0.17098449  0.83627947  0.17108669  1
  Fe  Fe8  1  1.00449072  0.67301358  0.33711957  1
  Ni  Ni9  1  0.33858445  1.00409872  1.00450954  1
  Fe  Fe10  1  0.50489789  0.17194490  0.17110884  1
  Fe  Fe11  1  0.33746011  0.00462776  0.33783784  1
  Fe  Fe12  1  0.33737953  0.33865215  1.00453129  1
  Ni  Ni13  1  0.50426461  0.50362112  0.17099893  1
  Fe  Fe14  1  0.33967361  0.33824840  0.33809189  1
  Ni  Ni15  1  0.33741254  0.67179505  1.00451074  1
  Fe  Fe16  1  0.50463519  0.83655815  0.17079221  1
  Fe  Fe17  1  0.33753491  0.67079542  0.33741411  1
  Fe  Fe18  1  0.67093709  1.00337200  0.00469960  1
  Fe  Fe19  1  0.83695784  0.17134048  0.17058107  1
  Fe  Fe20  1  0.67172527  0.00462890  0.33781945  1
  Fe  Fe21  1  0.67099197  0.33894967  0.00472780  1
  Ni  Ni22  1  0.83687567  0.50603068  0.17041109  1
  Fe  Fe23  1  0.66951339  0.33825405  0.33753692  1
  Fe  Fe24  1  0.67116796  0.67135057  0.00491428  1
  Ni  Ni25  1  0.83846884  0.83794318  0.17135264  1
  Fe  Fe26  1  0.67165027  0.67079163  0.33738740  1
  Fe  Fe27  1  0.17229862  0.17008165  0.50570406  1
  Fe  Fe28  1  0.00525823  0.00492469  0.67075306  1
  Fe  Fe29  1  0.17117823  0.17170829  0.83774586  1
  Fe  Fe30  1  0.17237575  0.50564923  0.50522186  1
  Fe  Fe31  1  0.00470122  0.33804030  0.67122816  1
  Fe  Fe32  1  0.17093074  0.50470080  0.83844245  1
  Ni  Ni33  1  0.17108912  0.83858227  0.50433535  1
  Fe  Fe34  1  0.00496993  0.67071220  0.67160305  1
  Fe  Fe35  1  0.17095239  0.83726100  0.83798958  1
  Fe  Fe36  1  0.50385816  0.17091484  0.50481626  1
  Fe  Fe37  1  0.33767602  0.00483945  0.67142928  1
  Fe  Fe38  1  0.50467903  0.17163873  0.83774533  1
  Fe  Fe39  1  0.50378192  0.50479573  0.50433110  1
  Ni  Ni40  1  0.33766551  0.33771751  0.67074500  1
  Fe  Fe41  1  0.50462286  0.50448252  0.83807556  1
  Fe  Fe42  1  0.50412006  0.83796223  0.50463022  1
  Fe  Fe43  1  0.33774826  0.67101157  0.67127176  1
  Fe  Fe44  1  0.50468313  0.83755311  0.83824915  1
  Fe  Fe45  1  0.83751382  0.16973573  0.50541690  1
  Fe  Fe46  1  0.67073816  0.00510549  0.67115568  1
  Fe  Fe47  1  0.83781976  0.17165713  0.83767305  1
  Fe  Fe48  1  0.83751431  0.50590920  0.50556819  1
  Fe  Fe49  1  0.67103444  0.33811348  0.67140552  1
  Ni  Ni50  1  0.83772369  0.50447745  0.83804368  1
  Fe  Fe51  1  0.83835722  0.83803300  0.50404428  1
  Fe  Fe52  1  0.67095408  0.67045412  0.67137166  1
  Fe  Fe53  1  0.83804027  0.83730742  0.83844510  1
" 