5507,Ni18Fe61Cr20_14,-226.538032518249, 180.66147023215,Ni18Fe61Cr20,"# generated using pymatgen
 data_Cr4Fe11Ni3
_symmetry_space_group_name_H-M   'P 1'
_cell_length_a   7.44821398
_cell_length_b   7.44821398
_cell_length_c   10.53336522
_cell_angle_alpha   90.00000000
_cell_angle_beta   90.00000000
_cell_angle_gamma   90.00000000
_symmetry_Int_Tables_number   1
_chemical_formula_structural   Cr4Fe11Ni3
_chemical_formula_sum   'Cr12 Fe33 Ni9'
_cell_volume   584.34782545
_cell_formula_units_Z   3
loop_
 _symmetry_equiv_pos_site_id
 _symmetry_equiv_pos_as_xyz
  1  'x, y, z'
loop_
 _atom_site_type_symbol
 _atom_site_label
 _atom_site_symmetry_multiplicity
 _atom_site_fract_x
 _atom_site_fract_y
 _atom_site_fract_z
 _atom_site_occupancy
  Fe  Fe0  1  0.99841988  0.00273281  0.99956807  1
  Ni  Ni1  1  0.16883499  0.16996126  0.16796396  1
  Fe  Fe2  1  1.00001973  0.00472735  0.33579457  1
  Fe  Fe3  1  0.00221383  0.33208598  0.00176836  1
  Fe  Fe4  1  0.16910186  0.49996907  0.16827303  1
  Fe  Fe5  1  0.00283600  0.33266793  0.33345315  1
  Fe  Fe6  1  0.99906469  0.66963413  0.99944506  1
  Cr  Cr7  1  0.16568460  0.83474173  0.16717630  1
  Fe  Fe8  1  0.00168493  0.66727317  0.33509147  1
  Cr  Cr9  1  0.33354890  1.00063950  1.00025282  1
  Fe  Fe10  1  0.50261686  0.16794430  0.16871106  1
  Cr  Cr11  1  0.33337513  1.00046543  0.33536338  1
  Fe  Fe12  1  0.33491652  0.33402960  0.00375838  1
  Fe  Fe13  1  0.49959487  0.50175790  0.16836098  1
  Ni  Ni14  1  0.33661883  0.33485593  0.33397354  1
  Fe  Fe15  1  0.33731716  0.66733995  0.00275932  1
  Fe  Fe16  1  0.50195900  0.83363217  0.16716277  1
  Ni  Ni17  1  0.33535548  0.66724706  0.33329056  1
  Ni  Ni18  1  0.66800439  1.00074548  1.00051082  1
  Fe  Fe19  1  0.83587701  0.16719407  0.16876620  1
  Fe  Fe20  1  0.66654254  0.00296427  0.33530141  1
  Cr  Cr21  1  0.66929521  0.33368063  1.00086502  1
  Cr  Cr22  1  0.83365020  0.50239676  0.16769847  1
  Ni  Ni23  1  0.66829710  0.33412269  0.33471884  1
  Ni  Ni24  1  0.66818457  0.66879985  1.00012016  1
  Cr  Cr25  1  0.83231031  0.83665376  0.16972217  1
  Fe  Fe26  1  0.66408776  0.66778239  0.33503881  1
  Fe  Fe27  1  0.16608001  0.16793119  0.50137716  1
  Ni  Ni28  1  0.00194591  1.00076759  0.66847216  1
  Fe  Fe29  1  0.16653160  0.16627453  0.83419857  1
  Cr  Cr30  1  0.16980374  0.49912386  0.50016032  1
  Fe  Fe31  1  0.00218275  0.33155960  0.66870509  1
  Cr  Cr32  1  0.16844862  0.49989919  0.83555043  1
  Cr  Cr33  1  0.16581146  0.83468096  0.50221546  1
  Fe  Fe34  1  0.99854851  0.67033012  0.66923896  1
  Fe  Fe35  1  0.16658827  0.83483900  0.83314803  1
  Fe  Fe36  1  0.50208015  0.16852330  0.50077568  1
  Fe  Fe37  1  0.33532182  0.00246909  0.66864689  1
  Fe  Fe38  1  0.50158631  0.16498002  0.83380876  1
  Fe  Fe39  1  0.50142810  0.50251111  0.49996671  1
  Fe  Fe40  1  0.33350240  0.33085337  0.66667022  1
  Cr  Cr41  1  0.50046112  0.50044482  0.83418952  1
  Fe  Fe42  1  0.50290151  0.83281072  0.50156713  1
  Fe  Fe43  1  0.33569024  0.66989427  0.66721397  1
  Fe  Fe44  1  0.50290767  0.83487158  0.83437687  1
  Fe  Fe45  1  0.83569551  0.16580254  0.50078143  1
  Fe  Fe46  1  0.66982398  0.99960691  0.66855118  1
  Fe  Fe47  1  0.83615223  0.16576853  0.83430049  1
  Cr  Cr48  1  0.83441819  0.50289089  0.50196569  1
  Cr  Cr49  1  0.66924066  0.33540747  0.66860867  1
  Fe  Fe50  1  0.83570537  0.50405273  0.83499404  1
  Ni  Ni51  1  0.83250158  0.83687299  0.50008881  1
  Fe  Fe52  1  0.66936896  0.67268175  0.66900812  1
  Ni  Ni53  1  0.83413348  0.83637918  0.83478344  1
" 