6710,Ni18Fe23Cr57_2,-216.04932847812, 170.823061197805,Ni18Fe23Cr57,"# generated using pymatgen
 data_Cr16Fe6Ni5
_symmetry_space_group_name_H-M   'P 1'
_cell_length_a   7.53052721
_cell_length_b   7.53052721
_cell_length_c   10.64977372
_cell_angle_alpha   90.00000000
_cell_angle_beta   90.00000000
_cell_angle_gamma   90.00000000
_symmetry_Int_Tables_number   1
_chemical_formula_structural   Cr16Fe6Ni5
_chemical_formula_sum   'Cr32 Fe12 Ni10'
_cell_volume   603.93631510
_cell_formula_units_Z   2
loop_
 _symmetry_equiv_pos_site_id
 _symmetry_equiv_pos_as_xyz
  1  'x, y, z'
loop_
 _atom_site_type_symbol
 _atom_site_label
 _atom_site_symmetry_multiplicity
 _atom_site_fract_x
 _atom_site_fract_y
 _atom_site_fract_z
 _atom_site_occupancy
  Cr  Cr0  1  0.99563784  -0.00355566  -0.00271895  1
  Ni  Ni1  1  0.16642299  0.15889606  0.16359098  1
  Fe  Fe2  1  -0.00152515  0.99486803  0.32772288  1
  Fe  Fe3  1  0.99421341  0.32763777  -0.00413674  1
  Cr  Cr4  1  0.16110805  0.49340825  0.16127737  1
  Cr  Cr5  1  -0.00142446  0.32854892  0.32805584  1
  Cr  Cr6  1  -0.00330909  0.66215123  0.99578231  1
  Cr  Cr7  1  0.16152534  0.83090541  0.16252051  1
  Fe  Fe8  1  -0.00348390  0.66381718  0.32920000  1
  Ni  Ni9  1  0.33133351  0.99519036  -0.00004838  1
  Ni  Ni10  1  0.49376326  0.15844829  0.16302444  1
  Fe  Fe11  1  0.32865442  -0.00393923  0.32709110  1
  Cr  Cr12  1  0.32835488  0.32773849  0.00177376  1
  Cr  Cr13  1  0.49750224  0.49620172  0.16360570  1
  Fe  Fe14  1  0.32849657  0.32691524  0.32739873  1
  Fe  Fe15  1  0.33251847  0.66549950  -0.00330027  1
  Fe  Fe16  1  0.49524990  0.83066389  0.16100290  1
  Cr  Cr17  1  0.32636114  0.66202165  0.33031359  1
  Ni  Ni18  1  0.65901720  0.99415816  -0.00158190  1
  Cr  Cr19  1  0.83041326  0.16237139  0.16085377  1
  Cr  Cr20  1  0.66251965  0.99563338  0.32635730  1
  Cr  Cr21  1  0.66134699  0.32774975  0.99355399  1
  Cr  Cr22  1  0.82806286  0.49976044  0.16247993  1
  Cr  Cr23  1  0.65981596  0.32681536  0.33045418  1
  Ni  Ni24  1  0.66271278  0.66512985  -0.00084242  1
  Fe  Fe25  1  0.82678517  0.83042030  0.16218494  1
  Fe  Fe26  1  0.66171121  0.66384326  0.32728285  1
  Cr  Cr27  1  0.16283259  0.16119965  0.49377704  1
  Cr  Cr28  1  0.99450838  -0.00368168  0.66048129  1
  Cr  Cr29  1  0.16225436  0.16209932  0.83152318  1
  Ni  Ni30  1  0.16028946  0.49677195  0.49512328  1
  Ni  Ni31  1  -0.00387753  0.32836489  0.66425675  1
  Cr  Cr32  1  0.16131671  0.49497474  0.83082924  1
  Ni  Ni33  1  0.16244646  0.82919607  0.49474535  1
  Cr  Cr34  1  -0.00063700  0.66160347  0.66036277  1
  Cr  Cr35  1  0.16616746  0.83096958  0.82732253  1
  Cr  Cr36  1  0.49478216  0.16126548  0.49570825  1
  Fe  Fe37  1  0.32668427  0.99534377  0.66169129  1
  Cr  Cr38  1  0.49333481  0.15962946  0.82882287  1
  Cr  Cr39  1  0.49518842  0.49631570  0.49474095  1
  Cr  Cr40  1  0.32778971  0.33409691  0.65917158  1
  Cr  Cr41  1  0.49702294  0.49923810  0.82930315  1
  Cr  Cr42  1  0.49411611  0.83010635  0.49851298  1
  Ni  Ni43  1  0.32565625  0.66491860  0.66071888  1
  Cr  Cr44  1  0.49462465  0.83010199  0.83035023  1
  Fe  Fe45  1  0.83225964  0.16282130  0.49477692  1
  Cr  Cr46  1  0.66480841  -0.00215232  0.66336464  1
  Fe  Fe47  1  0.82990209  0.16317196  0.83095290  1
  Cr  Cr48  1  0.83045056  0.49556171  0.49390420  1
  Cr  Cr49  1  0.66624795  0.32699024  0.66292122  1
  Ni  Ni50  1  0.83020877  0.49343465  0.83118075  1
  Cr  Cr51  1  0.83080387  0.82930274  0.48983196  1
  Cr  Cr52  1  0.66218539  0.66209839  0.66240514  1
  Cr  Cr53  1  0.82724843  0.82735781  0.83272207  1
" 