5040,Ni18Fe21Cr59_4,-215.490501196816, 170.618715935628,Ni18Fe21Cr59,"# generated using pymatgen
 data_Cr33Fe11Ni10
_symmetry_space_group_name_H-M   'P 1'
_cell_length_a   7.53401886
_cell_length_b   7.53401886
_cell_length_c   10.65471166
_cell_angle_alpha   90.00000000
_cell_angle_beta   90.00000000
_cell_angle_gamma   90.00000000
_symmetry_Int_Tables_number   1
_chemical_formula_structural   Cr33Fe11Ni10
_chemical_formula_sum   'Cr33 Fe11 Ni10'
_cell_volume   604.77677924
_cell_formula_units_Z   1
loop_
 _symmetry_equiv_pos_site_id
 _symmetry_equiv_pos_as_xyz
  1  'x, y, z'
loop_
 _atom_site_type_symbol
 _atom_site_label
 _atom_site_symmetry_multiplicity
 _atom_site_fract_x
 _atom_site_fract_y
 _atom_site_fract_z
 _atom_site_occupancy
  Cr  Cr0  1  0.99473511  -0.00303397  0.00107149  1
  Ni  Ni1  1  0.16017575  0.16042465  0.16317297  1
  Ni  Ni2  1  -0.00375416  -0.00379331  0.32572810  1
  Fe  Fe3  1  -0.00353819  0.33021051  -0.00385145  1
  Cr  Cr4  1  0.16274933  0.49506238  0.16161504  1
  Cr  Cr5  1  -0.00303228  0.32557880  0.32720953  1
  Ni  Ni6  1  -0.00353420  0.66200428  -0.00431577  1
  Ni  Ni7  1  0.15732317  0.83177570  0.16269454  1
  Cr  Cr8  1  -0.00206813  0.66500507  0.33129753  1
  Cr  Cr9  1  0.32692530  -0.00391061  -0.00425860  1
  Cr  Cr10  1  0.49331817  0.16505640  0.16448111  1
  Cr  Cr11  1  0.32576919  0.99507781  0.33053843  1
  Cr  Cr12  1  0.32739318  0.33137799  -0.00409536  1
  Ni  Ni13  1  0.49637008  0.49261427  0.16389487  1
  Fe  Fe14  1  0.32893206  0.32813179  0.32834618  1
  Cr  Cr15  1  0.32821027  0.65914590  -0.00397936  1
  Cr  Cr16  1  0.49482080  0.82726969  0.16103356  1
  Cr  Cr17  1  0.32814549  0.66038577  0.32871491  1
  Cr  Cr18  1  0.66516953  -0.00406083  -0.00380520  1
  Fe  Fe19  1  0.83128406  0.16094291  0.16340123  1
  Cr  Cr20  1  0.66569243  -0.00364316  0.32863228  1
  Cr  Cr21  1  0.66209735  0.32925572  -0.00436425  1
  Cr  Cr22  1  0.82748795  0.49667145  0.16219471  1
  Fe  Fe23  1  0.66120345  0.32832102  0.32770218  1
  Cr  Cr24  1  0.66142547  0.66144233  -0.00370379  1
  Ni  Ni25  1  0.83355508  0.82959054  0.16230005  1
  Cr  Cr26  1  0.66065322  0.66211844  0.32707809  1
  Cr  Cr27  1  0.16470668  0.16167347  0.49588140  1
  Cr  Cr28  1  -0.00440209  -0.00349013  0.66050020  1
  Cr  Cr29  1  0.16318104  0.16376656  0.82849407  1
  Fe  Fe30  1  0.16169456  0.49523473  0.49741898  1
  Ni  Ni31  1  -0.00076777  0.33118070  0.66352657  1
  Fe  Fe32  1  0.16230076  0.49467416  0.82799912  1
  Ni  Ni33  1  0.16330160  0.82985215  0.49595608  1
  Fe  Fe34  1  -0.00146876  0.65978951  0.66152158  1
  Cr  Cr35  1  0.16153743  0.82821612  0.82917680  1
  Fe  Fe36  1  0.49430568  0.16236701  0.49663872  1
  Fe  Fe37  1  0.32807078  -0.00324803  0.65991742  1
  Cr  Cr38  1  0.49308048  0.16379712  0.82486804  1
  Cr  Cr39  1  0.49588933  0.49176596  0.49230550  1
  Ni  Ni40  1  0.32745444  0.33070002  0.66153138  1
  Ni  Ni41  1  0.49478446  0.49320432  0.82791206  1
  Fe  Fe42  1  0.49331852  0.83037531  0.49601836  1
  Cr  Cr43  1  0.32761083  0.66025481  0.66159291  1
  Cr  Cr44  1  0.49392161  0.82896116  0.82892836  1
  Cr  Cr45  1  0.82822405  0.16484062  0.49520239  1
  Cr  Cr46  1  0.66084819  -0.00370369  0.66180505  1
  Cr  Cr47  1  0.83024002  0.16515037  0.82853878  1
  Cr  Cr48  1  0.82951919  0.49453124  0.49766472  1
  Fe  Fe49  1  0.66060161  0.32977210  0.66262497  1
  Cr  Cr50  1  0.83098050  0.49561131  0.82707804  1
  Cr  Cr51  1  0.83181070  0.82732071  0.49546407  1
  Cr  Cr52  1  0.66077870  0.66234673  0.66292780  1
  Cr  Cr53  1  0.83096007  0.82602622  0.82976575  1
" 