5953,Ni18Fe23Cr57_15,-216.275890490659, 175.465478074778,Ni18Fe23Cr57,"# generated using pymatgen
 data_Cr16Fe6Ni5
_symmetry_space_group_name_H-M   'P 1'
_cell_length_a   7.53158678
_cell_length_b   7.53158678
_cell_length_c   10.65127217
_cell_angle_alpha   90.00000000
_cell_angle_beta   90.00000000
_cell_angle_gamma   90.00000000
_symmetry_Int_Tables_number   1
_chemical_formula_structural   Cr16Fe6Ni5
_chemical_formula_sum   'Cr32 Fe12 Ni10'
_cell_volume   604.19127778
_cell_formula_units_Z   2
loop_
 _symmetry_equiv_pos_site_id
 _symmetry_equiv_pos_as_xyz
  1  'x, y, z'
loop_
 _atom_site_type_symbol
 _atom_site_label
 _atom_site_symmetry_multiplicity
 _atom_site_fract_x
 _atom_site_fract_y
 _atom_site_fract_z
 _atom_site_occupancy
  Fe  Fe0  1  -0.00393076  -0.00189375  0.99396804  1
  Cr  Cr1  1  0.16339857  0.16193013  0.16026826  1
  Cr  Cr2  1  0.99532250  -0.00419882  0.33102788  1
  Cr  Cr3  1  0.99424615  0.32882370  0.99326432  1
  Cr  Cr4  1  0.16112409  0.49370272  0.16466389  1
  Ni  Ni5  1  0.99466256  0.32769455  0.33265323  1
  Cr  Cr6  1  0.99450331  0.66387967  0.99544669  1
  Cr  Cr7  1  0.16457114  0.83192496  0.16270554  1
  Cr  Cr8  1  -0.00418139  0.66429724  0.33075912  1
  Ni  Ni9  1  0.33085891  0.99522280  0.99532459  1
  Cr  Cr10  1  0.49464637  0.16047339  0.16319476  1
  Ni  Ni11  1  0.33187622  0.99560554  0.33185408  1
  Cr  Cr12  1  0.33145341  0.32926194  0.99205254  1
  Fe  Fe13  1  0.49646541  0.49661716  0.16405386  1
  Cr  Cr14  1  0.33115135  0.32858756  0.32928316  1
  Cr  Cr15  1  0.33085814  0.66122511  -0.00333395  1
  Cr  Cr16  1  0.49539895  0.83058722  0.16403213  1
  Fe  Fe17  1  0.32807850  0.66332493  0.33141766  1
  Fe  Fe18  1  0.66158479  -0.00289240  0.99411336  1
  Cr  Cr19  1  0.82933177  0.16324181  0.16364942  1
  Fe  Fe20  1  0.66231768  -0.00217286  0.33156626  1
  Cr  Cr21  1  0.66128299  0.32981004  -0.00353647  1
  Cr  Cr22  1  0.82813687  0.49517050  0.16675399  1
  Fe  Fe23  1  0.66278133  0.32548488  0.33086544  1
  Fe  Fe24  1  0.65976859  0.66148717  0.99438325  1
  Cr  Cr25  1  0.82619882  0.82971791  0.15853240  1
  Fe  Fe26  1  0.66033317  0.66320244  0.32995497  1
  Fe  Fe27  1  0.16484742  0.16345792  0.49325956  1
  Cr  Cr28  1  0.99490151  -0.00320054  0.66042075  1
  Fe  Fe29  1  0.16156522  0.16090808  0.83023913  1
  Ni  Ni30  1  0.16207829  0.49386286  0.49480271  1
  Cr  Cr31  1  -0.00265707  0.32662026  0.66179352  1
  Fe  Fe32  1  0.16298705  0.49563133  0.82840220  1
  Ni  Ni33  1  0.16382222  0.82946960  0.49281797  1
  Cr  Cr34  1  -0.00182672  0.66371827  0.66059714  1
  Cr  Cr35  1  0.16398201  0.83153296  0.83040982  1
  Ni  Ni36  1  0.49701196  0.16117399  0.49445478  1
  Cr  Cr37  1  0.32820018  -0.00229428  0.65807326  1
  Cr  Cr38  1  0.49560670  0.15950024  0.82811481  1
  Cr  Cr39  1  0.49662621  0.49459008  0.49581871  1
  Cr  Cr40  1  0.32958616  0.32905393  0.66517471  1
  Ni  Ni41  1  0.49631902  0.49615286  0.82918004  1
  Cr  Cr42  1  0.49565849  0.83131695  0.49742379  1
  Cr  Cr43  1  0.32836214  0.66094402  0.66105549  1
  Cr  Cr44  1  0.49594195  0.82948243  0.82630003  1
  Fe  Fe45  1  0.82748345  0.16188588  0.49521571  1
  Ni  Ni46  1  0.66330831  -0.00261855  0.66126761  1
  Ni  Ni47  1  0.82938508  0.16091678  0.82885027  1
  Cr  Cr48  1  0.83004332  0.49366402  0.49561010  1
  Cr  Cr49  1  0.66106192  0.32591731  0.66199502  1
  Cr  Cr50  1  0.82807277  0.49559610  0.82574782  1
  Cr  Cr51  1  0.82600770  0.82788573  0.49926198  1
  Ni  Ni52  1  0.66098759  0.66278346  0.66451011  1
  Cr  Cr53  1  0.82703110  0.83056615  0.82891795  1
" 