1792,Ni18Fe23Cr57_12,-216.0742424778, 175.858765963073,Ni18Fe23Cr57,"# generated using pymatgen
 data_Cr16Fe6Ni5
_symmetry_space_group_name_H-M   'P 1'
_cell_length_a   7.52928084
_cell_length_b   7.52928084
_cell_length_c   10.64801108
_cell_angle_alpha   90.00000000
_cell_angle_beta   90.00000000
_cell_angle_gamma   90.00000000
_symmetry_Int_Tables_number   1
_chemical_formula_structural   Cr16Fe6Ni5
_chemical_formula_sum   'Cr32 Fe12 Ni10'
_cell_volume   603.63649276
_cell_formula_units_Z   2
loop_
 _symmetry_equiv_pos_site_id
 _symmetry_equiv_pos_as_xyz
  1  'x, y, z'
loop_
 _atom_site_type_symbol
 _atom_site_label
 _atom_site_symmetry_multiplicity
 _atom_site_fract_x
 _atom_site_fract_y
 _atom_site_fract_z
 _atom_site_occupancy
  Cr  Cr0  1  0.99504282  0.99274092  -0.00038449  1
  Fe  Fe1  1  0.16439662  0.15800376  0.16252431  1
  Cr  Cr2  1  -0.00345411  0.99205406  0.32639809  1
  Cr  Cr3  1  -0.00262188  0.32971799  -0.00109607  1
  Fe  Fe4  1  0.16578127  0.50018057  0.16034510  1
  Cr  Cr5  1  -0.00114545  0.33002584  0.32494456  1
  Cr  Cr6  1  -0.00141840  0.66494361  -0.00185934  1
  Ni  Ni7  1  0.16668927  0.82807541  0.16104154  1
  Cr  Cr8  1  -0.00311477  0.66571316  0.32598180  1
  Fe  Fe9  1  0.32736151  0.99480630  -0.00259694  1
  Cr  Cr10  1  0.49459203  0.16052536  0.16248632  1
  Ni  Ni11  1  0.32752082  0.99262829  0.32696215  1
  Cr  Cr12  1  0.33073652  0.33163835  -0.00300216  1
  Fe  Fe13  1  0.49658150  0.49857181  0.16107653  1
  Cr  Cr14  1  0.32984439  0.33094228  0.32659508  1
  Ni  Ni15  1  0.33052320  0.66118996  0.99489380  1
  Cr  Cr16  1  0.49492229  0.82810806  0.16211081  1
  Cr  Cr17  1  0.32776676  0.66090115  0.33046442  1
  Fe  Fe18  1  0.66170903  -0.00361913  -0.00263950  1
  Cr  Cr19  1  0.82602094  0.16408765  0.16282623  1
  Ni  Ni20  1  0.66285689  0.99379068  0.32768817  1
  Ni  Ni21  1  0.65837064  0.33028985  0.99344037  1
  Cr  Cr22  1  0.82656260  0.49703713  0.16263824  1
  Cr  Cr23  1  0.65925584  0.33201762  0.33207311  1
  Fe  Fe24  1  0.66128203  0.65987007  -0.00318824  1
  Ni  Ni25  1  0.82648834  0.82784088  0.16193924  1
  Fe  Fe26  1  0.66159191  0.66464950  0.32864874  1
  Cr  Cr27  1  0.16257849  0.16115125  0.49389987  1
  Ni  Ni28  1  -0.00238928  0.99181629  0.66132363  1
  Cr  Cr29  1  0.16275309  0.16305388  0.82961184  1
  Cr  Cr30  1  0.16115634  0.49706707  0.49947116  1
  Fe  Fe31  1  -0.00263540  0.32770005  0.66405317  1
  Ni  Ni32  1  0.16575843  0.49690650  0.82832307  1
  Ni  Ni33  1  0.16355062  0.82829904  0.49809112  1
  Fe  Fe34  1  -0.00236685  0.66396637  0.66327242  1
  Cr  Cr35  1  0.16520379  0.82677127  0.82719599  1
  Cr  Cr36  1  0.49462010  0.15962692  0.49244908  1
  Cr  Cr37  1  0.32941547  -0.00400169  0.66211692  1
  Fe  Fe38  1  0.49509581  0.16298470  0.83233457  1
  Ni  Ni39  1  0.49467188  0.49847998  0.49534939  1
  Cr  Cr40  1  0.33254326  0.33247910  0.66372420  1
  Fe  Fe41  1  0.49483257  0.49836755  0.83090841  1
  Cr  Cr42  1  0.49269273  0.82937195  0.49200797  1
  Fe  Fe43  1  0.32970292  0.66292928  0.66268481  1
  Cr  Cr44  1  0.49423725  0.83013138  0.83413883  1
  Cr  Cr45  1  0.83111064  0.16360778  0.49647543  1
  Cr  Cr46  1  0.66363214  -0.00400584  0.66401476  1
  Cr  Cr47  1  0.82902558  0.16364590  0.82946328  1
  Cr  Cr48  1  0.83082832  0.49595451  0.49594141  1
  Cr  Cr49  1  0.65805236  0.32986845  0.66295319  1
  Cr  Cr50  1  0.83262796  0.49541299  0.82923349  1
  Cr  Cr51  1  0.82901420  0.82862049  0.49499203  1
  Cr  Cr52  1  0.65921065  0.66190529  0.66143494  1
  Cr  Cr53  1  0.82776597  0.82799011  0.83105479  1
" 