6667,Ni18Fe23Cr57_17,-216.464944802308, 175.217049167635,Ni18Fe23Cr57,"# generated using pymatgen
 data_Cr16Fe6Ni5
_symmetry_space_group_name_H-M   'P 1'
_cell_length_a   7.52852293
_cell_length_b   7.52852293
_cell_length_c   10.64693923
_cell_angle_alpha   90.00000000
_cell_angle_beta   90.00000000
_cell_angle_gamma   90.00000000
_symmetry_Int_Tables_number   1
_chemical_formula_structural   Cr16Fe6Ni5
_chemical_formula_sum   'Cr32 Fe12 Ni10'
_cell_volume   603.45422240
_cell_formula_units_Z   2
loop_
 _symmetry_equiv_pos_site_id
 _symmetry_equiv_pos_as_xyz
  1  'x, y, z'
loop_
 _atom_site_type_symbol
 _atom_site_label
 _atom_site_symmetry_multiplicity
 _atom_site_fract_x
 _atom_site_fract_y
 _atom_site_fract_z
 _atom_site_occupancy
  Cr  Cr0  1  0.99528655  -0.00254376  0.99339001  1
  Fe  Fe1  1  0.16201664  0.16494629  0.16209331  1
  Cr  Cr2  1  0.99550427  0.99506218  0.32994621  1
  Ni  Ni3  1  0.99468718  0.33024768  -0.00342757  1
  Fe  Fe4  1  0.16202731  0.49579126  0.16315474  1
  Cr  Cr5  1  -0.00403342  0.33279474  0.32683626  1
  Cr  Cr6  1  -0.00291805  0.66032537  0.99423340  1
  Cr  Cr7  1  0.16381773  0.82675962  0.16322500  1
  Ni  Ni8  1  0.99485275  0.66016416  0.33090674  1
  Cr  Cr9  1  0.33043994  0.99395467  -0.00313702  1
  Cr  Cr10  1  0.49725414  0.16437007  0.16340851  1
  Cr  Cr11  1  0.33154938  0.99569719  0.32799591  1
  Cr  Cr12  1  0.32798872  0.33060411  -0.00287566  1
  Cr  Cr13  1  0.49713145  0.49782899  0.16220117  1
  Fe  Fe14  1  0.33166280  0.33289915  0.32904759  1
  Fe  Fe15  1  0.33004694  0.66161463  -0.00338972  1
  Fe  Fe16  1  0.49719270  0.82607370  0.16370772  1
  Fe  Fe17  1  0.33202370  0.66069791  0.33033764  1
  Cr  Cr18  1  0.66206460  0.99583295  -0.00378953  1
  Cr  Cr19  1  0.82891986  0.16519811  0.16097593  1
  Cr  Cr20  1  0.66049457  0.99392586  0.32995868  1
  Ni  Ni21  1  0.66442717  0.33015560  0.99454434  1
  Cr  Cr22  1  0.82812993  0.49583091  0.16208094  1
  Ni  Ni23  1  0.66057713  0.33410382  0.33108435  1
  Fe  Fe24  1  0.66223024  0.66121852  -0.00306986  1
  Cr  Cr25  1  0.82876626  0.82641823  0.16482552  1
  Ni  Ni26  1  0.66145723  0.66000336  0.33263787  1
  Cr  Cr27  1  0.16389756  0.16264181  0.49607899  1
  Cr  Cr28  1  0.99364883  0.99406920  0.66446106  1
  Cr  Cr29  1  0.16123697  0.16228773  0.82771662  1
  Cr  Cr30  1  0.16347825  0.49655626  0.49400197  1
  Cr  Cr31  1  0.99307571  0.33120745  0.66320238  1
  Cr  Cr32  1  0.16339341  0.49703976  0.83025318  1
  Cr  Cr33  1  0.16187296  0.82869261  0.49574889  1
  Cr  Cr34  1  0.99305157  0.66236116  0.66171011  1
  Fe  Fe35  1  0.16172502  0.82875073  0.82962018  1
  Cr  Cr36  1  0.49602730  0.16588313  0.49735948  1
  Cr  Cr37  1  0.33081750  0.99446629  0.66305803  1
  Cr  Cr38  1  0.49884009  0.16523521  0.82701882  1
  Ni  Ni39  1  0.49994362  0.49776189  0.49607648  1
  Fe  Fe40  1  0.33154152  0.33096215  0.66151565  1
  Cr  Cr41  1  0.49823915  0.49587396  0.82849232  1
  Ni  Ni42  1  0.49750135  0.82464456  0.49336931  1
  Cr  Cr43  1  0.33112241  0.66169130  0.66260494  1
  Cr  Cr44  1  0.49584573  0.82634464  0.83241859  1
  Cr  Cr45  1  0.82806360  0.16474895  0.49526154  1
  Cr  Cr46  1  0.66302670  0.99462304  0.66183027  1
  Ni  Ni47  1  0.82894493  0.16363042  0.83110070  1
  Ni  Ni48  1  0.82470671  0.49861285  0.49436184  1
  Ni  Ni49  1  0.66223880  0.33193272  0.66172923  1
  Cr  Cr50  1  0.82635254  0.49437423  0.83093912  1
  Fe  Fe51  1  0.82619047  0.82446431  0.49414355  1
  Fe  Fe52  1  0.66268201  0.66116188  0.65906021  1
  Fe  Fe53  1  0.82846488  0.82953377  0.82949138  1
" 