7100,Ni18Fe80Cr1_4,-231.677105267464, 176.39434367965,Ni18Fe80Cr1,"# generated using pymatgen
 data_CrFe43Ni10
_symmetry_space_group_name_H-M   'P 1'
_cell_length_a   7.41118617
_cell_length_b   7.41118617
_cell_length_c   10.48100000
_cell_angle_alpha   90.00000000
_cell_angle_beta   90.00000000
_cell_angle_gamma   90.00000000
_symmetry_Int_Tables_number   1
_chemical_formula_structural   CrFe43Ni10
_chemical_formula_sum   'Cr1 Fe43 Ni10'
_cell_volume   575.67605694
_cell_formula_units_Z   1
loop_
 _symmetry_equiv_pos_site_id
 _symmetry_equiv_pos_as_xyz
  1  'x, y, z'
loop_
 _atom_site_type_symbol
 _atom_site_label
 _atom_site_symmetry_multiplicity
 _atom_site_fract_x
 _atom_site_fract_y
 _atom_site_fract_z
 _atom_site_occupancy
  Fe  Fe0  1  1.00336474  1.00347849  0.00465182  1
  Ni  Ni1  1  0.17075939  0.17027703  0.17106715  1
  Ni  Ni2  1  0.00425651  0.00417081  0.33678593  1
  Fe  Fe3  1  0.00432119  0.33655160  0.00480560  1
  Fe  Fe4  1  0.17102244  0.50314624  0.17078362  1
  Fe  Fe5  1  0.00396075  0.33741482  0.33675160  1
  Fe  Fe6  1  0.00415615  0.67127780  0.00445393  1
  Fe  Fe7  1  0.17035996  0.83780465  0.17090527  1
  Fe  Fe8  1  0.00384791  0.66985399  0.33718251  1
  Fe  Fe9  1  0.33747288  1.00339936  1.00331862  1
  Fe  Fe10  1  0.50314459  0.17105336  0.17082030  1
  Fe  Fe11  1  0.33741620  0.00395949  0.33731658  1
  Fe  Fe12  1  0.33731398  0.33742799  0.00392800  1
  Fe  Fe13  1  0.50350970  0.50347629  0.17121494  1
  Ni  Ni14  1  0.33720956  0.33712270  0.33654201  1
  Fe  Fe15  1  0.33756027  0.67047953  0.00429912  1
  Fe  Fe16  1  0.50347379  0.83677712  0.17047459  1
  Ni  Ni17  1  0.33799527  0.66962864  0.33718733  1
  Fe  Fe18  1  0.67046784  1.00323370  1.00357628  1
  Fe  Fe19  1  0.83780355  0.17039071  0.17086828  1
  Fe  Fe20  1  0.66993331  0.00384718  0.33710283  1
  Fe  Fe21  1  0.66966960  0.33663786  0.00517672  1
  Fe  Fe22  1  0.83677519  0.50347730  0.17022935  1
  Ni  Ni23  1  0.66983687  0.33828533  0.33680918  1
  Ni  Ni24  1  0.66999538  0.67128765  0.00487648  1
  Fe  Fe25  1  0.83747451  0.83743973  0.17052196  1
  Ni  Ni26  1  0.67022133  0.66963591  0.33652073  1
  Fe  Fe27  1  0.17090121  0.17035914  0.50335608  1
  Fe  Fe28  1  0.00426864  1.00376860  0.66990329  1
  Fe  Fe29  1  0.17072988  0.17067367  0.83713207  1
  Fe  Fe30  1  0.17121954  0.50349176  0.50369187  1
  Fe  Fe31  1  0.00522841  0.33625894  0.66974705  1
  Fe  Fe32  1  0.17246952  0.50342269  0.83683428  1
  Fe  Fe33  1  0.17055108  0.83745562  0.50357038  1
  Fe  Fe34  1  0.00536401  0.67127955  0.66966795  1
  Fe  Fe35  1  0.17038678  0.83721176  0.83683024  1
  Fe  Fe36  1  0.50321912  0.17105983  0.50400406  1
  Ni  Ni37  1  0.33560633  0.00539146  0.67047209  1
  Fe  Fe38  1  0.50339057  0.17067684  0.83648244  1
  Fe  Fe39  1  0.50387773  0.50376283  0.50318190  1
  Ni  Ni40  1  0.33636257  0.33599779  0.67152615  1
  Fe  Fe41  1  0.50227265  0.50404087  0.83691148  1
  Fe  Fe42  1  0.50384468  0.83648488  0.50392549  1
  Fe  Fe43  1  0.33748709  0.67048259  0.66998367  1
  Fe  Fe44  1  0.50435271  0.83659304  0.83690599  1
  Fe  Fe45  1  0.83718034  0.17039135  0.50325530  1
  Fe  Fe46  1  0.66927767  0.00387327  0.67062707  1
  Fe  Fe47  1  0.83718062  0.16859158  0.83718161  1
  Fe  Fe48  1  0.83620987  0.50411829  0.50389528  1
  Fe  Fe49  1  0.66848328  0.33599757  0.66902484  1
  Cr  Cr50  1  0.83637077  0.50417206  0.83653922  1
  Fe  Fe51  1  0.83691134  0.83679833  0.50360256  1
  Ni  Ni52  1  0.67047793  0.67129084  0.66990684  1
  Fe  Fe53  1  0.83656395  0.83833069  0.83718121  1
" 