2392,Ni18Fe61Cr20_12,-227.438329198464, 182.017844528894,Ni18Fe61Cr20,"# generated using pymatgen
 data_Cr4Fe11Ni3
_symmetry_space_group_name_H-M   'P 1'
_cell_length_a   7.45785322
_cell_length_b   7.45785322
_cell_length_c   10.54699717
_cell_angle_alpha   90.00000000
_cell_angle_beta   90.00000000
_cell_angle_gamma   90.00000000
_symmetry_Int_Tables_number   1
_chemical_formula_structural   Cr4Fe11Ni3
_chemical_formula_sum   'Cr12 Fe33 Ni9'
_cell_volume   586.61949650
_cell_formula_units_Z   3
loop_
 _symmetry_equiv_pos_site_id
 _symmetry_equiv_pos_as_xyz
  1  'x, y, z'
loop_
 _atom_site_type_symbol
 _atom_site_label
 _atom_site_symmetry_multiplicity
 _atom_site_fract_x
 _atom_site_fract_y
 _atom_site_fract_z
 _atom_site_occupancy
  Fe  Fe0  1  0.00317566  0.00238435  0.00157889  1
  Fe  Fe1  1  0.16578451  0.16939789  0.16731393  1
  Cr  Cr2  1  0.99757997  0.00065707  0.33228327  1
  Ni  Ni3  1  0.99842832  0.33326902  0.00413842  1
  Fe  Fe4  1  0.17053086  0.49849790  0.16668087  1
  Ni  Ni5  1  0.00145612  0.33439730  0.33140728  1
  Cr  Cr6  1  0.00390441  0.66990775  0.00093585  1
  Fe  Fe7  1  0.17268265  0.83656811  0.16585546  1
  Cr  Cr8  1  0.00428546  0.66649736  0.33145928  1
  Fe  Fe9  1  0.33078203  0.00179368  0.99952855  1
  Cr  Cr10  1  0.49778675  0.16331489  0.16621475  1
  Fe  Fe11  1  0.33389337  0.99996060  0.33495754  1
  Fe  Fe12  1  0.33144079  0.33617938  0.00144246  1
  Fe  Fe13  1  0.50025831  0.49996287  0.16616166  1
  Ni  Ni14  1  0.33399856  0.33556359  0.33346658  1
  Ni  Ni15  1  0.33493070  0.66839326  0.00235017  1
  Fe  Fe16  1  0.50041527  0.83102467  0.16643233  1
  Fe  Fe17  1  0.33636991  0.66570525  0.33321473  1
  Fe  Fe18  1  0.66992494  0.99956534  0.00097132  1
  Fe  Fe19  1  0.83301102  0.16776886  0.16487079  1
  Fe  Fe20  1  0.66505530  0.99811347  0.33568993  1
  Ni  Ni21  1  0.66461715  0.33200497  0.99890390  1
  Fe  Fe22  1  0.83251899  0.49783951  0.16582146  1
  Cr  Cr23  1  0.66747297  0.33108100  0.33556019  1
  Fe  Fe24  1  0.66725378  0.66313035  0.00336566  1
  Fe  Fe25  1  0.83036612  0.83450901  0.16628669  1
  Fe  Fe26  1  0.66711364  0.66635281  0.33362769  1
  Cr  Cr27  1  0.16843116  0.16751485  0.49911920  1
  Fe  Fe28  1  0.00573719  0.99966418  0.66813199  1
  Ni  Ni29  1  0.16888008  0.16582387  0.83622912  1
  Fe  Fe30  1  0.16996906  0.50045660  0.50056885  1
  Fe  Fe31  1  0.00388354  0.33145612  0.66693609  1
  Cr  Cr32  1  0.16585675  0.49940837  0.83147906  1
  Fe  Fe33  1  0.16910869  0.83231532  0.50254650  1
  Fe  Fe34  1  0.00233877  0.67267508  0.66694449  1
  Ni  Ni35  1  0.17083085  0.83640983  0.83284442  1
  Fe  Fe36  1  0.49937788  0.16689712  0.49993790  1
  Ni  Ni37  1  0.33447444  0.99933600  0.66857774  1
  Fe  Fe38  1  0.49690767  0.16829945  0.83588743  1
  Fe  Fe39  1  0.49745754  0.50111872  0.50088554  1
  Fe  Fe40  1  0.33552319  0.33136872  0.66669190  1
  Fe  Fe41  1  0.49643954  0.49960448  0.83495546  1
  Fe  Fe42  1  0.49792943  0.83332703  0.50068983  1
  Ni  Ni43  1  0.33233607  0.66684584  0.66595189  1
  Cr  Cr44  1  0.50172800  0.83239319  0.83836929  1
  Fe  Fe45  1  0.83530460  0.16761485  0.50167420  1
  Cr  Cr46  1  0.66755538  0.00461668  0.66619959  1
  Cr  Cr47  1  0.83653373  0.17043528  0.83458340  1
  Cr  Cr48  1  0.83622982  0.50080696  0.50353685  1
  Fe  Fe49  1  0.66130076  0.33636768  0.66744902  1
  Cr  Cr50  1  0.82971426  0.50377774  0.83192217  1
  Fe  Fe51  1  0.83366432  0.83483352  0.50096180  1
  Fe  Fe52  1  0.66237315  0.66971280  0.66607138  1
  Fe  Fe53  1  0.83836342  0.83636632  0.83362209  1
" 