6805,Ni18Fe21Cr59_6,-215.423277620759, 172.719793798667,Ni18Fe21Cr59,"# generated using pymatgen
 data_Cr33Fe11Ni10
_symmetry_space_group_name_H-M   'P 1'
_cell_length_a   7.53968422
_cell_length_b   7.53968422
_cell_length_c   10.66272368
_cell_angle_alpha   90.00000000
_cell_angle_beta   90.00000000
_cell_angle_gamma   90.00000000
_symmetry_Int_Tables_number   1
_chemical_formula_structural   Cr33Fe11Ni10
_chemical_formula_sum   'Cr33 Fe11 Ni10'
_cell_volume   606.14212681
_cell_formula_units_Z   1
loop_
 _symmetry_equiv_pos_site_id
 _symmetry_equiv_pos_as_xyz
  1  'x, y, z'
loop_
 _atom_site_type_symbol
 _atom_site_label
 _atom_site_symmetry_multiplicity
 _atom_site_fract_x
 _atom_site_fract_y
 _atom_site_fract_z
 _atom_site_occupancy
  Cr  Cr0  1  -0.00134940  -0.00354891  -0.00127239  1
  Fe  Fe1  1  0.16174956  0.16249374  0.16305242  1
  Fe  Fe2  1  -0.00363533  0.99463966  0.33100661  1
  Ni  Ni3  1  -0.00308667  0.32865677  -0.00428335  1
  Cr  Cr4  1  0.16297117  0.49489929  0.16285916  1
  Cr  Cr5  1  -0.00404845  0.32365532  0.33086043  1
  Cr  Cr6  1  0.99460670  0.66169802  0.99214649  1
  Ni  Ni7  1  0.16107749  0.82576768  0.16686224  1
  Fe  Fe8  1  -0.00102048  0.66262178  0.33002408  1
  Cr  Cr9  1  0.32455236  0.99414635  -0.00291683  1
  Cr  Cr10  1  0.49351288  0.16418180  0.15858618  1
  Cr  Cr11  1  0.32462505  -0.00467477  0.33021369  1
  Fe  Fe12  1  0.32762578  0.33132616  0.99515237  1
  Fe  Fe13  1  0.49289839  0.49501836  0.16286390  1
  Ni  Ni14  1  0.32779975  0.32827508  0.32926204  1
  Cr  Cr15  1  0.32994583  0.66338886  -0.00337732  1
  Cr  Cr16  1  0.49419576  0.83003230  0.16341766  1
  Fe  Fe17  1  0.32757216  0.65998499  0.32985245  1
  Cr  Cr18  1  0.66263513  0.99308900  0.99392407  1
  Cr  Cr19  1  0.82707169  0.16145741  0.16377747  1
  Cr  Cr20  1  0.66009771  -0.00340453  0.33144395  1
  Cr  Cr21  1  0.66409724  0.33291403  -0.00385732  1
  Cr  Cr22  1  0.83267868  0.49534894  0.16395808  1
  Cr  Cr23  1  0.65953832  0.32997300  0.33149124  1
  Cr  Cr24  1  0.66104182  0.65963052  0.99293546  1
  Cr  Cr25  1  0.83025812  0.82837022  0.16441134  1
  Cr  Cr26  1  0.65811158  0.65916972  0.32788418  1
  Fe  Fe27  1  0.16271284  0.16282419  0.49491704  1
  Cr  Cr28  1  -0.00261520  -0.00408112  0.65848792  1
  Cr  Cr29  1  0.16403466  0.16601983  0.83003137  1
  Cr  Cr30  1  0.16383303  0.49635230  0.49688683  1
  Cr  Cr31  1  -0.00473194  0.32766795  0.66085521  1
  Cr  Cr32  1  0.16224309  0.49484431  0.82531945  1
  Ni  Ni33  1  0.16241733  0.82592809  0.49250458  1
  Ni  Ni34  1  0.99449438  0.66336223  0.66183856  1
  Cr  Cr35  1  0.16086979  0.82648834  0.82604418  1
  Ni  Ni36  1  0.49305965  0.16307190  0.49673668  1
  Cr  Cr37  1  0.32748926  -0.00283940  0.65810368  1
  Cr  Cr38  1  0.49532577  0.16300944  0.82784462  1
  Fe  Fe39  1  0.49336321  0.49355221  0.49522549  1
  Ni  Ni40  1  0.33051058  0.32864764  0.66008343  1
  Ni  Ni41  1  0.49302996  0.49302460  0.82850324  1
  Fe  Fe42  1  0.49525124  0.82968579  0.49540305  1
  Cr  Cr43  1  0.32981763  0.66270255  0.65915496  1
  Cr  Cr44  1  0.49669452  0.83191622  0.82586047  1
  Ni  Ni45  1  0.82449295  0.15984351  0.49462136  1
  Ni  Ni46  1  0.66166808  0.99473312  0.65779087  1
  Cr  Cr47  1  0.82684935  0.15935172  0.82792277  1
  Cr  Cr48  1  0.83273614  0.49639830  0.49462861  1
  Cr  Cr49  1  0.66133447  0.32881020  0.65819464  1
  Fe  Fe50  1  0.82926103  0.49334145  0.82727247  1
  Cr  Cr51  1  0.82939401  0.82819448  0.49517676  1
  Cr  Cr52  1  0.66161837  0.65941139  0.66486789  1
  Fe  Fe53  1  0.82920750  0.82851257  0.82533010  1
" 