3757,Ni18Fe23Cr57_14,-216.146667089427, 168.027535968113,Ni18Fe23Cr57,"# generated using pymatgen
 data_Cr16Fe6Ni5
_symmetry_space_group_name_H-M   'P 1'
_cell_length_a   7.53336072
_cell_length_b   7.53336072
_cell_length_c   10.65378090
_cell_angle_alpha   90.00000000
_cell_angle_beta   90.00000000
_cell_angle_gamma   90.00000000
_symmetry_Int_Tables_number   1
_chemical_formula_structural   Cr16Fe6Ni5
_chemical_formula_sum   'Cr32 Fe12 Ni10'
_cell_volume   604.61829948
_cell_formula_units_Z   2
loop_
 _symmetry_equiv_pos_site_id
 _symmetry_equiv_pos_as_xyz
  1  'x, y, z'
loop_
 _atom_site_type_symbol
 _atom_site_label
 _atom_site_symmetry_multiplicity
 _atom_site_fract_x
 _atom_site_fract_y
 _atom_site_fract_z
 _atom_site_occupancy
  Cr  Cr0  1  0.99456362  -0.00428865  0.99444449  1
  Cr  Cr1  1  0.16477122  0.16254808  0.16210143  1
  Cr  Cr2  1  -0.00426948  -0.00338105  0.32821086  1
  Cr  Cr3  1  0.99331494  0.32900242  -0.00320194  1
  Cr  Cr4  1  0.16142312  0.49479841  0.16323606  1
  Fe  Fe5  1  -0.00335221  0.33198870  0.33005659  1
  Cr  Cr6  1  0.99546990  0.66205725  -0.00437777  1
  Cr  Cr7  1  0.16252061  0.82959485  0.16357239  1
  Ni  Ni8  1  0.99463768  0.65944231  0.32979731  1
  Ni  Ni9  1  0.33321406  -0.00269371  -0.00308160  1
  Ni  Ni10  1  0.49673771  0.16239369  0.16175610  1
  Fe  Fe11  1  0.33107430  -0.00049620  0.32850768  1
  Fe  Fe12  1  0.33167483  0.32577624  -0.00322117  1
  Cr  Cr13  1  0.49605502  0.49165311  0.15968759  1
  Ni  Ni14  1  0.32845417  0.32457267  0.33038141  1
  Cr  Cr15  1  0.32904876  0.66406684  0.99282028  1
  Cr  Cr16  1  0.49523727  0.83277546  0.16278462  1
  Cr  Cr17  1  0.32740023  0.66206956  0.32972826  1
  Ni  Ni18  1  0.65877256  -0.00113611  -0.00412191  1
  Fe  Fe19  1  0.82505903  0.16284831  0.16110326  1
  Fe  Fe20  1  0.66040361  -0.00238329  0.32753224  1
  Ni  Ni21  1  0.66135797  0.32515810  -0.00101818  1
  Fe  Fe22  1  0.82903294  0.49348958  0.16329081  1
  Cr  Cr23  1  0.66255178  0.32684714  0.32712140  1
  Cr  Cr24  1  0.66219313  0.66271268  0.99507534  1
  Cr  Cr25  1  0.82906007  0.82933378  0.16304593  1
  Cr  Cr26  1  0.66506615  0.66108344  0.32870884  1
  Fe  Fe27  1  0.16270587  0.16363345  0.49428036  1
  Ni  Ni28  1  0.99432016  0.99530139  0.66303523  1
  Cr  Cr29  1  0.16202077  0.16244118  0.82955523  1
  Fe  Fe30  1  0.15967449  0.49433107  0.49276314  1
  Cr  Cr31  1  -0.00319234  0.32791355  0.65962895  1
  Fe  Fe32  1  0.16308123  0.49494834  0.82959012  1
  Cr  Cr33  1  0.16102302  0.83039087  0.49262661  1
  Cr  Cr34  1  0.99414096  0.66263139  0.66307352  1
  Cr  Cr35  1  0.16204994  0.83064241  0.83032276  1
  Fe  Fe36  1  0.49494584  0.16203524  0.49307634  1
  Cr  Cr37  1  0.32888500  -0.00360371  0.66025062  1
  Cr  Cr38  1  0.49653657  0.16166286  0.83158735  1
  Cr  Cr39  1  0.49651674  0.49502501  0.49681320  1
  Cr  Cr40  1  0.32790692  0.32850787  0.66091883  1
  Cr  Cr41  1  0.49582254  0.49574240  0.83024003  1
  Cr  Cr42  1  0.49722119  0.83033252  0.49530495  1
  Cr  Cr43  1  0.33064973  0.66221152  0.66420004  1
  Ni  Ni44  1  0.49808279  0.82996600  0.82897490  1
  Cr  Cr45  1  0.82983774  0.16203328  0.49717453  1
  Fe  Fe46  1  0.66296981  0.99272915  0.66418532  1
  Cr  Cr47  1  0.82828459  0.15987793  0.82888947  1
  Ni  Ni48  1  0.83129214  0.49540137  0.49357775  1
  Cr  Cr49  1  0.66207452  0.32956994  0.66032616  1
  Cr  Cr50  1  0.82724368  0.49547296  0.82866657  1
  Cr  Cr51  1  0.82861410  0.82803237  0.49872102  1
  Ni  Ni52  1  0.66328733  0.66457799  0.66313452  1
  Fe  Fe53  1  0.82486169  0.83068801  0.82747213  1
" 