4577,Ni18Fe21Cr59_18,-215.238234239358, 166.88032343196,Ni18Fe21Cr59,"# generated using pymatgen
 data_Cr33Fe11Ni10
_symmetry_space_group_name_H-M   'P 1'
_cell_length_a   7.54502924
_cell_length_b   7.54502924
_cell_length_c   10.67028268
_cell_angle_alpha   90.00000000
_cell_angle_beta   90.00000000
_cell_angle_gamma   90.00000000
_symmetry_Int_Tables_number   1
_chemical_formula_structural   Cr33Fe11Ni10
_chemical_formula_sum   'Cr33 Fe11 Ni10'
_cell_volume   607.43215777
_cell_formula_units_Z   1
loop_
 _symmetry_equiv_pos_site_id
 _symmetry_equiv_pos_as_xyz
  1  'x, y, z'
loop_
 _atom_site_type_symbol
 _atom_site_label
 _atom_site_symmetry_multiplicity
 _atom_site_fract_x
 _atom_site_fract_y
 _atom_site_fract_z
 _atom_site_occupancy
  Cr  Cr0  1  -0.00425932  0.99320873  0.99261386  1
  Cr  Cr1  1  0.16062620  0.16252624  0.16268603  1
  Cr  Cr2  1  -0.00489578  0.99265273  0.32722208  1
  Cr  Cr3  1  -0.00398168  0.33005514  0.99327991  1
  Ni  Ni4  1  0.15999624  0.49663383  0.16150112  1
  Ni  Ni5  1  -0.00447703  0.33304348  0.32618908  1
  Ni  Ni6  1  -0.00481808  0.65864240  -0.00276752  1
  Fe  Fe7  1  0.15987126  0.82434208  0.16079988  1
  Ni  Ni8  1  -0.00464198  0.65680326  0.32484237  1
  Cr  Cr9  1  0.32751633  -0.00380150  -0.00444372  1
  Fe  Fe10  1  0.49535242  0.16344358  0.16119014  1
  Cr  Cr11  1  0.33088086  -0.00469089  0.32868584  1
  Cr  Cr12  1  0.32957005  0.32958395  -0.00342899  1
  Fe  Fe13  1  0.49616177  0.49536966  0.15985903  1
  Cr  Cr14  1  0.32940303  0.32872526  0.32699923  1
  Fe  Fe15  1  0.32541307  0.66007049  -0.00309123  1
  Cr  Cr16  1  0.49325201  0.82728703  0.15988863  1
  Cr  Cr17  1  0.32809796  0.66052577  0.32719274  1
  Cr  Cr18  1  0.66101864  -0.00404148  -0.00449676  1
  Cr  Cr19  1  0.82812526  0.16374073  0.16244158  1
  Cr  Cr20  1  0.65839495  0.99475365  0.33061268  1
  Fe  Fe21  1  0.66237530  0.33091233  -0.00301650  1
  Ni  Ni22  1  0.83038053  0.49545617  0.16032288  1
  Cr  Cr23  1  0.65993869  0.32920682  0.32614882  1
  Fe  Fe24  1  0.66292065  0.65857560  -0.00412823  1
  Cr  Cr25  1  0.82846759  0.82636132  0.16111869  1
  Cr  Cr26  1  0.66199418  0.66095204  0.32955445  1
  Cr  Cr27  1  0.16154520  0.16388499  0.49583909  1
  Cr  Cr28  1  0.99452855  -0.00473263  0.66471706  1
  Fe  Fe29  1  0.16325764  0.16317200  0.82653248  1
  Cr  Cr30  1  0.16078761  0.49360666  0.49425994  1
  Ni  Ni31  1  -0.00233483  0.32777565  0.66293241  1
  Cr  Cr32  1  0.16344693  0.49484892  0.82588962  1
  Cr  Cr33  1  0.16363324  0.82649203  0.49221362  1
  Cr  Cr34  1  0.99307496  0.66079857  0.66104070  1
  Cr  Cr35  1  0.16451064  0.82637883  0.83063613  1
  Ni  Ni36  1  0.49463564  0.16015536  0.49693686  1
  Fe  Fe37  1  0.32922462  -0.00508212  0.66030919  1
  Cr  Cr38  1  0.49514667  0.16199703  0.82738843  1
  Cr  Cr39  1  0.49406662  0.49533514  0.49833130  1
  Fe  Fe40  1  0.32952943  0.32656400  0.66132825  1
  Cr  Cr41  1  0.49484090  0.49617421  0.82853423  1
  Ni  Ni42  1  0.49407397  0.82981101  0.49907497  1
  Fe  Fe43  1  0.32857205  0.66293722  0.66054759  1
  Cr  Cr44  1  0.49441695  0.82692279  0.82681744  1
  Cr  Cr45  1  0.82843251  0.16353756  0.49432012  1
  Ni  Ni46  1  0.65679360  0.99438198  0.65967069  1
  Cr  Cr47  1  0.82701833  0.16300531  0.82718848  1
  Cr  Cr48  1  0.82986345  0.49322401  0.49450961  1
  Fe  Fe49  1  0.66257816  0.32750576  0.66065860  1
  Cr  Cr50  1  0.82675388  0.49465712  0.82782027  1
  Cr  Cr51  1  0.82661403  0.82748863  0.49480361  1
  Ni  Ni52  1  0.65767257  0.66299134  0.66157619  1
  Cr  Cr53  1  0.82557510  0.82677176  0.82928858  1
" 