7559,Ni18Fe61Cr20_17,-227.398588247432, 180.615715540544,Ni18Fe61Cr20,"# generated using pymatgen
 data_Cr4Fe11Ni3
_symmetry_space_group_name_H-M   'P 1'
_cell_length_a   7.45444765
_cell_length_b   7.45444765
_cell_length_c   10.54218096
_cell_angle_alpha   90.00000000
_cell_angle_beta   90.00000000
_cell_angle_gamma   90.00000000
_symmetry_Int_Tables_number   1
_chemical_formula_structural   Cr4Fe11Ni3
_chemical_formula_sum   'Cr12 Fe33 Ni9'
_cell_volume   585.81623740
_cell_formula_units_Z   3
loop_
 _symmetry_equiv_pos_site_id
 _symmetry_equiv_pos_as_xyz
  1  'x, y, z'
loop_
 _atom_site_type_symbol
 _atom_site_label
 _atom_site_symmetry_multiplicity
 _atom_site_fract_x
 _atom_site_fract_y
 _atom_site_fract_z
 _atom_site_occupancy
  Fe  Fe0  1  1.00078934  0.00118640  0.00193772  1
  Fe  Fe1  1  0.16677505  0.16905986  0.16500485  1
  Cr  Cr2  1  0.00184360  0.00106197  0.33345804  1
  Fe  Fe3  1  1.00012694  0.33402102  0.00256245  1
  Ni  Ni4  1  0.16914094  0.49947353  0.16704252  1
  Fe  Fe5  1  0.00119658  0.33341451  0.33409967  1
  Cr  Cr6  1  1.00066930  0.66845996  0.99920787  1
  Fe  Fe7  1  0.16778036  0.83233361  0.16607992  1
  Cr  Cr8  1  0.00130136  0.66657987  0.33637298  1
  Fe  Fe9  1  0.33405520  1.00025936  0.00195486  1
  Fe  Fe10  1  0.50188518  0.16882663  0.16687320  1
  Cr  Cr11  1  0.33379581  0.00257971  0.33340593  1
  Ni  Ni12  1  0.33448211  0.33312192  0.00212358  1
  Fe  Fe13  1  0.50025259  0.50021428  0.16857900  1
  Fe  Fe14  1  0.33354748  0.33579127  0.33234445  1
  Fe  Fe15  1  0.33391566  0.66745853  0.00268986  1
  Fe  Fe16  1  0.50139723  0.83333742  0.16934607  1
  Fe  Fe17  1  0.33523049  0.66726386  0.33385239  1
  Cr  Cr18  1  0.66740615  0.00114081  0.99841791  1
  Fe  Fe19  1  0.83349674  0.16889854  0.16871534  1
  Ni  Ni20  1  0.66690902  0.00116021  0.33610384  1
  Fe  Fe21  1  0.66734737  0.33324587  0.00097476  1
  Fe  Fe22  1  0.83528150  0.49984266  0.16858169  1
  Fe  Fe23  1  0.66849913  0.33362781  0.33477137  1
  Cr  Cr24  1  0.66829491  0.66728242  0.00178031  1
  Ni  Ni25  1  0.83294983  0.83583320  0.16938261  1
  Fe  Fe26  1  0.66562476  0.66927422  0.33417159  1
  Fe  Fe27  1  0.16827628  0.17027133  0.50157445  1
  Cr  Cr28  1  0.00100554  1.00021924  0.66531200  1
  Cr  Cr29  1  0.16812737  0.16892719  0.83497535  1
  Fe  Fe30  1  0.16908479  0.49933742  0.50066385  1
  Fe  Fe31  1  0.00107568  0.33642587  0.66584823  1
  Fe  Fe32  1  0.16704139  0.50111663  0.83465606  1
  Fe  Fe33  1  0.17062900  0.83299542  0.50195342  1
  Fe  Fe34  1  0.00231833  0.66523749  0.66788090  1
  Fe  Fe35  1  0.17012470  0.83385963  0.83340419  1
  Cr  Cr36  1  0.50185421  0.16787087  0.50215964  1
  Fe  Fe37  1  0.33669031  0.99927028  0.66751535  1
  Ni  Ni38  1  0.49903511  0.16700551  0.83412853  1
  Ni  Ni39  1  0.49835734  0.50199702  0.49766992  1
  Fe  Fe40  1  0.33264270  0.33581640  0.66734629  1
  Cr  Cr41  1  0.49738867  0.50046217  0.83652245  1
  Ni  Ni42  1  0.50100887  0.83273179  0.50092656  1
  Fe  Fe43  1  0.33288167  0.66736709  0.66572718  1
  Fe  Fe44  1  0.49902719  0.83627714  0.83233885  1
  Ni  Ni45  1  0.83585086  0.16740430  0.50025993  1
  Fe  Fe46  1  0.66705319  1.00033012  0.66783823  1
  Fe  Fe47  1  0.83410745  0.16758088  0.83369406  1
  Fe  Fe48  1  0.83166806  0.49865631  0.50029934  1
  Cr  Cr49  1  0.66617683  0.33390982  0.66973234  1
  Fe  Fe50  1  0.83647215  0.49889381  0.83408398  1
  Fe  Fe51  1  0.83029921  0.83506268  0.49997660  1
  Cr  Cr52  1  0.66764427  0.66707899  0.66716809  1
  Ni  Ni53  1  0.83580120  0.83478223  0.83214645  1
" 