8840,Ni18Fe61Cr20_15,-226.569377376116, 174.52968032019,Ni18Fe61Cr20,"# generated using pymatgen
 data_Cr4Fe11Ni3
_symmetry_space_group_name_H-M   'P 1'
_cell_length_a   7.45459361
_cell_length_b   7.45459361
_cell_length_c   10.54238739
_cell_angle_alpha   90.00000000
_cell_angle_beta   90.00000000
_cell_angle_gamma   90.00000000
_symmetry_Int_Tables_number   1
_chemical_formula_structural   Cr4Fe11Ni3
_chemical_formula_sum   'Cr12 Fe33 Ni9'
_cell_volume   585.85065096
_cell_formula_units_Z   3
loop_
 _symmetry_equiv_pos_site_id
 _symmetry_equiv_pos_as_xyz
  1  'x, y, z'
loop_
 _atom_site_type_symbol
 _atom_site_label
 _atom_site_symmetry_multiplicity
 _atom_site_fract_x
 _atom_site_fract_y
 _atom_site_fract_z
 _atom_site_occupancy
  Fe  Fe0  1  0.99921800  0.00153609  0.99874457  1
  Fe  Fe1  1  0.16775038  0.16636739  0.16902885  1
  Fe  Fe2  1  0.99976054  0.00179134  0.33519899  1
  Cr  Cr3  1  0.99868100  0.33358494  0.00127403  1
  Cr  Cr4  1  0.16683960  0.50089530  0.16909065  1
  Fe  Fe5  1  0.99921845  0.33410623  0.33462544  1
  Fe  Fe6  1  0.00086309  0.66602515  0.99718820  1
  Cr  Cr7  1  0.16543434  0.83310497  0.16582414  1
  Fe  Fe8  1  0.99967489  0.66657530  0.33714502  1
  Fe  Fe9  1  0.33449649  0.00309637  1.00070655  1
  Fe  Fe10  1  0.50055574  0.16774645  0.16766723  1
  Fe  Fe11  1  0.33502116  0.00090953  0.33390535  1
  Fe  Fe12  1  0.33545087  0.33532720  0.00148918  1
  Fe  Fe13  1  0.50167959  0.50018722  0.16907220  1
  Ni  Ni14  1  0.33419239  0.33372806  0.33323636  1
  Fe  Fe15  1  0.33343803  0.66464122  0.99890789  1
  Fe  Fe16  1  0.49975302  0.83435404  0.16765619  1
  Fe  Fe17  1  0.33533435  0.66737105  0.33565450  1
  Fe  Fe18  1  0.66932588  0.00405124  0.00090515  1
  Fe  Fe19  1  0.83374488  0.16811254  0.16867799  1
  Fe  Fe20  1  0.66770712  0.00093658  0.33460299  1
  Ni  Ni21  1  0.66761667  0.33404760  0.00272795  1
  Fe  Fe22  1  0.83305814  0.49980104  0.16848477  1
  Fe  Fe23  1  0.66790652  0.33429790  0.33291697  1
  Cr  Cr24  1  0.66751271  0.66457660  0.99981383  1
  Cr  Cr25  1  0.83458927  0.83328120  0.16566522  1
  Fe  Fe26  1  0.66737900  0.66702028  0.33465325  1
  Cr  Cr27  1  0.16706225  0.17085966  0.50086852  1
  Fe  Fe28  1  0.99809446  1.00025498  0.66758703  1
  Fe  Fe29  1  0.16440550  0.16803490  0.83288294  1
  Fe  Fe30  1  0.16426661  0.50193662  0.50053635  1
  Ni  Ni31  1  0.99814666  0.33479167  0.66692112  1
  Ni  Ni32  1  0.16683112  0.49917168  0.83293166  1
  Fe  Fe33  1  0.16464316  0.83271596  0.49884793  1
  Ni  Ni34  1  1.00053419  0.66708606  0.66772344  1
  Fe  Fe35  1  0.16470630  0.83270339  0.83566042  1
  Cr  Cr36  1  0.50216562  0.16902724  0.50269880  1
  Cr  Cr37  1  0.33229326  0.99880750  0.66599077  1
  Cr  Cr38  1  0.50145502  0.17062471  0.83203799  1
  Cr  Cr39  1  0.50076105  0.49852121  0.50374123  1
  Fe  Fe40  1  0.33085126  0.33617425  0.66881448  1
  Fe  Fe41  1  0.50281865  0.50001322  0.83324615  1
  Fe  Fe42  1  0.50372701  0.83395610  0.49926337  1
  Cr  Cr43  1  0.33297658  0.66918278  0.66751856  1
  Cr  Cr44  1  0.50509729  0.83593325  0.83390576  1
  Fe  Fe45  1  0.83391093  0.16770588  0.50123467  1
  Fe  Fe46  1  0.67286099  1.00012443  0.66675316  1
  Fe  Fe47  1  0.83440079  0.16862443  0.83334910  1
  Fe  Fe48  1  0.83531871  0.50048372  0.50225668  1
  Ni  Ni49  1  0.67210890  0.33472052  0.66885630  1
  Ni  Ni50  1  0.83573960  0.50154159  0.83324091  1
  Ni  Ni51  1  0.83488439  0.83322628  0.50140536  1
  Fe  Fe52  1  0.67215411  0.66691235  0.66794724  1
  Ni  Ni53  1  0.83669096  0.83450024  0.83402406  1
" 