1839,Ni18Fe61Cr20_5,-226.877576648866, 179.589198639806,Ni18Fe61Cr20,"# generated using pymatgen
 data_Cr4Fe11Ni3
_symmetry_space_group_name_H-M   'P 1'
_cell_length_a   7.45278058
_cell_length_b   7.45278058
_cell_length_c   10.53982338
_cell_angle_alpha   90.00000000
_cell_angle_beta   90.00000000
_cell_angle_gamma   90.00000000
_symmetry_Int_Tables_number   1
_chemical_formula_structural   Cr4Fe11Ni3
_chemical_formula_sum   'Cr12 Fe33 Ni9'
_cell_volume   585.42330034
_cell_formula_units_Z   3
loop_
 _symmetry_equiv_pos_site_id
 _symmetry_equiv_pos_as_xyz
  1  'x, y, z'
loop_
 _atom_site_type_symbol
 _atom_site_label
 _atom_site_symmetry_multiplicity
 _atom_site_fract_x
 _atom_site_fract_y
 _atom_site_fract_z
 _atom_site_occupancy
  Fe  Fe0  1  1.00089466  0.00353242  1.00055375  1
  Fe  Fe1  1  0.16900736  0.16994005  0.16743660  1
  Cr  Cr2  1  0.00167370  0.00217599  0.33504319  1
  Fe  Fe3  1  0.00262276  0.33377117  0.00182130  1
  Ni  Ni4  1  0.16556397  0.49760340  0.16788995  1
  Ni  Ni5  1  1.00056017  0.33651172  0.33212586  1
  Fe  Fe6  1  0.99979462  0.66556582  1.00071013  1
  Cr  Cr7  1  0.16834115  0.83448537  0.16860328  1
  Fe  Fe8  1  1.00094662  0.66443151  0.33513255  1
  Ni  Ni9  1  0.33644805  0.00250581  0.00209869  1
  Fe  Fe10  1  0.49889302  0.16558996  0.16779563  1
  Fe  Fe11  1  0.33569472  0.00200358  0.33382710  1
  Fe  Fe12  1  0.33258576  0.33162927  0.00100971  1
  Cr  Cr13  1  0.50042795  0.50022833  0.17034982  1
  Ni  Ni14  1  0.33444763  0.33504552  0.33226880  1
  Cr  Cr15  1  0.33501190  0.66757696  0.99953007  1
  Ni  Ni16  1  0.50201062  0.83639951  0.16657255  1
  Fe  Fe17  1  0.33442249  0.66750266  0.33414817  1
  Ni  Ni18  1  0.66578215  1.00071567  1.00049197  1
  Fe  Fe19  1  0.83497231  0.16950252  0.16693688  1
  Cr  Cr20  1  0.66563340  0.00158741  0.33496869  1
  Cr  Cr21  1  0.66879242  0.33353423  0.00115747  1
  Fe  Fe22  1  0.83677923  0.50078858  0.16855258  1
  Fe  Fe23  1  0.66821042  0.33446510  0.33521635  1
  Fe  Fe24  1  0.66741935  0.66967898  1.00044548  1
  Cr  Cr25  1  0.83240675  0.83323630  0.16417289  1
  Fe  Fe26  1  0.66749956  0.66583210  0.33541017  1
  Cr  Cr27  1  0.16877263  0.16722209  0.50150902  1
  Ni  Ni28  1  1.00058061  0.00144521  0.66680049  1
  Fe  Fe29  1  0.16746188  0.16814188  0.83414676  1
  Cr  Cr30  1  0.16745542  0.50220278  0.50099758  1
  Fe  Fe31  1  0.99946148  0.33450343  0.66851571  1
  Fe  Fe32  1  0.16654464  0.49953752  0.83370234  1
  Fe  Fe33  1  0.16809473  0.83419486  0.50236580  1
  Ni  Ni34  1  0.00201977  0.66758079  0.66635191  1
  Cr  Cr35  1  0.16672117  0.83487079  0.83280873  1
  Ni  Ni36  1  0.50234732  0.16828986  0.50149849  1
  Fe  Fe37  1  0.33488133  1.00048808  0.66780420  1
  Fe  Fe38  1  0.50031466  0.16618601  0.83374779  1
  Fe  Fe39  1  0.50117928  0.49923733  0.49994596  1
  Fe  Fe40  1  0.33507546  0.33425445  0.66814673  1
  Fe  Fe41  1  0.50037117  0.50063197  0.83371992  1
  Fe  Fe42  1  0.49939317  0.83486186  0.50038418  1
  Fe  Fe43  1  0.33316468  0.66812984  0.66784904  1
  Fe  Fe44  1  0.50098175  0.83605113  0.83556772  1
  Fe  Fe45  1  0.83314497  0.16898390  0.50223655  1
  Fe  Fe46  1  0.66784522  0.00263930  0.66697077  1
  Fe  Fe47  1  0.83509663  0.16753147  0.83369772  1
  Fe  Fe48  1  0.83380969  0.49974816  0.50032798  1
  Fe  Fe49  1  0.66833736  0.33278693  0.66752812  1
  Fe  Fe50  1  0.83595634  0.50020909  0.83398922  1
  Fe  Fe51  1  0.83538193  0.83414225  0.50227083  1
  Cr  Cr52  1  0.66654179  0.66673366  0.66789946  1
  Cr  Cr53  1  0.83390892  0.83524215  0.83663408  1
" 