3763,Ni18Fe61Cr20_2,-227.239052460558, 181.010322333511,Ni18Fe61Cr20,"# generated using pymatgen
 data_Cr4Fe11Ni3
_symmetry_space_group_name_H-M   'P 1'
_cell_length_a   7.45444959
_cell_length_b   7.45444959
_cell_length_c   10.54218371
_cell_angle_alpha   90.00000000
_cell_angle_beta   90.00000000
_cell_angle_gamma   90.00000000
_symmetry_Int_Tables_number   1
_chemical_formula_structural   Cr4Fe11Ni3
_chemical_formula_sum   'Cr12 Fe33 Ni9'
_cell_volume   585.81669483
_cell_formula_units_Z   3
loop_
 _symmetry_equiv_pos_site_id
 _symmetry_equiv_pos_as_xyz
  1  'x, y, z'
loop_
 _atom_site_type_symbol
 _atom_site_label
 _atom_site_symmetry_multiplicity
 _atom_site_fract_x
 _atom_site_fract_y
 _atom_site_fract_z
 _atom_site_occupancy
  Fe  Fe0  1  0.99985721  0.00308296  0.00130480  1
  Fe  Fe1  1  0.16724403  0.16570270  0.16695763  1
  Ni  Ni2  1  0.00151954  0.00247414  0.33460373  1
  Fe  Fe3  1  0.00105410  0.33012172  0.00220248  1
  Fe  Fe4  1  0.16456538  0.50027434  0.16559642  1
  Cr  Cr5  1  0.99961441  0.33352636  0.33381828  1
  Fe  Fe6  1  0.00160834  0.66935762  0.00146215  1
  Fe  Fe7  1  0.16779941  0.83684968  0.16665406  1
  Fe  Fe8  1  1.00081977  0.66983434  0.33548513  1
  Ni  Ni9  1  0.33464477  1.00012122  0.00276264  1
  Fe  Fe10  1  0.50249966  0.16410410  0.16758664  1
  Fe  Fe11  1  0.33340806  0.00339550  0.33354897  1
  Fe  Fe12  1  0.33192818  0.33115473  0.00191975  1
  Cr  Cr13  1  0.50117357  0.49725572  0.16745708  1
  Fe  Fe14  1  0.33440283  0.33094967  0.33476570  1
  Fe  Fe15  1  0.33406653  0.66976758  0.00205592  1
  Fe  Fe16  1  0.50188886  0.83818620  0.16690602  1
  Cr  Cr17  1  0.33220681  0.66882870  0.33311536  1
  Ni  Ni18  1  0.66820139  0.00098064  0.99913909  1
  Ni  Ni19  1  0.83342740  0.16673532  0.16726079  1
  Ni  Ni20  1  0.66833996  0.00321552  0.33450779  1
  Fe  Fe21  1  0.66920191  0.32968681  0.00163447  1
  Fe  Fe22  1  0.83531604  0.49931365  0.16525167  1
  Fe  Fe23  1  0.66745469  0.33052099  0.33506084  1
  Fe  Fe24  1  0.66690438  0.67156640  0.00102991  1
  Cr  Cr25  1  0.83641842  0.83636437  0.16839888  1
  Cr  Cr26  1  0.66749851  0.66683842  0.33558377  1
  Fe  Fe27  1  0.16857229  0.16554601  0.50116526  1
  Fe  Fe28  1  1.00002120  0.00216639  0.66636397  1
  Fe  Fe29  1  0.16574280  0.16780834  0.83441643  1
  Fe  Fe30  1  0.16749743  0.49947661  0.50143158  1
  Fe  Fe31  1  0.00366054  0.33237273  0.66718472  1
  Fe  Fe32  1  0.16526224  0.49810532  0.83534539  1
  Fe  Fe33  1  0.16538518  0.83750339  0.50124758  1
  Fe  Fe34  1  0.99950546  0.66827859  0.66617304  1
  Cr  Cr35  1  0.16641261  0.83620182  0.83494242  1
  Ni  Ni36  1  0.49937753  0.16851370  0.49834220  1
  Ni  Ni37  1  0.33311165  0.00170282  0.66700682  1
  Cr  Cr38  1  0.49914087  0.16724872  0.83416807  1
  Fe  Fe39  1  0.49985256  0.49852476  0.50048379  1
  Fe  Fe40  1  0.33212994  0.33117658  0.66533455  1
  Cr  Cr41  1  0.49925558  0.50022153  0.83417276  1
  Cr  Cr42  1  0.50101267  0.83801127  0.50179748  1
  Cr  Cr43  1  0.33445299  0.66806357  0.66882393  1
  Fe  Fe44  1  0.50357017  0.83638633  0.83479796  1
  Fe  Fe45  1  0.83359546  0.16416995  0.49983478  1
  Fe  Fe46  1  0.66799256  1.00072309  0.66777195  1
  Ni  Ni47  1  0.83624414  0.16533917  0.83426320  1
  Fe  Fe48  1  0.83505683  0.50147828  0.50175028  1
  Cr  Cr49  1  0.67021263  0.33209740  0.66519943  1
  Cr  Cr50  1  0.83434625  0.50122535  0.83688582  1
  Fe  Fe51  1  0.83605350  0.83716250  0.50102858  1
  Fe  Fe52  1  0.66995649  0.67017212  0.66708204  1
  Ni  Ni53  1  0.83514429  0.83574426  0.83254598  1
" 