379,Ni18Fe21Cr59_16,-215.298318374509, 171.24568030167,Ni18Fe21Cr59,"# generated using pymatgen
 data_Cr33Fe11Ni10
_symmetry_space_group_name_H-M   'P 1'
_cell_length_a   7.53550710
_cell_length_b   7.53550710
_cell_length_c   10.65681634
_cell_angle_alpha   90.00000000
_cell_angle_beta   90.00000000
_cell_angle_gamma   90.00000000
_symmetry_Int_Tables_number   1
_chemical_formula_structural   Cr33Fe11Ni10
_chemical_formula_sum   'Cr33 Fe11 Ni10'
_cell_volume   605.13524412
_cell_formula_units_Z   1
loop_
 _symmetry_equiv_pos_site_id
 _symmetry_equiv_pos_as_xyz
  1  'x, y, z'
loop_
 _atom_site_type_symbol
 _atom_site_label
 _atom_site_symmetry_multiplicity
 _atom_site_fract_x
 _atom_site_fract_y
 _atom_site_fract_z
 _atom_site_occupancy
  Cr  Cr0  1  0.99422387  -0.00110581  -0.00401735  1
  Fe  Fe1  1  0.16053439  0.16357069  0.16104155  1
  Cr  Cr2  1  -0.00306417  -0.00296638  0.32791795  1
  Ni  Ni3  1  -0.00120412  0.32537735  -0.00358112  1
  Fe  Fe4  1  0.16138975  0.49332307  0.16156383  1
  Ni  Ni5  1  -0.00220530  0.32562751  0.32692167  1
  Cr  Cr6  1  -0.00402863  0.66231716  -0.00134714  1
  Ni  Ni7  1  0.16067347  0.83071997  0.16364528  1
  Cr  Cr8  1  -0.00306564  0.66314834  0.32810300  1
  Cr  Cr9  1  0.32756928  -0.00395762  0.99416498  1
  Cr  Cr10  1  0.49448705  0.16238729  0.16363053  1
  Fe  Fe11  1  0.32430331  0.99488822  0.32882971  1
  Fe  Fe12  1  0.32503515  0.32691692  -0.00443646  1
  Cr  Cr13  1  0.49487892  0.49215835  0.16184996  1
  Cr  Cr14  1  0.32587402  0.32811112  0.32832305  1
  Cr  Cr15  1  0.32975141  0.66053287  -0.00394042  1
  Cr  Cr16  1  0.49211799  0.83164629  0.16202998  1
  Cr  Cr17  1  0.32803832  0.66220495  0.32891880  1
  Cr  Cr18  1  0.66461213  0.99426499  0.99441315  1
  Fe  Fe19  1  0.83190654  0.16343625  0.16176868  1
  Cr  Cr20  1  0.66398534  0.99493242  0.32576555  1
  Cr  Cr21  1  0.66357046  0.32713388  0.99360993  1
  Cr  Cr22  1  0.83196743  0.49229359  0.16369533  1
  Fe  Fe23  1  0.66534096  0.32827384  0.32789277  1
  Cr  Cr24  1  0.66078597  0.66479007  -0.00407567  1
  Fe  Fe25  1  0.83086284  0.82983150  0.16196675  1
  Cr  Cr26  1  0.66141731  0.66287304  0.32702599  1
  Fe  Fe27  1  0.16227264  0.16015195  0.49516228  1
  Cr  Cr28  1  -0.00452263  -0.00237966  0.66259048  1
  Ni  Ni29  1  0.16062757  0.16275456  0.83068738  1
  Cr  Cr30  1  0.15903858  0.49831143  0.49577776  1
  Cr  Cr31  1  -0.00237383  0.32617245  0.66318626  1
  Cr  Cr32  1  0.15980217  0.49536768  0.83197286  1
  Ni  Ni33  1  0.16378726  0.83104432  0.49685165  1
  Ni  Ni34  1  -0.00438769  0.66316316  0.66022622  1
  Cr  Cr35  1  0.16356640  0.82902318  0.82577733  1
  Cr  Cr36  1  0.49550968  0.16023947  0.49431988  1
  Fe  Fe37  1  0.32846021  0.99400094  0.66302838  1
  Cr  Cr38  1  0.49530603  0.15924834  0.82794052  1
  Cr  Cr39  1  0.49848465  0.49405248  0.49627092  1
  Cr  Cr40  1  0.32756665  0.32777452  0.66370083  1
  Cr  Cr41  1  0.49544845  0.49683343  0.82809454  1
  Cr  Cr42  1  0.49223106  0.83176447  0.49742261  1
  Fe  Fe43  1  0.32867734  0.66471284  0.66199888  1
  Ni  Ni44  1  0.49501440  0.82976180  0.82515883  1
  Cr  Cr45  1  0.82697204  0.16439794  0.49454966  1
  Ni  Ni46  1  0.66023929  0.99394454  0.66526148  1
  Ni  Ni47  1  0.83003236  0.16314711  0.82912066  1
  Cr  Cr48  1  0.82930411  0.49430077  0.49667257  1
  Fe  Fe49  1  0.66360083  0.32733982  0.66360329  1
  Cr  Cr50  1  0.83088084  0.49497911  0.82571363  1
  Cr  Cr51  1  0.83088708  0.82780889  0.49729028  1
  Ni  Ni52  1  0.65979418  0.66535600  0.66324748  1
  Cr  Cr53  1  0.82872942  0.82870570  0.82740018  1
" 