1903,Ni18Fe61Cr20_13,-227.13736326423, 180.150481354478,Ni18Fe61Cr20,"# generated using pymatgen
 data_Cr4Fe11Ni3
_symmetry_space_group_name_H-M   'P 1'
_cell_length_a   7.45263852
_cell_length_b   7.45263852
_cell_length_c   10.53962246
_cell_angle_alpha   90.00000000
_cell_angle_beta   90.00000000
_cell_angle_gamma   90.00000000
_symmetry_Int_Tables_number   1
_chemical_formula_structural   Cr4Fe11Ni3
_chemical_formula_sum   'Cr12 Fe33 Ni9'
_cell_volume   585.38982259
_cell_formula_units_Z   3
loop_
 _symmetry_equiv_pos_site_id
 _symmetry_equiv_pos_as_xyz
  1  'x, y, z'
loop_
 _atom_site_type_symbol
 _atom_site_label
 _atom_site_symmetry_multiplicity
 _atom_site_fract_x
 _atom_site_fract_y
 _atom_site_fract_z
 _atom_site_occupancy
  Fe  Fe0  1  0.00137830  0.99980546  1.00067904  1
  Ni  Ni1  1  0.16780673  0.16722494  0.16828363  1
  Fe  Fe2  1  1.00022617  0.00219611  0.33337265  1
  Cr  Cr3  1  1.00085958  0.33545352  0.00210453  1
  Fe  Fe4  1  0.16688534  0.49795105  0.16734842  1
  Fe  Fe5  1  0.00151824  0.33411516  0.33237421  1
  Ni  Ni6  1  0.99884851  0.66726171  0.99969635  1
  Cr  Cr7  1  0.16672924  0.83728231  0.16606778  1
  Cr  Cr8  1  1.00060005  0.66671591  0.33495482  1
  Ni  Ni9  1  0.33570261  0.00186389  0.99971853  1
  Cr  Cr10  1  0.49932043  0.16780051  0.16700888  1
  Fe  Fe11  1  0.33532480  0.00252486  0.33438969  1
  Fe  Fe12  1  0.33318995  0.33289333  1.00096344  1
  Fe  Fe13  1  0.50261569  0.50034180  0.16780857  1
  Fe  Fe14  1  0.33443723  0.33418759  0.33461651  1
  Cr  Cr15  1  0.33342273  0.66850039  0.00100146  1
  Fe  Fe16  1  0.50319627  0.83457089  0.16728841  1
  Cr  Cr17  1  0.33551355  0.66711535  0.33623418  1
  Fe  Fe18  1  0.66811811  0.99969722  1.00016009  1
  Fe  Fe19  1  0.83543891  0.16776385  0.16885032  1
  Fe  Fe20  1  0.66734613  1.00012876  0.33477336  1
  Fe  Fe21  1  0.66770193  0.33478171  0.00180189  1
  Ni  Ni22  1  0.83216064  0.50211651  0.16662734  1
  Ni  Ni23  1  0.66718801  0.33350098  0.33432032  1
  Fe  Fe24  1  0.67011195  0.66842195  0.00177604  1
  Fe  Fe25  1  0.83304321  0.83466438  0.16671600  1
  Fe  Fe26  1  0.66727682  0.66747496  0.33347198  1
  Cr  Cr27  1  0.16890844  0.16776694  0.49990773  1
  Fe  Fe28  1  1.00061551  0.00136552  0.66884318  1
  Fe  Fe29  1  0.16845091  0.16768833  0.83405889  1
  Ni  Ni30  1  0.16967430  0.50151607  0.50173568  1
  Ni  Ni31  1  0.00192413  0.33395854  0.66902542  1
  Ni  Ni32  1  0.16648650  0.50104555  0.83376555  1
  Fe  Fe33  1  0.16846209  0.83486991  0.50140354  1
  Cr  Cr34  1  0.00360494  0.66636963  0.66827956  1
  Fe  Fe35  1  0.16784746  0.83482634  0.83509747  1
  Ni  Ni36  1  0.50107612  0.16669991  0.50192032  1
  Fe  Fe37  1  0.33485092  1.00073491  0.66847957  1
  Fe  Fe38  1  0.50022870  0.16652269  0.83425594  1
  Fe  Fe39  1  0.49939059  0.49849472  0.50078765  1
  Fe  Fe40  1  0.33336459  0.33503164  0.66731808  1
  Cr  Cr41  1  0.50100105  0.49943253  0.83447591  1
  Fe  Fe42  1  0.50057541  0.83582721  0.50099638  1
  Fe  Fe43  1  0.33254102  0.66713367  0.66688507  1
  Fe  Fe44  1  0.50015345  0.83666166  0.83461325  1
  Cr  Cr45  1  0.83268371  0.16706933  0.50035400  1
  Fe  Fe46  1  0.66743336  0.00219644  0.66796641  1
  Fe  Fe47  1  0.83422206  0.16799191  0.83298651  1
  Cr  Cr48  1  0.83396452  0.50035508  0.50162845  1
  Fe  Fe49  1  0.66747381  0.33212628  0.66748834  1
  Fe  Fe50  1  0.83605682  0.50031428  0.83532231  1
  Fe  Fe51  1  0.83386432  0.83646040  0.50033760  1
  Cr  Cr52  1  0.66648742  0.66879306  0.66601753  1
  Fe  Fe53  1  0.83489912  0.83459473  0.83584363  1
" 