3116,Ni18Fe61Cr20_7,-226.681207350589, 183.622920068933,Ni18Fe61Cr20,"# generated using pymatgen
 data_Cr4Fe11Ni3
_symmetry_space_group_name_H-M   'P 1'
_cell_length_a   7.44796076
_cell_length_b   7.44796076
_cell_length_c   10.53300712
_cell_angle_alpha   90.00000000
_cell_angle_beta   90.00000000
_cell_angle_gamma   90.00000000
_symmetry_Int_Tables_number   1
_chemical_formula_structural   Cr4Fe11Ni3
_chemical_formula_sum   'Cr12 Fe33 Ni9'
_cell_volume   584.28822980
_cell_formula_units_Z   3
loop_
 _symmetry_equiv_pos_site_id
 _symmetry_equiv_pos_as_xyz
  1  'x, y, z'
loop_
 _atom_site_type_symbol
 _atom_site_label
 _atom_site_symmetry_multiplicity
 _atom_site_fract_x
 _atom_site_fract_y
 _atom_site_fract_z
 _atom_site_occupancy
  Fe  Fe0  1  1.00012004  0.99965309  0.00251234  1
  Cr  Cr1  1  0.16613047  0.16953376  0.16713715  1
  Fe  Fe2  1  0.00132917  0.00162198  0.33441489  1
  Fe  Fe3  1  1.00060165  0.33635806  0.00397696  1
  Ni  Ni4  1  0.17016040  0.50293733  0.16753891  1
  Fe  Fe5  1  0.00139406  0.33661385  0.33344799  1
  Cr  Cr6  1  1.00037775  0.66863039  1.00111885  1
  Fe  Fe7  1  0.16874957  0.83493930  0.16845750  1
  Fe  Fe8  1  0.00220711  0.66573048  0.33437155  1
  Ni  Ni9  1  0.33459095  0.00215677  0.00152190  1
  Fe  Fe10  1  0.50079171  0.16765065  0.16987161  1
  Fe  Fe11  1  0.33583490  0.00342800  0.33385852  1
  Fe  Fe12  1  0.33587217  0.33652781  0.00359383  1
  Fe  Fe13  1  0.50047099  0.50180098  0.16849919  1
  Ni  Ni14  1  0.33663717  0.33353676  0.33399752  1
  Ni  Ni15  1  0.33495683  0.67097614  0.00309077  1
  Fe  Fe16  1  0.50057537  0.83467562  0.16740694  1
  Fe  Fe17  1  0.33446202  0.66540265  0.33270695  1
  Fe  Fe18  1  0.66608094  0.99846476  0.00302919  1
  Ni  Ni19  1  0.83324879  0.16621693  0.16849059  1
  Fe  Fe20  1  0.66625405  0.00369504  0.33322946  1
  Cr  Cr21  1  0.66622339  0.33450173  0.00279432  1
  Fe  Fe22  1  0.83545991  0.50000371  0.16999070  1
  Ni  Ni23  1  0.66622835  0.33447765  0.33492924  1
  Ni  Ni24  1  0.66798048  0.66802870  0.00303853  1
  Fe  Fe25  1  0.83458018  0.83497191  0.16934713  1
  Fe  Fe26  1  0.66757011  0.66583946  0.33308746  1
  Fe  Fe27  1  0.17157171  0.16869457  0.50002865  1
  Cr  Cr28  1  0.00358214  0.99888310  0.66714610  1
  Cr  Cr29  1  0.16700055  0.16981992  0.83640348  1
  Fe  Fe30  1  0.17046477  0.49917854  0.49977897  1
  Fe  Fe31  1  0.00256741  0.33625721  0.66626398  1
  Cr  Cr32  1  0.16946384  0.50089093  0.83581274  1
  Fe  Fe33  1  0.16877094  0.83536545  0.49830405  1
  Cr  Cr34  1  0.00150621  0.66876744  0.66736884  1
  Fe  Fe35  1  0.17153116  0.83549012  0.83587276  1
  Ni  Ni36  1  0.50177068  0.16677520  0.50166148  1
  Fe  Fe37  1  0.33639166  1.00119210  0.66863160  1
  Fe  Fe38  1  0.49968697  0.16733966  0.83333966  1
  Fe  Fe39  1  0.50081673  0.49823588  0.50070067  1
  Ni  Ni40  1  0.33658289  0.33222102  0.66613171  1
  Cr  Cr41  1  0.49923606  0.50464284  0.83473824  1
  Cr  Cr42  1  0.50133520  0.83288032  0.50058933  1
  Fe  Fe43  1  0.33315928  0.66818925  0.66721276  1
  Fe  Fe44  1  0.50052621  0.83697959  0.83624367  1
  Cr  Cr45  1  0.83467275  0.16822234  0.50049975  1
  Fe  Fe46  1  0.66545908  0.00219213  0.66837467  1
  Cr  Cr47  1  0.83420446  0.16735153  0.83510988  1
  Fe  Fe48  1  0.83311783  0.50125304  0.49875209  1
  Fe  Fe49  1  0.66676170  0.33364800  0.66687808  1
  Fe  Fe50  1  0.83430316  0.50017269  0.83548911  1
  Fe  Fe51  1  0.83396523  0.83441034  0.49782196  1
  Cr  Cr52  1  0.66964042  0.66701092  0.66827564  1
  Fe  Fe53  1  0.83221516  0.83475511  0.83630289  1
" 