6812,Ni18Fe21Cr59_19,-215.542658505611, 172.3048346895,Ni18Fe21Cr59,"# generated using pymatgen
 data_Cr33Fe11Ni10
_symmetry_space_group_name_H-M   'P 1'
_cell_length_a   7.53375522
_cell_length_b   7.53375522
_cell_length_c   10.65433881
_cell_angle_alpha   90.00000000
_cell_angle_beta   90.00000000
_cell_angle_gamma   90.00000000
_symmetry_Int_Tables_number   1
_chemical_formula_structural   Cr33Fe11Ni10
_chemical_formula_sum   'Cr33 Fe11 Ni10'
_cell_volume   604.71329198
_cell_formula_units_Z   1
loop_
 _symmetry_equiv_pos_site_id
 _symmetry_equiv_pos_as_xyz
  1  'x, y, z'
loop_
 _atom_site_type_symbol
 _atom_site_label
 _atom_site_symmetry_multiplicity
 _atom_site_fract_x
 _atom_site_fract_y
 _atom_site_fract_z
 _atom_site_occupancy
  Fe  Fe0  1  -0.00363779  -0.00320394  0.99460458  1
  Fe  Fe1  1  0.16246886  0.16346938  0.16036955  1
  Cr  Cr2  1  -0.00265826  0.99484291  0.32967728  1
  Ni  Ni3  1  0.00148759  0.32754806  0.99540585  1
  Fe  Fe4  1  0.16350712  0.49367897  0.16070797  1
  Cr  Cr5  1  -0.00148759  0.32957943  0.32784285  1
  Cr  Cr6  1  -0.00421333  0.66193593  0.99454779  1
  Cr  Cr7  1  0.16241696  0.82946045  0.16346937  1
  Fe  Fe8  1  -0.00406771  0.66350245  0.32837667  1
  Cr  Cr9  1  0.32779859  -0.00234372  0.99474676  1
  Cr  Cr10  1  0.49180283  0.16212475  0.16253217  1
  Fe  Fe11  1  0.32862712  0.99518549  0.32830672  1
  Ni  Ni12  1  0.32363598  0.32839301  -0.00366441  1
  Fe  Fe13  1  0.49350139  0.49633693  0.16216863  1
  Fe  Fe14  1  0.32959776  0.32945751  0.32827542  1
  Cr  Cr15  1  0.32894120  0.65982163  0.99465240  1
  Ni  Ni16  1  0.49551571  0.82864460  0.16326838  1
  Cr  Cr17  1  0.32923945  0.66147089  0.32913686  1
  Cr  Cr18  1  0.66309398  0.99288397  -0.00420356  1
  Cr  Cr19  1  0.83152867  0.16172115  0.16037436  1
  Cr  Cr20  1  0.66122114  0.99381745  0.32747531  1
  Cr  Cr21  1  0.66080538  0.32911179  0.99474343  1
  Cr  Cr22  1  0.83134505  0.49647506  0.16178475  1
  Cr  Cr23  1  0.66028475  0.33058243  0.33131104  1
  Cr  Cr24  1  0.66188262  0.66480595  -0.00088654  1
  Ni  Ni25  1  0.82880855  0.82839580  0.16195235  1
  Cr  Cr26  1  0.66113230  0.66246291  0.32569518  1
  Cr  Cr27  1  0.16441068  0.16076189  0.49274336  1
  Cr  Cr28  1  -0.00270550  0.99460551  0.66393999  1
  Ni  Ni29  1  0.16355737  0.16509661  0.83196914  1
  Cr  Cr30  1  0.16428174  0.49772167  0.49564268  1
  Cr  Cr31  1  -0.00190271  0.32875229  0.66314028  1
  Ni  Ni32  1  0.16440165  0.49192690  0.82970639  1
  Ni  Ni33  1  0.16358873  0.82788952  0.49558555  1
  Cr  Cr34  1  -0.00155038  0.66337481  0.66233871  1
  Fe  Fe35  1  0.16032233  0.82862435  0.82856553  1
  Cr  Cr36  1  0.49444726  0.16448799  0.49691353  1
  Cr  Cr37  1  0.32687075  -0.00383901  0.66276353  1
  Fe  Fe38  1  0.49219272  0.16477680  0.82853194  1
  Ni  Ni39  1  0.49341595  0.49386833  0.49690849  1
  Ni  Ni40  1  0.32999169  0.33033447  0.66337893  1
  Cr  Cr41  1  0.49223926  0.49367994  0.82719178  1
  Cr  Cr42  1  0.49163828  0.82803542  0.49497046  1
  Fe  Fe43  1  0.32724097  0.65999503  0.66184235  1
  Cr  Cr44  1  0.49465191  0.82903098  0.82877421  1
  Cr  Cr45  1  0.82791040  0.16358516  0.49685686  1
  Cr  Cr46  1  0.66232918  -0.00338809  0.66353545  1
  Cr  Cr47  1  0.83007874  0.16204249  0.82966231  1
  Cr  Cr48  1  0.82774092  0.49502846  0.49628856  1
  Fe  Fe49  1  0.65901500  0.32924343  0.66189667  1
  Cr  Cr50  1  0.83067118  0.49535445  0.82859734  1
  Cr  Cr51  1  0.83158029  0.82809001  0.49387747  1
  Cr  Cr52  1  0.66112932  0.66125361  0.66185758  1
  Ni  Ni53  1  0.83080253  0.83043431  0.83077835  1
" 