3106,Ni18Fe23Cr57_9,-216.354911387917, 176.336530861779,Ni18Fe23Cr57,"# generated using pymatgen
 data_Cr16Fe6Ni5
_symmetry_space_group_name_H-M   'P 1'
_cell_length_a   7.52920025
_cell_length_b   7.52920025
_cell_length_c   10.64789711
_cell_angle_alpha   90.00000000
_cell_angle_beta   90.00000000
_cell_angle_gamma   90.00000000
_symmetry_Int_Tables_number   1
_chemical_formula_structural   Cr16Fe6Ni5
_chemical_formula_sum   'Cr32 Fe12 Ni10'
_cell_volume   603.61711069
_cell_formula_units_Z   2
loop_
 _symmetry_equiv_pos_site_id
 _symmetry_equiv_pos_as_xyz
  1  'x, y, z'
loop_
 _atom_site_type_symbol
 _atom_site_label
 _atom_site_symmetry_multiplicity
 _atom_site_fract_x
 _atom_site_fract_y
 _atom_site_fract_z
 _atom_site_occupancy
  Cr  Cr0  1  0.99359363  0.99406547  -0.00148894  1
  Cr  Cr1  1  0.16260133  0.15950298  0.15960392  1
  Ni  Ni2  1  0.99294337  0.99459026  0.32889654  1
  Cr  Cr3  1  -0.00217565  0.33030686  -0.00224193  1
  Cr  Cr4  1  0.16485311  0.49559752  0.16543521  1
  Cr  Cr5  1  -0.00296457  0.32671703  0.32648447  1
  Cr  Cr6  1  0.99429849  0.66327916  -0.00307268  1
  Ni  Ni7  1  0.16096496  0.83233730  0.16539978  1
  Cr  Cr8  1  0.99508205  0.66513837  0.32808602  1
  Ni  Ni9  1  0.33155639  0.99521147  -0.00226497  1
  Cr  Cr10  1  0.49586943  0.16300630  0.16210594  1
  Fe  Fe11  1  0.32622335  -0.00324181  0.32770252  1
  Ni  Ni12  1  0.33081776  0.32856791  0.99537427  1
  Cr  Cr13  1  0.49638731  0.49530399  0.16366385  1
  Ni  Ni14  1  0.33000813  0.32845821  0.33135051  1
  Cr  Cr15  1  0.32627229  0.66255015  -0.00204088  1
  Cr  Cr16  1  0.49424298  0.82994832  0.16073303  1
  Fe  Fe17  1  0.32725891  0.66354873  0.32908973  1
  Ni  Ni18  1  0.66399387  0.99375856  -0.00291836  1
  Ni  Ni19  1  0.82832954  0.15849970  0.16487301  1
  Cr  Cr20  1  0.66399867  0.99519609  0.33049921  1
  Cr  Cr21  1  0.66464477  0.32665544  -0.00406211  1
  Cr  Cr22  1  0.82620131  0.49487026  0.16093315  1
  Fe  Fe23  1  0.66332489  0.32667213  0.32898711  1
  Fe  Fe24  1  0.66363105  0.66563673  -0.00343349  1
  Ni  Ni25  1  0.83008532  0.83253031  0.16085568  1
  Cr  Cr26  1  0.66444385  0.66705742  0.32543709  1
  Cr  Cr27  1  0.16075521  0.16022969  0.49491073  1
  Fe  Fe28  1  0.99517730  0.99431283  0.66098203  1
  Cr  Cr29  1  0.16230453  0.15965947  0.83395806  1
  Fe  Fe30  1  0.16259187  0.49698506  0.49471298  1
  Cr  Cr31  1  -0.00396339  0.32969280  0.66298013  1
  Cr  Cr32  1  0.16235508  0.49695802  0.82715346  1
  Cr  Cr33  1  0.16122997  0.82994676  0.49571624  1
  Fe  Fe34  1  -0.00411658  0.66444804  0.66149556  1
  Cr  Cr35  1  0.16154231  0.83100450  0.82607036  1
  Fe  Fe36  1  0.49667993  0.16294304  0.49345353  1
  Cr  Cr37  1  0.33266235  -0.00367228  0.66276864  1
  Cr  Cr38  1  0.49640241  0.16170546  0.83189026  1
  Cr  Cr39  1  0.49714917  0.49541167  0.49288782  1
  Cr  Cr40  1  0.32915574  0.32931876  0.66282116  1
  Cr  Cr41  1  0.49819726  0.49732253  0.83130984  1
  Cr  Cr42  1  0.49409852  0.82732559  0.49402237  1
  Ni  Ni43  1  0.32807412  0.66092159  0.65943679  1
  Cr  Cr44  1  0.49527296  0.82931627  0.83281164  1
  Fe  Fe45  1  0.82975972  0.16077896  0.49448882  1
  Cr  Cr46  1  0.66357931  -0.00337245  0.65981536  1
  Cr  Cr47  1  0.83004106  0.16175770  0.82771861  1
  Cr  Cr48  1  0.82771077  0.49514726  0.49652403  1
  Fe  Fe49  1  0.66098271  0.32940356  0.66217799  1
  Fe  Fe50  1  0.82963571  0.49751406  0.82920632  1
  Ni  Ni51  1  0.83148399  0.83051948  0.49799942  1
  Cr  Cr52  1  0.66292991  0.66577514  0.66567901  1
  Fe  Fe53  1  0.82893979  0.82999986  0.83013941  1
" 