8374,Ni18Fe21Cr59_15,-215.357397860045, 171.514383864351,Ni18Fe21Cr59,"# generated using pymatgen
 data_Cr33Fe11Ni10
_symmetry_space_group_name_H-M   'P 1'
_cell_length_a   7.54935762
_cell_length_b   7.54935762
_cell_length_c   10.67640393
_cell_angle_alpha   90.00000000
_cell_angle_beta   90.00000000
_cell_angle_gamma   90.00000000
_symmetry_Int_Tables_number   1
_chemical_formula_structural   Cr33Fe11Ni10
_chemical_formula_sum   'Cr33 Fe11 Ni10'
_cell_volume   608.47815864
_cell_formula_units_Z   1
loop_
 _symmetry_equiv_pos_site_id
 _symmetry_equiv_pos_as_xyz
  1  'x, y, z'
loop_
 _atom_site_type_symbol
 _atom_site_label
 _atom_site_symmetry_multiplicity
 _atom_site_fract_x
 _atom_site_fract_y
 _atom_site_fract_z
 _atom_site_occupancy
  Fe  Fe0  1  0.99453070  0.99306246  0.99367550  1
  Cr  Cr1  1  0.16226357  0.16304462  0.16039819  1
  Cr  Cr2  1  0.99437886  -0.00453689  0.32864504  1
  Fe  Fe3  1  -0.00424921  0.32852590  -0.00445519  1
  Ni  Ni4  1  0.16147533  0.49285509  0.16049387  1
  Fe  Fe5  1  0.99450916  0.32973360  0.32782715  1
  Fe  Fe6  1  -0.00436233  0.66203542  -0.00516426  1
  Cr  Cr7  1  0.16375400  0.82717563  0.16170673  1
  Cr  Cr8  1  -0.00442356  0.65982128  0.32828652  1
  Fe  Fe9  1  0.33089331  0.99274603  -0.00522129  1
  Fe  Fe10  1  0.49414591  0.15685336  0.16128084  1
  Ni  Ni11  1  0.33102177  0.99229273  0.32646221  1
  Fe  Fe12  1  0.32746581  0.32707368  -0.00392988  1
  Cr  Cr13  1  0.49231059  0.49699939  0.16274650  1
  Cr  Cr14  1  0.32734626  0.32873377  0.32646627  1
  Cr  Cr15  1  0.32618364  0.66264081  -0.00478081  1
  Ni  Ni16  1  0.49483411  0.83100345  0.16382742  1
  Ni  Ni17  1  0.32927286  0.66300059  0.32565132  1
  Ni  Ni18  1  0.65964382  0.99453791  -0.00525323  1
  Cr  Cr19  1  0.82751602  0.15944577  0.16030403  1
  Ni  Ni20  1  0.65794455  0.99289980  0.32608709  1
  Cr  Cr21  1  0.66019963  0.32524511  -0.00541752  1
  Cr  Cr22  1  0.83016409  0.49527903  0.16146447  1
  Cr  Cr23  1  0.66275112  0.32756948  0.32863489  1
  Cr  Cr24  1  0.65952032  0.66385653  0.99436437  1
  Cr  Cr25  1  0.82382839  0.82891531  0.16090935  1
  Ni  Ni26  1  0.65935127  0.66279712  0.32856192  1
  Cr  Cr27  1  0.16268879  0.16046120  0.49371836  1
  Cr  Cr28  1  -0.00423447  0.99211216  0.66175351  1
  Cr  Cr29  1  0.16238384  0.15976149  0.82947805  1
  Cr  Cr30  1  0.15994690  0.49466185  0.49247696  1
  Cr  Cr31  1  0.99274169  0.32823127  0.65804976  1
  Cr  Cr32  1  0.16020250  0.49508980  0.83052298  1
  Cr  Cr33  1  0.16360564  0.82857251  0.49426466  1
  Fe  Fe34  1  0.99382862  0.66095274  0.66109773  1
  Ni  Ni35  1  0.16264326  0.82897394  0.82851190  1
  Cr  Cr36  1  0.49348165  0.15785404  0.49450073  1
  Fe  Fe37  1  0.32879257  0.99281201  0.66261838  1
  Cr  Cr38  1  0.49352102  0.15844539  0.82832221  1
  Cr  Cr39  1  0.49645743  0.49747934  0.49426187  1
  Cr  Cr40  1  0.32899403  0.32752104  0.66200178  1
  Cr  Cr41  1  0.49471159  0.49567419  0.82675073  1
  Cr  Cr42  1  0.49523732  0.82828920  0.49239047  1
  Cr  Cr43  1  0.32749154  0.66430730  0.66304147  1
  Ni  Ni44  1  0.49355842  0.83080143  0.82697219  1
  Cr  Cr45  1  0.82752586  0.16139695  0.49321720  1
  Fe  Fe46  1  0.65924126  0.99273040  0.66227829  1
  Cr  Cr47  1  0.82785222  0.15970743  0.82994837  1
  Ni  Ni48  1  0.82763571  0.49599786  0.49443889  1
  Cr  Cr49  1  0.66190735  0.32849920  0.66046308  1
  Cr  Cr50  1  0.82871653  0.49636708  0.82739541  1
  Cr  Cr51  1  0.82479641  0.82554235  0.49450077  1
  Fe  Fe52  1  0.66223404  0.66224226  0.66078539  1
  Cr  Cr53  1  0.82738957  0.82752988  0.82828862  1
" 