2281,Ni18Fe23Cr57_1,-216.108239354848, 171.836830674055,Ni18Fe23Cr57,"# generated using pymatgen
 data_Cr16Fe6Ni5
_symmetry_space_group_name_H-M   'P 1'
_cell_length_a   7.53668191
_cell_length_b   7.53668191
_cell_length_c   10.65847777
_cell_angle_alpha   90.00000000
_cell_angle_beta   90.00000000
_cell_angle_gamma   90.00000000
_symmetry_Int_Tables_number   1
_chemical_formula_structural   Cr16Fe6Ni5
_chemical_formula_sum   'Cr32 Fe12 Ni10'
_cell_volume   605.41831512
_cell_formula_units_Z   2
loop_
 _symmetry_equiv_pos_site_id
 _symmetry_equiv_pos_as_xyz
  1  'x, y, z'
loop_
 _atom_site_type_symbol
 _atom_site_label
 _atom_site_symmetry_multiplicity
 _atom_site_fract_x
 _atom_site_fract_y
 _atom_site_fract_z
 _atom_site_occupancy
  Cr  Cr0  1  0.99472526  0.99302687  0.99285346  1
  Cr  Cr1  1  0.16392086  0.16204812  0.16228055  1
  Cr  Cr2  1  -0.00293244  0.99373195  0.33015056  1
  Cr  Cr3  1  -0.00453630  0.33031319  -0.00332377  1
  Ni  Ni4  1  0.16583817  0.49721699  0.16062770  1
  Cr  Cr5  1  0.99510603  0.33101396  0.32774929  1
  Cr  Cr6  1  -0.00354938  0.66234273  -0.00180422  1
  Fe  Fe7  1  0.16556811  0.82802917  0.16069654  1
  Cr  Cr8  1  0.99509590  0.66141944  0.32538092  1
  Fe  Fe9  1  0.33020130  0.99375962  -0.00309859  1
  Fe  Fe10  1  0.49541743  0.16461422  0.16191768  1
  Fe  Fe11  1  0.32998688  -0.00307129  0.32925860  1
  Cr  Cr12  1  0.33080175  0.33204568  0.99434454  1
  Ni  Ni13  1  0.49620717  0.49618854  0.15994727  1
  Cr  Cr14  1  0.33125530  0.32959964  0.32993020  1
  Ni  Ni15  1  0.33173684  0.66306283  -0.00224199  1
  Fe  Fe16  1  0.49324778  0.82815134  0.16007851  1
  Cr  Cr17  1  0.32952212  0.66148086  0.32559180  1
  Fe  Fe18  1  0.65924680  0.99443727  -0.00337863  1
  Cr  Cr19  1  0.82551804  0.16382056  0.16129840  1
  Cr  Cr20  1  0.65932951  -0.00422971  0.32880214  1
  Ni  Ni21  1  0.65853961  0.32979758  -0.00176921  1
  Fe  Fe22  1  0.82574432  0.49400489  0.16134986  1
  Ni  Ni23  1  0.65867988  0.33009907  0.32774919  1
  Fe  Fe24  1  0.65979032  0.65907372  -0.00392802  1
  Cr  Cr25  1  0.82524908  0.82896948  0.16079331  1
  Cr  Cr26  1  0.66114651  0.65859250  0.32821707  1
  Ni  Ni27  1  0.16492542  0.16317970  0.49475617  1
  Cr  Cr28  1  0.99480269  0.99449676  0.66313190  1
  Cr  Cr29  1  0.16294842  0.16296538  0.82835915  1
  Cr  Cr30  1  0.16156386  0.49713020  0.49776580  1
  Cr  Cr31  1  -0.00386436  0.32780366  0.66179474  1
  Cr  Cr32  1  0.16422529  0.49805920  0.82776993  1
  Cr  Cr33  1  0.16378794  0.82685401  0.49510713  1
  Ni  Ni34  1  0.99381225  0.66255302  0.66247540  1
  Cr  Cr35  1  0.16496982  0.82544979  0.82761804  1
  Ni  Ni36  1  0.49489482  0.16387286  0.49216006  1
  Cr  Cr37  1  0.32964832  -0.00226519  0.65947910  1
  Cr  Cr38  1  0.49682664  0.16204859  0.83191414  1
  Fe  Fe39  1  0.49631122  0.49542486  0.49501292  1
  Cr  Cr40  1  0.33172192  0.32940603  0.66173343  1
  Fe  Fe41  1  0.49625402  0.49740167  0.83012354  1
  Cr  Cr42  1  0.49499808  0.82673153  0.49555021  1
  Ni  Ni43  1  0.33155844  0.66041428  0.66248821  1
  Cr  Cr44  1  0.49620924  0.82537379  0.82994622  1
  Cr  Cr45  1  0.82763551  0.16444718  0.49363219  1
  Cr  Cr46  1  0.66185565  0.99470071  0.66319020  1
  Cr  Cr47  1  0.82623346  0.16296876  0.83160754  1
  Fe  Fe48  1  0.82684650  0.49563185  0.49611434  1
  Cr  Cr49  1  0.65836291  0.32968516  0.66023194  1
  Cr  Cr50  1  0.82671266  0.49595086  0.82907530  1
  Cr  Cr51  1  0.82759063  0.82497756  0.49855469  1
  Ni  Ni52  1  0.66082774  0.66001501  0.66324878  1
  Fe  Fe53  1  0.82802069  0.82572019  0.82822240  1
" 