4803,Ni18Fe61Cr20_16,-226.927337240989, 185.26360069105,Ni18Fe61Cr20,"# generated using pymatgen
 data_Cr4Fe11Ni3
_symmetry_space_group_name_H-M   'P 1'
_cell_length_a   7.45199133
_cell_length_b   7.45199133
_cell_length_c   10.53870720
_cell_angle_alpha   90.00000000
_cell_angle_beta   90.00000000
_cell_angle_gamma   90.00000000
_symmetry_Int_Tables_number   1
_chemical_formula_structural   Cr4Fe11Ni3
_chemical_formula_sum   'Cr12 Fe33 Ni9'
_cell_volume   585.23732938
_cell_formula_units_Z   3
loop_
 _symmetry_equiv_pos_site_id
 _symmetry_equiv_pos_as_xyz
  1  'x, y, z'
loop_
 _atom_site_type_symbol
 _atom_site_label
 _atom_site_symmetry_multiplicity
 _atom_site_fract_x
 _atom_site_fract_y
 _atom_site_fract_z
 _atom_site_occupancy
  Fe  Fe0  1  0.00248020  0.00435370  0.00333586  1
  Ni  Ni1  1  0.16655655  0.16603661  0.16725338  1
  Ni  Ni2  1  0.99931557  0.00107978  0.33536864  1
  Ni  Ni3  1  0.00123367  0.33515288  0.00326018  1
  Fe  Fe4  1  0.16545011  0.49777064  0.16691961  1
  Fe  Fe5  1  0.99905518  0.32948736  0.33599944  1
  Fe  Fe6  1  0.99990708  0.66588245  0.00212011  1
  Fe  Fe7  1  0.16857103  0.83797881  0.16882527  1
  Cr  Cr8  1  0.00342701  0.66443941  0.33434791  1
  Fe  Fe9  1  0.33206895  0.00476324  0.00106230  1
  Fe  Fe10  1  0.50162869  0.16634523  0.17004944  1
  Fe  Fe11  1  0.33206907  0.00106835  0.33597653  1
  Fe  Fe12  1  0.33365033  0.33183259  0.00214023  1
  Cr  Cr13  1  0.50368420  0.50193123  0.17204552  1
  Cr  Cr14  1  0.33076982  0.33514653  0.33650121  1
  Cr  Cr15  1  0.33452667  0.67006524  0.00375881  1
  Fe  Fe16  1  0.49961877  0.83870431  0.17112795  1
  Fe  Fe17  1  0.33544080  0.67262609  0.33614166  1
  Cr  Cr18  1  0.66484842  0.99998676  0.00107070  1
  Ni  Ni19  1  0.83658523  0.16755323  0.17098976  1
  Ni  Ni20  1  0.66702310  0.00161058  0.33586450  1
  Fe  Fe21  1  0.67015356  0.33399375  0.00250707  1
  Fe  Fe22  1  0.83635178  0.49672892  0.16886195  1
  Fe  Fe23  1  0.67071841  0.33195831  0.33654896  1
  Fe  Fe24  1  0.67009843  0.66473369  0.00103784  1
  Cr  Cr25  1  0.83488440  0.83440642  0.16759749  1
  Fe  Fe26  1  0.66829033  0.67029229  0.33733163  1
  Ni  Ni27  1  0.16808149  0.16385816  0.50111896  1
  Fe  Fe28  1  0.00475918  1.00089481  0.66293532  1
  Fe  Fe29  1  0.16852662  0.16931775  0.83558739  1
  Fe  Fe30  1  0.16686437  0.50168426  0.50074019  1
  Cr  Cr31  1  1.00015374  0.33604749  0.66384837  1
  Fe  Fe32  1  0.16462360  0.50232880  0.83528429  1
  Fe  Fe33  1  0.16799014  0.83525520  0.50183730  1
  Fe  Fe34  1  0.00290670  0.66791300  0.66328119  1
  Cr  Cr35  1  0.16677401  0.83755112  0.83247809  1
  Fe  Fe36  1  0.50159304  0.16667022  0.50080390  1
  Ni  Ni37  1  0.33729877  0.99973175  0.66768529  1
  Fe  Fe38  1  0.50024818  0.16472777  0.83370429  1
  Fe  Fe39  1  0.50028575  0.50149005  0.50061927  1
  Cr  Cr40  1  0.33169606  0.33377199  0.66886095  1
  Cr  Cr41  1  0.50208630  0.49969558  0.83260639  1
  Fe  Fe42  1  0.50062261  0.83556177  0.50076140  1
  Ni  Ni43  1  0.33423051  0.66908691  0.66448421  1
  Fe  Fe44  1  0.50078952  0.83451956  0.83137333  1
  Fe  Fe45  1  0.83426292  0.16677180  0.49888948  1
  Fe  Fe46  1  0.66580400  0.00105543  0.66463367  1
  Cr  Cr47  1  0.83660602  0.16727466  0.83123201  1
  Ni  Ni48  1  0.83010747  0.50205360  0.50022531  1
  Fe  Fe49  1  0.66574341  0.33383935  0.66456333  1
  Fe  Fe50  1  0.83664526  0.50081986  0.83362180  1
  Fe  Fe51  1  0.83477814  0.83610229  0.50063686  1
  Fe  Fe52  1  0.66653132  0.66777306  0.66425104  1
  Cr  Cr53  1  0.83613533  0.83282716  0.83044425  1
" 