7984,Ni18Fe21Cr59_14,-215.307937336869, 168.602013162055,Ni18Fe21Cr59,"# generated using pymatgen
 data_Cr33Fe11Ni10
_symmetry_space_group_name_H-M   'P 1'
_cell_length_a   7.53844183
_cell_length_b   7.53844183
_cell_length_c   10.66096668
_cell_angle_alpha   90.00000000
_cell_angle_beta   90.00000000
_cell_angle_gamma   90.00000000
_symmetry_Int_Tables_number   1
_chemical_formula_structural   Cr33Fe11Ni10
_chemical_formula_sum   'Cr33 Fe11 Ni10'
_cell_volume   605.84253608
_cell_formula_units_Z   1
loop_
 _symmetry_equiv_pos_site_id
 _symmetry_equiv_pos_as_xyz
  1  'x, y, z'
loop_
 _atom_site_type_symbol
 _atom_site_label
 _atom_site_symmetry_multiplicity
 _atom_site_fract_x
 _atom_site_fract_y
 _atom_site_fract_z
 _atom_site_occupancy
  Fe  Fe0  1  0.99523149  -0.00332919  0.99394041  1
  Cr  Cr1  1  0.16089983  0.16113360  0.16387195  1
  Ni  Ni2  1  -0.00468516  -0.00259650  0.32991811  1
  Cr  Cr3  1  0.99511560  0.32926628  0.99469639  1
  Fe  Fe4  1  0.16095533  0.49429179  0.16432885  1
  Ni  Ni5  1  0.99450664  0.32865212  0.32849069  1
  Cr  Cr6  1  -0.00388653  0.65889043  -0.00432114  1
  Cr  Cr7  1  0.16066829  0.82927663  0.16231773  1
  Cr  Cr8  1  -0.00461523  0.65914709  0.32999852  1
  Cr  Cr9  1  0.32818133  0.99493840  0.99246988  1
  Cr  Cr10  1  0.49426356  0.16571362  0.16431777  1
  Cr  Cr11  1  0.32876159  0.99424180  0.33026634  1
  Cr  Cr12  1  0.32551944  0.32856594  0.99498182  1
  Cr  Cr13  1  0.49493062  0.49269273  0.16235265  1
  Ni  Ni14  1  0.32592884  0.33242847  0.32870138  1
  Fe  Fe15  1  0.32760044  0.66048749  0.99472815  1
  Cr  Cr16  1  0.49195079  0.82683390  0.16152624  1
  Ni  Ni17  1  0.32508077  0.65898756  0.32882412  1
  Cr  Cr18  1  0.66115763  -0.00426606  0.99514463  1
  Cr  Cr19  1  0.83024578  0.16323462  0.16213714  1
  Cr  Cr20  1  0.66349054  -0.00432098  0.33012682  1
  Ni  Ni21  1  0.66358111  0.32852592  0.99468656  1
  Ni  Ni22  1  0.82913703  0.49167604  0.16212221  1
  Ni  Ni23  1  0.66503966  0.32883631  0.32884302  1
  Cr  Cr24  1  0.66271429  0.66125072  -0.00158076  1
  Cr  Cr25  1  0.83315866  0.82897971  0.16289427  1
  Cr  Cr26  1  0.66228807  0.66120800  0.32606766  1
  Cr  Cr27  1  0.16045383  0.16151995  0.49157405  1
  Cr  Cr28  1  -0.00375038  -0.00283126  0.66207484  1
  Fe  Fe29  1  0.15957240  0.16135272  0.82897654  1
  Fe  Fe30  1  0.16116723  0.49582705  0.49405082  1
  Cr  Cr31  1  -0.00384176  0.33007135  0.66228770  1
  Fe  Fe32  1  0.16106356  0.49725134  0.82818550  1
  Ni  Ni33  1  0.16038948  0.82670147  0.49561578  1
  Ni  Ni34  1  -0.00247648  0.66184068  0.66166551  1
  Fe  Fe35  1  0.16184315  0.82691093  0.82816604  1
  Cr  Cr36  1  0.49665620  0.16580983  0.49448126  1
  Cr  Cr37  1  0.32982830  -0.00442028  0.66225556  1
  Cr  Cr38  1  0.49631672  0.16428498  0.82692104  1
  Cr  Cr39  1  0.49407925  0.49350319  0.49400752  1
  Cr  Cr40  1  0.32499855  0.32828116  0.66140743  1
  Cr  Cr41  1  0.49551745  0.49477383  0.82913560  1
  Cr  Cr42  1  0.49318076  0.82674270  0.49555707  1
  Cr  Cr43  1  0.32608777  0.66170224  0.66228554  1
  Fe  Fe44  1  0.49588838  0.82754043  0.82868490  1
  Ni  Ni45  1  0.82993971  0.16398406  0.49548361  1
  Fe  Fe46  1  0.66389735  -0.00261101  0.66126991  1
  Fe  Fe47  1  0.82797414  0.16273587  0.82842882  1
  Cr  Cr48  1  0.82870319  0.49365983  0.49651114  1
  Fe  Fe49  1  0.66365170  0.32678124  0.66138513  1
  Cr  Cr50  1  0.82743501  0.49537698  0.82721094  1
  Cr  Cr51  1  0.83361525  0.82986901  0.49552870  1
  Cr  Cr52  1  0.66284464  0.66407401  0.66118042  1
  Cr  Cr53  1  0.83203567  0.82881273  0.82810865  1
" 