2011,Ni18Fe23Cr57_4,-215.99028494189, 173.279059653547,Ni18Fe23Cr57,"# generated using pymatgen
 data_Cr16Fe6Ni5
_symmetry_space_group_name_H-M   'P 1'
_cell_length_a   7.53308380
_cell_length_b   7.53308380
_cell_length_c   10.65338927
_cell_angle_alpha   90.00000000
_cell_angle_beta   90.00000000
_cell_angle_gamma   90.00000000
_symmetry_Int_Tables_number   1
_chemical_formula_structural   Cr16Fe6Ni5
_chemical_formula_sum   'Cr32 Fe12 Ni10'
_cell_volume   604.55162539
_cell_formula_units_Z   2
loop_
 _symmetry_equiv_pos_site_id
 _symmetry_equiv_pos_as_xyz
  1  'x, y, z'
loop_
 _atom_site_type_symbol
 _atom_site_label
 _atom_site_symmetry_multiplicity
 _atom_site_fract_x
 _atom_site_fract_y
 _atom_site_fract_z
 _atom_site_occupancy
  Ni  Ni0  1  0.99517879  -0.00390713  0.99394366  1
  Cr  Cr1  1  0.16197940  0.16152730  0.15993732  1
  Cr  Cr2  1  0.99548851  -0.00378296  0.33055465  1
  Ni  Ni3  1  0.99311376  0.33037652  -0.00342097  1
  Fe  Fe4  1  0.16164138  0.49363231  0.16058471  1
  Cr  Cr5  1  0.99546868  0.33135714  0.33124524  1
  Cr  Cr6  1  0.99536623  0.66134067  -0.00270570  1
  Fe  Fe7  1  0.16113372  0.82941669  0.16186480  1
  Cr  Cr8  1  -0.00185131  0.65901626  0.32533620  1
  Cr  Cr9  1  0.32992376  0.99466979  -0.00231742  1
  Fe  Fe10  1  0.49749668  0.16436390  0.16201488  1
  Fe  Fe11  1  0.33039621  -0.00406427  0.32881479  1
  Fe  Fe12  1  0.32892059  0.33000772  -0.00203605  1
  Ni  Ni13  1  0.49615295  0.49391514  0.15984894  1
  Cr  Cr14  1  0.32845543  0.33026692  0.32794885  1
  Cr  Cr15  1  0.32878146  0.66238714  -0.00224500  1
  Cr  Cr16  1  0.49625108  0.82880073  0.16568088  1
  Cr  Cr17  1  0.32719979  0.66260736  0.32815073  1
  Cr  Cr18  1  0.66166356  -0.00324607  0.99448680  1
  Cr  Cr19  1  0.83028570  0.16231876  0.16271925  1
  Ni  Ni20  1  0.65918056  -0.00357156  0.33050295  1
  Ni  Ni21  1  0.66315897  0.33167196  -0.00223244  1
  Ni  Ni22  1  0.82722305  0.49406092  0.15915818  1
  Cr  Cr23  1  0.66312962  0.32715845  0.32726992  1
  Fe  Fe24  1  0.66406792  0.66026236  0.99548256  1
  Cr  Cr25  1  0.82965221  0.82928857  0.16219540  1
  Cr  Cr26  1  0.66153376  0.66160289  0.32811539  1
  Fe  Fe27  1  0.16266818  0.16219780  0.49609111  1
  Fe  Fe28  1  0.99448186  0.99423502  0.66252071  1
  Cr  Cr29  1  0.16121090  0.16353241  0.82940977  1
  Fe  Fe30  1  0.16455867  0.49641417  0.49712556  1
  Cr  Cr31  1  -0.00412464  0.32775339  0.65846564  1
  Cr  Cr32  1  0.16486203  0.49309096  0.82795855  1
  Cr  Cr33  1  0.16322145  0.82947564  0.49498470  1
  Cr  Cr34  1  0.99554552  0.66126994  0.66340626  1
  Cr  Cr35  1  0.15989241  0.83023404  0.82995010  1
  Cr  Cr36  1  0.49458190  0.16212317  0.49320930  1
  Cr  Cr37  1  0.32980481  0.99531705  0.66216336  1
  Cr  Cr38  1  0.49359519  0.16696589  0.83251405  1
  Cr  Cr39  1  0.49487007  0.49863800  0.49908150  1
  Fe  Fe40  1  0.32887795  0.33015750  0.66090489  1
  Cr  Cr41  1  0.49660391  0.49573877  0.82784865  1
  Ni  Ni42  1  0.49485410  0.82922926  0.49562720  1
  Ni  Ni43  1  0.32942523  0.66265774  0.66008056  1
  Cr  Cr44  1  0.49740143  0.82481729  0.82638755  1
  Fe  Fe45  1  0.82828733  0.16012796  0.49503726  1
  Cr  Cr46  1  0.66231100  0.99549262  0.66217257  1
  Cr  Cr47  1  0.83182830  0.16169063  0.83036210  1
  Cr  Cr48  1  0.82755642  0.49683951  0.49525993  1
  Cr  Cr49  1  0.66418728  0.32767995  0.66245351  1
  Fe  Fe50  1  0.82823651  0.49642129  0.83092861  1
  Cr  Cr51  1  0.82655834  0.82901614  0.49543905  1
  Ni  Ni52  1  0.66157179  0.66339791  0.66407399  1
  Ni  Ni53  1  0.82945336  0.82732220  0.82895879  1
" 