7841,Ni18Fe80Cr1_5,-231.210852891613, 178.813445632395,Ni18Fe80Cr1,"# generated using pymatgen
 data_CrFe43Ni10
_symmetry_space_group_name_H-M   'P 1'
_cell_length_a   7.40280658
_cell_length_b   7.40280658
_cell_length_c   10.46914947
_cell_angle_alpha   90.00000000
_cell_angle_beta   90.00000000
_cell_angle_gamma   90.00000000
_symmetry_Int_Tables_number   1
_chemical_formula_structural   CrFe43Ni10
_chemical_formula_sum   'Cr1 Fe43 Ni10'
_cell_volume   573.72556835
_cell_formula_units_Z   1
loop_
 _symmetry_equiv_pos_site_id
 _symmetry_equiv_pos_as_xyz
  1  'x, y, z'
loop_
 _atom_site_type_symbol
 _atom_site_label
 _atom_site_symmetry_multiplicity
 _atom_site_fract_x
 _atom_site_fract_y
 _atom_site_fract_z
 _atom_site_occupancy
  Fe  Fe0  1  1.00356634  1.00348839  0.00511428  1
  Fe  Fe1  1  0.17122245  0.17044934  0.17132993  1
  Ni  Ni2  1  0.00510088  1.00401234  0.33801902  1
  Fe  Fe3  1  1.00326362  0.33789223  1.00422406  1
  Fe  Fe4  1  0.17163590  0.50418321  0.17096265  1
  Fe  Fe5  1  0.00552693  0.33730725  0.33825822  1
  Fe  Fe6  1  1.00363820  0.67163443  0.00448004  1
  Ni  Ni7  1  0.17079591  0.83703621  0.17074954  1
  Fe  Fe8  1  1.00427435  0.67115599  0.33759523  1
  Fe  Fe9  1  0.33888567  1.00407197  1.00399649  1
  Ni  Ni10  1  0.50396560  0.17009850  0.17044599  1
  Fe  Fe11  1  0.33759154  1.00425622  0.33793610  1
  Fe  Fe12  1  0.33918493  0.33730484  0.00436940  1
  Fe  Fe13  1  0.50307279  0.50545842  0.16993608  1
  Fe  Fe14  1  0.33570753  0.33704465  0.33723255  1
  Fe  Fe15  1  0.33822368  0.67163794  0.00462942  1
  Fe  Fe16  1  0.50437018  0.83796028  0.17108635  1
  Fe  Fe17  1  0.33725253  0.67171415  0.33767188  1
  Ni  Ni18  1  0.67081757  1.00412963  0.00482013  1
  Fe  Fe19  1  0.83872174  0.16915738  0.17071415  1
  Fe  Fe20  1  0.67122987  1.00300929  0.33741206  1
  Fe  Fe21  1  0.67056855  0.33722823  0.00455073  1
  Fe  Fe22  1  0.83830653  0.50548316  0.17034517  1
  Cr  Cr23  1  0.67083718  0.33799310  0.33737975  1
  Ni  Ni24  1  0.67083065  0.67087994  0.00482324  1
  Fe  Fe25  1  0.83744971  0.83837514  0.17059943  1
  Fe  Fe26  1  0.67149098  0.67304104  0.33777761  1
  Fe  Fe27  1  0.17042823  0.17067476  0.50438168  1
  Fe  Fe28  1  0.00470903  0.00455129  0.67030730  1
  Fe  Fe29  1  0.17166386  0.17093211  0.83730654  1
  Fe  Fe30  1  0.17057743  0.50423122  0.50437999  1
  Fe  Fe31  1  0.00435650  0.33733770  0.67054016  1
  Fe  Fe32  1  0.17149014  0.50370738  0.83767454  1
  Fe  Fe33  1  0.17047877  0.83811012  0.50385761  1
  Fe  Fe34  1  0.00475506  0.67112842  0.67094179  1
  Fe  Fe35  1  0.17163317  0.83837752  0.83786258  1
  Fe  Fe36  1  0.50418950  0.17005400  0.50548290  1
  Ni  Ni37  1  0.33737105  0.00446338  0.67088489  1
  Ni  Ni38  1  0.50451437  0.17073071  0.83711910  1
  Fe  Fe39  1  0.50448480  0.50529594  0.50511638  1
  Fe  Fe40  1  0.33785352  0.33701364  0.67141303  1
  Fe  Fe41  1  0.50448562  0.50411941  0.83796595  1
  Ni  Ni42  1  0.50362020  0.83802830  0.50386178  1
  Fe  Fe43  1  0.33774085  0.67174313  0.67071194  1
  Fe  Fe44  1  0.50463492  0.83825828  0.83725959  1
  Ni  Ni45  1  0.83863836  0.17141342  0.50543637  1
  Fe  Fe46  1  0.67019493  0.00466265  0.67130823  1
  Fe  Fe47  1  0.83716121  0.17078213  0.83740957  1
  Ni  Ni48  1  0.83932995  0.50427781  0.50535093  1
  Fe  Fe49  1  0.67081155  0.33697161  0.67050240  1
  Fe  Fe50  1  0.83704050  0.50415014  0.83740651  1
  Fe  Fe51  1  0.83733822  0.83781900  0.50408737  1
  Fe  Fe52  1  0.67052181  0.67138370  0.67094048  1
  Fe  Fe53  1  0.83674871  0.83808302  0.83833496  1
" 