8707,Ni18Fe61Cr20_8,-226.919366583922, 175.734420271106,Ni18Fe61Cr20,"# generated using pymatgen
 data_Cr4Fe11Ni3
_symmetry_space_group_name_H-M   'P 1'
_cell_length_a   7.45620037
_cell_length_b   7.45620037
_cell_length_c   10.54465969
_cell_angle_alpha   90.00000000
_cell_angle_beta   90.00000000
_cell_angle_gamma   90.00000000
_symmetry_Int_Tables_number   1
_chemical_formula_structural   Cr4Fe11Ni3
_chemical_formula_sum   'Cr12 Fe33 Ni9'
_cell_volume   586.22955350
_cell_formula_units_Z   3
loop_
 _symmetry_equiv_pos_site_id
 _symmetry_equiv_pos_as_xyz
  1  'x, y, z'
loop_
 _atom_site_type_symbol
 _atom_site_label
 _atom_site_symmetry_multiplicity
 _atom_site_fract_x
 _atom_site_fract_y
 _atom_site_fract_z
 _atom_site_occupancy
  Fe  Fe0  1  1.00069622  0.99980260  0.00133373  1
  Cr  Cr1  1  0.16747384  0.16819976  0.16713768  1
  Fe  Fe2  1  0.00140877  0.00079061  0.33309083  1
  Fe  Fe3  1  0.99972982  0.33504169  0.00226464  1
  Fe  Fe4  1  0.16956047  0.50071338  0.16901783  1
  Ni  Ni5  1  0.00132275  0.33621221  0.33427853  1
  Cr  Cr6  1  0.00259709  0.66720102  0.00272143  1
  Ni  Ni7  1  0.16678390  0.83253437  0.16781438  1
  Fe  Fe8  1  0.00133865  0.66570438  0.33230539  1
  Fe  Fe9  1  0.33341521  0.99940023  0.00207769  1
  Ni  Ni10  1  0.50183211  0.16998736  0.16777040  1
  Fe  Fe11  1  0.33394287  0.00211502  0.33344168  1
  Fe  Fe12  1  0.33504070  0.33612879  0.00084411  1
  Fe  Fe13  1  0.49963602  0.49957168  0.16703013  1
  Fe  Fe14  1  0.33451153  0.33446604  0.33513908  1
  Fe  Fe15  1  0.33473332  0.66650052  1.00053409  1
  Cr  Cr16  1  0.49966091  0.83296828  0.16747830  1
  Fe  Fe17  1  0.33276470  0.66541936  0.33426055  1
  Ni  Ni18  1  0.66709435  0.00147426  0.00399554  1
  Fe  Fe19  1  0.83336650  0.16722159  0.16815712  1
  Fe  Fe20  1  0.66703696  0.00274952  0.33293699  1
  Fe  Fe21  1  0.66749207  0.33612422  0.00274917  1
  Fe  Fe22  1  0.83322185  0.49980717  0.16844967  1
  Fe  Fe23  1  0.66713379  0.33488363  0.33346118  1
  Ni  Ni24  1  0.66747682  0.66623452  0.00075061  1
  Fe  Fe25  1  0.83403284  0.83562828  0.16775342  1
  Fe  Fe26  1  0.66794780  0.66467497  0.33305489  1
  Fe  Fe27  1  0.16820392  0.16885171  0.50048007  1
  Ni  Ni28  1  0.00354712  1.00045235  0.66839597  1
  Fe  Fe29  1  0.16798220  0.16751299  0.83385072  1
  Fe  Fe30  1  0.16672980  0.49933716  0.50101619  1
  Fe  Fe31  1  0.00418138  0.33567104  0.66681614  1
  Fe  Fe32  1  0.16840857  0.49990361  0.83279172  1
  Cr  Cr33  1  0.16806562  0.83292476  0.50091169  1
  Ni  Ni34  1  0.00265021  0.66575470  0.66734416  1
  Fe  Fe35  1  0.16771391  0.83459356  0.83307518  1
  Fe  Fe36  1  0.49739557  0.16751861  0.49861551  1
  Fe  Fe37  1  0.33149559  0.00159078  0.66680754  1
  Cr  Cr38  1  0.49897773  0.16815087  0.83608408  1
  Fe  Fe39  1  0.49910706  0.50246723  0.50039850  1
  Ni  Ni40  1  0.33265749  0.33509920  0.66572563  1
  Fe  Fe41  1  0.49963988  0.50107418  0.83442588  1
  Fe  Fe42  1  0.49962654  0.83217532  0.49976402  1
  Ni  Ni43  1  0.33265855  0.66502056  0.66767267  1
  Cr  Cr44  1  0.49912992  0.83185268  0.83308576  1
  Cr  Cr45  1  0.83690750  0.16932102  0.49998984  1
  Cr  Cr46  1  0.66600520  0.00113035  0.66501922  1
  Cr  Cr47  1  0.83621448  0.16904328  0.83596795  1
  Fe  Fe48  1  0.83602856  0.50180218  0.49970288  1
  Cr  Cr49  1  0.66591733  0.33519172  0.66683802  1
  Fe  Fe50  1  0.83390593  0.50162590  0.83438339  1
  Cr  Cr51  1  0.83451320  0.83177715  0.50059196  1
  Fe  Fe52  1  0.66648931  0.66476722  0.66691559  1
  Cr  Cr53  1  0.83387500  0.83311385  0.83276012  1
" 