1871,Ni18Fe80Cr1_15,-231.280761634831, 173.924345868221,Ni18Fe80Cr1,"# generated using pymatgen
 data_CrFe43Ni10
_symmetry_space_group_name_H-M   'P 1'
_cell_length_a   7.40436200
_cell_length_b   7.40436200
_cell_length_c   10.47134916
_cell_angle_alpha   90.00000000
_cell_angle_beta   90.00000000
_cell_angle_gamma   90.00000000
_symmetry_Int_Tables_number   1
_chemical_formula_structural   CrFe43Ni10
_chemical_formula_sum   'Cr1 Fe43 Ni10'
_cell_volume   574.08728411
_cell_formula_units_Z   1
loop_
 _symmetry_equiv_pos_site_id
 _symmetry_equiv_pos_as_xyz
  1  'x, y, z'
loop_
 _atom_site_type_symbol
 _atom_site_label
 _atom_site_symmetry_multiplicity
 _atom_site_fract_x
 _atom_site_fract_y
 _atom_site_fract_z
 _atom_site_occupancy
  Fe  Fe0  1  0.00458011  1.00407325  0.00501220  1
  Fe  Fe1  1  0.17066529  0.16851752  0.17090227  1
  Ni  Ni2  1  1.00399647  1.00405552  0.33641914  1
  Fe  Fe3  1  1.00295838  0.33691721  1.00295956  1
  Cr  Cr4  1  0.16998113  0.50591845  0.17196982  1
  Fe  Fe5  1  1.00339111  0.33742783  0.33861365  1
  Fe  Fe6  1  1.00326702  0.67171370  1.00385734  1
  Ni  Ni7  1  0.17134692  0.83932561  0.17069967  1
  Ni  Ni8  1  1.00392582  0.67292072  0.33845591  1
  Fe  Fe9  1  0.33737546  1.00407411  0.00449544  1
  Fe  Fe10  1  0.50357335  0.17069029  0.17074924  1
  Fe  Fe11  1  0.33607718  1.00278065  0.33738153  1
  Fe  Fe12  1  0.33852698  0.33645304  1.00283652  1
  Fe  Fe13  1  0.50510273  0.50490490  0.17105822  1
  Fe  Fe14  1  0.33758351  0.33698935  0.33881559  1
  Fe  Fe15  1  0.33821766  0.67217812  1.00373428  1
  Fe  Fe16  1  0.50338792  0.83710383  0.17090251  1
  Ni  Ni17  1  0.33809138  0.67131810  0.33822535  1
  Fe  Fe18  1  0.67074431  0.00438515  0.00423396  1
  Fe  Fe19  1  0.83845905  0.17022636  0.17105788  1
  Fe  Fe20  1  0.67128778  1.00343878  0.33741226  1
  Fe  Fe21  1  0.67121175  0.33776075  1.00419198  1
  Fe  Fe22  1  0.83645852  0.50490880  0.17098219  1
  Fe  Fe23  1  0.67172117  0.33826994  0.33760913  1
  Fe  Fe24  1  0.67121260  0.67055246  1.00336605  1
  Fe  Fe25  1  0.83865179  0.83757015  0.17121300  1
  Fe  Fe26  1  0.67172503  0.67098948  0.33820256  1
  Fe  Fe27  1  0.17030658  0.17105196  0.50435343  1
  Fe  Fe28  1  0.00513609  1.00355942  0.67022754  1
  Fe  Fe29  1  0.17054272  0.17183267  0.83743915  1
  Fe  Fe30  1  0.17105475  0.50502619  0.50401313  1
  Fe  Fe31  1  1.00415150  0.33906660  0.67113118  1
  Fe  Fe32  1  0.17097317  0.50400606  0.83747593  1
  Ni  Ni33  1  0.17175684  0.83763087  0.50401726  1
  Fe  Fe34  1  0.00443061  0.67007057  0.67030437  1
  Fe  Fe35  1  0.17054429  0.83685802  0.83751817  1
  Fe  Fe36  1  0.50407522  0.17120985  0.50446912  1
  Fe  Fe37  1  0.33791940  1.00355747  0.67082012  1
  Fe  Fe38  1  0.50451251  0.17164455  0.83748182  1
  Fe  Fe39  1  0.50360802  0.50513943  0.50467308  1
  Ni  Ni40  1  0.33753444  0.33808252  0.67127054  1
  Fe  Fe41  1  0.50436054  0.50446989  0.83697245  1
  Fe  Fe42  1  0.50419719  0.83634713  0.50462882  1
  Ni  Ni43  1  0.33840204  0.66979827  0.67148282  1
  Fe  Fe44  1  0.50497785  0.83658433  0.83717084  1
  Fe  Fe45  1  0.83831386  0.17045914  0.50384507  1
  Fe  Fe46  1  0.66964578  1.00384038  0.67105259  1
  Fe  Fe47  1  0.83764275  0.17120921  0.83779144  1
  Ni  Ni48  1  0.83730180  0.50375447  0.50360196  1
  Fe  Fe49  1  0.67039077  0.33902690  0.67089793  1
  Ni  Ni50  1  0.83732864  0.50378292  0.83819581  1
  Fe  Fe51  1  0.83819903  0.83709496  0.50400370  1
  Ni  Ni52  1  0.67057809  0.67100240  0.67090889  1
  Fe  Fe53  1  0.83717812  0.83701277  0.83747863  1
" 