2248,Ni18Fe80Cr1_8,-231.483013055153, 177.482536409671,Ni18Fe80Cr1,"# generated using pymatgen
 data_CrFe43Ni10
_symmetry_space_group_name_H-M   'P 1'
_cell_length_a   7.40745606
_cell_length_b   7.40745606
_cell_length_c   10.47572483
_cell_angle_alpha   90.00000000
_cell_angle_beta   90.00000000
_cell_angle_gamma   90.00000000
_symmetry_Int_Tables_number   1
_chemical_formula_structural   CrFe43Ni10
_chemical_formula_sum   'Cr1 Fe43 Ni10'
_cell_volume   574.80726710
_cell_formula_units_Z   1
loop_
 _symmetry_equiv_pos_site_id
 _symmetry_equiv_pos_as_xyz
  1  'x, y, z'
loop_
 _atom_site_type_symbol
 _atom_site_label
 _atom_site_symmetry_multiplicity
 _atom_site_fract_x
 _atom_site_fract_y
 _atom_site_fract_z
 _atom_site_occupancy
  Fe  Fe0  1  1.00338811  0.00648541  0.00449728  1
  Fe  Fe1  1  0.17185324  0.17034879  0.17150814  1
  Ni  Ni2  1  0.00406172  1.00259614  0.33652706  1
  Fe  Fe3  1  1.00342556  0.33553812  0.00402499  1
  Fe  Fe4  1  0.17322415  0.50370192  0.17207419  1
  Fe  Fe5  1  0.00572913  0.33679268  0.33731623  1
  Cr  Cr6  1  0.00421793  0.67186697  0.00532948  1
  Fe  Fe7  1  0.17288622  0.83801585  0.17233184  1
  Fe  Fe8  1  0.00564305  0.67119800  0.33727896  1
  Fe  Fe9  1  0.33818344  0.00425613  0.00432768  1
  Fe  Fe10  1  0.50384443  0.17102921  0.17022812  1
  Ni  Ni11  1  0.33640302  1.00366320  0.33749776  1
  Fe  Fe12  1  0.33797883  0.33759447  1.00385727  1
  Ni  Ni13  1  0.50382304  0.50507694  0.17034326  1
  Ni  Ni14  1  0.33852190  0.33774685  0.33686998  1
  Fe  Fe15  1  0.34024131  0.67021700  0.00508615  1
  Ni  Ni16  1  0.50380431  0.83629570  0.17046093  1
  Ni  Ni17  1  0.33706250  0.67065830  0.33679002  1
  Fe  Fe18  1  0.67049531  0.00421501  1.00385586  1
  Fe  Fe19  1  0.83636631  0.17068928  0.17057226  1
  Fe  Fe20  1  0.66939993  1.00360530  0.33718313  1
  Ni  Ni21  1  0.66981852  0.33698145  1.00376050  1
  Fe  Fe22  1  0.83499323  0.50336149  0.17114081  1
  Fe  Fe23  1  0.66952818  0.33705677  0.33709911  1
  Fe  Fe24  1  0.66843977  0.67025423  0.00461510  1
  Fe  Fe25  1  0.83567236  0.83801467  0.17182057  1
  Fe  Fe26  1  0.66914390  0.67140500  0.33680541  1
  Fe  Fe27  1  0.17104300  0.17060943  0.50342182  1
  Fe  Fe28  1  1.00394096  0.00501268  0.67017097  1
  Fe  Fe29  1  0.17142779  0.17078148  0.83713567  1
  Fe  Fe30  1  0.17138576  0.50384348  0.50392952  1
  Fe  Fe31  1  0.00402413  0.33755638  0.67072553  1
  Fe  Fe32  1  0.17236962  0.50242663  0.83606679  1
  Fe  Fe33  1  0.17070061  0.83761245  0.50333259  1
  Fe  Fe34  1  1.00394107  0.66949800  0.67109651  1
  Fe  Fe35  1  0.17203334  0.83886322  0.83640276  1
  Fe  Fe36  1  0.50358695  0.17128805  0.50490448  1
  Fe  Fe37  1  0.33825325  0.00535117  0.67063811  1
  Ni  Ni38  1  0.50413893  0.17101177  0.83743498  1
  Fe  Fe39  1  0.50358897  0.50350543  0.50354895  1
  Ni  Ni40  1  0.33890511  0.33728968  0.67128487  1
  Fe  Fe41  1  0.50428096  0.50268782  0.83760772  1
  Fe  Fe42  1  0.50358737  0.83727267  0.50295185  1
  Fe  Fe43  1  0.33779256  0.66962103  0.67025330  1
  Fe  Fe44  1  0.50393839  0.83791589  0.83794798  1
  Fe  Fe45  1  0.83743683  0.17060738  0.50401857  1
  Fe  Fe46  1  0.66987304  0.00526977  0.67102766  1
  Fe  Fe47  1  0.83635872  0.17112381  0.83747372  1
  Fe  Fe48  1  0.83709589  0.50384500  0.50452527  1
  Ni  Ni49  1  0.66973307  0.33728961  0.67080960  1
  Fe  Fe50  1  0.83541704  0.50208509  0.83640657  1
  Fe  Fe51  1  0.83777691  0.83761299  0.50392953  1
  Fe  Fe52  1  0.67033374  0.66970233  0.67064309  1
  Fe  Fe53  1  0.83609636  0.83886167  0.83631929  1
" 