4669,Ni18Fe61Cr20_4,-226.939092074639, 175.123549040988,Ni18Fe61Cr20,"# generated using pymatgen
 data_Cr4Fe11Ni3
_symmetry_space_group_name_H-M   'P 1'
_cell_length_a   7.46009706
_cell_length_b   7.46009706
_cell_length_c   10.55017044
_cell_angle_alpha   90.00000000
_cell_angle_beta   90.00000000
_cell_angle_gamma   90.00000000
_symmetry_Int_Tables_number   1
_chemical_formula_structural   Cr4Fe11Ni3
_chemical_formula_sum   'Cr12 Fe33 Ni9'
_cell_volume   587.14914386
_cell_formula_units_Z   3
loop_
 _symmetry_equiv_pos_site_id
 _symmetry_equiv_pos_as_xyz
  1  'x, y, z'
loop_
 _atom_site_type_symbol
 _atom_site_label
 _atom_site_symmetry_multiplicity
 _atom_site_fract_x
 _atom_site_fract_y
 _atom_site_fract_z
 _atom_site_occupancy
  Cr  Cr0  1  0.00055157  0.00140188  0.00311306  1
  Ni  Ni1  1  0.16623093  0.16850870  0.16755692  1
  Ni  Ni2  1  0.00236065  0.00062635  0.33423053  1
  Fe  Fe3  1  0.99791530  0.33400818  0.00183312  1
  Fe  Fe4  1  0.16481578  0.49879943  0.16825896  1
  Fe  Fe5  1  0.99940281  0.33186789  0.33241443  1
  Fe  Fe6  1  0.99788075  0.66532657  0.00249033  1
  Fe  Fe7  1  0.16358722  0.83532433  0.16917407  1
  Fe  Fe8  1  0.99896354  0.66861390  0.33264494  1
  Fe  Fe9  1  0.33348904  0.00343197  0.99972733  1
  Cr  Cr10  1  0.50050996  0.16810086  0.16546012  1
  Fe  Fe11  1  0.33120177  0.00093734  0.33577989  1
  Fe  Fe12  1  0.33334004  0.33117776  0.00128164  1
  Fe  Fe13  1  0.50265630  0.49794921  0.16831513  1
  Fe  Fe14  1  0.33324690  0.33206950  0.33419187  1
  Cr  Cr15  1  0.33177130  0.66659809  0.00347315  1
  Cr  Cr16  1  0.50019636  0.83455394  0.16737833  1
  Fe  Fe17  1  0.33368931  0.66840774  0.33430234  1
  Cr  Cr18  1  0.66964717  0.00260838  0.99803271  1
  Ni  Ni19  1  0.83653535  0.16982533  0.16863828  1
  Cr  Cr20  1  0.67073557  0.00156992  0.33455824  1
  Ni  Ni21  1  0.66885831  0.33391844  0.00133608  1
  Ni  Ni22  1  0.83581806  0.49989145  0.16679566  1
  Fe  Fe23  1  0.66889190  0.33507025  0.33394043  1
  Cr  Cr24  1  0.66890846  0.66530810  1.00003826  1
  Ni  Ni25  1  0.83667150  0.83153583  0.16822354  1
  Fe  Fe26  1  0.66886252  0.66616221  0.33406368  1
  Fe  Fe27  1  0.16814480  0.16460707  0.49936755  1
  Fe  Fe28  1  0.99893470  0.00213105  0.66627968  1
  Fe  Fe29  1  0.16712396  0.16777722  0.83370469  1
  Cr  Cr30  1  0.16551807  0.50034553  0.50187661  1
  Fe  Fe31  1  0.99995472  0.33153092  0.66738868  1
  Cr  Cr32  1  0.16430790  0.49881322  0.83380961  1
  Fe  Fe33  1  0.16811140  0.83627498  0.50058196  1
  Fe  Fe34  1  0.99748084  0.66759587  0.66630245  1
  Cr  Cr35  1  0.16737298  0.83344863  0.83296148  1
  Ni  Ni36  1  0.49976675  0.16567801  0.50091329  1
  Fe  Fe37  1  0.33541499  0.00170165  0.66567745  1
  Fe  Fe38  1  0.49951704  0.16635086  0.83350315  1
  Fe  Fe39  1  0.50099027  0.50118987  0.49967172  1
  Fe  Fe40  1  0.33313413  0.33089300  0.66585230  1
  Cr  Cr41  1  0.50021644  0.49972623  0.83325750  1
  Ni  Ni42  1  0.50030705  0.83414225  0.50271372  1
  Fe  Fe43  1  0.33586458  0.66857587  0.66559216  1
  Fe  Fe44  1  0.50150683  0.83623619  0.83107431  1
  Fe  Fe45  1  0.83483542  0.16641921  0.50028372  1
  Fe  Fe46  1  0.66698006  0.99947153  0.66677721  1
  Ni  Ni47  1  0.83353197  0.16787992  0.83331030  1
  Fe  Fe48  1  0.83160165  0.50137279  0.49887223  1
  Cr  Cr49  1  0.66744937  0.33341112  0.66537668  1
  Fe  Fe50  1  0.83497359  0.49916368  0.83448695  1
  Fe  Fe51  1  0.83402153  0.83370214  0.50025558  1
  Fe  Fe52  1  0.66775806  0.66972576  0.66613073  1
  Fe  Fe53  1  0.83359833  0.83339767  0.83188106  1
" 