2085,Ni18Fe61Cr20_3,-227.109367868565, 175.092521151779,Ni18Fe61Cr20,"# generated using pymatgen
 data_Cr4Fe11Ni3
_symmetry_space_group_name_H-M   'P 1'
_cell_length_a   7.45541203
_cell_length_b   7.45541203
_cell_length_c   10.54354480
_cell_angle_alpha   90.00000000
_cell_angle_beta   90.00000000
_cell_angle_gamma   90.00000000
_symmetry_Int_Tables_number   1
_chemical_formula_structural   Cr4Fe11Ni3
_chemical_formula_sum   'Cr12 Fe33 Ni9'
_cell_volume   586.04362776
_cell_formula_units_Z   3
loop_
 _symmetry_equiv_pos_site_id
 _symmetry_equiv_pos_as_xyz
  1  'x, y, z'
loop_
 _atom_site_type_symbol
 _atom_site_label
 _atom_site_symmetry_multiplicity
 _atom_site_fract_x
 _atom_site_fract_y
 _atom_site_fract_z
 _atom_site_occupancy
  Fe  Fe0  1  0.00141611  1.00064249  1.00002943  1
  Fe  Fe1  1  0.16578277  0.16677499  0.16876125  1
  Fe  Fe2  1  0.99946009  0.00262342  0.33383941  1
  Cr  Cr3  1  0.99872429  0.33493794  0.00175218  1
  Fe  Fe4  1  0.16574555  0.50143313  0.17138704  1
  Ni  Ni5  1  0.99962602  0.33563675  0.33380163  1
  Fe  Fe6  1  0.99960398  0.66856853  0.99986794  1
  Fe  Fe7  1  0.16708584  0.83417008  0.16758770  1
  Fe  Fe8  1  0.00264108  0.66458944  0.33432399  1
  Ni  Ni9  1  0.33341700  1.00003342  0.99926004  1
  Cr  Cr10  1  0.50167763  0.16823605  0.16650878  1
  Cr  Cr11  1  0.33570394  0.99968797  0.33389092  1
  Cr  Cr12  1  0.33411245  0.33292067  1.00010226  1
  Cr  Cr13  1  0.50179789  0.49995377  0.16739441  1
  Ni  Ni14  1  0.33158820  0.33773110  0.33520692  1
  Cr  Cr15  1  0.33175080  0.66876656  0.00138767  1
  Cr  Cr16  1  0.50100098  0.83411182  0.16647934  1
  Ni  Ni17  1  0.33325163  0.66505761  0.33563498  1
  Ni  Ni18  1  0.66869493  0.00244761  0.99955906  1
  Fe  Fe19  1  0.83409555  0.16851772  0.16855052  1
  Fe  Fe20  1  0.66945172  0.00234303  0.33637930  1
  Ni  Ni21  1  0.67042513  0.33264536  0.99853884  1
  Fe  Fe22  1  0.83432844  0.49945590  0.16800327  1
  Fe  Fe23  1  0.66832630  0.33413723  0.33531598  1
  Fe  Fe24  1  0.66991990  0.66604539  0.99930310  1
  Cr  Cr25  1  0.83531646  0.83412968  0.16667794  1
  Fe  Fe26  1  0.66721470  0.66586329  0.33631728  1
  Cr  Cr27  1  0.16604144  0.17045427  0.50194710  1
  Fe  Fe28  1  1.00028134  0.00106576  0.66846287  1
  Fe  Fe29  1  0.16868370  0.16539884  0.83274450  1
  Ni  Ni30  1  0.16800486  0.50105661  0.50005783  1
  Fe  Fe31  1  0.99972776  0.33472360  0.66702288  1
  Fe  Fe32  1  0.16745826  0.50112542  0.83114811  1
  Cr  Cr33  1  0.16668651  0.83170284  0.50151168  1
  Fe  Fe34  1  1.00013141  0.66658273  0.66806445  1
  Fe  Fe35  1  0.16614839  0.83582301  0.83344201  1
  Fe  Fe36  1  0.50164732  0.16973694  0.50087846  1
  Fe  Fe37  1  0.33380195  0.00178404  0.66912256  1
  Ni  Ni38  1  0.50063092  0.16896961  0.83489897  1
  Fe  Fe39  1  0.49958670  0.50023816  0.49990263  1
  Fe  Fe40  1  0.33509505  0.33474198  0.66786257  1
  Fe  Fe41  1  0.50266123  0.49838377  0.83321186  1
  Fe  Fe42  1  0.50173349  0.83237283  0.50039152  1
  Fe  Fe43  1  0.33405634  0.66586001  0.66669648  1
  Cr  Cr44  1  0.50108090  0.83487574  0.83671616  1
  Ni  Ni45  1  0.83284935  0.16819818  0.49907415  1
  Cr  Cr46  1  0.66799857  0.00153745  0.66468995  1
  Fe  Fe47  1  0.83255295  0.16724114  0.83405187  1
  Fe  Fe48  1  0.83564553  0.49969355  0.50055978  1
  Fe  Fe49  1  0.66747511  0.33483145  0.66815323  1
  Fe  Fe50  1  0.83221913  0.50088074  0.83377088  1
  Fe  Fe51  1  0.83420210  0.83371784  0.49986366  1
  Fe  Fe52  1  0.66819102  0.66541404  0.66672267  1
  Fe  Fe53  1  0.83538792  0.83426709  0.83530859  1
" 