5641,Ni18Fe23Cr57_3,-216.195044346074, 174.775702048965,Ni18Fe23Cr57,"# generated using pymatgen
 data_Cr16Fe6Ni5
_symmetry_space_group_name_H-M   'P 1'
_cell_length_a   7.52983222
_cell_length_b   7.52983222
_cell_length_c   10.64879084
_cell_angle_alpha   90.00000000
_cell_angle_beta   90.00000000
_cell_angle_gamma   90.00000000
_symmetry_Int_Tables_number   1
_chemical_formula_structural   Cr16Fe6Ni5
_chemical_formula_sum   'Cr32 Fe12 Ni10'
_cell_volume   603.76911733
_cell_formula_units_Z   2
loop_
 _symmetry_equiv_pos_site_id
 _symmetry_equiv_pos_as_xyz
  1  'x, y, z'
loop_
 _atom_site_type_symbol
 _atom_site_label
 _atom_site_symmetry_multiplicity
 _atom_site_fract_x
 _atom_site_fract_y
 _atom_site_fract_z
 _atom_site_occupancy
  Ni  Ni0  1  -0.00350354  0.99432687  -0.00362990  1
  Cr  Cr1  1  0.16139125  0.16233873  0.16077999  1
  Cr  Cr2  1  -0.00283930  0.99376768  0.33029753  1
  Fe  Fe3  1  -0.00404078  0.33034824  -0.00311279  1
  Ni  Ni4  1  0.16417410  0.49761586  0.16169219  1
  Cr  Cr5  1  0.99475901  0.32777726  0.32733962  1
  Ni  Ni6  1  -0.00342384  0.66450969  0.99523435  1
  Fe  Fe7  1  0.16094624  0.82698808  0.16074556  1
  Cr  Cr8  1  -0.00092468  0.66602210  0.33124415  1
  Cr  Cr9  1  0.32743429  0.99458170  0.99534732  1
  Fe  Fe10  1  0.49693102  0.16236708  0.16156475  1
  Fe  Fe11  1  0.32908009  0.99304320  0.32909320  1
  Cr  Cr12  1  0.33136093  0.32980928  -0.00371932  1
  Ni  Ni13  1  0.49365834  0.49866729  0.16194507  1
  Cr  Cr14  1  0.33113583  0.32958402  0.32555917  1
  Cr  Cr15  1  0.32905751  0.66277492  -0.00385431  1
  Cr  Cr16  1  0.49695896  0.82845174  0.16178818  1
  Fe  Fe17  1  0.32921385  0.66484837  0.32775920  1
  Fe  Fe18  1  0.66248990  0.99482228  -0.00404488  1
  Ni  Ni19  1  0.82985400  0.16008276  0.15892836  1
  Cr  Cr20  1  0.66304723  -0.00305619  0.32856556  1
  Cr  Cr21  1  0.66128637  0.32943815  -0.00161449  1
  Cr  Cr22  1  0.83085561  0.49876487  0.16075301  1
  Cr  Cr23  1  0.66170818  0.32837862  0.32625812  1
  Ni  Ni24  1  0.66190214  0.66054077  0.99342436  1
  Cr  Cr25  1  0.82838230  0.82940795  0.15905789  1
  Cr  Cr26  1  0.66096257  0.66299046  0.33169010  1
  Cr  Cr27  1  0.16591815  0.16317923  0.49919924  1
  Cr  Cr28  1  -0.00384162  0.99254621  0.66100874  1
  Cr  Cr29  1  0.16293122  0.16186815  0.82733723  1
  Cr  Cr30  1  0.16422868  0.49468166  0.49475996  1
  Cr  Cr31  1  0.99438476  0.32952593  0.66324112  1
  Cr  Cr32  1  0.16142340  0.49561000  0.83004306  1
  Fe  Fe33  1  0.16595574  0.82978626  0.49608733  1
  Cr  Cr34  1  -0.00365021  0.66531676  0.66162176  1
  Ni  Ni35  1  0.16196517  0.82870240  0.83063434  1
  Cr  Cr36  1  0.49346597  0.15980650  0.49698740  1
  Fe  Fe37  1  0.33040125  0.99201930  0.66354835  1
  Cr  Cr38  1  0.49539308  0.15984032  0.82681856  1
  Cr  Cr39  1  0.49339451  0.49744430  0.49533854  1
  Fe  Fe40  1  0.33051304  0.33004393  0.66355814  1
  Fe  Fe41  1  0.49692169  0.49752297  0.83058720  1
  Ni  Ni42  1  0.49493862  0.83099048  0.49739684  1
  Cr  Cr43  1  0.32928431  0.66453000  0.66440840  1
  Fe  Fe44  1  0.49517591  0.82943081  0.82942418  1
  Cr  Cr45  1  0.82852214  0.16082586  0.49625579  1
  Ni  Ni46  1  0.66019138  0.99388895  0.66223892  1
  Cr  Cr47  1  0.82954660  0.16039637  0.83146310  1
  Cr  Cr48  1  0.82990709  0.49820476  0.49625636  1
  Cr  Cr49  1  0.66163657  0.32971501  0.66263383  1
  Fe  Fe50  1  0.82965152  0.49686561  0.83167645  1
  Ni  Ni51  1  0.82571986  0.83058015  0.49709034  1
  Cr  Cr52  1  0.66174583  0.66378222  0.66373503  1
  Cr  Cr53  1  0.82728866  0.82857497  0.83242870  1
" 