5917,Ni18Fe61Cr20_18,-227.23161687263, 179.315087145133,Ni18Fe61Cr20,"# generated using pymatgen
 data_Cr4Fe11Ni3
_symmetry_space_group_name_H-M   'P 1'
_cell_length_a   7.45463818
_cell_length_b   7.45463818
_cell_length_c   10.54245042
_cell_angle_alpha   90.00000000
_cell_angle_beta   90.00000000
_cell_angle_gamma   90.00000000
_symmetry_Int_Tables_number   1
_chemical_formula_structural   Cr4Fe11Ni3
_chemical_formula_sum   'Cr12 Fe33 Ni9'
_cell_volume   585.86115816
_cell_formula_units_Z   3
loop_
 _symmetry_equiv_pos_site_id
 _symmetry_equiv_pos_as_xyz
  1  'x, y, z'
loop_
 _atom_site_type_symbol
 _atom_site_label
 _atom_site_symmetry_multiplicity
 _atom_site_fract_x
 _atom_site_fract_y
 _atom_site_fract_z
 _atom_site_occupancy
  Fe  Fe0  1  0.99986167  0.99991665  1.00039815  1
  Fe  Fe1  1  0.16954564  0.16646491  0.16853831  1
  Fe  Fe2  1  0.00414462  0.99956791  0.33516882  1
  Fe  Fe3  1  1.00019853  0.33423552  0.99915458  1
  Fe  Fe4  1  0.16724865  0.50144674  0.16884076  1
  Fe  Fe5  1  0.00517154  0.33258116  0.33561054  1
  Fe  Fe6  1  0.00131093  0.66840354  0.99994518  1
  Fe  Fe7  1  0.16549207  0.83467661  0.16714641  1
  Fe  Fe8  1  0.00182664  0.67026242  0.33479923  1
  Fe  Fe9  1  0.33506015  0.99993216  1.00022553  1
  Fe  Fe10  1  0.50073032  0.16775863  0.16826560  1
  Ni  Ni11  1  0.33310261  0.00181394  0.33338304  1
  Cr  Cr12  1  0.33318380  0.33514845  0.00332234  1
  Ni  Ni13  1  0.50057768  0.50219294  0.17036408  1
  Fe  Fe14  1  0.33400559  0.33233661  0.33478895  1
  Fe  Fe15  1  0.33363082  0.66845739  0.00085304  1
  Cr  Cr16  1  0.50034090  0.83394381  0.16513017  1
  Cr  Cr17  1  0.33332777  0.66753241  0.33641809  1
  Ni  Ni18  1  0.66886039  0.99895627  0.99818266  1
  Cr  Cr19  1  0.83743735  0.16673612  0.16815979  1
  Cr  Cr20  1  0.66697192  0.99933805  0.33572247  1
  Cr  Cr21  1  0.66639240  0.33172562  0.99809402  1
  Cr  Cr22  1  0.83313224  0.50136267  0.16832576  1
  Fe  Fe23  1  0.66333834  0.33373895  0.33417803  1
  Fe  Fe24  1  0.66727417  0.66841024  0.99941598  1
  Fe  Fe25  1  0.83505170  0.83341317  0.16633171  1
  Fe  Fe26  1  0.66591664  0.66870088  0.33576510  1
  Fe  Fe27  1  0.16957245  0.16645784  0.50123007  1
  Fe  Fe28  1  0.00092334  0.99929372  0.66690424  1
  Cr  Cr29  1  0.16756844  0.16598029  0.83455116  1
  Ni  Ni30  1  0.16731812  0.49974442  0.50161378  1
  Cr  Cr31  1  0.00102810  0.33530360  0.66960529  1
  Fe  Fe32  1  0.16755996  0.50348547  0.83338389  1
  Fe  Fe33  1  0.16799239  0.83515453  0.50165804  1
  Fe  Fe34  1  0.00468677  0.66959716  0.66734739  1
  Fe  Fe35  1  0.16843305  0.83347950  0.83380622  1
  Fe  Fe36  1  0.49829210  0.16772126  0.50162124  1
  Ni  Ni37  1  0.33497565  0.99990447  0.66743022  1
  Fe  Fe38  1  0.50088183  0.16463092  0.83210830  1
  Fe  Fe39  1  0.49893663  0.49993621  0.50126271  1
  Ni  Ni40  1  0.33360441  0.33353418  0.66517143  1
  Cr  Cr41  1  0.49895754  0.50367259  0.83105163  1
  Ni  Ni42  1  0.49901303  0.83601524  0.50209074  1
  Fe  Fe43  1  0.33206416  0.66896047  0.66572256  1
  Ni  Ni44  1  0.49921369  0.83515215  0.83470033  1
  Fe  Fe45  1  0.83482291  0.16596442  0.50185679  1
  Fe  Fe46  1  0.66612430  0.00277955  0.66825867  1
  Ni  Ni47  1  0.83493052  0.16603852  0.83284848  1
  Cr  Cr48  1  0.83400180  0.49898846  0.49910523  1
  Fe  Fe49  1  0.66561041  0.33072622  0.66781132  1
  Fe  Fe50  1  0.83567704  0.50240268  0.83488346  1
  Fe  Fe51  1  0.83621634  0.83454005  0.50096478  1
  Cr  Cr52  1  0.66911537  0.67056287  0.66651318  1
  Fe  Fe53  1  0.83429037  0.83586521  0.83491632  1
" 