947,Ni18Fe21Cr59_10,-215.31972332532, 172.516820059003,Ni18Fe21Cr59,"# generated using pymatgen
 data_Cr33Fe11Ni10
_symmetry_space_group_name_H-M   'P 1'
_cell_length_a   7.53537386
_cell_length_b   7.53537386
_cell_length_c   10.65662791
_cell_angle_alpha   90.00000000
_cell_angle_beta   90.00000000
_cell_angle_gamma   90.00000000
_symmetry_Int_Tables_number   1
_chemical_formula_structural   Cr33Fe11Ni10
_chemical_formula_sum   'Cr33 Fe11 Ni10'
_cell_volume   605.10314625
_cell_formula_units_Z   1
loop_
 _symmetry_equiv_pos_site_id
 _symmetry_equiv_pos_as_xyz
  1  'x, y, z'
loop_
 _atom_site_type_symbol
 _atom_site_label
 _atom_site_symmetry_multiplicity
 _atom_site_fract_x
 _atom_site_fract_y
 _atom_site_fract_z
 _atom_site_occupancy
  Ni  Ni0  1  0.99491458  -0.00242615  -0.00155683  1
  Fe  Fe1  1  0.16186283  0.16323113  0.15806145  1
  Cr  Cr2  1  0.99443814  -0.00287152  0.32278136  1
  Ni  Ni3  1  0.99381491  0.32817302  0.99497718  1
  Cr  Cr4  1  0.16121402  0.49537612  0.15828188  1
  Cr  Cr5  1  0.99505026  0.32777727  0.32878928  1
  Ni  Ni6  1  -0.00392336  0.65983031  0.99294094  1
  Ni  Ni7  1  0.15716392  0.82946563  0.15750582  1
  Cr  Cr8  1  -0.00320493  0.66245637  0.32766924  1
  Cr  Cr9  1  0.32979060  0.99477972  -0.00363989  1
  Ni  Ni10  1  0.49811362  0.16180834  0.16007987  1
  Cr  Cr11  1  0.32678864  -0.00436894  0.32400016  1
  Fe  Fe12  1  0.32613292  0.32674627  -0.00425024  1
  Cr  Cr13  1  0.49606758  0.49163580  0.16061221  1
  Cr  Cr14  1  0.32858620  0.32939122  0.32926425  1
  Cr  Cr15  1  0.32731952  0.66306931  0.99470189  1
  Cr  Cr16  1  0.49618587  0.82750196  0.16383908  1
  Cr  Cr17  1  0.32857443  0.66200286  0.32900625  1
  Cr  Cr18  1  0.66161623  -0.00340005  0.99310185  1
  Ni  Ni19  1  0.82880130  0.16112234  0.15835437  1
  Fe  Fe20  1  0.66242293  -0.00271995  0.32455707  1
  Fe  Fe21  1  0.66456971  0.32552772  0.99540656  1
  Cr  Cr22  1  0.82961996  0.49577269  0.15832606  1
  Cr  Cr23  1  0.66328930  0.32828115  0.32726519  1
  Cr  Cr24  1  0.66215789  0.66122157  0.99426033  1
  Fe  Fe25  1  0.82991929  0.82969918  0.15866815  1
  Fe  Fe26  1  0.66264873  0.66103851  0.32764846  1
  Cr  Cr27  1  0.16345608  0.16280984  0.49685956  1
  Cr  Cr28  1  0.99373131  -0.00121654  0.66424050  1
  Cr  Cr29  1  0.16268208  0.16405964  0.83141606  1
  Fe  Fe30  1  0.16405401  0.49618246  0.49740096  1
  Cr  Cr31  1  0.99525780  0.33151468  0.66094343  1
  Ni  Ni32  1  0.15833941  0.49315064  0.82866003  1
  Cr  Cr33  1  0.16027949  0.83023249  0.49843020  1
  Fe  Fe34  1  0.99452386  0.66151132  0.66430342  1
  Cr  Cr35  1  0.16040051  0.82784345  0.83025408  1
  Cr  Cr36  1  0.49502004  0.16350676  0.49668916  1
  Cr  Cr37  1  0.33132413  0.99475894  0.66639336  1
  Ni  Ni38  1  0.49679427  0.16476974  0.83120383  1
  Ni  Ni39  1  0.49536086  0.49491232  0.49558803  1
  Fe  Fe40  1  0.33062051  0.32968015  0.66420420  1
  Cr  Cr41  1  0.49368565  0.49251816  0.83380783  1
  Cr  Cr42  1  0.49755825  0.82907417  0.49387985  1
  Cr  Cr43  1  0.32849042  0.66022934  0.66358444  1
  Ni  Ni44  1  0.49667127  0.82990064  0.82871197  1
  Cr  Cr45  1  0.82794795  0.16046130  0.49506321  1
  Cr  Cr46  1  0.66189028  -0.00320749  0.66693353  1
  Fe  Fe47  1  0.83031913  0.16410389  0.83313251  1
  Cr  Cr48  1  0.82754849  0.49778382  0.49559629  1
  Cr  Cr49  1  0.66426105  0.32852786  0.66676009  1
  Fe  Fe50  1  0.83078369  0.49370288  0.83215494  1
  Cr  Cr51  1  0.82837936  0.82930057  0.49341805  1
  Cr  Cr52  1  0.66062621  0.66094139  0.66456913  1
  Cr  Cr53  1  0.83123897  0.82800590  0.83032956  1
" 