1538,Ni18Fe80Cr1_12,-231.339169316019, 177.167263450277,Ni18Fe80Cr1,"# generated using pymatgen
 data_CrFe43Ni10
_symmetry_space_group_name_H-M   'P 1'
_cell_length_a   7.40486011
_cell_length_b   7.40486011
_cell_length_c   10.47205360
_cell_angle_alpha   90.00000000
_cell_angle_beta   90.00000000
_cell_angle_gamma   90.00000000
_symmetry_Int_Tables_number   1
_chemical_formula_structural   CrFe43Ni10
_chemical_formula_sum   'Cr1 Fe43 Ni10'
_cell_volume   574.20315319
_cell_formula_units_Z   1
loop_
 _symmetry_equiv_pos_site_id
 _symmetry_equiv_pos_as_xyz
  1  'x, y, z'
loop_
 _atom_site_type_symbol
 _atom_site_label
 _atom_site_symmetry_multiplicity
 _atom_site_fract_x
 _atom_site_fract_y
 _atom_site_fract_z
 _atom_site_occupancy
  Fe  Fe0  1  1.00320384  1.00303212  1.00392439  1
  Fe  Fe1  1  0.16946568  0.17095604  0.16962877  1
  Fe  Fe2  1  1.00279155  1.00309189  0.33806058  1
  Ni  Ni3  1  0.00470315  0.33758401  0.00423499  1
  Fe  Fe4  1  0.16876469  0.50547093  0.17030190  1
  Fe  Fe5  1  0.00432304  0.33698732  0.33693414  1
  Ni  Ni6  1  1.00281273  0.67006534  1.00273901  1
  Fe  Fe7  1  0.16859271  0.83547218  0.17107176  1
  Ni  Ni8  1  1.00278509  0.66983299  0.33846719  1
  Fe  Fe9  1  0.33669970  1.00286732  0.00466985  1
  Fe  Fe10  1  0.50608602  0.17121466  0.16967006  1
  Cr  Cr11  1  0.33855506  0.00487699  0.33799849  1
  Fe  Fe12  1  0.33760472  0.33958348  0.00446515  1
  Fe  Fe13  1  0.50534280  0.50526281  0.17140283  1
  Fe  Fe14  1  0.33701722  0.34030960  0.33718843  1
  Fe  Fe15  1  0.33667171  0.67014532  1.00360331  1
  Fe  Fe16  1  0.50593584  0.83656293  0.17021578  1
  Fe  Fe17  1  0.33637841  0.66959341  0.33849028  1
  Fe  Fe18  1  0.67279129  1.00371737  0.00433514  1
  Fe  Fe19  1  0.83780406  0.17094074  0.16987026  1
  Fe  Fe20  1  0.67381291  1.00345459  0.33742522  1
  Fe  Fe21  1  0.67249203  0.33915915  1.00389299  1
  Fe  Fe22  1  0.83823739  0.50595162  0.17031855  1
  Fe  Fe23  1  0.67129347  0.33769707  0.33798221  1
  Ni  Ni24  1  0.67103277  0.67135191  0.00438885  1
  Ni  Ni25  1  0.83818496  0.83782185  0.17080390  1
  Fe  Fe26  1  0.67037092  0.67139462  0.33746368  1
  Fe  Fe27  1  0.17125792  0.17177374  0.50582288  1
  Fe  Fe28  1  1.00280152  1.00360394  0.67106817  1
  Fe  Fe29  1  0.17045068  0.17100282  0.83777264  1
  Fe  Fe30  1  0.17128122  0.50547303  0.50427086  1
  Fe  Fe31  1  1.00273640  0.33788435  0.67237851  1
  Fe  Fe32  1  0.16970450  0.50324712  0.83796315  1
  Ni  Ni33  1  0.16986178  0.83722536  0.50462244  1
  Fe  Fe34  1  1.00408119  0.67117343  0.67071583  1
  Fe  Fe35  1  0.16999369  0.83803378  0.83662302  1
  Fe  Fe36  1  0.50472665  0.17083373  0.50525559  1
  Fe  Fe37  1  0.33820006  1.00258121  0.66989457  1
  Fe  Fe38  1  0.50452193  0.17067453  0.83797302  1
  Ni  Ni39  1  0.50425365  0.50427691  0.50372629  1
  Fe  Fe40  1  0.33864083  0.33887029  0.67087135  1
  Fe  Fe41  1  0.50585319  0.50440579  0.83657016  1
  Ni  Ni42  1  0.50420005  0.83553175  0.50435690  1
  Fe  Fe43  1  0.33864689  0.67090644  0.67003827  1
  Fe  Fe44  1  0.50562024  0.83769177  0.83686716  1
  Fe  Fe45  1  0.83697337  0.17038873  0.50540120  1
  Fe  Fe46  1  0.67127486  1.00361707  0.67116504  1
  Ni  Ni47  1  0.83766108  0.17106398  0.83878271  1
  Fe  Fe48  1  0.83711668  0.50556740  0.50427723  1
  Fe  Fe49  1  0.67128815  0.33802254  0.67096688  1
  Fe  Fe50  1  0.83725832  0.50422615  0.83792850  1
  Fe  Fe51  1  0.83651097  0.83610504  0.50351272  1
  Ni  Ni52  1  0.67134440  0.67106297  0.67006049  1
  Fe  Fe53  1  0.83673741  0.83710924  0.83831808  1
" 