1506,Ni18Fe61Cr20_19,-226.577668539487, 173.829444877055,Ni18Fe61Cr20,"# generated using pymatgen
 data_Cr4Fe11Ni3
_symmetry_space_group_name_H-M   'P 1'
_cell_length_a   7.45609792
_cell_length_b   7.45609792
_cell_length_c   10.54451481
_cell_angle_alpha   90.00000000
_cell_angle_beta   90.00000000
_cell_angle_gamma   90.00000000
_symmetry_Int_Tables_number   1
_chemical_formula_structural   Cr4Fe11Ni3
_chemical_formula_sum   'Cr12 Fe33 Ni9'
_cell_volume   586.20539016
_cell_formula_units_Z   3
loop_
 _symmetry_equiv_pos_site_id
 _symmetry_equiv_pos_as_xyz
  1  'x, y, z'
loop_
 _atom_site_type_symbol
 _atom_site_label
 _atom_site_symmetry_multiplicity
 _atom_site_fract_x
 _atom_site_fract_y
 _atom_site_fract_z
 _atom_site_occupancy
  Ni  Ni0  1  0.00115096  0.00238134  1.00015350  1
  Ni  Ni1  1  0.17288868  0.16585249  0.16555222  1
  Cr  Cr2  1  0.00140660  0.00203600  0.33555577  1
  Cr  Cr3  1  0.00114248  0.33172451  0.99930972  1
  Cr  Cr4  1  0.16475172  0.50174619  0.16704974  1
  Cr  Cr5  1  1.00067425  0.33200160  0.33364022  1
  Fe  Fe6  1  0.99667314  0.66775627  0.99924255  1
  Fe  Fe7  1  0.16799160  0.83737554  0.16591739  1
  Fe  Fe8  1  1.00037548  0.66946545  0.33505147  1
  Fe  Fe9  1  0.33564631  0.00136770  0.00216207  1
  Ni  Ni10  1  0.49834157  0.16529137  0.16828628  1
  Fe  Fe11  1  0.33570555  0.00258728  0.33451019  1
  Fe  Fe12  1  0.33535911  0.33202502  0.00134057  1
  Fe  Fe13  1  0.50269784  0.49902954  0.16849922  1
  Fe  Fe14  1  0.33595773  0.33055330  0.33426550  1
  Cr  Cr15  1  0.33722322  0.66670087  0.00097019  1
  Fe  Fe16  1  0.50248004  0.83698023  0.16734298  1
  Cr  Cr17  1  0.33592103  0.66851451  0.33503753  1
  Ni  Ni18  1  0.66750231  0.99897188  0.99944690  1
  Cr  Cr19  1  0.83021683  0.16634813  0.16796960  1
  Ni  Ni20  1  0.66552392  1.00063695  0.33620403  1
  Cr  Cr21  1  0.66790094  0.33535714  0.00200919  1
  Ni  Ni22  1  0.83230937  0.50457659  0.16789404  1
  Fe  Fe23  1  0.66364777  0.33333209  0.33376710  1
  Ni  Ni24  1  0.66485507  0.66824921  0.99948211  1
  Cr  Cr25  1  0.83456359  0.83188681  0.16605306  1
  Fe  Fe26  1  0.66756629  0.66863722  0.33314893  1
  Fe  Fe27  1  0.16933102  0.16798299  0.50216916  1
  Fe  Fe28  1  0.00087534  1.00048629  0.66714685  1
  Fe  Fe29  1  0.16697258  0.16720222  0.83342083  1
  Fe  Fe30  1  0.17005912  0.49982188  0.50225419  1
  Fe  Fe31  1  0.00162170  0.33431802  0.66784913  1
  Fe  Fe32  1  0.16898819  0.49935501  0.83192677  1
  Fe  Fe33  1  0.16827265  0.83400196  0.50336525  1
  Fe  Fe34  1  0.00159786  0.66766915  0.66723075  1
  Cr  Cr35  1  0.16696694  0.83407915  0.83591151  1
  Ni  Ni36  1  0.49974516  0.16656168  0.50034520  1
  Fe  Fe37  1  0.33436482  0.99969611  0.66575406  1
  Cr  Cr38  1  0.49953692  0.16622922  0.83487581  1
  Fe  Fe39  1  0.50022261  0.49902393  0.50226781  1
  Fe  Fe40  1  0.33427724  0.33422417  0.66632066  1
  Fe  Fe41  1  0.50062118  0.50222988  0.83201458  1
  Fe  Fe42  1  0.50208918  0.83476554  0.50207996  1
  Ni  Ni43  1  0.33545251  0.66679735  0.66669884  1
  Fe  Fe44  1  0.50248004  0.83306517  0.83258330  1
  Fe  Fe45  1  0.83060448  0.16667663  0.50259784  1
  Fe  Fe46  1  0.66640791  0.99983862  0.66625588  1
  Fe  Fe47  1  0.83474755  0.16436200  0.83262260  1
  Cr  Cr48  1  0.83415200  0.50314516  0.49865974  1
  Fe  Fe49  1  0.66624187  0.33436750  0.66701952  1
  Fe  Fe50  1  0.83341634  0.50279823  0.83322906  1
  Fe  Fe51  1  0.83175557  0.83645170  0.50138994  1
  Fe  Fe52  1  0.66656006  0.66803369  0.66875143  1
  Fe  Fe53  1  0.83181673  0.83508248  0.83504824  1
" 