7730,Ni18Fe61Cr20_9,-226.757478438511, 174.729238003761,Ni18Fe61Cr20,"# generated using pymatgen
 data_Cr4Fe11Ni3
_symmetry_space_group_name_H-M   'P 1'
_cell_length_a   7.45621450
_cell_length_b   7.45621450
_cell_length_c   10.54467966
_cell_angle_alpha   90.00000000
_cell_angle_beta   90.00000000
_cell_angle_gamma   90.00000000
_symmetry_Int_Tables_number   1
_chemical_formula_structural   Cr4Fe11Ni3
_chemical_formula_sum   'Cr12 Fe33 Ni9'
_cell_volume   586.23288513
_cell_formula_units_Z   3
loop_
 _symmetry_equiv_pos_site_id
 _symmetry_equiv_pos_as_xyz
  1  'x, y, z'
loop_
 _atom_site_type_symbol
 _atom_site_label
 _atom_site_symmetry_multiplicity
 _atom_site_fract_x
 _atom_site_fract_y
 _atom_site_fract_z
 _atom_site_occupancy
  Fe  Fe0  1  1.00016684  0.99976411  0.00136563  1
  Fe  Fe1  1  0.16720472  0.16471734  0.16508760  1
  Fe  Fe2  1  0.00250790  1.00072515  0.33525189  1
  Fe  Fe3  1  0.99940892  0.33615660  0.00246279  1
  Fe  Fe4  1  0.16741236  0.50362686  0.16487918  1
  Cr  Cr5  1  0.00112662  0.33417401  0.33408232  1
  Ni  Ni6  1  0.99965233  0.66645158  0.00162726  1
  Fe  Fe7  1  0.16746048  0.83345828  0.16624998  1
  Fe  Fe8  1  0.00335384  0.66796756  0.33511389  1
  Fe  Fe9  1  0.33578470  0.99956428  0.99957129  1
  Fe  Fe10  1  0.50041868  0.16739555  0.16478237  1
  Fe  Fe11  1  0.33184119  1.00031313  0.33613541  1
  Fe  Fe12  1  0.33583716  0.33572146  0.00194414  1
  Fe  Fe13  1  0.50047707  0.50089034  0.16465250  1
  Cr  Cr14  1  0.33285733  0.33161103  0.33275068  1
  Ni  Ni15  1  0.33510706  0.66702517  1.00060031  1
  Cr  Cr16  1  0.49931516  0.83343589  0.16748269  1
  Fe  Fe17  1  0.33084863  0.66822584  0.33353292  1
  Fe  Fe18  1  0.66677311  0.99979270  0.99870507  1
  Fe  Fe19  1  0.83453562  0.16745172  0.16567955  1
  Cr  Cr20  1  0.66630464  0.00205266  0.33735215  1
  Fe  Fe21  1  0.66707949  0.33567756  1.00054570  1
  Fe  Fe22  1  0.83432831  0.50084001  0.16425343  1
  Cr  Cr23  1  0.66819551  0.33345479  0.33270099  1
  Ni  Ni24  1  0.66736459  0.66630735  0.99838919  1
  Cr  Cr25  1  0.83573866  0.83391994  0.16643106  1
  Cr  Cr26  1  0.66897574  0.66690890  0.33535629  1
  Fe  Fe27  1  0.16800052  0.16584314  0.50303429  1
  Fe  Fe28  1  0.99971315  0.99927264  0.66574590  1
  Cr  Cr29  1  0.16718667  0.16818757  0.83306168  1
  Fe  Fe30  1  0.16556289  0.50100062  0.50299697  1
  Fe  Fe31  1  0.99912044  0.33394469  0.66518915  1
  Cr  Cr32  1  0.16681085  0.50132869  0.83249141  1
  Fe  Fe33  1  0.16767669  0.83524975  0.50189882  1
  Ni  Ni34  1  0.99954339  0.66665226  0.66541861  1
  Cr  Cr35  1  0.16710920  0.83275092  0.83562875  1
  Ni  Ni36  1  0.50128128  0.16620279  0.50215816  1
  Ni  Ni37  1  0.33595947  0.00297624  0.66607060  1
  Ni  Ni38  1  0.50302207  0.16701161  0.83402157  1
  Cr  Cr39  1  0.49886855  0.50036539  0.50207303  1
  Fe  Fe40  1  0.33528646  0.33266146  0.66661088  1
  Fe  Fe41  1  0.50076139  0.50032406  0.83538648  1
  Fe  Fe42  1  0.49856129  0.83734082  0.50258714  1
  Fe  Fe43  1  0.33299711  0.67028252  0.66773888  1
  Ni  Ni44  1  0.50213084  0.83516046  0.83416536  1
  Ni  Ni45  1  0.83483481  0.16628152  0.50259850  1
  Fe  Fe46  1  0.66677879  0.00220674  0.66725792  1
  Fe  Fe47  1  0.83203866  0.16671512  0.83344067  1
  Fe  Fe48  1  0.83615385  0.49915779  0.50279596  1
  Fe  Fe49  1  0.66795928  0.33071162  0.66753839  1
  Fe  Fe50  1  0.83327503  0.50074960  0.83519177  1
  Fe  Fe51  1  0.83619407  0.83555434  0.50171630  1
  Cr  Cr52  1  0.66864425  0.66916680  0.66966384  1
  Fe  Fe53  1  0.83368059  0.83449927  0.83576097  1
" 