5534,Ni18Fe21Cr59_3,-215.772127585062, 175.340571424371,Ni18Fe21Cr59,"# generated using pymatgen
 data_Cr33Fe11Ni10
_symmetry_space_group_name_H-M   'P 1'
_cell_length_a   7.53415696
_cell_length_b   7.53415696
_cell_length_c   10.65490696
_cell_angle_alpha   90.00000000
_cell_angle_beta   90.00000000
_cell_angle_gamma   90.00000000
_symmetry_Int_Tables_number   1
_chemical_formula_structural   Cr33Fe11Ni10
_chemical_formula_sum   'Cr33 Fe11 Ni10'
_cell_volume   604.81003663
_cell_formula_units_Z   1
loop_
 _symmetry_equiv_pos_site_id
 _symmetry_equiv_pos_as_xyz
  1  'x, y, z'
loop_
 _atom_site_type_symbol
 _atom_site_label
 _atom_site_symmetry_multiplicity
 _atom_site_fract_x
 _atom_site_fract_y
 _atom_site_fract_z
 _atom_site_occupancy
  Cr  Cr0  1  0.99477211  0.99551950  -0.00055721  1
  Fe  Fe1  1  0.16106507  0.16068403  0.16189490  1
  Fe  Fe2  1  0.99462607  0.99364259  0.32833220  1
  Cr  Cr3  1  0.99537434  0.32754826  -0.00349268  1
  Cr  Cr4  1  0.16259740  0.49834155  0.16312097  1
  Cr  Cr5  1  -0.00379085  0.32652825  0.32945326  1
  Fe  Fe6  1  0.99522142  0.66332264  -0.00387800  1
  Cr  Cr7  1  0.16243393  0.82828778  0.16250570  1
  Ni  Ni8  1  0.99478130  0.66361868  0.33026377  1
  Ni  Ni9  1  0.32956532  -0.00315395  0.99506509  1
  Cr  Cr10  1  0.49751515  0.16137560  0.16018869  1
  Cr  Cr11  1  0.32673315  -0.00255500  0.33067353  1
  Cr  Cr12  1  0.32844564  0.32657512  0.99525212  1
  Fe  Fe13  1  0.49450769  0.49596356  0.16363303  1
  Cr  Cr14  1  0.32755202  0.32853960  0.33049244  1
  Cr  Cr15  1  0.33045881  0.66333175  0.99540740  1
  Cr  Cr16  1  0.49279523  0.82879128  0.16237641  1
  Ni  Ni17  1  0.32618050  0.66143128  0.32823167  1
  Fe  Fe18  1  0.66134823  -0.00353301  -0.00327942  1
  Ni  Ni19  1  0.82976103  0.15976047  0.16225028  1
  Cr  Cr20  1  0.66574441  0.99396765  0.32845964  1
  Cr  Cr21  1  0.66274827  0.32881280  -0.00317895  1
  Cr  Cr22  1  0.83037475  0.49389110  0.16155504  1
  Cr  Cr23  1  0.66288590  0.32940719  0.32794062  1
  Cr  Cr24  1  0.66430025  0.66433802  -0.00177102  1
  Fe  Fe25  1  0.83079866  0.83023839  0.16305972  1
  Cr  Cr26  1  0.66413761  0.66308839  0.32820860  1
  Fe  Fe27  1  0.16198232  0.16191060  0.49653246  1
  Ni  Ni28  1  0.99370680  0.99308121  0.65916914  1
  Cr  Cr29  1  0.16196877  0.15964443  0.82977784  1
  Fe  Fe30  1  0.15946110  0.49746877  0.49438919  1
  Cr  Cr31  1  -0.00423101  0.32936269  0.66062864  1
  Cr  Cr32  1  0.15894395  0.49869908  0.82855849  1
  Cr  Cr33  1  0.15951615  0.82706424  0.49472385  1
  Ni  Ni34  1  0.99010187  0.66452262  0.66036045  1
  Cr  Cr35  1  0.16119804  0.82840085  0.82985344  1
  Ni  Ni36  1  0.49706685  0.16255240  0.49912249  1
  Cr  Cr37  1  0.32830430  -0.00200121  0.66285407  1
  Fe  Fe38  1  0.49706941  0.16133898  0.82829040  1
  Cr  Cr39  1  0.49769818  0.49496994  0.49339165  1
  Cr  Cr40  1  0.32977918  0.32681793  0.66082701  1
  Cr  Cr41  1  0.49818927  0.49398346  0.82807046  1
  Cr  Cr42  1  0.49532180  0.82978389  0.49594696  1
  Cr  Cr43  1  0.32898510  0.66184328  0.66180173  1
  Cr  Cr44  1  0.49596819  0.83295633  0.82853342  1
  Cr  Cr45  1  0.82743373  0.16278766  0.49714876  1
  Fe  Fe46  1  0.66383587  -0.00429759  0.66055777  1
  Cr  Cr47  1  0.82479904  0.16228547  0.82710478  1
  Ni  Ni48  1  0.83146191  0.49738275  0.49831075  1
  Ni  Ni49  1  0.66185184  0.32921725  0.66104397  1
  Cr  Cr50  1  0.82956294  0.49513103  0.82629808  1
  Fe  Fe51  1  0.82966002  0.82613866  0.49776901  1
  Ni  Ni52  1  0.66722792  0.66132585  0.65987914  1
  Cr  Cr53  1  0.82970466  0.82936752  0.82634985  1
" 