817,Ni18Fe80Cr1_6,-231.387703885564, 179.017029354127,Ni18Fe80Cr1,"# generated using pymatgen
 data_CrFe43Ni10
_symmetry_space_group_name_H-M   'P 1'
_cell_length_a   7.40359383
_cell_length_b   7.40359383
_cell_length_c   10.47026280
_cell_angle_alpha   90.00000000
_cell_angle_beta   90.00000000
_cell_angle_gamma   90.00000000
_symmetry_Int_Tables_number   1
_chemical_formula_structural   CrFe43Ni10
_chemical_formula_sum   'Cr1 Fe43 Ni10'
_cell_volume   573.90862485
_cell_formula_units_Z   1
loop_
 _symmetry_equiv_pos_site_id
 _symmetry_equiv_pos_as_xyz
  1  'x, y, z'
loop_
 _atom_site_type_symbol
 _atom_site_label
 _atom_site_symmetry_multiplicity
 _atom_site_fract_x
 _atom_site_fract_y
 _atom_site_fract_z
 _atom_site_occupancy
  Ni  Ni0  1  0.00429126  1.00286686  0.00532464  1
  Fe  Fe1  1  0.17163241  0.16996763  0.17111620  1
  Fe  Fe2  1  1.00358956  1.00416605  0.33727045  1
  Cr  Cr3  1  0.00529740  0.33645207  1.00374079  1
  Fe  Fe4  1  0.17189134  0.50570418  0.17209781  1
  Fe  Fe5  1  1.00377178  0.33718191  0.33747416  1
  Fe  Fe6  1  1.00428500  0.67368339  0.00444314  1
  Fe  Fe7  1  0.17065789  0.83717995  0.17009424  1
  Fe  Fe8  1  1.00361803  0.67150846  0.33727155  1
  Fe  Fe9  1  0.33638639  0.00450948  1.00374096  1
  Fe  Fe10  1  0.50510871  0.17085955  0.17122921  1
  Fe  Fe11  1  0.33839753  1.00404885  0.33793317  1
  Fe  Fe12  1  0.33899757  0.33710289  1.00385095  1
  Ni  Ni13  1  0.50443723  0.50346334  0.17127426  1
  Fe  Fe14  1  0.33824994  0.33733493  0.33778565  1
  Fe  Fe15  1  0.33688418  0.67123924  0.00444499  1
  Fe  Fe16  1  0.50506858  0.83730116  0.17185568  1
  Fe  Fe17  1  0.33852164  0.67146925  0.33754082  1
  Fe  Fe18  1  0.67187264  0.00435354  0.00526959  1
  Fe  Fe19  1  0.83612013  0.16962774  0.17193937  1
  Ni  Ni20  1  0.67108633  1.00348049  0.33757669  1
  Fe  Fe21  1  0.66942654  0.33741547  0.00459507  1
  Fe  Fe22  1  0.83624626  0.50565977  0.17185662  1
  Fe  Fe23  1  0.67083426  0.33730321  0.33719375  1
  Fe  Fe24  1  0.67168731  0.67108379  1.00423823  1
  Ni  Ni25  1  0.83825226  0.83802851  0.17081185  1
  Fe  Fe26  1  0.67071835  0.67165292  0.33789802  1
  Fe  Fe27  1  0.17146630  0.17059598  0.50526778  1
  Ni  Ni28  1  0.00438954  0.00461859  0.67088762  1
  Ni  Ni29  1  0.17147074  0.16947755  0.83634762  1
  Fe  Fe30  1  0.17169922  0.50448716  0.50427996  1
  Fe  Fe31  1  0.00439087  0.33751044  0.67125020  1
  Fe  Fe32  1  0.17217182  0.50488363  0.83647808  1
  Fe  Fe33  1  0.17118344  0.83777429  0.50495393  1
  Fe  Fe34  1  0.00448167  0.67095084  0.67114083  1
  Ni  Ni35  1  0.17014136  0.83875861  0.83757944  1
  Fe  Fe36  1  0.50428424  0.17048623  0.50412916  1
  Fe  Fe37  1  0.33743628  1.00400333  0.67117923  1
  Fe  Fe38  1  0.50299808  0.17086273  0.83749894  1
  Fe  Fe39  1  0.50420508  0.50474854  0.50431975  1
  Ni  Ni40  1  0.33709625  0.33807247  0.67147091  1
  Fe  Fe41  1  0.50325982  0.50417601  0.83777956  1
  Ni  Ni42  1  0.50466717  0.83734066  0.50409899  1
  Fe  Fe43  1  0.33765365  0.67147018  0.67087087  1
  Fe  Fe44  1  0.50354377  0.83781900  0.83679124  1
  Fe  Fe45  1  0.83710529  0.16997083  0.50412631  1
  Fe  Fe46  1  0.67059294  1.00409427  0.66996562  1
  Fe  Fe47  1  0.83823305  0.16905721  0.83678897  1
  Fe  Fe48  1  0.83695062  0.50503211  0.50459889  1
  Fe  Fe49  1  0.67110999  0.33773013  0.67106886  1
  Fe  Fe50  1  0.83742547  0.50542795  0.83639710  1
  Fe  Fe51  1  0.83684289  0.83785261  0.50392872  1
  Ni  Ni52  1  0.67033955  0.67119527  0.67033426  1
  Fe  Fe53  1  0.83893855  0.83836695  0.83800747  1
" 