7920,Ni18Fe61Cr20_10,-226.723114285382, 169.668846838761,Ni18Fe61Cr20,"# generated using pymatgen
 data_Cr4Fe11Ni3
_symmetry_space_group_name_H-M   'P 1'
_cell_length_a   7.46013215
_cell_length_b   7.46013215
_cell_length_c   10.55022007
_cell_angle_alpha   90.00000000
_cell_angle_beta   90.00000000
_cell_angle_gamma   90.00000000
_symmetry_Int_Tables_number   1
_chemical_formula_structural   Cr4Fe11Ni3
_chemical_formula_sum   'Cr12 Fe33 Ni9'
_cell_volume   587.15742964
_cell_formula_units_Z   3
loop_
 _symmetry_equiv_pos_site_id
 _symmetry_equiv_pos_as_xyz
  1  'x, y, z'
loop_
 _atom_site_type_symbol
 _atom_site_label
 _atom_site_symmetry_multiplicity
 _atom_site_fract_x
 _atom_site_fract_y
 _atom_site_fract_z
 _atom_site_occupancy
  Cr  Cr0  1  0.99898372  1.00037690  0.00128052  1
  Cr  Cr1  1  0.16653141  0.16597835  0.16709501  1
  Fe  Fe2  1  0.99974352  0.99863023  0.33427746  1
  Ni  Ni3  1  0.99822240  0.33647920  0.00056360  1
  Fe  Fe4  1  0.16670186  0.50266631  0.16714396  1
  Cr  Cr5  1  0.00113634  0.33390805  0.33369768  1
  Ni  Ni6  1  0.00126592  0.66540885  0.00047952  1
  Fe  Fe7  1  0.16795030  0.83219277  0.16661031  1
  Fe  Fe8  1  0.00076008  0.66812452  0.33359933  1
  Ni  Ni9  1  0.33615321  0.99720883  0.99924368  1
  Cr  Cr10  1  0.50199556  0.16678248  0.16692464  1
  Fe  Fe11  1  0.33368976  0.99944730  0.33450336  1
  Cr  Cr12  1  0.33275865  0.33528711  0.99964593  1
  Fe  Fe13  1  0.50034919  0.50148942  0.16866527  1
  Fe  Fe14  1  0.33414356  0.33475953  0.33471281  1
  Fe  Fe15  1  0.33104597  0.66893951  1.00002260  1
  Fe  Fe16  1  0.49942975  0.83370023  0.16750767  1
  Fe  Fe17  1  0.33279840  0.66718167  0.33372149  1
  Fe  Fe18  1  0.66700092  0.00153872  0.99951203  1
  Fe  Fe19  1  0.83283272  0.16744994  0.16643830  1
  Fe  Fe20  1  0.66795779  0.99997521  0.33455942  1
  Fe  Fe21  1  0.67025680  0.33300569  0.99878920  1
  Fe  Fe22  1  0.83433778  0.50014978  0.16602164  1
  Fe  Fe23  1  0.66701792  0.33374366  0.33423618  1
  Cr  Cr24  1  0.66716435  0.66821285  0.99960786  1
  Fe  Fe25  1  0.83401100  0.83379191  0.16828043  1
  Fe  Fe26  1  0.66783211  0.66767086  0.33315758  1
  Fe  Fe27  1  0.16707690  0.16697233  0.50062821  1
  Fe  Fe28  1  0.00068885  0.00078794  0.66713194  1
  Cr  Cr29  1  0.16620535  0.16534757  0.83276392  1
  Ni  Ni30  1  0.16520384  0.50118594  0.50011075  1
  Ni  Ni31  1  0.99865867  0.33412493  0.66656896  1
  Fe  Fe32  1  0.16327211  0.50214969  0.83422222  1
  Fe  Fe33  1  0.16674568  0.83367194  0.50033941  1
  Fe  Fe34  1  1.00031178  0.66577231  0.66784538  1
  Ni  Ni35  1  0.16822013  0.83264166  0.83399692  1
  Fe  Fe36  1  0.50019414  0.16666591  0.49930050  1
  Fe  Fe37  1  0.33313199  1.00033717  0.66732624  1
  Fe  Fe38  1  0.50288234  0.16642383  0.83457107  1
  Cr  Cr39  1  0.50193976  0.49920740  0.49831309  1
  Cr  Cr40  1  0.33246768  0.33294336  0.66651089  1
  Fe  Fe41  1  0.50191427  0.49942858  0.83389593  1
  Fe  Fe42  1  0.49935363  0.83514539  0.49856037  1
  Cr  Cr43  1  0.33250733  0.66849783  0.66957037  1
  Fe  Fe44  1  0.49911533  0.83553825  0.83532501  1
  Fe  Fe45  1  0.83411960  0.16836290  0.50151834  1
  Cr  Cr46  1  0.66716985  0.00082883  0.66848684  1
  Ni  Ni47  1  0.83172535  0.17015443  0.83465988  1
  Fe  Fe48  1  0.83559695  0.49990696  0.50154656  1
  Ni  Ni49  1  0.67030980  0.33265452  0.66800274  1
  Ni  Ni50  1  0.83415476  0.49833476  0.83291738  1
  Fe  Fe51  1  0.83529027  0.83312028  0.49902282  1
  Cr  Cr52  1  0.66868099  0.66712230  0.66750659  1
  Fe  Fe53  1  0.83602031  0.83360180  0.83408887  1
" 