7502,Ni18Fe61Cr20_6,-226.866057138648, 181.575210732906,Ni18Fe61Cr20,"# generated using pymatgen
 data_Cr4Fe11Ni3
_symmetry_space_group_name_H-M   'P 1'
_cell_length_a   7.44862222
_cell_length_b   7.44862222
_cell_length_c   10.53394256
_cell_angle_alpha   90.00000000
_cell_angle_beta   90.00000000
_cell_angle_gamma   90.00000000
_symmetry_Int_Tables_number   1
_chemical_formula_structural   Cr4Fe11Ni3
_chemical_formula_sum   'Cr12 Fe33 Ni9'
_cell_volume   584.44391590
_cell_formula_units_Z   3
loop_
 _symmetry_equiv_pos_site_id
 _symmetry_equiv_pos_as_xyz
  1  'x, y, z'
loop_
 _atom_site_type_symbol
 _atom_site_label
 _atom_site_symmetry_multiplicity
 _atom_site_fract_x
 _atom_site_fract_y
 _atom_site_fract_z
 _atom_site_occupancy
  Fe  Fe0  1  0.00158326  1.00042070  0.00170086  1
  Ni  Ni1  1  0.16570101  0.16872896  0.16871703  1
  Fe  Fe2  1  0.00191998  1.00075479  0.33335582  1
  Fe  Fe3  1  0.00396216  0.33422477  0.00287848  1
  Fe  Fe4  1  0.16690131  0.50031854  0.16804278  1
  Fe  Fe5  1  0.00391748  0.33438178  0.33339609  1
  Fe  Fe6  1  1.00104110  0.66907163  0.00171008  1
  Fe  Fe7  1  0.16723706  0.83639753  0.16777315  1
  Fe  Fe8  1  0.00282984  0.66856979  0.33459749  1
  Fe  Fe9  1  0.33286391  0.00124551  0.00148530  1
  Cr  Cr10  1  0.50040267  0.16623269  0.16870134  1
  Ni  Ni11  1  0.33247415  1.00120822  0.33632446  1
  Fe  Fe12  1  0.33228615  0.33530223  1.00019685  1
  Fe  Fe13  1  0.49989697  0.50325388  0.16694408  1
  Fe  Fe14  1  0.33149889  0.33385038  0.33454767  1
  Fe  Fe15  1  0.33449404  0.66714028  0.00154262  1
  Fe  Fe16  1  0.50115710  0.83500409  0.16703564  1
  Fe  Fe17  1  0.33258713  0.66907793  0.33400413  1
  Fe  Fe18  1  0.66929658  0.99828934  0.00215590  1
  Ni  Ni19  1  0.83809411  0.16595818  0.16811775  1
  Fe  Fe20  1  0.66780677  0.99972901  0.33451277  1
  Cr  Cr21  1  0.66665875  0.33559384  0.00135738  1
  Fe  Fe22  1  0.83692865  0.50147128  0.16660547  1
  Cr  Cr23  1  0.66888290  0.33427468  0.33375035  1
  Ni  Ni24  1  0.66837048  0.66895542  0.00272190  1
  Ni  Ni25  1  0.83446019  0.83514693  0.16632828  1
  Cr  Cr26  1  0.66979104  0.66972132  0.33288914  1
  Fe  Fe27  1  0.16964923  0.16607266  0.49970054  1
  Ni  Ni28  1  0.00229901  0.99861335  0.66868256  1
  Ni  Ni29  1  0.16878119  0.16561840  0.83561315  1
  Fe  Fe30  1  0.16693426  0.50182947  0.49890606  1
  Cr  Cr31  1  0.00310821  0.33397265  0.66746272  1
  Fe  Fe32  1  0.17017395  0.50203060  0.83678731  1
  Fe  Fe33  1  0.16873489  0.83579835  0.50108877  1
  Cr  Cr34  1  0.00142840  0.67104421  0.66755594  1
  Ni  Ni35  1  0.16876888  0.83586221  0.83470630  1
  Fe  Fe36  1  0.49982401  0.16433425  0.50103651  1
  Fe  Fe37  1  0.33270849  1.00048075  0.66721404  1
  Fe  Fe38  1  0.49907734  0.16715138  0.83432586  1
  Cr  Cr39  1  0.50047051  0.50292150  0.50333214  1
  Cr  Cr40  1  0.33525693  0.33259230  0.67010406  1
  Fe  Fe41  1  0.49902049  0.50139505  0.83475069  1
  Fe  Fe42  1  0.50068811  0.83764169  0.50209164  1
  Fe  Fe43  1  0.33396631  0.67058995  0.66817447  1
  Cr  Cr44  1  0.50055015  0.83322295  0.83410146  1
  Cr  Cr45  1  0.83512994  0.16671767  0.50107631  1
  Ni  Ni46  1  0.66706404  0.99995643  0.66681769  1
  Cr  Cr47  1  0.83570382  0.16555576  0.83479465  1
  Fe  Fe48  1  0.83607328  0.50271335  0.50145537  1
  Fe  Fe49  1  0.66719866  0.33345632  0.66778053  1
  Cr  Cr50  1  0.83289858  0.50237241  0.83343707  1
  Fe  Fe51  1  0.83427316  0.83490300  0.50139783  1
  Fe  Fe52  1  0.66776910  0.66945136  0.66746237  1
  Fe  Fe53  1  0.83619428  0.83616719  0.83554010  1
" 