6071,Ni18Fe80Cr1_9,-231.619027608324, 179.955747880617,Ni18Fe80Cr1,"# generated using pymatgen
 data_CrFe43Ni10
_symmetry_space_group_name_H-M   'P 1'
_cell_length_a   7.40487130
_cell_length_b   7.40487130
_cell_length_c   10.47206942
_cell_angle_alpha   90.00000000
_cell_angle_beta   90.00000000
_cell_angle_gamma   90.00000000
_symmetry_Int_Tables_number   1
_chemical_formula_structural   CrFe43Ni10
_chemical_formula_sum   'Cr1 Fe43 Ni10'
_cell_volume   574.20575612
_cell_formula_units_Z   1
loop_
 _symmetry_equiv_pos_site_id
 _symmetry_equiv_pos_as_xyz
  1  'x, y, z'
loop_
 _atom_site_type_symbol
 _atom_site_label
 _atom_site_symmetry_multiplicity
 _atom_site_fract_x
 _atom_site_fract_y
 _atom_site_fract_z
 _atom_site_occupancy
  Ni  Ni0  1  1.00397832  0.00461886  1.00349491  1
  Ni  Ni1  1  0.16986643  0.16988285  0.17114276  1
  Ni  Ni2  1  1.00384638  0.00474883  0.33777994  1
  Fe  Fe3  1  1.00392629  0.33688534  1.00381129  1
  Fe  Fe4  1  0.17130027  0.50343439  0.17118265  1
  Fe  Fe5  1  0.00468013  0.33708881  0.33775896  1
  Fe  Fe6  1  1.00388689  0.67118826  1.00365223  1
  Fe  Fe7  1  0.17062142  0.83825293  0.17110731  1
  Fe  Fe8  1  0.00468211  0.67142656  0.33776266  1
  Fe  Fe9  1  0.33696601  0.00467343  1.00397171  1
  Fe  Fe10  1  0.50427949  0.17150505  0.17026788  1
  Fe  Fe11  1  0.33672937  1.00387746  0.33744476  1
  Fe  Fe12  1  0.33736220  0.33669835  0.00441228  1
  Ni  Ni13  1  0.50418846  0.50520162  0.17078655  1
  Fe  Fe14  1  0.33712739  0.33756806  0.33708122  1
  Fe  Fe15  1  0.33725074  0.67122288  0.00503908  1
  Fe  Fe16  1  0.50395983  0.83762073  0.17118282  1
  Ni  Ni17  1  0.33808221  0.67022556  0.33683661  1
  Fe  Fe18  1  0.67127106  0.00463502  1.00349422  1
  Ni  Ni19  1  0.83889704  0.17025344  0.17068190  1
  Fe  Fe20  1  0.67106730  1.00388146  0.33807642  1
  Fe  Fe21  1  0.67130700  0.33716811  1.00405740  1
  Fe  Fe22  1  0.83741510  0.50311745  0.17026782  1
  Fe  Fe23  1  0.67078891  0.33768488  0.33719424  1
  Fe  Fe24  1  0.67145890  0.67079427  1.00416890  1
  Fe  Fe25  1  0.83801304  0.83865107  0.17086534  1
  Fe  Fe26  1  0.67058952  0.67103037  0.33732350  1
  Fe  Fe27  1  0.17030752  0.17097594  0.50371238  1
  Fe  Fe28  1  1.00357354  0.00482547  0.67070966  1
  Fe  Fe29  1  0.17041784  0.17149493  0.83801724  1
  Fe  Fe30  1  0.17094716  0.50424360  0.50438647  1
  Ni  Ni31  1  0.00563868  0.33758805  0.67132943  1
  Fe  Fe32  1  0.17067589  0.50348543  0.83702562  1
  Fe  Fe33  1  0.17094356  0.83737587  0.50363761  1
  Fe  Fe34  1  1.00313995  0.67029201  0.67118096  1
  Fe  Fe35  1  0.17070418  0.83761534  0.83784715  1
  Fe  Fe36  1  0.50362163  0.16965496  0.50437351  1
  Fe  Fe37  1  0.33810377  0.00525765  0.67118129  1
  Ni  Ni38  1  0.50290419  0.16946585  0.83859348  1
  Fe  Fe39  1  0.50291300  0.50548266  0.50223583  1
  Fe  Fe40  1  0.33603362  0.33661876  0.67110394  1
  Fe  Fe41  1  0.50370355  0.50469169  0.83910321  1
  Fe  Fe42  1  0.50422953  0.83744991  0.50430850  1
  Fe  Fe43  1  0.33768179  0.67071529  0.67018996  1
  Fe  Fe44  1  0.50498776  0.83772008  0.83710334  1
  Fe  Fe45  1  0.83866374  0.16965574  0.50294865  1
  Ni  Ni46  1  0.67081129  1.00275458  0.67132960  1
  Fe  Fe47  1  0.83810893  0.17021167  0.83862776  1
  Fe  Fe48  1  0.83874224  0.50485156  0.50429594  1
  Cr  Cr49  1  0.67156088  0.33683562  0.67156336  1
  Ni  Ni50  1  0.83865373  0.50568039  0.83822732  1
  Fe  Fe51  1  0.83742160  0.83808955  0.50423154  1
  Fe  Fe52  1  0.67177610  0.67236247  0.67110318  1
  Fe  Fe53  1  0.83690274  0.83797918  0.83749794  1
" 