2936,Ni19Fe13Cr66_16,-212.467116553473, 174.061134135849,Ni19Fe13Cr66,"# generated using pymatgen
 data_Cr37Fe7Ni10
_symmetry_space_group_name_H-M   'P 1'
_cell_length_a   7.55008437
_cell_length_b   7.55008437
_cell_length_c   10.67743172
_cell_angle_alpha   90.00000000
_cell_angle_beta   90.00000000
_cell_angle_gamma   90.00000000
_symmetry_Int_Tables_number   1
_chemical_formula_structural   Cr37Fe7Ni10
_chemical_formula_sum   'Cr37 Fe7 Ni10'
_cell_volume   608.65390454
_cell_formula_units_Z   1
loop_
 _symmetry_equiv_pos_site_id
 _symmetry_equiv_pos_as_xyz
  1  'x, y, z'
loop_
 _atom_site_type_symbol
 _atom_site_label
 _atom_site_symmetry_multiplicity
 _atom_site_fract_x
 _atom_site_fract_y
 _atom_site_fract_z
 _atom_site_occupancy
  Cr  Cr0  1  -0.00526593  0.99443301  -0.00397174  1
  Fe  Fe1  1  0.16100569  0.16030665  0.16123133  1
  Cr  Cr2  1  0.99384707  -0.00540984  0.32716487  1
  Cr  Cr3  1  -0.00417718  0.32836054  -0.00425605  1
  Ni  Ni4  1  0.16022152  0.49397735  0.16276717  1
  Cr  Cr5  1  -0.00257516  0.32700207  0.32936500  1
  Cr  Cr6  1  -0.00484721  0.66110499  -0.00426463  1
  Cr  Cr7  1  0.16194491  0.82958925  0.15921689  1
  Cr  Cr8  1  -0.00159601  0.66234538  0.32658316  1
  Ni  Ni9  1  0.32734915  -0.00407977  -0.00381499  1
  Cr  Cr10  1  0.49316192  0.15915062  0.16028931  1
  Fe  Fe11  1  0.32637315  0.99347881  0.32884598  1
  Cr  Cr12  1  0.32782464  0.32800329  -0.00080716  1
  Cr  Cr13  1  0.49677175  0.49458811  0.16075169  1
  Cr  Cr14  1  0.32614661  0.32859670  0.32472206  1
  Cr  Cr15  1  0.32657829  0.66009007  -0.00534593  1
  Cr  Cr16  1  0.49521753  0.82900466  0.16343480  1
  Cr  Cr17  1  0.32723229  0.66018539  0.32979058  1
  Cr  Cr18  1  0.66155601  -0.00476079  0.99334347  1
  Cr  Cr19  1  0.82665248  0.16116543  0.16235202  1
  Fe  Fe20  1  0.65994908  0.99272332  0.32950063  1
  Ni  Ni21  1  0.66216829  0.32743653  0.99308542  1
  Cr  Cr22  1  0.82747222  0.49604596  0.16118204  1
  Cr  Cr23  1  0.66007310  0.32452366  0.32900722  1
  Cr  Cr24  1  0.66183249  0.66089141  0.99357376  1
  Ni  Ni25  1  0.82678101  0.82842794  0.16364200  1
  Fe  Fe26  1  0.66118628  0.66315074  0.32810655  1
  Cr  Cr27  1  0.16120042  0.16091525  0.49655330  1
  Cr  Cr28  1  0.99292675  -0.00517814  0.66009733  1
  Cr  Cr29  1  0.16359466  0.15983896  0.82757318  1
  Fe  Fe30  1  0.16243543  0.49579064  0.49609540  1
  Fe  Fe31  1  -0.00452519  0.32904618  0.66003819  1
  Cr  Cr32  1  0.16047540  0.49415816  0.82396580  1
  Ni  Ni33  1  0.16550461  0.82850269  0.49602411  1
  Cr  Cr34  1  -0.00352015  0.66262815  0.66067036  1
  Cr  Cr35  1  0.16411884  0.82959124  0.82674174  1
  Cr  Cr36  1  0.49317765  0.15954779  0.49423837  1
  Fe  Fe37  1  0.32843246  0.99262176  0.65926092  1
  Cr  Cr38  1  0.49110015  0.16129141  0.82922974  1
  Cr  Cr39  1  0.49455546  0.49587831  0.49456910  1
  Ni  Ni40  1  0.32591800  0.33018305  0.65926811  1
  Cr  Cr41  1  0.49483056  0.49305430  0.82845507  1
  Ni  Ni42  1  0.48940469  0.82860619  0.49288652  1
  Ni  Ni43  1  0.32615938  0.66061265  0.65673663  1
  Cr  Cr44  1  0.48967783  0.82874732  0.82618327  1
  Ni  Ni45  1  0.82917605  0.16173350  0.49457776  1
  Cr  Cr46  1  0.66145789  0.99445079  0.65878183  1
  Cr  Cr47  1  0.82949795  0.16469121  0.82642714  1
  Cr  Cr48  1  0.82975839  0.49279467  0.49489320  1
  Cr  Cr49  1  0.66041606  0.32612316  0.66281934  1
  Ni  Ni50  1  0.82859936  0.49165246  0.82887370  1
  Cr  Cr51  1  0.82744329  0.82738093  0.49015333  1
  Cr  Cr52  1  0.65855957  0.66280015  0.66208503  1
  Cr  Cr53  1  0.82979117  0.82525642  0.83035677  1
" 