6915,Ni19Fe72Cr8_6,-230.08637363196, 174.017199480604,Ni19Fe72Cr8,"# generated using pymatgen
 data_Cr5Fe39Ni10
_symmetry_space_group_name_H-M   'P 1'
_cell_length_a   7.42633689
_cell_length_b   7.42633689
_cell_length_c   10.50242635
_cell_angle_alpha   90.00000000
_cell_angle_beta   90.00000000
_cell_angle_gamma   90.00000000
_symmetry_Int_Tables_number   1
_chemical_formula_structural   Cr5Fe39Ni10
_chemical_formula_sum   'Cr5 Fe39 Ni10'
_cell_volume   579.21385057
_cell_formula_units_Z   1
loop_
 _symmetry_equiv_pos_site_id
 _symmetry_equiv_pos_as_xyz
  1  'x, y, z'
loop_
 _atom_site_type_symbol
 _atom_site_label
 _atom_site_symmetry_multiplicity
 _atom_site_fract_x
 _atom_site_fract_y
 _atom_site_fract_z
 _atom_site_occupancy
  Ni  Ni0  1  0.00509291  0.00345948  1.00228858  1
  Fe  Fe1  1  0.17127301  0.16738160  0.16846543  1
  Fe  Fe2  1  0.00275424  0.99904360  0.33616027  1
  Fe  Fe3  1  0.00410801  0.33605680  1.00159110  1
  Fe  Fe4  1  0.16950283  0.50409285  0.16863813  1
  Cr  Cr5  1  0.00357690  0.33613922  0.33674136  1
  Fe  Fe6  1  0.00446392  0.67021535  0.00322564  1
  Fe  Fe7  1  0.16836142  0.83706881  0.16795438  1
  Fe  Fe8  1  1.00216008  0.67148218  0.33589324  1
  Ni  Ni9  1  0.33461772  1.00224050  1.00250347  1
  Fe  Fe10  1  0.50072038  0.16835163  0.16869970  1
  Fe  Fe11  1  0.33660117  1.00197289  0.33529549  1
  Fe  Fe12  1  0.33446824  0.33593462  0.00317149  1
  Fe  Fe13  1  0.50399255  0.50340660  0.17013351  1
  Fe  Fe14  1  0.33793974  0.33572599  0.33566887  1
  Fe  Fe15  1  0.33533631  0.67126663  1.00236167  1
  Fe  Fe16  1  0.50391994  0.83654787  0.16847458  1
  Fe  Fe17  1  0.33538960  0.67031225  0.33495919  1
  Fe  Fe18  1  0.66817195  1.00083114  0.00274168  1
  Cr  Cr19  1  0.83551928  0.16699263  0.16744572  1
  Fe  Fe20  1  0.66904330  1.00128157  0.33683884  1
  Fe  Fe21  1  0.66979430  0.33673304  1.00199137  1
  Fe  Fe22  1  0.83507437  0.50580473  0.16789609  1
  Fe  Fe23  1  0.66822406  0.33647048  0.33564895  1
  Fe  Fe24  1  0.66857109  0.67049142  0.00308153  1
  Ni  Ni25  1  0.83742784  0.83547013  0.16956629  1
  Ni  Ni26  1  0.66962563  0.67070286  0.33489629  1
  Fe  Fe27  1  0.17143299  0.16865674  0.50393090  1
  Fe  Fe28  1  0.00374867  0.00350800  0.66976019  1
  Fe  Fe29  1  0.16735917  0.16766259  0.83621398  1
  Fe  Fe30  1  0.16894754  0.50371846  0.50412753  1
  Fe  Fe31  1  1.00185451  0.33694744  0.66931757  1
  Fe  Fe32  1  0.16915586  0.50290629  0.83566009  1
  Fe  Fe33  1  0.16977431  0.83572697  0.50363092  1
  Fe  Fe34  1  0.00371351  0.66780111  0.66946992  1
  Ni  Ni35  1  0.17082950  0.83537342  0.83596836  1
  Fe  Fe36  1  0.50176452  0.16772728  0.50352312  1
  Fe  Fe37  1  0.33579613  1.00078749  0.66978365  1
  Cr  Cr38  1  0.50322800  0.16907461  0.83585968  1
  Cr  Cr39  1  0.50195782  0.50260724  0.50396916  1
  Ni  Ni40  1  0.33297020  0.33501434  0.67005288  1
  Fe  Fe41  1  0.50366891  0.50500567  0.83485581  1
  Fe  Fe42  1  0.50365330  0.83658224  0.50347357  1
  Fe  Fe43  1  0.33564171  0.66974251  0.67073357  1
  Ni  Ni44  1  0.49995487  0.83511143  0.83566300  1
  Fe  Fe45  1  0.83483882  0.16854011  0.50421042  1
  Fe  Fe46  1  0.66875222  1.00260756  0.66831187  1
  Ni  Ni47  1  0.83755751  0.17132078  0.83577262  1
  Fe  Fe48  1  0.83587596  0.50530550  0.50439480  1
  Fe  Fe49  1  0.67093240  0.33688572  0.66999214  1
  Ni  Ni50  1  0.83672813  0.50128301  0.83656811  1
  Fe  Fe51  1  0.83494425  0.83461625  0.50219579  1
  Ni  Ni52  1  0.66997903  0.67039949  0.67093188  1
  Cr  Cr53  1  0.83722170  0.83762319  0.83730790  1
" 