6275,Ni19Fe68Cr11_3,-229.730370293304, 178.253663052167,Ni19Fe68Cr11,"# generated using pymatgen
 data_Cr7Fe37Ni10
_symmetry_space_group_name_H-M   'P 1'
_cell_length_a   7.43526724
_cell_length_b   7.43526724
_cell_length_c   10.51505577
_cell_angle_alpha   90.00000000
_cell_angle_beta   90.00000000
_cell_angle_gamma   90.00000000
_symmetry_Int_Tables_number   1
_chemical_formula_structural   Cr7Fe37Ni10
_chemical_formula_sum   'Cr7 Fe37 Ni10'
_cell_volume   581.30591949
_cell_formula_units_Z   1
loop_
 _symmetry_equiv_pos_site_id
 _symmetry_equiv_pos_as_xyz
  1  'x, y, z'
loop_
 _atom_site_type_symbol
 _atom_site_label
 _atom_site_symmetry_multiplicity
 _atom_site_fract_x
 _atom_site_fract_y
 _atom_site_fract_z
 _atom_site_occupancy
  Fe  Fe0  1  0.00245119  1.00161814  0.00348600  1
  Fe  Fe1  1  0.16760271  0.17238693  0.16714219  1
  Cr  Cr2  1  1.00056385  1.00068527  0.33082780  1
  Fe  Fe3  1  1.00032564  0.33755097  0.00366752  1
  Fe  Fe4  1  0.16857083  0.50161943  0.16807884  1
  Ni  Ni5  1  1.00161140  0.33767752  0.33382232  1
  Ni  Ni6  1  0.00311644  0.66810906  0.00224818  1
  Fe  Fe7  1  0.16973535  0.83283836  0.16658371  1
  Fe  Fe8  1  1.00057370  0.66536017  0.33333032  1
  Fe  Fe9  1  0.33583833  1.00020856  0.00267228  1
  Cr  Cr10  1  0.50141171  0.17043730  0.16939088  1
  Fe  Fe11  1  0.33750917  1.00154963  0.33460545  1
  Ni  Ni12  1  0.33590872  0.33796148  1.00204515  1
  Fe  Fe13  1  0.50293655  0.50370212  0.16793227  1
  Fe  Fe14  1  0.33504276  0.33820647  0.33440593  1
  Fe  Fe15  1  0.33587274  0.66906779  1.00125588  1
  Fe  Fe16  1  0.50380922  0.83304723  0.16841538  1
  Fe  Fe17  1  0.33615897  0.66674638  0.33477933  1
  Ni  Ni18  1  0.66916148  0.00233778  1.00166508  1
  Fe  Fe19  1  0.83450833  0.17194352  0.16809408  1
  Fe  Fe20  1  0.66784221  1.00170335  0.33461527  1
  Fe  Fe21  1  0.67026586  0.33727914  0.00230990  1
  Ni  Ni22  1  0.83461987  0.50290237  0.16912606  1
  Ni  Ni23  1  0.66790888  0.33780575  0.33573128  1
  Fe  Fe24  1  0.66902186  0.66668686  0.00258969  1
  Fe  Fe25  1  0.83312054  0.83347186  0.16557236  1
  Fe  Fe26  1  0.67014246  0.66746585  0.33535164  1
  Cr  Cr27  1  0.17056151  0.16964156  0.50106000  1
  Ni  Ni28  1  1.00109983  1.00115537  0.67074350  1
  Cr  Cr29  1  0.16877740  0.16723085  0.83624030  1
  Fe  Fe30  1  0.16820545  0.50172292  0.50165112  1
  Fe  Fe31  1  1.00114265  0.33774010  0.66928186  1
  Fe  Fe32  1  0.16839831  0.50469625  0.83660124  1
  Cr  Cr33  1  0.16769211  0.83439045  0.50322768  1
  Fe  Fe34  1  0.00242745  0.66661667  0.67074817  1
  Ni  Ni35  1  0.17039830  0.83529843  0.83605429  1
  Fe  Fe36  1  0.50240756  0.16907540  0.50115992  1
  Fe  Fe37  1  0.33772496  1.00073561  0.67002863  1
  Fe  Fe38  1  0.50435008  0.16944483  0.83729648  1
  Fe  Fe39  1  0.50181512  0.50148369  0.50288668  1
  Fe  Fe40  1  0.33743206  0.33729689  0.67081575  1
  Ni  Ni41  1  0.50362130  0.50163676  0.83723190  1
  Fe  Fe42  1  0.50422142  0.83594821  0.50176782  1
  Fe  Fe43  1  0.33640824  0.66812163  0.67096886  1
  Fe  Fe44  1  0.50135887  0.83407617  0.83614948  1
  Cr  Cr45  1  0.83481337  0.17005702  0.50245517  1
  Fe  Fe46  1  0.66699249  1.00205518  0.66993531  1
  Fe  Fe47  1  0.83361127  0.17029618  0.83503308  1
  Fe  Fe48  1  0.83629915  0.50390954  0.50123926  1
  Fe  Fe49  1  0.66790938  0.33685841  0.66967679  1
  Ni  Ni50  1  0.83349317  0.50121948  0.83526955  1
  Fe  Fe51  1  0.83360158  0.83393831  0.50389890  1
  Fe  Fe52  1  0.66792996  0.66713858  0.66855788  1
  Cr  Cr53  1  0.83708167  0.83325162  0.83568098  1
" 