4902,Ni19Fe72Cr8_2,-230.535764780682, 181.946754621589,Ni19Fe72Cr8,"# generated using pymatgen
 data_Cr5Fe39Ni10
_symmetry_space_group_name_H-M   'P 1'
_cell_length_a   7.42849486
_cell_length_b   7.42849486
_cell_length_c   10.50547817
_cell_angle_alpha   90.00000000
_cell_angle_beta   90.00000000
_cell_angle_gamma   90.00000000
_symmetry_Int_Tables_number   1
_chemical_formula_structural   Cr5Fe39Ni10
_chemical_formula_sum   'Cr5 Fe39 Ni10'
_cell_volume   579.71892555
_cell_formula_units_Z   1
loop_
 _symmetry_equiv_pos_site_id
 _symmetry_equiv_pos_as_xyz
  1  'x, y, z'
loop_
 _atom_site_type_symbol
 _atom_site_label
 _atom_site_symmetry_multiplicity
 _atom_site_fract_x
 _atom_site_fract_y
 _atom_site_fract_z
 _atom_site_occupancy
  Cr  Cr0  1  1.00157415  1.00235184  0.00394207  1
  Fe  Fe1  1  0.17026951  0.17087007  0.17052726  1
  Fe  Fe2  1  0.00261688  0.00264736  0.33571336  1
  Fe  Fe3  1  1.00015222  0.33757851  0.00421427  1
  Fe  Fe4  1  0.16880156  0.50284909  0.16928034  1
  Fe  Fe5  1  0.00305728  0.33493344  0.33565257  1
  Fe  Fe6  1  1.00206975  0.66761560  0.00506524  1
  Fe  Fe7  1  0.16974837  0.83406493  0.17009162  1
  Fe  Fe8  1  1.00225586  0.67020552  0.33557782  1
  Fe  Fe9  1  0.33839567  1.00159541  0.00386034  1
  Fe  Fe10  1  0.50337968  0.16955091  0.17023583  1
  Ni  Ni11  1  0.33695550  0.00318492  0.33598283  1
  Fe  Fe12  1  0.33811509  0.33639462  0.00491988  1
  Ni  Ni13  1  0.50173161  0.50197107  0.17020865  1
  Ni  Ni14  1  0.33554214  0.33631525  0.33581255  1
  Fe  Fe15  1  0.33719591  0.66979359  0.00313973  1
  Fe  Fe16  1  0.50386179  0.83542546  0.17036667  1
  Fe  Fe17  1  0.33716274  0.66978594  0.33600011  1
  Fe  Fe18  1  0.66733805  0.00351154  0.00368580  1
  Fe  Fe19  1  0.83413148  0.17049564  0.16959262  1
  Ni  Ni20  1  0.66952504  1.00167258  0.33478354  1
  Fe  Fe21  1  0.66951548  0.33637888  1.00226212  1
  Ni  Ni22  1  0.83583702  0.50371589  0.16802415  1
  Fe  Fe23  1  0.66794456  0.33529213  0.33524929  1
  Fe  Fe24  1  0.66852093  0.66789830  0.00406735  1
  Ni  Ni25  1  0.83517156  0.83525049  0.17132627  1
  Fe  Fe26  1  0.66836653  0.67022815  0.33563652  1
  Fe  Fe27  1  0.16997638  0.16813045  0.50225751  1
  Fe  Fe28  1  0.00377890  0.00265676  0.66794636  1
  Cr  Cr29  1  0.16936241  0.16882426  0.83425046  1
  Fe  Fe30  1  0.16943294  0.50345275  0.50269587  1
  Fe  Fe31  1  1.00021903  0.33528447  0.66791081  1
  Cr  Cr32  1  0.17051151  0.50289116  0.83735551  1
  Fe  Fe33  1  0.16955270  0.83620391  0.50261964  1
  Fe  Fe34  1  1.00214651  0.66984080  0.66714141  1
  Fe  Fe35  1  0.17202641  0.83505197  0.83507454  1
  Fe  Fe36  1  0.50189092  0.16844855  0.50069462  1
  Fe  Fe37  1  0.33515223  1.00127323  0.66760150  1
  Fe  Fe38  1  0.50410408  0.17076184  0.83685871  1
  Fe  Fe39  1  0.50280669  0.50350364  0.50255536  1
  Fe  Fe40  1  0.33820914  0.33615668  0.66724921  1
  Ni  Ni41  1  0.50336296  0.50263737  0.83494806  1
  Ni  Ni42  1  0.50276889  0.83509051  0.50120283  1
  Fe  Fe43  1  0.33766768  0.67035260  0.66864996  1
  Fe  Fe44  1  0.49987927  0.83511197  0.83617522  1
  Fe  Fe45  1  0.83592076  0.16856807  0.50234098  1
  Cr  Cr46  1  0.66878727  0.00355285  0.66983594  1
  Ni  Ni47  1  0.83491415  0.17129647  0.83599323  1
  Fe  Fe48  1  0.83554332  0.50393362  0.50222573  1
  Fe  Fe49  1  0.66935845  0.33779760  0.67026903  1
  Fe  Fe50  1  0.83383326  0.49980057  0.83645826  1
  Ni  Ni51  1  0.83605010  0.83576009  0.50083226  1
  Fe  Fe52  1  0.66797664  0.66679644  0.66807066  1
  Cr  Cr53  1  0.83565692  0.83537012  0.83569339  1
" 