6860,Ni19Cr81_17,-232.156523413683, 151.040149842855,Ni19Cr81,"# generated using pymatgen
 data_Cr5Ni22
_symmetry_space_group_name_H-M   'P 1'
_cell_length_a   7.47496149
_cell_length_b   7.47496149
_cell_length_c   10.57119192
_cell_angle_alpha   90.00000000
_cell_angle_beta   90.00000000
_cell_angle_gamma   90.00000000
_symmetry_Int_Tables_number   1
_chemical_formula_structural   Cr5Ni22
_chemical_formula_sum   'Cr10 Ni44'
_cell_volume   590.66586958
_cell_formula_units_Z   2
loop_
 _symmetry_equiv_pos_site_id
 _symmetry_equiv_pos_as_xyz
  1  'x, y, z'
loop_
 _atom_site_type_symbol
 _atom_site_label
 _atom_site_symmetry_multiplicity
 _atom_site_fract_x
 _atom_site_fract_y
 _atom_site_fract_z
 _atom_site_occupancy
  Ni  Ni0  1  0.99657123  0.99872778  0.99866360  1
  Cr  Cr1  1  0.16428465  0.16762775  0.16562822  1
  Ni  Ni2  1  0.99629287  -0.00029086  0.33459289  1
  Ni  Ni3  1  0.99741005  0.33280876  -0.00045993  1
  Ni  Ni4  1  0.16562610  0.49927647  0.16615603  1
  Ni  Ni5  1  0.99940021  0.33295850  0.33430962  1
  Ni  Ni6  1  -0.00014579  0.66685602  0.99870089  1
  Cr  Cr7  1  0.16373734  0.83129535  0.16540425  1
  Ni  Ni8  1  -0.00046337  0.66583760  0.33408357  1
  Ni  Ni9  1  0.33453127  -0.00027830  0.99734515  1
  Ni  Ni10  1  0.50200808  0.16680899  0.16508612  1
  Cr  Cr11  1  0.33331305  0.00113609  0.33626146  1
  Ni  Ni12  1  0.33360434  0.33163633  0.00078218  1
  Cr  Cr13  1  0.49798396  0.49816546  0.16754852  1
  Ni  Ni14  1  0.33264516  0.33405984  0.33411978  1
  Ni  Ni15  1  0.33056792  0.66700718  0.99873993  1
  Cr  Cr16  1  0.50179689  0.83409579  0.16687502  1
  Ni  Ni17  1  0.33133708  0.66387576  0.33531223  1
  Ni  Ni18  1  0.66732978  0.00175300  0.99909955  1
  Ni  Ni19  1  0.83151306  0.16469570  0.16619751  1
  Ni  Ni20  1  0.66837051  0.00088166  0.33322446  1
  Ni  Ni21  1  0.66746291  0.32877929  0.99847936  1
  Cr  Cr22  1  0.83438186  0.49900940  0.16715770  1
  Ni  Ni23  1  0.66634892  0.33080182  0.33429525  1
  Cr  Cr24  1  0.66861263  0.66785693  0.99694706  1
  Ni  Ni25  1  0.83357453  0.83532132  0.16722467  1
  Ni  Ni26  1  0.66754513  0.66684910  0.33590924  1
  Ni  Ni27  1  0.16461800  0.16670796  0.50059860  1
  Ni  Ni28  1  0.99832590  0.99851465  0.66499934  1
  Cr  Cr29  1  0.16544764  0.16445905  0.83147163  1
  Ni  Ni30  1  0.16573310  0.49947202  0.49888647  1
  Ni  Ni31  1  0.99742910  0.33299166  0.66436517  1
  Cr  Cr32  1  0.16485601  0.49975453  0.83300656  1
  Ni  Ni33  1  0.16474060  0.83221224  0.50074236  1
  Ni  Ni34  1  0.99849130  0.66688040  0.66581485  1
  Ni  Ni35  1  0.16572649  0.83319957  0.83273250  1
  Ni  Ni36  1  0.50109837  0.16680654  0.50030491  1
  Ni  Ni37  1  0.33377423  0.99873107  0.66553265  1
  Ni  Ni38  1  0.50101556  0.16453690  0.83311427  1
  Ni  Ni39  1  0.50020686  0.49952527  0.49928659  1
  Ni  Ni40  1  0.33375762  0.33173589  0.66299808  1
  Cr  Cr41  1  0.50030708  0.49808230  0.83119138  1
  Ni  Ni42  1  0.50097110  0.83211985  0.50040166  1
  Ni  Ni43  1  0.33248617  0.66792831  0.66446953  1
  Ni  Ni44  1  0.49905380  0.83502715  0.83179981  1
  Ni  Ni45  1  0.83266965  0.16583305  0.49933929  1
  Ni  Ni46  1  0.66630738  -0.00042007  0.66625203  1
  Ni  Ni47  1  0.83169593  0.16573188  0.83287052  1
  Ni  Ni48  1  0.83248059  0.49941693  0.50009313  1
  Ni  Ni49  1  0.66732833  0.33168577  0.66569294  1
  Ni  Ni50  1  0.83355744  0.49836634  0.83149150  1
  Ni  Ni51  1  0.83259301  0.83314342  0.49888869  1
  Ni  Ni52  1  0.66745910  0.66712763  0.66521528  1
  Ni  Ni53  1  0.83364388  0.83429152  0.83217053  1
" 