1757,Ni19Cr81_4,-232.204862951884, 152.761566126694,Ni19Cr81,"# generated using pymatgen
 data_Cr5Ni22
_symmetry_space_group_name_H-M   'P 1'
_cell_length_a   7.47326982
_cell_length_b   7.47326982
_cell_length_c   10.56879954
_cell_angle_alpha   90.00000000
_cell_angle_beta   90.00000000
_cell_angle_gamma   90.00000000
_symmetry_Int_Tables_number   1
_chemical_formula_structural   Cr5Ni22
_chemical_formula_sum   'Cr10 Ni44'
_cell_volume   590.26493716
_cell_formula_units_Z   2
loop_
 _symmetry_equiv_pos_site_id
 _symmetry_equiv_pos_as_xyz
  1  'x, y, z'
loop_
 _atom_site_type_symbol
 _atom_site_label
 _atom_site_symmetry_multiplicity
 _atom_site_fract_x
 _atom_site_fract_y
 _atom_site_fract_z
 _atom_site_occupancy
  Ni  Ni0  1  0.00140433  0.00140433  0.00004353  1
  Ni  Ni1  1  0.16429625  0.16429625  0.16563705  1
  Ni  Ni2  1  0.00056291  0.00056291  0.33172579  1
  Ni  Ni3  1  0.00011136  0.33041735  0.99886617  1
  Cr  Cr4  1  0.16601568  0.49602099  0.16768222  1
  Ni  Ni5  1  0.99859403  0.33175352  0.33370482  1
  Cr  Cr6  1  0.99814791  0.66797376  0.99919005  1
  Ni  Ni7  1  0.16583316  0.83628709  0.16840494  1
  Ni  Ni8  1  0.00015460  0.66645438  0.33321713  1
  Ni  Ni9  1  0.33041735  0.00011136  0.99886617  1
  Cr  Cr10  1  0.49602099  0.16601568  0.16768222  1
  Ni  Ni11  1  0.33175352  0.99859403  0.33370482  1
  Ni  Ni12  1  0.33040783  0.33040783  0.99582048  1
  Cr  Cr13  1  0.50029513  0.50029513  0.16739449  1
  Ni  Ni14  1  0.33169885  0.33169885  0.33644237  1
  Cr  Cr15  1  0.33335705  0.66938724  0.99800378  1
  Ni  Ni16  1  0.49999099  0.83339294  0.16804133  1
  Ni  Ni17  1  0.33251607  0.66832098  0.33476796  1
  Cr  Cr18  1  0.66797376  0.99814791  0.99919005  1
  Ni  Ni19  1  0.83628709  0.16583316  0.16840494  1
  Ni  Ni20  1  0.66645438  0.00015460  0.33321713  1
  Cr  Cr21  1  0.66938724  0.33335705  0.99800378  1
  Ni  Ni22  1  0.83339294  0.49999099  0.16804133  1
  Ni  Ni23  1  0.66832098  0.33251607  0.33476796  1
  Ni  Ni24  1  0.66708087  0.66708087  0.99870413  1
  Ni  Ni25  1  0.83310937  0.83310937  0.16778017  1
  Ni  Ni26  1  0.66643042  0.66643042  0.33246101  1
  Ni  Ni27  1  0.16622520  0.16622520  0.49970626  1
  Ni  Ni28  1  0.00082489  0.00082489  0.66729969  1
  Ni  Ni29  1  0.16610062  0.16610062  0.83337857  1
  Ni  Ni30  1  0.16508686  0.49832112  0.49890762  1
  Ni  Ni31  1  0.00064264  0.33259538  0.66606902  1
  Ni  Ni32  1  0.16498964  0.49672847  0.83179942  1
  Ni  Ni33  1  0.16638510  0.83424271  0.49871725  1
  Ni  Ni34  1  0.99953437  0.66540205  0.66694919  1
  Ni  Ni35  1  0.16483736  0.83599764  0.83161035  1
  Ni  Ni36  1  0.49832112  0.16508686  0.49890762  1
  Ni  Ni37  1  0.33259538  0.00064264  0.66606902  1
  Ni  Ni38  1  0.49672847  0.16498964  0.83179942  1
  Ni  Ni39  1  0.49945439  0.49945439  0.49746246  1
  Ni  Ni40  1  0.33126320  0.33126320  0.66625928  1
  Ni  Ni41  1  0.49939707  0.49939707  0.83328481  1
  Ni  Ni42  1  0.49954925  0.83401792  0.49860636  1
  Cr  Cr43  1  0.33171526  0.66640550  0.66516028  1
  Ni  Ni44  1  0.50073445  0.83411172  0.83204393  1
  Ni  Ni45  1  0.83424271  0.16638510  0.49871725  1
  Ni  Ni46  1  0.66540205  0.99953437  0.66694919  1
  Ni  Ni47  1  0.83599764  0.16483736  0.83161035  1
  Ni  Ni48  1  0.83401792  0.49954925  0.49860636  1
  Cr  Cr49  1  0.66640550  0.33171526  0.66516028  1
  Ni  Ni50  1  0.83411172  0.50073445  0.83204393  1
  Cr  Cr51  1  0.83343849  0.83343849  0.50165679  1
  Ni  Ni52  1  0.66642086  0.66642086  0.66798339  1
  Ni  Ni53  1  0.83308269  0.83308269  0.83099599  1
" 