7022,Ni19Fe13Cr66_18,-212.101152939951, 164.37588049139,Ni19Fe13Cr66,"# generated using pymatgen
 data_Cr37Fe7Ni10
_symmetry_space_group_name_H-M   'P 1'
_cell_length_a   7.55519802
_cell_length_b   7.55519802
_cell_length_c   10.68466351
_cell_angle_alpha   90.00000000
_cell_angle_beta   90.00000000
_cell_angle_gamma   90.00000000
_symmetry_Int_Tables_number   1
_chemical_formula_structural   Cr37Fe7Ni10
_chemical_formula_sum   'Cr37 Fe7 Ni10'
_cell_volume   609.89146136
_cell_formula_units_Z   1
loop_
 _symmetry_equiv_pos_site_id
 _symmetry_equiv_pos_as_xyz
  1  'x, y, z'
loop_
 _atom_site_type_symbol
 _atom_site_label
 _atom_site_symmetry_multiplicity
 _atom_site_fract_x
 _atom_site_fract_y
 _atom_site_fract_z
 _atom_site_occupancy
  Cr  Cr0  1  -0.00582212  -0.00427209  -0.00500792  1
  Cr  Cr1  1  0.16055911  0.16210969  0.16351284  1
  Fe  Fe2  1  -0.00560418  -0.00533008  0.32738162  1
  Ni  Ni3  1  0.99064166  0.32777809  0.99221730  1
  Cr  Cr4  1  0.16082353  0.49266385  0.16074310  1
  Ni  Ni5  1  -0.00490574  0.32642903  0.32709402  1
  Cr  Cr6  1  0.99265847  0.65756176  -0.00535255  1
  Cr  Cr7  1  0.16227759  0.82762049  0.16233334  1
  Cr  Cr8  1  0.99331681  0.65901448  0.32610670  1
  Cr  Cr9  1  0.32908223  0.99222110  -0.00519159  1
  Cr  Cr10  1  0.49284012  0.16035036  0.16107877  1
  Fe  Fe11  1  0.32876868  0.99101871  0.32775380  1
  Cr  Cr12  1  0.32619648  0.32603001  -0.00563406  1
  Cr  Cr13  1  0.49479044  0.49637884  0.16314236  1
  Fe  Fe14  1  0.32768029  0.33083227  0.32851105  1
  Cr  Cr15  1  0.32804013  0.66415284  0.99247592  1
  Ni  Ni16  1  0.49353626  0.82568518  0.16356371  1
  Ni  Ni17  1  0.33122526  0.66366538  0.32953675  1
  Cr  Cr18  1  0.65920884  -0.00576233  0.99305366  1
  Cr  Cr19  1  0.82926610  0.16195105  0.16118505  1
  Cr  Cr20  1  0.65871494  0.99279338  0.32764694  1
  Cr  Cr21  1  0.66529414  0.32747589  -0.00575331  1
  Ni  Ni22  1  0.82870259  0.49287926  0.16095489  1
  Cr  Cr23  1  0.66252720  0.33000391  0.32737818  1
  Cr  Cr24  1  0.66147390  0.66081562  -0.00395552  1
  Cr  Cr25  1  0.82498211  0.82560264  0.16332525  1
  Ni  Ni26  1  0.65601095  0.66154507  0.32781305  1
  Cr  Cr27  1  0.15924208  0.16107322  0.49176183  1
  Fe  Fe28  1  0.99283740  -0.00393784  0.66180598  1
  Cr  Cr29  1  0.15820647  0.16231428  0.82732487  1
  Cr  Cr30  1  0.16350809  0.49321726  0.49326676  1
  Fe  Fe31  1  0.99309472  0.32668509  0.66180628  1
  Cr  Cr32  1  0.15987194  0.49286990  0.82806136  1
  Cr  Cr33  1  0.16018191  0.82831288  0.49305283  1
  Cr  Cr34  1  -0.00582541  0.65972999  0.66195616  1
  Cr  Cr35  1  0.16054744  0.82713839  0.82749934  1
  Cr  Cr36  1  0.49400589  0.16169820  0.49334656  1
  Cr  Cr37  1  0.32868926  0.99257269  0.66137482  1
  Cr  Cr38  1  0.49701603  0.15999177  0.82808212  1
  Ni  Ni39  1  0.49328751  0.49775118  0.49107335  1
  Cr  Cr40  1  0.32806784  0.32764735  0.65844836  1
  Cr  Cr41  1  0.49423534  0.49540236  0.82769399  1
  Ni  Ni42  1  0.49418594  0.82492419  0.49241156  1
  Cr  Cr43  1  0.32852766  0.66241549  0.66010826  1
  Ni  Ni44  1  0.49675837  0.82765420  0.82653506  1
  Cr  Cr45  1  0.82936062  0.15855702  0.49610690  1
  Fe  Fe46  1  0.65991123  0.99307106  0.66141506  1
  Ni  Ni47  1  0.82967684  0.16219346  0.82530911  1
  Cr  Cr48  1  0.82603660  0.49462472  0.49307825  1
  Cr  Cr49  1  0.66266971  0.32655675  0.66116521  1
  Fe  Fe50  1  0.82783673  0.49175919  0.82815973  1
  Cr  Cr51  1  0.82558565  0.82908817  0.49407804  1
  Cr  Cr52  1  0.65940947  0.66072682  0.65871446  1
  Cr  Cr53  1  0.82576587  0.82972484  0.82542739  1
" 