1614,Ni19Cr81_15,-232.241838371172, 155.113215200411,Ni19Cr81,"# generated using pymatgen
 data_Cr5Ni22
_symmetry_space_group_name_H-M   'P 1'
_cell_length_a   7.47609909
_cell_length_b   7.47609909
_cell_length_c   10.57280072
_cell_angle_alpha   90.00000000
_cell_angle_beta   90.00000000
_cell_angle_gamma   90.00000000
_symmetry_Int_Tables_number   1
_chemical_formula_structural   Cr5Ni22
_chemical_formula_sum   'Cr10 Ni44'
_cell_volume   590.93558614
_cell_formula_units_Z   2
loop_
 _symmetry_equiv_pos_site_id
 _symmetry_equiv_pos_as_xyz
  1  'x, y, z'
loop_
 _atom_site_type_symbol
 _atom_site_label
 _atom_site_symmetry_multiplicity
 _atom_site_fract_x
 _atom_site_fract_y
 _atom_site_fract_z
 _atom_site_occupancy
  Cr  Cr0  1  -0.00003416  0.99866446  0.99881377  1
  Ni  Ni1  1  0.16611161  0.16592023  0.16598193  1
  Ni  Ni2  1  0.00179432  0.99832733  0.33242101  1
  Ni  Ni3  1  0.99895882  0.33318011  0.00057889  1
  Ni  Ni4  1  0.16523573  0.50033845  0.16528913  1
  Ni  Ni5  1  0.00034620  0.33289711  0.33070686  1
  Ni  Ni6  1  -0.00005310  0.66551445  0.00003599  1
  Ni  Ni7  1  0.16724338  0.83188330  0.16669502  1
  Ni  Ni8  1  0.00047914  0.66691119  0.33206306  1
  Ni  Ni9  1  0.33251729  -0.00052607  -0.00035842  1
  Ni  Ni10  1  0.49828541  0.16696161  0.16524225  1
  Ni  Ni11  1  0.33002043  0.99898432  0.33159456  1
  Ni  Ni12  1  0.33350241  0.33208845  -0.00018459  1
  Ni  Ni13  1  0.49925172  0.49942976  0.16623169  1
  Cr  Cr14  1  0.33230112  0.33319270  0.33467363  1
  Ni  Ni15  1  0.33232164  0.66659202  0.00041971  1
  Ni  Ni16  1  0.49607067  0.83187272  0.16670714  1
  Ni  Ni17  1  0.33182379  0.66624739  0.33190797  1
  Cr  Cr18  1  0.66484406  -0.00031516  -0.00051484  1
  Ni  Ni19  1  0.83363597  0.16895102  0.16690294  1
  Cr  Cr20  1  0.66546811  0.99898991  0.32982774  1
  Ni  Ni21  1  0.66568741  0.33299362  -0.00056988  1
  Ni  Ni22  1  0.83369468  0.49835078  0.16659084  1
  Ni  Ni23  1  0.66520389  0.33454110  0.33088801  1
  Cr  Cr24  1  0.66620054  0.66578175  -0.00055908  1
  Ni  Ni25  1  0.83484338  0.83078020  0.16857820  1
  Ni  Ni26  1  0.66600107  0.66455671  0.33117462  1
  Ni  Ni27  1  0.16743738  0.16376085  0.49942994  1
  Ni  Ni28  1  0.00042323  0.99700202  0.66653393  1
  Ni  Ni29  1  0.16793608  0.16445421  0.83280541  1
  Ni  Ni30  1  0.16732087  0.50170997  0.49924457  1
  Cr  Cr31  1  0.00220791  0.33225007  0.66663325  1
  Cr  Cr32  1  0.16714949  0.50064455  0.83460973  1
  Ni  Ni33  1  0.16521581  0.83276039  0.49940992  1
  Ni  Ni34  1  -0.00035782  0.66930050  0.66621973  1
  Ni  Ni35  1  0.16745588  0.83335001  0.83193891  1
  Ni  Ni36  1  0.49793242  0.16703503  0.50126919  1
  Ni  Ni37  1  0.33173387  0.00028238  0.66688721  1
  Ni  Ni38  1  0.49849945  0.16655597  0.83188715  1
  Ni  Ni39  1  0.49885104  0.49920340  0.50051129  1
  Ni  Ni40  1  0.33514968  0.33214677  0.66495556  1
  Ni  Ni41  1  0.49992481  0.49868991  0.83164080  1
  Cr  Cr42  1  0.49889000  0.83235966  0.49969342  1
  Ni  Ni43  1  0.33276523  0.66575875  0.66586618  1
  Ni  Ni44  1  0.49706564  0.83293387  0.83147518  1
  Cr  Cr45  1  0.83193161  0.16435525  0.49872104  1
  Ni  Ni46  1  0.66605743  0.99904896  0.66803660  1
  Ni  Ni47  1  0.83176132  0.16721117  0.83201014  1
  Cr  Cr48  1  0.83158190  0.50135807  0.49838882  1
  Ni  Ni49  1  0.66265259  0.33296974  0.66783075  1
  Ni  Ni50  1  0.83139404  0.49916963  0.83312114  1
  Ni  Ni51  1  0.83511480  0.83193919  0.50030698  1
  Ni  Ni52  1  0.66585047  0.66616171  0.66757225  1
  Ni  Ni53  1  0.83360983  0.83178900  0.82917329  1
" 