3795,Ni19Fe68Cr11_10,-229.402359222367, 177.624601009938,Ni19Fe68Cr11,"# generated using pymatgen
 data_Cr7Fe37Ni10
_symmetry_space_group_name_H-M   'P 1'
_cell_length_a   7.43355655
_cell_length_b   7.43355655
_cell_length_c   10.51263649
_cell_angle_alpha   90.00000000
_cell_angle_beta   90.00000000
_cell_angle_gamma   90.00000000
_symmetry_Int_Tables_number   1
_chemical_formula_structural   Cr7Fe37Ni10
_chemical_formula_sum   'Cr7 Fe37 Ni10'
_cell_volume   580.90477516
_cell_formula_units_Z   1
loop_
 _symmetry_equiv_pos_site_id
 _symmetry_equiv_pos_as_xyz
  1  'x, y, z'
loop_
 _atom_site_type_symbol
 _atom_site_label
 _atom_site_symmetry_multiplicity
 _atom_site_fract_x
 _atom_site_fract_y
 _atom_site_fract_z
 _atom_site_occupancy
  Fe  Fe0  1  1.00167569  1.00205083  1.00213681  1
  Fe  Fe1  1  0.16843337  0.16961094  0.16843315  1
  Fe  Fe2  1  1.00156451  1.00156635  0.33452963  1
  Fe  Fe3  1  1.00054855  0.33482646  0.00321746  1
  Fe  Fe4  1  0.16891618  0.50266189  0.16912643  1
  Ni  Ni5  1  0.00335223  0.33722934  0.33580649  1
  Fe  Fe6  1  0.00226871  0.66988633  0.00301237  1
  Fe  Fe7  1  0.16849420  0.83448181  0.16882779  1
  Ni  Ni8  1  1.00223505  0.66622507  0.33546657  1
  Fe  Fe9  1  0.33677225  1.00202757  0.00234363  1
  Fe  Fe10  1  0.50349471  0.16846498  0.16770811  1
  Cr  Cr11  1  0.33605916  1.00132877  0.33660662  1
  Fe  Fe12  1  0.33728623  0.33423439  0.00264775  1
  Fe  Fe13  1  0.50157960  0.50237916  0.17042803  1
  Fe  Fe14  1  0.33508965  0.33851919  0.33516292  1
  Fe  Fe15  1  0.33558385  0.67049961  0.00307307  1
  Ni  Ni16  1  0.50259306  0.83619307  0.17001251  1
  Fe  Fe17  1  0.33589401  0.66776132  0.33606921  1
  Ni  Ni18  1  0.66814802  0.00356897  1.00181916  1
  Fe  Fe19  1  0.83483154  0.16804696  0.16943346  1
  Ni  Ni20  1  0.66842922  1.00048330  0.33315891  1
  Fe  Fe21  1  0.66892414  0.33364683  1.00145286  1
  Fe  Fe22  1  0.83626290  0.50231125  0.16989731  1
  Fe  Fe23  1  0.66958569  0.33770364  0.33450447  1
  Cr  Cr24  1  0.66861439  0.66931265  1.00074128  1
  Fe  Fe25  1  0.83511536  0.83639766  0.17034901  1
  Ni  Ni26  1  0.66841586  0.66877427  0.33639779  1
  Fe  Fe27  1  0.16825562  0.16976959  0.50281801  1
  Fe  Fe28  1  0.00439409  1.00175241  0.67007610  1
  Fe  Fe29  1  0.16898487  0.16810736  0.83551775  1
  Fe  Fe30  1  0.16807481  0.50179289  0.50117117  1
  Fe  Fe31  1  1.00210936  0.33597268  0.66875596  1
  Cr  Cr32  1  0.16755670  0.50271597  0.83713986  1
  Ni  Ni33  1  0.16796293  0.83442516  0.50179368  1
  Fe  Fe34  1  1.00082295  0.66903170  0.66860170  1
  Fe  Fe35  1  0.16811410  0.83766613  0.83568883  1
  Cr  Cr36  1  0.50244856  0.17019950  0.50165573  1
  Fe  Fe37  1  0.33466202  0.00298812  0.66948549  1
  Ni  Ni38  1  0.50285796  0.16818194  0.83638623  1
  Ni  Ni39  1  0.50185164  0.50229032  0.50126358  1
  Fe  Fe40  1  0.33622941  0.33403453  0.66895087  1
  Fe  Fe41  1  0.50415688  0.50017942  0.83494162  1
  Fe  Fe42  1  0.50247114  0.83380805  0.50121762  1
  Cr  Cr43  1  0.33729780  0.67012445  0.66708127  1
  Fe  Fe44  1  0.50290419  0.83721836  0.83643010  1
  Cr  Cr45  1  0.83591691  0.16928788  0.50122650  1
  Fe  Fe46  1  0.66770326  1.00168408  0.67147783  1
  Fe  Fe47  1  0.83493069  0.16935990  0.83563021  1
  Fe  Fe48  1  0.83570381  0.50284523  0.50206510  1
  Fe  Fe49  1  0.66841359  0.33760543  0.67078216  1
  Ni  Ni50  1  0.83574620  0.50197675  0.83399620  1
  Cr  Cr51  1  0.83651756  0.83462520  0.50087127  1
  Fe  Fe52  1  0.66965361  0.66746156  0.66937103  1
  Fe  Fe53  1  0.83573668  0.83634829  0.83488685  1
" 