2887,Ni19Cr81_7,-232.452683271636, 158.030988059177,Ni19Cr81,"# generated using pymatgen
 data_Cr5Ni22
_symmetry_space_group_name_H-M   'P 1'
_cell_length_a   7.47449854
_cell_length_b   7.47449854
_cell_length_c   10.57053721
_cell_angle_alpha   90.00000000
_cell_angle_beta   90.00000000
_cell_angle_gamma   90.00000000
_symmetry_Int_Tables_number   1
_chemical_formula_structural   Cr5Ni22
_chemical_formula_sum   'Cr10 Ni44'
_cell_volume   590.55613038
_cell_formula_units_Z   2
loop_
 _symmetry_equiv_pos_site_id
 _symmetry_equiv_pos_as_xyz
  1  'x, y, z'
loop_
 _atom_site_type_symbol
 _atom_site_label
 _atom_site_symmetry_multiplicity
 _atom_site_fract_x
 _atom_site_fract_y
 _atom_site_fract_z
 _atom_site_occupancy
  Ni  Ni0  1  0.99860939  0.99649593  0.00015966  1
  Cr  Cr1  1  0.16517580  0.16418078  0.16635559  1
  Ni  Ni2  1  0.99896589  0.99855299  0.33367159  1
  Ni  Ni3  1  0.99450958  0.33374846  0.00001202  1
  Cr  Cr4  1  0.16453677  0.50106818  0.16825065  1
  Ni  Ni5  1  0.99773355  0.33283265  0.33482395  1
  Ni  Ni6  1  0.99572768  0.66829489  -0.00031413  1
  Ni  Ni7  1  0.16541279  0.83363711  0.16659205  1
  Ni  Ni8  1  0.00066844  0.66715562  0.33308832  1
  Ni  Ni9  1  0.33432505  0.99781994  0.99924356  1
  Ni  Ni10  1  0.50237489  0.16500306  0.16657418  1
  Ni  Ni11  1  0.33336400  0.99878405  0.33308794  1
  Cr  Cr12  1  0.33693553  0.33071586  0.99910402  1
  Ni  Ni13  1  0.50228369  0.49885518  0.16682083  1
  Ni  Ni14  1  0.33476651  0.33272210  0.33486311  1
  Cr  Cr15  1  0.33405807  0.66952623  -0.00022441  1
  Ni  Ni16  1  0.49974420  0.83462459  0.16588187  1
  Ni  Ni17  1  0.33166351  0.66701432  0.33373582  1
  Ni  Ni18  1  0.66554564  0.99894010  0.00033429  1
  Ni  Ni19  1  0.83088697  0.16614649  0.16612382  1
  Ni  Ni20  1  0.66620072  0.00166093  0.33285340  1
  Ni  Ni21  1  0.66725864  0.33370569  0.00073394  1
  Ni  Ni22  1  0.83192847  0.49861691  0.16439361  1
  Ni  Ni23  1  0.66602569  0.33109548  0.33200124  1
  Ni  Ni24  1  0.66844914  0.66585063  0.99864475  1
  Ni  Ni25  1  0.83333282  0.83375453  0.16481646  1
  Cr  Cr26  1  0.66651152  0.66614138  0.33315051  1
  Ni  Ni27  1  0.16590115  0.16663223  0.50018627  1
  Ni  Ni28  1  -0.00008948  0.99925808  0.66464213  1
  Cr  Cr29  1  0.16647581  0.16430673  0.83193998  1
  Ni  Ni30  1  0.16711658  0.49829827  0.49864847  1
  Ni  Ni31  1  0.00051268  0.33200213  0.66367634  1
  Cr  Cr32  1  0.16512402  0.49954957  0.83192552  1
  Ni  Ni33  1  0.16717278  0.83358080  0.49840036  1
  Cr  Cr34  1  0.99820873  0.66738289  0.66542919  1
  Ni  Ni35  1  0.16648313  0.83445114  0.83351299  1
  Ni  Ni36  1  0.49857790  0.16517391  0.49860284  1
  Ni  Ni37  1  0.33349213  0.99879210  0.66616771  1
  Ni  Ni38  1  0.49943974  0.16410278  0.83330651  1
  Ni  Ni39  1  0.49737491  0.49973776  0.49974218  1
  Ni  Ni40  1  0.33313637  0.33259859  0.66461703  1
  Ni  Ni41  1  0.50212198  0.50092003  0.83196840  1
  Ni  Ni42  1  0.49876273  0.83357909  0.50083082  1
  Ni  Ni43  1  0.33522499  0.66710891  0.66529791  1
  Ni  Ni44  1  0.50062211  0.83343135  0.83185051  1
  Ni  Ni45  1  0.83403723  0.16519295  0.49841547  1
  Ni  Ni46  1  0.66512382  0.99703161  0.66528795  1
  Cr  Cr47  1  0.83249869  0.16508425  0.83368441  1
  Ni  Ni48  1  0.83404563  0.49846549  0.49880165  1
  Cr  Cr49  1  0.66545920  0.33364463  0.66539984  1
  Ni  Ni50  1  0.83093722  0.50144187  0.83527641  1
  Ni  Ni51  1  0.83256298  0.83483877  0.49993962  1
  Ni  Ni52  1  0.66440817  0.66773051  0.66700620  1
  Ni  Ni53  1  0.83135895  0.83180462  0.83374979  1
" 