71,Ni19Fe13Cr66_2,-212.215990537019, 166.301358846611,Ni19Fe13Cr66,"# generated using pymatgen
 data_Cr37Fe7Ni10
_symmetry_space_group_name_H-M   'P 1'
_cell_length_a   7.55244558
_cell_length_b   7.55244558
_cell_length_c   10.68077097
_cell_angle_alpha   90.00000000
_cell_angle_beta   90.00000000
_cell_angle_gamma   90.00000000
_symmetry_Int_Tables_number   1
_chemical_formula_structural   Cr37Fe7Ni10
_chemical_formula_sum   'Cr37 Fe7 Ni10'
_cell_volume   609.22513389
_cell_formula_units_Z   1
loop_
 _symmetry_equiv_pos_site_id
 _symmetry_equiv_pos_as_xyz
  1  'x, y, z'
loop_
 _atom_site_type_symbol
 _atom_site_label
 _atom_site_symmetry_multiplicity
 _atom_site_fract_x
 _atom_site_fract_y
 _atom_site_fract_z
 _atom_site_occupancy
  Cr  Cr0  1  -0.00341942  0.99385044  -0.00475052  1
  Ni  Ni1  1  0.16404666  0.15865586  0.16103407  1
  Cr  Cr2  1  -0.00296930  -0.00454328  0.33031540  1
  Fe  Fe3  1  -0.00333482  0.32968151  -0.00387921  1
  Fe  Fe4  1  0.15884692  0.49358459  0.15955743  1
  Cr  Cr5  1  -0.00552957  0.32725903  0.32704630  1
  Fe  Fe6  1  -0.00341247  0.65893887  -0.00397753  1
  Ni  Ni7  1  0.16231046  0.83002138  0.16019971  1
  Cr  Cr8  1  0.99429272  0.66034746  0.32430523  1
  Ni  Ni9  1  0.32539365  -0.00469148  -0.00152521  1
  Ni  Ni10  1  0.49018514  0.16036237  0.16168679  1
  Ni  Ni11  1  0.32821155  -0.00300153  0.32553894  1
  Cr  Cr12  1  0.32546472  0.32679947  -0.00439581  1
  Cr  Cr13  1  0.49737574  0.49265904  0.16429848  1
  Cr  Cr14  1  0.32824322  0.32432743  0.32715858  1
  Cr  Cr15  1  0.32441964  0.66077194  0.99383152  1
  Cr  Cr16  1  0.49101231  0.83024032  0.16169940  1
  Cr  Cr17  1  0.32669727  0.66190053  0.32659238  1
  Cr  Cr18  1  0.65842204  -0.00497282  0.99245663  1
  Cr  Cr19  1  0.82823761  0.16444461  0.15994661  1
  Cr  Cr20  1  0.65904192  -0.00337601  0.32915419  1
  Cr  Cr21  1  0.66104533  0.32749260  -0.00412790  1
  Ni  Ni22  1  0.82959883  0.49403018  0.16103346  1
  Fe  Fe23  1  0.66051705  0.32574959  0.32754782  1
  Cr  Cr24  1  0.66263962  0.66056240  -0.00518586  1
  Cr  Cr25  1  0.82951372  0.82485835  0.16110436  1
  Fe  Fe26  1  0.66136371  0.65982652  0.32664033  1
  Fe  Fe27  1  0.16334237  0.16138798  0.49363724  1
  Cr  Cr28  1  0.99277675  -0.00440570  0.65727847  1
  Cr  Cr29  1  0.16150391  0.16291227  0.82786322  1
  Cr  Cr30  1  0.16284805  0.49334721  0.49765849  1
  Cr  Cr31  1  -0.00291535  0.32697357  0.66044733  1
  Ni  Ni32  1  0.16110669  0.49432346  0.82778979  1
  Cr  Cr33  1  0.16257389  0.82917874  0.49399943  1
  Cr  Cr34  1  -0.00383816  0.66057790  0.66267733  1
  Cr  Cr35  1  0.16206495  0.82671049  0.82796088  1
  Ni  Ni36  1  0.49388520  0.16179164  0.49339486  1
  Cr  Cr37  1  0.32831045  -0.00334901  0.65932010  1
  Cr  Cr38  1  0.49252348  0.16112807  0.82933413  1
  Cr  Cr39  1  0.49395169  0.49282657  0.49496797  1
  Ni  Ni40  1  0.32678743  0.32882658  0.66039221  1
  Cr  Cr41  1  0.49118268  0.49387283  0.82358814  1
  Cr  Cr42  1  0.49254300  0.82758274  0.49348560  1
  Fe  Fe43  1  0.32653645  0.65842801  0.66194170  1
  Cr  Cr44  1  0.49230036  0.82795090  0.82775901  1
  Ni  Ni45  1  0.82589115  0.16209503  0.49406345  1
  Cr  Cr46  1  0.66196335  -0.00451372  0.66150772  1
  Cr  Cr47  1  0.82904978  0.16186363  0.82840812  1
  Cr  Cr48  1  0.82611065  0.49247311  0.49113328  1
  Cr  Cr49  1  0.65901968  0.32554104  0.65943322  1
  Cr  Cr50  1  0.83036615  0.49327174  0.83012678  1
  Cr  Cr51  1  0.82790383  0.82831971  0.49381333  1
  Cr  Cr52  1  0.66005618  0.66191480  0.66133564  1
  Cr  Cr53  1  0.82864329  0.82789321  0.82807915  1
" 