3766,Ni19Fe72Cr8_19,-229.771899399902, 176.342847765111,Ni19Fe72Cr8,"# generated using pymatgen
 data_Cr5Fe39Ni10
_symmetry_space_group_name_H-M   'P 1'
_cell_length_a   7.42328650
_cell_length_b   7.42328650
_cell_length_c   10.49811245
_cell_angle_alpha   90.00000000
_cell_angle_beta   90.00000000
_cell_angle_gamma   90.00000000
_symmetry_Int_Tables_number   1
_chemical_formula_structural   Cr5Fe39Ni10
_chemical_formula_sum   'Cr5 Fe39 Ni10'
_cell_volume   578.50040257
_cell_formula_units_Z   1
loop_
 _symmetry_equiv_pos_site_id
 _symmetry_equiv_pos_as_xyz
  1  'x, y, z'
loop_
 _atom_site_type_symbol
 _atom_site_label
 _atom_site_symmetry_multiplicity
 _atom_site_fract_x
 _atom_site_fract_y
 _atom_site_fract_z
 _atom_site_occupancy
  Fe  Fe0  1  0.00412159  1.00241586  0.00392492  1
  Fe  Fe1  1  0.16950000  0.16917822  0.16917976  1
  Fe  Fe2  1  1.00255871  0.00440236  0.33596633  1
  Ni  Ni3  1  0.00451666  0.33737082  0.00466534  1
  Fe  Fe4  1  0.17068816  0.50288510  0.16817614  1
  Fe  Fe5  1  0.00440264  0.33471640  0.33634298  1
  Fe  Fe6  1  0.00297012  0.66868494  1.00238472  1
  Fe  Fe7  1  0.17068626  0.83678386  0.16879836  1
  Cr  Cr8  1  0.00393067  0.67048063  0.33525499  1
  Fe  Fe9  1  0.33617739  0.00353791  0.00323541  1
  Fe  Fe10  1  0.50176590  0.16728713  0.16946675  1
  Fe  Fe11  1  0.33646611  1.00275648  0.33615519  1
  Ni  Ni12  1  0.33528880  0.33648623  1.00283423  1
  Fe  Fe13  1  0.50136005  0.50555157  0.16926882  1
  Fe  Fe14  1  0.33468632  0.33642068  0.33591152  1
  Ni  Ni15  1  0.33544625  0.67054097  0.00377183  1
  Ni  Ni16  1  0.50378821  0.83588047  0.17019827  1
  Fe  Fe17  1  0.33830176  0.66966495  0.33559772  1
  Fe  Fe18  1  0.66854405  1.00046600  0.00352562  1
  Fe  Fe19  1  0.83757645  0.16728829  0.16938510  1
  Fe  Fe20  1  0.66981609  1.00078697  0.33627474  1
  Cr  Cr21  1  0.66934686  0.33610527  0.00306952  1
  Fe  Fe22  1  0.83679481  0.50436740  0.16828907  1
  Cr  Cr23  1  0.66965128  0.33540907  0.33575610  1
  Fe  Fe24  1  0.66959036  0.67053067  0.00308031  1
  Ni  Ni25  1  0.83415366  0.83730989  0.16875668  1
  Fe  Fe26  1  0.66811452  0.67150295  0.33571682  1
  Fe  Fe27  1  0.16937452  0.16997990  0.50306855  1
  Fe  Fe28  1  1.00282049  1.00203987  0.66894880  1
  Fe  Fe29  1  0.16989833  0.17048144  0.83659386  1
  Fe  Fe30  1  0.16993168  0.50215188  0.50413463  1
  Ni  Ni31  1  0.00438068  0.33843885  0.66795390  1
  Fe  Fe32  1  0.16818240  0.50294179  0.83653372  1
  Fe  Fe33  1  0.17023971  0.83671454  0.50388974  1
  Ni  Ni34  1  0.00367791  0.66964565  0.67061218  1
  Fe  Fe35  1  0.16848391  0.83542444  0.83615554  1
  Fe  Fe36  1  0.50170963  0.16785457  0.50322024  1
  Fe  Fe37  1  0.33598657  0.00323815  0.66945367  1
  Fe  Fe38  1  0.50096320  0.16803208  0.83615295  1
  Fe  Fe39  1  0.50130951  0.50442285  0.50272794  1
  Fe  Fe40  1  0.33439070  0.33612648  0.66994804  1
  Fe  Fe41  1  0.50205367  0.50476266  0.83684708  1
  Fe  Fe42  1  0.50312233  0.83656228  0.50261035  1
  Fe  Fe43  1  0.33595206  0.66947796  0.66989298  1
  Fe  Fe44  1  0.50418982  0.83604730  0.83671687  1
  Fe  Fe45  1  0.83775667  0.16816288  0.50349004  1
  Ni  Ni46  1  0.66808302  1.00149556  0.66841918  1
  Cr  Cr47  1  0.83842020  0.16852868  0.83614155  1
  Fe  Fe48  1  0.83760508  0.50356328  0.50465147  1
  Cr  Cr49  1  0.66967921  0.33557462  0.67001906  1
  Ni  Ni50  1  0.83836072  0.50616851  0.83605285  1
  Fe  Fe51  1  0.83548276  0.83711597  0.50416510  1
  Fe  Fe52  1  0.67122883  0.67107681  0.67004548  1
  Ni  Ni53  1  0.83564075  0.83432794  0.83573503  1
" 