1933,Ni19Fe13Cr66_6,-212.556526737559, 171.639601701284,Ni19Fe13Cr66,"# generated using pymatgen
 data_Cr37Fe7Ni10
_symmetry_space_group_name_H-M   'P 1'
_cell_length_a   7.55396416
_cell_length_b   7.55396416
_cell_length_c   10.68291857
_cell_angle_alpha   90.00000000
_cell_angle_beta   90.00000000
_cell_angle_gamma   90.00000000
_symmetry_Int_Tables_number   1
_chemical_formula_structural   Cr37Fe7Ni10
_chemical_formula_sum   'Cr37 Fe7 Ni10'
_cell_volume   609.59270032
_cell_formula_units_Z   1
loop_
 _symmetry_equiv_pos_site_id
 _symmetry_equiv_pos_as_xyz
  1  'x, y, z'
loop_
 _atom_site_type_symbol
 _atom_site_label
 _atom_site_symmetry_multiplicity
 _atom_site_fract_x
 _atom_site_fract_y
 _atom_site_fract_z
 _atom_site_occupancy
  Cr  Cr0  1  0.99333155  0.99271708  0.99313442  1
  Cr  Cr1  1  0.15981399  0.16062638  0.16065735  1
  Cr  Cr2  1  0.99336599  0.99093027  0.32820984  1
  Fe  Fe3  1  0.99412217  0.33050336  0.99405577  1
  Fe  Fe4  1  0.15859398  0.49577974  0.16089968  1
  Cr  Cr5  1  0.99336568  0.33226896  0.32754956  1
  Cr  Cr6  1  0.99385589  0.65905946  -0.00409776  1
  Fe  Fe7  1  0.15994291  0.82549693  0.16172420  1
  Ni  Ni8  1  0.99078013  0.65975446  0.32646567  1
  Cr  Cr9  1  0.32844960  0.99276722  -0.00457190  1
  Cr  Cr10  1  0.49517220  0.16233206  0.16112318  1
  Cr  Cr11  1  0.32894953  0.99314186  0.32662625  1
  Cr  Cr12  1  0.32700003  0.33039229  0.99339017  1
  Cr  Cr13  1  0.49738802  0.49589117  0.16026291  1
  Cr  Cr14  1  0.32736607  0.32831760  0.32761139  1
  Cr  Cr15  1  0.32790444  0.65945370  0.99255254  1
  Cr  Cr16  1  0.49530268  0.82461280  0.16106752  1
  Cr  Cr17  1  0.32640915  0.66132182  0.32580328  1
  Cr  Cr18  1  0.66100016  0.99202417  0.99189509  1
  Cr  Cr19  1  0.82767585  0.16325380  0.15760358  1
  Cr  Cr20  1  0.66043872  0.99183328  0.33026757  1
  Fe  Fe21  1  0.66103564  0.33147474  0.99370819  1
  Fe  Fe22  1  0.82704051  0.49622365  0.16080374  1
  Cr  Cr23  1  0.66203671  0.32999138  0.32792152  1
  Ni  Ni24  1  0.66167722  0.65884891  0.99202452  1
  Cr  Cr25  1  0.82795457  0.82394963  0.16179823  1
  Ni  Ni26  1  0.66498328  0.66100764  0.32981611  1
  Cr  Cr27  1  0.16054667  0.16073595  0.49560088  1
  Cr  Cr28  1  0.99102606  0.99226728  0.66123117  1
  Cr  Cr29  1  0.15951276  0.16225267  0.82648211  1
  Cr  Cr30  1  0.16072807  0.49626703  0.49531027  1
  Cr  Cr31  1  -0.00552553  0.33003962  0.66126379  1
  Ni  Ni32  1  0.16389824  0.49533691  0.82806218  1
  Cr  Cr33  1  0.16050243  0.82575287  0.49304279  1
  Cr  Cr34  1  0.99239030  0.66065561  0.66064424  1
  Cr  Cr35  1  0.16069550  0.82554781  0.82670767  1
  Cr  Cr36  1  0.49375344  0.16052524  0.49242277  1
  Cr  Cr37  1  0.33018930  0.99156131  0.66053947  1
  Cr  Cr38  1  0.49499852  0.16305762  0.82902901  1
  Cr  Cr39  1  0.49594753  0.49865165  0.49541741  1
  Cr  Cr40  1  0.32751314  0.33145453  0.66195444  1
  Ni  Ni41  1  0.49400612  0.49859135  0.82749225  1
  Ni  Ni42  1  0.49822804  0.82298901  0.49554911  1
  Ni  Ni43  1  0.33140070  0.66017235  0.66367649  1
  Fe  Fe44  1  0.49673261  0.82201604  0.82625078  1
  Cr  Cr45  1  0.82843275  0.16041302  0.49494813  1
  Cr  Cr46  1  0.66164303  0.98975448  0.66058945  1
  Cr  Cr47  1  0.82828407  0.16027924  0.83001098  1
  Fe  Fe48  1  0.82618225  0.50000263  0.49348778  1
  Cr  Cr49  1  0.66073205  0.33018832  0.66022407  1
  Cr  Cr50  1  0.82496151  0.49632273  0.82920789  1
  Ni  Ni51  1  0.82453294  0.82263051  0.49312369  1
  Ni  Ni52  1  0.65889399  0.66305963  0.66120219  1
  Ni  Ni53  1  0.82417252  0.82483596  0.82756209  1
" 