1049,Ni19Fe13Cr66_3,-212.325622822285, 172.238561041994,Ni19Fe13Cr66,"# generated using pymatgen
 data_Cr37Fe7Ni10
_symmetry_space_group_name_H-M   'P 1'
_cell_length_a   7.54915179
_cell_length_b   7.54915179
_cell_length_c   10.67611285
_cell_angle_alpha   90.00000000
_cell_angle_beta   90.00000000
_cell_angle_gamma   90.00000000
_symmetry_Int_Tables_number   1
_chemical_formula_structural   Cr37Fe7Ni10
_chemical_formula_sum   'Cr37 Fe7 Ni10'
_cell_volume   608.42839150
_cell_formula_units_Z   1
loop_
 _symmetry_equiv_pos_site_id
 _symmetry_equiv_pos_as_xyz
  1  'x, y, z'
loop_
 _atom_site_type_symbol
 _atom_site_label
 _atom_site_symmetry_multiplicity
 _atom_site_fract_x
 _atom_site_fract_y
 _atom_site_fract_z
 _atom_site_occupancy
  Fe  Fe0  1  0.99346207  0.99077971  -0.00452510  1
  Cr  Cr1  1  0.16194798  0.15981290  0.15834215  1
  Cr  Cr2  1  0.99170552  0.99355331  0.32921399  1
  Cr  Cr3  1  -0.00487876  0.33206857  0.99318327  1
  Ni  Ni4  1  0.16118686  0.49777851  0.16106451  1
  Cr  Cr5  1  0.99410540  0.32787629  0.32980737  1
  Ni  Ni6  1  0.99332372  0.66189724  -0.00377084  1
  Cr  Cr7  1  0.15713585  0.82798608  0.16003486  1
  Ni  Ni8  1  0.99160123  0.66096142  0.32516974  1
  Ni  Ni9  1  0.32968110  0.99128227  -0.00388399  1
  Cr  Cr10  1  0.49305209  0.16302043  0.15970461  1
  Cr  Cr11  1  0.32965957  0.99241227  0.32765454  1
  Cr  Cr12  1  0.32695279  0.33158880  0.99375167  1
  Ni  Ni13  1  0.49622854  0.49770864  0.16243085  1
  Cr  Cr14  1  0.32654623  0.32952955  0.32697990  1
  Cr  Cr15  1  0.32783389  0.66097671  -0.00531745  1
  Fe  Fe16  1  0.49588687  0.82483883  0.15976733  1
  Cr  Cr17  1  0.32772573  0.66179936  0.32576013  1
  Cr  Cr18  1  0.66157766  0.99118522  -0.00401056  1
  Cr  Cr19  1  0.82901251  0.16041183  0.16065706  1
  Cr  Cr20  1  0.66241159  0.99296531  0.32694191  1
  Cr  Cr21  1  0.66188201  0.32941754  -0.00417676  1
  Cr  Cr22  1  0.82761931  0.49757047  0.16246602  1
  Fe  Fe23  1  0.66088128  0.32904401  0.32612607  1
  Ni  Ni24  1  0.66290784  0.66400055  -0.00233084  1
  Ni  Ni25  1  0.82757085  0.82408563  0.16010138  1
  Fe  Fe26  1  0.66183745  0.66318884  0.32455825  1
  Ni  Ni27  1  0.15919548  0.15982857  0.49601271  1
  Ni  Ni28  1  0.99097099  -0.00430977  0.65946604  1
  Cr  Cr29  1  0.16168396  0.15771224  0.83077009  1
  Cr  Cr30  1  0.16013630  0.49571756  0.49297346  1
  Cr  Cr31  1  -0.00524645  0.32694046  0.66122910  1
  Ni  Ni32  1  0.15936703  0.49639215  0.82982221  1
  Cr  Cr33  1  0.15895633  0.82928360  0.49392299  1
  Cr  Cr34  1  -0.00358442  0.66035068  0.66259733  1
  Cr  Cr35  1  0.15905569  0.82934115  0.82957053  1
  Cr  Cr36  1  0.49416009  0.16271668  0.49444444  1
  Cr  Cr37  1  0.32749779  0.99357048  0.65932571  1
  Cr  Cr38  1  0.49351033  0.15981621  0.82912749  1
  Cr  Cr39  1  0.49837310  0.49504806  0.49365697  1
  Cr  Cr40  1  0.32518587  0.33007732  0.66283005  1
  Cr  Cr41  1  0.49754109  0.49548016  0.82671216  1
  Cr  Cr42  1  0.49708240  0.82590068  0.49628746  1
  Cr  Cr43  1  0.32763434  0.66035123  0.66240547  1
  Cr  Cr44  1  0.49621887  0.82818923  0.82671680  1
  Fe  Fe45  1  0.82893778  0.15994230  0.49541357  1
  Fe  Fe46  1  0.66414844  0.99390068  0.66067086  1
  Cr  Cr47  1  0.82889062  0.15868872  0.82808471  1
  Cr  Cr48  1  0.82551598  0.49652494  0.49150175  1
  Cr  Cr49  1  0.66415418  0.32541924  0.66103190  1
  Cr  Cr50  1  0.82733318  0.49807395  0.82970101  1
  Cr  Cr51  1  0.82864299  0.82490829  0.49607777  1
  Fe  Fe52  1  0.66304117  0.66222498  0.66195665  1
  Cr  Cr53  1  0.82908908  0.82651934  0.82834005  1
" 