1610,Ni19Fe68Cr11_8,-229.47555291153, 178.316514337367,Ni19Fe68Cr11,"# generated using pymatgen
 data_Cr7Fe37Ni10
_symmetry_space_group_name_H-M   'P 1'
_cell_length_a   7.43536185
_cell_length_b   7.43536185
_cell_length_c   10.51518958
_cell_angle_alpha   90.00000000
_cell_angle_beta   90.00000000
_cell_angle_gamma   90.00000000
_symmetry_Int_Tables_number   1
_chemical_formula_structural   Cr7Fe37Ni10
_chemical_formula_sum   'Cr7 Fe37 Ni10'
_cell_volume   581.32811178
_cell_formula_units_Z   1
loop_
 _symmetry_equiv_pos_site_id
 _symmetry_equiv_pos_as_xyz
  1  'x, y, z'
loop_
 _atom_site_type_symbol
 _atom_site_label
 _atom_site_symmetry_multiplicity
 _atom_site_fract_x
 _atom_site_fract_y
 _atom_site_fract_z
 _atom_site_occupancy
  Cr  Cr0  1  0.00257087  1.00130520  1.00085015  1
  Fe  Fe1  1  0.16696498  0.17181377  0.16939931  1
  Fe  Fe2  1  0.99908276  1.00163221  0.33466204  1
  Ni  Ni3  1  1.00164035  0.33774517  1.00148930  1
  Fe  Fe4  1  0.16728671  0.50195432  0.16905713  1
  Fe  Fe5  1  0.00318383  0.33633952  0.33366131  1
  Ni  Ni6  1  0.00278612  0.66756191  1.00176618  1
  Fe  Fe7  1  0.16641152  0.83225839  0.16955118  1
  Fe  Fe8  1  0.00228217  0.66847768  0.33530127  1
  Cr  Cr9  1  0.33526721  0.99999160  0.00238363  1
  Fe  Fe10  1  0.50345597  0.16894909  0.16844040  1
  Cr  Cr11  1  0.33546764  1.00044110  0.33514196  1
  Fe  Fe12  1  0.33251933  0.33723541  0.00275773  1
  Fe  Fe13  1  0.50147980  0.50338060  0.16968869  1
  Fe  Fe14  1  0.33521070  0.33853221  0.33516723  1
  Fe  Fe15  1  0.33529000  0.66686648  1.00188356  1
  Fe  Fe16  1  0.50504402  0.83373419  0.16808429  1
  Fe  Fe17  1  0.33615275  0.66607038  0.33588392  1
  Ni  Ni18  1  0.66830070  1.00176082  0.00320075  1
  Ni  Ni19  1  0.83670011  0.16761623  0.16849120  1
  Fe  Fe20  1  0.67073912  1.00053998  0.33440999  1
  Cr  Cr21  1  0.67033021  0.33682358  1.00183766  1
  Fe  Fe22  1  0.83781057  0.50329004  0.16869274  1
  Cr  Cr23  1  0.66947413  0.33683804  0.33675786  1
  Fe  Fe24  1  0.67044640  0.67093279  1.00172070  1
  Fe  Fe25  1  0.83493792  0.83409891  0.16815697  1
  Fe  Fe26  1  0.66786606  0.67064170  0.33639356  1
  Cr  Cr27  1  0.16744345  0.17037653  0.50252978  1
  Fe  Fe28  1  1.00043098  1.00127554  0.67011944  1
  Fe  Fe29  1  0.16740086  0.16911402  0.83318076  1
  Ni  Ni30  1  0.16883796  0.50291614  0.50136575  1
  Fe  Fe31  1  1.00187559  0.33665077  0.67018745  1
  Fe  Fe32  1  0.16851471  0.50346317  0.83524185  1
  Fe  Fe33  1  0.16854458  0.83227052  0.50319673  1
  Fe  Fe34  1  1.00212398  0.66863992  0.66956469  1
  Fe  Fe35  1  0.16926945  0.83324264  0.83355292  1
  Fe  Fe36  1  0.50244650  0.16973819  0.50513581  1
  Ni  Ni37  1  0.33435501  0.99874358  0.66856132  1
  Cr  Cr38  1  0.50152302  0.16880388  0.83417657  1
  Ni  Ni39  1  0.50121030  0.50370447  0.50312352  1
  Fe  Fe40  1  0.33625791  0.33742859  0.66820384  1
  Fe  Fe41  1  0.50281823  0.50474086  0.83335463  1
  Fe  Fe42  1  0.50171668  0.83420337  0.50398599  1
  Fe  Fe43  1  0.33624710  0.66793894  0.66850382  1
  Ni  Ni44  1  0.50402260  0.83391105  0.83558263  1
  Fe  Fe45  1  0.83451544  0.16940854  0.50267655  1
  Fe  Fe46  1  0.66933822  1.00099582  0.66939155  1
  Fe  Fe47  1  0.83544172  0.16794544  0.83488038  1
  Fe  Fe48  1  0.83710729  0.50304194  0.50346938  1
  Ni  Ni49  1  0.67060095  0.33785804  0.66747078  1
  Fe  Fe50  1  0.83558772  0.50403116  0.83446188  1
  Fe  Fe51  1  0.83602919  0.83398551  0.50292669  1
  Fe  Fe52  1  0.66818554  0.66929872  0.66886310  1
  Ni  Ni53  1  0.83451342  0.83450171  0.83652189  1
" 