8737,Ni19Fe68Cr11_11,-229.709400446167, 182.443998340889,Ni19Fe68Cr11,"# generated using pymatgen
 data_Cr7Fe37Ni10
_symmetry_space_group_name_H-M   'P 1'
_cell_length_a   7.43309019
_cell_length_b   7.43309019
_cell_length_c   10.51197696
_cell_angle_alpha   90.00000000
_cell_angle_beta   90.00000000
_cell_angle_gamma   90.00000000
_symmetry_Int_Tables_number   1
_chemical_formula_structural   Cr7Fe37Ni10
_chemical_formula_sum   'Cr7 Fe37 Ni10'
_cell_volume   580.79544965
_cell_formula_units_Z   1
loop_
 _symmetry_equiv_pos_site_id
 _symmetry_equiv_pos_as_xyz
  1  'x, y, z'
loop_
 _atom_site_type_symbol
 _atom_site_label
 _atom_site_symmetry_multiplicity
 _atom_site_fract_x
 _atom_site_fract_y
 _atom_site_fract_z
 _atom_site_occupancy
  Fe  Fe0  1  1.00199179  0.00327568  1.00064044  1
  Fe  Fe1  1  0.17082192  0.17090550  0.16899284  1
  Fe  Fe2  1  0.00239073  1.00208599  0.33713818  1
  Fe  Fe3  1  0.00350548  0.33518020  0.00316182  1
  Fe  Fe4  1  0.17076588  0.49999247  0.16872214  1
  Fe  Fe5  1  1.00213880  0.33729082  0.33603923  1
  Fe  Fe6  1  1.00084078  0.66796793  1.00180981  1
  Cr  Cr7  1  0.16680289  0.83535635  0.16886793  1
  Fe  Fe8  1  0.99989104  0.66759133  0.33669195  1
  Fe  Fe9  1  0.33686905  0.00370924  1.00200374  1
  Ni  Ni10  1  0.50244571  0.17039953  0.16906041  1
  Fe  Fe11  1  0.33701174  0.00292293  0.33610901  1
  Ni  Ni12  1  0.33515077  0.33587994  0.00320415  1
  Ni  Ni13  1  0.50286420  0.50058238  0.17052699  1
  Fe  Fe14  1  0.33857537  0.33626970  0.33451225  1
  Fe  Fe15  1  0.33769232  0.66820098  0.00376052  1
  Fe  Fe16  1  0.50164257  0.83420483  0.16890892  1
  Ni  Ni17  1  0.33475837  0.66803679  0.33460363  1
  Fe  Fe18  1  0.66741983  1.00156285  0.00248035  1
  Fe  Fe19  1  0.83680051  0.16996677  0.16921939  1
  Cr  Cr20  1  0.66915535  0.00247841  0.33423199  1
  Cr  Cr21  1  0.66850276  0.33612142  1.00163233  1
  Fe  Fe22  1  0.83495817  0.50250125  0.17072402  1
  Ni  Ni23  1  0.66969422  0.33622183  0.33569781  1
  Fe  Fe24  1  0.66769313  0.66969457  0.00367163  1
  Fe  Fe25  1  0.83254961  0.83446271  0.16720454  1
  Ni  Ni26  1  0.66699633  0.66793994  0.33467697  1
  Fe  Fe27  1  0.17135365  0.16981968  0.50024882  1
  Cr  Cr28  1  0.00414505  1.00089491  0.66792912  1
  Fe  Fe29  1  0.17018367  0.16616302  0.83804428  1
  Fe  Fe30  1  0.17090809  0.50219522  0.50176042  1
  Cr  Cr31  1  1.00159055  0.33525576  0.67034580  1
  Cr  Cr32  1  0.17018231  0.50329319  0.83706103  1
  Fe  Fe33  1  0.17140349  0.83484559  0.50092467  1
  Fe  Fe34  1  1.00038191  0.66927698  0.66842849  1
  Ni  Ni35  1  0.16817950  0.83510119  0.83483092  1
  Ni  Ni36  1  0.50219628  0.17136726  0.50278245  1
  Fe  Fe37  1  0.33649672  0.00350263  0.66849920  1
  Fe  Fe38  1  0.49999692  0.16874073  0.83566712  1
  Fe  Fe39  1  0.50284766  0.50205163  0.50077104  1
  Fe  Fe40  1  0.33839491  0.33425071  0.66924874  1
  Fe  Fe41  1  0.50303389  0.50484343  0.83557491  1
  Fe  Fe42  1  0.50087353  0.83450704  0.50124445  1
  Fe  Fe43  1  0.33647573  0.66976159  0.66724824  1
  Fe  Fe44  1  0.50092255  0.83395727  0.83642056  1
  Fe  Fe45  1  0.83432268  0.17173752  0.50119241  1
  Cr  Cr46  1  0.66884283  0.00281468  0.66964256  1
  Fe  Fe47  1  0.83614693  0.16798248  0.83711541  1
  Fe  Fe48  1  0.83270675  0.50164694  0.50151643  1
  Ni  Ni49  1  0.66737781  0.33710548  0.66994667  1
  Fe  Fe50  1  0.83418816  0.50553580  0.83543691  1
  Fe  Fe51  1  0.83440587  0.83338987  0.50142113  1
  Fe  Fe52  1  0.66975244  0.66779193  0.66845854  1
  Ni  Ni53  1  0.83610789  0.83471224  0.83729382  1
" 