904,Ni19Fe68Cr11_16,-229.704569927582, 179.841457731437,Ni19Fe68Cr11,"# generated using pymatgen
 data_Cr7Fe37Ni10
_symmetry_space_group_name_H-M   'P 1'
_cell_length_a   7.43978074
_cell_length_b   7.43978074
_cell_length_c   10.52143882
_cell_angle_alpha   90.00000000
_cell_angle_beta   90.00000000
_cell_angle_gamma   90.00000000
_symmetry_Int_Tables_number   1
_chemical_formula_structural   Cr7Fe37Ni10
_chemical_formula_sum   'Cr7 Fe37 Ni10'
_cell_volume   582.36518878
_cell_formula_units_Z   1
loop_
 _symmetry_equiv_pos_site_id
 _symmetry_equiv_pos_as_xyz
  1  'x, y, z'
loop_
 _atom_site_type_symbol
 _atom_site_label
 _atom_site_symmetry_multiplicity
 _atom_site_fract_x
 _atom_site_fract_y
 _atom_site_fract_z
 _atom_site_occupancy
  Ni  Ni0  1  0.00186451  1.00073323  1.00143628  1
  Fe  Fe1  1  0.16885101  0.16744291  0.16893681  1
  Fe  Fe2  1  0.00287113  1.00117048  0.33452139  1
  Ni  Ni3  1  1.00089482  0.33495378  1.00075936  1
  Fe  Fe4  1  0.16924725  0.50261052  0.16933310  1
  Fe  Fe5  1  0.00433697  0.33524189  0.33669011  1
  Fe  Fe6  1  1.00178657  0.66829805  1.00073939  1
  Fe  Fe7  1  0.16707499  0.83544041  0.16900406  1
  Fe  Fe8  1  0.00279092  0.66908414  0.33534174  1
  Fe  Fe9  1  0.33385643  0.00228592  1.00121518  1
  Fe  Fe10  1  0.50140001  0.16938194  0.16925304  1
  Ni  Ni11  1  0.33540718  0.00294040  0.33395953  1
  Cr  Cr12  1  0.33548898  0.33518434  0.00361519  1
  Fe  Fe13  1  0.50133891  0.50101302  0.16925477  1
  Fe  Fe14  1  0.33522183  0.33516194  0.33486548  1
  Fe  Fe15  1  0.33396412  0.66861274  1.00117156  1
  Cr  Cr16  1  0.50012280  0.83559432  0.16857461  1
  Ni  Ni17  1  0.33540994  0.66728110  0.33497055  1
  Fe  Fe18  1  0.66943460  0.00305727  0.99999446  1
  Cr  Cr19  1  0.83523749  0.16901212  0.16711024  1
  Fe  Fe20  1  0.66746127  1.00122602  0.33713435  1
  Ni  Ni21  1  0.66893268  0.33583249  1.00027996  1
  Cr  Cr22  1  0.83528983  0.50136325  0.16760090  1
  Fe  Fe23  1  0.66593772  0.33524327  0.33597023  1
  Fe  Fe24  1  0.66974172  0.66743163  1.00002852  1
  Fe  Fe25  1  0.83684069  0.83550124  0.16830004  1
  Fe  Fe26  1  0.66753992  0.66902973  0.33671455  1
  Fe  Fe27  1  0.16862437  0.16966360  0.50206154  1
  Fe  Fe28  1  1.00145046  0.00371440  0.66964477  1
  Fe  Fe29  1  0.16664482  0.16828618  0.83450347  1
  Fe  Fe30  1  0.16939736  0.50004207  0.50135991  1
  Ni  Ni31  1  0.00197542  0.33390454  0.66869217  1
  Fe  Fe32  1  0.16765223  0.50164034  0.83481504  1
  Cr  Cr33  1  0.17109721  0.83584958  0.50213048  1
  Cr  Cr34  1  0.00228831  0.66660734  0.66929404  1
  Fe  Fe35  1  0.16913311  0.83556321  0.83546873  1
  Fe  Fe36  1  0.50151012  0.16738501  0.50203445  1
  Ni  Ni37  1  0.33705771  0.00245267  0.66958978  1
  Fe  Fe38  1  0.50340597  0.16795030  0.83421491  1
  Fe  Fe39  1  0.50040502  0.50198862  0.50094238  1
  Fe  Fe40  1  0.33508794  0.33498592  0.66861694  1
  Fe  Fe41  1  0.50240460  0.50199222  0.83530458  1
  Fe  Fe42  1  0.50169041  0.83612668  0.50124316  1
  Ni  Ni43  1  0.33618953  0.66833334  0.66934883  1
  Fe  Fe44  1  0.50126474  0.83556194  0.83508742  1
  Fe  Fe45  1  0.83536548  0.16838483  0.50216214  1
  Ni  Ni46  1  0.66743870  0.00315068  0.66807971  1
  Fe  Fe47  1  0.83544704  0.16942138  0.83568707  1
  Fe  Fe48  1  0.83569566  0.50021164  0.50094927  1
  Fe  Fe49  1  0.66844262  0.33369662  0.66924728  1
  Ni  Ni50  1  0.83526665  0.49900730  0.83681289  1
  Fe  Fe51  1  0.83342648  0.83689822  0.50053854  1
  Cr  Cr52  1  0.66714953  0.66945183  0.66769655  1
  Fe  Fe53  1  0.83509949  0.83655667  0.83665382  1
" 