324,Ni19Fe68Cr11_4,-229.627216232434, 180.830143827379,Ni19Fe68Cr11,"# generated using pymatgen
 data_Cr7Fe37Ni10
_symmetry_space_group_name_H-M   'P 1'
_cell_length_a   7.43196886
_cell_length_b   7.43196886
_cell_length_c   10.51039115
_cell_angle_alpha   90.00000000
_cell_angle_beta   90.00000000
_cell_angle_gamma   90.00000000
_symmetry_Int_Tables_number   1
_chemical_formula_structural   Cr7Fe37Ni10
_chemical_formula_sum   'Cr7 Fe37 Ni10'
_cell_volume   580.53263774
_cell_formula_units_Z   1
loop_
 _symmetry_equiv_pos_site_id
 _symmetry_equiv_pos_as_xyz
  1  'x, y, z'
loop_
 _atom_site_type_symbol
 _atom_site_label
 _atom_site_symmetry_multiplicity
 _atom_site_fract_x
 _atom_site_fract_y
 _atom_site_fract_z
 _atom_site_occupancy
  Fe  Fe0  1  1.00165420  1.00106306  1.00185809  1
  Cr  Cr1  1  0.16967110  0.17014388  0.16714355  1
  Cr  Cr2  1  1.00069305  1.00124307  0.33648015  1
  Fe  Fe3  1  1.00049246  0.33701594  1.00115077  1
  Cr  Cr4  1  0.16862131  0.50347252  0.17007481  1
  Fe  Fe5  1  1.00002672  0.33686421  0.33638061  1
  Ni  Ni6  1  0.99965086  0.67062235  0.00239252  1
  Fe  Fe7  1  0.16817780  0.83341120  0.16729301  1
  Fe  Fe8  1  1.00235171  0.66850248  0.33545290  1
  Fe  Fe9  1  0.33639894  1.00096402  1.00131614  1
  Fe  Fe10  1  0.50435603  0.17095372  0.16831793  1
  Cr  Cr11  1  0.33629157  0.00280384  0.33752902  1
  Ni  Ni12  1  0.33732403  0.33473324  1.00033229  1
  Fe  Fe13  1  0.50307941  0.50108640  0.16856213  1
  Ni  Ni14  1  0.33825047  0.33611462  0.33750527  1
  Fe  Fe15  1  0.33644856  0.66937058  1.00147837  1
  Fe  Fe16  1  0.50282237  0.83503703  0.16721377  1
  Fe  Fe17  1  0.33576097  0.66854805  0.33614132  1
  Fe  Fe18  1  0.66902737  1.00180650  0.00246346  1
  Fe  Fe19  1  0.83361154  0.17037801  0.16832188  1
  Fe  Fe20  1  0.66878300  0.00417438  0.33587778  1
  Fe  Fe21  1  0.66939392  0.33706488  0.00270563  1
  Ni  Ni22  1  0.83528185  0.50232495  0.16831730  1
  Fe  Fe23  1  0.66883363  0.33457298  0.33593754  1
  Ni  Ni24  1  0.67071963  0.66892495  1.00170461  1
  Fe  Fe25  1  0.83607934  0.83467757  0.16745796  1
  Cr  Cr26  1  0.67011089  0.66769643  0.33643574  1
  Fe  Fe27  1  0.16934152  0.16984320  0.50394497  1
  Fe  Fe28  1  0.00346788  0.00246575  0.66850140  1
  Fe  Fe29  1  0.16992773  0.16934827  0.83553846  1
  Cr  Cr30  1  0.16898540  0.50090450  0.49994717  1
  Fe  Fe31  1  0.00254432  0.33475908  0.66954317  1
  Fe  Fe32  1  0.16854954  0.50125699  0.83680318  1
  Fe  Fe33  1  0.16788040  0.83564402  0.50332527  1
  Fe  Fe34  1  1.00064924  0.66985535  0.66970015  1
  Fe  Fe35  1  0.16821754  0.83647423  0.83646748  1
  Fe  Fe36  1  0.50311096  0.17076170  0.50334646  1
  Ni  Ni37  1  0.33485847  0.00504729  0.66854152  1
  Fe  Fe38  1  0.50143542  0.16923129  0.83541918  1
  Ni  Ni39  1  0.50313206  0.50024835  0.50186881  1
  Ni  Ni40  1  0.33660227  0.33224984  0.66923736  1
  Fe  Fe41  1  0.50273016  0.50128339  0.83620118  1
  Fe  Fe42  1  0.50383119  0.83547241  0.50336209  1
  Cr  Cr43  1  0.33748290  0.66916587  0.66897142  1
  Fe  Fe44  1  0.50317461  0.83656243  0.83650551  1
  Fe  Fe45  1  0.83462577  0.17035372  0.50304186  1
  Fe  Fe46  1  0.66802644  0.00243785  0.66874156  1
  Fe  Fe47  1  0.83571751  0.16890261  0.83571785  1
  Ni  Ni48  1  0.83505905  0.50269205  0.50350675  1
  Fe  Fe49  1  0.66782684  0.33591572  0.66843782  1
  Fe  Fe50  1  0.83580365  0.50299896  0.83633880  1
  Ni  Ni51  1  0.83515602  0.83608653  0.50438292  1
  Fe  Fe52  1  0.66970258  0.66872619  0.66844172  1
  Fe  Fe53  1  0.83568730  0.83518110  0.83576088  1
" 