176,Ni19Fe68Cr11_5,-229.455617588793, 182.165827305474,Ni19Fe68Cr11,"# generated using pymatgen
 data_Cr7Fe37Ni10
_symmetry_space_group_name_H-M   'P 1'
_cell_length_a   7.43001088
_cell_length_b   7.43001088
_cell_length_c   10.50762216
_cell_angle_alpha   90.00000000
_cell_angle_beta   90.00000000
_cell_angle_gamma   90.00000000
_symmetry_Int_Tables_number   1
_chemical_formula_structural   Cr7Fe37Ni10
_chemical_formula_sum   'Cr7 Fe37 Ni10'
_cell_volume   580.07392957
_cell_formula_units_Z   1
loop_
 _symmetry_equiv_pos_site_id
 _symmetry_equiv_pos_as_xyz
  1  'x, y, z'
loop_
 _atom_site_type_symbol
 _atom_site_label
 _atom_site_symmetry_multiplicity
 _atom_site_fract_x
 _atom_site_fract_y
 _atom_site_fract_z
 _atom_site_occupancy
  Fe  Fe0  1  0.99936603  1.00017103  1.00076765  1
  Cr  Cr1  1  0.17066786  0.16934184  0.16731922  1
  Cr  Cr2  1  1.00110145  0.00293303  0.33701603  1
  Cr  Cr3  1  1.00107499  0.33704300  0.00314047  1
  Fe  Fe4  1  0.17038508  0.50455318  0.16930743  1
  Fe  Fe5  1  1.00179950  0.33811823  0.33626002  1
  Ni  Ni6  1  1.00246483  0.66828031  0.00295313  1
  Cr  Cr7  1  0.16857813  0.83504884  0.16729723  1
  Fe  Fe8  1  1.00099739  0.66704528  0.33647312  1
  Fe  Fe9  1  0.33731032  1.00142301  0.99936239  1
  Fe  Fe10  1  0.50500270  0.16868090  0.16933185  1
  Fe  Fe11  1  0.33640145  0.00270704  0.33623832  1
  Fe  Fe12  1  0.33892919  0.33808507  1.00198598  1
  Ni  Ni13  1  0.50352125  0.50192234  0.16949377  1
  Fe  Fe14  1  0.33561754  0.33773385  0.33515402  1
  Ni  Ni15  1  0.33672282  0.66847282  1.00151202  1
  Fe  Fe16  1  0.50393825  0.83496044  0.16866074  1
  Fe  Fe17  1  0.33583044  0.66698669  0.33431490  1
  Ni  Ni18  1  0.66808273  0.00342289  0.00300787  1
  Fe  Fe19  1  0.83176405  0.16854113  0.16798122  1
  Fe  Fe20  1  0.66926928  1.00211953  0.33270231  1
  Fe  Fe21  1  0.66737469  0.33675882  1.00125281  1
  Fe  Fe22  1  0.83525118  0.50446496  0.17077516  1
  Fe  Fe23  1  0.67072109  0.33717763  0.33593947  1
  Fe  Fe24  1  0.66915664  0.66928982  0.00282468  1
  Ni  Ni25  1  0.83457104  0.83428751  0.16792479  1
  Fe  Fe26  1  0.67092503  0.66803154  0.33502928  1
  Fe  Fe27  1  0.16840676  0.17059619  0.50356223  1
  Fe  Fe28  1  1.00169949  1.00230860  0.66907087  1
  Fe  Fe29  1  0.16915101  0.16837855  0.83524758  1
  Fe  Fe30  1  0.16925611  0.50283758  0.50277590  1
  Fe  Fe31  1  1.00174752  0.33622788  0.66952711  1
  Fe  Fe32  1  0.16831577  0.50392588  0.83567312  1
  Fe  Fe33  1  0.16809198  0.83430411  0.50408018  1
  Ni  Ni34  1  0.00345471  0.66950062  0.66817360  1
  Fe  Fe35  1  0.16792807  0.83535793  0.83601739  1
  Cr  Cr36  1  0.50321993  0.16968880  0.50350370  1
  Ni  Ni37  1  0.33380316  0.00298355  0.66986316  1
  Fe  Fe38  1  0.50366465  0.16881314  0.83489651  1
  Fe  Fe39  1  0.50341682  0.50141546  0.50117916  1
  Fe  Fe40  1  0.33526673  0.33755047  0.67034529  1
  Fe  Fe41  1  0.50247908  0.50048208  0.83759004  1
  Cr  Cr42  1  0.50207655  0.83532080  0.50172567  1
  Fe  Fe43  1  0.33422901  0.66848249  0.67110689  1
  Fe  Fe44  1  0.50195502  0.83805436  0.83661830  1
  Fe  Fe45  1  0.83565079  0.17111005  0.50482586  1
  Fe  Fe46  1  0.67053112  0.00300984  0.67181299  1
  Ni  Ni47  1  0.83538703  0.16902306  0.83491955  1
  Ni  Ni48  1  0.83729864  0.50162003  0.50255191  1
  Ni  Ni49  1  0.66941395  0.33579856  0.66970212  1
  Fe  Fe50  1  0.83720874  0.50198153  0.83469652  1
  Fe  Fe51  1  0.83670317  0.83431505  0.50231587  1
  Cr  Cr52  1  0.66998546  0.66744575  0.67059813  1
  Fe  Fe53  1  0.83742194  0.83645508  0.83818264  1
" 