6496,Ni19Fe13Cr66_13,-212.595457956351, 168.387800566116,Ni19Fe13Cr66,"# generated using pymatgen
 data_Cr37Fe7Ni10
_symmetry_space_group_name_H-M   'P 1'
_cell_length_a   7.55454677
_cell_length_b   7.55454677
_cell_length_c   10.68374249
_cell_angle_alpha   90.00000000
_cell_angle_beta   90.00000000
_cell_angle_gamma   90.00000000
_symmetry_Int_Tables_number   1
_chemical_formula_structural   Cr37Fe7Ni10
_chemical_formula_sum   'Cr37 Fe7 Ni10'
_cell_volume   609.73375711
_cell_formula_units_Z   1
loop_
 _symmetry_equiv_pos_site_id
 _symmetry_equiv_pos_as_xyz
  1  'x, y, z'
loop_
 _atom_site_type_symbol
 _atom_site_label
 _atom_site_symmetry_multiplicity
 _atom_site_fract_x
 _atom_site_fract_y
 _atom_site_fract_z
 _atom_site_occupancy
  Ni  Ni0  1  0.99370681  0.99368533  0.99406911  1
  Cr  Cr1  1  0.16219017  0.15976495  0.16079119  1
  Cr  Cr2  1  0.99317848  -0.00571024  0.32697503  1
  Cr  Cr3  1  0.99355272  0.32657508  -0.00464056  1
  Cr  Cr4  1  0.16230296  0.49470971  0.16389863  1
  Ni  Ni5  1  -0.00526557  0.32872760  0.32980910  1
  Cr  Cr6  1  0.99344806  0.66299871  0.99250356  1
  Cr  Cr7  1  0.16373184  0.82830215  0.16024439  1
  Cr  Cr8  1  0.99366236  0.66063216  0.33020265  1
  Fe  Fe9  1  0.32877023  0.99271055  -0.00548949  1
  Cr  Cr10  1  0.49269951  0.15957749  0.16086563  1
  Fe  Fe11  1  0.32946281  0.99037970  0.32803266  1
  Cr  Cr12  1  0.33033929  0.33025913  0.99137866  1
  Ni  Ni13  1  0.49504466  0.49823516  0.16124081  1
  Cr  Cr14  1  0.32834564  0.33054253  0.32793722  1
  Cr  Cr15  1  0.33123784  0.66016112  -0.00510256  1
  Fe  Fe16  1  0.49489391  0.82428686  0.16256017  1
  Ni  Ni17  1  0.33249929  0.66323407  0.32737282  1
  Fe  Fe18  1  0.66071290  0.99205032  -0.00513911  1
  Cr  Cr19  1  0.82789690  0.16058880  0.16041232  1
  Cr  Cr20  1  0.66002843  0.99035965  0.32925568  1
  Cr  Cr21  1  0.65843353  0.33057618  -0.00564613  1
  Cr  Cr22  1  0.82475580  0.49657413  0.16260683  1
  Cr  Cr23  1  0.66230285  0.32970106  0.32691000  1
  Ni  Ni24  1  0.65626807  0.66288717  -0.00475520  1
  Cr  Cr25  1  0.82536167  0.82573814  0.15811163  1
  Ni  Ni26  1  0.65578002  0.66171005  0.32738170  1
  Cr  Cr27  1  0.16263434  0.16212559  0.49140651  1
  Cr  Cr28  1  0.99297308  0.99282791  0.66122227  1
  Cr  Cr29  1  0.16179412  0.15919138  0.83020423  1
  Fe  Fe30  1  0.16050657  0.49557018  0.49288002  1
  Cr  Cr31  1  0.99388653  0.32827803  0.65841931  1
  Cr  Cr32  1  0.16112146  0.49570262  0.82548359  1
  Cr  Cr33  1  0.16372221  0.82527278  0.49360340  1
  Fe  Fe34  1  0.99242754  0.65902076  0.65920785  1
  Cr  Cr35  1  0.15999346  0.82773660  0.82867228  1
  Cr  Cr36  1  0.49357906  0.15814623  0.49562509  1
  Cr  Cr37  1  0.32814744  0.99204577  0.65909878  1
  Cr  Cr38  1  0.49492977  0.16016960  0.82625092  1
  Cr  Cr39  1  0.49623282  0.49664892  0.49390570  1
  Cr  Cr40  1  0.32828396  0.32966314  0.66330064  1
  Ni  Ni41  1  0.49725953  0.49720115  0.82785532  1
  Ni  Ni42  1  0.49441005  0.82397481  0.49201931  1
  Cr  Cr43  1  0.32912079  0.66073598  0.66089496  1
  Cr  Cr44  1  0.49671628  0.82669842  0.82739267  1
  Cr  Cr45  1  0.82650105  0.16317433  0.49357231  1
  Fe  Fe46  1  0.65933203  0.99104419  0.65943926  1
  Cr  Cr47  1  0.82584938  0.15833007  0.82896901  1
  Ni  Ni48  1  0.82791063  0.49686943  0.49346848  1
  Cr  Cr49  1  0.66058228  0.32932031  0.66153540  1
  Cr  Cr50  1  0.82472792  0.49767043  0.82694479  1
  Cr  Cr51  1  0.82381039  0.82303949  0.49746263  1
  Ni  Ni52  1  0.65961454  0.66140179  0.65975418  1
  Cr  Cr53  1  0.82586904  0.82615997  0.82690177  1
" 