7246,Ni19Fe13Cr66_11,-212.327205106783, 169.483046561649,Ni19Fe13Cr66,"# generated using pymatgen
 data_Cr37Fe7Ni10
_symmetry_space_group_name_H-M   'P 1'
_cell_length_a   7.55253534
_cell_length_b   7.55253534
_cell_length_c   10.68089791
_cell_angle_alpha   90.00000000
_cell_angle_beta   90.00000000
_cell_angle_gamma   90.00000000
_symmetry_Int_Tables_number   1
_chemical_formula_structural   Cr37Fe7Ni10
_chemical_formula_sum   'Cr37 Fe7 Ni10'
_cell_volume   609.24685589
_cell_formula_units_Z   1
loop_
 _symmetry_equiv_pos_site_id
 _symmetry_equiv_pos_as_xyz
  1  'x, y, z'
loop_
 _atom_site_type_symbol
 _atom_site_label
 _atom_site_symmetry_multiplicity
 _atom_site_fract_x
 _atom_site_fract_y
 _atom_site_fract_z
 _atom_site_occupancy
  Cr  Cr0  1  0.99379404  0.99349977  -0.00317329  1
  Ni  Ni1  1  0.16319308  0.16183454  0.15978423  1
  Cr  Cr2  1  0.99428956  0.99320169  0.32550243  1
  Cr  Cr3  1  -0.00410146  0.32598762  0.99324043  1
  Cr  Cr4  1  0.16062884  0.49482056  0.16003108  1
  Cr  Cr5  1  -0.00538222  0.32603279  0.32906508  1
  Fe  Fe6  1  -0.00381340  0.66228510  -0.00361569  1
  Fe  Fe7  1  0.16065935  0.82679112  0.16099233  1
  Ni  Ni8  1  -0.00492493  0.66400400  0.32578834  1
  Cr  Cr9  1  0.32620536  0.99387165  -0.00446658  1
  Cr  Cr10  1  0.49202800  0.16071036  0.15946039  1
  Cr  Cr11  1  0.32559457  0.99289297  0.32583952  1
  Ni  Ni12  1  0.32877992  0.33156940  -0.00354863  1
  Fe  Fe13  1  0.49394135  0.49623947  0.15799443  1
  Cr  Cr14  1  0.32853674  0.32991026  0.32550333  1
  Ni  Ni15  1  0.32979767  0.65882516  -0.00325918  1
  Ni  Ni16  1  0.49484658  0.82478832  0.15897280  1
  Cr  Cr17  1  0.32813572  0.66044115  0.32895296  1
  Cr  Cr18  1  0.66287150  0.99224613  -0.00448515  1
  Cr  Cr19  1  0.82742027  0.16102335  0.16207499  1
  Cr  Cr20  1  0.66308146  0.99348935  0.32679657  1
  Fe  Fe21  1  0.65834858  0.32910614  -0.00538979  1
  Cr  Cr22  1  0.82846394  0.49764045  0.15974563  1
  Cr  Cr23  1  0.65977726  0.32903199  0.32907314  1
  Fe  Fe24  1  0.65852639  0.66095123  -0.00316729  1
  Ni  Ni25  1  0.82677627  0.82381755  0.16038753  1
  Cr  Cr26  1  0.65942114  0.66067941  0.32676319  1
  Cr  Cr27  1  0.16140157  0.15972485  0.49518858  1
  Cr  Cr28  1  -0.00483462  -0.00465832  0.66058970  1
  Cr  Cr29  1  0.16360317  0.16211477  0.82688772  1
  Cr  Cr30  1  0.15879613  0.49652155  0.49399944  1
  Fe  Fe31  1  0.99227329  0.32654360  0.66011080  1
  Cr  Cr32  1  0.15996714  0.49471254  0.82911145  1
  Ni  Ni33  1  0.16156886  0.82690222  0.49353857  1
  Cr  Cr34  1  -0.00470106  0.66127086  0.66118105  1
  Cr  Cr35  1  0.16296342  0.82625907  0.82732748  1
  Cr  Cr36  1  0.49547855  0.16014255  0.49596926  1
  Ni  Ni37  1  0.32573147  0.99414339  0.66035337  1
  Cr  Cr38  1  0.49345182  0.16053564  0.82742392  1
  Fe  Fe39  1  0.49530199  0.49312596  0.49527501  1
  Cr  Cr40  1  0.32873798  0.32915479  0.66072573  1
  Cr  Cr41  1  0.49466026  0.49379417  0.83067511  1
  Cr  Cr42  1  0.49177822  0.82968904  0.49628777  1
  Cr  Cr43  1  0.32794159  0.66156080  0.65886019  1
  Cr  Cr44  1  0.49307307  0.82888925  0.82686629  1
  Ni  Ni45  1  0.82676996  0.16386905  0.49654455  1
  Cr  Cr46  1  0.66217433  -0.00425162  0.66075018  1
  Cr  Cr47  1  0.82580141  0.16349372  0.82543490  1
  Cr  Cr48  1  0.82888499  0.49302723  0.49475200  1
  Ni  Ni49  1  0.66256401  0.32762130  0.65999778  1
  Cr  Cr50  1  0.82832943  0.49438154  0.82858995  1
  Cr  Cr51  1  0.82929232  0.82705491  0.49222357  1
  Cr  Cr52  1  0.65955825  0.65815105  0.66070449  1
  Cr  Cr53  1  0.82692177  0.82491946  0.83015325  1
" 