1629,Ni19Cr81_2,-232.397479451327, 156.8727151641,Ni19Cr81,"# generated using pymatgen
 data_Cr5Ni22
_symmetry_space_group_name_H-M   'P 1'
_cell_length_a   7.47643231
_cell_length_b   7.47643231
_cell_length_c   10.57327198
_cell_angle_alpha   90.00000000
_cell_angle_beta   90.00000000
_cell_angle_gamma   90.00000000
_symmetry_Int_Tables_number   1
_chemical_formula_structural   Cr5Ni22
_chemical_formula_sum   'Cr10 Ni44'
_cell_volume   591.01460802
_cell_formula_units_Z   2
loop_
 _symmetry_equiv_pos_site_id
 _symmetry_equiv_pos_as_xyz
  1  'x, y, z'
loop_
 _atom_site_type_symbol
 _atom_site_label
 _atom_site_symmetry_multiplicity
 _atom_site_fract_x
 _atom_site_fract_y
 _atom_site_fract_z
 _atom_site_occupancy
  Ni  Ni0  1  -0.00011151  0.00073828  0.99934121  1
  Ni  Ni1  1  0.16459284  0.16615614  0.16582882  1
  Ni  Ni2  1  0.99857719  0.99815035  0.33128529  1
  Ni  Ni3  1  0.00080104  0.33044544  0.00031600  1
  Ni  Ni4  1  0.16647134  0.49844915  0.16708594  1
  Ni  Ni5  1  0.99864026  0.33345358  0.33155639  1
  Cr  Cr6  1  0.00230891  0.66810435  0.00054500  1
  Ni  Ni7  1  0.16676287  0.83349334  0.16712459  1
  Ni  Ni8  1  -0.00022696  0.66650328  0.33316409  1
  Ni  Ni9  1  0.32953903  0.99810020  0.00041437  1
  Cr  Cr10  1  0.49877903  0.16537804  0.16642413  1
  Ni  Ni11  1  0.33276943  0.99714284  0.33283948  1
  Ni  Ni12  1  0.33079068  0.33469562  0.99900456  1
  Ni  Ni13  1  0.49821174  0.49957220  0.16642766  1
  Ni  Ni14  1  0.33315225  0.33483452  0.33312689  1
  Ni  Ni15  1  0.33158878  0.66519337  0.00045294  1
  Ni  Ni16  1  0.49833319  0.83241916  0.16703459  1
  Ni  Ni17  1  0.33305717  0.66610260  0.33206899  1
  Ni  Ni18  1  0.66886012  -0.00026816  0.00019316  1
  Ni  Ni19  1  0.83418652  0.16609232  0.16581462  1
  Ni  Ni20  1  0.66668000  0.99829361  0.33389508  1
  Ni  Ni21  1  0.66647039  0.33214848  0.00050557  1
  Ni  Ni22  1  0.83327652  0.49772016  0.16828419  1
  Ni  Ni23  1  0.66621093  0.33366117  0.33345829  1
  Cr  Cr24  1  0.66351069  0.66610642  0.00250180  1
  Ni  Ni25  1  0.83295480  0.83437092  0.16776970  1
  Ni  Ni26  1  0.66528168  0.66615819  0.33257281  1
  Cr  Cr27  1  0.16810489  0.16604517  0.49615693  1
  Cr  Cr28  1  0.99908496  0.99831599  0.66691098  1
  Ni  Ni29  1  0.16680271  0.16600465  0.83496390  1
  Ni  Ni30  1  0.16659145  0.50223598  0.49872810  1
  Cr  Cr31  1  0.00129329  0.33302412  0.66574885  1
  Ni  Ni32  1  0.16886454  0.49974540  0.83232964  1
  Ni  Ni33  1  0.16685201  0.82986753  0.49855905  1
  Ni  Ni34  1  0.00084116  0.66732145  0.66483759  1
  Ni  Ni35  1  0.16658859  0.83243262  0.83247904  1
  Ni  Ni36  1  0.49965310  0.16480587  0.49866498  1
  Ni  Ni37  1  0.33310558  0.99835198  0.66486384  1
  Cr  Cr38  1  0.49845835  0.16582365  0.83334811  1
  Ni  Ni39  1  0.49832427  0.50091401  0.49879865  1
  Ni  Ni40  1  0.33290806  0.33444529  0.66603051  1
  Ni  Ni41  1  0.49581205  0.49956806  0.83300557  1
  Ni  Ni42  1  0.49923922  0.83237756  0.49913930  1
  Ni  Ni43  1  0.33210367  0.66527403  0.66561074  1
  Cr  Cr44  1  0.49917953  0.83182162  0.83241773  1
  Ni  Ni45  1  0.83045705  0.16493037  0.49605297  1
  Ni  Ni46  1  0.66624776  0.99771500  0.66420055  1
  Ni  Ni47  1  0.83326547  0.16366518  0.83598452  1
  Ni  Ni48  1  0.83314360  0.50195927  0.49727545  1
  Cr  Cr49  1  0.66437810  0.33191976  0.66357491  1
  Cr  Cr50  1  0.83251878  0.50076854  0.83267477  1
  Ni  Ni51  1  0.83206613  0.83114763  0.49901699  1
  Ni  Ni52  1  0.66524696  0.66745764  0.66414771  1
  Ni  Ni53  1  0.83350834  0.83495463  0.83155107  1
" 