8192,Ni19Cr81_8,-232.256220787713, 154.502332168462,Ni19Cr81,"# generated using pymatgen
 data_Cr5Ni22
_symmetry_space_group_name_H-M   'P 1'
_cell_length_a   7.47559461
_cell_length_b   7.47559461
_cell_length_c   10.57208728
_cell_angle_alpha   90.00000000
_cell_angle_beta   90.00000000
_cell_angle_gamma   90.00000000
_symmetry_Int_Tables_number   1
_chemical_formula_structural   Cr5Ni22
_chemical_formula_sum   'Cr10 Ni44'
_cell_volume   590.81596700
_cell_formula_units_Z   2
loop_
 _symmetry_equiv_pos_site_id
 _symmetry_equiv_pos_as_xyz
  1  'x, y, z'
loop_
 _atom_site_type_symbol
 _atom_site_label
 _atom_site_symmetry_multiplicity
 _atom_site_fract_x
 _atom_site_fract_y
 _atom_site_fract_z
 _atom_site_occupancy
  Ni  Ni0  1  0.00026321  0.00037516  0.00073643  1
  Ni  Ni1  1  0.16775534  0.16417546  0.16642261  1
  Ni  Ni2  1  -0.00042795  0.00087559  0.33210860  1
  Ni  Ni3  1  0.99913513  0.33100745  0.99770523  1
  Cr  Cr4  1  0.16906380  0.49742901  0.16678349  1
  Ni  Ni5  1  0.00216169  0.33024846  0.33533854  1
  Cr  Cr6  1  0.00058078  0.66721137  0.99835398  1
  Ni  Ni7  1  0.16795972  0.83640280  0.16544004  1
  Cr  Cr8  1  0.99833890  0.66696856  0.33343239  1
  Ni  Ni9  1  0.33272814  0.99786431  0.00138489  1
  Ni  Ni10  1  0.49666270  0.16491770  0.16519825  1
  Ni  Ni11  1  0.33340760  0.00043287  0.33147869  1
  Ni  Ni12  1  0.33390807  0.33348792  0.00097244  1
  Ni  Ni13  1  0.49837446  0.50065580  0.16500614  1
  Ni  Ni14  1  0.33183858  0.33176626  0.33334576  1
  Ni  Ni15  1  0.33522437  0.66692603  0.99843719  1
  Ni  Ni16  1  0.49945619  0.83272417  0.16604299  1
  Ni  Ni17  1  0.33589866  0.66608556  0.33234657  1
  Ni  Ni18  1  0.66528704  0.99904975  0.00051661  1
  Cr  Cr19  1  0.83378490  0.16414574  0.16437648  1
  Ni  Ni20  1  0.66530560  0.99681979  0.33354661  1
  Ni  Ni21  1  0.66524011  0.33349062  0.99822879  1
  Cr  Cr22  1  0.83029145  0.50025095  0.16521035  1
  Cr  Cr23  1  0.66414286  0.33267354  0.33449292  1
  Ni  Ni24  1  0.66284888  0.66576704  0.00008863  1
  Ni  Ni25  1  0.83086419  0.83471896  0.16659708  1
  Ni  Ni26  1  0.66378177  0.66868434  0.33317806  1
  Ni  Ni27  1  0.16584640  0.16817432  0.49860486  1
  Ni  Ni28  1  0.99855964  0.00012926  0.66541830  1
  Cr  Cr29  1  0.16471359  0.16583597  0.83296077  1
  Ni  Ni30  1  0.16677739  0.49645239  0.50024994  1
  Ni  Ni31  1  0.99839054  0.33377587  0.66525551  1
  Ni  Ni32  1  0.16677310  0.50038322  0.83179693  1
  Cr  Cr33  1  0.16708054  0.83337880  0.50074265  1
  Ni  Ni34  1  -0.00043647  0.66436670  0.66626927  1
  Ni  Ni35  1  0.16848767  0.83157255  0.83237575  1
  Ni  Ni36  1  0.49871355  0.16538749  0.50009051  1
  Ni  Ni37  1  0.33359918  0.99836071  0.66540778  1
  Cr  Cr38  1  0.50116288  0.16580111  0.83274745  1
  Ni  Ni39  1  0.49872636  0.50016922  0.49986300  1
  Ni  Ni40  1  0.33274112  0.33452191  0.66395730  1
  Ni  Ni41  1  0.49942665  0.50134007  0.83342687  1
  Ni  Ni42  1  0.50154952  0.83272211  0.49936062  1
  Ni  Ni43  1  0.33330068  0.66537632  0.66755150  1
  Ni  Ni44  1  0.49768833  0.83064045  0.83287668  1
  Ni  Ni45  1  0.83371874  0.16536899  0.50063532  1
  Ni  Ni46  1  0.66614063  -0.00041563  0.66417372  1
  Ni  Ni47  1  0.83305370  0.16802868  0.83304805  1
  Ni  Ni48  1  0.83278918  0.49926488  0.50113742  1
  Ni  Ni49  1  0.66717224  0.33348050  0.66586401  1
  Ni  Ni50  1  0.83209029  0.49702270  0.83217105  1
  Ni  Ni51  1  0.83004193  0.83363434  0.49948258  1
  Ni  Ni52  1  0.66541975  0.66521657  0.66501449  1
  Cr  Cr53  1  0.83172707  0.83398564  0.83187825  1
" 