6438,Ni19Fe72Cr8_9,-230.192403994653, 180.940812159895,Ni19Fe72Cr8,"# generated using pymatgen
 data_Cr5Fe39Ni10
_symmetry_space_group_name_H-M   'P 1'
_cell_length_a   7.42212365
_cell_length_b   7.42212365
_cell_length_c   10.49646792
_cell_angle_alpha   90.00000000
_cell_angle_beta   90.00000000
_cell_angle_gamma   90.00000000
_symmetry_Int_Tables_number   1
_chemical_formula_structural   Cr5Fe39Ni10
_chemical_formula_sum   'Cr5 Fe39 Ni10'
_cell_volume   578.22857908
_cell_formula_units_Z   1
loop_
 _symmetry_equiv_pos_site_id
 _symmetry_equiv_pos_as_xyz
  1  'x, y, z'
loop_
 _atom_site_type_symbol
 _atom_site_label
 _atom_site_symmetry_multiplicity
 _atom_site_fract_x
 _atom_site_fract_y
 _atom_site_fract_z
 _atom_site_occupancy
  Fe  Fe0  1  1.00150349  1.00299626  1.00246796  1
  Fe  Fe1  1  0.16756444  0.17071175  0.16975693  1
  Fe  Fe2  1  1.00174589  0.00389747  0.33687498  1
  Fe  Fe3  1  1.00227439  0.33711540  0.00333842  1
  Fe  Fe4  1  0.16895582  0.50174719  0.16994877  1
  Ni  Ni5  1  0.00385897  0.33583390  0.33654000  1
  Ni  Ni6  1  1.00063846  0.66940182  1.00250239  1
  Cr  Cr7  1  0.16866601  0.83593490  0.16867570  1
  Fe  Fe8  1  0.00338427  0.66833599  0.33673576  1
  Ni  Ni9  1  0.33506397  0.00432250  1.00171873  1
  Cr  Cr10  1  0.50329477  0.17011910  0.16943617  1
  Fe  Fe11  1  0.33633832  0.00359040  0.33773081  1
  Fe  Fe12  1  0.33614049  0.33762745  1.00169834  1
  Fe  Fe13  1  0.50296904  0.50464923  0.16854463  1
  Fe  Fe14  1  0.33461593  0.33630544  0.33717835  1
  Fe  Fe15  1  0.33692530  0.66813924  0.00315277  1
  Fe  Fe16  1  0.50426083  0.83554919  0.16823165  1
  Fe  Fe17  1  0.33419072  0.66916776  0.33640373  1
  Fe  Fe18  1  0.67149549  1.00220909  0.00340859  1
  Fe  Fe19  1  0.83822292  0.16941877  0.16985261  1
  Fe  Fe20  1  0.67099238  0.00433506  0.33729927  1
  Ni  Ni21  1  0.67033360  0.33839930  1.00214969  1
  Fe  Fe22  1  0.83715447  0.50271677  0.16839945  1
  Fe  Fe23  1  0.67183346  0.33468201  0.33643010  1
  Ni  Ni24  1  0.67157317  0.66852575  0.00398115  1
  Ni  Ni25  1  0.83666684  0.83627327  0.16773534  1
  Cr  Cr26  1  0.67050359  0.67099127  0.33463908  1
  Fe  Fe27  1  0.16993286  0.17091943  0.50296892  1
  Fe  Fe28  1  0.00361215  0.00345049  0.66972381  1
  Fe  Fe29  1  0.16991831  0.16990813  0.83634963  1
  Fe  Fe30  1  0.16816215  0.50203812  0.50290715  1
  Fe  Fe31  1  0.00309238  0.33690696  0.66908636  1
  Fe  Fe32  1  0.16940568  0.50327458  0.83622623  1
  Fe  Fe33  1  0.16999616  0.83611471  0.50288244  1
  Fe  Fe34  1  0.00306283  0.66871964  0.67019121  1
  Fe  Fe35  1  0.16755046  0.83589964  0.83702893  1
  Ni  Ni36  1  0.50249549  0.16793884  0.50389209  1
  Fe  Fe37  1  0.33583503  0.00460459  0.66912984  1
  Fe  Fe38  1  0.50323204  0.17211471  0.83621937  1
  Cr  Cr39  1  0.50334213  0.50032045  0.50459780  1
  Ni  Ni40  1  0.33576857  0.33474718  0.67057191  1
  Fe  Fe41  1  0.50382232  0.50114191  0.83643064  1
  Fe  Fe42  1  0.50271603  0.83877917  0.50399261  1
  Fe  Fe43  1  0.33470707  0.66923896  0.66953547  1
  Cr  Cr44  1  0.50229216  0.83688743  0.83776884  1
  Fe  Fe45  1  0.83582427  0.17062907  0.50264252  1
  Fe  Fe46  1  0.66962677  0.00457733  0.66837601  1
  Fe  Fe47  1  0.83592267  0.17026422  0.83658170  1
  Ni  Ni48  1  0.83927110  0.50236303  0.50348825  1
  Fe  Fe49  1  0.67015689  0.33576921  0.67076874  1
  Ni  Ni50  1  0.83677079  0.50276747  0.83660877  1
  Fe  Fe51  1  0.83637113  0.83701713  0.50331949  1
  Fe  Fe52  1  0.67131374  0.66872287  0.66994733  1
  Fe  Fe53  1  0.83805498  0.83531163  0.83735573  1
" 