7474,Ni19Cr81_18,-232.179036126301, 154.760473488133,Ni19Cr81,"# generated using pymatgen
 data_Cr5Ni22
_symmetry_space_group_name_H-M   'P 1'
_cell_length_a   7.47524162
_cell_length_b   7.47524162
_cell_length_c   10.57158809
_cell_angle_alpha   90.00000000
_cell_angle_beta   90.00000000
_cell_angle_gamma   90.00000000
_symmetry_Int_Tables_number   1
_chemical_formula_structural   Cr5Ni22
_chemical_formula_sum   'Cr10 Ni44'
_cell_volume   590.73227985
_cell_formula_units_Z   2
loop_
 _symmetry_equiv_pos_site_id
 _symmetry_equiv_pos_as_xyz
  1  'x, y, z'
loop_
 _atom_site_type_symbol
 _atom_site_label
 _atom_site_symmetry_multiplicity
 _atom_site_fract_x
 _atom_site_fract_y
 _atom_site_fract_z
 _atom_site_occupancy
  Ni  Ni0  1  0.99916290  0.00025601  0.99921093  1
  Ni  Ni1  1  0.16634294  0.16589676  0.16616648  1
  Ni  Ni2  1  0.99883073  0.99910178  0.33274989  1
  Ni  Ni3  1  -0.00025973  0.33147580  0.00016618  1
  Ni  Ni4  1  0.16519930  0.49843266  0.16474511  1
  Cr  Cr5  1  0.99590211  0.33222506  0.33215893  1
  Ni  Ni6  1  0.99879200  0.66658631  0.00088592  1
  Ni  Ni7  1  0.16308891  0.83418831  0.16739158  1
  Ni  Ni8  1  0.99835541  0.66829394  0.33195703  1
  Cr  Cr9  1  0.33149775  0.00111272  0.99817486  1
  Ni  Ni10  1  0.49938703  0.16786856  0.16810437  1
  Ni  Ni11  1  0.33271468  0.00101524  0.33277323  1
  Ni  Ni12  1  0.33248985  0.33287827  0.99913296  1
  Ni  Ni13  1  0.50046451  0.49613561  0.16484588  1
  Ni  Ni14  1  0.33438248  0.33015073  0.33193356  1
  Cr  Cr15  1  0.33349528  0.66561068  0.99860691  1
  Ni  Ni16  1  0.50071508  0.83422197  0.16714983  1
  Cr  Cr17  1  0.33242623  0.66642607  0.33223423  1
  Cr  Cr18  1  0.66818735  0.00026990  0.99873207  1
  Ni  Ni19  1  0.83252054  0.16573193  0.16580744  1
  Ni  Ni20  1  0.66685803  0.00101233  0.33296231  1
  Ni  Ni21  1  0.66617240  0.33319932  0.00083362  1
  Ni  Ni22  1  0.83268728  0.49956139  0.16427454  1
  Ni  Ni23  1  0.66508315  0.33069156  0.33276721  1
  Ni  Ni24  1  0.66708528  0.66541261  0.00013472  1
  Ni  Ni25  1  0.83466220  0.83309188  0.16582734  1
  Cr  Cr26  1  0.66864795  0.66435574  0.33276024  1
  Ni  Ni27  1  0.16642953  0.16418756  0.49950202  1
  Ni  Ni28  1  0.99749474  0.00028300  0.66644919  1
  Ni  Ni29  1  0.16420731  0.16813960  0.83275097  1
  Cr  Cr30  1  0.16514623  0.49829978  0.50088690  1
  Ni  Ni31  1  0.99880666  0.33056412  0.66616562  1
  Ni  Ni32  1  0.16563082  0.49750531  0.83295661  1
  Ni  Ni33  1  0.16295031  0.83587064  0.49820891  1
  Ni  Ni34  1  0.99764629  0.66757834  0.66550787  1
  Ni  Ni35  1  0.16134260  0.83278970  0.83274788  1
  Ni  Ni36  1  0.50028294  0.16673420  0.49835095  1
  Cr  Cr37  1  0.33262316  0.00070531  0.66745816  1
  Ni  Ni38  1  0.50070890  0.16935829  0.83185004  1
  Ni  Ni39  1  0.50216764  0.49602144  0.50078055  1
  Ni  Ni40  1  0.33349852  0.33171622  0.66729586  1
  Ni  Ni41  1  0.50008507  0.49693238  0.83271060  1
  Ni  Ni42  1  0.50168097  0.83527338  0.49938008  1
  Cr  Cr43  1  0.33402103  0.66606866  0.66759694  1
  Ni  Ni44  1  0.50319513  0.83209978  0.83175320  1
  Ni  Ni45  1  0.83151228  0.16473456  0.50060563  1
  Ni  Ni46  1  0.66808111  -0.00005440  0.66623984  1
  Ni  Ni47  1  0.83349467  0.16539370  0.83193781  1
  Ni  Ni48  1  0.83096023  0.49961689  0.50137110  1
  Ni  Ni49  1  0.66621734  0.33155933  0.66477810  1
  Cr  Cr50  1  0.83272878  0.49958020  0.83275606  1
  Ni  Ni51  1  0.83365927  0.83399822  0.50049225  1
  Ni  Ni52  1  0.66704551  0.66684212  0.66542125  1
  Ni  Ni53  1  0.83389516  0.83340238  0.83196210  1
" 