7045,Ni19Fe13Cr66_9,-212.020088850058, 165.305097679898,Ni19Fe13Cr66,"# generated using pymatgen
 data_Cr37Fe7Ni10
_symmetry_space_group_name_H-M   'P 1'
_cell_length_a   7.55545033
_cell_length_b   7.55545033
_cell_length_c   10.68502032
_cell_angle_alpha   90.00000000
_cell_angle_beta   90.00000000
_cell_angle_gamma   90.00000000
_symmetry_Int_Tables_number   1
_chemical_formula_structural   Cr37Fe7Ni10
_chemical_formula_sum   'Cr37 Fe7 Ni10'
_cell_volume   609.95256514
_cell_formula_units_Z   1
loop_
 _symmetry_equiv_pos_site_id
 _symmetry_equiv_pos_as_xyz
  1  'x, y, z'
loop_
 _atom_site_type_symbol
 _atom_site_label
 _atom_site_symmetry_multiplicity
 _atom_site_fract_x
 _atom_site_fract_y
 _atom_site_fract_z
 _atom_site_occupancy
  Cr  Cr0  1  0.99145479  -0.00434850  -0.00396985  1
  Cr  Cr1  1  0.15964995  0.16279539  0.15952034  1
  Cr  Cr2  1  0.98999864  0.99304632  0.32619253  1
  Ni  Ni3  1  -0.00144932  0.32917786  -0.00490387  1
  Ni  Ni4  1  0.16021801  0.49400888  0.15835279  1
  Cr  Cr5  1  0.99360629  0.32998813  0.32652611  1
  Cr  Cr6  1  -0.00473096  0.65805994  -0.00410552  1
  Cr  Cr7  1  0.15929962  0.82503646  0.16287500  1
  Ni  Ni8  1  0.99233015  0.65918435  0.32813070  1
  Cr  Cr9  1  0.32852283  -0.00498776  -0.00500852  1
  Cr  Cr10  1  0.49504163  0.16351281  0.16115091  1
  Cr  Cr11  1  0.33069110  -0.00508091  0.32905120  1
  Ni  Ni12  1  0.32283389  0.33100731  0.99378274  1
  Cr  Cr13  1  0.49318274  0.49320536  0.15972874  1
  Cr  Cr14  1  0.32757092  0.32835589  0.32956915  1
  Fe  Fe15  1  0.32495512  0.65692306  -0.00529040  1
  Cr  Cr16  1  0.49391704  0.82561500  0.15920735  1
  Cr  Cr17  1  0.32543984  0.65897308  0.32825141  1
  Cr  Cr18  1  0.66244135  0.99317500  -0.00364245  1
  Ni  Ni19  1  0.82828340  0.16151542  0.16026165  1
  Cr  Cr20  1  0.66177740  -0.00506896  0.32656918  1
  Cr  Cr21  1  0.66233036  0.32584288  -0.00471103  1
  Cr  Cr22  1  0.82845255  0.49332284  0.16226615  1
  Fe  Fe23  1  0.66248044  0.32613068  0.32958149  1
  Cr  Cr24  1  0.66142934  0.66340976  0.99368551  1
  Ni  Ni25  1  0.82911501  0.82747807  0.16200914  1
  Cr  Cr26  1  0.66337064  0.66242142  0.32977315  1
  Cr  Cr27  1  0.15992877  0.15963397  0.49554447  1
  Fe  Fe28  1  0.99197108  -0.00578932  0.65841218  1
  Cr  Cr29  1  0.15960853  0.16126819  0.82738453  1
  Fe  Fe30  1  0.15932650  0.49503068  0.49246734  1
  Cr  Cr31  1  -0.00503798  0.32852700  0.66119374  1
  Fe  Fe32  1  0.16115492  0.49286134  0.83047714  1
  Cr  Cr33  1  0.15898770  0.82710102  0.49361506  1
  Cr  Cr34  1  0.99378432  0.65936912  0.65906993  1
  Cr  Cr35  1  0.16064765  0.82777844  0.82600087  1
  Ni  Ni36  1  0.49747362  0.16262519  0.49351484  1
  Cr  Cr37  1  0.32966467  -0.00531179  0.65856034  1
  Cr  Cr38  1  0.49301074  0.16278221  0.82837534  1
  Fe  Fe39  1  0.49588835  0.49391312  0.49350540  1
  Cr  Cr40  1  0.32657363  0.32856662  0.65957941  1
  Cr  Cr41  1  0.49344835  0.49403845  0.82992088  1
  Ni  Ni42  1  0.49626479  0.82682242  0.49486832  1
  Cr  Cr43  1  0.32735290  0.65906837  0.66050341  1
  Cr  Cr44  1  0.49276191  0.82545562  0.82878919  1
  Ni  Ni45  1  0.82497641  0.16157739  0.49436817  1
  Cr  Cr46  1  0.66124700  0.99366730  0.65952504  1
  Cr  Cr47  1  0.82990589  0.16213911  0.82725038  1
  Fe  Fe48  1  0.82718357  0.49451632  0.49259727  1
  Cr  Cr49  1  0.66091237  0.32678550  0.65695608  1
  Cr  Cr50  1  0.82757697  0.49292071  0.82777466  1
  Ni  Ni51  1  0.82711958  0.82665577  0.49423083  1
  Cr  Cr52  1  0.66120091  0.66205881  0.65909151  1
  Cr  Cr53  1  0.82893996  0.82732454  0.82565599  1
" 