4092,Ni19Fe72Cr8_8,-230.338831833144, 181.497919239617,Ni19Fe72Cr8,"# generated using pymatgen
 data_Cr5Fe39Ni10
_symmetry_space_group_name_H-M   'P 1'
_cell_length_a   7.42509061
_cell_length_b   7.42509061
_cell_length_c   10.50066385
_cell_angle_alpha   90.00000000
_cell_angle_beta   90.00000000
_cell_angle_gamma   90.00000000
_symmetry_Int_Tables_number   1
_chemical_formula_structural   Cr5Fe39Ni10
_chemical_formula_sum   'Cr5 Fe39 Ni10'
_cell_volume   578.92229060
_cell_formula_units_Z   1
loop_
 _symmetry_equiv_pos_site_id
 _symmetry_equiv_pos_as_xyz
  1  'x, y, z'
loop_
 _atom_site_type_symbol
 _atom_site_label
 _atom_site_symmetry_multiplicity
 _atom_site_fract_x
 _atom_site_fract_y
 _atom_site_fract_z
 _atom_site_occupancy
  Cr  Cr0  1  0.00301721  0.00356638  0.00330206  1
  Fe  Fe1  1  0.17107698  0.17044523  0.17045452  1
  Fe  Fe2  1  0.00444844  0.00287429  0.33624449  1
  Fe  Fe3  1  0.00327520  0.33767571  1.00230545  1
  Ni  Ni4  1  0.16742850  0.50283729  0.16916367  1
  Fe  Fe5  1  0.00334456  0.33631412  0.33684857  1
  Fe  Fe6  1  0.00366838  0.66820019  0.00327770  1
  Fe  Fe7  1  0.17022852  0.83641193  0.17074375  1
  Fe  Fe8  1  0.00308410  0.66929033  0.33597962  1
  Ni  Ni9  1  0.33752739  0.00453482  0.00337877  1
  Ni  Ni10  1  0.50264511  0.16869954  0.16704995  1
  Fe  Fe11  1  0.33420145  0.00430332  0.33502026  1
  Fe  Fe12  1  0.33615156  0.33416316  0.00302696  1
  Fe  Fe13  1  0.50244705  0.50076997  0.17109938  1
  Fe  Fe14  1  0.33618990  0.33578301  0.33693836  1
  Cr  Cr15  1  0.33570692  0.66963820  1.00266110  1
  Fe  Fe16  1  0.50126831  0.83716498  0.16961412  1
  Fe  Fe17  1  0.33502280  0.66839187  0.33509089  1
  Fe  Fe18  1  0.66696775  0.00443064  1.00276881  1
  Fe  Fe19  1  0.83612804  0.17162920  0.16888180  1
  Cr  Cr20  1  0.67040611  0.00374742  0.33439805  1
  Fe  Fe21  1  0.66904673  0.33348337  0.00297935  1
  Fe  Fe22  1  0.83688090  0.50161883  0.17024207  1
  Fe  Fe23  1  0.66893520  0.33714082  0.33596486  1
  Cr  Cr24  1  0.67015217  0.66976733  0.00377558  1
  Fe  Fe25  1  0.83698267  0.83522892  0.17046243  1
  Fe  Fe26  1  0.67036406  0.66729703  0.33515158  1
  Ni  Ni27  1  0.16933290  0.17098443  0.50235717  1
  Fe  Fe28  1  0.00318591  0.00437377  0.66964045  1
  Fe  Fe29  1  0.17040765  0.16989506  0.83463236  1
  Ni  Ni30  1  0.16814377  0.50203610  0.50325946  1
  Ni  Ni31  1  0.00359278  0.33568891  0.66922277  1
  Fe  Fe32  1  0.16862314  0.50160968  0.83490968  1
  Fe  Fe33  1  0.16839510  0.83676423  0.50266901  1
  Fe  Fe34  1  0.00360616  0.66817068  0.66921663  1
  Fe  Fe35  1  0.16978696  0.83697550  0.83506581  1
  Ni  Ni36  1  0.50198380  0.17091635  0.50467162  1
  Fe  Fe37  1  0.33518853  0.00481795  0.67053850  1
  Fe  Fe38  1  0.50288530  0.16886165  0.83633671  1
  Fe  Fe39  1  0.50160259  0.50004913  0.50306324  1
  Ni  Ni40  1  0.33554714  0.33650318  0.66916258  1
  Fe  Fe41  1  0.50326722  0.50124215  0.83431780  1
  Cr  Cr42  1  0.50242134  0.83650005  0.50327105  1
  Fe  Fe43  1  0.33489247  0.66760679  0.67056195  1
  Ni  Ni44  1  0.50294962  0.83815889  0.83577756  1
  Fe  Fe45  1  0.83757120  0.17076945  0.50437687  1
  Fe  Fe46  1  0.67010102  0.00479699  0.67037434  1
  Ni  Ni47  1  0.83519625  0.17059302  0.83573883  1
  Fe  Fe48  1  0.83665129  0.50187157  0.50300068  1
  Fe  Fe49  1  0.66953400  0.33563633  0.66953065  1
  Fe  Fe50  1  0.83658720  0.50186283  0.83523698  1
  Fe  Fe51  1  0.83899299  0.83583420  0.50340698  1
  Fe  Fe52  1  0.66997555  0.66804464  0.67079857  1
  Fe  Fe53  1  0.83555114  0.83659760  0.83460663  1
" 