7919,Ni19Fe13Cr66_17,-212.457672676193, 172.406278715272,Ni19Fe13Cr66,"# generated using pymatgen
 data_Cr37Fe7Ni10
_symmetry_space_group_name_H-M   'P 1'
_cell_length_a   7.54413916
_cell_length_b   7.54413916
_cell_length_c   10.66902391
_cell_angle_alpha   90.00000000
_cell_angle_beta   90.00000000
_cell_angle_gamma   90.00000000
_symmetry_Int_Tables_number   1
_chemical_formula_structural   Cr37Fe7Ni10
_chemical_formula_sum   'Cr37 Fe7 Ni10'
_cell_volume   607.21720743
_cell_formula_units_Z   1
loop_
 _symmetry_equiv_pos_site_id
 _symmetry_equiv_pos_as_xyz
  1  'x, y, z'
loop_
 _atom_site_type_symbol
 _atom_site_label
 _atom_site_symmetry_multiplicity
 _atom_site_fract_x
 _atom_site_fract_y
 _atom_site_fract_z
 _atom_site_occupancy
  Cr  Cr0  1  0.99470726  -0.00315654  -0.00294069  1
  Cr  Cr1  1  0.16322879  0.16404529  0.16182009  1
  Cr  Cr2  1  0.99433710  -0.00085565  0.32725049  1
  Cr  Cr3  1  0.99457754  0.32721813  -0.00434033  1
  Fe  Fe4  1  0.16189560  0.49499384  0.16346208  1
  Ni  Ni5  1  -0.00477100  0.32796304  0.32738348  1
  Cr  Cr6  1  0.99354991  0.66072540  0.99268824  1
  Cr  Cr7  1  0.16322001  0.82440805  0.16180103  1
  Cr  Cr8  1  0.99369382  0.66089356  0.32855215  1
  Cr  Cr9  1  0.32695023  -0.00472568  0.99158645  1
  Cr  Cr10  1  0.49706525  0.16343933  0.15957199  1
  Cr  Cr11  1  0.32677148  -0.00354793  0.33063342  1
  Cr  Cr12  1  0.32872730  0.32976707  0.99288479  1
  Cr  Cr13  1  0.49480466  0.49384415  0.16271442  1
  Cr  Cr14  1  0.32671918  0.33011044  0.33112019  1
  Cr  Cr15  1  0.33073484  0.65944289  0.99358899  1
  Cr  Cr16  1  0.49359185  0.82771550  0.16339477  1
  Ni  Ni17  1  0.33078386  0.65905197  0.32879848  1
  Cr  Cr18  1  0.66348528  0.99431860  -0.00401460  1
  Fe  Fe19  1  0.82730160  0.16456861  0.16165542  1
  Cr  Cr20  1  0.66372715  0.99384403  0.32773247  1
  Ni  Ni21  1  0.66319604  0.33112194  0.99288859  1
  Cr  Cr22  1  0.82860400  0.49330765  0.16162668  1
  Cr  Cr23  1  0.66209021  0.32979918  0.32920670  1
  Cr  Cr24  1  0.66058081  0.65923100  0.99128962  1
  Cr  Cr25  1  0.82759920  0.82573148  0.16319851  1
  Ni  Ni26  1  0.65822958  0.65912285  0.33012592  1
  Fe  Fe27  1  0.16020510  0.16367102  0.49711340  1
  Cr  Cr28  1  -0.00406276  -0.00267149  0.66061842  1
  Ni  Ni29  1  0.16228591  0.16236632  0.82460762  1
  Cr  Cr30  1  0.15965275  0.49502927  0.49316047  1
  Ni  Ni31  1  0.99322582  0.32685135  0.66282094  1
  Cr  Cr32  1  0.15696635  0.49349475  0.82838780  1
  Cr  Cr33  1  0.16236688  0.82715233  0.49605597  1
  Fe  Fe34  1  -0.00461474  0.65742602  0.66256189  1
  Cr  Cr35  1  0.16234718  0.82846145  0.82703603  1
  Cr  Cr36  1  0.49529421  0.16302553  0.49810123  1
  Ni  Ni37  1  0.32753014  -0.00501938  0.66283960  1
  Cr  Cr38  1  0.49539892  0.16185888  0.82753908  1
  Ni  Ni39  1  0.49577784  0.49494509  0.49444381  1
  Cr  Cr40  1  0.32771164  0.32849600  0.66029436  1
  Fe  Fe41  1  0.49712870  0.49134958  0.82675325  1
  Cr  Cr42  1  0.49429756  0.82854528  0.49372837  1
  Cr  Cr43  1  0.33161600  0.66006540  0.66228719  1
  Fe  Fe44  1  0.49560203  0.82970253  0.82611628  1
  Cr  Cr45  1  0.82743103  0.16485320  0.49591901  1
  Fe  Fe46  1  0.65994531  -0.00288041  0.66190902  1
  Cr  Cr47  1  0.82645456  0.16494047  0.82887735  1
  Cr  Cr48  1  0.82860396  0.49349142  0.49738181  1
  Ni  Ni49  1  0.66304738  0.33166521  0.66314571  1
  Ni  Ni50  1  0.82604240  0.49245976  0.82551886  1
  Cr  Cr51  1  0.82827890  0.82636956  0.49604918  1
  Cr  Cr52  1  0.66090335  0.65965867  0.66211560  1
  Cr  Cr53  1  0.82925623  0.82640817  0.82503258  1
" 