7129,Ni19Cr81_9,-232.414719255279, 157.967384398678,Ni19Cr81,"# generated using pymatgen
 data_Cr5Ni22
_symmetry_space_group_name_H-M   'P 1'
_cell_length_a   7.47347529
_cell_length_b   7.47347529
_cell_length_c   10.56909011
_cell_angle_alpha   90.00000000
_cell_angle_beta   90.00000000
_cell_angle_gamma   90.00000000
_symmetry_Int_Tables_number   1
_chemical_formula_structural   Cr5Ni22
_chemical_formula_sum   'Cr10 Ni44'
_cell_volume   590.31362415
_cell_formula_units_Z   2
loop_
 _symmetry_equiv_pos_site_id
 _symmetry_equiv_pos_as_xyz
  1  'x, y, z'
loop_
 _atom_site_type_symbol
 _atom_site_label
 _atom_site_symmetry_multiplicity
 _atom_site_fract_x
 _atom_site_fract_y
 _atom_site_fract_z
 _atom_site_occupancy
  Cr  Cr0  1  0.99935203  0.00064346  0.99936739  1
  Ni  Ni1  1  0.16788540  0.16828945  0.16634991  1
  Ni  Ni2  1  -0.00040658  0.99947243  0.33482404  1
  Ni  Ni3  1  0.00145530  0.33453522  -0.00020707  1
  Ni  Ni4  1  0.16617947  0.49762870  0.16543713  1
  Ni  Ni5  1  0.99788848  0.33270635  0.33223729  1
  Cr  Cr6  1  0.99931171  0.66351588  0.99937098  1
  Cr  Cr7  1  0.16766801  0.83270244  0.16764110  1
  Ni  Ni8  1  0.99758785  0.66653191  0.33256839  1
  Ni  Ni9  1  0.33623273  -0.00023369  -0.00020984  1
  Ni  Ni10  1  0.49782436  0.16453755  0.16566519  1
  Ni  Ni11  1  0.33251525  0.99805711  0.33258371  1
  Ni  Ni12  1  0.33214091  0.33352961  0.00066465  1
  Ni  Ni13  1  0.49937809  0.50122414  0.16637479  1
  Cr  Cr14  1  0.33334293  0.33271606  0.33102558  1
  Ni  Ni15  1  0.33524018  0.66540871  0.99854447  1
  Ni  Ni16  1  0.50124292  0.83294957  0.16580365  1
  Ni  Ni17  1  0.33453939  0.66795519  0.33280253  1
  Ni  Ni18  1  0.66265827  0.99805369  -0.00038552  1
  Cr  Cr19  1  0.83289752  0.16596693  0.16743688  1
  Ni  Ni20  1  0.66657531  0.99777526  0.33220399  1
  Cr  Cr21  1  0.66547617  0.33357501  0.99853006  1
  Ni  Ni22  1  0.83316050  0.50103588  0.16784681  1
  Ni  Ni23  1  0.66802823  0.33472420  0.33317280  1
  Ni  Ni24  1  0.66370147  0.66710156  0.00086624  1
  Ni  Ni25  1  0.82936869  0.83122133  0.16783118  1
  Ni  Ni26  1  0.66658838  0.66621564  0.33241580  1
  Ni  Ni27  1  0.16348867  0.16353537  0.49983355  1
  Ni  Ni28  1  -0.00024220  -0.00037122  0.66426601  1
  Cr  Cr29  1  0.16684928  0.16722261  0.83251860  1
  Cr  Cr30  1  0.16585054  0.50037701  0.50039641  1
  Ni  Ni31  1  0.99773683  0.33271011  0.66668396  1
  Ni  Ni32  1  0.16700123  0.50021495  0.83289927  1
  Ni  Ni33  1  0.16608778  0.83465062  0.49989717  1
  Ni  Ni34  1  -0.00025323  0.66636547  0.66653037  1
  Ni  Ni35  1  0.16961327  0.83107453  0.83088961  1
  Cr  Cr36  1  0.50041016  0.16583360  0.50040958  1
  Ni  Ni37  1  0.33252840  0.99793065  0.66632947  1
  Ni  Ni38  1  0.50042412  0.16535230  0.83267586  1
  Ni  Ni39  1  0.50211007  0.50213777  0.50039165  1
  Ni  Ni40  1  0.33384603  0.33369890  0.66751636  1
  Ni  Ni41  1  0.49856383  0.50039491  0.83196596  1
  Ni  Ni42  1  0.49952991  0.83144766  0.49935468  1
  Ni  Ni43  1  0.33355137  0.66708120  0.66735648  1
  Ni  Ni44  1  0.49801952  0.83295177  0.83354959  1
  Ni  Ni45  1  0.83467037  0.16608039  0.49989906  1
  Ni  Ni46  1  0.66642192  -0.00006438  0.66690146  1
  Ni  Ni47  1  0.83127191  0.16796075  0.83112609  1
  Ni  Ni48  1  0.83146681  0.49950807  0.49935469  1
  Ni  Ni49  1  0.66712910  0.33373419  0.66698929  1
  Ni  Ni50  1  0.83316147  0.49782434  0.83150078  1
  Ni  Ni51  1  0.83309082  0.83312100  0.49903648  1
  Ni  Ni52  1  0.66543561  0.66505546  0.66544766  1
  Cr  Cr53  1  0.83118167  0.83311062  0.83229596  1
" 