1214,Ni19Fe68Cr11_15,-229.39141656737, 184.913388998439,Ni19Fe68Cr11,"# generated using pymatgen
 data_Cr7Fe37Ni10
_symmetry_space_group_name_H-M   'P 1'
_cell_length_a   7.42882816
_cell_length_b   7.42882816
_cell_length_c   10.50594954
_cell_angle_alpha   90.00000000
_cell_angle_beta   90.00000000
_cell_angle_gamma   90.00000000
_symmetry_Int_Tables_number   1
_chemical_formula_structural   Cr7Fe37Ni10
_chemical_formula_sum   'Cr7 Fe37 Ni10'
_cell_volume   579.79696214
_cell_formula_units_Z   1
loop_
 _symmetry_equiv_pos_site_id
 _symmetry_equiv_pos_as_xyz
  1  'x, y, z'
loop_
 _atom_site_type_symbol
 _atom_site_label
 _atom_site_symmetry_multiplicity
 _atom_site_fract_x
 _atom_site_fract_y
 _atom_site_fract_z
 _atom_site_occupancy
  Fe  Fe0  1  0.99909214  0.00290019  0.00354220  1
  Fe  Fe1  1  0.16873646  0.17227896  0.16869570  1
  Cr  Cr2  1  0.00338618  0.00332605  0.33582745  1
  Fe  Fe3  1  1.00200539  0.33695637  0.00269627  1
  Ni  Ni4  1  0.16934797  0.50272710  0.16835783  1
  Fe  Fe5  1  0.00399095  0.33783368  0.33614184  1
  Ni  Ni6  1  1.00096608  0.66827061  0.00339813  1
  Fe  Fe7  1  0.16802841  0.83284580  0.16798796  1
  Fe  Fe8  1  0.00471508  0.66597239  0.33467961  1
  Cr  Cr9  1  0.33674028  0.00314567  0.00373962  1
  Fe  Fe10  1  0.50355733  0.17187299  0.16998956  1
  Cr  Cr11  1  0.33684710  0.00275448  0.33738257  1
  Fe  Fe12  1  0.33628003  0.33905970  0.00320330  1
  Fe  Fe13  1  0.50231434  0.50222942  0.16842963  1
  Ni  Ni14  1  0.33597290  0.33723507  0.33632095  1
  Fe  Fe15  1  0.33749780  0.66616957  0.00304315  1
  Fe  Fe16  1  0.50389774  0.83361551  0.16852725  1
  Fe  Fe17  1  0.33508086  0.66683225  0.33596397  1
  Fe  Fe18  1  0.67113239  1.00168285  1.00225023  1
  Fe  Fe19  1  0.83542624  0.17069302  0.16819746  1
  Fe  Fe20  1  0.66761645  0.00409504  0.33563439  1
  Ni  Ni21  1  0.66951404  0.33698276  1.00188328  1
  Fe  Fe22  1  0.83619962  0.50293563  0.16840145  1
  Fe  Fe23  1  0.66847282  0.33499195  0.33632211  1
  Ni  Ni24  1  0.67044561  0.66853563  1.00117440  1
  Fe  Fe25  1  0.83579387  0.83408822  0.16821387  1
  Fe  Fe26  1  0.66791838  0.66863252  0.33461295  1
  Fe  Fe27  1  0.17064339  0.17046928  0.50314896  1
  Fe  Fe28  1  0.00360495  0.00318549  0.66903263  1
  Fe  Fe29  1  0.17029871  0.17053102  0.83588066  1
  Ni  Ni30  1  0.17011957  0.50321882  0.50161907  1
  Cr  Cr31  1  1.00165417  0.33668430  0.66860600  1
  Fe  Fe32  1  0.17085736  0.50264552  0.83692758  1
  Fe  Fe33  1  0.17119818  0.83439321  0.50449052  1
  Fe  Fe34  1  1.00217217  0.66865312  0.66927323  1
  Cr  Cr35  1  0.16757393  0.83469863  0.83434469  1
  Ni  Ni36  1  0.50289987  0.17120832  0.50274106  1
  Fe  Fe37  1  0.33594793  0.00401028  0.66846180  1
  Fe  Fe38  1  0.50283686  0.17119440  0.83529872  1
  Fe  Fe39  1  0.50229903  0.50160407  0.50312103  1
  Fe  Fe40  1  0.33834069  0.33592314  0.66833641  1
  Ni  Ni41  1  0.50319339  0.50198542  0.83585761  1
  Fe  Fe42  1  0.50044096  0.83443482  0.50304029  1
  Fe  Fe43  1  0.33743166  0.66778411  0.66869885  1
  Ni  Ni44  1  0.50494264  0.83389674  0.83565447  1
  Fe  Fe45  1  0.83482108  0.17232239  0.50209738  1
  Cr  Cr46  1  0.66703501  0.00345071  0.67083173  1
  Fe  Fe47  1  0.83457911  0.16953153  0.83741878  1
  Fe  Fe48  1  0.83486545  0.50104951  0.50211479  1
  Ni  Ni49  1  0.66795601  0.33766289  0.66832984  1
  Fe  Fe50  1  0.83355177  0.50412044  0.83718638  1
  Cr  Cr51  1  0.83633810  0.83525196  0.50361573  1
  Fe  Fe52  1  0.66811866  0.66626949  0.67112979  1
  Fe  Fe53  1  0.83421113  0.83406517  0.83703305  1
" 