7782,Ni19Cr81_5,-232.314896242385, 156.705271574348,Ni19Cr81,"# generated using pymatgen
 data_Cr5Ni22
_symmetry_space_group_name_H-M   'P 1'
_cell_length_a   7.47435666
_cell_length_b   7.47435666
_cell_length_c   10.57033655
_cell_angle_alpha   90.00000000
_cell_angle_beta   90.00000000
_cell_angle_gamma   90.00000000
_symmetry_Int_Tables_number   1
_chemical_formula_structural   Cr5Ni22
_chemical_formula_sum   'Cr10 Ni44'
_cell_volume   590.52250059
_cell_formula_units_Z   2
loop_
 _symmetry_equiv_pos_site_id
 _symmetry_equiv_pos_as_xyz
  1  'x, y, z'
loop_
 _atom_site_type_symbol
 _atom_site_label
 _atom_site_symmetry_multiplicity
 _atom_site_fract_x
 _atom_site_fract_y
 _atom_site_fract_z
 _atom_site_occupancy
  Cr  Cr0  1  0.99844131  0.00043314  0.00010263  1
  Ni  Ni1  1  0.16738232  0.16705055  0.16701048  1
  Ni  Ni2  1  0.99846995  0.00019929  0.33172684  1
  Ni  Ni3  1  0.00212005  0.33355067  0.99852375  1
  Ni  Ni4  1  0.16685014  0.49848030  0.16534025  1
  Ni  Ni5  1  0.00191214  0.33183044  0.33366298  1
  Ni  Ni6  1  -0.00018954  0.66480969  -0.00001343  1
  Ni  Ni7  1  0.16468907  0.83298519  0.16617918  1
  Ni  Ni8  1  0.99795996  0.66648515  0.33259779  1
  Ni  Ni9  1  0.33356926  0.00004628  0.00058078  1
  Ni  Ni10  1  0.49747612  0.16598405  0.16654876  1
  Ni  Ni11  1  0.33272624  0.00272695  0.33281741  1
  Ni  Ni12  1  0.33063381  0.33419700  0.00097056  1
  Ni  Ni13  1  0.49694316  0.49852281  0.16498877  1
  Ni  Ni14  1  0.33040694  0.33046308  0.33156485  1
  Ni  Ni15  1  0.33302443  0.66431055  0.99938393  1
  Cr  Cr16  1  0.50041807  0.83380209  0.16518915  1
  Cr  Cr17  1  0.33203900  0.66509410  0.33223787  1
  Ni  Ni18  1  0.66631081  0.99773684  -0.00023552  1
  Ni  Ni19  1  0.83367566  0.16379037  0.16682108  1
  Ni  Ni20  1  0.66734850  0.99878207  0.33343280  1
  Cr  Cr21  1  0.66627604  0.33256244  -0.00048461  1
  Cr  Cr22  1  0.83429897  0.50120493  0.16663740  1
  Cr  Cr23  1  0.66570377  0.33136800  0.33282755  1
  Ni  Ni24  1  0.66567861  0.66774093  0.99788560  1
  Ni  Ni25  1  0.83365158  0.83351842  0.16718627  1
  Ni  Ni26  1  0.66869488  0.66879673  0.33363538  1
  Ni  Ni27  1  0.16641083  0.16775094  0.49944311  1
  Ni  Ni28  1  0.99778075  0.00135725  0.66619185  1
  Ni  Ni29  1  0.16539235  0.16879163  0.83205692  1
  Ni  Ni30  1  0.16346875  0.49694300  0.50011616  1
  Ni  Ni31  1  -0.00043797  0.33267165  0.66635498  1
  Ni  Ni32  1  0.16585360  0.49798280  0.83308997  1
  Cr  Cr33  1  0.16548878  0.83371241  0.50016674  1
  Ni  Ni34  1  0.99797939  0.66449978  0.66596172  1
  Cr  Cr35  1  0.16725580  0.83250986  0.83218139  1
  Ni  Ni36  1  0.49862720  0.16359857  0.49973634  1
  Ni  Ni37  1  0.33373830  0.00022804  0.66513727  1
  Cr  Cr38  1  0.49856047  0.16506095  0.83220128  1
  Cr  Cr39  1  0.49992568  0.49929867  0.50076570  1
  Ni  Ni40  1  0.33115995  0.33304363  0.66599123  1
  Ni  Ni41  1  0.49897928  0.50203386  0.83257451  1
  Ni  Ni42  1  0.50209956  0.83558928  0.50069468  1
  Ni  Ni43  1  0.33389046  0.66527789  0.66739804  1
  Ni  Ni44  1  0.50126441  0.83117008  0.83271343  1
  Ni  Ni45  1  0.83350227  0.16549339  0.50032530  1
  Ni  Ni46  1  0.66703046  0.99863313  0.66532910  1
  Ni  Ni47  1  0.83434288  0.16647170  0.83136076  1
  Ni  Ni48  1  0.83525329  0.50041515  0.50030477  1
  Ni  Ni49  1  0.66780532  0.33284313  0.66617497  1
  Ni  Ni50  1  0.83370049  0.50041335  0.83186733  1
  Ni  Ni51  1  0.83109008  0.83263253  0.49890461  1
  Ni  Ni52  1  0.66666711  0.66706618  0.66702134  1
  Ni  Ni53  1  0.83025644  0.83163625  0.83241518  1
" 