7596,Ni19Fe68Cr11_0,-229.680547476465, 177.562722719283,Ni19Fe68Cr11,"# generated using pymatgen
 data_Cr7Fe37Ni10
_symmetry_space_group_name_H-M   'P 1'
_cell_length_a   7.43371766
_cell_length_b   7.43371766
_cell_length_c   10.51286433
_cell_angle_alpha   90.00000000
_cell_angle_beta   90.00000000
_cell_angle_gamma   90.00000000
_symmetry_Int_Tables_number   1
_chemical_formula_structural   Cr7Fe37Ni10
_chemical_formula_sum   'Cr7 Fe37 Ni10'
_cell_volume   580.94254653
_cell_formula_units_Z   1
loop_
 _symmetry_equiv_pos_site_id
 _symmetry_equiv_pos_as_xyz
  1  'x, y, z'
loop_
 _atom_site_type_symbol
 _atom_site_label
 _atom_site_symmetry_multiplicity
 _atom_site_fract_x
 _atom_site_fract_y
 _atom_site_fract_z
 _atom_site_occupancy
  Ni  Ni0  1  0.00382581  1.00211812  0.99941005  1
  Ni  Ni1  1  0.16944975  0.17022931  0.16842616  1
  Cr  Cr2  1  0.00415164  1.00035435  0.33671429  1
  Fe  Fe3  1  0.00310082  0.33692207  1.00101284  1
  Fe  Fe4  1  0.16805798  0.50381028  0.16806614  1
  Fe  Fe5  1  1.00196867  0.33856755  0.33497558  1
  Fe  Fe6  1  1.00148770  0.66891167  0.99925203  1
  Fe  Fe7  1  0.17051572  0.83655356  0.16715067  1
  Fe  Fe8  1  0.00296381  0.66648597  0.33747590  1
  Fe  Fe9  1  0.33505389  1.00217354  0.00389869  1
  Fe  Fe10  1  0.50148793  0.16593372  0.16813529  1
  Fe  Fe11  1  0.33775395  1.00049172  0.33490574  1
  Fe  Fe12  1  0.33551940  0.33517042  0.00302400  1
  Fe  Fe13  1  0.50312818  0.50344508  0.16732199  1
  Cr  Cr14  1  0.33628059  0.33547909  0.33575828  1
  Fe  Fe15  1  0.33483468  0.66924175  0.00263842  1
  Ni  Ni16  1  0.49959046  0.83367145  0.16981662  1
  Fe  Fe17  1  0.33602157  0.67189681  0.33653603  1
  Fe  Fe18  1  0.66808897  1.00091192  1.00196839  1
  Cr  Cr19  1  0.83647288  0.17169422  0.16741196  1
  Ni  Ni20  1  0.66638997  1.00161409  0.33558955  1
  Fe  Fe21  1  0.66837764  0.33656290  1.00024597  1
  Fe  Fe22  1  0.83536536  0.50314979  0.16751347  1
  Fe  Fe23  1  0.66877836  0.33679171  0.33584234  1
  Ni  Ni24  1  0.66853278  0.66697452  1.00100430  1
  Cr  Cr25  1  0.83378093  0.83451125  0.16734299  1
  Fe  Fe26  1  0.66726109  0.66831662  0.33526149  1
  Fe  Fe27  1  0.17093189  0.16819215  0.50375687  1
  Fe  Fe28  1  0.00524861  1.00160332  0.67039702  1
  Fe  Fe29  1  0.16798089  0.16828673  0.83679193  1
  Fe  Fe30  1  0.16889036  0.50300234  0.50278111  1
  Fe  Fe31  1  0.00392886  0.33641601  0.67070111  1
  Fe  Fe32  1  0.16969469  0.50373491  0.83612385  1
  Ni  Ni33  1  0.17315381  0.83456963  0.50153364  1
  Cr  Cr34  1  1.00219061  0.67179755  0.67086266  1
  Ni  Ni35  1  0.17020950  0.83609186  0.83764184  1
  Fe  Fe36  1  0.50098590  0.16653842  0.50348907  1
  Fe  Fe37  1  0.33294805  1.00068160  0.66813907  1
  Fe  Fe38  1  0.50288883  0.16985433  0.83512899  1
  Fe  Fe39  1  0.50247483  0.50402651  0.50373535  1
  Fe  Fe40  1  0.33532378  0.33623562  0.66878272  1
  Fe  Fe41  1  0.50212838  0.50222504  0.83557359  1
  Fe  Fe42  1  0.50224811  0.83550298  0.50205788  1
  Ni  Ni43  1  0.33542220  0.66714338  0.66851063  1
  Cr  Cr44  1  0.50037612  0.83429129  0.83480721  1
  Cr  Cr45  1  0.83573034  0.17134944  0.50307055  1
  Fe  Fe46  1  0.66884626  1.00056039  0.66810373  1
  Fe  Fe47  1  0.83608696  0.16707559  0.83543203  1
  Fe  Fe48  1  0.83541945  0.50470571  0.50229342  1
  Fe  Fe49  1  0.66756356  0.33834173  0.67047240  1
  Ni  Ni50  1  0.83478009  0.49979621  0.83644355  1
  Fe  Fe51  1  0.83393894  0.83431934  0.50232630  1
  Fe  Fe52  1  0.66839150  0.66727873  0.66992860  1
  Ni  Ni53  1  0.83503466  0.83545342  0.83547337  1
" 