4068,Ni19Fe13Cr66_5,-212.409552359181, 169.884212100656,Ni19Fe13Cr66,"# generated using pymatgen
 data_Cr37Fe7Ni10
_symmetry_space_group_name_H-M   'P 1'
_cell_length_a   7.54554926
_cell_length_b   7.54554926
_cell_length_c   10.67101810
_cell_angle_alpha   90.00000000
_cell_angle_beta   90.00000000
_cell_angle_gamma   90.00000000
_symmetry_Int_Tables_number   1
_chemical_formula_structural   Cr37Fe7Ni10
_chemical_formula_sum   'Cr37 Fe7 Ni10'
_cell_volume   607.55776179
_cell_formula_units_Z   1
loop_
 _symmetry_equiv_pos_site_id
 _symmetry_equiv_pos_as_xyz
  1  'x, y, z'
loop_
 _atom_site_type_symbol
 _atom_site_label
 _atom_site_symmetry_multiplicity
 _atom_site_fract_x
 _atom_site_fract_y
 _atom_site_fract_z
 _atom_site_occupancy
  Cr  Cr0  1  0.99261945  0.99462574  -0.00187895  1
  Cr  Cr1  1  0.16140154  0.16413692  0.16284610  1
  Cr  Cr2  1  0.99350773  0.99390274  0.32620629  1
  Ni  Ni3  1  0.99443771  0.33169575  0.99330583  1
  Cr  Cr4  1  0.15917538  0.49539859  0.15937669  1
  Cr  Cr5  1  0.99170096  0.32633724  0.32849903  1
  Ni  Ni6  1  0.99423475  0.65963822  0.99291975  1
  Cr  Cr7  1  0.15892344  0.82439330  0.16400419  1
  Ni  Ni8  1  0.99269398  0.66132374  0.32907572  1
  Cr  Cr9  1  0.32564315  0.99392202  0.99411023  1
  Cr  Cr10  1  0.49586638  0.16158044  0.16052635  1
  Fe  Fe11  1  0.32915446  0.99433202  0.32761184  1
  Cr  Cr12  1  0.32738958  0.33099789  0.99383273  1
  Ni  Ni13  1  0.49500310  0.49501084  0.16155891  1
  Cr  Cr14  1  0.33047434  0.33018386  0.32886608  1
  Fe  Fe15  1  0.32655859  0.66081342  -0.00464005  1
  Cr  Cr16  1  0.49664539  0.82851659  0.15983978  1
  Cr  Cr17  1  0.33050384  0.65949846  0.32722250  1
  Ni  Ni18  1  0.66452046  0.99327258  -0.00345546  1
  Fe  Fe19  1  0.82783156  0.16170415  0.15978158  1
  Cr  Cr20  1  0.66658959  -0.00500407  0.32637067  1
  Cr  Cr21  1  0.66299878  0.32910861  -0.00236148  1
  Cr  Cr22  1  0.83106912  0.49679419  0.16111260  1
  Cr  Cr23  1  0.66197405  0.33061943  0.32925413  1
  Cr  Cr24  1  0.66172526  0.66123531  -0.00325083  1
  Ni  Ni25  1  0.82919805  0.82575276  0.16016130  1
  Cr  Cr26  1  0.66278430  0.65904314  0.32871539  1
  Cr  Cr27  1  0.16093755  0.16265218  0.49355048  1
  Cr  Cr28  1  0.99326830  -0.00329692  0.65969793  1
  Cr  Cr29  1  0.15901785  0.16551900  0.82740201  1
  Cr  Cr30  1  0.15661076  0.49563718  0.49508474  1
  Ni  Ni31  1  0.99241334  0.33177613  0.66183943  1
  Fe  Fe32  1  0.15604807  0.49491913  0.82880749  1
  Cr  Cr33  1  0.16080633  0.82569123  0.49190861  1
  Fe  Fe34  1  0.99315760  0.65847430  0.66191855  1
  Cr  Cr35  1  0.15887730  0.82328866  0.82844495  1
  Cr  Cr36  1  0.49670173  0.15987732  0.49620593  1
  Cr  Cr37  1  0.32569873  0.99383247  0.66138150  1
  Cr  Cr38  1  0.49822298  0.15961432  0.82708532  1
  Fe  Fe39  1  0.49613104  0.49497755  0.49453086  1
  Cr  Cr40  1  0.32644848  0.33054973  0.66161486  1
  Cr  Cr41  1  0.49581293  0.49485039  0.83017830  1
  Cr  Cr42  1  0.49552393  0.83012847  0.49576137  1
  Cr  Cr43  1  0.32801276  0.65996001  0.66326932  1
  Cr  Cr44  1  0.49759687  0.83019436  0.82882041  1
  Ni  Ni45  1  0.82762400  0.16447779  0.49632386  1
  Ni  Ni46  1  0.66495008  -0.00499077  0.66089695  1
  Cr  Cr47  1  0.82684495  0.16362889  0.82902927  1
  Ni  Ni48  1  0.83066576  0.49329596  0.49636982  1
  Cr  Cr49  1  0.66363218  0.33032855  0.65868321  1
  Fe  Fe50  1  0.83186588  0.49457156  0.82809165  1
  Cr  Cr51  1  0.82873265  0.82519395  0.49566791  1
  Cr  Cr52  1  0.66180164  0.65945766  0.65935265  1
  Cr  Cr53  1  0.82707141  0.82565709  0.82757175  1
" 