8546,Ni19Cr81_11,-232.257800568296, 155.329934225678,Ni19Cr81,"# generated using pymatgen
 data_Cr5Ni22
_symmetry_space_group_name_H-M   'P 1'
_cell_length_a   7.47525787
_cell_length_b   7.47525787
_cell_length_c   10.57161106
_cell_angle_alpha   90.00000000
_cell_angle_beta   90.00000000
_cell_angle_gamma   90.00000000
_symmetry_Int_Tables_number   1
_chemical_formula_structural   Cr5Ni22
_chemical_formula_sum   'Cr10 Ni44'
_cell_volume   590.73613020
_cell_formula_units_Z   2
loop_
 _symmetry_equiv_pos_site_id
 _symmetry_equiv_pos_as_xyz
  1  'x, y, z'
loop_
 _atom_site_type_symbol
 _atom_site_label
 _atom_site_symmetry_multiplicity
 _atom_site_fract_x
 _atom_site_fract_y
 _atom_site_fract_z
 _atom_site_occupancy
  Ni  Ni0  1  0.99867483  -0.00005809  -0.00034021  1
  Ni  Ni1  1  0.16594906  0.16752400  0.16406866  1
  Ni  Ni2  1  0.99676716  0.99851588  0.33387646  1
  Ni  Ni3  1  0.99856042  0.33384983  0.00001738  1
  Ni  Ni4  1  0.16679862  0.49881303  0.16468758  1
  Cr  Cr5  1  0.00119296  0.33012153  0.33204690  1
  Ni  Ni6  1  -0.00020882  0.66474631  0.99819014  1
  Cr  Cr7  1  0.16455593  0.83137688  0.16315495  1
  Ni  Ni8  1  0.99879791  0.66775767  0.33168947  1
  Ni  Ni9  1  0.33207460  0.00064875  0.99761839  1
  Ni  Ni10  1  0.49963341  0.16948947  0.16528137  1
  Cr  Cr11  1  0.33033425  0.00202809  0.33470538  1
  Ni  Ni12  1  0.33335200  0.33415211  0.00086225  1
  Ni  Ni13  1  0.49906024  0.49704755  0.16767313  1
  Ni  Ni14  1  0.33453260  0.33494736  0.33120341  1
  Ni  Ni15  1  0.33184697  0.66348736  0.99671813  1
  Cr  Cr16  1  0.50021621  0.83208231  0.16708749  1
  Ni  Ni17  1  0.33345375  0.66391684  0.33416171  1
  Cr  Cr18  1  0.66658386  0.00098171  0.99780261  1
  Ni  Ni19  1  0.83263157  0.16640390  0.16601384  1
  Ni  Ni20  1  0.66901465  -0.00024932  0.33304296  1
  Ni  Ni21  1  0.66627422  0.33301610  0.99924991  1
  Ni  Ni22  1  0.83283136  0.49941744  0.16585925  1
  Ni  Ni23  1  0.66542236  0.33291705  0.33046436  1
  Cr  Cr24  1  0.66701446  0.66346760  0.99679720  1
  Ni  Ni25  1  0.83461918  0.83259462  0.16810046  1
  Ni  Ni26  1  0.66627092  0.66584444  0.33309540  1
  Ni  Ni27  1  0.16492242  0.16443745  0.50200291  1
  Ni  Ni28  1  0.99852674  0.99847214  0.66442945  1
  Cr  Cr29  1  0.16592566  0.16622877  0.83256838  1
  Cr  Cr30  1  0.16738097  0.50016281  0.50145713  1
  Ni  Ni31  1  0.99857664  0.33180983  0.66728464  1
  Ni  Ni32  1  0.16584342  0.50088309  0.83303886  1
  Ni  Ni33  1  0.16489745  0.83288170  0.50073770  1
  Ni  Ni34  1  0.99929110  0.66788808  0.66853868  1
  Ni  Ni35  1  0.16577796  0.83137079  0.83315238  1
  Cr  Cr36  1  0.50214529  0.16903268  0.50142542  1
  Ni  Ni37  1  0.33282412  0.99760904  0.66633172  1
  Ni  Ni38  1  0.50004947  0.16730012  0.83237475  1
  Ni  Ni39  1  0.49950348  0.50128641  0.49916034  1
  Ni  Ni40  1  0.33338667  0.33384500  0.66651586  1
  Ni  Ni41  1  0.49864330  0.49797058  0.83102755  1
  Ni  Ni42  1  0.50065881  0.83111955  0.50045645  1
  Ni  Ni43  1  0.33375991  0.66677802  0.66702300  1
  Ni  Ni44  1  0.49749806  0.83294067  0.83058543  1
  Ni  Ni45  1  0.83331539  0.16366143  0.50106696  1
  Ni  Ni46  1  0.66718800  0.99815440  0.66730586  1
  Ni  Ni47  1  0.83197996  0.16708773  0.83144146  1
  Cr  Cr48  1  0.82926513  0.49951624  0.50145885  1
  Ni  Ni49  1  0.66611210  0.33303391  0.66906044  1
  Ni  Ni50  1  0.83382237  0.49838908  0.83162770  1
  Ni  Ni51  1  0.83269869  0.83375122  0.49882970  1
  Ni  Ni52  1  0.66511075  0.66705489  0.66726529  1
  Ni  Ni53  1  0.83498669  0.83283918  0.83104975  1
" 