5257,Ni19Fe72Cr8_1,-230.021214777429, 176.821454898967,Ni19Fe72Cr8,"# generated using pymatgen
 data_Cr5Fe39Ni10
_symmetry_space_group_name_H-M   'P 1'
_cell_length_a   7.42292490
_cell_length_b   7.42292490
_cell_length_c   10.49760107
_cell_angle_alpha   90.00000000
_cell_angle_beta   90.00000000
_cell_angle_gamma   90.00000000
_symmetry_Int_Tables_number   1
_chemical_formula_structural   Cr5Fe39Ni10
_chemical_formula_sum   'Cr5 Fe39 Ni10'
_cell_volume   578.41586702
_cell_formula_units_Z   1
loop_
 _symmetry_equiv_pos_site_id
 _symmetry_equiv_pos_as_xyz
  1  'x, y, z'
loop_
 _atom_site_type_symbol
 _atom_site_label
 _atom_site_symmetry_multiplicity
 _atom_site_fract_x
 _atom_site_fract_y
 _atom_site_fract_z
 _atom_site_occupancy
  Fe  Fe0  1  0.00353014  1.00287218  0.00417433  1
  Ni  Ni1  1  0.16914167  0.16992896  0.16855367  1
  Fe  Fe2  1  1.00165749  1.00266564  0.33605240  1
  Fe  Fe3  1  0.00485009  0.33629656  0.00445811  1
  Fe  Fe4  1  0.16962308  0.50229090  0.16958402  1
  Ni  Ni5  1  1.00233581  0.33662585  0.33626972  1
  Fe  Fe6  1  0.00397539  0.66974772  0.00306453  1
  Ni  Ni7  1  0.16828535  0.83633947  0.16772969  1
  Fe  Fe8  1  0.00305656  0.66981619  0.33633304  1
  Ni  Ni9  1  0.33551649  1.00144358  0.00356711  1
  Fe  Fe10  1  0.50137376  0.16909281  0.16931374  1
  Cr  Cr11  1  0.33600627  1.00286682  0.33769544  1
  Ni  Ni12  1  0.33462009  0.33659542  0.00532494  1
  Fe  Fe13  1  0.50125350  0.50384346  0.17055036  1
  Fe  Fe14  1  0.33568719  0.33705591  0.33551541  1
  Fe  Fe15  1  0.33625678  0.66977974  1.00263460  1
  Fe  Fe16  1  0.50288067  0.83597964  0.16879425  1
  Fe  Fe17  1  0.33504532  0.66895703  0.33610973  1
  Fe  Fe18  1  0.66937596  1.00126964  0.00354734  1
  Fe  Fe19  1  0.83845095  0.16860133  0.17062844  1
  Fe  Fe20  1  0.67143542  0.00330916  0.33668262  1
  Cr  Cr21  1  0.67044152  0.33702906  0.00361870  1
  Fe  Fe22  1  0.83803873  0.50380106  0.17100018  1
  Fe  Fe23  1  0.67057744  0.33565904  0.33565241  1
  Fe  Fe24  1  0.66868119  0.67110096  0.00344299  1
  Fe  Fe25  1  0.83689781  0.83651556  0.16982534  1
  Ni  Ni26  1  0.67119207  0.67033270  0.33552370  1
  Fe  Fe27  1  0.16953952  0.17066488  0.50345719  1
  Fe  Fe28  1  0.00341699  1.00185706  0.66868653  1
  Cr  Cr29  1  0.16963826  0.16943307  0.83650426  1
  Fe  Fe30  1  0.16889448  0.50263933  0.50340848  1
  Fe  Fe31  1  0.00304461  0.33763111  0.66846790  1
  Fe  Fe32  1  0.17055490  0.50395370  0.83592826  1
  Ni  Ni33  1  0.16766547  0.83568141  0.50437517  1
  Fe  Fe34  1  0.00431111  0.66942803  0.66951738  1
  Fe  Fe35  1  0.17021405  0.83491838  0.83624232  1
  Ni  Ni36  1  0.50399358  0.17010530  0.50375542  1
  Fe  Fe37  1  0.33632732  1.00137229  0.66780671  1
  Cr  Cr38  1  0.50226790  0.16997417  0.83560006  1
  Cr  Cr39  1  0.50334666  0.50170627  0.50294879  1
  Ni  Ni40  1  0.33557779  0.33705678  0.66844295  1
  Fe  Fe41  1  0.50131819  0.50488040  0.83509069  1
  Fe  Fe42  1  0.50335434  0.83707900  0.50375770  1
  Ni  Ni43  1  0.33558396  0.67065500  0.67074555  1
  Fe  Fe44  1  0.50255047  0.83488685  0.83636933  1
  Fe  Fe45  1  0.83635610  0.16950805  0.50281155  1
  Fe  Fe46  1  0.66917013  1.00263582  0.66868558  1
  Fe  Fe47  1  0.83707533  0.16880933  0.83547588  1
  Fe  Fe48  1  0.83782374  0.50297316  0.50233695  1
  Fe  Fe49  1  0.66992642  0.33647240  0.66967765  1
  Fe  Fe50  1  0.83704423  0.50339550  0.83557799  1
  Fe  Fe51  1  0.83572319  0.83643635  0.50275703  1
  Fe  Fe52  1  0.66943530  0.66980883  0.67008359  1
  Fe  Fe53  1  0.83615028  0.83671218  0.83633335  1
" 