5488,Ni19Fe68Cr11_19,-229.17556356444, 182.334528921803,Ni19Fe68Cr11,"# generated using pymatgen
 data_Cr7Fe37Ni10
_symmetry_space_group_name_H-M   'P 1'
_cell_length_a   7.42773883
_cell_length_b   7.42773883
_cell_length_c   10.50440899
_cell_angle_alpha   90.00000000
_cell_angle_beta   90.00000000
_cell_angle_gamma   90.00000000
_symmetry_Int_Tables_number   1
_chemical_formula_structural   Cr7Fe37Ni10
_chemical_formula_sum   'Cr7 Fe37 Ni10'
_cell_volume   579.54194368
_cell_formula_units_Z   1
loop_
 _symmetry_equiv_pos_site_id
 _symmetry_equiv_pos_as_xyz
  1  'x, y, z'
loop_
 _atom_site_type_symbol
 _atom_site_label
 _atom_site_symmetry_multiplicity
 _atom_site_fract_x
 _atom_site_fract_y
 _atom_site_fract_z
 _atom_site_occupancy
  Ni  Ni0  1  0.99995677  1.00239198  0.00275550  1
  Fe  Fe1  1  0.16780327  0.17044019  0.16832810  1
  Cr  Cr2  1  0.99957434  0.00344793  0.33601099  1
  Fe  Fe3  1  1.00222556  0.33717939  0.00453415  1
  Fe  Fe4  1  0.17014892  0.50124528  0.16960818  1
  Fe  Fe5  1  0.00441862  0.33707197  0.33602267  1
  Ni  Ni6  1  0.00326139  0.67147033  1.00243931  1
  Fe  Fe7  1  0.17003199  0.83656416  0.16822386  1
  Cr  Cr8  1  0.00377800  0.67093574  0.33648606  1
  Fe  Fe9  1  0.33454003  1.00028804  0.00296399  1
  Cr  Cr10  1  0.50055391  0.16750061  0.17005034  1
  Fe  Fe11  1  0.33351961  1.00187595  0.33586646  1
  Fe  Fe12  1  0.33516859  0.33576137  0.00356091  1
  Fe  Fe13  1  0.50487269  0.50294356  0.17130036  1
  Ni  Ni14  1  0.33748413  0.33745722  0.33694074  1
  Cr  Cr15  1  0.33725635  0.66712164  1.00211747  1
  Ni  Ni16  1  0.50210302  0.83532309  0.17072527  1
  Ni  Ni17  1  0.33634596  0.66707860  0.33470047  1
  Fe  Fe18  1  0.66948367  1.00023555  1.00181142  1
  Fe  Fe19  1  0.83502062  0.17033784  0.16726178  1
  Fe  Fe20  1  0.66832728  1.00226594  0.33588400  1
  Fe  Fe21  1  0.67053169  0.33660472  0.00302353  1
  Ni  Ni22  1  0.83785599  0.50289100  0.16943969  1
  Fe  Fe23  1  0.67088434  0.33772616  0.33647711  1
  Fe  Fe24  1  0.67114145  0.67091056  0.00419455  1
  Fe  Fe25  1  0.83338336  0.83528541  0.16675752  1
  Fe  Fe26  1  0.66909717  0.66747358  0.33422094  1
  Fe  Fe27  1  0.17174626  0.17053478  0.50321293  1
  Fe  Fe28  1  1.00179125  1.00159904  0.66962496  1
  Cr  Cr29  1  0.16957278  0.17004771  0.83736223  1
  Fe  Fe30  1  0.17245940  0.50287365  0.50341217  1
  Fe  Fe31  1  0.00295752  0.33579101  0.66780148  1
  Fe  Fe32  1  0.16830611  0.50371591  0.83490718  1
  Fe  Fe33  1  0.17061789  0.83445374  0.50446073  1
  Fe  Fe34  1  0.00362839  0.67059078  0.66885534  1
  Fe  Fe35  1  0.16579190  0.83530242  0.83531204  1
  Fe  Fe36  1  0.50265094  0.17138280  0.50185459  1
  Fe  Fe37  1  0.33633566  1.00174928  0.66958670  1
  Fe  Fe38  1  0.50604150  0.16921135  0.83666416  1
  Ni  Ni39  1  0.50314968  0.50342436  0.50159079  1
  Fe  Fe40  1  0.33738773  0.33714446  0.66770887  1
  Fe  Fe41  1  0.50294931  0.50114219  0.83378121  1
  Cr  Cr42  1  0.50148585  0.83495675  0.50048626  1
  Ni  Ni43  1  0.33592310  0.66797234  0.67039530  1
  Fe  Fe44  1  0.50388444  0.83684710  0.83518256  1
  Fe  Fe45  1  0.83365360  0.17052695  0.50471632  1
  Fe  Fe46  1  0.66940920  0.00265056  0.67056332  1
  Ni  Ni47  1  0.83683023  0.16918009  0.83640801  1
  Fe  Fe48  1  0.83422712  0.50245481  0.50310549  1
  Fe  Fe49  1  0.66772031  0.33572478  0.66865292  1
  Cr  Cr50  1  0.83754995  0.50372592  0.83546639  1
  Fe  Fe51  1  0.83503901  0.83501149  0.50560660  1
  Fe  Fe52  1  0.66755343  0.66926167  0.66888653  1
  Ni  Ni53  1  0.83545703  0.83578456  0.83557788  1
" 