3065,Ni19Fe72Cr8_0,-229.982789945207, 177.17307748335,Ni19Fe72Cr8,"# generated using pymatgen
 data_Cr5Fe39Ni10
_symmetry_space_group_name_H-M   'P 1'
_cell_length_a   7.42401735
_cell_length_b   7.42401735
_cell_length_c   10.49914602
_cell_angle_alpha   90.00000000
_cell_angle_beta   90.00000000
_cell_angle_gamma   90.00000000
_symmetry_Int_Tables_number   1
_chemical_formula_structural   Cr5Fe39Ni10
_chemical_formula_sum   'Cr5 Fe39 Ni10'
_cell_volume   578.67128499
_cell_formula_units_Z   1
loop_
 _symmetry_equiv_pos_site_id
 _symmetry_equiv_pos_as_xyz
  1  'x, y, z'
loop_
 _atom_site_type_symbol
 _atom_site_label
 _atom_site_symmetry_multiplicity
 _atom_site_fract_x
 _atom_site_fract_y
 _atom_site_fract_z
 _atom_site_occupancy
  Fe  Fe0  1  1.00216397  1.00162869  1.00273784  1
  Fe  Fe1  1  0.17060141  0.16752205  0.16906840  1
  Ni  Ni2  1  1.00255344  1.00192112  0.33544727  1
  Cr  Cr3  1  1.00257299  0.33528427  0.00316854  1
  Fe  Fe4  1  0.17084753  0.50520143  0.16872284  1
  Cr  Cr5  1  1.00162950  0.33513957  0.33646687  1
  Fe  Fe6  1  1.00216405  0.67076957  1.00267336  1
  Fe  Fe7  1  0.16983747  0.83596810  0.16992358  1
  Fe  Fe8  1  0.00439815  0.67118729  0.33629274  1
  Fe  Fe9  1  0.33657798  0.00358068  0.00295711  1
  Fe  Fe10  1  0.50384840  0.16961123  0.16842085  1
  Fe  Fe11  1  0.33567836  1.00127285  0.33607586  1
  Fe  Fe12  1  0.33846720  0.33649797  0.00291077  1
  Ni  Ni13  1  0.50257295  0.50213022  0.16750609  1
  Cr  Cr14  1  0.33718330  0.33734846  0.33625703  1
  Fe  Fe15  1  0.33678705  0.66861509  0.00311663  1
  Fe  Fe16  1  0.50201440  0.83647528  0.16885738  1
  Fe  Fe17  1  0.33457464  0.67096470  0.33630694  1
  Fe  Fe18  1  0.66995271  0.00331686  1.00261168  1
  Fe  Fe19  1  0.83424203  0.16859598  0.17009684  1
  Fe  Fe20  1  0.67030475  0.00494224  0.33641663  1
  Ni  Ni21  1  0.66807089  0.33695208  0.00403478  1
  Fe  Fe22  1  0.83475313  0.50336796  0.16896997  1
  Fe  Fe23  1  0.67007351  0.33476798  0.33608558  1
  Fe  Fe24  1  0.66974315  0.66888157  0.00306150  1
  Fe  Fe25  1  0.83683999  0.83672760  0.16853243  1
  Cr  Cr26  1  0.66833479  0.66939909  0.33665090  1
  Fe  Fe27  1  0.16860174  0.16904698  0.50489789  1
  Ni  Ni28  1  1.00185990  0.00413162  0.67011409  1
  Fe  Fe29  1  0.16965197  0.16852871  0.83472831  1
  Fe  Fe30  1  0.16840302  0.50268833  0.50417519  1
  Ni  Ni31  1  0.00322515  0.33478002  0.66923253  1
  Fe  Fe32  1  0.16907693  0.50295170  0.83579581  1
  Fe  Fe33  1  0.16790836  0.83695565  0.50190598  1
  Fe  Fe34  1  1.00146585  0.66903733  0.66973096  1
  Fe  Fe35  1  0.16806277  0.83721184  0.83686216  1
  Fe  Fe36  1  0.50436512  0.17006863  0.50386004  1
  Fe  Fe37  1  0.33524696  0.00536303  0.66966140  1
  Fe  Fe38  1  0.50329690  0.16947883  0.83641808  1
  Ni  Ni39  1  0.50355504  0.50184279  0.50370651  1
  Ni  Ni40  1  0.33552342  0.33565474  0.67042842  1
  Fe  Fe41  1  0.50405762  0.50218935  0.83711369  1
  Fe  Fe42  1  0.50384030  0.83715896  0.50281035  1
  Cr  Cr43  1  0.33816065  0.66882615  0.66845235  1
  Fe  Fe44  1  0.50413043  0.83702711  0.83702460  1
  Ni  Ni45  1  0.83609485  0.16898898  0.50345168  1
  Fe  Fe46  1  0.67029506  0.00357415  0.66966555  1
  Fe  Fe47  1  0.83574159  0.16846205  0.83488902  1
  Ni  Ni48  1  0.83571581  0.50213638  0.50461279  1
  Fe  Fe49  1  0.67006456  0.33620939  0.66920431  1
  Fe  Fe50  1  0.83555988  0.50377917  0.83517104  1
  Fe  Fe51  1  0.83694496  0.83695718  0.50405714  1
  Fe  Fe52  1  0.67170740  0.66890904  0.66913177  1
  Ni  Ni53  1  0.83715039  0.83646636  0.83602231  1
" 