4470,Ni19Fe72Cr8_14,-230.036856036225, 181.546910672556,Ni19Fe72Cr8,"# generated using pymatgen
 data_Cr5Fe39Ni10
_symmetry_space_group_name_H-M   'P 1'
_cell_length_a   7.42272988
_cell_length_b   7.42272988
_cell_length_c   10.49732527
_cell_angle_alpha   90.00000000
_cell_angle_beta   90.00000000
_cell_angle_gamma   90.00000000
_symmetry_Int_Tables_number   1
_chemical_formula_structural   Cr5Fe39Ni10
_chemical_formula_sum   'Cr5 Fe39 Ni10'
_cell_volume   578.37027930
_cell_formula_units_Z   1
loop_
 _symmetry_equiv_pos_site_id
 _symmetry_equiv_pos_as_xyz
  1  'x, y, z'
loop_
 _atom_site_type_symbol
 _atom_site_label
 _atom_site_symmetry_multiplicity
 _atom_site_fract_x
 _atom_site_fract_y
 _atom_site_fract_z
 _atom_site_occupancy
  Fe  Fe0  1  1.00201030  0.00364405  0.00322627  1
  Cr  Cr1  1  0.16811119  0.16882638  0.16980335  1
  Fe  Fe2  1  1.00120146  1.00278431  0.33671876  1
  Fe  Fe3  1  1.00090950  0.33464277  1.00123523  1
  Cr  Cr4  1  0.17055673  0.50355354  0.17120929  1
  Fe  Fe5  1  1.00035776  0.33568672  0.33824013  1
  Cr  Cr6  1  1.00219336  0.67162294  0.00373075  1
  Ni  Ni7  1  0.16958510  0.83638896  0.17087600  1
  Fe  Fe8  1  0.00328842  0.67048954  0.33672671  1
  Fe  Fe9  1  0.33608026  1.00231097  1.00132887  1
  Fe  Fe10  1  0.50519419  0.17075114  0.16987453  1
  Fe  Fe11  1  0.33650007  0.00330628  0.33790713  1
  Fe  Fe12  1  0.33767637  0.33645795  1.00140152  1
  Fe  Fe13  1  0.50430497  0.50057656  0.16921482  1
  Fe  Fe14  1  0.33850157  0.33632078  0.33817282  1
  Fe  Fe15  1  0.33800358  0.67018324  1.00096469  1
  Cr  Cr16  1  0.50243282  0.83607655  0.16876296  1
  Fe  Fe17  1  0.33506401  0.66932840  0.33807885  1
  Fe  Fe18  1  0.67085992  0.00330918  1.00242625  1
  Ni  Ni19  1  0.83476913  0.16985288  0.16951821  1
  Fe  Fe20  1  0.67125055  0.00622157  0.33683596  1
  Fe  Fe21  1  0.67036978  0.33656340  0.00362271  1
  Fe  Fe22  1  0.83496622  0.50169097  0.16932133  1
  Ni  Ni23  1  0.66933900  0.33402378  0.33489545  1
  Fe  Fe24  1  0.66903998  0.66908208  1.00207925  1
  Ni  Ni25  1  0.83667052  0.83850105  0.16939149  1
  Cr  Cr26  1  0.67169647  0.66801697  0.33618640  1
  Ni  Ni27  1  0.16890791  0.17049804  0.50311979  1
  Fe  Fe28  1  0.00357639  1.00249832  0.66901061  1
  Fe  Fe29  1  0.16975620  0.16974652  0.83613237  1
  Fe  Fe30  1  0.16919399  0.50246467  0.50331959  1
  Fe  Fe31  1  0.00331201  0.33713928  0.66948067  1
  Fe  Fe32  1  0.17044257  0.50321745  0.83521734  1
  Fe  Fe33  1  0.16915537  0.83681427  0.50288217  1
  Ni  Ni34  1  0.00350655  0.66987269  0.66895421  1
  Fe  Fe35  1  0.17056036  0.83599355  0.83558547  1
  Fe  Fe36  1  0.50325519  0.16995549  0.50256757  1
  Fe  Fe37  1  0.33579265  1.00185710  0.66971998  1
  Fe  Fe38  1  0.50348394  0.16960812  0.83651007  1
  Fe  Fe39  1  0.50208337  0.50102977  0.50353507  1
  Fe  Fe40  1  0.33539227  0.33711348  0.66938372  1
  Fe  Fe41  1  0.50322341  0.50378196  0.83620062  1
  Fe  Fe42  1  0.50184956  0.83796769  0.50450523  1
  Ni  Ni43  1  0.33536374  0.66995039  0.67002162  1
  Ni  Ni44  1  0.50254485  0.83548374  0.83586614  1
  Ni  Ni45  1  0.83701064  0.17028020  0.50311402  1
  Fe  Fe46  1  0.66958615  1.00177339  0.66968878  1
  Fe  Fe47  1  0.83571526  0.16972315  0.83644022  1
  Fe  Fe48  1  0.83767726  0.50105380  0.50435587  1
  Fe  Fe49  1  0.67025162  0.33746002  0.66909373  1
  Ni  Ni50  1  0.83591875  0.50175195  0.83531464  1
  Fe  Fe51  1  0.83795287  0.83798482  0.50350663  1
  Fe  Fe52  1  0.66961033  0.66972135  0.67013439  1
  Fe  Fe53  1  0.83514821  0.83625049  0.83579440  1
" 