5083,Ni19Fe68Cr11_6,-229.344778889224, 179.165390709701,Ni19Fe68Cr11,"# generated using pymatgen
 data_Cr7Fe37Ni10
_symmetry_space_group_name_H-M   'P 1'
_cell_length_a   7.43273046
_cell_length_b   7.43273046
_cell_length_c   10.51146822
_cell_angle_alpha   90.00000000
_cell_angle_beta   90.00000000
_cell_angle_gamma   90.00000000
_symmetry_Int_Tables_number   1
_chemical_formula_structural   Cr7Fe37Ni10
_chemical_formula_sum   'Cr7 Fe37 Ni10'
_cell_volume   580.71112973
_cell_formula_units_Z   1
loop_
 _symmetry_equiv_pos_site_id
 _symmetry_equiv_pos_as_xyz
  1  'x, y, z'
loop_
 _atom_site_type_symbol
 _atom_site_label
 _atom_site_symmetry_multiplicity
 _atom_site_fract_x
 _atom_site_fract_y
 _atom_site_fract_z
 _atom_site_occupancy
  Cr  Cr0  1  0.00360451  0.00275525  0.00266724  1
  Fe  Fe1  1  0.16804664  0.16888342  0.17091548  1
  Fe  Fe2  1  1.00210585  0.00398677  0.33405167  1
  Fe  Fe3  1  0.99953907  0.33757085  0.00248449  1
  Fe  Fe4  1  0.16652095  0.50286025  0.16897012  1
  Fe  Fe5  1  1.00211681  0.33575573  0.33569695  1
  Fe  Fe6  1  1.00183504  0.66667190  0.00333795  1
  Fe  Fe7  1  0.16796912  0.83518107  0.16864073  1
  Fe  Fe8  1  0.99999550  0.66718684  0.33361695  1
  Fe  Fe9  1  0.33629432  1.00070121  1.00205909  1
  Fe  Fe10  1  0.50375402  0.16942287  0.17029979  1
  Fe  Fe11  1  0.33644507  0.00517053  0.33509964  1
  Cr  Cr12  1  0.33573239  0.33647814  0.00336391  1
  Fe  Fe13  1  0.50546985  0.50251583  0.16918109  1
  Fe  Fe14  1  0.33608342  0.33420540  0.33610136  1
  Fe  Fe15  1  0.33632118  0.67052134  1.00216656  1
  Fe  Fe16  1  0.50348976  0.83498430  0.16870484  1
  Cr  Cr17  1  0.33612108  0.66770641  0.33557863  1
  Cr  Cr18  1  0.66855676  0.00269309  0.00313357  1
  Fe  Fe19  1  0.83512791  0.17086011  0.17033946  1
  Fe  Fe20  1  0.66837426  0.00304312  0.33498795  1
  Ni  Ni21  1  0.67017551  0.33792930  1.00140699  1
  Ni  Ni22  1  0.83465856  0.50330841  0.16811411  1
  Ni  Ni23  1  0.66941511  0.33512905  0.33600154  1
  Ni  Ni24  1  0.66808730  0.66646773  0.00397588  1
  Ni  Ni25  1  0.83582441  0.83306070  0.17051902  1
  Fe  Fe26  1  0.66991619  0.66754639  0.33470424  1
  Ni  Ni27  1  0.17006346  0.17038132  0.50231912  1
  Fe  Fe28  1  0.00249342  0.00391383  0.66987398  1
  Fe  Fe29  1  0.16879767  0.16824843  0.83378419  1
  Fe  Fe30  1  0.16866771  0.49985855  0.50300205  1
  Fe  Fe31  1  1.00166163  0.33530723  0.66874104  1
  Fe  Fe32  1  0.16807732  0.50371248  0.83495700  1
  Cr  Cr33  1  0.16820482  0.83753234  0.50357797  1
  Fe  Fe34  1  1.00228447  0.66770519  0.66997287  1
  Ni  Ni35  1  0.17083661  0.83566997  0.83572660  1
  Fe  Fe36  1  0.50222855  0.16911181  0.50222183  1
  Fe  Fe37  1  0.33675604  0.00248126  0.66977047  1
  Fe  Fe38  1  0.50246101  0.16823974  0.83440610  1
  Ni  Ni39  1  0.50361195  0.50020860  0.50287266  1
  Fe  Fe40  1  0.33652150  0.33566823  0.66854867  1
  Fe  Fe41  1  0.50337743  0.50391791  0.83475591  1
  Fe  Fe42  1  0.50298972  0.83629179  0.50358270  1
  Fe  Fe43  1  0.33732551  0.66877753  0.66949343  1
  Fe  Fe44  1  0.50036342  0.83477053  0.83463959  1
  Fe  Fe45  1  0.83541670  0.17062126  0.50238436  1
  Ni  Ni46  1  0.66810161  0.00289358  0.66839796  1
  Fe  Fe47  1  0.83566919  0.17126216  0.83420013  1
  Fe  Fe48  1  0.83534250  0.50062417  0.50182452  1
  Fe  Fe49  1  0.66874441  0.33588078  0.66876679  1
  Fe  Fe50  1  0.83546809  0.50160406  0.83647667  1
  Cr  Cr51  1  0.83455460  0.83494755  0.50205395  1
  Ni  Ni52  1  0.66704967  0.66861024  0.66778833  1
  Cr  Cr53  1  0.83601026  0.83382329  0.83440168  1
" 