6514,Ni19Fe13Cr66_10,-212.615438041606, 174.324681161539,Ni19Fe13Cr66,"# generated using pymatgen
 data_Cr37Fe7Ni10
_symmetry_space_group_name_H-M   'P 1'
_cell_length_a   7.55138726
_cell_length_b   7.55138726
_cell_length_c   10.67927427
_cell_angle_alpha   90.00000000
_cell_angle_beta   90.00000000
_cell_angle_gamma   90.00000000
_symmetry_Int_Tables_number   1
_chemical_formula_structural   Cr37Fe7Ni10
_chemical_formula_sum   'Cr37 Fe7 Ni10'
_cell_volume   608.96905750
_cell_formula_units_Z   1
loop_
 _symmetry_equiv_pos_site_id
 _symmetry_equiv_pos_as_xyz
  1  'x, y, z'
loop_
 _atom_site_type_symbol
 _atom_site_label
 _atom_site_symmetry_multiplicity
 _atom_site_fract_x
 _atom_site_fract_y
 _atom_site_fract_z
 _atom_site_occupancy
  Cr  Cr0  1  -0.00532775  0.99384757  0.99199365  1
  Cr  Cr1  1  0.15984498  0.16023323  0.16135329  1
  Cr  Cr2  1  0.99293286  0.99398256  0.33055418  1
  Cr  Cr3  1  -0.00394108  0.32715657  -0.00483347  1
  Cr  Cr4  1  0.16083053  0.49895368  0.16224690  1
  Cr  Cr5  1  -0.00535933  0.32941359  0.32922810  1
  Cr  Cr6  1  0.99382689  0.66226921  0.99361300  1
  Cr  Cr7  1  0.16164301  0.82380496  0.16407571  1
  Ni  Ni8  1  0.99253284  0.65997409  0.33037957  1
  Cr  Cr9  1  0.32816739  0.99215208  -0.00246205  1
  Cr  Cr10  1  0.49880955  0.16127971  0.16163692  1
  Cr  Cr11  1  0.33016213  0.99363357  0.32400458  1
  Cr  Cr12  1  0.32573448  0.32793913  0.99375923  1
  Cr  Cr13  1  0.49548290  0.49485735  0.16143350  1
  Cr  Cr14  1  0.32695008  0.32875836  0.32957877  1
  Ni  Ni15  1  0.33003581  0.66116265  -0.00493961  1
  Fe  Fe16  1  0.49560275  0.82483608  0.16298145  1
  Ni  Ni17  1  0.32892366  0.66014079  0.32820567  1
  Cr  Cr18  1  0.66090473  0.99005468  0.99403673  1
  Cr  Cr19  1  0.82427927  0.16214727  0.16259870  1
  Ni  Ni20  1  0.66248282  0.99378466  0.32950131  1
  Fe  Fe21  1  0.65938904  0.32838753  0.99417888  1
  Cr  Cr22  1  0.82613958  0.49417840  0.16065604  1
  Fe  Fe23  1  0.66178592  0.32929986  0.33139964  1
  Cr  Cr24  1  0.65969937  0.66341004  0.99149126  1
  Cr  Cr25  1  0.82823493  0.82735927  0.16325180  1
  Cr  Cr26  1  0.66133676  0.66293130  0.33093994  1
  Cr  Cr27  1  0.16298793  0.15837476  0.49803577  1
  Fe  Fe28  1  0.99266509  0.99195331  0.65992343  1
  Cr  Cr29  1  0.16228751  0.15916131  0.82367816  1
  Cr  Cr30  1  0.16124921  0.49830169  0.49502277  1
  Cr  Cr31  1  -0.00529138  0.33009090  0.65981487  1
  Cr  Cr32  1  0.16209600  0.49759237  0.82623503  1
  Cr  Cr33  1  0.15971787  0.82610404  0.49591226  1
  Ni  Ni34  1  0.99109689  0.66221062  0.65941040  1
  Cr  Cr35  1  0.16040489  0.82611142  0.82309006  1
  Cr  Cr36  1  0.49624354  0.16173973  0.49478142  1
  Ni  Ni37  1  0.32793109  -0.00457371  0.66131123  1
  Cr  Cr38  1  0.49493951  0.16188026  0.82672433  1
  Fe  Fe39  1  0.49421144  0.49667137  0.49487931  1
  Ni  Ni40  1  0.32761883  0.32783166  0.65971971  1
  Cr  Cr41  1  0.49334962  0.49339598  0.82574031  1
  Cr  Cr42  1  0.49214485  0.82927120  0.49318298  1
  Fe  Fe43  1  0.32818932  0.66047495  0.65957622  1
  Cr  Cr44  1  0.49163188  0.82758861  0.82711127  1
  Fe  Fe45  1  0.82717563  0.15979286  0.49378908  1
  Cr  Cr46  1  0.66222028  0.99063317  0.66046786  1
  Cr  Cr47  1  0.82564227  0.16046524  0.82848541  1
  Ni  Ni48  1  0.82782641  0.49676183  0.49263519  1
  Cr  Cr49  1  0.66135130  0.33100037  0.65784351  1
  Cr  Cr50  1  0.82748665  0.49504426  0.83063707  1
  Ni  Ni51  1  0.82847974  0.82539286  0.49466631  1
  Cr  Cr52  1  0.66379225  0.66211665  0.66039224  1
  Ni  Ni53  1  0.82989068  0.82710751  0.82451354  1
" 