6382,Ni19Cr81_14,-232.414482210062, 157.984971412911,Ni19Cr81,"# generated using pymatgen
 data_Cr5Ni22
_symmetry_space_group_name_H-M   'P 1'
_cell_length_a   7.47626226
_cell_length_b   7.47626226
_cell_length_c   10.57303148
_cell_angle_alpha   90.00000000
_cell_angle_beta   90.00000000
_cell_angle_gamma   90.00000000
_symmetry_Int_Tables_number   1
_chemical_formula_structural   Cr5Ni22
_chemical_formula_sum   'Cr10 Ni44'
_cell_volume   590.97427993
_cell_formula_units_Z   2
loop_
 _symmetry_equiv_pos_site_id
 _symmetry_equiv_pos_as_xyz
  1  'x, y, z'
loop_
 _atom_site_type_symbol
 _atom_site_label
 _atom_site_symmetry_multiplicity
 _atom_site_fract_x
 _atom_site_fract_y
 _atom_site_fract_z
 _atom_site_occupancy
  Cr  Cr0  1  -0.00005798  0.00048014  -0.00059418  1
  Ni  Ni1  1  0.16542724  0.16715459  0.16816006  1
  Ni  Ni2  1  -0.00046885  -0.00019696  0.33280803  1
  Ni  Ni3  1  -0.00045118  0.33283028  0.99912266  1
  Cr  Cr4  1  0.16611852  0.49865794  0.16878331  1
  Ni  Ni5  1  0.99836194  0.33169929  0.33395990  1
  Cr  Cr6  1  0.99879707  0.66607113  0.99851845  1
  Ni  Ni7  1  0.16516382  0.83354821  0.16949771  1
  Ni  Ni8  1  0.99931781  0.66689230  0.33392656  1
  Cr  Cr9  1  0.33176492  0.00305328  -0.00055012  1
  Ni  Ni10  1  0.50041840  0.16684421  0.16697306  1
  Ni  Ni11  1  0.33186007  0.00143767  0.33371240  1
  Ni  Ni12  1  0.33311699  0.33239876  0.99759236  1
  Cr  Cr13  1  0.49878343  0.49791981  0.16532852  1
  Ni  Ni14  1  0.33329480  0.33008624  0.33497533  1
  Ni  Ni15  1  0.33218060  0.66488704  0.99693484  1
  Cr  Cr16  1  0.49847934  0.83276318  0.16680736  1
  Ni  Ni17  1  0.33052238  0.66680253  0.33681310  1
  Ni  Ni18  1  0.66675636  0.00103498  0.00067599  1
  Ni  Ni19  1  0.83255728  0.16706619  0.16724755  1
  Ni  Ni20  1  0.66653045  0.00173245  0.33344898  1
  Ni  Ni21  1  0.66581618  0.33235915  -0.00035319  1
  Ni  Ni22  1  0.83298904  0.49704461  0.16616302  1
  Ni  Ni23  1  0.66632445  0.33005010  0.33386772  1
  Ni  Ni24  1  0.66750798  0.66460348  0.99795956  1
  Ni  Ni25  1  0.83272332  0.83397492  0.16692947  1
  Cr  Cr26  1  0.66814224  0.66397772  0.33654915  1
  Ni  Ni27  1  0.16537482  0.16643716  0.49978105  1
  Ni  Ni28  1  0.00087116  -0.00034542  0.66502169  1
  Ni  Ni29  1  0.16690586  0.16849489  0.83005469  1
  Ni  Ni30  1  0.16670933  0.49792784  0.49818160  1
  Ni  Ni31  1  0.00045637  0.33216430  0.66498673  1
  Ni  Ni32  1  0.16766530  0.49698739  0.83242317  1
  Ni  Ni33  1  0.16679146  0.83369425  0.49825722  1
  Cr  Cr34  1  0.99883359  0.66500943  0.66566446  1
  Ni  Ni35  1  0.16695309  0.83276278  0.83005899  1
  Ni  Ni36  1  0.49969213  0.16591695  0.49950212  1
  Ni  Ni37  1  0.33205316  0.00129752  0.66494242  1
  Ni  Ni38  1  0.49933050  0.16855926  0.83174794  1
  Ni  Ni39  1  0.49791186  0.49824414  0.50060846  1
  Ni  Ni40  1  0.33328436  0.33210729  0.66608985  1
  Ni  Ni41  1  0.49927684  0.49805979  0.83257103  1
  Ni  Ni42  1  0.49837543  0.83383537  0.50051712  1
  Ni  Ni43  1  0.33321149  0.66480052  0.66476703  1
  Cr  Cr44  1  0.50096651  0.83294950  0.83117144  1
  Ni  Ni45  1  0.83308639  0.16609086  0.49960988  1
  Ni  Ni46  1  0.66550318  -0.00008183  0.66347386  1
  Cr  Cr47  1  0.83213616  0.16625494  0.82932896  1
  Ni  Ni48  1  0.83333794  0.49649044  0.49953293  1
  Ni  Ni49  1  0.66462607  0.33376761  0.66419647  1
  Ni  Ni50  1  0.83127795  0.49785810  0.83269736  1
  Ni  Ni51  1  0.83270132  0.83516657  0.50006292  1
  Ni  Ni52  1  0.66563479  0.66454089  0.66496715  1
  Ni  Ni53  1  0.83177827  0.83255817  0.83124783  1
" 