1406,Ni19Fe68Cr11_17,-229.604829586608, 180.967560447194,Ni19Fe68Cr11,"# generated using pymatgen
 data_Cr7Fe37Ni10
_symmetry_space_group_name_H-M   'P 1'
_cell_length_a   7.43018950
_cell_length_b   7.43018950
_cell_length_c   10.50787476
_cell_angle_alpha   90.00000000
_cell_angle_beta   90.00000000
_cell_angle_gamma   90.00000000
_symmetry_Int_Tables_number   1
_chemical_formula_structural   Cr7Fe37Ni10
_chemical_formula_sum   'Cr7 Fe37 Ni10'
_cell_volume   580.11576507
_cell_formula_units_Z   1
loop_
 _symmetry_equiv_pos_site_id
 _symmetry_equiv_pos_as_xyz
  1  'x, y, z'
loop_
 _atom_site_type_symbol
 _atom_site_label
 _atom_site_symmetry_multiplicity
 _atom_site_fract_x
 _atom_site_fract_y
 _atom_site_fract_z
 _atom_site_occupancy
  Fe  Fe0  1  1.00114284  0.99926438  0.00309283  1
  Fe  Fe1  1  0.16939787  0.16741536  0.17009700  1
  Fe  Fe2  1  1.00236104  0.99979480  0.33371915  1
  Cr  Cr3  1  1.00061515  0.33802296  1.00180915  1
  Fe  Fe4  1  0.16995398  0.50521454  0.17109703  1
  Ni  Ni5  1  1.00041660  0.33675516  0.33413778  1
  Fe  Fe6  1  1.00100220  0.67137015  1.00198608  1
  Fe  Fe7  1  0.16969609  0.83480633  0.16877771  1
  Ni  Ni8  1  1.00192704  0.66888344  0.33424305  1
  Fe  Fe9  1  0.33658017  1.00146490  1.00242443  1
  Fe  Fe10  1  0.50345519  0.16752665  0.16820482  1
  Fe  Fe11  1  0.33595107  1.00054805  0.33459299  1
  Fe  Fe12  1  0.33811303  0.33650485  0.00284214  1
  Fe  Fe13  1  0.50279695  0.50488340  0.16947407  1
  Fe  Fe14  1  0.33613100  0.33784325  0.33394963  1
  Fe  Fe15  1  0.33548598  0.66943105  0.00367253  1
  Ni  Ni16  1  0.50337452  0.83523365  0.16853810  1
  Ni  Ni17  1  0.33650008  0.67126185  0.33631782  1
  Fe  Fe18  1  0.67013090  1.00164833  0.00277827  1
  Fe  Fe19  1  0.83439740  0.16725174  0.17063463  1
  Fe  Fe20  1  0.66927865  1.00031882  0.33465858  1
  Fe  Fe21  1  0.66784961  0.33653502  1.00176280  1
  Fe  Fe22  1  0.83438336  0.50473599  0.16926312  1
  Fe  Fe23  1  0.66905166  0.33808644  0.33500203  1
  Fe  Fe24  1  0.67078701  0.66939775  0.00270139  1
  Ni  Ni25  1  0.83497036  0.83485802  0.16934298  1
  Fe  Fe26  1  0.66987303  0.66924399  0.33493992  1
  Cr  Cr27  1  0.16805766  0.16887887  0.50069439  1
  Fe  Fe28  1  1.00114294  0.99827818  0.67053667  1
  Cr  Cr29  1  0.16895939  0.16808242  0.83505362  1
  Cr  Cr30  1  0.16821842  0.50369110  0.50330165  1
  Fe  Fe31  1  0.99978431  0.33838071  0.67074263  1
  Fe  Fe32  1  0.16836492  0.50657473  0.83541307  1
  Fe  Fe33  1  0.16681543  0.83431828  0.50216903  1
  Ni  Ni34  1  1.00064709  0.66977338  0.67042853  1
  Ni  Ni35  1  0.16869020  0.83392795  0.83648589  1
  Fe  Fe36  1  0.50423324  0.16960395  0.50127392  1
  Cr  Cr37  1  0.33865878  0.99986068  0.66823527  1
  Ni  Ni38  1  0.50446849  0.16956470  0.83716747  1
  Fe  Fe39  1  0.50488272  0.50332404  0.50108059  1
  Cr  Cr40  1  0.33819469  0.33679247  0.67045516  1
  Fe  Fe41  1  0.50376346  0.50478459  0.83730601  1
  Fe  Fe42  1  0.50356490  0.83465737  0.49996840  1
  Fe  Fe43  1  0.33601167  0.67028579  0.66950371  1
  Fe  Fe44  1  0.50370095  0.83527064  0.83815055  1
  Cr  Cr45  1  0.83604204  0.16868421  0.50431917  1
  Fe  Fe46  1  0.67012535  1.00047608  0.67085477  1
  Fe  Fe47  1  0.83339928  0.16733575  0.83477297  1
  Fe  Fe48  1  0.83536753  0.50443504  0.50264318  1
  Fe  Fe49  1  0.66991734  0.33743754  0.67098293  1
  Ni  Ni50  1  0.83416089  0.50390213  0.83467218  1
  Fe  Fe51  1  0.83705976  0.83318438  0.50221115  1
  Fe  Fe52  1  0.66886051  0.66965798  0.66936856  1
  Ni  Ni53  1  0.83522114  0.83447205  0.83608440  1
" 