6574,Ni19Cr81_16,-232.438686112965, 159.00869557582,Ni19Cr81,"# generated using pymatgen
 data_Cr5Ni22
_symmetry_space_group_name_H-M   'P 1'
_cell_length_a   7.47319803
_cell_length_b   7.47319803
_cell_length_c   10.56869801
_cell_angle_alpha   90.00000000
_cell_angle_beta   90.00000000
_cell_angle_gamma   90.00000000
_symmetry_Int_Tables_number   1
_chemical_formula_structural   Cr5Ni22
_chemical_formula_sum   'Cr10 Ni44'
_cell_volume   590.24792703
_cell_formula_units_Z   2
loop_
 _symmetry_equiv_pos_site_id
 _symmetry_equiv_pos_as_xyz
  1  'x, y, z'
loop_
 _atom_site_type_symbol
 _atom_site_label
 _atom_site_symmetry_multiplicity
 _atom_site_fract_x
 _atom_site_fract_y
 _atom_site_fract_z
 _atom_site_occupancy
  Ni  Ni0  1  0.99860933  0.99889756  0.99859164  1
  Ni  Ni1  1  0.16809852  0.16790759  0.16599709  1
  Cr  Cr2  1  0.99958529  0.00003670  0.33391521  1
  Cr  Cr3  1  0.00105909  0.33333526  0.99920603  1
  Ni  Ni4  1  0.16555902  0.49891932  0.16700457  1
  Ni  Ni5  1  0.99913808  0.33544921  0.33380905  1
  Ni  Ni6  1  0.99745448  0.66628042  -0.00020196  1
  Cr  Cr7  1  0.16524207  0.83209562  0.16684369  1
  Ni  Ni8  1  0.99850536  0.66373413  0.33328337  1
  Cr  Cr9  1  0.33330071  0.00223150  0.99920462  1
  Ni  Ni10  1  0.49952781  0.16636923  0.16599616  1
  Ni  Ni11  1  0.33540204  0.99891642  0.33364633  1
  Ni  Ni12  1  0.33441055  0.33272119  0.00002920  1
  Ni  Ni13  1  0.50102550  0.49940390  0.16577750  1
  Cr  Cr14  1  0.33229354  0.33248030  0.33167628  1
  Cr  Cr15  1  0.33411564  0.66381139  0.99815753  1
  Ni  Ni16  1  0.50271720  0.83299145  0.16806086  1
  Ni  Ni17  1  0.33403243  0.66693435  0.33404252  1
  Ni  Ni18  1  0.66642091  0.99925608  -0.00019993  1
  Cr  Cr19  1  0.83128584  0.16607698  0.16604334  1
  Ni  Ni20  1  0.66368886  0.99828399  0.33344588  1
  Ni  Ni21  1  0.66392404  0.33389078  0.99840570  1
  Ni  Ni22  1  0.83217923  0.50209332  0.16704503  1
  Ni  Ni23  1  0.66690684  0.33406189  0.33384380  1
  Ni  Ni24  1  0.66729277  0.66561389  0.00100127  1
  Ni  Ni25  1  0.83062193  0.83043458  0.16494956  1
  Ni  Ni26  1  0.66623309  0.66642373  0.33208170  1
  Ni  Ni27  1  0.16524787  0.16522624  0.50000002  1
  Ni  Ni28  1  0.00065657  0.00059138  0.66604369  1
  Ni  Ni29  1  0.16559997  0.16539703  0.83277682  1
  Ni  Ni30  1  0.16439328  0.50160164  0.49936818  1
  Ni  Ni31  1  0.99816262  0.33258827  0.66598716  1
  Ni  Ni32  1  0.16572368  0.50061308  0.83239537  1
  Ni  Ni33  1  0.16721322  0.83194837  0.50089636  1
  Ni  Ni34  1  0.00215214  0.66557953  0.66568360  1
  Ni  Ni35  1  0.16628473  0.83275101  0.83102063  1
  Ni  Ni36  1  0.50158818  0.16439418  0.49936890  1
  Ni  Ni37  1  0.33255684  0.99793483  0.66615956  1
  Ni  Ni38  1  0.50122107  0.16654221  0.83341521  1
  Ni  Ni39  1  0.50040950  0.50040487  0.49874435  1
  Cr  Cr40  1  0.33296845  0.33314814  0.66706594  1
  Ni  Ni41  1  0.50006140  0.49843129  0.83424378  1
  Ni  Ni42  1  0.49840367  0.83397051  0.49852729  1
  Ni  Ni43  1  0.33118821  0.66812705  0.66633218  1
  Ni  Ni44  1  0.49835582  0.83379457  0.83217073  1
  Ni  Ni45  1  0.83193839  0.16722413  0.50090613  1
  Ni  Ni46  1  0.66554803  0.00192381  0.66551188  1
  Ni  Ni47  1  0.83194154  0.16710904  0.83182081  1
  Ni  Ni48  1  0.83396970  0.49841771  0.49852789  1
  Ni  Ni49  1  0.66809776  0.33122060  0.66652317  1
  Ni  Ni50  1  0.83297786  0.49773659  0.83319421  1
  Ni  Ni51  1  0.83313924  0.83311792  0.49899987  1
  Cr  Cr52  1  0.66523981  0.66542026  0.66566524  1
  Cr  Cr53  1  0.83410936  0.83391403  0.83477405  1
" 