3644,Ni19Fe68Cr11_1,-229.585119158443, 178.499552038794,Ni19Fe68Cr11,"# generated using pymatgen
 data_Cr7Fe37Ni10
_symmetry_space_group_name_H-M   'P 1'
_cell_length_a   7.43536892
_cell_length_b   7.43536892
_cell_length_c   10.51519957
_cell_angle_alpha   90.00000000
_cell_angle_beta   90.00000000
_cell_angle_gamma   90.00000000
_symmetry_Int_Tables_number   1
_chemical_formula_structural   Cr7Fe37Ni10
_chemical_formula_sum   'Cr7 Fe37 Ni10'
_cell_volume   581.32976989
_cell_formula_units_Z   1
loop_
 _symmetry_equiv_pos_site_id
 _symmetry_equiv_pos_as_xyz
  1  'x, y, z'
loop_
 _atom_site_type_symbol
 _atom_site_label
 _atom_site_symmetry_multiplicity
 _atom_site_fract_x
 _atom_site_fract_y
 _atom_site_fract_z
 _atom_site_occupancy
  Cr  Cr0  1  1.00053294  1.00187765  0.00367576  1
  Fe  Fe1  1  0.16973978  0.17093033  0.17020022  1
  Fe  Fe2  1  0.00232023  0.00289882  0.33629607  1
  Ni  Ni3  1  0.00230667  0.33689343  1.00165679  1
  Ni  Ni4  1  0.16905898  0.50222764  0.16762191  1
  Fe  Fe5  1  0.00258458  0.33411559  0.33499338  1
  Ni  Ni6  1  0.00224309  0.66769243  1.00111262  1
  Fe  Fe7  1  0.16929461  0.83357978  0.16998570  1
  Fe  Fe8  1  0.00295164  0.66937589  0.33473444  1
  Cr  Cr9  1  0.33680759  1.00197238  1.00186578  1
  Ni  Ni10  1  0.50290157  0.16777806  0.16882911  1
  Fe  Fe11  1  0.33538510  1.00182879  0.33400003  1
  Fe  Fe12  1  0.33416464  0.33716429  0.00265098  1
  Fe  Fe13  1  0.49996592  0.50180191  0.16942772  1
  Ni  Ni14  1  0.33535385  0.33514580  0.33236943  1
  Fe  Fe15  1  0.33448610  0.66749610  0.00216718  1
  Ni  Ni16  1  0.50266207  0.83660720  0.16990037  1
  Fe  Fe17  1  0.33547035  0.66972003  0.33378329  1
  Fe  Fe18  1  0.66894920  1.00187240  0.00247083  1
  Fe  Fe19  1  0.83443856  0.16830354  0.16971237  1
  Fe  Fe20  1  0.66869127  0.00219604  0.33441937  1
  Fe  Fe21  1  0.66908326  0.33456591  1.00165667  1
  Cr  Cr22  1  0.83809963  0.50181174  0.16919204  1
  Fe  Fe23  1  0.66904252  0.33420515  0.33490246  1
  Fe  Fe24  1  0.66862454  0.66995137  1.00132311  1
  Fe  Fe25  1  0.83451439  0.83583574  0.16926493  1
  Fe  Fe26  1  0.66797178  0.66998611  0.33536622  1
  Fe  Fe27  1  0.16732811  0.16781199  0.50252602  1
  Ni  Ni28  1  1.00140013  0.00238518  0.66818045  1
  Fe  Fe29  1  0.16910090  0.16988846  0.83366711  1
  Cr  Cr30  1  0.16660674  0.50139156  0.50169645  1
  Fe  Fe31  1  1.00182161  0.33410150  0.66969096  1
  Fe  Fe32  1  0.16838685  0.50167005  0.83681095  1
  Fe  Fe33  1  0.16752429  0.83832914  0.50176193  1
  Fe  Fe34  1  1.00060856  0.66952118  0.66991508  1
  Fe  Fe35  1  0.16803734  0.83482884  0.83464590  1
  Cr  Cr36  1  0.50211042  0.16700608  0.50361407  1
  Fe  Fe37  1  0.33447470  0.00295232  0.67003125  1
  Fe  Fe38  1  0.50249122  0.16927765  0.83480238  1
  Cr  Cr39  1  0.50307013  0.50227806  0.50051228  1
  Ni  Ni40  1  0.33557435  0.33360502  0.67146230  1
  Fe  Fe41  1  0.50260877  0.50167892  0.83543504  1
  Fe  Fe42  1  0.50322354  0.83634166  0.50143975  1
  Cr  Cr43  1  0.33665180  0.66940612  0.66984347  1
  Ni  Ni44  1  0.50359308  0.83619700  0.83469534  1
  Ni  Ni45  1  0.83688321  0.16819493  0.50209808  1
  Fe  Fe46  1  0.66932310  1.00173829  0.66950640  1
  Fe  Fe47  1  0.83479738  0.16893479  0.83426116  1
  Fe  Fe48  1  0.83516459  0.50154935  0.50195947  1
  Fe  Fe49  1  0.67028495  0.33493333  0.66983225  1
  Fe  Fe50  1  0.83540340  0.50274790  0.83624049  1
  Fe  Fe51  1  0.83564857  0.83600767  0.50238876  1
  Fe  Fe52  1  0.67048194  0.66971510  0.66969644  1
  Fe  Fe53  1  0.83479002  0.83470835  0.83474204  1
" 