5480,Ni19Fe72Cr8_5,-230.288043445232, 180.032744684405,Ni19Fe72Cr8,"# generated using pymatgen
 data_Cr5Fe39Ni10
_symmetry_space_group_name_H-M   'P 1'
_cell_length_a   7.42412727
_cell_length_b   7.42412727
_cell_length_c   10.49930147
_cell_angle_alpha   90.00000000
_cell_angle_beta   90.00000000
_cell_angle_gamma   90.00000000
_symmetry_Int_Tables_number   1
_chemical_formula_structural   Cr5Fe39Ni10
_chemical_formula_sum   'Cr5 Fe39 Ni10'
_cell_volume   578.69698900
_cell_formula_units_Z   1
loop_
 _symmetry_equiv_pos_site_id
 _symmetry_equiv_pos_as_xyz
  1  'x, y, z'
loop_
 _atom_site_type_symbol
 _atom_site_label
 _atom_site_symmetry_multiplicity
 _atom_site_fract_x
 _atom_site_fract_y
 _atom_site_fract_z
 _atom_site_occupancy
  Fe  Fe0  1  1.00267239  1.00236227  0.00298529  1
  Fe  Fe1  1  0.16866233  0.16800735  0.17039890  1
  Fe  Fe2  1  0.00333208  1.00185264  0.33594368  1
  Fe  Fe3  1  1.00237007  0.33458718  1.00229741  1
  Ni  Ni4  1  0.17017385  0.50401738  0.17029750  1
  Fe  Fe5  1  0.00442924  0.33409138  0.33522578  1
  Fe  Fe6  1  0.00382554  0.67172248  0.00321878  1
  Ni  Ni7  1  0.16986230  0.83592781  0.16911688  1
  Ni  Ni8  1  0.00293556  0.67163986  0.33559831  1
  Ni  Ni9  1  0.33705141  1.00167030  1.00217691  1
  Fe  Fe10  1  0.50310636  0.16765118  0.17028696  1
  Ni  Ni11  1  0.33540857  1.00274773  0.33571534  1
  Cr  Cr12  1  0.33562845  0.33619967  0.00397674  1
  Fe  Fe13  1  0.50164477  0.50463379  0.17043132  1
  Fe  Fe14  1  0.33551218  0.33652642  0.33475330  1
  Fe  Fe15  1  0.33627880  0.67202717  1.00286188  1
  Fe  Fe16  1  0.50221884  0.83638924  0.16928497  1
  Fe  Fe17  1  0.33598247  0.67074141  0.33548476  1
  Ni  Ni18  1  0.67023168  1.00225832  0.00363616  1
  Fe  Fe19  1  0.83690538  0.16743531  0.16931470  1
  Fe  Fe20  1  0.67071959  1.00138209  0.33478458  1
  Fe  Fe21  1  0.66975325  0.33430654  1.00210100  1
  Cr  Cr22  1  0.83754397  0.50378300  0.16860476  1
  Fe  Fe23  1  0.66873235  0.33545601  0.33556281  1
  Fe  Fe24  1  0.66857019  0.67173081  1.00196641  1
  Ni  Ni25  1  0.83645881  0.83773304  0.16999735  1
  Fe  Fe26  1  0.66828570  0.67183822  0.33614038  1
  Fe  Fe27  1  0.16830106  0.16818315  0.50302518  1
  Fe  Fe28  1  0.00359798  1.00271140  0.66974171  1
  Fe  Fe29  1  0.16874581  0.16833812  0.83524838  1
  Cr  Cr30  1  0.17052776  0.50320484  0.50237495  1
  Fe  Fe31  1  0.00403982  0.33506376  0.67114643  1
  Fe  Fe32  1  0.16865420  0.50413714  0.83508647  1
  Fe  Fe33  1  0.16989595  0.83761329  0.50210625  1
  Fe  Fe34  1  0.00367995  0.67089750  0.67089045  1
  Fe  Fe35  1  0.16958081  0.83619519  0.83661373  1
  Cr  Cr36  1  0.50182586  0.16911910  0.50394679  1
  Fe  Fe37  1  0.33533759  1.00219088  0.67021399  1
  Fe  Fe38  1  0.50400181  0.16797411  0.83556228  1
  Fe  Fe39  1  0.50252000  0.50439844  0.50359073  1
  Ni  Ni40  1  0.33622852  0.33718092  0.67024245  1
  Fe  Fe41  1  0.50376266  0.50417116  0.83465376  1
  Fe  Fe42  1  0.50235608  0.83429399  0.50295672  1
  Ni  Ni43  1  0.33711289  0.66887090  0.66976984  1
  Fe  Fe44  1  0.50320357  0.83652454  0.83642775  1
  Fe  Fe45  1  0.83794160  0.16834189  0.50293104  1
  Fe  Fe46  1  0.66973360  1.00183042  0.67110698  1
  Fe  Fe47  1  0.83592507  0.16889611  0.83642795  1
  Cr  Cr48  1  0.83593793  0.50367864  0.50340286  1
  Fe  Fe49  1  0.66840613  0.33683253  0.67100981  1
  Fe  Fe50  1  0.83625433  0.50333629  0.83616203  1
  Fe  Fe51  1  0.83641966  0.83752586  0.50266817  1
  Fe  Fe52  1  0.66788649  0.67000994  0.67056530  1
  Ni  Ni53  1  0.83591904  0.83585362  0.83605743  1
" 