7693,Ni19Fe13Cr66_7,-212.568233689097, 174.027247783872,Ni19Fe13Cr66,"# generated using pymatgen
 data_Cr37Fe7Ni10
_symmetry_space_group_name_H-M   'P 1'
_cell_length_a   7.55634425
_cell_length_b   7.55634425
_cell_length_c   10.68628452
_cell_angle_alpha   90.00000000
_cell_angle_beta   90.00000000
_cell_angle_gamma   90.00000000
_symmetry_Int_Tables_number   1
_chemical_formula_structural   Cr37Fe7Ni10
_chemical_formula_sum   'Cr37 Fe7 Ni10'
_cell_volume   610.16908932
_cell_formula_units_Z   1
loop_
 _symmetry_equiv_pos_site_id
 _symmetry_equiv_pos_as_xyz
  1  'x, y, z'
loop_
 _atom_site_type_symbol
 _atom_site_label
 _atom_site_symmetry_multiplicity
 _atom_site_fract_x
 _atom_site_fract_y
 _atom_site_fract_z
 _atom_site_occupancy
  Cr  Cr0  1  0.99289852  0.99155976  -0.00504623  1
  Cr  Cr1  1  0.16171543  0.15805788  0.15831989  1
  Cr  Cr2  1  0.99355713  -0.00572117  0.32843053  1
  Cr  Cr3  1  0.99267543  0.32761482  -0.00479788  1
  Cr  Cr4  1  0.16214326  0.49575124  0.16162145  1
  Cr  Cr5  1  -0.00491156  0.32605202  0.32949821  1
  Cr  Cr6  1  0.99192570  0.66300769  0.99364002  1
  Fe  Fe7  1  0.16313129  0.82735398  0.16135371  1
  Cr  Cr8  1  -0.00486590  0.66214317  0.32697662  1
  Ni  Ni9  1  0.32762842  0.99067524  -0.00397711  1
  Cr  Cr10  1  0.49365723  0.15753849  0.15958730  1
  Cr  Cr11  1  0.32871369  0.99290220  0.32848389  1
  Cr  Cr12  1  0.32834623  0.32614441  0.99335279  1
  Cr  Cr13  1  0.49391184  0.49673270  0.16265561  1
  Cr  Cr14  1  0.32682757  0.32659574  0.32996362  1
  Cr  Cr15  1  0.32848282  0.66340754  -0.00589873  1
  Fe  Fe16  1  0.49375307  0.82741438  0.16268219  1
  Ni  Ni17  1  0.32864681  0.66398709  0.32882184  1
  Cr  Cr18  1  0.66046878  0.99161209  -0.00494351  1
  Cr  Cr19  1  0.82654019  0.15826557  0.16333365  1
  Ni  Ni20  1  0.65929975  0.99065550  0.32879622  1
  Cr  Cr21  1  0.66134157  0.32743601  0.99331739  1
  Cr  Cr22  1  0.82623749  0.49618523  0.16305758  1
  Cr  Cr23  1  0.66008950  0.32462507  0.32863195  1
  Cr  Cr24  1  0.66188507  0.66313924  0.99382622  1
  Fe  Fe25  1  0.82514904  0.82781278  0.16293500  1
  Ni  Ni26  1  0.65812551  0.66580603  0.32610312  1
  Fe  Fe27  1  0.16077220  0.15982913  0.49490209  1
  Ni  Ni28  1  0.99227501  -0.00572269  0.65916780  1
  Cr  Cr29  1  0.16097654  0.15791818  0.82928310  1
  Ni  Ni30  1  0.16200460  0.49656835  0.49217111  1
  Cr  Cr31  1  -0.00540250  0.32653461  0.65788618  1
  Cr  Cr32  1  0.16125408  0.49435225  0.82771098  1
  Fe  Fe33  1  0.16133153  0.82700862  0.49382492  1
  Cr  Cr34  1  -0.00523994  0.66280051  0.66205084  1
  Cr  Cr35  1  0.15957758  0.83006587  0.82683603  1
  Ni  Ni36  1  0.49667859  0.15664647  0.49476496  1
  Cr  Cr37  1  0.32804442  0.99393748  0.65815294  1
  Cr  Cr38  1  0.49418195  0.15895731  0.82770842  1
  Cr  Cr39  1  0.49490512  0.49546106  0.49302842  1
  Cr  Cr40  1  0.32846347  0.32684898  0.65878663  1
  Cr  Cr41  1  0.49441693  0.49307132  0.82620604  1
  Fe  Fe42  1  0.49561920  0.82771155  0.49295076  1
  Cr  Cr43  1  0.32697247  0.66135169  0.65818397  1
  Cr  Cr44  1  0.49441737  0.83042328  0.82598783  1
  Fe  Fe45  1  0.82468130  0.15955459  0.49524053  1
  Ni  Ni46  1  0.66228914  -0.00411136  0.65881889  1
  Cr  Cr47  1  0.82705715  0.15815992  0.82394696  1
  Cr  Cr48  1  0.82660850  0.49580312  0.49327483  1
  Ni  Ni49  1  0.66037437  0.32337899  0.65873548  1
  Cr  Cr50  1  0.82682062  0.49425411  0.82619486  1
  Cr  Cr51  1  0.82639798  0.82968301  0.49490299  1
  Cr  Cr52  1  0.66067110  0.66281451  0.66326374  1
  Ni  Ni53  1  0.82740647  0.83087360  0.82622251  1
" 