8068,Ni19Fe72Cr8_4,-229.851654413332, 178.523111572517,Ni19Fe72Cr8,"# generated using pymatgen
 data_Cr5Fe39Ni10
_symmetry_space_group_name_H-M   'P 1'
_cell_length_a   7.42218160
_cell_length_b   7.42218160
_cell_length_c   10.49654988
_cell_angle_alpha   90.00000000
_cell_angle_beta   90.00000000
_cell_angle_gamma   90.00000000
_symmetry_Int_Tables_number   1
_chemical_formula_structural   Cr5Fe39Ni10
_chemical_formula_sum   'Cr5 Fe39 Ni10'
_cell_volume   578.24212414
_cell_formula_units_Z   1
loop_
 _symmetry_equiv_pos_site_id
 _symmetry_equiv_pos_as_xyz
  1  'x, y, z'
loop_
 _atom_site_type_symbol
 _atom_site_label
 _atom_site_symmetry_multiplicity
 _atom_site_fract_x
 _atom_site_fract_y
 _atom_site_fract_z
 _atom_site_occupancy
  Cr  Cr0  1  0.00517447  1.00245788  0.00314239  1
  Fe  Fe1  1  0.17145215  0.17291399  0.17143566  1
  Fe  Fe2  1  1.00254989  1.00181705  0.33742909  1
  Fe  Fe3  1  0.00429240  0.33744889  1.00193537  1
  Ni  Ni4  1  0.17048103  0.50458883  0.17009996  1
  Fe  Fe5  1  1.00290951  0.34052903  0.33708229  1
  Fe  Fe6  1  0.00442504  0.66840654  1.00289172  1
  Fe  Fe7  1  0.17052296  0.83495966  0.17149797  1
  Fe  Fe8  1  1.00039707  0.66696323  0.33602102  1
  Ni  Ni9  1  0.33609103  0.00402217  1.00287740  1
  Fe  Fe10  1  0.50050851  0.17265974  0.17025204  1
  Fe  Fe11  1  0.33835095  0.00328246  0.33478416  1
  Fe  Fe12  1  0.33428463  0.33603590  0.00407958  1
  Ni  Ni13  1  0.50261036  0.50335300  0.16896801  1
  Fe  Fe14  1  0.33711692  0.33862817  0.33697249  1
  Fe  Fe15  1  0.33446795  0.67194796  0.00405828  1
  Fe  Fe16  1  0.50227106  0.83402531  0.17059756  1
  Fe  Fe17  1  0.33789554  0.66777907  0.33567826  1
  Cr  Cr18  1  0.66827498  1.00151916  1.00270552  1
  Cr  Cr19  1  0.83564067  0.16976324  0.17370357  1
  Fe  Fe20  1  0.66800648  1.00070012  0.33767577  1
  Fe  Fe21  1  0.66998092  0.33541856  1.00283903  1
  Ni  Ni22  1  0.83594703  0.50203504  0.16717746  1
  Fe  Fe23  1  0.66870859  0.33975336  0.33753005  1
  Fe  Fe24  1  0.67008339  0.66969594  0.00501527  1
  Fe  Fe25  1  0.83665343  0.83138789  0.17249457  1
  Ni  Ni26  1  0.67027271  0.66854091  0.33612426  1
  Fe  Fe27  1  0.16765754  0.17071372  0.50254491  1
  Ni  Ni28  1  1.00302033  0.00383499  0.67004158  1
  Fe  Fe29  1  0.16996147  0.17186841  0.83515505  1
  Fe  Fe30  1  0.16800724  0.50226970  0.50336080  1
  Fe  Fe31  1  1.00288193  0.33669371  0.67004839  1
  Ni  Ni32  1  0.17015203  0.50461707  0.83563534  1
  Cr  Cr33  1  0.17071340  0.83580559  0.50258942  1
  Fe  Fe34  1  1.00170590  0.66897771  0.66951349  1
  Fe  Fe35  1  0.17031289  0.83647969  0.83458192  1
  Fe  Fe36  1  0.50383102  0.16917454  0.50288852  1
  Fe  Fe37  1  0.33671865  0.00423805  0.67056077  1
  Fe  Fe38  1  0.50149804  0.17006234  0.83545362  1
  Fe  Fe39  1  0.50363578  0.50476204  0.50303824  1
  Fe  Fe40  1  0.33457505  0.33599858  0.66801425  1
  Cr  Cr41  1  0.50287232  0.50375382  0.83735939  1
  Fe  Fe42  1  0.50590465  0.83527590  0.50281394  1
  Fe  Fe43  1  0.33545466  0.66963994  0.66948608  1
  Fe  Fe44  1  0.50147384  0.83730254  0.83531250  1
  Fe  Fe45  1  0.83731129  0.16912496  0.50339916  1
  Fe  Fe46  1  0.67071701  1.00262946  0.66968448  1
  Ni  Ni47  1  0.83618276  0.16872483  0.83420756  1
  Ni  Ni48  1  0.83543077  0.50244955  0.50404710  1
  Fe  Fe49  1  0.67096301  0.33505116  0.66872475  1
  Fe  Fe50  1  0.83822642  0.50174502  0.83632589  1
  Ni  Ni51  1  0.83651575  0.83687581  0.50250849  1
  Fe  Fe52  1  0.67117566  0.67072048  0.66728014  1
  Fe  Fe53  1  0.83694198  0.83378836  0.83356657  1
" 