1325,Ni19Fe72Cr8_18,-230.229418916827, 176.263296271017,Ni19Fe72Cr8,"# generated using pymatgen
 data_Cr5Fe39Ni10
_symmetry_space_group_name_H-M   'P 1'
_cell_length_a   7.42581631
_cell_length_b   7.42581631
_cell_length_c   10.50169013
_cell_angle_alpha   90.00000000
_cell_angle_beta   90.00000000
_cell_angle_gamma   90.00000000
_symmetry_Int_Tables_number   1
_chemical_formula_structural   Cr5Fe39Ni10
_chemical_formula_sum   'Cr5 Fe39 Ni10'
_cell_volume   579.09205087
_cell_formula_units_Z   1
loop_
 _symmetry_equiv_pos_site_id
 _symmetry_equiv_pos_as_xyz
  1  'x, y, z'
loop_
 _atom_site_type_symbol
 _atom_site_label
 _atom_site_symmetry_multiplicity
 _atom_site_fract_x
 _atom_site_fract_y
 _atom_site_fract_z
 _atom_site_occupancy
  Fe  Fe0  1  0.00320707  1.00196519  0.00336227  1
  Fe  Fe1  1  0.16926529  0.16911442  0.16847705  1
  Fe  Fe2  1  1.00064019  1.00257554  0.33566520  1
  Fe  Fe3  1  1.00275551  0.33712340  1.00162943  1
  Fe  Fe4  1  0.16959747  0.50404542  0.16913351  1
  Fe  Fe5  1  1.00257510  0.33646079  0.33688168  1
  Ni  Ni6  1  1.00161810  0.66953210  1.00222176  1
  Ni  Ni7  1  0.16832631  0.83657639  0.16950551  1
  Fe  Fe8  1  0.00355835  0.66923249  0.33478692  1
  Ni  Ni9  1  0.33521541  0.00360417  1.00067654  1
  Fe  Fe10  1  0.50204572  0.17062395  0.16785198  1
  Cr  Cr11  1  0.33507412  0.00374118  0.33756593  1
  Fe  Fe12  1  0.33520252  0.33626748  0.00434160  1
  Fe  Fe13  1  0.50226931  0.50162619  0.16900167  1
  Ni  Ni14  1  0.33555323  0.33607855  0.33491743  1
  Ni  Ni15  1  0.33323142  0.67080731  0.00400040  1
  Cr  Cr16  1  0.50201705  0.83515372  0.16808835  1
  Fe  Fe17  1  0.33592648  0.66687987  0.33619760  1
  Fe  Fe18  1  0.67027221  0.00288719  1.00193513  1
  Fe  Fe19  1  0.83658519  0.16857300  0.16913981  1
  Fe  Fe20  1  0.67114411  0.00358983  0.33672593  1
  Ni  Ni21  1  0.67163713  0.33501625  0.00380799  1
  Fe  Fe22  1  0.83640017  0.50413742  0.16792537  1
  Fe  Fe23  1  0.66863157  0.33641364  0.33469137  1
  Fe  Fe24  1  0.67177950  0.66895409  1.00256278  1
  Fe  Fe25  1  0.83822131  0.83543569  0.16973627  1
  Ni  Ni26  1  0.67210439  0.66896453  0.33542230  1
  Fe  Fe27  1  0.16647940  0.17054239  0.50294762  1
  Fe  Fe28  1  1.00275587  1.00234773  0.66933335  1
  Fe  Fe29  1  0.16719119  0.16943701  0.83687498  1
  Fe  Fe30  1  0.16717750  0.50138331  0.50108746  1
  Ni  Ni31  1  1.00112574  0.33505311  0.66988680  1
  Fe  Fe32  1  0.16640390  0.50310678  0.83759934  1
  Fe  Fe33  1  0.16637242  0.83615962  0.50180865  1
  Fe  Fe34  1  1.00127713  0.66800893  0.67050071  1
  Fe  Fe35  1  0.16823708  0.83561304  0.83848797  1
  Fe  Fe36  1  0.50470190  0.17037472  0.50250739  1
  Fe  Fe37  1  0.33602091  1.00254927  0.67001041  1
  Fe  Fe38  1  0.50494007  0.16792429  0.83798279  1
  Fe  Fe39  1  0.50523973  0.50285179  0.50095590  1
  Cr  Cr40  1  0.33473034  0.33479645  0.67050879  1
  Cr  Cr41  1  0.50472674  0.50342223  0.83882374  1
  Fe  Fe42  1  0.50654472  0.83553200  0.50209853  1
  Cr  Cr43  1  0.33650483  0.67069519  0.66824262  1
  Fe  Fe44  1  0.50434321  0.83736686  0.83749347  1
  Fe  Fe45  1  0.83675512  0.16971805  0.50306718  1
  Fe  Fe46  1  0.66959956  0.00326056  0.66930425  1
  Fe  Fe47  1  0.83588652  0.17077137  0.83627800  1
  Fe  Fe48  1  0.83595108  0.50317772  0.50398853  1
  Fe  Fe49  1  0.67186349  0.33692042  0.66986438  1
  Ni  Ni50  1  0.83698902  0.50205050  0.83542055  1
  Fe  Fe51  1  0.83573425  0.83551590  0.50247792  1
  Ni  Ni52  1  0.67160132  0.67116451  0.67000738  1
  Fe  Fe53  1  0.83590825  0.83479194  0.83610507  1
" 