5358,Ni19Fe72Cr8_3,-230.071335775699, 174.17664007281,Ni19Fe72Cr8,"# generated using pymatgen
 data_Cr5Fe39Ni10
_symmetry_space_group_name_H-M   'P 1'
_cell_length_a   7.42611637
_cell_length_b   7.42611637
_cell_length_c   10.50211449
_cell_angle_alpha   90.00000000
_cell_angle_beta   90.00000000
_cell_angle_gamma   90.00000000
_symmetry_Int_Tables_number   1
_chemical_formula_structural   Cr5Fe39Ni10
_chemical_formula_sum   'Cr5 Fe39 Ni10'
_cell_volume   579.16225460
_cell_formula_units_Z   1
loop_
 _symmetry_equiv_pos_site_id
 _symmetry_equiv_pos_as_xyz
  1  'x, y, z'
loop_
 _atom_site_type_symbol
 _atom_site_label
 _atom_site_symmetry_multiplicity
 _atom_site_fract_x
 _atom_site_fract_y
 _atom_site_fract_z
 _atom_site_occupancy
  Ni  Ni0  1  1.00261369  0.00281558  1.00244588  1
  Fe  Fe1  1  0.17055735  0.16969292  0.16768584  1
  Cr  Cr2  1  1.00260141  1.00195888  0.33670088  1
  Fe  Fe3  1  0.00276949  0.33568373  1.00267424  1
  Ni  Ni4  1  0.16981133  0.50367717  0.16928023  1
  Cr  Cr5  1  0.00405965  0.33709049  0.33615875  1
  Fe  Fe6  1  0.00281949  0.66992838  0.00298541  1
  Fe  Fe7  1  0.16992706  0.83512388  0.16841180  1
  Fe  Fe8  1  1.00257878  0.66915836  0.33602679  1
  Fe  Fe9  1  0.33589071  0.00300016  1.00256826  1
  Fe  Fe10  1  0.50173644  0.16899429  0.16911756  1
  Fe  Fe11  1  0.33853004  0.00338905  0.33635381  1
  Fe  Fe12  1  0.33568376  0.33567110  0.00290485  1
  Fe  Fe13  1  0.50153399  0.50357349  0.16860150  1
  Fe  Fe14  1  0.33620497  0.33566897  0.33629573  1
  Fe  Fe15  1  0.33529145  0.66959798  0.00312256  1
  Fe  Fe16  1  0.50248416  0.83569702  0.16983974  1
  Fe  Fe17  1  0.33581028  0.66920896  0.33602656  1
  Fe  Fe18  1  0.67014338  0.00304759  1.00238213  1
  Fe  Fe19  1  0.83596952  0.16874093  0.16683189  1
  Ni  Ni20  1  0.66746714  1.00119579  0.33569074  1
  Fe  Fe21  1  0.66981258  0.33508454  1.00225786  1
  Fe  Fe22  1  0.83654913  0.50420200  0.16805901  1
  Cr  Cr23  1  0.66815633  0.33577486  0.33675873  1
  Fe  Fe24  1  0.67015748  0.67013314  1.00247568  1
  Fe  Fe25  1  0.83585406  0.83532568  0.16832139  1
  Fe  Fe26  1  0.66987662  0.67148164  0.33607866  1
  Fe  Fe27  1  0.17086597  0.16994828  0.50472880  1
  Ni  Ni28  1  0.00449388  0.00309327  0.66948158  1
  Fe  Fe29  1  0.16812291  0.16856530  0.83585471  1
  Ni  Ni30  1  0.16949928  0.50346479  0.50308680  1
  Ni  Ni31  1  0.00434468  0.33573871  0.66968483  1
  Fe  Fe32  1  0.16880904  0.50199744  0.83581529  1
  Fe  Fe33  1  0.17047785  0.83562475  0.50373129  1
  Fe  Fe34  1  1.00242382  0.66936702  0.66925616  1
  Fe  Fe35  1  0.16848041  0.83770511  0.83612650  1
  Ni  Ni36  1  0.50103545  0.16809712  0.50093168  1
  Fe  Fe37  1  0.33440757  0.00393144  0.66934408  1
  Ni  Ni38  1  0.50189490  0.16934606  0.83803245  1
  Fe  Fe39  1  0.50082910  0.50380571  0.50275956  1
  Fe  Fe40  1  0.33411655  0.33522059  0.66906728  1
  Fe  Fe41  1  0.50314682  0.50310254  0.83690913  1
  Fe  Fe42  1  0.50179017  0.83552673  0.50158388  1
  Fe  Fe43  1  0.33514499  0.66911499  0.66911881  1
  Fe  Fe44  1  0.50304711  0.83616903  0.83684499  1
  Fe  Fe45  1  0.83710942  0.16898677  0.50409589  1
  Cr  Cr46  1  0.67026537  1.00223600  0.66979431  1
  Ni  Ni47  1  0.83672170  0.16817617  0.83748293  1
  Fe  Fe48  1  0.83701703  0.50419951  0.50367168  1
  Cr  Cr49  1  0.66987569  0.33704787  0.66929465  1
  Fe  Fe50  1  0.83631570  0.50274228  0.83653946  1
  Fe  Fe51  1  0.83600123  0.83508110  0.50309988  1
  Fe  Fe52  1  0.67069990  0.66965671  0.66971393  1
  Ni  Ni53  1  0.83699164  0.83595663  0.83671146  1
" 