973,Ni19Fe72Cr8_7,-230.167075458753, 172.467618006194,Ni19Fe72Cr8,"# generated using pymatgen
 data_Cr5Fe39Ni10
_symmetry_space_group_name_H-M   'P 1'
_cell_length_a   7.42660653
_cell_length_b   7.42660653
_cell_length_c   10.50280767
_cell_angle_alpha   90.00000000
_cell_angle_beta   90.00000000
_cell_angle_gamma   90.00000000
_symmetry_Int_Tables_number   1
_chemical_formula_structural   Cr5Fe39Ni10
_chemical_formula_sum   'Cr5 Fe39 Ni10'
_cell_volume   579.27694286
_cell_formula_units_Z   1
loop_
 _symmetry_equiv_pos_site_id
 _symmetry_equiv_pos_as_xyz
  1  'x, y, z'
loop_
 _atom_site_type_symbol
 _atom_site_label
 _atom_site_symmetry_multiplicity
 _atom_site_fract_x
 _atom_site_fract_y
 _atom_site_fract_z
 _atom_site_occupancy
  Ni  Ni0  1  1.00235699  0.00295339  0.00392696  1
  Fe  Fe1  1  0.16912459  0.17022449  0.16999178  1
  Fe  Fe2  1  0.00321865  0.00344703  0.33666128  1
  Fe  Fe3  1  1.00208486  0.33450216  1.00256029  1
  Fe  Fe4  1  0.16999135  0.50194637  0.16963975  1
  Fe  Fe5  1  1.00180117  0.33519372  0.33559062  1
  Fe  Fe6  1  0.00287957  0.67056909  0.00313287  1
  Fe  Fe7  1  0.16867354  0.83629293  0.17053083  1
  Fe  Fe8  1  1.00262126  0.66970349  0.33514329  1
  Cr  Cr9  1  0.33518853  0.00373823  1.00132766  1
  Ni  Ni10  1  0.50352375  0.17014890  0.16907569  1
  Fe  Fe11  1  0.33565790  0.00302591  0.33495920  1
  Fe  Fe12  1  0.33598804  0.33670187  0.00304529  1
  Fe  Fe13  1  0.50269794  0.50229045  0.16935109  1
  Ni  Ni14  1  0.33597104  0.33624701  0.33476331  1
  Fe  Fe15  1  0.33543091  0.66909586  1.00217680  1
  Fe  Fe16  1  0.50301433  0.83534364  0.17068516  1
  Fe  Fe17  1  0.33651491  0.67015766  0.33586297  1
  Cr  Cr18  1  0.67142787  1.00266207  0.00289038  1
  Fe  Fe19  1  0.83696358  0.17001652  0.17018285  1
  Fe  Fe20  1  0.66945646  0.00357363  0.33541038  1
  Fe  Fe21  1  0.67009084  0.33614084  0.00296278  1
  Fe  Fe22  1  0.83538565  0.50249515  0.16923412  1
  Fe  Fe23  1  0.66970867  0.33614144  0.33509597  1
  Fe  Fe24  1  0.66981308  0.66848245  1.00203094  1
  Fe  Fe25  1  0.83655388  0.83569093  0.17037707  1
  Fe  Fe26  1  0.66899856  0.66853613  0.33669481  1
  Fe  Fe27  1  0.16827592  0.16828050  0.50288906  1
  Ni  Ni28  1  1.00150316  0.00386449  0.66877256  1
  Fe  Fe29  1  0.16664330  0.16987833  0.83507199  1
  Cr  Cr30  1  0.16851017  0.50289551  0.50279461  1
  Fe  Fe31  1  1.00039560  0.33476474  0.66993760  1
  Fe  Fe32  1  0.16790611  0.50090647  0.83656608  1
  Ni  Ni33  1  0.16866014  0.83621818  0.50246350  1
  Fe  Fe34  1  1.00077516  0.67096033  0.66973870  1
  Fe  Fe35  1  0.16576416  0.83716664  0.83513016  1
  Cr  Cr36  1  0.50371962  0.16950815  0.50507191  1
  Fe  Fe37  1  0.33550681  1.00226119  0.67044296  1
  Fe  Fe38  1  0.50376084  0.17082079  0.83438357  1
  Fe  Fe39  1  0.50453697  0.50233918  0.50195607  1
  Ni  Ni40  1  0.33473865  0.33574038  0.67091776  1
  Fe  Fe41  1  0.50471924  0.50122821  0.83636173  1
  Fe  Fe42  1  0.50428641  0.83593725  0.50233583  1
  Cr  Cr43  1  0.33740566  0.66809757  0.66931345  1
  Fe  Fe44  1  0.50545672  0.83581963  0.83478574  1
  Ni  Ni45  1  0.83535310  0.16956922  0.50203275  1
  Ni  Ni46  1  0.67232410  1.00146552  0.67014647  1
  Ni  Ni47  1  0.83579995  0.16948869  0.83658356  1
  Fe  Fe48  1  0.83442320  0.50280253  0.50265833  1
  Fe  Fe49  1  0.67105165  0.33614191  0.67050362  1
  Fe  Fe50  1  0.83568025  0.50281268  0.83608599  1
  Fe  Fe51  1  0.83655996  0.83709218  0.50310558  1
  Ni  Ni52  1  0.67071838  0.66934985  0.66863248  1
  Fe  Fe53  1  0.83741352  0.83629522  0.83504045  1
" 