4009,Ni19Fe13Cr66_14,-212.373847376092, 169.973569583945,Ni19Fe13Cr66,"# generated using pymatgen
 data_Cr37Fe7Ni10
_symmetry_space_group_name_H-M   'P 1'
_cell_length_a   7.54905770
_cell_length_b   7.54905770
_cell_length_c   10.67597978
_cell_angle_alpha   90.00000000
_cell_angle_beta   90.00000000
_cell_angle_gamma   90.00000000
_symmetry_Int_Tables_number   1
_chemical_formula_structural   Cr37Fe7Ni10
_chemical_formula_sum   'Cr37 Fe7 Ni10'
_cell_volume   608.40564090
_cell_formula_units_Z   1
loop_
 _symmetry_equiv_pos_site_id
 _symmetry_equiv_pos_as_xyz
  1  'x, y, z'
loop_
 _atom_site_type_symbol
 _atom_site_label
 _atom_site_symmetry_multiplicity
 _atom_site_fract_x
 _atom_site_fract_y
 _atom_site_fract_z
 _atom_site_occupancy
  Cr  Cr0  1  0.99410107  0.99319057  -0.00456033  1
  Cr  Cr1  1  0.16302549  0.16076448  0.16253050  1
  Cr  Cr2  1  0.99278420  0.99270263  0.32757848  1
  Cr  Cr3  1  -0.00286737  0.33142248  0.99399373  1
  Fe  Fe4  1  0.16497959  0.49383802  0.16130929  1
  Cr  Cr5  1  -0.00183606  0.33006831  0.32739930  1
  Cr  Cr6  1  -0.00486414  0.65888181  -0.00528389  1
  Cr  Cr7  1  0.16392209  0.82662133  0.16150019  1
  Cr  Cr8  1  0.99318238  0.66090346  0.32679554  1
  Cr  Cr9  1  0.33089747  0.99406941  0.99351770  1
  Cr  Cr10  1  0.49422603  0.16239108  0.16220475  1
  Ni  Ni11  1  0.33321039  0.99414649  0.32808336  1
  Ni  Ni12  1  0.32723621  0.33130434  -0.00510749  1
  Cr  Cr13  1  0.49263308  0.49622979  0.16184778  1
  Ni  Ni14  1  0.32935730  0.32811629  0.32806794  1
  Fe  Fe15  1  0.32770890  0.65953766  0.99378139  1
  Fe  Fe16  1  0.49476925  0.82816054  0.16387608  1
  Ni  Ni17  1  0.32915509  0.66134932  0.32489703  1
  Cr  Cr18  1  0.65868650  0.99216271  -0.00496415  1
  Cr  Cr19  1  0.82655658  0.16058433  0.15931476  1
  Ni  Ni20  1  0.65822910  0.99081978  0.32776681  1
  Fe  Fe21  1  0.65997155  0.32930926  0.99382515  1
  Cr  Cr22  1  0.82526183  0.49474635  0.16104063  1
  Cr  Cr23  1  0.65858371  0.32634397  0.32967880  1
  Cr  Cr24  1  0.66042198  0.66288091  -0.00516716  1
  Fe  Fe25  1  0.82506006  0.82824301  0.16268530  1
  Fe  Fe26  1  0.65843858  0.66465584  0.32699643  1
  Cr  Cr27  1  0.16366632  0.15908822  0.49239305  1
  Cr  Cr28  1  0.99410017  0.99382243  0.66054205  1
  Cr  Cr29  1  0.16074194  0.16111812  0.82852465  1
  Cr  Cr30  1  0.16450600  0.49729621  0.49287424  1
  Cr  Cr31  1  -0.00432230  0.33092314  0.66254222  1
  Ni  Ni32  1  0.16239989  0.49647545  0.83002928  1
  Cr  Cr33  1  0.16273388  0.82719736  0.49605470  1
  Cr  Cr34  1  -0.00510762  0.65899028  0.66218118  1
  Cr  Cr35  1  0.16465447  0.82552019  0.82610769  1
  Ni  Ni36  1  0.49465043  0.15923010  0.49050490  1
  Cr  Cr37  1  0.33140386  0.99420708  0.66160629  1
  Cr  Cr38  1  0.49545950  0.16218702  0.82956048  1
  Cr  Cr39  1  0.49351712  0.49538268  0.49292327  1
  Cr  Cr40  1  0.32790040  0.32845809  0.65921907  1
  Cr  Cr41  1  0.49420171  0.49659096  0.82890171  1
  Cr  Cr42  1  0.49274465  0.82649036  0.49261775  1
  Ni  Ni43  1  0.32807243  0.66087925  0.66510851  1
  Ni  Ni44  1  0.49238999  0.82488597  0.82880403  1
  Cr  Cr45  1  0.82601815  0.15999319  0.49470645  1
  Cr  Cr46  1  0.65816373  0.99364698  0.66062313  1
  Cr  Cr47  1  0.82745606  0.16394520  0.82996557  1
  Cr  Cr48  1  0.82544162  0.49621073  0.49487433  1
  Cr  Cr49  1  0.66022927  0.32795297  0.66211155  1
  Ni  Ni50  1  0.82869424  0.49416279  0.82900836  1
  Fe  Fe51  1  0.82566876  0.82868074  0.49303721  1
  Cr  Cr52  1  0.66061918  0.66241918  0.66143410  1
  Cr  Cr53  1  0.82784758  0.82748347  0.82681855  1
" 