678,Ni19Cr81_6,-232.395809925098, 158.57315130662,Ni19Cr81,"# generated using pymatgen
 data_Cr5Ni22
_symmetry_space_group_name_H-M   'P 1'
_cell_length_a   7.47469417
_cell_length_b   7.47469417
_cell_length_c   10.57081386
_cell_angle_alpha   90.00000000
_cell_angle_beta   90.00000000
_cell_angle_gamma   90.00000000
_symmetry_Int_Tables_number   1
_chemical_formula_structural   Cr5Ni22
_chemical_formula_sum   'Cr10 Ni44'
_cell_volume   590.60250015
_cell_formula_units_Z   2
loop_
 _symmetry_equiv_pos_site_id
 _symmetry_equiv_pos_as_xyz
  1  'x, y, z'
loop_
 _atom_site_type_symbol
 _atom_site_label
 _atom_site_symmetry_multiplicity
 _atom_site_fract_x
 _atom_site_fract_y
 _atom_site_fract_z
 _atom_site_occupancy
  Cr  Cr0  1  0.99821889  0.99921525  0.00016488  1
  Ni  Ni1  1  0.16524875  0.16669721  0.16720148  1
  Ni  Ni2  1  0.99855567  0.00030206  0.33155635  1
  Ni  Ni3  1  0.99935205  0.33290980  0.99809359  1
  Cr  Cr4  1  0.16783006  0.49826437  0.16553144  1
  Ni  Ni5  1  0.00016336  0.33015766  0.33328008  1
  Ni  Ni6  1  0.99934854  0.66602602  0.99772425  1
  Ni  Ni7  1  0.16541529  0.83373737  0.16680267  1
  Cr  Cr8  1  0.99928787  0.66767879  0.33399658  1
  Cr  Cr9  1  0.33428901  0.00091709  0.99933227  1
  Ni  Ni10  1  0.50134126  0.16727125  0.16569431  1
  Cr  Cr11  1  0.33239767  -0.00035906  0.33275300  1
  Ni  Ni12  1  0.33363539  0.33200456  0.99913995  1
  Ni  Ni13  1  0.49909023  0.49803050  0.16807660  1
  Ni  Ni14  1  0.33383445  0.33355235  0.33310688  1
  Cr  Cr15  1  0.33193857  0.66554388  -0.00047382  1
  Ni  Ni16  1  0.50117496  0.83316288  0.16784833  1
  Ni  Ni17  1  0.33561717  0.66535152  0.33307452  1
  Ni  Ni18  1  0.66635848  0.00131243  0.00015281  1
  Ni  Ni19  1  0.83187495  0.16461215  0.16682901  1
  Ni  Ni20  1  0.66712003  0.99851986  0.33088270  1
  Ni  Ni21  1  0.66547831  0.33039506  0.99880206  1
  Cr  Cr22  1  0.83176997  0.49786485  0.16592992  1
  Ni  Ni23  1  0.66446796  0.33298734  0.33240335  1
  Cr  Cr24  1  0.66701935  0.66683868  0.99872541  1
  Ni  Ni25  1  0.83187489  0.83598903  0.16696600  1
  Ni  Ni26  1  0.66372821  0.66695826  0.33364466  1
  Ni  Ni27  1  0.16679750  0.16702698  0.50000175  1
  Ni  Ni28  1  0.00250771  0.99832062  0.66672299  1
  Ni  Ni29  1  0.16609084  0.16784106  0.83126284  1
  Ni  Ni30  1  0.16710434  0.49881315  0.49997283  1
  Ni  Ni31  1  0.00056069  0.33376875  0.66709119  1
  Ni  Ni32  1  0.16504776  0.49884472  0.83273776  1
  Ni  Ni33  1  0.16623180  0.83262517  0.50104570  1
  Ni  Ni34  1  -0.00048135  0.66637573  0.66675646  1
  Ni  Ni35  1  0.16521384  0.83177953  0.83061753  1
  Ni  Ni36  1  0.49774035  0.16790033  0.49936068  1
  Ni  Ni37  1  0.33084460  0.99936323  0.66638738  1
  Ni  Ni38  1  0.49972150  0.16767141  0.83341057  1
  Ni  Ni39  1  0.49935114  0.49985672  0.49879216  1
  Ni  Ni40  1  0.33262279  0.33255856  0.66621837  1
  Ni  Ni41  1  0.49955127  0.49780012  0.83159760  1
  Ni  Ni42  1  0.49935072  0.83070927  0.49912868  1
  Ni  Ni43  1  0.33262278  0.66654376  0.66608172  1
  Ni  Ni44  1  0.49955467  0.83299380  0.83148851  1
  Cr  Cr45  1  0.83367816  0.16678925  0.49817975  1
  Cr  Cr46  1  0.66512131  0.99880646  0.66741444  1
  Ni  Ni47  1  0.83265333  0.16783824  0.83371820  1
  Ni  Ni48  1  0.83200974  0.50042231  0.50043717  1
  Ni  Ni49  1  0.66528157  0.33554831  0.66726060  1
  Ni  Ni50  1  0.83386633  0.49867707  0.83210578  1
  Ni  Ni51  1  0.83288301  0.83101474  0.49896273  1
  Ni  Ni52  1  0.66632420  0.66459837  0.66584970  1
  Ni  Ni53  1  0.83369725  0.83195039  0.83253685  1
" 