5657,Ni19Fe68Cr11_9,-229.304190507466, 180.423857821594,Ni19Fe68Cr11,"# generated using pymatgen
 data_Cr7Fe37Ni10
_symmetry_space_group_name_H-M   'P 1'
_cell_length_a   7.43214994
_cell_length_b   7.43214994
_cell_length_c   10.51064724
_cell_angle_alpha   90.00000000
_cell_angle_beta   90.00000000
_cell_angle_gamma   90.00000000
_symmetry_Int_Tables_number   1
_chemical_formula_structural   Cr7Fe37Ni10
_chemical_formula_sum   'Cr7 Fe37 Ni10'
_cell_volume   580.57507288
_cell_formula_units_Z   1
loop_
 _symmetry_equiv_pos_site_id
 _symmetry_equiv_pos_as_xyz
  1  'x, y, z'
loop_
 _atom_site_type_symbol
 _atom_site_label
 _atom_site_symmetry_multiplicity
 _atom_site_fract_x
 _atom_site_fract_y
 _atom_site_fract_z
 _atom_site_occupancy
  Fe  Fe0  1  0.00735292  1.00192484  1.00140121  1
  Fe  Fe1  1  0.16876646  0.16980761  0.16666633  1
  Fe  Fe2  1  0.00509372  0.00356059  0.33789543  1
  Ni  Ni3  1  0.00361667  0.33849309  0.00307450  1
  Ni  Ni4  1  0.16945802  0.50333281  0.16834072  1
  Ni  Ni5  1  1.00219489  0.33727452  0.33633195  1
  Fe  Fe6  1  0.00407416  0.66812770  0.00238803  1
  Fe  Fe7  1  0.17099743  0.83466689  0.16939189  1
  Fe  Fe8  1  0.00405829  0.66688487  0.33574185  1
  Ni  Ni9  1  0.33682878  1.00145413  0.00243292  1
  Fe  Fe10  1  0.50208073  0.16924789  0.16770733  1
  Fe  Fe11  1  0.33463801  1.00115001  0.33517678  1
  Fe  Fe12  1  0.33377120  0.33432452  0.00348895  1
  Ni  Ni13  1  0.50170633  0.50351905  0.16865402  1
  Cr  Cr14  1  0.33305122  0.33564704  0.33374171  1
  Fe  Fe15  1  0.33406070  0.66945227  0.00278907  1
  Fe  Fe16  1  0.50099991  0.83429153  0.16951660  1
  Fe  Fe17  1  0.33375036  0.67047075  0.33557984  1
  Fe  Fe18  1  0.66671630  1.00176475  1.00135059  1
  Cr  Cr19  1  0.83799274  0.16878534  0.16855304  1
  Fe  Fe20  1  0.66750059  0.00321068  0.33796191  1
  Fe  Fe21  1  0.66758970  0.33673252  0.00360166  1
  Ni  Ni22  1  0.83555638  0.50205016  0.16871702  1
  Fe  Fe23  1  0.66999990  0.33661053  0.33526998  1
  Fe  Fe24  1  0.66905933  0.66856360  0.00300214  1
  Cr  Cr25  1  0.83762179  0.83713928  0.16930865  1
  Fe  Fe26  1  0.66921582  0.66771598  0.33488599  1
  Fe  Fe27  1  0.16891981  0.16817993  0.50348627  1
  Fe  Fe28  1  0.00498640  1.00077864  0.66831369  1
  Ni  Ni29  1  0.16893197  0.16796632  0.83561494  1
  Fe  Fe30  1  0.16764804  0.50500915  0.50256877  1
  Fe  Fe31  1  0.00385058  0.33654349  0.66858058  1
  Fe  Fe32  1  0.16733880  0.50116486  0.83589796  1
  Ni  Ni33  1  0.16924079  0.83669584  0.50215874  1
  Fe  Fe34  1  0.00273108  0.67003902  0.66865494  1
  Fe  Fe35  1  0.16993186  0.83601362  0.83504813  1
  Fe  Fe36  1  0.50078189  0.16681532  0.50188311  1
  Fe  Fe37  1  0.33342196  1.00113865  0.66934370  1
  Fe  Fe38  1  0.49919266  0.16843075  0.83678003  1
  Cr  Cr39  1  0.50178720  0.50334677  0.50278288  1
  Fe  Fe40  1  0.33367111  0.33404073  0.66902634  1
  Cr  Cr41  1  0.50101015  0.50330212  0.83521739  1
  Ni  Ni42  1  0.50039031  0.83465283  0.50156144  1
  Ni  Ni43  1  0.33377020  0.67025232  0.66889578  1
  Fe  Fe44  1  0.49987475  0.83692539  0.83582467  1
  Fe  Fe45  1  0.83657905  0.16887829  0.50144999  1
  Cr  Cr46  1  0.66786971  1.00113706  0.66930528  1
  Cr  Cr47  1  0.83790264  0.16870253  0.83779809  1
  Fe  Fe48  1  0.83774449  0.50378717  0.50151840  1
  Fe  Fe49  1  0.67003524  0.33645104  0.66849745  1
  Fe  Fe50  1  0.83829298  0.50292364  0.83671289  1
  Fe  Fe51  1  0.83597462  0.83440490  0.50093854  1
  Fe  Fe52  1  0.67007704  0.66964928  0.66889716  1
  Fe  Fe53  1  0.83707084  0.83334596  0.83705127  1
" 