1439,Ni19Fe13Cr66_8,-212.213190544649, 172.050665661118,Ni19Fe13Cr66,"# generated using pymatgen
 data_Cr37Fe7Ni10
_symmetry_space_group_name_H-M   'P 1'
_cell_length_a   7.54823556
_cell_length_b   7.54823556
_cell_length_c   10.67481711
_cell_angle_alpha   90.00000000
_cell_angle_beta   90.00000000
_cell_angle_gamma   90.00000000
_symmetry_Int_Tables_number   1
_chemical_formula_structural   Cr37Fe7Ni10
_chemical_formula_sum   'Cr37 Fe7 Ni10'
_cell_volume   608.20688616
_cell_formula_units_Z   1
loop_
 _symmetry_equiv_pos_site_id
 _symmetry_equiv_pos_as_xyz
  1  'x, y, z'
loop_
 _atom_site_type_symbol
 _atom_site_label
 _atom_site_symmetry_multiplicity
 _atom_site_fract_x
 _atom_site_fract_y
 _atom_site_fract_z
 _atom_site_occupancy
  Cr  Cr0  1  -0.00467076  -0.00334793  -0.00453897  1
  Cr  Cr1  1  0.16430513  0.16325661  0.15839853  1
  Cr  Cr2  1  0.99234510  -0.00273436  0.32819758  1
  Cr  Cr3  1  0.99199319  0.32814426  -0.00512093  1
  Ni  Ni4  1  0.16016637  0.49059039  0.16186966  1
  Cr  Cr5  1  0.99243403  0.32724746  0.32780245  1
  Cr  Cr6  1  -0.00497139  0.65884460  -0.00337709  1
  Cr  Cr7  1  0.16078731  0.82844832  0.15965504  1
  Cr  Cr8  1  -0.00325746  0.65993103  0.32524452  1
  Ni  Ni9  1  0.32865245  -0.00485060  0.99156973  1
  Cr  Cr10  1  0.49330360  0.16178525  0.16060980  1
  Cr  Cr11  1  0.32900720  0.99255175  0.32872910  1
  Fe  Fe12  1  0.32760962  0.32835826  0.99314859  1
  Cr  Cr13  1  0.49381252  0.49209875  0.16295142  1
  Fe  Fe14  1  0.32692577  0.32643458  0.32721466  1
  Cr  Cr15  1  0.32879729  0.66365861  0.99366813  1
  Cr  Cr16  1  0.49679731  0.82929764  0.16192990  1
  Cr  Cr17  1  0.32754131  0.66123528  0.32804974  1
  Cr  Cr18  1  0.65915861  -0.00425387  -0.00396424  1
  Fe  Fe19  1  0.82749513  0.16260861  0.16161267  1
  Ni  Ni20  1  0.66215529  -0.00301454  0.32781508  1
  Cr  Cr21  1  0.66273628  0.32850994  0.99352184  1
  Ni  Ni22  1  0.82829359  0.49427780  0.16117685  1
  Cr  Cr23  1  0.66397523  0.32522651  0.32775901  1
  Cr  Cr24  1  0.65972126  0.65966445  0.99200508  1
  Cr  Cr25  1  0.82645877  0.82730823  0.16249715  1
  Fe  Fe26  1  0.66297779  0.66181502  0.32710449  1
  Cr  Cr27  1  0.16201826  0.16099708  0.49776178  1
  Ni  Ni28  1  0.99392436  -0.00383174  0.66097189  1
  Ni  Ni29  1  0.16229409  0.16012353  0.82730178  1
  Cr  Cr30  1  0.16167723  0.49252967  0.49215341  1
  Cr  Cr31  1  0.99251215  0.32619301  0.66136320  1
  Cr  Cr32  1  0.16180713  0.49092837  0.82921651  1
  Cr  Cr33  1  0.15892634  0.82978413  0.49722567  1
  Cr  Cr34  1  -0.00402500  0.66044023  0.66261937  1
  Cr  Cr35  1  0.16023565  0.83220518  0.82746515  1
  Cr  Cr36  1  0.49460876  0.16090967  0.49404297  1
  Ni  Ni37  1  0.32949921  0.99383393  0.66369970  1
  Cr  Cr38  1  0.49148991  0.16102604  0.82933620  1
  Cr  Cr39  1  0.49580448  0.49381849  0.49280788  1
  Cr  Cr40  1  0.32922828  0.32841722  0.66180735  1
  Ni  Ni41  1  0.49625552  0.49613214  0.82733409  1
  Cr  Cr42  1  0.49869088  0.82878312  0.49490410  1
  Cr  Cr43  1  0.33015893  0.66363053  0.66180142  1
  Ni  Ni44  1  0.49582360  0.82875128  0.82581981  1
  Fe  Fe45  1  0.82637945  0.15889449  0.49636701  1
  Ni  Ni46  1  0.66028554  0.99453229  0.66079115  1
  Cr  Cr47  1  0.82952849  0.15853801  0.82639591  1
  Cr  Cr48  1  0.82653606  0.49768073  0.49663805  1
  Cr  Cr49  1  0.66162986  0.32785509  0.66316167  1
  Fe  Fe50  1  0.82650475  0.49487967  0.82766510  1
  Cr  Cr51  1  0.82674289  0.82887510  0.49547179  1
  Fe  Fe52  1  0.65979190  0.66320476  0.66370382  1
  Cr  Cr53  1  0.82671185  0.82736702  0.82623459  1
" 