7550,Ni19Fe72Cr8_15,-230.423466871677, 179.31623644846,Ni19Fe72Cr8,"# generated using pymatgen
 data_Cr5Fe39Ni10
_symmetry_space_group_name_H-M   'P 1'
_cell_length_a   7.42441144
_cell_length_b   7.42441144
_cell_length_c   10.49970334
_cell_angle_alpha   90.00000000
_cell_angle_beta   90.00000000
_cell_angle_gamma   90.00000000
_symmetry_Int_Tables_number   1
_chemical_formula_structural   Cr5Fe39Ni10
_chemical_formula_sum   'Cr5 Fe39 Ni10'
_cell_volume   578.76344198
_cell_formula_units_Z   1
loop_
 _symmetry_equiv_pos_site_id
 _symmetry_equiv_pos_as_xyz
  1  'x, y, z'
loop_
 _atom_site_type_symbol
 _atom_site_label
 _atom_site_symmetry_multiplicity
 _atom_site_fract_x
 _atom_site_fract_y
 _atom_site_fract_z
 _atom_site_occupancy
  Fe  Fe0  1  1.00248227  1.00077327  1.00254091  1
  Fe  Fe1  1  0.17053863  0.16708774  0.17024583  1
  Fe  Fe2  1  1.00275609  1.00187953  0.33644077  1
  Cr  Cr3  1  0.00362122  0.33587174  1.00226781  1
  Cr  Cr4  1  0.16853781  0.50540195  0.17012716  1
  Fe  Fe5  1  1.00129232  0.33590447  0.33704619  1
  Fe  Fe6  1  0.00338577  0.67212197  0.00303394  1
  Ni  Ni7  1  0.16759000  0.83679279  0.16861481  1
  Ni  Ni8  1  1.00223126  0.66982795  0.33593480  1
  Fe  Fe9  1  0.33600122  0.00367410  1.00269649  1
  Ni  Ni10  1  0.50429728  0.17006353  0.16859481  1
  Fe  Fe11  1  0.33569299  0.00343144  0.33671143  1
  Fe  Fe12  1  0.33938221  0.33507062  1.00185762  1
  Fe  Fe13  1  0.50356957  0.50052854  0.17022498  1
  Fe  Fe14  1  0.33763382  0.33483259  0.33719184  1
  Fe  Fe15  1  0.33444621  0.66988924  1.00111753  1
  Cr  Cr16  1  0.50183801  0.83893689  0.17104445  1
  Fe  Fe17  1  0.33581778  0.67035905  0.33754445  1
  Ni  Ni18  1  0.66946190  0.00415600  1.00192562  1
  Fe  Fe19  1  0.83486267  0.16824166  0.17015312  1
  Ni  Ni20  1  0.66953598  0.00330917  0.33684390  1
  Fe  Fe21  1  0.66789298  0.33416216  0.00348996  1
  Ni  Ni22  1  0.83587770  0.50260328  0.17097454  1
  Fe  Fe23  1  0.66968711  0.33602282  0.33586309  1
  Cr  Cr24  1  0.67022780  0.66977674  0.00438161  1
  Fe  Fe25  1  0.83848166  0.83703362  0.17055659  1
  Fe  Fe26  1  0.67123107  0.66889193  0.33660286  1
  Fe  Fe27  1  0.16877507  0.16886371  0.50280960  1
  Ni  Ni28  1  1.00240435  0.00352842  0.66963359  1
  Fe  Fe29  1  0.16887701  0.16868984  0.83555548  1
  Fe  Fe30  1  0.16888377  0.50305285  0.50247508  1
  Ni  Ni31  1  1.00245805  0.33589432  0.66870377  1
  Ni  Ni32  1  0.16861358  0.50512416  0.83568897  1
  Fe  Fe33  1  0.16963098  0.83669709  0.50226473  1
  Fe  Fe34  1  0.00331711  0.66904499  0.66933324  1
  Fe  Fe35  1  0.16935608  0.83583832  0.83652992  1
  Ni  Ni36  1  0.50423848  0.16781649  0.50266505  1
  Fe  Fe37  1  0.33534987  1.00213230  0.66920417  1
  Fe  Fe38  1  0.50340794  0.16902725  0.83743352  1
  Fe  Fe39  1  0.50354166  0.50318403  0.50218646  1
  Cr  Cr40  1  0.33465962  0.33634150  0.66985592  1
  Fe  Fe41  1  0.50218134  0.50305697  0.83621169  1
  Fe  Fe42  1  0.50317627  0.83693745  0.50255260  1
  Fe  Fe43  1  0.33493703  0.67080270  0.66995391  1
  Fe  Fe44  1  0.50188915  0.83653537  0.83587759  1
  Fe  Fe45  1  0.83594252  0.16923081  0.50335917  1
  Fe  Fe46  1  0.67011046  0.00383468  0.66930138  1
  Fe  Fe47  1  0.83632593  0.16898312  0.83509634  1
  Fe  Fe48  1  0.83618814  0.50232767  0.50229039  1
  Fe  Fe49  1  0.67186161  0.33551373  0.66925931  1
  Fe  Fe50  1  0.83702599  0.50257490  0.83491367  1
  Fe  Fe51  1  0.83580557  0.83705283  0.50264302  1
  Fe  Fe52  1  0.67035830  0.66926357  0.66980875  1
  Fe  Fe53  1  0.83736371  0.83705906  0.83541849  1
" 