1318,Ni19Fe13Cr66_19,-212.370122001298, 168.425953396674,Ni19Fe13Cr66,"# generated using pymatgen
 data_Cr37Fe7Ni10
_symmetry_space_group_name_H-M   'P 1'
_cell_length_a   7.55982384
_cell_length_b   7.55982384
_cell_length_c   10.69120541
_cell_angle_alpha   90.00000000
_cell_angle_beta   90.00000000
_cell_angle_gamma   90.00000000
_symmetry_Int_Tables_number   1
_chemical_formula_structural   Cr37Fe7Ni10
_chemical_formula_sum   'Cr37 Fe7 Ni10'
_cell_volume   611.01240134
_cell_formula_units_Z   1
loop_
 _symmetry_equiv_pos_site_id
 _symmetry_equiv_pos_as_xyz
  1  'x, y, z'
loop_
 _atom_site_type_symbol
 _atom_site_label
 _atom_site_symmetry_multiplicity
 _atom_site_fract_x
 _atom_site_fract_y
 _atom_site_fract_z
 _atom_site_occupancy
  Fe  Fe0  1  -0.00317552  -0.00497021  -0.00536462  1
  Ni  Ni1  1  0.16310851  0.15797696  0.16082398  1
  Cr  Cr2  1  -0.00401856  -0.00553191  0.32771984  1
  Cr  Cr3  1  -0.00452059  0.32594201  -0.00490854  1
  Cr  Cr4  1  0.16272531  0.49234386  0.16267793  1
  Cr  Cr5  1  -0.00546904  0.32582022  0.32582869  1
  Cr  Cr6  1  -0.00562820  0.65954659  -0.00524242  1
  Cr  Cr7  1  0.16195209  0.82963287  0.16191791  1
  Cr  Cr8  1  -0.00539994  0.66144822  0.32679532  1
  Ni  Ni9  1  0.32592573  -0.00569532  -0.00445888  1
  Cr  Cr10  1  0.49165418  0.15944826  0.16140629  1
  Ni  Ni11  1  0.32728194  -0.00519649  0.32750989  1
  Cr  Cr12  1  0.32566596  0.32543684  -0.00595011  1
  Cr  Cr13  1  0.49350636  0.49326575  0.16285006  1
  Ni  Ni14  1  0.32799510  0.32556647  0.32688805  1
  Cr  Cr15  1  0.32799418  0.66075299  0.99369852  1
  Cr  Cr16  1  0.49389205  0.82858478  0.15981345  1
  Fe  Fe17  1  0.32756648  0.66131245  0.32911177  1
  Fe  Fe18  1  0.65893045  -0.00560842  -0.00596221  1
  Cr  Cr19  1  0.82640194  0.15871843  0.16157454  1
  Cr  Cr20  1  0.65988940  0.99334049  0.33066356  1
  Cr  Cr21  1  0.66017645  0.32933008  -0.00567662  1
  Cr  Cr22  1  0.82537791  0.49472000  0.16110875  1
  Fe  Fe23  1  0.65858119  0.32631897  0.32940279  1
  Ni  Ni24  1  0.66033382  0.66266442  -0.00603743  1
  Cr  Cr25  1  0.82603731  0.82788374  0.15665429  1
  Cr  Cr26  1  0.65893710  0.65970489  0.32761995  1
  Cr  Cr27  1  0.16129703  0.16203389  0.49376133  1
  Cr  Cr28  1  -0.00589832  -0.00579369  0.65839753  1
  Cr  Cr29  1  0.16143916  0.16087509  0.82677851  1
  Cr  Cr30  1  0.16223223  0.49482513  0.49596347  1
  Ni  Ni31  1  -0.00440087  0.32839959  0.65934968  1
  Cr  Cr32  1  0.16025265  0.49359001  0.82217061  1
  Fe  Fe33  1  0.16306256  0.82638795  0.49351656  1
  Ni  Ni34  1  -0.00504981  0.66010785  0.65975310  1
  Cr  Cr35  1  0.15998370  0.82659316  0.82585257  1
  Cr  Cr36  1  0.49248967  0.16259435  0.49257903  1
  Cr  Cr37  1  0.32823629  0.99268641  0.65936770  1
  Cr  Cr38  1  0.49251936  0.15938320  0.82818879  1
  Ni  Ni39  1  0.48989755  0.49480661  0.49263315  1
  Ni  Ni40  1  0.32652726  0.32833969  0.65987321  1
  Cr  Cr41  1  0.49235749  0.49357837  0.82618869  1
  Fe  Fe42  1  0.49080263  0.82558965  0.49264686  1
  Fe  Fe43  1  0.32709047  0.65967857  0.65893571  1
  Cr  Cr44  1  0.49417254  0.82841270  0.82969791  1
  Ni  Ni45  1  0.82770663  0.16144840  0.49423832  1
  Cr  Cr46  1  0.65953121  0.99330737  0.65880551  1
  Cr  Cr47  1  0.82756693  0.15948493  0.82561648  1
  Cr  Cr48  1  0.82786097  0.49224081  0.49405446  1
  Cr  Cr49  1  0.65947674  0.32700663  0.65808610  1
  Cr  Cr50  1  0.82881632  0.49491951  0.82609898  1
  Cr  Cr51  1  0.82912604  0.82693454  0.49477674  1
  Cr  Cr52  1  0.65859350  0.66122168  0.66045124  1
  Cr  Cr53  1  0.82723706  0.82723927  0.83040163  1
" 