6663,Ni19Fe13Cr66_1,-212.595783897504, 174.01420316889,Ni19Fe13Cr66,"# generated using pymatgen
 data_Cr37Fe7Ni10
_symmetry_space_group_name_H-M   'P 1'
_cell_length_a   7.54511113
_cell_length_b   7.54511113
_cell_length_c   10.67039849
_cell_angle_alpha   90.00000000
_cell_angle_beta   90.00000000
_cell_angle_gamma   90.00000000
_symmetry_Int_Tables_number   1
_chemical_formula_structural   Cr37Fe7Ni10
_chemical_formula_sum   'Cr37 Fe7 Ni10'
_cell_volume   607.45193490
_cell_formula_units_Z   1
loop_
 _symmetry_equiv_pos_site_id
 _symmetry_equiv_pos_as_xyz
  1  'x, y, z'
loop_
 _atom_site_type_symbol
 _atom_site_label
 _atom_site_symmetry_multiplicity
 _atom_site_fract_x
 _atom_site_fract_y
 _atom_site_fract_z
 _atom_site_occupancy
  Cr  Cr0  1  0.99177422  0.99308141  -0.00427054  1
  Cr  Cr1  1  0.16166703  0.16003984  0.16133765  1
  Ni  Ni2  1  0.99400445  0.99177441  0.32837401  1
  Cr  Cr3  1  0.99203827  0.33058583  0.99345523  1
  Fe  Fe4  1  0.16063209  0.49709149  0.15921612  1
  Cr  Cr5  1  -0.00495663  0.32884826  0.32688556  1
  Ni  Ni6  1  -0.00426929  0.66136992  -0.00404256  1
  Cr  Cr7  1  0.16079203  0.82927944  0.15988712  1
  Cr  Cr8  1  -0.00479656  0.66313604  0.32560104  1
  Ni  Ni9  1  0.33084136  0.99145861  0.99336030  1
  Cr  Cr10  1  0.49506040  0.16077918  0.15919297  1
  Cr  Cr11  1  0.32787345  0.99407946  0.33147808  1
  Cr  Cr12  1  0.32822804  0.33032400  -0.00274627  1
  Cr  Cr13  1  0.49488189  0.49592482  0.16192469  1
  Cr  Cr14  1  0.32845884  0.32894433  0.32844847  1
  Ni  Ni15  1  0.32650023  0.66323282  0.99472036  1
  Cr  Cr16  1  0.49634061  0.82804797  0.15794669  1
  Cr  Cr17  1  0.32693521  0.66141228  0.32739879  1
  Ni  Ni18  1  0.66168831  -0.00453004  0.99385233  1
  Cr  Cr19  1  0.82779337  0.15886461  0.16074992  1
  Cr  Cr20  1  0.66262535  0.99418909  0.32735466  1
  Ni  Ni21  1  0.66314360  0.32677676  0.99341159  1
  Cr  Cr22  1  0.82678424  0.49670796  0.16062003  1
  Cr  Cr23  1  0.66085760  0.32772349  0.32848252  1
  Cr  Cr24  1  0.66341340  0.66224772  0.99416162  1
  Ni  Ni25  1  0.82888025  0.82738153  0.16152932  1
  Fe  Fe26  1  0.66260968  0.66313094  0.32662801  1
  Cr  Cr27  1  0.16022026  0.16035062  0.49493734  1
  Cr  Cr28  1  0.99367159  0.99317349  0.66033908  1
  Cr  Cr29  1  0.16033056  0.16075281  0.82823537  1
  Cr  Cr30  1  0.15959432  0.49541166  0.49599230  1
  Fe  Fe31  1  0.99370821  0.32873504  0.66370463  1
  Cr  Cr32  1  0.16027210  0.49635519  0.82883024  1
  Fe  Fe33  1  0.15962402  0.82731922  0.49496223  1
  Ni  Ni34  1  0.99333017  0.66021000  0.66205194  1
  Cr  Cr35  1  0.16210168  0.82769391  0.82904407  1
  Ni  Ni36  1  0.49468161  0.16106404  0.49473925  1
  Cr  Cr37  1  0.32985375  0.99381862  0.66060131  1
  Cr  Cr38  1  0.49472158  0.16064859  0.83191128  1
  Cr  Cr39  1  0.49737120  0.49597628  0.49356874  1
  Cr  Cr40  1  0.32973907  0.32772362  0.65907275  1
  Cr  Cr41  1  0.49596009  0.49738207  0.82881148  1
  Cr  Cr42  1  0.49722313  0.82642295  0.49598101  1
  Cr  Cr43  1  0.32729973  0.66303618  0.66187194  1
  Fe  Fe44  1  0.49469104  0.82897091  0.83073223  1
  Cr  Cr45  1  0.82942056  0.16128173  0.49415915  1
  Cr  Cr46  1  0.66095822  -0.00435206  0.66339633  1
  Ni  Ni47  1  0.82663282  0.16236061  0.82950880  1
  Cr  Cr48  1  0.82767343  0.49723947  0.49771172  1
  Cr  Cr49  1  0.66273913  0.32699079  0.66307587  1
  Fe  Fe50  1  0.82904473  0.49445621  0.82805683  1
  Cr  Cr51  1  0.82914833  0.82621895  0.49257410  1
  Fe  Fe52  1  0.66295558  0.66246497  0.66312533  1
  Cr  Cr53  1  0.82788316  0.82704357  0.82869853  1
" 