486,Ni19Fe72Cr8_16,-229.851561451422, 175.975613697272,Ni19Fe72Cr8,"# generated using pymatgen
 data_Cr5Fe39Ni10
_symmetry_space_group_name_H-M   'P 1'
_cell_length_a   7.42252849
_cell_length_b   7.42252849
_cell_length_c   10.49704046
_cell_angle_alpha   90.00000000
_cell_angle_beta   90.00000000
_cell_angle_gamma   90.00000000
_symmetry_Int_Tables_number   1
_chemical_formula_structural   Cr5Fe39Ni10
_chemical_formula_sum   'Cr5 Fe39 Ni10'
_cell_volume   578.32320434
_cell_formula_units_Z   1
loop_
 _symmetry_equiv_pos_site_id
 _symmetry_equiv_pos_as_xyz
  1  'x, y, z'
loop_
 _atom_site_type_symbol
 _atom_site_label
 _atom_site_symmetry_multiplicity
 _atom_site_fract_x
 _atom_site_fract_y
 _atom_site_fract_z
 _atom_site_occupancy
  Fe  Fe0  1  1.00020548  0.00322871  0.00339425  1
  Fe  Fe1  1  0.16935549  0.17087047  0.17040639  1
  Fe  Fe2  1  1.00295300  1.00238981  0.33596603  1
  Fe  Fe3  1  1.00231192  0.33615416  1.00267496  1
  Fe  Fe4  1  0.17012179  0.50296835  0.16971980  1
  Fe  Fe5  1  0.00438143  0.33668516  0.33604842  1
  Fe  Fe6  1  1.00161613  0.66961215  0.00336217  1
  Fe  Fe7  1  0.16932481  0.83515876  0.17022843  1
  Fe  Fe8  1  0.00374574  0.66992147  0.33673315  1
  Cr  Cr9  1  0.33772218  0.00390454  0.00324199  1
  Fe  Fe10  1  0.50342293  0.16977167  0.16932760  1
  Fe  Fe11  1  0.33727771  1.00280321  0.33645238  1
  Fe  Fe12  1  0.33763157  0.33765009  0.00310342  1
  Ni  Ni13  1  0.50148104  0.50314345  0.16781716  1
  Fe  Fe14  1  0.33582597  0.33624704  0.33600323  1
  Fe  Fe15  1  0.33832490  0.66812094  0.00379154  1
  Fe  Fe16  1  0.50365522  0.83605344  0.16949475  1
  Fe  Fe17  1  0.33605381  0.66994581  0.33630900  1
  Ni  Ni18  1  0.67011951  1.00209018  0.00316502  1
  Fe  Fe19  1  0.83621721  0.16897076  0.16928442  1
  Ni  Ni20  1  0.66814493  1.00215569  0.33533069  1
  Fe  Fe21  1  0.66905363  0.33623290  0.00325153  1
  Fe  Fe22  1  0.83711233  0.50320178  0.16814077  1
  Cr  Cr23  1  0.66881184  0.33609892  0.33547824  1
  Ni  Ni24  1  0.66958777  0.66980086  1.00286346  1
  Fe  Fe25  1  0.83601621  0.83682285  0.16877943  1
  Cr  Cr26  1  0.66991678  0.67095554  0.33696818  1
  Fe  Fe27  1  0.17098549  0.16929157  0.50338069  1
  Ni  Ni28  1  0.00376331  0.00316514  0.67015535  1
  Fe  Fe29  1  0.16947547  0.17127506  0.83521303  1
  Fe  Fe30  1  0.16948481  0.50327626  0.50341211  1
  Ni  Ni31  1  0.00434984  0.33719978  0.67020293  1
  Fe  Fe32  1  0.17011666  0.50161933  0.83586300  1
  Fe  Fe33  1  0.16948843  0.83642920  0.50353273  1
  Ni  Ni34  1  1.00206305  0.66863364  0.66839970  1
  Cr  Cr35  1  0.16924036  0.83528831  0.83547564  1
  Fe  Fe36  1  0.50125396  0.16834547  0.50374692  1
  Fe  Fe37  1  0.33624487  0.00346683  0.66937763  1
  Ni  Ni38  1  0.50465844  0.17020178  0.83535887  1
  Fe  Fe39  1  0.50179180  0.50326122  0.50372907  1
  Fe  Fe40  1  0.33514054  0.33606592  0.66988587  1
  Fe  Fe41  1  0.50296269  0.50334088  0.83711890  1
  Ni  Ni42  1  0.50185747  0.83659734  0.50331380  1
  Fe  Fe43  1  0.33604493  0.66946314  0.66889145  1
  Ni  Ni44  1  0.50474597  0.83600392  0.83633574  1
  Cr  Cr45  1  0.83704392  0.16941932  0.50356468  1
  Fe  Fe46  1  0.66962372  1.00214770  0.67048770  1
  Fe  Fe47  1  0.83585835  0.16881613  0.83596062  1
  Fe  Fe48  1  0.83771726  0.50475268  0.50481846  1
  Fe  Fe49  1  0.67020108  0.33685766  0.67029011  1
  Fe  Fe50  1  0.83591923  0.50337295  0.83603387  1
  Fe  Fe51  1  0.83677287  0.83589229  0.50377135  1
  Fe  Fe52  1  0.67060657  0.66999287  0.66984062  1
  Fe  Fe53  1  0.83413921  0.83680648  0.83644434  1
" 