4498,Ni19Fe72Cr8_11,-230.360941902155, 177.136088827928,Ni19Fe72Cr8,"# generated using pymatgen
 data_Cr5Fe39Ni10
_symmetry_space_group_name_H-M   'P 1'
_cell_length_a   7.42952238
_cell_length_b   7.42952238
_cell_length_c   10.50693131
_cell_angle_alpha   90.00000000
_cell_angle_beta   90.00000000
_cell_angle_gamma   90.00000000
_symmetry_Int_Tables_number   1
_chemical_formula_structural   Cr5Fe39Ni10
_chemical_formula_sum   'Cr5 Fe39 Ni10'
_cell_volume   579.95952259
_cell_formula_units_Z   1
loop_
 _symmetry_equiv_pos_site_id
 _symmetry_equiv_pos_as_xyz
  1  'x, y, z'
loop_
 _atom_site_type_symbol
 _atom_site_label
 _atom_site_symmetry_multiplicity
 _atom_site_fract_x
 _atom_site_fract_y
 _atom_site_fract_z
 _atom_site_occupancy
  Fe  Fe0  1  1.00231983  1.00132810  0.00256674  1
  Ni  Ni1  1  0.16999448  0.16790051  0.16942114  1
  Ni  Ni2  1  0.00312423  1.00194467  0.33744986  1
  Cr  Cr3  1  0.00275756  0.33785800  1.00185217  1
  Fe  Fe4  1  0.16851967  0.50144083  0.17174747  1
  Fe  Fe5  1  0.00453945  0.33568674  0.33655524  1
  Fe  Fe6  1  0.99864024  0.67131688  1.00163923  1
  Fe  Fe7  1  0.16690094  0.83867564  0.17103205  1
  Fe  Fe8  1  1.00248861  0.66964204  0.33687303  1
  Fe  Fe9  1  0.33633224  0.00549400  1.00188529  1
  Fe  Fe10  1  0.50112122  0.16885457  0.16913830  1
  Fe  Fe11  1  0.33535528  1.00234890  0.33717642  1
  Fe  Fe12  1  0.33788431  0.33318539  0.00378247  1
  Fe  Fe13  1  0.50354937  0.49987914  0.16982793  1
  Fe  Fe14  1  0.33450442  0.33477623  0.33542802  1
  Cr  Cr15  1  0.33259894  0.67020862  0.00365776  1
  Fe  Fe16  1  0.50336626  0.83867365  0.17093055  1
  Fe  Fe17  1  0.33559527  0.67015381  0.33638455  1
  Ni  Ni18  1  0.66845017  0.00288455  0.00285296  1
  Cr  Cr19  1  0.83697338  0.16761825  0.17128042  1
  Fe  Fe20  1  0.66830241  1.00052535  0.33751705  1
  Ni  Ni21  1  0.66974312  0.33421935  0.00310135  1
  Fe  Fe22  1  0.83525738  0.50400626  0.17036258  1
  Fe  Fe23  1  0.66897172  0.33622179  0.33740979  1
  Fe  Fe24  1  0.67104868  0.66936843  0.00386442  1
  Fe  Fe25  1  0.83705347  0.83553230  0.16967086  1
  Fe  Fe26  1  0.66941498  0.67051869  0.33620030  1
  Fe  Fe27  1  0.17028172  0.16739402  0.50142920  1
  Fe  Fe28  1  0.00408213  1.00211124  0.66828218  1
  Fe  Fe29  1  0.17064488  0.16795113  0.83535079  1
  Fe  Fe30  1  0.16972379  0.50362063  0.50280921  1
  Fe  Fe31  1  0.00311868  0.33506036  0.66937260  1
  Fe  Fe32  1  0.16779155  0.50282379  0.83314621  1
  Fe  Fe33  1  0.16910945  0.83617747  0.50298972  1
  Ni  Ni34  1  0.00361760  0.66816994  0.66922036  1
  Fe  Fe35  1  0.16806577  0.83675261  0.83376843  1
  Fe  Fe36  1  0.50083231  0.16937392  0.50205796  1
  Ni  Ni37  1  0.33558490  1.00141267  0.66891890  1
  Fe  Fe38  1  0.50349266  0.16914384  0.83636956  1
  Fe  Fe39  1  0.50243459  0.50251576  0.50352242  1
  Fe  Fe40  1  0.33520102  0.33450131  0.66755380  1
  Cr  Cr41  1  0.50238838  0.50394036  0.83309859  1
  Ni  Ni42  1  0.50135791  0.83397889  0.50264935  1
  Ni  Ni43  1  0.33368658  0.67046487  0.66715150  1
  Fe  Fe44  1  0.50211276  0.83808226  0.83480155  1
  Fe  Fe45  1  0.83655977  0.16946337  0.50139109  1
  Cr  Cr46  1  0.66879309  0.00437194  0.66748452  1
  Ni  Ni47  1  0.83726123  0.16821064  0.83522914  1
  Fe  Fe48  1  0.83546742  0.50355219  0.50329318  1
  Ni  Ni49  1  0.67131297  0.33518567  0.66792606  1
  Fe  Fe50  1  0.83568187  0.50204900  0.83399871  1
  Fe  Fe51  1  0.83714233  0.83450627  0.50165631  1
  Fe  Fe52  1  0.66951816  0.66984514  0.66685444  1
  Fe  Fe53  1  0.83630115  0.83545036  0.83643856  1
" 