544,Ni19Fe72Cr8_12,-230.139452547044, 181.971419254278,Ni19Fe72Cr8,"# generated using pymatgen
 data_Cr5Fe39Ni10
_symmetry_space_group_name_H-M   'P 1'
_cell_length_a   7.42304149
_cell_length_b   7.42304149
_cell_length_c   10.49776595
_cell_angle_alpha   90.00000000
_cell_angle_beta   90.00000000
_cell_angle_gamma   90.00000000
_symmetry_Int_Tables_number   1
_chemical_formula_structural   Cr5Fe39Ni10
_chemical_formula_sum   'Cr5 Fe39 Ni10'
_cell_volume   578.44312211
_cell_formula_units_Z   1
loop_
 _symmetry_equiv_pos_site_id
 _symmetry_equiv_pos_as_xyz
  1  'x, y, z'
loop_
 _atom_site_type_symbol
 _atom_site_label
 _atom_site_symmetry_multiplicity
 _atom_site_fract_x
 _atom_site_fract_y
 _atom_site_fract_z
 _atom_site_occupancy
  Fe  Fe0  1  1.00174223  0.00354475  1.00245563  1
  Fe  Fe1  1  0.16934342  0.17050329  0.16934287  1
  Fe  Fe2  1  1.00262810  1.00245393  0.33641730  1
  Ni  Ni3  1  0.00376160  0.33477851  0.00389002  1
  Ni  Ni4  1  0.16952635  0.50439904  0.16873224  1
  Fe  Fe5  1  0.00303557  0.33703085  0.33527323  1
  Fe  Fe6  1  0.00341335  0.66934847  0.00435408  1
  Fe  Fe7  1  0.16940946  0.83664571  0.16949969  1
  Ni  Ni8  1  1.00292038  0.66950128  0.33691406  1
  Fe  Fe9  1  0.33694902  0.00346938  1.00252817  1
  Ni  Ni10  1  0.50453069  0.17013950  0.16935269  1
  Fe  Fe11  1  0.33638393  1.00290361  0.33673431  1
  Fe  Fe12  1  0.33606713  0.33606385  0.00436703  1
  Fe  Fe13  1  0.50355074  0.50187989  0.16895787  1
  Fe  Fe14  1  0.33514754  0.33575169  0.33537592  1
  Fe  Fe15  1  0.33534477  0.66936085  0.00371179  1
  Fe  Fe16  1  0.50324512  0.83653840  0.16934839  1
  Fe  Fe17  1  0.33426054  0.67023853  0.33516293  1
  Fe  Fe18  1  0.67020067  0.00426729  0.00357066  1
  Ni  Ni19  1  0.83507068  0.16954374  0.16936149  1
  Fe  Fe20  1  0.66988203  0.00333953  0.33616648  1
  Ni  Ni21  1  0.67014565  0.33532224  0.00521724  1
  Fe  Fe22  1  0.83626246  0.50180932  0.16883029  1
  Fe  Fe23  1  0.67070981  0.33490935  0.33470671  1
  Ni  Ni24  1  0.66916470  0.67077081  0.00602052  1
  Fe  Fe25  1  0.83623574  0.83627571  0.16982972  1
  Fe  Fe26  1  0.67115666  0.67064316  0.33564471  1
  Fe  Fe27  1  0.17051217  0.17161426  0.50143132  1
  Cr  Cr28  1  1.00257540  0.00338444  0.66964476  1
  Fe  Fe29  1  0.16927239  0.17141269  0.83811564  1
  Fe  Fe30  1  0.16816700  0.50253722  0.50207655  1
  Fe  Fe31  1  0.00350411  0.33757144  0.66932548  1
  Fe  Fe32  1  0.16936771  0.50317331  0.83699492  1
  Fe  Fe33  1  0.17014468  0.83474282  0.50149226  1
  Fe  Fe34  1  0.00386537  0.66928968  0.66832321  1
  Ni  Ni35  1  0.16904736  0.83497715  0.83822399  1
  Ni  Ni36  1  0.50436923  0.16893976  0.50316308  1
  Cr  Cr37  1  0.33791247  0.00331155  0.66916749  1
  Fe  Fe38  1  0.50357320  0.16862992  0.83725534  1
  Cr  Cr39  1  0.50289051  0.50227434  0.50308826  1
  Fe  Fe40  1  0.33524189  0.33637945  0.66915014  1
  Cr  Cr41  1  0.50206039  0.50216443  0.83664587  1
  Fe  Fe42  1  0.50419568  0.83745047  0.50250304  1
  Fe  Fe43  1  0.33452357  0.67011914  0.67001807  1
  Fe  Fe44  1  0.50400003  0.83621835  0.83704134  1
  Fe  Fe45  1  0.83469445  0.17074079  0.50165043  1
  Fe  Fe46  1  0.66931938  1.00275523  0.66915722  1
  Fe  Fe47  1  0.83605246  0.16896422  0.83829247  1
  Fe  Fe48  1  0.83740341  0.50303959  0.50339727  1
  Fe  Fe49  1  0.67014807  0.33341578  0.66889339  1
  Cr  Cr50  1  0.83712600  0.50276670  0.83630695  1
  Fe  Fe51  1  0.83455617  0.83511295  0.50214094  1
  Ni  Ni52  1  0.67026620  0.67132576  0.66787317  1
  Fe  Fe53  1  0.83518683  0.83632040  0.83692585  1
" 