859,Ni19Fe72Cr8_13,-230.008647290689, 178.935639594327,Ni19Fe72Cr8,"# generated using pymatgen
 data_Cr5Fe39Ni10
_symmetry_space_group_name_H-M   'P 1'
_cell_length_a   7.42304963
_cell_length_b   7.42304963
_cell_length_c   10.49777746
_cell_angle_alpha   90.00000000
_cell_angle_beta   90.00000000
_cell_angle_gamma   90.00000000
_symmetry_Int_Tables_number   1
_chemical_formula_structural   Cr5Fe39Ni10
_chemical_formula_sum   'Cr5 Fe39 Ni10'
_cell_volume   578.44502501
_cell_formula_units_Z   1
loop_
 _symmetry_equiv_pos_site_id
 _symmetry_equiv_pos_as_xyz
  1  'x, y, z'
loop_
 _atom_site_type_symbol
 _atom_site_label
 _atom_site_symmetry_multiplicity
 _atom_site_fract_x
 _atom_site_fract_y
 _atom_site_fract_z
 _atom_site_occupancy
  Ni  Ni0  1  0.00312009  1.00141952  0.00456367  1
  Fe  Fe1  1  0.16998738  0.16867476  0.16882000  1
  Fe  Fe2  1  0.00317732  1.00074714  0.33652404  1
  Fe  Fe3  1  1.00245496  0.33734085  0.00479529  1
  Fe  Fe4  1  0.17071640  0.50402436  0.16910153  1
  Cr  Cr5  1  0.00364059  0.33536283  0.33602758  1
  Fe  Fe6  1  1.00239809  0.66951745  1.00240730  1
  Fe  Fe7  1  0.16961092  0.83618957  0.17001048  1
  Fe  Fe8  1  0.00367910  0.67285982  0.33654700  1
  Fe  Fe9  1  0.33752477  1.00278339  0.00304114  1
  Fe  Fe10  1  0.50359945  0.16980339  0.16908042  1
  Fe  Fe11  1  0.33616391  1.00271308  0.33680618  1
  Fe  Fe12  1  0.33646991  0.33546139  0.00423469  1
  Fe  Fe13  1  0.50291923  0.50294602  0.16955100  1
  Fe  Fe14  1  0.33806789  0.33608334  0.33657990  1
  Fe  Fe15  1  0.33576826  0.67064373  0.00406805  1
  Fe  Fe16  1  0.50289770  0.83614088  0.16968485  1
  Ni  Ni17  1  0.33620029  0.66955941  0.33743025  1
  Fe  Fe18  1  0.66884367  1.00272904  0.00366524  1
  Fe  Fe19  1  0.83530490  0.16869687  0.16835419  1
  Ni  Ni20  1  0.66977020  0.00305161  0.33649664  1
  Ni  Ni21  1  0.66935508  0.33576580  0.00447893  1
  Fe  Fe22  1  0.83525441  0.50332210  0.16863921  1
  Fe  Fe23  1  0.66678125  0.33558443  0.33490721  1
  Fe  Fe24  1  0.67072643  0.67057423  0.00344013  1
  Fe  Fe25  1  0.83638293  0.83687067  0.17016618  1
  Fe  Fe26  1  0.66874552  0.67096259  0.33572352  1
  Ni  Ni27  1  0.17076736  0.16799026  0.50307675  1
  Fe  Fe28  1  0.00325934  1.00069989  0.66772306  1
  Cr  Cr29  1  0.17076095  0.16934249  0.83709200  1
  Fe  Fe30  1  0.17144119  0.50471897  0.50377512  1
  Fe  Fe31  1  0.00405086  0.33746443  0.66836888  1
  Fe  Fe32  1  0.16870165  0.50459989  0.83601959  1
  Ni  Ni33  1  0.16899267  0.83755240  0.50231204  1
  Ni  Ni34  1  0.00439491  0.67005298  0.67094162  1
  Fe  Fe35  1  0.17020007  0.83520993  0.83592711  1
  Fe  Fe36  1  0.50298411  0.16869390  0.50326301  1
  Fe  Fe37  1  0.33658399  1.00184717  0.66904764  1
  Ni  Ni38  1  0.50279970  0.16806700  0.83709605  1
  Fe  Fe39  1  0.50061405  0.50363242  0.50275593  1
  Fe  Fe40  1  0.33571101  0.33623019  0.66808162  1
  Cr  Cr41  1  0.50383412  0.50328177  0.83635924  1
  Fe  Fe42  1  0.50266500  0.83656372  0.50284777  1
  Fe  Fe43  1  0.33500765  0.67081377  0.66843341  1
  Ni  Ni44  1  0.50307271  0.83694791  0.83668742  1
  Fe  Fe45  1  0.83631678  0.16607934  0.50357053  1
  Fe  Fe46  1  0.66904955  1.00140064  0.66864647  1
  Cr  Cr47  1  0.83558088  0.17010840  0.83563772  1
  Cr  Cr48  1  0.83445514  0.50485971  0.50357180  1
  Fe  Fe49  1  0.66913191  0.33588574  0.66975028  1
  Fe  Fe50  1  0.83695176  0.50422021  0.83609674  1
  Ni  Ni51  1  0.83706491  0.83708691  0.50231129  1
  Fe  Fe52  1  0.67028687  0.67160681  0.66972742  1
  Fe  Fe53  1  0.83579487  0.83524957  0.83576955  1
" 