4562,Ni19Fe72Cr8_10,-230.062443927651, 176.31308931331,Ni19Fe72Cr8,"# generated using pymatgen
 data_Cr5Fe39Ni10
_symmetry_space_group_name_H-M   'P 1'
_cell_length_a   7.42383956
_cell_length_b   7.42383956
_cell_length_c   10.49889458
_cell_angle_alpha   90.00000000
_cell_angle_beta   90.00000000
_cell_angle_gamma   90.00000000
_symmetry_Int_Tables_number   1
_chemical_formula_structural   Cr5Fe39Ni10
_chemical_formula_sum   'Cr5 Fe39 Ni10'
_cell_volume   578.62971119
_cell_formula_units_Z   1
loop_
 _symmetry_equiv_pos_site_id
 _symmetry_equiv_pos_as_xyz
  1  'x, y, z'
loop_
 _atom_site_type_symbol
 _atom_site_label
 _atom_site_symmetry_multiplicity
 _atom_site_fract_x
 _atom_site_fract_y
 _atom_site_fract_z
 _atom_site_occupancy
  Fe  Fe0  1  1.00212594  0.00368025  1.00004424  1
  Cr  Cr1  1  0.16893050  0.16926802  0.17076250  1
  Fe  Fe2  1  0.99948090  0.00483828  0.33850645  1
  Fe  Fe3  1  1.00142660  0.33697715  1.00220277  1
  Fe  Fe4  1  0.16853005  0.50325899  0.17005291  1
  Fe  Fe5  1  1.00043779  0.33779531  0.33691199  1
  Fe  Fe6  1  1.00208879  0.66763416  1.00142513  1
  Cr  Cr7  1  0.16964121  0.83633103  0.17033938  1
  Ni  Ni8  1  1.00201462  0.66703021  0.33564606  1
  Fe  Fe9  1  0.33710007  0.00370891  1.00035080  1
  Fe  Fe10  1  0.50541913  0.17112690  0.17024808  1
  Fe  Fe11  1  0.33916293  0.00441408  0.33821175  1
  Fe  Fe12  1  0.33729663  0.33741477  1.00262217  1
  Fe  Fe13  1  0.50336742  0.50118184  0.17022647  1
  Ni  Ni14  1  0.33632424  0.33636232  0.33609662  1
  Fe  Fe15  1  0.33648835  0.66762873  1.00059274  1
  Cr  Cr16  1  0.50276176  0.83478217  0.17087044  1
  Fe  Fe17  1  0.33828380  0.66570530  0.33769785  1
  Fe  Fe18  1  0.67009459  0.00419105  1.00161889  1
  Fe  Fe19  1  0.83376328  0.17061004  0.16885546  1
  Ni  Ni20  1  0.66957128  0.00467831  0.33727819  1
  Fe  Fe21  1  0.66981119  0.33664594  1.00191625  1
  Ni  Ni22  1  0.83440279  0.50111102  0.16911816  1
  Fe  Fe23  1  0.66951137  0.33773113  0.33648516  1
  Fe  Fe24  1  0.66993816  0.66750267  1.00175403  1
  Cr  Cr25  1  0.83654411  0.83569912  0.17019598  1
  Ni  Ni26  1  0.67134134  0.66964798  0.33757777  1
  Fe  Fe27  1  0.17063577  0.17296038  0.50243619  1
  Fe  Fe28  1  1.00184740  0.00298191  0.67090173  1
  Fe  Fe29  1  0.16954958  0.17034818  0.83638203  1
  Fe  Fe30  1  0.16953348  0.50188497  0.50300707  1
  Fe  Fe31  1  1.00221104  0.33619554  0.67013337  1
  Fe  Fe32  1  0.16835783  0.50257850  0.83576483  1
  Cr  Cr33  1  0.16838354  0.83652412  0.50094055  1
  Ni  Ni34  1  1.00199962  0.66890278  0.67100718  1
  Fe  Fe35  1  0.16899717  0.83568346  0.83581048  1
  Fe  Fe36  1  0.50260012  0.17021012  0.50258478  1
  Fe  Fe37  1  0.33613397  1.00277806  0.67044601  1
  Fe  Fe38  1  0.50488615  0.17006048  0.83580537  1
  Ni  Ni39  1  0.50412894  0.50211491  0.50218087  1
  Fe  Fe40  1  0.33655189  0.33798361  0.66879286  1
  Ni  Ni41  1  0.50247612  0.50234251  0.83607794  1
  Fe  Fe42  1  0.50510554  0.83560332  0.50228633  1
  Fe  Fe43  1  0.33696299  0.66815699  0.67025859  1
  Fe  Fe44  1  0.50507696  0.83624024  0.83653212  1
  Fe  Fe45  1  0.83525142  0.16994545  0.50402757  1
  Fe  Fe46  1  0.67120707  1.00241798  0.66967356  1
  Ni  Ni47  1  0.83691812  0.16973773  0.83635835  1
  Fe  Fe48  1  0.83675699  0.50420315  0.50250887  1
  Fe  Fe49  1  0.67005763  0.33751191  0.67036666  1
  Fe  Fe50  1  0.83517942  0.50283766  0.83669621  1
  Fe  Fe51  1  0.83434015  0.83451342  0.50328917  1
  Fe  Fe52  1  0.66950246  0.66879670  0.66951793  1
  Ni  Ni53  1  0.83663454  0.83667501  0.83574990  1
" 