4818,Ni19Fe68Cr11_2,-229.387989029537, 178.032637041322,Ni19Fe68Cr11,"# generated using pymatgen
 data_Cr7Fe37Ni10
_symmetry_space_group_name_H-M   'P 1'
_cell_length_a   7.43116950
_cell_length_b   7.43116950
_cell_length_c   10.50926070
_cell_angle_alpha   90.00000000
_cell_angle_beta   90.00000000
_cell_angle_gamma   90.00000000
_symmetry_Int_Tables_number   1
_chemical_formula_structural   Cr7Fe37Ni10
_chemical_formula_sum   'Cr7 Fe37 Ni10'
_cell_volume   580.34533891
_cell_formula_units_Z   1
loop_
 _symmetry_equiv_pos_site_id
 _symmetry_equiv_pos_as_xyz
  1  'x, y, z'
loop_
 _atom_site_type_symbol
 _atom_site_label
 _atom_site_symmetry_multiplicity
 _atom_site_fract_x
 _atom_site_fract_y
 _atom_site_fract_z
 _atom_site_occupancy
  Cr  Cr0  1  1.00138750  0.00334032  1.00183850  1
  Ni  Ni1  1  0.16865284  0.17069660  0.17076143  1
  Fe  Fe2  1  0.00291544  0.00514483  0.33564554  1
  Fe  Fe3  1  1.00163542  0.33728575  0.00360794  1
  Fe  Fe4  1  0.16928006  0.49891123  0.16915491  1
  Ni  Ni5  1  0.00364634  0.33421103  0.33348512  1
  Fe  Fe6  1  1.00126894  0.66709861  1.00182246  1
  Cr  Cr7  1  0.17089623  0.83543401  0.16976340  1
  Cr  Cr8  1  1.00031351  0.66856758  0.33456269  1
  Fe  Fe9  1  0.33729842  1.00161466  1.00204201  1
  Fe  Fe10  1  0.50241883  0.17005444  0.16919317  1
  Fe  Fe11  1  0.33552371  0.00403470  0.33627523  1
  Fe  Fe12  1  0.33539346  0.33668573  0.00397913  1
  Ni  Ni13  1  0.50331975  0.50267939  0.16943105  1
  Ni  Ni14  1  0.33609105  0.33453578  0.33475789  1
  Fe  Fe15  1  0.33700318  0.66893821  1.00135340  1
  Fe  Fe16  1  0.50454886  0.83549963  0.16836382  1
  Fe  Fe17  1  0.33819126  0.66795514  0.33567382  1
  Fe  Fe18  1  0.66836878  1.00124830  0.00286702  1
  Ni  Ni19  1  0.83539604  0.17093935  0.16961390  1
  Fe  Fe20  1  0.66880505  0.00269652  0.33514513  1
  Fe  Fe21  1  0.67021344  0.33698623  0.00366385  1
  Ni  Ni22  1  0.83421048  0.50033827  0.16932152  1
  Fe  Fe23  1  0.66882983  0.33682901  0.33452156  1
  Ni  Ni24  1  0.66827524  0.66932565  1.00228320  1
  Fe  Fe25  1  0.83279844  0.83553488  0.16890951  1
  Fe  Fe26  1  0.66771048  0.66771673  0.33491188  1
  Fe  Fe27  1  0.17022262  0.16801161  0.50172085  1
  Ni  Ni28  1  0.00461461  1.00160739  0.66904037  1
  Fe  Fe29  1  0.16867050  0.16854939  0.83520386  1
  Cr  Cr30  1  0.16940011  0.50234184  0.50173703  1
  Fe  Fe31  1  1.00212807  0.33507118  0.66997131  1
  Fe  Fe32  1  0.16974518  0.50318497  0.83544943  1
  Fe  Fe33  1  0.16927313  0.83811353  0.50371658  1
  Fe  Fe34  1  1.00184353  0.67065354  0.66974442  1
  Ni  Ni35  1  0.17017884  0.83462772  0.83339348  1
  Fe  Fe36  1  0.50001807  0.17015885  0.50180564  1
  Fe  Fe37  1  0.33325048  1.00124685  0.66893051  1
  Cr  Cr38  1  0.50313891  0.16871192  0.83692070  1
  Fe  Fe39  1  0.50364263  0.50199297  0.50179759  1
  Fe  Fe40  1  0.33552937  0.33509141  0.66854890  1
  Fe  Fe41  1  0.50214655  0.50490089  0.83634287  1
  Fe  Fe42  1  0.50183983  0.83508560  0.50218183  1
  Fe  Fe43  1  0.33608189  0.67090074  0.67021220  1
  Ni  Ni44  1  0.50063500  0.83393535  0.83684987  1
  Cr  Cr45  1  0.83663282  0.17048334  0.50148422  1
  Cr  Cr46  1  0.66970775  1.00043940  0.67080848  1
  Fe  Fe47  1  0.83731247  0.16920861  0.83562062  1
  Fe  Fe48  1  0.83397837  0.50294295  0.50251886  1
  Fe  Fe49  1  0.66958780  0.33790499  0.66905885  1
  Fe  Fe50  1  0.83534914  0.50341333  0.83634335  1
  Fe  Fe51  1  0.83612819  0.83449032  0.50268580  1
  Fe  Fe52  1  0.66931579  0.66836674  0.66967376  1
  Fe  Fe53  1  0.83559329  0.83461952  0.83564708  1
" 