3165,Ni19Cr81_10,-232.406648515892, 158.283387823572,Ni19Cr81,"# generated using pymatgen
 data_Cr5Ni22
_symmetry_space_group_name_H-M   'P 1'
_cell_length_a   7.47600002
_cell_length_b   7.47600002
_cell_length_c   10.57266062
_cell_angle_alpha   90.00000000
_cell_angle_beta   90.00000000
_cell_angle_gamma   90.00000000
_symmetry_Int_Tables_number   1
_chemical_formula_structural   Cr5Ni22
_chemical_formula_sum   'Cr10 Ni44'
_cell_volume   590.91209427
_cell_formula_units_Z   2
loop_
 _symmetry_equiv_pos_site_id
 _symmetry_equiv_pos_as_xyz
  1  'x, y, z'
loop_
 _atom_site_type_symbol
 _atom_site_label
 _atom_site_symmetry_multiplicity
 _atom_site_fract_x
 _atom_site_fract_y
 _atom_site_fract_z
 _atom_site_occupancy
  Ni  Ni0  1  0.99754525  0.99923111  0.00133744  1
  Ni  Ni1  1  0.16708179  0.16690343  0.16550815  1
  Cr  Cr2  1  0.99898417  0.99898737  0.33043310  1
  Ni  Ni3  1  -0.00043159  0.33257664  -0.00055027  1
  Ni  Ni4  1  0.16650260  0.49806364  0.16550162  1
  Ni  Ni5  1  0.00096369  0.33428185  0.33318376  1
  Ni  Ni6  1  -0.00020198  0.66641177  -0.00015823  1
  Ni  Ni7  1  0.16443201  0.83322575  0.16478154  1
  Ni  Ni8  1  -0.00023088  0.66467237  0.33277150  1
  Ni  Ni9  1  0.33342716  0.00021230  0.00049165  1
  Ni  Ni10  1  0.49787067  0.16650132  0.16567711  1
  Ni  Ni11  1  0.33429081  0.00093074  0.33317746  1
  Ni  Ni12  1  0.33374578  0.33393793  0.00105642  1
  Ni  Ni13  1  0.49764543  0.49769024  0.16443094  1
  Ni  Ni14  1  0.33217869  0.33220760  0.33134740  1
  Ni  Ni15  1  0.33249986  0.66404429  0.99909719  1
  Cr  Cr16  1  0.50094824  0.83323814  0.16565154  1
  Cr  Cr17  1  0.33168280  0.66505247  0.33397948  1
  Ni  Ni18  1  0.66724806  0.00043870  0.99882553  1
  Ni  Ni19  1  0.83324040  0.16440142  0.16458419  1
  Ni  Ni20  1  0.66467548  -0.00025531  0.33277128  1
  Ni  Ni21  1  0.66487294  0.33167081  0.99830935  1
  Cr  Cr22  1  0.83299650  0.50087074  0.16608719  1
  Cr  Cr23  1  0.66503939  0.33166484  0.33399562  1
  Ni  Ni24  1  0.66589696  0.66607803  0.99797246  1
  Ni  Ni25  1  0.83363224  0.83343710  0.16529208  1
  Ni  Ni26  1  0.66674197  0.66678511  0.33360867  1
  Cr  Cr27  1  0.16622211  0.16604906  0.49966182  1
  Ni  Ni28  1  0.99748545  0.99918806  0.66612999  1
  Cr  Cr29  1  0.16546988  0.16674228  0.83334652  1
  Ni  Ni30  1  0.16417807  0.50077155  0.49915460  1
  Ni  Ni31  1  0.99586327  0.33430335  0.66560007  1
  Ni  Ni32  1  0.16500362  0.50009673  0.83355827  1
  Ni  Ni33  1  0.16809235  0.83118686  0.50106617  1
  Ni  Ni34  1  -0.00018417  0.66472327  0.66558940  1
  Cr  Cr35  1  0.16651394  0.83194280  0.83207864  1
  Ni  Ni36  1  0.50057314  0.16416103  0.49897524  1
  Ni  Ni37  1  0.33517190  0.99650693  0.66453854  1
  Ni  Ni38  1  0.50190606  0.16514532  0.83356156  1
  Ni  Ni39  1  0.50039667  0.50042435  0.49987243  1
  Cr  Cr40  1  0.33475087  0.33491127  0.66609948  1
  Ni  Ni41  1  0.50072040  0.50043295  0.83391509  1
  Ni  Ni42  1  0.49851301  0.83362226  0.50037976  1
  Ni  Ni43  1  0.33318837  0.66709972  0.66510274  1
  Ni  Ni44  1  0.50125835  0.83261201  0.83214500  1
  Ni  Ni45  1  0.83120337  0.16807919  0.50125691  1
  Ni  Ni46  1  0.66555429  0.00045058  0.66660695  1
  Ni  Ni47  1  0.83107108  0.16638747  0.83234573  1
  Ni  Ni48  1  0.83363754  0.49871503  0.50019442  1
  Ni  Ni49  1  0.66794201  0.33235054  0.66590210  1
  Ni  Ni50  1  0.83246766  0.49942266  0.83214634  1
  Cr  Cr51  1  0.83145361  0.83128363  0.49937023  1
  Ni  Ni52  1  0.66520649  0.66540538  0.66660110  1
  Ni  Ni53  1  0.83073010  0.83239321  0.83330458  1
" 