6983,Ni19Fe68Cr11_13,-229.436980735387, 178.089502500111,Ni19Fe68Cr11,"# generated using pymatgen
 data_Cr7Fe37Ni10
_symmetry_space_group_name_H-M   'P 1'
_cell_length_a   7.43405323
_cell_length_b   7.43405323
_cell_length_c   10.51333891
_cell_angle_alpha   90.00000000
_cell_angle_beta   90.00000000
_cell_angle_gamma   90.00000000
_symmetry_Int_Tables_number   1
_chemical_formula_structural   Cr7Fe37Ni10
_chemical_formula_sum   'Cr7 Fe37 Ni10'
_cell_volume   581.02122548
_cell_formula_units_Z   1
loop_
 _symmetry_equiv_pos_site_id
 _symmetry_equiv_pos_as_xyz
  1  'x, y, z'
loop_
 _atom_site_type_symbol
 _atom_site_label
 _atom_site_symmetry_multiplicity
 _atom_site_fract_x
 _atom_site_fract_y
 _atom_site_fract_z
 _atom_site_occupancy
  Fe  Fe0  1  1.00115928  0.00332918  0.00258503  1
  Ni  Ni1  1  0.16811498  0.17057884  0.16734860  1
  Cr  Cr2  1  1.00103053  1.00203280  0.33402805  1
  Fe  Fe3  1  0.00223808  0.33464712  0.00347190  1
  Ni  Ni4  1  0.16836959  0.50205466  0.16891876  1
  Ni  Ni5  1  1.00102809  0.33855773  0.33315426  1
  Fe  Fe6  1  1.00187833  0.66868377  0.00305940  1
  Fe  Fe7  1  0.16916904  0.83383354  0.16909858  1
  Fe  Fe8  1  0.00240686  0.66682633  0.33561827  1
  Cr  Cr9  1  0.33479718  0.00225317  0.00289014  1
  Fe  Fe10  1  0.50292978  0.16955885  0.16857341  1
  Fe  Fe11  1  0.33740844  1.00031388  0.33450005  1
  Ni  Ni12  1  0.33640791  0.33695218  1.00213075  1
  Fe  Fe13  1  0.50150113  0.50223263  0.16770710  1
  Cr  Cr14  1  0.33489514  0.33747369  0.33526815  1
  Fe  Fe15  1  0.33653345  0.66692269  0.00343439  1
  Fe  Fe16  1  0.50192133  0.83487435  0.17024834  1
  Ni  Ni17  1  0.33543280  0.66982318  0.33459988  1
  Fe  Fe18  1  0.66980770  0.00317257  1.00218746  1
  Fe  Fe19  1  0.83559061  0.17021810  0.16864401  1
  Ni  Ni20  1  0.66745216  1.00101193  0.33410085  1
  Ni  Ni21  1  0.66882068  0.33611445  1.00208194  1
  Fe  Fe22  1  0.83663731  0.50118462  0.16934254  1
  Fe  Fe23  1  0.67004228  0.33632635  0.33469986  1
  Fe  Fe24  1  0.66824671  0.66799411  1.00205952  1
  Fe  Fe25  1  0.83555849  0.83526016  0.16831583  1
  Fe  Fe26  1  0.66911032  0.66870750  0.33590916  1
  Cr  Cr27  1  0.17019434  0.16918429  0.50430654  1
  Fe  Fe28  1  1.00203715  1.00108071  0.67031618  1
  Fe  Fe29  1  0.16819556  0.16863884  0.83505598  1
  Fe  Fe30  1  0.16650433  0.50324526  0.50170454  1
  Ni  Ni31  1  1.00136841  0.33616203  0.66975707  1
  Cr  Cr32  1  0.16873404  0.50056395  0.83654358  1
  Fe  Fe33  1  0.16860510  0.83345465  0.50207204  1
  Fe  Fe34  1  0.99934053  0.66937364  0.66798695  1
  Fe  Fe35  1  0.16749435  0.83689877  0.83547822  1
  Fe  Fe36  1  0.50402372  0.16801832  0.50302741  1
  Fe  Fe37  1  0.33619785  0.00342622  0.66980424  1
  Fe  Fe38  1  0.50301446  0.16997433  0.83505697  1
  Fe  Fe39  1  0.50378839  0.50221280  0.50204037  1
  Fe  Fe40  1  0.33693704  0.33353744  0.66931337  1
  Fe  Fe41  1  0.50422574  0.50107156  0.83690238  1
  Fe  Fe42  1  0.50363755  0.83642779  0.50122027  1
  Cr  Cr43  1  0.33595573  0.66892541  0.66856097  1
  Fe  Fe44  1  0.50367415  0.83561842  0.83518961  1
  Cr  Cr45  1  0.83385044  0.17025377  0.50206498  1
  Ni  Ni46  1  0.66871495  1.00153084  0.67019935  1
  Fe  Fe47  1  0.83544632  0.16920118  0.83505356  1
  Ni  Ni48  1  0.83551911  0.50404301  0.50235927  1
  Fe  Fe49  1  0.66874129  0.33624520  0.66984602  1
  Fe  Fe50  1  0.83415909  0.50176271  0.83497308  1
  Fe  Fe51  1  0.83440593  0.83371057  0.50299700  1
  Fe  Fe52  1  0.67109304  0.66863760  0.66868966  1
  Fe  Fe53  1  0.83548662  0.83569574  0.83533760  1
" 