6278,Ni19Cr81_1,-232.135942761142, 151.637845538544,Ni19Cr81,"# generated using pymatgen
 data_Cr5Ni22
_symmetry_space_group_name_H-M   'P 1'
_cell_length_a   7.47911237
_cell_length_b   7.47911237
_cell_length_c   10.57706215
_cell_angle_alpha   90.00000000
_cell_angle_beta   90.00000000
_cell_angle_gamma   90.00000000
_symmetry_Int_Tables_number   1
_chemical_formula_structural   Cr5Ni22
_chemical_formula_sum   'Cr10 Ni44'
_cell_volume   591.65041446
_cell_formula_units_Z   2
loop_
 _symmetry_equiv_pos_site_id
 _symmetry_equiv_pos_as_xyz
  1  'x, y, z'
loop_
 _atom_site_type_symbol
 _atom_site_label
 _atom_site_symmetry_multiplicity
 _atom_site_fract_x
 _atom_site_fract_y
 _atom_site_fract_z
 _atom_site_occupancy
  Ni  Ni0  1  0.00005296  -0.00000097  0.00162028  1
  Ni  Ni1  1  0.16509713  0.16639146  0.16473389  1
  Ni  Ni2  1  0.99823957  0.99859735  0.33193340  1
  Ni  Ni3  1  -0.00028766  0.33315153  -0.00061711  1
  Ni  Ni4  1  0.16543433  0.49853301  0.16685713  1
  Ni  Ni5  1  -0.00028589  0.33356043  0.33233673  1
  Ni  Ni6  1  0.99717139  0.66442920  0.00038618  1
  Ni  Ni7  1  0.16420236  0.83265645  0.16566336  1
  Ni  Ni8  1  0.99898774  0.66542333  0.33282559  1
  Ni  Ni9  1  0.33259186  0.00270688  0.00017964  1
  Ni  Ni10  1  0.50025319  0.16655917  0.16452832  1
  Cr  Cr11  1  0.33174635  0.99818535  0.33174783  1
  Ni  Ni12  1  0.33275991  0.33027401  0.99849035  1
  Ni  Ni13  1  0.49991650  0.49836485  0.16665129  1
  Ni  Ni14  1  0.33109501  0.33430895  0.33109848  1
  Cr  Cr15  1  0.33234422  0.66484709  0.00103399  1
  Ni  Ni16  1  0.50097987  0.83265640  0.16600274  1
  Ni  Ni17  1  0.33199513  0.66484414  0.33213837  1
  Ni  Ni18  1  0.66493540  0.00016556  0.00144894  1
  Ni  Ni19  1  0.83222960  0.16532913  0.16602984  1
  Ni  Ni20  1  0.66734629  0.99769810  0.33127010  1
  Ni  Ni21  1  0.66510817  0.33315117  -0.00024183  1
  Ni  Ni22  1  0.83222953  0.49925834  0.16556006  1
  Ni  Ni23  1  0.66677049  0.33356468  0.32982840  1
  Ni  Ni24  1  0.66781545  0.66426243  0.00021482  1
  Ni  Ni25  1  0.83239791  0.83299327  0.16566173  1
  Ni  Ni26  1  0.66659756  0.66631743  0.33216730  1
  Ni  Ni27  1  0.16465428  0.16641921  0.50085428  1
  Ni  Ni28  1  0.00129109  0.99899106  0.66402967  1
  Ni  Ni29  1  0.16794429  0.16822695  0.83199185  1
  Ni  Ni30  1  0.16424398  0.49953791  0.49962362  1
  Ni  Ni31  1  0.00277412  0.33418491  0.66585973  1
  Ni  Ni32  1  0.16540567  0.49607414  0.83109967  1
  Ni  Ni33  1  0.16482844  0.83162363  0.50041309  1
  Ni  Ni34  1  0.99916318  0.66440474  0.66437194  1
  Cr  Cr35  1  0.16482888  0.83319211  0.83224811  1
  Cr  Cr36  1  0.49812682  0.16469774  0.49929048  1
  Ni  Ni37  1  0.33178801  -0.00011720  0.66540658  1
  Ni  Ni38  1  0.49657594  0.16733030  0.83326379  1
  Cr  Cr39  1  0.49797120  0.50134536  0.49781973  1
  Ni  Ni40  1  0.32907377  0.33206219  0.66798798  1
  Ni  Ni41  1  0.49911282  0.49696990  0.83237067  1
  Ni  Ni42  1  0.50017913  0.83161819  0.50064903  1
  Ni  Ni43  1  0.33179140  0.66563489  0.66465326  1
  Cr  Cr44  1  0.50009110  0.83319149  0.83118622  1
  Cr  Cr45  1  0.83463087  0.16495291  0.49802123  1
  Ni  Ni46  1  0.66450098  0.99627116  0.66486071  1
  Cr  Cr47  1  0.83331030  0.16609429  0.83328368  1
  Ni  Ni48  1  0.83528495  0.50208397  0.49896182  1
  Cr  Cr49  1  0.66622899  0.33418462  0.66797775  1
  Ni  Ni50  1  0.83306227  0.49967752  0.83305828  1
  Ni  Ni51  1  0.83257329  0.83120887  0.49975779  1
  Ni  Ni52  1  0.66662604  0.66711968  0.66519776  1
  Cr  Cr53  1  0.83265938  0.83123628  0.83265700  1
" 