8538,Ni19Fe72Cr8_17,-229.866276328866, 180.471268751205,Ni19Fe72Cr8,"# generated using pymatgen
 data_Cr5Fe39Ni10
_symmetry_space_group_name_H-M   'P 1'
_cell_length_a   7.41893609
_cell_length_b   7.41893609
_cell_length_c   10.49196004
_cell_angle_alpha   90.00000000
_cell_angle_beta   90.00000000
_cell_angle_gamma   90.00000000
_symmetry_Int_Tables_number   1
_chemical_formula_structural   Cr5Fe39Ni10
_chemical_formula_sum   'Cr5 Fe39 Ni10'
_cell_volume   577.48390890
_cell_formula_units_Z   1
loop_
 _symmetry_equiv_pos_site_id
 _symmetry_equiv_pos_as_xyz
  1  'x, y, z'
loop_
 _atom_site_type_symbol
 _atom_site_label
 _atom_site_symmetry_multiplicity
 _atom_site_fract_x
 _atom_site_fract_y
 _atom_site_fract_z
 _atom_site_occupancy
  Ni  Ni0  1  0.00501483  1.00275143  0.00349392  1
  Fe  Fe1  1  0.16968153  0.16855260  0.16959486  1
  Fe  Fe2  1  1.00263871  0.00345510  0.33625607  1
  Fe  Fe3  1  0.00431096  0.33559595  1.00216790  1
  Cr  Cr4  1  0.16893081  0.50259658  0.17013027  1
  Fe  Fe5  1  1.00135492  0.33582059  0.33800669  1
  Fe  Fe6  1  0.00335955  0.66953472  0.00346439  1
  Fe  Fe7  1  0.16933657  0.83820926  0.16985244  1
  Fe  Fe8  1  1.00176505  0.67045434  0.33705364  1
  Fe  Fe9  1  0.33565009  0.00496714  0.00436166  1
  Fe  Fe10  1  0.50237054  0.17012744  0.17056377  1
  Ni  Ni11  1  0.33447616  1.00208638  0.33534061  1
  Ni  Ni12  1  0.33658872  0.33613269  1.00208868  1
  Fe  Fe13  1  0.50484583  0.50384554  0.17095273  1
  Fe  Fe14  1  0.33768677  0.33656926  0.33597899  1
  Fe  Fe15  1  0.33614408  0.66973318  1.00308394  1
  Fe  Fe16  1  0.50359805  0.83575797  0.17031399  1
  Fe  Fe17  1  0.33840332  0.67082905  0.33753000  1
  Fe  Fe18  1  0.66966104  0.00401435  0.00380795  1
  Fe  Fe19  1  0.83767523  0.16980906  0.17120282  1
  Fe  Fe20  1  0.67030633  1.00273474  0.33664831  1
  Cr  Cr21  1  0.66926311  0.33757497  1.00197474  1
  Ni  Ni22  1  0.83670107  0.50455815  0.17074705  1
  Ni  Ni23  1  0.67115062  0.33913603  0.33631186  1
  Fe  Fe24  1  0.67022342  0.66963300  0.00567539  1
  Fe  Fe25  1  0.83679028  0.83573429  0.16944574  1
  Ni  Ni26  1  0.66992732  0.66822529  0.33650028  1
  Fe  Fe27  1  0.16777186  0.16994356  0.50314475  1
  Fe  Fe28  1  1.00322221  0.00472496  0.66937079  1
  Fe  Fe29  1  0.17024631  0.16986516  0.83698524  1
  Fe  Fe30  1  0.16936208  0.50226830  0.50355309  1
  Ni  Ni31  1  1.00289173  0.33645501  0.67082335  1
  Fe  Fe32  1  0.17054060  0.50262665  0.83667628  1
  Fe  Fe33  1  0.16992967  0.83751435  0.50295162  1
  Fe  Fe34  1  0.00366471  0.66907911  0.66921055  1
  Fe  Fe35  1  0.17016426  0.83723481  0.83692056  1
  Cr  Cr36  1  0.50433975  0.16928709  0.50340249  1
  Fe  Fe37  1  0.33529843  0.00384132  0.66960485  1
  Ni  Ni38  1  0.50182520  0.17047150  0.83582227  1
  Fe  Fe39  1  0.50415380  0.50446588  0.50267168  1
  Fe  Fe40  1  0.33602867  0.33674027  0.67170417  1
  Fe  Fe41  1  0.50224934  0.50196130  0.83609543  1
  Fe  Fe42  1  0.50395965  0.83568969  0.50321992  1
  Fe  Fe43  1  0.33567854  0.66914791  0.66911421  1
  Cr  Cr44  1  0.50281872  0.83872599  0.83655094  1
  Ni  Ni45  1  0.83758360  0.16964873  0.50357527  1
  Ni  Ni46  1  0.67051412  0.00390156  0.66905447  1
  Fe  Fe47  1  0.83688110  0.17010877  0.83486880  1
  Fe  Fe48  1  0.83621512  0.50230275  0.50242147  1
  Fe  Fe49  1  0.67127167  0.33629695  0.67045443  1
  Fe  Fe50  1  0.83693667  0.50203865  0.83606623  1
  Fe  Fe51  1  0.83583448  0.83728285  0.50360659  1
  Fe  Fe52  1  0.67038501  0.66835518  0.66788842  1
  Cr  Cr53  1  0.83747177  0.83667660  0.83678744  1
" 