4159,Ni19Cr81_13,-232.423858169162, 156.780517651527,Ni19Cr81,"# generated using pymatgen
 data_Cr5Ni22
_symmetry_space_group_name_H-M   'P 1'
_cell_length_a   7.47487280
_cell_length_b   7.47487280
_cell_length_c   10.57106648
_cell_angle_alpha   90.00000000
_cell_angle_beta   90.00000000
_cell_angle_gamma   90.00000000
_symmetry_Int_Tables_number   1
_chemical_formula_structural   Cr5Ni22
_chemical_formula_sum   'Cr10 Ni44'
_cell_volume   590.64484382
_cell_formula_units_Z   2
loop_
 _symmetry_equiv_pos_site_id
 _symmetry_equiv_pos_as_xyz
  1  'x, y, z'
loop_
 _atom_site_type_symbol
 _atom_site_label
 _atom_site_symmetry_multiplicity
 _atom_site_fract_x
 _atom_site_fract_y
 _atom_site_fract_z
 _atom_site_occupancy
  Ni  Ni0  1  0.00204581  0.99756787  0.99729548  1
  Ni  Ni1  1  0.16918323  0.16505534  0.16710327  1
  Ni  Ni2  1  0.00349337  0.99944815  0.33484836  1
  Cr  Cr3  1  0.00229178  0.33470306  0.99847525  1
  Ni  Ni4  1  0.16561171  0.50044637  0.16714330  1
  Ni  Ni5  1  0.00184270  0.33319640  0.33259724  1
  Ni  Ni6  1  0.00277458  0.66715634  0.99868044  1
  Ni  Ni7  1  0.16813497  0.83293736  0.16572173  1
  Ni  Ni8  1  0.00172144  0.66577472  0.33208791  1
  Ni  Ni9  1  0.33174963  0.00038812  0.00134104  1
  Ni  Ni10  1  0.49536228  0.16448959  0.16569537  1
  Ni  Ni11  1  0.33092571  0.99942240  0.33235605  1
  Ni  Ni12  1  0.33160563  0.33154665  0.99846657  1
  Cr  Cr13  1  0.49747562  0.49940196  0.16828897  1
  Ni  Ni14  1  0.33040415  0.33081372  0.33241998  1
  Ni  Ni15  1  0.32859784  0.66646406  -0.00029626  1
  Ni  Ni16  1  0.49535150  0.83448167  0.16637578  1
  Ni  Ni17  1  0.33048539  0.66819596  0.33267561  1
  Ni  Ni18  1  0.66463757  0.00031540  0.99836593  1
  Cr  Cr19  1  0.83478048  0.16654825  0.16728464  1
  Cr  Cr20  1  0.66312561  0.99899401  0.33500328  1
  Cr  Cr21  1  0.66473559  0.33117696  0.99764046  1
  Ni  Ni22  1  0.83577252  0.50060236  0.16954739  1
  Ni  Ni23  1  0.66626478  0.33253286  0.33236227  1
  Cr  Cr24  1  0.66749437  0.66650052  0.99887681  1
  Cr  Cr25  1  0.83552500  0.83190735  0.16529918  1
  Ni  Ni26  1  0.66626008  0.66638979  0.33259387  1
  Ni  Ni27  1  0.16600295  0.16576294  0.49904402  1
  Ni  Ni28  1  -0.00050080  0.99943488  0.66616240  1
  Ni  Ni29  1  0.16694239  0.16515968  0.83222452  1
  Ni  Ni30  1  0.16631354  0.49942115  0.49929301  1
  Ni  Ni31  1  0.00055613  0.33199994  0.66689202  1
  Ni  Ni32  1  0.16734609  0.50036949  0.83193853  1
  Ni  Ni33  1  0.16610000  0.83324657  0.49929807  1
  Ni  Ni34  1  0.00056694  0.66695736  0.66757278  1
  Ni  Ni35  1  0.16384366  0.83287017  0.83343752  1
  Ni  Ni36  1  0.49826314  0.16530693  0.50028475  1
  Ni  Ni37  1  0.33199568  0.00048294  0.66468816  1
  Ni  Ni38  1  0.49843129  0.16736290  0.83245525  1
  Cr  Cr39  1  0.49725196  0.49947402  0.50028044  1
  Ni  Ni40  1  0.33162202  0.33169889  0.66768245  1
  Ni  Ni41  1  0.49728679  0.49745518  0.83074489  1
  Ni  Ni42  1  0.49821195  0.83358571  0.49987952  1
  Ni  Ni43  1  0.33055113  0.66622997  0.66616042  1
  Cr  Cr44  1  0.49753486  0.83367577  0.83224375  1
  Ni  Ni45  1  0.83416586  0.16494808  0.50046135  1
  Ni  Ni46  1  0.66695160  0.00048858  0.66542284  1
  Ni  Ni47  1  0.83302651  0.16401428  0.83078751  1
  Cr  Cr48  1  0.83441819  0.49901694  0.49812079  1
  Ni  Ni49  1  0.66623169  0.33060409  0.66844717  1
  Ni  Ni50  1  0.83386114  0.50044082  0.83023788  1
  Ni  Ni51  1  0.83411930  0.83393398  0.50072301  1
  Ni  Ni52  1  0.66722705  0.66733949  0.66695242  1
  Ni  Ni53  1  0.83576022  0.83399666  0.83204922  1
" 