5401,Ni19Fe68Cr11_7,-228.879118954044, 178.152012505577,Ni19Fe68Cr11,"# generated using pymatgen
 data_Cr7Fe37Ni10
_symmetry_space_group_name_H-M   'P 1'
_cell_length_a   7.42927748
_cell_length_b   7.42927748
_cell_length_c   10.50658497
_cell_angle_alpha   90.00000000
_cell_angle_beta   90.00000000
_cell_angle_gamma   90.00000000
_symmetry_Int_Tables_number   1
_chemical_formula_structural   Cr7Fe37Ni10
_chemical_formula_sum   'Cr7 Fe37 Ni10'
_cell_volume   579.90217200
_cell_formula_units_Z   1
loop_
 _symmetry_equiv_pos_site_id
 _symmetry_equiv_pos_as_xyz
  1  'x, y, z'
loop_
 _atom_site_type_symbol
 _atom_site_label
 _atom_site_symmetry_multiplicity
 _atom_site_fract_x
 _atom_site_fract_y
 _atom_site_fract_z
 _atom_site_occupancy
  Ni  Ni0  1  0.00557910  1.00232123  0.00557361  1
  Fe  Fe1  1  0.16816653  0.16716103  0.16927302  1
  Ni  Ni2  1  0.00387846  1.00171512  0.33415197  1
  Fe  Fe3  1  0.00276129  0.33516990  1.00222247  1
  Cr  Cr4  1  0.16977645  0.50164298  0.16995445  1
  Fe  Fe5  1  1.00096350  0.33520002  0.33597337  1
  Fe  Fe6  1  0.00284311  0.66941814  1.00228293  1
  Fe  Fe7  1  0.16811019  0.83788093  0.16898070  1
  Fe  Fe8  1  1.00171102  0.67054046  0.33653497  1
  Ni  Ni9  1  0.33282237  1.00232394  1.00167501  1
  Cr  Cr10  1  0.50188423  0.17062315  0.16888567  1
  Fe  Fe11  1  0.33348083  1.00155871  0.33690406  1
  Fe  Fe12  1  0.33590703  0.33543148  1.00115153  1
  Ni  Ni13  1  0.50384739  0.50268876  0.16958900  1
  Fe  Fe14  1  0.33645143  0.33628791  0.33632760  1
  Fe  Fe15  1  0.33582421  0.66915601  1.00120950  1
  Cr  Cr16  1  0.50274981  0.83405692  0.16748486  1
  Fe  Fe17  1  0.33602804  0.66977620  0.33726490  1
  Fe  Fe18  1  0.66921914  0.00312379  0.00278669  1
  Fe  Fe19  1  0.83784241  0.17021020  0.16808964  1
  Cr  Cr20  1  0.67096023  0.00280103  0.33772822  1
  Ni  Ni21  1  0.66887772  0.33929213  0.00343613  1
  Fe  Fe22  1  0.83308122  0.50229093  0.16898819  1
  Fe  Fe23  1  0.67021071  0.33775719  0.33571050  1
  Fe  Fe24  1  0.66896057  0.66803938  1.00240525  1
  Fe  Fe25  1  0.83819336  0.83512862  0.16832177  1
  Fe  Fe26  1  0.66988859  0.66756472  0.33710907  1
  Cr  Cr27  1  0.16853517  0.16967342  0.50225686  1
  Ni  Ni28  1  0.00447768  1.00193464  0.66789572  1
  Fe  Fe29  1  0.17047875  0.16846835  0.83566441  1
  Fe  Fe30  1  0.16969952  0.50440963  0.50277720  1
  Fe  Fe31  1  0.00284156  0.33718432  0.66942641  1
  Ni  Ni32  1  0.16981308  0.50196559  0.83486866  1
  Fe  Fe33  1  0.16947485  0.83533247  0.50262823  1
  Fe  Fe34  1  0.00349485  0.66905134  0.66880765  1
  Fe  Fe35  1  0.17041474  0.83663708  0.83601772  1
  Fe  Fe36  1  0.50295157  0.16919507  0.50333570  1
  Ni  Ni37  1  0.33555526  1.00189395  0.66956415  1
  Fe  Fe38  1  0.50046150  0.16933964  0.83638570  1
  Fe  Fe39  1  0.50272202  0.50311840  0.50208708  1
  Fe  Fe40  1  0.33621554  0.33636629  0.67014924  1
  Fe  Fe41  1  0.50302898  0.50248710  0.83649935  1
  Ni  Ni42  1  0.50292235  0.83512708  0.50381914  1
  Fe  Fe43  1  0.33587754  0.67018317  0.66915007  1
  Fe  Fe44  1  0.50048730  0.83579984  0.83521886  1
  Fe  Fe45  1  0.83522626  0.16896795  0.50334831  1
  Fe  Fe46  1  0.66743947  1.00172570  0.66716505  1
  Cr  Cr47  1  0.83590942  0.16896161  0.83513059  1
  Fe  Fe48  1  0.83520448  0.50309401  0.50280325  1
  Fe  Fe49  1  0.66856856  0.33601737  0.66895361  1
  Fe  Fe50  1  0.83584676  0.50254647  0.83583549  1
  Fe  Fe51  1  0.83651440  0.83556064  0.50366760  1
  Ni  Ni52  1  0.66842656  0.66710545  0.66819485  1
  Cr  Cr53  1  0.83465975  0.83595942  0.83560085  1
" 