4601,Ni19Fe68Cr11_14,-229.191851691912, 181.312641835783,Ni19Fe68Cr11,"# generated using pymatgen
 data_Cr7Fe37Ni10
_symmetry_space_group_name_H-M   'P 1'
_cell_length_a   7.43252629
_cell_length_b   7.43252629
_cell_length_c   10.51117948
_cell_angle_alpha   90.00000000
_cell_angle_beta   90.00000000
_cell_angle_gamma   90.00000000
_symmetry_Int_Tables_number   1
_chemical_formula_structural   Cr7Fe37Ni10
_chemical_formula_sum   'Cr7 Fe37 Ni10'
_cell_volume   580.66327515
_cell_formula_units_Z   1
loop_
 _symmetry_equiv_pos_site_id
 _symmetry_equiv_pos_as_xyz
  1  'x, y, z'
loop_
 _atom_site_type_symbol
 _atom_site_label
 _atom_site_symmetry_multiplicity
 _atom_site_fract_x
 _atom_site_fract_y
 _atom_site_fract_z
 _atom_site_occupancy
  Fe  Fe0  1  0.00259933  1.00196468  1.00202363  1
  Ni  Ni1  1  0.16894823  0.17100814  0.16674263  1
  Cr  Cr2  1  0.00276646  0.00474444  0.33509694  1
  Fe  Fe3  1  0.00446581  0.33645320  0.00262548  1
  Fe  Fe4  1  0.16901387  0.50225158  0.16848225  1
  Ni  Ni5  1  1.00056446  0.33643921  0.33579885  1
  Ni  Ni6  1  0.00362948  0.66942515  0.00232414  1
  Fe  Fe7  1  0.16928569  0.83409600  0.16727256  1
  Fe  Fe8  1  0.00313042  0.66646007  0.33455975  1
  Fe  Fe9  1  0.33519879  1.00173779  0.00269640  1
  Fe  Fe10  1  0.50180670  0.16893555  0.16946238  1
  Cr  Cr11  1  0.33642307  1.00064323  0.33731280  1
  Fe  Fe12  1  0.33331440  0.33665952  1.00223363  1
  Fe  Fe13  1  0.50089377  0.50336889  0.17015403  1
  Fe  Fe14  1  0.33472729  0.33659499  0.33501927  1
  Ni  Ni15  1  0.33497135  0.66994021  1.00226212  1
  Fe  Fe16  1  0.50232327  0.83465960  0.16857808  1
  Ni  Ni17  1  0.33659214  0.66906153  0.33531149  1
  Fe  Fe18  1  0.66916914  1.00019952  1.00202595  1
  Fe  Fe19  1  0.83648285  0.16920754  0.16873435  1
  Fe  Fe20  1  0.66792639  0.00273413  0.33521901  1
  Cr  Cr21  1  0.67012332  0.33581049  0.00262133  1
  Fe  Fe22  1  0.83705838  0.50276511  0.17013405  1
  Fe  Fe23  1  0.66949590  0.33536295  0.33508209  1
  Fe  Fe24  1  0.66896849  0.67044666  0.00284964  1
  Fe  Fe25  1  0.83535999  0.83499650  0.16846902  1
  Ni  Ni26  1  0.66744239  0.66752407  0.33364044  1
  Fe  Fe27  1  0.16829140  0.17107818  0.50250351  1
  Ni  Ni28  1  1.00156470  0.00435409  0.67016691  1
  Fe  Fe29  1  0.16746386  0.16998712  0.83654314  1
  Fe  Fe30  1  0.16723094  0.50131096  0.50161564  1
  Fe  Fe31  1  0.00266328  0.33514756  0.66897693  1
  Ni  Ni32  1  0.16923184  0.50188520  0.83672646  1
  Fe  Fe33  1  0.16970780  0.83458450  0.50243524  1
  Fe  Fe34  1  1.00206696  0.66878539  0.67046643  1
  Fe  Fe35  1  0.16679572  0.83530391  0.83726159  1
  Ni  Ni36  1  0.50319928  0.16938688  0.50198577  1
  Cr  Cr37  1  0.33468393  0.00238675  0.66799860  1
  Fe  Fe38  1  0.50245155  0.16956919  0.83506955  1
  Cr  Cr39  1  0.50165206  0.50115217  0.50124213  1
  Fe  Fe40  1  0.33453174  0.33438194  0.66970593  1
  Fe  Fe41  1  0.50201397  0.50208615  0.83571365  1
  Fe  Fe42  1  0.50305349  0.83631347  0.50101041  1
  Cr  Cr43  1  0.33547943  0.66956794  0.66892462  1
  Fe  Fe44  1  0.50352747  0.83531385  0.83737746  1
  Fe  Fe45  1  0.83475795  0.17126779  0.50364132  1
  Fe  Fe46  1  0.66999407  0.00343884  0.66971806  1
  Ni  Ni47  1  0.83628787  0.16682991  0.83437966  1
  Fe  Fe48  1  0.83648396  0.50043897  0.50168498  1
  Fe  Fe49  1  0.66976944  0.33382900  0.66993562  1
  Fe  Fe50  1  0.83706760  0.50274850  0.83514564  1
  Cr  Cr51  1  0.83534428  0.83533550  0.50323062  1
  Fe  Fe52  1  0.67076337  0.66969442  0.66982701  1
  Fe  Fe53  1  0.83664566  0.83573605  0.83538579  1
" 