431,Ni19Cr81_12,-232.209539271184, 154.51379889715,Ni19Cr81,"# generated using pymatgen
 data_Cr5Ni22
_symmetry_space_group_name_H-M   'P 1'
_cell_length_a   7.47968236
_cell_length_b   7.47968236
_cell_length_c   10.57786823
_cell_angle_alpha   90.00000000
_cell_angle_beta   90.00000000
_cell_angle_gamma   90.00000000
_symmetry_Int_Tables_number   1
_chemical_formula_structural   Cr5Ni22
_chemical_formula_sum   'Cr10 Ni44'
_cell_volume   591.78569395
_cell_formula_units_Z   2
loop_
 _symmetry_equiv_pos_site_id
 _symmetry_equiv_pos_as_xyz
  1  'x, y, z'
loop_
 _atom_site_type_symbol
 _atom_site_label
 _atom_site_symmetry_multiplicity
 _atom_site_fract_x
 _atom_site_fract_y
 _atom_site_fract_z
 _atom_site_occupancy
  Ni  Ni0  1  0.99768458  0.00013686  0.99821346  1
  Ni  Ni1  1  0.16572242  0.16693056  0.16665710  1
  Ni  Ni2  1  0.00238547  -0.00030138  0.33326062  1
  Ni  Ni3  1  0.99827278  0.33272514  0.99905089  1
  Ni  Ni4  1  0.16589465  0.49811122  0.16682752  1
  Ni  Ni5  1  0.00114065  0.33295851  0.33259443  1
  Ni  Ni6  1  0.99768284  0.66460456  0.99859315  1
  Ni  Ni7  1  0.16614640  0.83242469  0.16790235  1
  Ni  Ni8  1  0.00239033  0.66480955  0.33311844  1
  Cr  Cr9  1  0.33193583  -0.00042491  0.00004037  1
  Ni  Ni10  1  0.49817033  0.16727225  0.16512264  1
  Ni  Ni11  1  0.33056971  0.99862114  0.33245968  1
  Ni  Ni12  1  0.33110805  0.33255391  0.00113297  1
  Ni  Ni13  1  0.49816895  0.49794043  0.16474202  1
  Ni  Ni14  1  0.32949568  0.33171372  0.33124426  1
  Cr  Cr15  1  0.33151398  0.66559111  -0.00038023  1
  Ni  Ni16  1  0.49758390  0.83225365  0.16581671  1
  Ni  Ni17  1  0.32932281  0.66713093  0.33155736  1
  Ni  Ni18  1  0.66759303  -0.00076635  -0.00081588  1
  Ni  Ni19  1  0.83357358  0.16752171  0.16390798  1
  Cr  Cr20  1  0.66451735  0.00036354  0.33332347  1
  Ni  Ni21  1  0.66808300  0.33255266  0.00133209  1
  Ni  Ni22  1  0.83340333  0.49752016  0.16407736  1
  Cr  Cr23  1  0.66708145  0.33146508  0.33160311  1
  Ni  Ni24  1  0.66776500  0.66567987  0.99901261  1
  Cr  Cr25  1  0.83448785  0.83267824  0.16409782  1
  Cr  Cr26  1  0.66600743  0.66563741  0.33267372  1
  Ni  Ni27  1  0.16568122  0.16568050  0.49915659  1
  Ni  Ni28  1  0.99909148  0.00112154  0.66599278  1
  Ni  Ni29  1  0.16303696  0.16651992  0.83165124  1
  Ni  Ni30  1  0.16508730  0.49832008  0.49808649  1
  Ni  Ni31  1  0.99891948  0.33092769  0.66582170  1
  Ni  Ni32  1  0.16427816  0.49768488  0.83255036  1
  Ni  Ni33  1  0.16640875  0.83346525  0.49774521  1
  Cr  Cr34  1  -0.00065748  0.66516718  0.66600362  1
  Ni  Ni35  1  0.16452295  0.83326127  0.83181729  1
  Ni  Ni36  1  0.49777179  0.16418696  0.50062573  1
  Ni  Ni37  1  0.33262611  0.99822228  0.66471095  1
  Cr  Cr38  1  0.49957104  0.16577324  0.83147238  1
  Cr  Cr39  1  0.49752433  0.49896666  0.50127098  1
  Ni  Ni40  1  0.33047235  0.33150676  0.66508854  1
  Cr  Cr41  1  0.49957076  0.49966895  0.83144920  1
  Ni  Ni42  1  0.49794251  0.83405979  0.50107268  1
  Ni  Ni43  1  0.33320695  0.66773738  0.66578508  1
  Ni  Ni44  1  0.50107152  0.83201877  0.83057508  1
  Ni  Ni45  1  0.83401369  0.16550819  0.50090038  1
  Ni  Ni46  1  0.66574855  0.99839462  0.66495720  1
  Ni  Ni47  1  0.83460296  0.16527431  0.83265932  1
  Ni  Ni48  1  0.83460694  0.49848959  0.49983264  1
  Ni  Ni49  1  0.66807260  0.33150713  0.66478398  1
  Ni  Ni50  1  0.83336259  0.49893202  0.83355876  1
  Ni  Ni51  1  0.83311530  0.83346808  0.50003925  1
  Ni  Ni52  1  0.66516924  0.66756463  0.66603098  1
  Ni  Ni53  1  0.83187192  0.83325943  0.83358692  1
" 