3036,Ni19Cr81_3,-232.295504751606, 155.860759307178,Ni19Cr81,"# generated using pymatgen
 data_Cr5Ni22
_symmetry_space_group_name_H-M   'P 1'
_cell_length_a   7.47505470
_cell_length_b   7.47505470
_cell_length_c   10.57132374
_cell_angle_alpha   90.00000000
_cell_angle_beta   90.00000000
_cell_angle_gamma   90.00000000
_symmetry_Int_Tables_number   1
_chemical_formula_structural   Cr5Ni22
_chemical_formula_sum   'Cr10 Ni44'
_cell_volume   590.68796590
_cell_formula_units_Z   2
loop_
 _symmetry_equiv_pos_site_id
 _symmetry_equiv_pos_as_xyz
  1  'x, y, z'
loop_
 _atom_site_type_symbol
 _atom_site_label
 _atom_site_symmetry_multiplicity
 _atom_site_fract_x
 _atom_site_fract_y
 _atom_site_fract_z
 _atom_site_occupancy
  Cr  Cr0  1  0.00040592  0.00134089  -0.00007481  1
  Ni  Ni1  1  0.16853508  0.16770180  0.16669545  1
  Cr  Cr2  1  0.00118043  0.00021319  0.33340244  1
  Ni  Ni3  1  0.00014987  0.33365272  0.99847229  1
  Ni  Ni4  1  0.16695438  0.49843296  0.16506889  1
  Ni  Ni5  1  0.00028686  0.33333984  0.33362173  1
  Ni  Ni6  1  0.00235962  0.66351284  0.99881251  1
  Ni  Ni7  1  0.16883920  0.83221946  0.16528137  1
  Ni  Ni8  1  -0.00027918  0.66433884  0.33431114  1
  Ni  Ni9  1  0.33466064  0.99909477  -0.00032127  1
  Ni  Ni10  1  0.49808116  0.16681840  0.16508089  1
  Ni  Ni11  1  0.33179509  0.00022753  0.33175652  1
  Ni  Ni12  1  0.33206263  0.33244246  0.00094559  1
  Ni  Ni13  1  0.49867971  0.49828460  0.16585612  1
  Ni  Ni14  1  0.33189861  0.33247973  0.33156481  1
  Ni  Ni15  1  0.33210933  0.66684493  0.00018027  1
  Ni  Ni16  1  0.49770979  0.83327894  0.16420510  1
  Cr  Cr17  1  0.33325342  0.66577964  0.33305797  1
  Ni  Ni18  1  0.66280543  0.00123573  -0.00047756  1
  Ni  Ni19  1  0.83174414  0.16871242  0.16521977  1
  Cr  Cr20  1  0.66540840  0.99912612  0.33210058  1
  Ni  Ni21  1  0.66618092  0.33106609  -0.00046299  1
  Cr  Cr22  1  0.83314279  0.49883677  0.16586234  1
  Ni  Ni23  1  0.66620128  0.33450675  0.33276221  1
  Ni  Ni24  1  0.66394086  0.66611559  -0.00011038  1
  Cr  Cr25  1  0.83245126  0.83104212  0.16538203  1
  Ni  Ni26  1  0.66578512  0.66422883  0.33467919  1
  Ni  Ni27  1  0.16454283  0.16595741  0.49905348  1
  Ni  Ni28  1  -0.00001943  0.00035409  0.66483504  1
  Ni  Ni29  1  0.16634781  0.16608614  0.83264968  1
  Ni  Ni30  1  0.16400865  0.49959891  0.49926433  1
  Ni  Ni31  1  0.99755839  0.33248352  0.66626793  1
  Ni  Ni32  1  0.16329750  0.50018968  0.83408239  1
  Ni  Ni33  1  0.16581967  0.83282957  0.50114214  1
  Ni  Ni34  1  0.00037064  0.66553988  0.66526291  1
  Ni  Ni35  1  0.16856096  0.83209922  0.83198052  1
  Cr  Cr36  1  0.49844257  0.16635780  0.49952757  1
  Ni  Ni37  1  0.33190577  0.99653900  0.66698033  1
  Ni  Ni38  1  0.50013352  0.16349595  0.83407800  1
  Ni  Ni39  1  0.50156470  0.50118391  0.49889137  1
  Cr  Cr40  1  0.33116916  0.33389502  0.66616370  1
  Cr  Cr41  1  0.50035967  0.50000550  0.83343424  1
  Ni  Ni42  1  0.49961653  0.83117375  0.50136479  1
  Ni  Ni43  1  0.33209620  0.66895407  0.66541519  1
  Ni  Ni44  1  0.49773607  0.83487139  0.83282901  1
  Ni  Ni45  1  0.83445740  0.16790439  0.50119147  1
  Ni  Ni46  1  0.66648702  0.99929855  0.66649693  1
  Ni  Ni47  1  0.83190259  0.16871973  0.83195328  1
  Ni  Ni48  1  0.83284600  0.49994694  0.49943706  1
  Ni  Ni49  1  0.66980905  0.33265563  0.66608174  1
  Ni  Ni50  1  0.83468887  0.49773132  0.83281655  1
  Ni  Ni51  1  0.83296329  0.83053489  0.50075969  1
  Ni  Ni52  1  0.66593340  0.66645907  0.66380850  1
  Cr  Cr53  1  0.83213671  0.83133899  0.83243824  1
" 