3860,Ni19Fe13Cr66_12,-212.343022951893, 168.57903502167,Ni19Fe13Cr66,"# generated using pymatgen
 data_Cr37Fe7Ni10
_symmetry_space_group_name_H-M   'P 1'
_cell_length_a   7.55552374
_cell_length_b   7.55552374
_cell_length_c   10.68512415
_cell_angle_alpha   90.00000000
_cell_angle_beta   90.00000000
_cell_angle_gamma   90.00000000
_symmetry_Int_Tables_number   1
_chemical_formula_structural   Cr37Fe7Ni10
_chemical_formula_sum   'Cr37 Fe7 Ni10'
_cell_volume   609.97034539
_cell_formula_units_Z   1
loop_
 _symmetry_equiv_pos_site_id
 _symmetry_equiv_pos_as_xyz
  1  'x, y, z'
loop_
 _atom_site_type_symbol
 _atom_site_label
 _atom_site_symmetry_multiplicity
 _atom_site_fract_x
 _atom_site_fract_y
 _atom_site_fract_z
 _atom_site_occupancy
  Ni  Ni0  1  -0.00373750  0.99275655  -0.00465231  1
  Ni  Ni1  1  0.16149848  0.15685235  0.16094601  1
  Cr  Cr2  1  -0.00578445  -0.00479122  0.32478481  1
  Cr  Cr3  1  -0.00444935  0.32628432  -0.00113360  1
  Cr  Cr4  1  0.16349715  0.49573714  0.16294727  1
  Cr  Cr5  1  0.99387148  0.32686565  0.32688854  1
  Cr  Cr6  1  0.99298302  0.66359759  -0.00581321  1
  Cr  Cr7  1  0.16133197  0.82776757  0.16105639  1
  Cr  Cr8  1  0.99109521  0.66033344  0.32757914  1
  Cr  Cr9  1  0.32673505  -0.00519630  0.99365914  1
  Ni  Ni10  1  0.49462828  0.15861428  0.16365699  1
  Fe  Fe11  1  0.33035286  0.99401160  0.32753026  1
  Cr  Cr12  1  0.32696161  0.32389663  -0.00318325  1
  Cr  Cr13  1  0.49430289  0.49567630  0.15939207  1
  Cr  Cr14  1  0.32736465  0.32334486  0.32524339  1
  Cr  Cr15  1  0.32641061  0.66341701  0.99057480  1
  Cr  Cr16  1  0.49542958  0.82664791  0.16590396  1
  Ni  Ni17  1  0.33100499  0.66439150  0.32898033  1
  Cr  Cr18  1  0.66101762  0.99273162  -0.00313707  1
  Cr  Cr19  1  0.82731428  0.15721015  0.15911952  1
  Fe  Fe20  1  0.65802859  0.99404976  0.32872302  1
  Cr  Cr21  1  0.66046841  0.32638923  0.99378453  1
  Fe  Fe22  1  0.82545612  0.49475825  0.16254644  1
  Cr  Cr23  1  0.66136387  0.32671798  0.32914485  1
  Cr  Cr24  1  0.66306251  0.66289248  -0.00448904  1
  Fe  Fe25  1  0.82717376  0.82777067  0.16237640  1
  Ni  Ni26  1  0.65939206  0.66374484  0.32777697  1
  Cr  Cr27  1  0.16142110  0.15688617  0.49371627  1
  Ni  Ni28  1  -0.00394480  0.99023312  0.66256174  1
  Cr  Cr29  1  0.15700742  0.15713111  0.82729675  1
  Cr  Cr30  1  0.16198220  0.49748435  0.49274801  1
  Cr  Cr31  1  0.99346796  0.32940466  0.65653799  1
  Cr  Cr32  1  0.16034135  0.49631222  0.82685427  1
  Cr  Cr33  1  0.16194463  0.82771908  0.49530929  1
  Ni  Ni34  1  -0.00562978  0.66611690  0.66052735  1
  Ni  Ni35  1  0.15670990  0.83025220  0.82464702  1
  Ni  Ni36  1  0.49531430  0.15792284  0.49311945  1
  Fe  Fe37  1  0.32631571  -0.00569813  0.66038480  1
  Cr  Cr38  1  0.49659462  0.16179812  0.82628874  1
  Cr  Cr39  1  0.49407833  0.49533713  0.49363330  1
  Cr  Cr40  1  0.32941389  0.32470707  0.66068211  1
  Cr  Cr41  1  0.49516199  0.49302065  0.82903975  1
  Fe  Fe42  1  0.49351486  0.82963397  0.49089606  1
  Cr  Cr43  1  0.32659143  0.66428195  0.66299857  1
  Cr  Cr44  1  0.49232164  0.82798222  0.82643489  1
  Cr  Cr45  1  0.82656545  0.15888244  0.49783205  1
  Cr  Cr46  1  0.65781131  0.99365201  0.65878606  1
  Cr  Cr47  1  0.82837612  0.15937776  0.82522297  1
  Fe  Fe48  1  0.82562620  0.49535996  0.49488384  1
  Ni  Ni49  1  0.65864896  0.32608232  0.65754585  1
  Cr  Cr50  1  0.82674757  0.49237539  0.82412891  1
  Cr  Cr51  1  0.82748658  0.82847389  0.49259632  1
  Cr  Cr52  1  0.66240860  0.66142326  0.65996107  1
  Cr  Cr53  1  0.83077531  0.83120178  0.82898681  1
" 