2572,Ni19Cr81_19,-232.269026315432, 153.692268477267,Ni19Cr81,"# generated using pymatgen
 data_Cr5Ni22
_symmetry_space_group_name_H-M   'P 1'
_cell_length_a   7.47437009
_cell_length_b   7.47437009
_cell_length_c   10.57035555
_cell_angle_alpha   90.00000000
_cell_angle_beta   90.00000000
_cell_angle_gamma   90.00000000
_symmetry_Int_Tables_number   1
_chemical_formula_structural   Cr5Ni22
_chemical_formula_sum   'Cr10 Ni44'
_cell_volume   590.52568357
_cell_formula_units_Z   2
loop_
 _symmetry_equiv_pos_site_id
 _symmetry_equiv_pos_as_xyz
  1  'x, y, z'
loop_
 _atom_site_type_symbol
 _atom_site_label
 _atom_site_symmetry_multiplicity
 _atom_site_fract_x
 _atom_site_fract_y
 _atom_site_fract_z
 _atom_site_occupancy
  Ni  Ni0  1  0.00008114  0.99845341  0.99825840  1
  Cr  Cr1  1  0.16458198  0.16388009  0.16587936  1
  Ni  Ni2  1  -0.00003352  0.00037703  0.33394317  1
  Ni  Ni3  1  0.99494078  0.33397918  0.99814023  1
  Cr  Cr4  1  0.16277252  0.50143920  0.16380041  1
  Ni  Ni5  1  0.99472526  0.33183300  0.33404938  1
  Ni  Ni6  1  0.99919480  0.66662740  0.99731577  1
  Ni  Ni7  1  0.16684777  0.83400643  0.16515005  1
  Ni  Ni8  1  0.99765202  0.66617394  0.33307434  1
  Ni  Ni9  1  0.33346579  0.99564673  -0.00000424  1
  Ni  Ni10  1  0.50229243  0.16502857  0.16697220  1
  Ni  Ni11  1  0.33365526  0.99832125  0.33359053  1
  Cr  Cr12  1  0.33757336  0.33404361  0.99832258  1
  Ni  Ni13  1  0.50414151  0.50058328  0.16506664  1
  Cr  Cr14  1  0.33584455  0.33113900  0.33482399  1
  Ni  Ni15  1  0.33364572  0.66902762  0.99827902  1
  Ni  Ni16  1  0.49848246  0.83277447  0.16633553  1
  Cr  Cr17  1  0.33378656  0.66844349  0.33310370  1
  Cr  Cr18  1  0.66621349  0.00098141  0.99686082  1
  Ni  Ni19  1  0.83165801  0.16839247  0.16684116  1
  Ni  Ni20  1  0.66457315  0.00142233  0.33336304  1
  Ni  Ni21  1  0.66896821  0.33457093  -0.00047994  1
  Ni  Ni22  1  0.83026563  0.49808839  0.16648626  1
  Ni  Ni23  1  0.66840280  0.33249273  0.33261281  1
  Ni  Ni24  1  0.66543135  0.66399598  0.99844980  1
  Cr  Cr25  1  0.83271059  0.83172139  0.16733320  1
  Ni  Ni26  1  0.66582776  0.66416457  0.33315419  1
  Ni  Ni27  1  0.16551908  0.16360506  0.50063553  1
  Ni  Ni28  1  0.99932242  0.99942110  0.66647616  1
  Cr  Cr29  1  0.16666563  0.16622793  0.83193456  1
  Cr  Cr30  1  0.16401284  0.49896262  0.50282998  1
  Ni  Ni31  1  0.99730514  0.33281568  0.66618242  1
  Ni  Ni32  1  0.16554548  0.50199723  0.83187310  1
  Ni  Ni33  1  0.16633731  0.83556893  0.50028355  1
  Ni  Ni34  1  0.99944882  0.66637671  0.66813924  1
  Ni  Ni35  1  0.16632926  0.83154587  0.83314025  1
  Ni  Ni36  1  0.50047645  0.16508275  0.50080229  1
  Ni  Ni37  1  0.33382132  0.99835278  0.66493252  1
  Ni  Ni38  1  0.50141558  0.16620617  0.83076062  1
  Ni  Ni39  1  0.50335500  0.49944944  0.50194745  1
  Ni  Ni40  1  0.33488912  0.33303077  0.66601391  1
  Ni  Ni41  1  0.50071775  0.50052899  0.83174428  1
  Ni  Ni42  1  0.49864916  0.83368103  0.50034423  1
  Ni  Ni43  1  0.33358891  0.66722864  0.66735006  1
  Ni  Ni44  1  0.49900330  0.83179984  0.83162142  1
  Ni  Ni45  1  0.83255640  0.16726115  0.49969700  1
  Ni  Ni46  1  0.66550306  0.00037806  0.66732158  1
  Ni  Ni47  1  0.83236408  0.16709165  0.83172898  1
  Ni  Ni48  1  0.83056898  0.49779691  0.49920306  1
  Ni  Ni49  1  0.66647506  0.33258656  0.66641294  1
  Ni  Ni50  1  0.83244235  0.49995781  0.83276003  1
  Cr  Cr51  1  0.83091498  0.83192439  0.50024440  1
  Ni  Ni52  1  0.66532869  0.66527609  0.66708789  1
  Ni  Ni53  1  0.83329112  0.83178662  0.83135885  1
" 