194,Ni19Fe13Cr66_4,-212.451824699117, 169.850862792427,Ni19Fe13Cr66,"# generated using pymatgen
 data_Cr37Fe7Ni10
_symmetry_space_group_name_H-M   'P 1'
_cell_length_a   7.55420641
_cell_length_b   7.55420641
_cell_length_c   10.68326116
_cell_angle_alpha   90.00000000
_cell_angle_beta   90.00000000
_cell_angle_gamma   90.00000000
_symmetry_Int_Tables_number   1
_chemical_formula_structural   Cr37Fe7Ni10
_chemical_formula_sum   'Cr37 Fe7 Ni10'
_cell_volume   609.65135013
_cell_formula_units_Z   1
loop_
 _symmetry_equiv_pos_site_id
 _symmetry_equiv_pos_as_xyz
  1  'x, y, z'
loop_
 _atom_site_type_symbol
 _atom_site_label
 _atom_site_symmetry_multiplicity
 _atom_site_fract_x
 _atom_site_fract_y
 _atom_site_fract_z
 _atom_site_occupancy
  Cr  Cr0  1  -0.00204162  -0.00410897  0.99299319  1
  Fe  Fe1  1  0.16010975  0.16333194  0.16327142  1
  Cr  Cr2  1  -0.00474609  -0.00300166  0.32877744  1
  Cr  Cr3  1  -0.00290239  0.32545998  0.99387683  1
  Fe  Fe4  1  0.16124018  0.49031172  0.16307982  1
  Ni  Ni5  1  -0.00404909  0.32594366  0.32936361  1
  Cr  Cr6  1  -0.00333591  0.66101121  -0.00561947  1
  Cr  Cr7  1  0.16079918  0.82723596  0.16015366  1
  Cr  Cr8  1  -0.00390147  0.65819756  0.32820221  1
  Cr  Cr9  1  0.32547830  -0.00482491  0.99202560  1
  Cr  Cr10  1  0.49321194  0.16279872  0.16353440  1
  Cr  Cr11  1  0.32501345  -0.00364274  0.32800552  1
  Cr  Cr12  1  0.32652415  0.32689203  -0.00280821  1
  Fe  Fe13  1  0.49416619  0.49245511  0.16338223  1
  Ni  Ni14  1  0.32546317  0.32723512  0.32723858  1
  Cr  Cr15  1  0.32817188  0.66007561  -0.00464382  1
  Cr  Cr16  1  0.49385409  0.82983023  0.16232837  1
  Cr  Cr17  1  0.32696510  0.65736164  0.32676005  1
  Cr  Cr18  1  0.65928858  -0.00571817  0.99280842  1
  Cr  Cr19  1  0.82721175  0.16208806  0.16244342  1
  Fe  Fe20  1  0.66108941  -0.00147026  0.32904695  1
  Cr  Cr21  1  0.65892458  0.32865979  0.99373659  1
  Cr  Cr22  1  0.82942268  0.49255119  0.16017469  1
  Ni  Ni23  1  0.66125910  0.32696762  0.32774393  1
  Cr  Cr24  1  0.65816253  0.66002955  0.99304176  1
  Cr  Cr25  1  0.82807354  0.82859334  0.16216223  1
  Cr  Cr26  1  0.65999348  0.65902784  0.32788654  1
  Ni  Ni27  1  0.16087438  0.16493686  0.49422918  1
  Cr  Cr28  1  -0.00335744  -0.00269686  0.66061337  1
  Ni  Ni29  1  0.16272305  0.16038477  0.82579741  1
  Fe  Fe30  1  0.16206893  0.49000372  0.49455717  1
  Fe  Fe31  1  -0.00171825  0.32505659  0.65877058  1
  Cr  Cr32  1  0.16127495  0.49338992  0.82460365  1
  Cr  Cr33  1  0.16321002  0.82719906  0.49613512  1
  Cr  Cr34  1  -0.00408851  0.66038856  0.65962621  1
  Ni  Ni35  1  0.16536745  0.82839902  0.82617334  1
  Cr  Cr36  1  0.49264986  0.16173204  0.49323378  1
  Ni  Ni37  1  0.32411737  -0.00507212  0.66288449  1
  Cr  Cr38  1  0.49095664  0.16012031  0.82600726  1
  Cr  Cr39  1  0.49113226  0.49239741  0.49453639  1
  Fe  Fe40  1  0.32439659  0.32556946  0.65932666  1
  Cr  Cr41  1  0.49176208  0.49350152  0.82654066  1
  Cr  Cr42  1  0.49158884  0.82884852  0.49515841  1
  Ni  Ni43  1  0.32578211  0.66190927  0.66187622  1
  Ni  Ni44  1  0.48825834  0.82733531  0.82531646  1
  Ni  Ni45  1  0.83011491  0.16531190  0.49122028  1
  Cr  Cr46  1  0.66042837  -0.00489948  0.65945831  1
  Cr  Cr47  1  0.82942217  0.16267714  0.82756011  1
  Cr  Cr48  1  0.82998260  0.49164620  0.49505163  1
  Cr  Cr49  1  0.66250694  0.32678904  0.66109319  1
  Cr  Cr50  1  0.82989284  0.49303774  0.82738629  1
  Cr  Cr51  1  0.82779965  0.82954842  0.49082980  1
  Cr  Cr52  1  0.65847441  0.66076562  0.66231056  1
  Cr  Cr53  1  0.82941281  0.82690871  0.82921731  1
" 