4984,Ni19Fe68Cr11_18,-229.28159414689, 178.871139117694,Ni19Fe68Cr11,"# generated using pymatgen
 data_Cr7Fe37Ni10
_symmetry_space_group_name_H-M   'P 1'
_cell_length_a   7.43297584
_cell_length_b   7.43297584
_cell_length_c   10.51181524
_cell_angle_alpha   90.00000000
_cell_angle_beta   90.00000000
_cell_angle_gamma   90.00000000
_symmetry_Int_Tables_number   1
_chemical_formula_structural   Cr7Fe37Ni10
_chemical_formula_sum   'Cr7 Fe37 Ni10'
_cell_volume   580.76864406
_cell_formula_units_Z   1
loop_
 _symmetry_equiv_pos_site_id
 _symmetry_equiv_pos_as_xyz
  1  'x, y, z'
loop_
 _atom_site_type_symbol
 _atom_site_label
 _atom_site_symmetry_multiplicity
 _atom_site_fract_x
 _atom_site_fract_y
 _atom_site_fract_z
 _atom_site_occupancy
  Cr  Cr0  1  1.00127950  0.00501447  1.00145266  1
  Ni  Ni1  1  0.17106660  0.16801082  0.17043088  1
  Ni  Ni2  1  1.00187401  0.00387042  0.33630606  1
  Ni  Ni3  1  0.00309054  0.33339206  0.00497983  1
  Fe  Fe4  1  0.16819316  0.49914816  0.16852820  1
  Fe  Fe5  1  1.00195118  0.33493055  0.33507187  1
  Fe  Fe6  1  1.00068901  0.66858367  0.00346717  1
  Cr  Cr7  1  0.16782143  0.83496352  0.16804701  1
  Fe  Fe8  1  1.00122848  0.66897562  0.33660195  1
  Fe  Fe9  1  0.33789290  0.00446679  1.00199178  1
  Ni  Ni10  1  0.50239029  0.16730436  0.16964316  1
  Fe  Fe11  1  0.33482539  0.00256685  0.33500510  1
  Fe  Fe12  1  0.33574488  0.33181466  0.00238051  1
  Cr  Cr13  1  0.50264993  0.49963482  0.16891874  1
  Fe  Fe14  1  0.33340632  0.33446566  0.33559762  1
  Fe  Fe15  1  0.33431876  0.66998225  1.00183183  1
  Fe  Fe16  1  0.50286359  0.83792765  0.17044656  1
  Fe  Fe17  1  0.33479455  0.66942696  0.33763141  1
  Fe  Fe18  1  0.66813569  0.00485340  1.00152577  1
  Fe  Fe19  1  0.83583058  0.17040484  0.17119556  1
  Fe  Fe20  1  0.67095440  1.00223580  0.33495003  1
  Fe  Fe21  1  0.67108026  0.33168789  0.00256604  1
  Ni  Ni22  1  0.83730897  0.50292098  0.16973982  1
  Fe  Fe23  1  0.67207727  0.33451044  0.33534890  1
  Cr  Cr24  1  0.66737708  0.67049816  0.00259699  1
  Fe  Fe25  1  0.83428269  0.83734289  0.17031602  1
  Fe  Fe26  1  0.67103091  0.66992916  0.33648473  1
  Fe  Fe27  1  0.16647693  0.16837149  0.50166061  1
  Ni  Ni28  1  0.00364663  0.00400684  0.66880899  1
  Fe  Fe29  1  0.16899503  0.16899731  0.83518135  1
  Fe  Fe30  1  0.16855413  0.50102941  0.50282264  1
  Fe  Fe31  1  1.00210449  0.33464243  0.66788571  1
  Cr  Cr32  1  0.16780520  0.50348818  0.83802255  1
  Fe  Fe33  1  0.16780818  0.83800212  0.50182393  1
  Fe  Fe34  1  1.00140040  0.67198571  0.66710583  1
  Fe  Fe35  1  0.16922564  0.83778563  0.83452017  1
  Cr  Cr36  1  0.50294089  0.16758786  0.50116503  1
  Fe  Fe37  1  0.33564896  1.00142429  0.66996701  1
  Ni  Ni38  1  0.50211880  0.16831401  0.83559719  1
  Fe  Fe39  1  0.50316152  0.50287667  0.50186581  1
  Fe  Fe40  1  0.33571367  0.33521468  0.66959008  1
  Fe  Fe41  1  0.50263031  0.50143909  0.83425669  1
  Fe  Fe42  1  0.50324769  0.83477787  0.50210732  1
  Fe  Fe43  1  0.33520277  0.67033588  0.66772531  1
  Fe  Fe44  1  0.50277844  0.83589779  0.83406269  1
  Ni  Ni45  1  0.83555287  0.16874473  0.50307442  1
  Fe  Fe46  1  0.67059212  1.00126699  0.67003270  1
  Fe  Fe47  1  0.83502510  0.16878171  0.83355638  1
  Fe  Fe48  1  0.83479092  0.50136506  0.50212386  1
  Fe  Fe49  1  0.66913471  0.33429385  0.66865570  1
  Cr  Cr50  1  0.83641367  0.50248917  0.83449103  1
  Fe  Fe51  1  0.83568890  0.83787026  0.50363138  1
  Ni  Ni52  1  0.66665126  0.66831038  0.66715719  1
  Ni  Ni53  1  0.83629686  0.83560217  0.83381665  1
" 