6668,Ni19Fe68Cr11_12,-229.220042494987, 179.465375445784,Ni19Fe68Cr11,"# generated using pymatgen
 data_Cr7Fe37Ni10
_symmetry_space_group_name_H-M   'P 1'
_cell_length_a   7.42789790
_cell_length_b   7.42789790
_cell_length_c   10.50463395
_cell_angle_alpha   90.00000000
_cell_angle_beta   90.00000000
_cell_angle_gamma   90.00000000
_symmetry_Int_Tables_number   1
_chemical_formula_structural   Cr7Fe37Ni10
_chemical_formula_sum   'Cr7 Fe37 Ni10'
_cell_volume   579.57917768
_cell_formula_units_Z   1
loop_
 _symmetry_equiv_pos_site_id
 _symmetry_equiv_pos_as_xyz
  1  'x, y, z'
loop_
 _atom_site_type_symbol
 _atom_site_label
 _atom_site_symmetry_multiplicity
 _atom_site_fract_x
 _atom_site_fract_y
 _atom_site_fract_z
 _atom_site_occupancy
  Fe  Fe0  1  0.00317831  1.00164393  1.00208229  1
  Cr  Cr1  1  0.17005798  0.16828236  0.16742619  1
  Fe  Fe2  1  0.99991559  1.00036794  0.33488171  1
  Fe  Fe3  1  1.00246262  0.33579600  1.00246261  1
  Fe  Fe4  1  0.16946721  0.50500055  0.16847548  1
  Cr  Cr5  1  1.00151272  0.33825896  0.33596133  1
  Fe  Fe6  1  1.00158619  0.67046412  0.00344308  1
  Fe  Fe7  1  0.16881038  0.83460609  0.16897443  1
  Fe  Fe8  1  1.00127738  0.67076973  0.33490726  1
  Fe  Fe9  1  0.33513158  1.00196778  1.00131390  1
  Fe  Fe10  1  0.50330320  0.16857934  0.17085510  1
  Fe  Fe11  1  0.33816396  1.00220729  0.33556861  1
  Fe  Fe12  1  0.33618980  0.33579739  1.00247202  1
  Fe  Fe13  1  0.50218851  0.50354974  0.17033883  1
  Fe  Fe14  1  0.33930533  0.33707849  0.33643510  1
  Fe  Fe15  1  0.33673314  0.67014394  0.00267999  1
  Fe  Fe16  1  0.50255656  0.83577631  0.17020086  1
  Fe  Fe17  1  0.33709631  0.66861391  0.33594508  1
  Cr  Cr18  1  0.66910517  1.00170761  0.00274626  1
  Fe  Fe19  1  0.83509065  0.16791851  0.17022536  1
  Ni  Ni20  1  0.66897499  1.00244791  0.33547396  1
  Cr  Cr21  1  0.67029275  0.33617844  0.00343045  1
  Fe  Fe22  1  0.83625229  0.50426272  0.16914194  1
  Fe  Fe23  1  0.66767780  0.33571834  0.33634661  1
  Fe  Fe24  1  0.66958949  0.66940823  0.00301140  1
  Ni  Ni25  1  0.83627835  0.83502621  0.17013499  1
  Fe  Fe26  1  0.66953420  0.66961305  0.33578598  1
  Cr  Cr27  1  0.17027140  0.16936744  0.50532630  1
  Fe  Fe28  1  1.00203833  0.00333290  0.67095036  1
  Fe  Fe29  1  0.16948240  0.16773384  0.83544840  1
  Fe  Fe30  1  0.17062400  0.50305439  0.50400041  1
  Ni  Ni31  1  1.00121634  0.33684481  0.66989245  1
  Cr  Cr32  1  0.17011862  0.50193299  0.83456465  1
  Cr  Cr33  1  0.16873632  0.83601283  0.50253693  1
  Fe  Fe34  1  1.00203869  0.66911136  0.66955157  1
  Ni  Ni35  1  0.16920192  0.83821649  0.83676782  1
  Fe  Fe36  1  0.50406499  0.16932018  0.50319346  1
  Ni  Ni37  1  0.33803156  1.00134715  0.67133949  1
  Fe  Fe38  1  0.50070843  0.16893259  0.83386793  1
  Ni  Ni39  1  0.50354699  0.50192433  0.50317415  1
  Ni  Ni40  1  0.33633588  0.33687999  0.66900804  1
  Fe  Fe41  1  0.50264653  0.50356259  0.83433280  1
  Fe  Fe42  1  0.50378755  0.83614558  0.50299828  1
  Ni  Ni43  1  0.33626527  0.66967860  0.66904183  1
  Fe  Fe44  1  0.50104657  0.83541035  0.83471217  1
  Fe  Fe45  1  0.83325214  0.16895497  0.50369263  1
  Ni  Ni46  1  0.66889020  0.00291184  0.66906106  1
  Fe  Fe47  1  0.83772049  0.16931663  0.83399207  1
  Fe  Fe48  1  0.83531725  0.50278318  0.50374632  1
  Ni  Ni49  1  0.67035631  0.33507952  0.66862719  1
  Fe  Fe50  1  0.83584122  0.50322775  0.83502126  1
  Fe  Fe51  1  0.83385524  0.83617238  0.50189126  1
  Fe  Fe52  1  0.66814345  0.66850604  0.66911094  1
  Fe  Fe53  1  0.83703648  0.83536142  0.83573642  1
" 