5621,Ni19Fe13Cr66_15,-212.389758495404, 166.351130383115,Ni19Fe13Cr66,"# generated using pymatgen
 data_Cr37Fe7Ni10
_symmetry_space_group_name_H-M   'P 1'
_cell_length_a   7.55032618
_cell_length_b   7.55032618
_cell_length_c   10.67777368
_cell_angle_alpha   90.00000000
_cell_angle_beta   90.00000000
_cell_angle_gamma   90.00000000
_symmetry_Int_Tables_number   1
_chemical_formula_structural   Cr37Fe7Ni10
_chemical_formula_sum   'Cr37 Fe7 Ni10'
_cell_volume   608.71238692
_cell_formula_units_Z   1
loop_
 _symmetry_equiv_pos_site_id
 _symmetry_equiv_pos_as_xyz
  1  'x, y, z'
loop_
 _atom_site_type_symbol
 _atom_site_label
 _atom_site_symmetry_multiplicity
 _atom_site_fract_x
 _atom_site_fract_y
 _atom_site_fract_z
 _atom_site_occupancy
  Ni  Ni0  1  0.99169854  0.99380679  0.00015019  1
  Ni  Ni1  1  0.15510147  0.15588815  0.16018594  1
  Fe  Fe2  1  -0.00424897  0.99406693  0.32493836  1
  Cr  Cr3  1  0.99426075  0.32632351  -0.00444702  1
  Cr  Cr4  1  0.16284168  0.49641640  0.16189691  1
  Cr  Cr5  1  0.99420572  0.32631795  0.32668137  1
  Cr  Cr6  1  0.99357625  0.66230657  -0.00267728  1
  Ni  Ni7  1  0.15955648  0.83090112  0.16231664  1
  Cr  Cr8  1  -0.00353680  0.66385222  0.32695706  1
  Cr  Cr9  1  0.32613408  0.99389290  -0.00484269  1
  Cr  Cr10  1  0.49583092  0.16093216  0.16228307  1
  Cr  Cr11  1  0.32640032  0.99253172  0.32590327  1
  Cr  Cr12  1  0.32573117  0.32657853  -0.00380752  1
  Cr  Cr13  1  0.49672573  0.49569493  0.16294492  1
  Cr  Cr14  1  0.32576199  0.32783562  0.32608135  1
  Cr  Cr15  1  0.32836626  0.66359289  -0.00397973  1
  Ni  Ni16  1  0.49406276  0.82608966  0.15968350  1
  Ni  Ni17  1  0.32580993  0.66688612  0.32547946  1
  Cr  Cr18  1  0.66147893  0.99244061  0.99428037  1
  Ni  Ni19  1  0.82970375  0.15925685  0.16100725  1
  Cr  Cr20  1  0.66436165  -0.00537051  0.32756934  1
  Fe  Fe21  1  0.66380324  0.32636116  -0.00203525  1
  Fe  Fe22  1  0.82817926  0.49277581  0.16121742  1
  Ni  Ni23  1  0.66637339  0.32677413  0.32348083  1
  Fe  Fe24  1  0.66265181  0.66224704  -0.00212292  1
  Fe  Fe25  1  0.82839094  0.83067508  0.16092131  1
  Cr  Cr26  1  0.66259255  0.66336705  0.32509789  1
  Cr  Cr27  1  0.16059203  0.15691467  0.49498192  1
  Cr  Cr28  1  0.99350444  0.99334754  0.65974358  1
  Cr  Cr29  1  0.15925107  0.15851559  0.82888793  1
  Cr  Cr30  1  0.16128485  0.49848504  0.49599315  1
  Fe  Fe31  1  -0.00513332  0.32853927  0.66092925  1
  Cr  Cr32  1  0.16018900  0.49595932  0.82516337  1
  Ni  Ni33  1  0.16172912  0.82763868  0.49397087  1
  Ni  Ni34  1  -0.00419226  0.66201983  0.66023060  1
  Cr  Cr35  1  0.15898069  0.82864477  0.82768486  1
  Cr  Cr36  1  0.49483012  0.16170800  0.49242916  1
  Ni  Ni37  1  0.32464786  0.99216478  0.66205220  1
  Cr  Cr38  1  0.49419030  0.16060872  0.82760358  1
  Cr  Cr39  1  0.49490730  0.49466747  0.48704697  1
  Cr  Cr40  1  0.32722829  0.32575608  0.66149321  1
  Cr  Cr41  1  0.49639819  0.49529676  0.83316624  1
  Cr  Cr42  1  0.49170499  0.82785600  0.49440942  1
  Cr  Cr43  1  0.32853232  0.66244069  0.66061074  1
  Fe  Fe44  1  0.49320181  0.82814332  0.82856842  1
  Cr  Cr45  1  0.82764094  0.16126465  0.49327211  1
  Cr  Cr46  1  0.65651465  0.99341395  0.66102615  1
  Cr  Cr47  1  0.82863508  0.16017235  0.82793833  1
  Cr  Cr48  1  0.82817282  0.49479827  0.49516544  1
  Cr  Cr49  1  0.66126939  0.32817073  0.65976021  1
  Cr  Cr50  1  0.82844603  0.49530809  0.82824367  1
  Cr  Cr51  1  0.83249847  0.82799795  0.49439754  1
  Cr  Cr52  1  0.66258819  0.66246401  0.66295669  1
  Cr  Cr53  1  0.82876932  0.82745751  0.82930583  1
" 