8037,Ni19Cr81_0,-232.368524212545, 157.443072349536,Ni19Cr81,"# generated using pymatgen
 data_Cr5Ni22
_symmetry_space_group_name_H-M   'P 1'
_cell_length_a   7.48192179
_cell_length_b   7.48192179
_cell_length_c   10.58103527
_cell_angle_alpha   90.00000000
_cell_angle_beta   90.00000000
_cell_angle_gamma   90.00000000
_symmetry_Int_Tables_number   1
_chemical_formula_structural   Cr5Ni22
_chemical_formula_sum   'Cr10 Ni44'
_cell_volume   592.31740033
_cell_formula_units_Z   2
loop_
 _symmetry_equiv_pos_site_id
 _symmetry_equiv_pos_as_xyz
  1  'x, y, z'
loop_
 _atom_site_type_symbol
 _atom_site_label
 _atom_site_symmetry_multiplicity
 _atom_site_fract_x
 _atom_site_fract_y
 _atom_site_fract_z
 _atom_site_occupancy
  Ni  Ni0  1  0.99899876  -0.00076102  -0.00038759  1
  Cr  Cr1  1  0.16531630  0.16470866  0.16510278  1
  Ni  Ni2  1  0.99733903  0.99777774  0.33238223  1
  Ni  Ni3  1  0.99833075  0.33326323  0.99805804  1
  Ni  Ni4  1  0.16722485  0.50076766  0.16393387  1
  Cr  Cr5  1  0.99660171  0.33185010  0.33195859  1
  Ni  Ni6  1  0.99850909  0.66450453  0.00003675  1
  Ni  Ni7  1  0.16618568  0.83156428  0.16548830  1
  Cr  Cr8  1  -0.00095226  0.66768330  0.33153137  1
  Ni  Ni9  1  0.33142679  0.99817851  0.99823358  1
  Cr  Cr10  1  0.49969081  0.16669667  0.16692733  1
  Ni  Ni11  1  0.33263989  0.99567079  0.33237934  1
  Ni  Ni12  1  0.33201134  0.33416122  0.99723265  1
  Ni  Ni13  1  0.49912928  0.50063641  0.16630845  1
  Ni  Ni14  1  0.33515725  0.33472344  0.33167754  1
  Ni  Ni15  1  0.33284124  0.66467202  0.00042992  1
  Ni  Ni16  1  0.49814794  0.82972610  0.16675004  1
  Ni  Ni17  1  0.33501986  0.66664904  0.33155124  1
  Cr  Cr18  1  0.66601387  0.99835818  0.99755053  1
  Ni  Ni19  1  0.83259109  0.16565832  0.16631175  1
  Ni  Ni20  1  0.66705680  0.99786860  0.33269589  1
  Ni  Ni21  1  0.66669435  0.33463301  0.99883583  1
  Ni  Ni22  1  0.83068917  0.49927617  0.16411550  1
  Ni  Ni23  1  0.66553383  0.33350292  0.33217943  1
  Ni  Ni24  1  0.66565423  0.66397950  -0.00096785  1
  Ni  Ni25  1  0.83268756  0.83207437  0.16578910  1
  Ni  Ni26  1  0.66351762  0.66564854  0.33254908  1
  Cr  Cr27  1  0.16529074  0.16364865  0.49981336  1
  Ni  Ni28  1  0.99751756  -0.00091545  0.66503518  1
  Ni  Ni29  1  0.16599294  0.16745894  0.83211658  1
  Cr  Cr30  1  0.16717278  0.50024530  0.50107581  1
  Ni  Ni31  1  -0.00084575  0.33227053  0.66727069  1
  Ni  Ni32  1  0.16571350  0.49675734  0.83226306  1
  Ni  Ni33  1  0.16618369  0.83324364  0.49917874  1
  Ni  Ni34  1  0.99768330  0.66565233  0.66544711  1
  Cr  Cr35  1  0.16516368  0.83219919  0.83234909  1
  Cr  Cr36  1  0.49941721  0.16528778  0.49752209  1
  Ni  Ni37  1  0.33296501  0.99802500  0.66639711  1
  Ni  Ni38  1  0.49709963  0.16585990  0.83229532  1
  Ni  Ni39  1  0.49999635  0.50146133  0.49758002  1
  Ni  Ni40  1  0.33115351  0.33318618  0.66809497  1
  Ni  Ni41  1  0.49829368  0.49931924  0.83313551  1
  Ni  Ni42  1  0.49927601  0.83070485  0.49897378  1
  Ni  Ni43  1  0.33366266  0.66582364  0.66504741  1
  Ni  Ni44  1  0.49992002  0.83182904  0.83127564  1
  Ni  Ni45  1  0.83239645  0.16386534  0.49841470  1
  Ni  Ni46  1  0.66652494  0.99656983  0.66623457  1
  Ni  Ni47  1  0.83390798  0.16582119  0.83230136  1
  Ni  Ni48  1  0.82981439  0.50009478  0.49979233  1
  Cr  Cr49  1  0.66641914  0.33273211  0.66627205  1
  Ni  Ni50  1  0.83299465  0.49961759  0.83312319  1
  Ni  Ni51  1  0.83156826  0.83304488  0.49992031  1
  Ni  Ni52  1  0.66564650  0.66747655  0.66544458  1
  Ni  Ni53  1  0.83133787  0.83157154  0.83129531  1
" 