4696,Ni19Fe13Cr66_0,-212.373835465967, 170.085763756338,Ni19Fe13Cr66,"# generated using pymatgen
 data_Cr37Fe7Ni10
_symmetry_space_group_name_H-M   'P 1'
_cell_length_a   7.54867526
_cell_length_b   7.54867526
_cell_length_c   10.67543894
_cell_angle_alpha   90.00000000
_cell_angle_beta   90.00000000
_cell_angle_gamma   90.00000000
_symmetry_Int_Tables_number   1
_chemical_formula_structural   Cr37Fe7Ni10
_chemical_formula_sum   'Cr37 Fe7 Ni10'
_cell_volume   608.31318038
_cell_formula_units_Z   1
loop_
 _symmetry_equiv_pos_site_id
 _symmetry_equiv_pos_as_xyz
  1  'x, y, z'
loop_
 _atom_site_type_symbol
 _atom_site_label
 _atom_site_symmetry_multiplicity
 _atom_site_fract_x
 _atom_site_fract_y
 _atom_site_fract_z
 _atom_site_occupancy
  Cr  Cr0  1  0.99415450  0.99027928  0.99365669  1
  Cr  Cr1  1  0.16091755  0.15911516  0.16077658  1
  Fe  Fe2  1  -0.00467687  0.99308687  0.32670259  1
  Cr  Cr3  1  0.99284633  0.33164561  -0.00536974  1
  Cr  Cr4  1  0.16135436  0.49526998  0.16474178  1
  Ni  Ni5  1  0.99365755  0.32790658  0.32955324  1
  Cr  Cr6  1  0.99286977  0.66160107  0.99316967  1
  Ni  Ni7  1  0.15940263  0.82830726  0.16121692  1
  Cr  Cr8  1  -0.00482350  0.66051446  0.32541555  1
  Ni  Ni9  1  0.32738753  0.99250621  -0.00413996  1
  Ni  Ni10  1  0.49407197  0.15995972  0.15975201  1
  Cr  Cr11  1  0.32949681  0.99306566  0.32764171  1
  Cr  Cr12  1  0.32834653  0.32641734  -0.00456877  1
  Cr  Cr13  1  0.49467114  0.49483427  0.16115662  1
  Cr  Cr14  1  0.32690797  0.32934417  0.32878106  1
  Cr  Cr15  1  0.32482078  0.66343344  -0.00462837  1
  Cr  Cr16  1  0.49319607  0.82744294  0.16268485  1
  Ni  Ni17  1  0.32570100  0.66315051  0.32974798  1
  Cr  Cr18  1  0.66142130  0.99322942  -0.00346129  1
  Cr  Cr19  1  0.83006081  0.16024113  0.16497160  1
  Cr  Cr20  1  0.66226628  0.99424908  0.32883754  1
  Cr  Cr21  1  0.66316580  0.32877953  -0.00423633  1
  Fe  Fe22  1  0.82952055  0.49516949  0.16217454  1
  Cr  Cr23  1  0.66230233  0.32682036  0.32653348  1
  Cr  Cr24  1  0.66606842  0.66200925  -0.00402977  1
  Ni  Ni25  1  0.83145119  0.82765976  0.16234655  1
  Cr  Cr26  1  0.66090337  0.66313241  0.32539232  1
  Cr  Cr27  1  0.15767372  0.16099876  0.49222704  1
  Cr  Cr28  1  0.99406796  0.99246039  0.66196146  1
  Cr  Cr29  1  0.16162288  0.15864907  0.83104495  1
  Fe  Fe30  1  0.15898790  0.49611940  0.49327865  1
  Cr  Cr31  1  0.99450204  0.33001208  0.66012009  1
  Cr  Cr32  1  0.16024881  0.49542887  0.82572602  1
  Cr  Cr33  1  0.15945796  0.82693196  0.49371974  1
  Ni  Ni34  1  0.99123867  0.66084435  0.66356876  1
  Fe  Fe35  1  0.15967815  0.82656658  0.82784589  1
  Cr  Cr36  1  0.49595341  0.16226466  0.49610262  1
  Cr  Cr37  1  0.32792488  0.99415468  0.66237243  1
  Cr  Cr38  1  0.49431821  0.16120046  0.83035609  1
  Cr  Cr39  1  0.49548453  0.49820206  0.49552336  1
  Cr  Cr40  1  0.32706346  0.32784288  0.66026541  1
  Cr  Cr41  1  0.49778362  0.49590887  0.82689434  1
  Fe  Fe42  1  0.49499834  0.82636836  0.49455348  1
  Cr  Cr43  1  0.32557450  0.66170750  0.65832024  1
  Cr  Cr44  1  0.49588332  0.82682364  0.82690732  1
  Fe  Fe45  1  0.82889862  0.16206614  0.49347631  1
  Cr  Cr46  1  0.66158556  0.99366273  0.65899063  1
  Cr  Cr47  1  0.82796186  0.16167380  0.82505392  1
  Cr  Cr48  1  0.82773750  0.49549119  0.49564090  1
  Fe  Fe49  1  0.66272267  0.33091466  0.66187418  1
  Ni  Ni50  1  0.82758659  0.49925776  0.82528831  1
  Cr  Cr51  1  0.82829203  0.82751006  0.49476390  1
  Ni  Ni52  1  0.66407374  0.66185147  0.66205362  1
  Ni  Ni53  1  0.82925218  0.82395199  0.82528658  1
" 