4216,Ni20Fe32Cr47_10,-220.391249726281, 178.452527185705,Ni20Fe32Cr47,"# generated using pymatgen
 data_Cr26Fe17Ni11
_symmetry_space_group_name_H-M   'P 1'
_cell_length_a   7.50813475
_cell_length_b   7.50813475
_cell_length_c   10.61810599
_cell_angle_alpha   90.00000000
_cell_angle_beta   90.00000000
_cell_angle_gamma   90.00000000
_symmetry_Int_Tables_number   1
_chemical_formula_structural   Cr26Fe17Ni11
_chemical_formula_sum   'Cr26 Fe17 Ni11'
_cell_volume   598.56479898
_cell_formula_units_Z   1
loop_
 _symmetry_equiv_pos_site_id
 _symmetry_equiv_pos_as_xyz
  1  'x, y, z'
loop_
 _atom_site_type_symbol
 _atom_site_label
 _atom_site_symmetry_multiplicity
 _atom_site_fract_x
 _atom_site_fract_y
 _atom_site_fract_z
 _atom_site_occupancy
  Ni  Ni0  1  0.99496297  0.99402806  0.99648644  1
  Cr  Cr1  1  0.16342136  0.16184268  0.16685726  1
  Cr  Cr2  1  0.99589347  0.99591855  0.33420078  1
  Fe  Fe3  1  0.99703819  0.33011157  -0.00230734  1
  Cr  Cr4  1  0.16088947  0.49829451  0.16354470  1
  Fe  Fe5  1  0.99688698  0.32953539  0.33297514  1
  Fe  Fe6  1  -0.00257694  0.66817900  -0.00095310  1
  Fe  Fe7  1  0.16302450  0.83004884  0.16339440  1
  Cr  Cr8  1  0.99607879  0.66558152  0.33104191  1
  Cr  Cr9  1  0.32858256  0.99408931  -0.00152206  1
  Cr  Cr10  1  0.49556304  0.15905724  0.16343480  1
  Ni  Ni11  1  0.33059993  0.99314515  0.33150528  1
  Cr  Cr12  1  0.33232294  0.33232474  0.99494143  1
  Cr  Cr13  1  0.49844217  0.50053606  0.16470025  1
  Cr  Cr14  1  0.33094190  0.33132538  0.33397749  1
  Ni  Ni15  1  0.33086825  0.66748563  -0.00153646  1
  Fe  Fe16  1  0.49701709  0.82807345  0.16467778  1
  Fe  Fe17  1  0.33238689  0.66760163  0.33102461  1
  Fe  Fe18  1  0.66535195  0.99266890  -0.00175739  1
  Cr  Cr19  1  0.83314304  0.16495546  0.16200291  1
  Cr  Cr20  1  0.66505989  0.99542496  0.32920965  1
  Cr  Cr21  1  0.66509583  0.32922854  0.99652831  1
  Ni  Ni22  1  0.83164648  0.50200837  0.16263497  1
  Cr  Cr23  1  0.66591938  0.33147195  0.33044374  1
  Ni  Ni24  1  0.66501451  0.66491638  0.00025278  1
  Fe  Fe25  1  0.83100444  0.82908417  0.16198350  1
  Fe  Fe26  1  0.66294874  0.66701174  0.32999035  1
  Ni  Ni27  1  0.16359263  0.16403991  0.49676722  1
  Ni  Ni28  1  0.99490563  -0.00180240  0.66201916  1
  Cr  Cr29  1  0.16279116  0.16072238  0.82964208  1
  Fe  Fe30  1  0.16438797  0.49704192  0.49703283  1
  Cr  Cr31  1  0.99649880  0.32942751  0.66198936  1
  Cr  Cr32  1  0.16224146  0.50050540  0.83382633  1
  Cr  Cr33  1  0.16461274  0.83345745  0.49791844  1
  Cr  Cr34  1  -0.00144957  0.66908984  0.66487056  1
  Ni  Ni35  1  0.16285741  0.83256267  0.83266078  1
  Cr  Cr36  1  0.49559107  0.16018903  0.49896009  1
  Fe  Fe37  1  0.32680464  0.99565965  0.66251137  1
  Cr  Cr38  1  0.49943960  0.16079454  0.82740176  1
  Fe  Fe39  1  0.49789673  0.49934024  0.49828424  1
  Fe  Fe40  1  0.32839262  0.32948274  0.66195468  1
  Cr  Cr41  1  0.49928983  0.49884692  0.82803141  1
  Ni  Ni42  1  0.49886247  0.82827345  0.49568397  1
  Cr  Cr43  1  0.33068376  0.66382745  0.66355108  1
  Cr  Cr44  1  0.49814382  0.83090998  0.83030292  1
  Ni  Ni45  1  0.83186732  0.16269251  0.49927710  1
  Fe  Fe46  1  0.66650827  0.99533954  0.66065806  1
  Fe  Fe47  1  0.83210508  0.16078754  0.82971945  1
  Cr  Cr48  1  0.82993216  0.50019115  0.49577914  1
  Fe  Fe49  1  0.66543317  0.32946189  0.66243243  1
  Cr  Cr50  1  0.83049376  0.49916351  0.83337347  1
  Ni  Ni51  1  0.82690263  0.83091433  0.49837030  1
  Fe  Fe52  1  0.66481309  0.66646730  0.66175254  1
  Cr  Cr53  1  0.83112050  0.83091094  0.82974370  1
" 