4221,Ni20Fe17Cr62_19,-214.639308779378, 170.478952614943,Ni20Fe17Cr62,"# generated using pymatgen
 data_Cr34Fe9Ni11
_symmetry_space_group_name_H-M   'P 1'
_cell_length_a   7.53677821
_cell_length_b   7.53677821
_cell_length_c   10.65861396
_cell_angle_alpha   90.00000000
_cell_angle_beta   90.00000000
_cell_angle_gamma   90.00000000
_symmetry_Int_Tables_number   1
_chemical_formula_structural   Cr34Fe9Ni11
_chemical_formula_sum   'Cr34 Fe9 Ni11'
_cell_volume   605.44152281
_cell_formula_units_Z   1
loop_
 _symmetry_equiv_pos_site_id
 _symmetry_equiv_pos_as_xyz
  1  'x, y, z'
loop_
 _atom_site_type_symbol
 _atom_site_label
 _atom_site_symmetry_multiplicity
 _atom_site_fract_x
 _atom_site_fract_y
 _atom_site_fract_z
 _atom_site_occupancy
  Cr  Cr0  1  -0.00420800  0.99433522  -0.00299318  1
  Cr  Cr1  1  0.16484669  0.16005406  0.16343217  1
  Ni  Ni2  1  0.99275968  0.99119228  0.33158485  1
  Cr  Cr3  1  0.99337322  0.32996660  0.99209322  1
  Cr  Cr4  1  0.16080700  0.49665550  0.16245253  1
  Cr  Cr5  1  0.99523621  0.32771398  0.33234885  1
  Fe  Fe6  1  0.99499352  0.66237585  -0.00383627  1
  Ni  Ni7  1  0.15942742  0.82724770  0.16373631  1
  Fe  Fe8  1  0.99525623  0.66515086  0.33080701  1
  Cr  Cr9  1  0.32979961  0.99204999  -0.00376160  1
  Ni  Ni10  1  0.49539163  0.16486473  0.16298264  1
  Cr  Cr11  1  0.32864724  0.99315366  0.32625086  1
  Cr  Cr12  1  0.33095993  0.33106244  -0.00212068  1
  Fe  Fe13  1  0.49724903  0.49479532  0.16248313  1
  Ni  Ni14  1  0.32887620  0.33127943  0.32866393  1
  Cr  Cr15  1  0.32836243  0.66292770  -0.00351307  1
  Cr  Cr16  1  0.49823335  0.82814755  0.16161642  1
  Cr  Cr17  1  0.32707800  0.66011819  0.32773713  1
  Cr  Cr18  1  0.66070699  -0.00285574  -0.00453171  1
  Cr  Cr19  1  0.82707567  0.16112125  0.16235241  1
  Ni  Ni20  1  0.66611751  0.99364518  0.33017283  1
  Ni  Ni21  1  0.66030221  0.33189962  -0.00247873  1
  Cr  Cr22  1  0.82557886  0.50007485  0.15927381  1
  Cr  Cr23  1  0.66060337  0.32645751  0.32635274  1
  Ni  Ni24  1  0.66003167  0.65975402  0.99360103  1
  Cr  Cr25  1  0.83033369  0.82528346  0.16395001  1
  Ni  Ni26  1  0.66247616  0.66486303  0.33041569  1
  Cr  Cr27  1  0.16400235  0.16259932  0.49586055  1
  Cr  Cr28  1  0.99285681  -0.00453521  0.65883385  1
  Cr  Cr29  1  0.16515009  0.16276760  0.82655770  1
  Ni  Ni30  1  0.16305747  0.49550842  0.49602270  1
  Cr  Cr31  1  0.99501745  0.32947760  0.66174509  1
  Fe  Fe32  1  0.16247828  0.49549800  0.82806245  1
  Fe  Fe33  1  0.15885612  0.82791501  0.49305142  1
  Cr  Cr34  1  -0.00203359  0.66153378  0.65985660  1
  Cr  Cr35  1  0.16247362  0.82971372  0.83022198  1
  Cr  Cr36  1  0.49291002  0.16180743  0.49474600  1
  Fe  Fe37  1  0.32819387  0.99461450  0.66195520  1
  Cr  Cr38  1  0.49211906  0.16179363  0.82719635  1
  Cr  Cr39  1  0.49416746  0.49532921  0.49358680  1
  Fe  Fe40  1  0.32735666  0.33028193  0.66059342  1
  Cr  Cr41  1  0.49750987  0.49637024  0.82813856  1
  Cr  Cr42  1  0.49880493  0.82846405  0.49795642  1
  Cr  Cr43  1  0.32857068  0.66246122  0.66238487  1
  Fe  Fe44  1  0.49675435  0.82754517  0.82836030  1
  Ni  Ni45  1  0.82955820  0.15698163  0.49331626  1
  Cr  Cr46  1  0.66312948  0.99428873  0.66121544  1
  Cr  Cr47  1  0.82858479  0.16320217  0.83060814  1
  Cr  Cr48  1  0.82834734  0.50033968  0.49435036  1
  Cr  Cr49  1  0.66457374  0.32732536  0.66063843  1
  Cr  Cr50  1  0.82759638  0.49873302  0.83192490  1
  Ni  Ni51  1  0.82941988  0.82937778  0.49174923  1
  Fe  Fe52  1  0.66377655  0.66330216  0.66134960  1
  Cr  Cr53  1  0.82664749  0.82416442  0.83083992  1
" 