566,Ni20Fe56Cr23_17,-226.318478734024, 174.431588172981,Ni20Fe56Cr23,"# generated using pymatgen
 data_Cr7(Fe3Ni)5
_symmetry_space_group_name_H-M   'P 1'
_cell_length_a   7.46591319
_cell_length_b   7.46591319
_cell_length_c   10.55839569
_cell_angle_alpha   90.00000000
_cell_angle_beta   90.00000000
_cell_angle_gamma   90.00000000
_symmetry_Int_Tables_number   1
_chemical_formula_structural   Cr7(Fe3Ni)5
_chemical_formula_sum   'Cr14 Fe30 Ni10'
_cell_volume   588.52349536
_cell_formula_units_Z   2
loop_
 _symmetry_equiv_pos_site_id
 _symmetry_equiv_pos_as_xyz
  1  'x, y, z'
loop_
 _atom_site_type_symbol
 _atom_site_label
 _atom_site_symmetry_multiplicity
 _atom_site_fract_x
 _atom_site_fract_y
 _atom_site_fract_z
 _atom_site_occupancy
  Fe  Fe0  1  0.99948102  0.00147175  0.00246029  1
  Fe  Fe1  1  0.16579524  0.16767658  0.16525658  1
  Fe  Fe2  1  0.99949979  0.00276861  0.33093028  1
  Fe  Fe3  1  0.99713980  0.33309146  0.00144930  1
  Fe  Fe4  1  0.16704221  0.49852775  0.16615324  1
  Fe  Fe5  1  0.99998916  0.33090319  0.33367522  1
  Fe  Fe6  1  0.99960244  0.66593284  0.00191439  1
  Fe  Fe7  1  0.16507670  0.83428107  0.16443297  1
  Cr  Cr8  1  0.99886626  0.66520638  0.33180634  1
  Fe  Fe9  1  0.33389213  0.99928979  0.00074523  1
  Fe  Fe10  1  0.50250218  0.16908548  0.16549657  1
  Cr  Cr11  1  0.33327268  0.00235303  0.33343808  1
  Fe  Fe12  1  0.33506560  0.33433964  0.00175423  1
  Fe  Fe13  1  0.50142053  0.49721251  0.16556624  1
  Fe  Fe14  1  0.33122247  0.33527269  0.33184572  1
  Fe  Fe15  1  0.33506917  0.66668689  0.99953081  1
  Cr  Cr16  1  0.50199606  0.83202694  0.16730078  1
  Fe  Fe17  1  0.33307769  0.66583238  0.33290587  1
  Fe  Fe18  1  0.66735706  0.00183238  0.00099099  1
  Ni  Ni19  1  0.83384127  0.16706627  0.16660768  1
  Fe  Fe20  1  0.66886930  0.00136949  0.33226767  1
  Ni  Ni21  1  0.66780269  0.33392089  0.99965393  1
  Fe  Fe22  1  0.83150996  0.49828246  0.16605713  1
  Fe  Fe23  1  0.66917641  0.33332697  0.33056991  1
  Fe  Fe24  1  0.66605185  0.66461848  0.99927403  1
  Fe  Fe25  1  0.83416270  0.83495934  0.16564742  1
  Fe  Fe26  1  0.66569936  0.66565368  0.33334304  1
  Fe  Fe27  1  0.16395695  0.16804518  0.50030097  1
  Fe  Fe28  1  0.99800446  0.00189672  0.66730274  1
  Cr  Cr29  1  0.16403898  0.16598192  0.83389629  1
  Ni  Ni30  1  0.16535327  0.49783137  0.49841555  1
  Ni  Ni31  1  0.99807196  0.33226273  0.66507182  1
  Cr  Cr32  1  0.16639692  0.49993722  0.83462354  1
  Cr  Cr33  1  0.16743947  0.83277771  0.50264867  1
  Cr  Cr34  1  0.99987563  0.66395558  0.66760938  1
  Ni  Ni35  1  0.16787584  0.83389248  0.83561659  1
  Cr  Cr36  1  0.50298976  0.16636917  0.49955991  1
  Fe  Fe37  1  0.33416511  0.99761821  0.66790523  1
  Cr  Cr38  1  0.50201834  0.16721811  0.83514323  1
  Cr  Cr39  1  0.49995991  0.50112500  0.49829104  1
  Cr  Cr40  1  0.33296720  0.33357836  0.66593213  1
  Ni  Ni41  1  0.50107908  0.50074016  0.83551660  1
  Ni  Ni42  1  0.50013677  0.83424252  0.50062027  1
  Fe  Fe43  1  0.33437435  0.66758072  0.66830185  1
  Ni  Ni44  1  0.49914705  0.83308295  0.83300549  1
  Fe  Fe45  1  0.83454716  0.16822062  0.49974028  1
  Ni  Ni46  1  0.66561490  0.00072688  0.66685852  1
  Fe  Fe47  1  0.83289507  0.16843301  0.83395134  1
  Ni  Ni48  1  0.83442656  0.49649437  0.49889586  1
  Fe  Fe49  1  0.67033264  0.33335189  0.66826742  1
  Fe  Fe50  1  0.83204460  0.49747438  0.83431121  1
  Cr  Cr51  1  0.83153284  0.83569006  0.49696734  1
  Cr  Cr52  1  0.66629924  0.66663530  0.66761714  1
  Cr  Cr53  1  0.83407677  0.83595098  0.83665817  1
" 