6650,Ni20Fe17Cr62_0,-214.755934278601, 172.756216089573,Ni20Fe17Cr62,"# generated using pymatgen
 data_Cr34Fe9Ni11
_symmetry_space_group_name_H-M   'P 1'
_cell_length_a   7.53802203
_cell_length_b   7.53802203
_cell_length_c   10.66037299
_cell_angle_alpha   90.00000000
_cell_angle_beta   90.00000000
_cell_angle_gamma   90.00000000
_symmetry_Int_Tables_number   1
_chemical_formula_structural   Cr34Fe9Ni11
_chemical_formula_sum   'Cr34 Fe9 Ni11'
_cell_volume   605.74132688
_cell_formula_units_Z   1
loop_
 _symmetry_equiv_pos_site_id
 _symmetry_equiv_pos_as_xyz
  1  'x, y, z'
loop_
 _atom_site_type_symbol
 _atom_site_label
 _atom_site_symmetry_multiplicity
 _atom_site_fract_x
 _atom_site_fract_y
 _atom_site_fract_z
 _atom_site_occupancy
  Cr  Cr0  1  -0.00413615  0.99383674  0.99319570  1
  Cr  Cr1  1  0.16268120  0.16378311  0.16229624  1
  Cr  Cr2  1  0.99512465  0.99392349  0.32992137  1
  Cr  Cr3  1  0.99374578  0.33197494  0.99451455  1
  Fe  Fe4  1  0.15765637  0.49669720  0.16360600  1
  Ni  Ni5  1  0.99301452  0.33378310  0.32829889  1
  Ni  Ni6  1  0.99249192  0.66015655  -0.00222286  1
  Fe  Fe7  1  0.15964571  0.82572148  0.16218912  1
  Ni  Ni8  1  0.99439856  0.65732830  0.32643209  1
  Cr  Cr9  1  0.32961064  -0.00428505  -0.00296704  1
  Ni  Ni10  1  0.49688521  0.16122305  0.16218573  1
  Cr  Cr11  1  0.33133287  0.99331095  0.32691887  1
  Cr  Cr12  1  0.32901215  0.32758110  -0.00424413  1
  Cr  Cr13  1  0.49711563  0.49459030  0.16193051  1
  Cr  Cr14  1  0.32943185  0.33038521  0.32867398  1
  Cr  Cr15  1  0.32684357  0.66257662  -0.00153143  1
  Cr  Cr16  1  0.49757298  0.82976378  0.16018890  1
  Cr  Cr17  1  0.32748192  0.66238199  0.32950337  1
  Ni  Ni18  1  0.66084758  0.99442955  -0.00308519  1
  Cr  Cr19  1  0.82634690  0.16315565  0.16520336  1
  Fe  Fe20  1  0.66068816  0.99476403  0.32804793  1
  Cr  Cr21  1  0.66302934  0.32947402  -0.00363669  1
  Ni  Ni22  1  0.83105986  0.49788562  0.16236156  1
  Fe  Fe23  1  0.66367275  0.33018126  0.32694491  1
  Ni  Ni24  1  0.66568644  0.66176365  0.99432531  1
  Cr  Cr25  1  0.82886384  0.82544425  0.16136340  1
  Fe  Fe26  1  0.66351495  0.66085788  0.32819398  1
  Cr  Cr27  1  0.16128511  0.16633339  0.49745074  1
  Cr  Cr28  1  -0.00426860  -0.00376849  0.66294294  1
  Ni  Ni29  1  0.16225164  0.16392168  0.82705610  1
  Ni  Ni30  1  0.16328549  0.49563719  0.49447431  1
  Cr  Cr31  1  0.99509674  0.32903770  0.66334166  1
  Cr  Cr32  1  0.16279982  0.49432388  0.82821319  1
  Cr  Cr33  1  0.16269558  0.82532713  0.49519821  1
  Cr  Cr34  1  -0.00440060  0.66059872  0.66220536  1
  Cr  Cr35  1  0.16158105  0.82803786  0.82970264  1
  Cr  Cr36  1  0.49564764  0.16259553  0.49336620  1
  Cr  Cr37  1  0.32856937  0.99345373  0.66214953  1
  Cr  Cr38  1  0.49326379  0.16250241  0.83101187  1
  Fe  Fe39  1  0.49354033  0.49817110  0.49634580  1
  Fe  Fe40  1  0.32736909  0.33089848  0.66135182  1
  Cr  Cr41  1  0.49545506  0.49758627  0.82611569  1
  Ni  Ni42  1  0.49689981  0.82478603  0.49583277  1
  Ni  Ni43  1  0.33132768  0.65971225  0.65814285  1
  Cr  Cr44  1  0.49755877  0.82608592  0.82924200  1
  Cr  Cr45  1  0.82903389  0.16235053  0.49147292  1
  Cr  Cr46  1  0.66151541  0.99422475  0.66071939  1
  Cr  Cr47  1  0.82966037  0.16107762  0.82917511  1
  Cr  Cr48  1  0.82926885  0.49611581  0.49290411  1
  Cr  Cr49  1  0.66199529  0.33139213  0.66245731  1
  Fe  Fe50  1  0.82860167  0.49737571  0.83066170  1
  Cr  Cr51  1  0.82584556  0.82742542  0.49395740  1
  Fe  Fe52  1  0.65961018  0.66203144  0.66121850  1
  Cr  Cr53  1  0.82667269  0.82585791  0.83046230  1
" 