685,Ni20Fe56Cr23_3,-226.639801028731, 186.693077805284,Ni20Fe56Cr23,"# generated using pymatgen
 data_Cr7(Fe3Ni)5
_symmetry_space_group_name_H-M   'P 1'
_cell_length_a   7.45263580
_cell_length_b   7.45263580
_cell_length_c   10.53961863
_cell_angle_alpha   90.00000000
_cell_angle_beta   90.00000000
_cell_angle_gamma   90.00000000
_symmetry_Int_Tables_number   1
_chemical_formula_structural   Cr7(Fe3Ni)5
_chemical_formula_sum   'Cr14 Fe30 Ni10'
_cell_volume   585.38918328
_cell_formula_units_Z   2
loop_
 _symmetry_equiv_pos_site_id
 _symmetry_equiv_pos_as_xyz
  1  'x, y, z'
loop_
 _atom_site_type_symbol
 _atom_site_label
 _atom_site_symmetry_multiplicity
 _atom_site_fract_x
 _atom_site_fract_y
 _atom_site_fract_z
 _atom_site_occupancy
  Cr  Cr0  1  0.00150756  0.99924584  0.00294561  1
  Ni  Ni1  1  0.16774072  0.16931820  0.16773583  1
  Cr  Cr2  1  1.00070110  1.00015996  0.33367569  1
  Fe  Fe3  1  1.00009043  0.33599954  0.00397463  1
  Ni  Ni4  1  0.16804532  0.50195364  0.17009153  1
  Fe  Fe5  1  1.00078396  0.33675872  0.33347736  1
  Cr  Cr6  1  0.00101885  0.66559510  0.00130152  1
  Fe  Fe7  1  0.16887812  0.83296921  0.16874839  1
  Fe  Fe8  1  1.00014673  0.66668746  0.33420081  1
  Fe  Fe9  1  0.33409470  0.99853152  0.00300538  1
  Ni  Ni10  1  0.50182883  0.16837785  0.16845058  1
  Cr  Cr11  1  0.33562071  0.00241551  0.33413665  1
  Cr  Cr12  1  0.33375102  0.33572322  0.00193055  1
  Fe  Fe13  1  0.50119373  0.50202341  0.16924073  1
  Fe  Fe14  1  0.33469163  0.33518576  0.33217249  1
  Fe  Fe15  1  0.33408587  0.66988380  0.00194293  1
  Fe  Fe16  1  0.50048845  0.83253504  0.16832063  1
  Fe  Fe17  1  0.33405492  0.66832337  0.33473959  1
  Cr  Cr18  1  0.66631825  1.00017116  0.00318090  1
  Fe  Fe19  1  0.83399580  0.16917109  0.16909802  1
  Ni  Ni20  1  0.66676168  0.99949742  0.33406477  1
  Fe  Fe21  1  0.66975552  0.33675012  0.00365500  1
  Fe  Fe22  1  0.83417350  0.50020199  0.16995816  1
  Fe  Fe23  1  0.66758684  0.33414127  0.33308232  1
  Fe  Fe24  1  0.66769574  0.66708914  0.00348668  1
  Ni  Ni25  1  0.83285283  0.83276960  0.16994013  1
  Ni  Ni26  1  0.66875448  0.66721420  0.33384299  1
  Fe  Fe27  1  0.16762329  0.17021378  0.50079435  1
  Fe  Fe28  1  0.00177064  0.99722414  0.66604681  1
  Cr  Cr29  1  0.16608202  0.16693297  0.83366442  1
  Fe  Fe30  1  0.16544813  0.50217951  0.50010743  1
  Fe  Fe31  1  0.00189192  0.33782133  0.66614650  1
  Fe  Fe32  1  0.16715251  0.50215675  0.83343296  1
  Ni  Ni33  1  0.16749297  0.83291691  0.50090303  1
  Fe  Fe34  1  1.00089983  0.66799009  0.66703201  1
  Fe  Fe35  1  0.16922489  0.83178496  0.83279483  1
  Fe  Fe36  1  0.50075670  0.16878746  0.49901463  1
  Cr  Cr37  1  0.33585798  1.00018390  0.66628714  1
  Cr  Cr38  1  0.50137108  0.16789002  0.83359793  1
  Cr  Cr39  1  0.50066466  0.50196760  0.49968910  1
  Fe  Fe40  1  0.33285558  0.33638344  0.66628372  1
  Cr  Cr41  1  0.50195014  0.50324139  0.83455576  1
  Fe  Fe42  1  0.50150385  0.83156425  0.50020546  1
  Ni  Ni43  1  0.33212120  0.66622099  0.66775416  1
  Ni  Ni44  1  0.50028244  0.83131466  0.83517735  1
  Cr  Cr45  1  0.83446466  0.16776956  0.49940186  1
  Cr  Cr46  1  0.66842639  0.99876175  0.66511690  1
  Cr  Cr47  1  0.83554589  0.16911898  0.83499159  1
  Ni  Ni48  1  0.83448683  0.50209733  0.50057506  1
  Fe  Fe49  1  0.66821724  0.33695993  0.66652490  1
  Fe  Fe50  1  0.83452934  0.50216125  0.83225017  1
  Fe  Fe51  1  0.83432892  0.82996923  0.49879770  1
  Fe  Fe52  1  0.66797574  0.66784393  0.66666462  1
  Fe  Fe53  1  0.83267012  0.83206297  0.83400199  1
" 