8060,Ni20Fe32Cr47_5,-220.493299184463, 180.279422457088,Ni20Fe32Cr47,"# generated using pymatgen
 data_Cr26Fe17Ni11
_symmetry_space_group_name_H-M   'P 1'
_cell_length_a   7.50262171
_cell_length_b   7.50262171
_cell_length_c   10.61030937
_cell_angle_alpha   90.00000000
_cell_angle_beta   90.00000000
_cell_angle_gamma   90.00000000
_symmetry_Int_Tables_number   1
_chemical_formula_structural   Cr26Fe17Ni11
_chemical_formula_sum   'Cr26 Fe17 Ni11'
_cell_volume   597.24723149
_cell_formula_units_Z   1
loop_
 _symmetry_equiv_pos_site_id
 _symmetry_equiv_pos_as_xyz
  1  'x, y, z'
loop_
 _atom_site_type_symbol
 _atom_site_label
 _atom_site_symmetry_multiplicity
 _atom_site_fract_x
 _atom_site_fract_y
 _atom_site_fract_z
 _atom_site_occupancy
  Fe  Fe0  1  -0.00228881  0.99698796  -0.00227193  1
  Fe  Fe1  1  0.16541960  0.16622837  0.16348057  1
  Cr  Cr2  1  0.99712010  -0.00105792  0.33130626  1
  Fe  Fe3  1  0.99724758  0.33136559  -0.00033850  1
  Ni  Ni4  1  0.16326538  0.49886186  0.16175316  1
  Cr  Cr5  1  -0.00171224  0.32979168  0.33007664  1
  Fe  Fe6  1  -0.00063399  0.66386191  0.99648841  1
  Cr  Cr7  1  0.16493805  0.83005300  0.16329923  1
  Fe  Fe8  1  0.99656126  0.66412298  0.32962000  1
  Cr  Cr9  1  0.33362125  -0.00180530  0.00029501  1
  Ni  Ni10  1  0.50021936  0.16537820  0.16321864  1
  Fe  Fe11  1  0.33269922  -0.00043557  0.32868765  1
  Cr  Cr12  1  0.33070280  0.33258985  0.99572985  1
  Ni  Ni13  1  0.49704979  0.49506705  0.16285427  1
  Cr  Cr14  1  0.33020966  0.33005279  0.33021068  1
  Ni  Ni15  1  0.32933624  0.66234501  0.99685480  1
  Fe  Fe16  1  0.49756560  0.83022965  0.16207575  1
  Cr  Cr17  1  0.33345778  0.66509126  0.32819874  1
  Ni  Ni18  1  0.66651052  -0.00044321  -0.00200730  1
  Fe  Fe19  1  0.82969735  0.16698484  0.16172067  1
  Cr  Cr20  1  0.66367375  0.99619083  0.32970024  1
  Fe  Fe21  1  0.66118758  0.33008359  -0.00125558  1
  Fe  Fe22  1  0.83017559  0.49579116  0.16344971  1
  Ni  Ni23  1  0.66407423  0.33036373  0.32629296  1
  Cr  Cr24  1  0.66163937  0.66535157  -0.00196617  1
  Cr  Cr25  1  0.83289963  0.83091665  0.16186863  1
  Cr  Cr26  1  0.66413010  0.66620580  0.33140594  1
  Ni  Ni27  1  0.16614448  0.15930615  0.49763487  1
  Fe  Fe28  1  0.99707444  0.99594718  0.66392106  1
  Cr  Cr29  1  0.16379407  0.16051012  0.83064665  1
  Cr  Cr30  1  0.16446941  0.49811762  0.49681750  1
  Cr  Cr31  1  0.00005519  0.32890890  0.66269752  1
  Fe  Fe32  1  0.16466146  0.49869909  0.83342078  1
  Cr  Cr33  1  0.16563124  0.83186722  0.49629442  1
  Cr  Cr34  1  0.99574658  0.66581209  0.66534633  1
  Fe  Fe35  1  0.16372206  0.82983868  0.83338428  1
  Cr  Cr36  1  0.49659870  0.16335632  0.49897143  1
  Fe  Fe37  1  0.33143752  0.99689241  0.66494382  1
  Ni  Ni38  1  0.49828150  0.16383536  0.83133667  1
  Cr  Cr39  1  0.49958898  0.49714012  0.49871230  1
  Cr  Cr40  1  0.32948671  0.33009913  0.66709015  1
  Ni  Ni41  1  0.49823388  0.49802450  0.83198745  1
  Fe  Fe42  1  0.49884768  0.83216119  0.49978348  1
  Cr  Cr43  1  0.33287372  0.66334208  0.66782114  1
  Cr  Cr44  1  0.49699469  0.83229542  0.83190135  1
  Cr  Cr45  1  0.82910458  0.16407444  0.49874152  1
  Fe  Fe46  1  0.66430079  0.99569318  0.66570842  1
  Cr  Cr47  1  0.82910159  0.16252129  0.83335456  1
  Cr  Cr48  1  0.82911660  0.49894388  0.49473211  1
  Cr  Cr49  1  0.66317317  0.33246413  0.66692941  1
  Cr  Cr50  1  0.83000204  0.49813589  0.83273801  1
  Ni  Ni51  1  0.83054118  0.83179168  0.50075493  1
  Ni  Ni52  1  0.66455591  0.66956919  0.66420064  1
  Fe  Fe53  1  0.82967313  0.83245743  0.83135888  1
" 