5542,Ni20Fe56Cr23_2,-226.178435446485, 173.497672715984,Ni20Fe56Cr23,"# generated using pymatgen
 data_Cr7(Fe3Ni)5
_symmetry_space_group_name_H-M   'P 1'
_cell_length_a   7.46101537
_cell_length_b   7.46101537
_cell_length_c   10.55146913
_cell_angle_alpha   90.00000000
_cell_angle_beta   90.00000000
_cell_angle_gamma   90.00000000
_symmetry_Int_Tables_number   1
_chemical_formula_structural   Cr7(Fe3Ni)5
_chemical_formula_sum   'Cr14 Fe30 Ni10'
_cell_volume   587.36599874
_cell_formula_units_Z   2
loop_
 _symmetry_equiv_pos_site_id
 _symmetry_equiv_pos_as_xyz
  1  'x, y, z'
loop_
 _atom_site_type_symbol
 _atom_site_label
 _atom_site_symmetry_multiplicity
 _atom_site_fract_x
 _atom_site_fract_y
 _atom_site_fract_z
 _atom_site_occupancy
  Fe  Fe0  1  0.00147681  1.00037220  0.00050885  1
  Fe  Fe1  1  0.16695149  0.16660527  0.16723300  1
  Ni  Ni2  1  0.99956864  0.99997895  0.33172289  1
  Fe  Fe3  1  0.00233629  0.33023581  0.00071748  1
  Fe  Fe4  1  0.16702824  0.50037496  0.16673639  1
  Fe  Fe5  1  0.00098136  0.33236116  0.33372514  1
  Fe  Fe6  1  0.00228771  0.67056181  1.00017539  1
  Fe  Fe7  1  0.16677192  0.83410969  0.16740865  1
  Fe  Fe8  1  0.00096525  0.66797709  0.33425508  1
  Ni  Ni9  1  0.33299007  0.99949888  0.00147124  1
  Fe  Fe10  1  0.49991255  0.16466402  0.16672495  1
  Fe  Fe11  1  0.33509728  0.00145358  0.33171458  1
  Fe  Fe12  1  0.33167003  0.33089058  0.00078972  1
  Cr  Cr13  1  0.50005963  0.50024936  0.16382149  1
  Fe  Fe14  1  0.33238418  0.33213434  0.33383354  1
  Fe  Fe15  1  0.33278756  0.67083725  0.00055303  1
  Fe  Fe16  1  0.50006565  0.83629242  0.16588115  1
  Fe  Fe17  1  0.33174389  0.66789105  0.33233673  1
  Fe  Fe18  1  0.66636756  0.99926533  0.00117848  1
  Fe  Fe19  1  0.83433192  0.16465597  0.16667421  1
  Ni  Ni20  1  0.66786848  0.00091352  0.33159304  1
  Fe  Fe21  1  0.66717647  0.32973371  1.00034382  1
  Cr  Cr22  1  0.83514719  0.50040762  0.16510897  1
  Cr  Cr23  1  0.66653540  0.33149120  0.33560525  1
  Fe  Fe24  1  0.66621167  0.67209124  1.00022515  1
  Fe  Fe25  1  0.83452021  0.83621498  0.16673313  1
  Cr  Cr26  1  0.66731830  0.66917332  0.33472746  1
  Cr  Cr27  1  0.16772014  0.16411417  0.50141813  1
  Ni  Ni28  1  0.00085648  0.99783254  0.67075125  1
  Fe  Fe29  1  0.16740708  0.16427206  0.83370896  1
  Fe  Fe30  1  0.16771719  0.50078643  0.50034737  1
  Cr  Cr31  1  0.99996749  0.33258997  0.66605559  1
  Cr  Cr32  1  0.16712471  0.50039886  0.83367106  1
  Cr  Cr33  1  0.16530398  0.83540579  0.50142883  1
  Ni  Ni34  1  0.99969048  0.66848283  0.66601264  1
  Fe  Fe35  1  0.16815565  0.83522060  0.83323247  1
  Ni  Ni36  1  0.50007466  0.16665617  0.49977011  1
  Ni  Ni37  1  0.33326690  0.00051997  0.66859679  1
  Cr  Cr38  1  0.49901163  0.16658583  0.83274815  1
  Cr  Cr39  1  0.50016779  0.49962924  0.50478568  1
  Ni  Ni40  1  0.33456971  0.33274251  0.66674288  1
  Cr  Cr41  1  0.50143032  0.50151239  0.83316361  1
  Cr  Cr42  1  0.49895264  0.83680278  0.50038247  1
  Fe  Fe43  1  0.33228285  0.66894178  0.66838943  1
  Ni  Ni44  1  0.49939239  0.83436199  0.83470272  1
  Fe  Fe45  1  0.83349176  0.16384965  0.49988323  1
  Cr  Cr46  1  0.66740416  0.00110595  0.66604336  1
  Fe  Fe47  1  0.83413415  0.16559531  0.83457464  1
  Fe  Fe48  1  0.83550007  0.50120371  0.50151970  1
  Ni  Ni49  1  0.66691229  0.33352706  0.66586947  1
  Cr  Cr50  1  0.83270385  0.50035032  0.83477016  1
  Fe  Fe51  1  0.83524843  0.83633068  0.50005822  1
  Fe  Fe52  1  0.66895151  0.66864129  0.66731356  1
  Fe  Fe53  1  0.83383547  0.83393433  0.83409021  1
" 