5890,Ni20Fe80_7,-242.55396311227, 205.835185624633,Ni20Fe80,"# generated using pymatgen
 data_Fe5Ni22
_symmetry_space_group_name_H-M   'P 1'
_cell_length_a   7.42472084
_cell_length_b   7.42472084
_cell_length_c   10.50014091
_cell_angle_alpha   90.00000000
_cell_angle_beta   90.00000000
_cell_angle_gamma   90.00000000
_symmetry_Int_Tables_number   1
_chemical_formula_structural   Fe5Ni22
_chemical_formula_sum   'Fe10 Ni44'
_cell_volume   578.83580309
_cell_formula_units_Z   2
loop_
 _symmetry_equiv_pos_site_id
 _symmetry_equiv_pos_as_xyz
  1  'x, y, z'
loop_
 _atom_site_type_symbol
 _atom_site_label
 _atom_site_symmetry_multiplicity
 _atom_site_fract_x
 _atom_site_fract_y
 _atom_site_fract_z
 _atom_site_occupancy
  Ni  Ni0  1  1.00232253  1.00235036  0.00349484  1
  Ni  Ni1  1  0.16952928  0.16988170  0.17049699  1
  Ni  Ni2  1  1.00222070  1.00282967  0.33605362  1
  Ni  Ni3  1  0.00294523  0.33581519  1.00230967  1
  Ni  Ni4  1  0.16902574  0.50114207  0.16997002  1
  Ni  Ni5  1  1.00219913  0.33592588  0.33679022  1
  Ni  Ni6  1  1.00282327  0.67011025  1.00174317  1
  Fe  Fe7  1  0.16857304  0.83495735  0.16964662  1
  Ni  Ni8  1  0.00366192  0.66989661  0.33765761  1
  Ni  Ni9  1  0.33593789  1.00231591  1.00276907  1
  Fe  Fe10  1  0.50383929  0.17018420  0.16944920  1
  Ni  Ni11  1  0.33643512  1.00202107  0.33625384  1
  Ni  Ni12  1  0.33639784  0.33706604  1.00257762  1
  Ni  Ni13  1  0.50286322  0.50434834  0.17009408  1
  Ni  Ni14  1  0.33686846  0.33663377  0.33683347  1
  Ni  Ni15  1  0.33644372  0.66910736  1.00221945  1
  Ni  Ni16  1  0.50315990  0.83642086  0.16925878  1
  Ni  Ni17  1  0.33606008  0.66967613  0.33627569  1
  Ni  Ni18  1  0.67032625  1.00229896  1.00163335  1
  Ni  Ni19  1  0.83769122  0.16967469  0.16921462  1
  Ni  Ni20  1  0.67000491  0.00370449  0.33730296  1
  Ni  Ni21  1  0.66939440  0.33651946  1.00226125  1
  Ni  Ni22  1  0.83670635  0.50288568  0.16920845  1
  Ni  Ni23  1  0.66973524  0.33541449  0.33630243  1
  Ni  Ni24  1  0.66914938  0.66984175  0.00328706  1
  Ni  Ni25  1  0.83450466  0.83601315  0.17091868  1
  Fe  Fe26  1  0.66943554  0.66948780  0.33614356  1
  Ni  Ni27  1  0.16951042  0.16882682  0.50235021  1
  Ni  Ni28  1  1.00280157  1.00260300  0.66926236  1
  Ni  Ni29  1  0.17021459  0.16961282  0.83574124  1
  Fe  Fe30  1  0.16999043  0.50199432  0.50276781  1
  Ni  Ni31  1  1.00250348  0.33409829  0.66941645  1
  Ni  Ni32  1  0.16902841  0.50178955  0.83546149  1
  Ni  Ni33  1  0.17104958  0.83694266  0.50251850  1
  Fe  Fe34  1  0.00295634  0.66772952  0.66971185  1
  Ni  Ni35  1  0.16963402  0.83703552  0.83687568  1
  Ni  Ni36  1  0.50235945  0.16856519  0.50180799  1
  Fe  Fe37  1  0.33599465  0.00379957  0.66948129  1
  Ni  Ni38  1  0.50143545  0.16955533  0.83668428  1
  Fe  Fe39  1  0.50263509  0.50174352  0.50314476  1
  Ni  Ni40  1  0.33668983  0.33714566  0.66904128  1
  Ni  Ni41  1  0.50366610  0.50305196  0.83592301  1
  Ni  Ni42  1  0.50192560  0.83609381  0.50312838  1
  Ni  Ni43  1  0.33697981  0.67000124  0.67021947  1
  Ni  Ni44  1  0.50327668  0.83626702  0.83598398  1
  Ni  Ni45  1  0.83654088  0.17182207  0.50322897  1
  Fe  Fe46  1  0.66851327  0.00407811  0.66925921  1
  Fe  Fe47  1  0.83647364  0.16941666  0.83625448  1
  Ni  Ni48  1  0.83604431  0.50255803  0.50203325  1
  Ni  Ni49  1  0.66936416  0.33686391  0.67001051  1
  Ni  Ni50  1  0.83578816  0.50339310  0.83718236  1
  Fe  Fe51  1  0.83657543  0.83823375  0.50302745  1
  Ni  Ni52  1  0.66821200  0.66938798  0.66846904  1
  Ni  Ni53  1  0.83550363  0.83478865  0.83476970  1
" 