8845,Ni20Fe32Cr47_12,-220.256418158006, 178.605064446874,Ni20Fe32Cr47,"# generated using pymatgen
 data_Cr26Fe17Ni11
_symmetry_space_group_name_H-M   'P 1'
_cell_length_a   7.50532860
_cell_length_b   7.50532860
_cell_length_c   10.61413750
_cell_angle_alpha   90.00000000
_cell_angle_beta   90.00000000
_cell_angle_gamma   90.00000000
_symmetry_Int_Tables_number   1
_chemical_formula_structural   Cr26Fe17Ni11
_chemical_formula_sum   'Cr26 Fe17 Ni11'
_cell_volume   597.89391318
_cell_formula_units_Z   1
loop_
 _symmetry_equiv_pos_site_id
 _symmetry_equiv_pos_as_xyz
  1  'x, y, z'
loop_
 _atom_site_type_symbol
 _atom_site_label
 _atom_site_symmetry_multiplicity
 _atom_site_fract_x
 _atom_site_fract_y
 _atom_site_fract_z
 _atom_site_occupancy
  Cr  Cr0  1  -0.00186593  0.99624288  -0.00212263  1
  Ni  Ni1  1  0.16378497  0.16253552  0.16629307  1
  Ni  Ni2  1  0.99719829  0.99495750  0.33114986  1
  Ni  Ni3  1  0.99539593  0.33093566  0.99642420  1
  Cr  Cr4  1  0.16353813  0.49696611  0.16165974  1
  Cr  Cr5  1  0.99736316  0.33113159  0.33152356  1
  Ni  Ni6  1  0.99391191  0.66557714  0.00041717  1
  Cr  Cr7  1  0.16413377  0.83117739  0.16736723  1
  Fe  Fe8  1  0.99724098  0.66292668  0.33186392  1
  Cr  Cr9  1  0.33216035  -0.00182353  0.99554943  1
  Fe  Fe10  1  0.49784737  0.16320096  0.16470061  1
  Ni  Ni11  1  0.33001483  0.00011060  0.33041552  1
  Cr  Cr12  1  0.33279776  0.32879903  0.00138490  1
  Ni  Ni13  1  0.49843638  0.49862014  0.16386091  1
  Cr  Cr14  1  0.33255715  0.33120294  0.32936407  1
  Fe  Fe15  1  0.33141440  0.66224148  -0.00173373  1
  Cr  Cr16  1  0.49845198  0.83130120  0.16455666  1
  Fe  Fe17  1  0.33074535  0.66222550  0.33150889  1
  Fe  Fe18  1  0.66495634  -0.00069959  0.99705260  1
  Cr  Cr19  1  0.83107662  0.16356207  0.16225040  1
  Fe  Fe20  1  0.66513689  -0.00115546  0.33151324  1
  Ni  Ni21  1  0.66191544  0.33098804  -0.00133731  1
  Cr  Cr22  1  0.82994990  0.49701238  0.15961171  1
  Cr  Cr23  1  0.66193614  0.33248608  0.33036712  1
  Fe  Fe24  1  0.66388049  0.66417199  -0.00040087  1
  Ni  Ni25  1  0.82915506  0.83233640  0.16709354  1
  Cr  Cr26  1  0.66710739  0.66155280  0.33304655  1
  Fe  Fe27  1  0.16453692  0.16527476  0.49615380  1
  Cr  Cr28  1  0.99633190  -0.00232821  0.66322002  1
  Cr  Cr29  1  0.16206761  0.16856679  0.82802823  1
  Ni  Ni30  1  0.16311620  0.49420971  0.49869166  1
  Fe  Fe31  1  -0.00131540  0.33059392  0.66089559  1
  Cr  Cr32  1  0.16256009  0.49547419  0.83197729  1
  Cr  Cr33  1  0.16655613  0.83226727  0.49333901  1
  Cr  Cr34  1  0.99498801  0.66441535  0.66104048  1
  Cr  Cr35  1  0.16545518  0.82830476  0.83256076  1
  Fe  Fe36  1  0.49538619  0.16514489  0.49674283  1
  Cr  Cr37  1  0.33115734  0.00040962  0.66743537  1
  Fe  Fe38  1  0.50020841  0.16700432  0.83129853  1
  Fe  Fe39  1  0.49530119  0.49782749  0.49731061  1
  Ni  Ni40  1  0.33214008  0.33103127  0.66033751  1
  Cr  Cr41  1  0.49930677  0.49823733  0.83045812  1
  Cr  Cr42  1  0.49812510  0.83365555  0.49771849  1
  Cr  Cr43  1  0.33097280  0.66226128  0.66459080  1
  Fe  Fe44  1  0.49906187  0.83005402  0.83252109  1
  Fe  Fe45  1  0.83222761  0.16342639  0.49546538  1
  Cr  Cr46  1  0.66554934  -0.00229558  0.66526190  1
  Fe  Fe47  1  0.82843225  0.16644339  0.83324573  1
  Ni  Ni48  1  0.83144505  0.49520396  0.49928309  1
  Cr  Cr49  1  0.66396861  0.33148494  0.66078539  1
  Cr  Cr50  1  0.83064150  0.49456681  0.83285830  1
  Fe  Fe51  1  0.83215156  0.83010755  0.49440814  1
  Fe  Fe52  1  0.66418116  0.66323810  0.66134856  1
  Cr  Cr53  1  0.82749177  0.82912292  0.83192925  1
" 