5855,Ni20Fe17Cr62_13,-214.480242911056, 165.70579593715,Ni20Fe17Cr62,"# generated using pymatgen
 data_Cr34Fe9Ni11
_symmetry_space_group_name_H-M   'P 1'
_cell_length_a   7.54246220
_cell_length_b   7.54246220
_cell_length_c   10.66665234
_cell_angle_alpha   90.00000000
_cell_angle_beta   90.00000000
_cell_angle_gamma   90.00000000
_symmetry_Int_Tables_number   1
_chemical_formula_structural   Cr34Fe9Ni11
_chemical_formula_sum   'Cr34 Fe9 Ni11'
_cell_volume   606.81236942
_cell_formula_units_Z   1
loop_
 _symmetry_equiv_pos_site_id
 _symmetry_equiv_pos_as_xyz
  1  'x, y, z'
loop_
 _atom_site_type_symbol
 _atom_site_label
 _atom_site_symmetry_multiplicity
 _atom_site_fract_x
 _atom_site_fract_y
 _atom_site_fract_z
 _atom_site_occupancy
  Cr  Cr0  1  0.99161683  0.99265241  -0.00483252  1
  Cr  Cr1  1  0.16325716  0.15819432  0.16237795  1
  Fe  Fe2  1  0.99315577  0.99159599  0.32810409  1
  Cr  Cr3  1  -0.00261099  0.33017941  0.99360989  1
  Fe  Fe4  1  0.16288566  0.49526674  0.16050258  1
  Cr  Cr5  1  -0.00250045  0.33054978  0.32977602  1
  Cr  Cr6  1  -0.00435385  0.66193255  0.99455108  1
  Cr  Cr7  1  0.16110434  0.82683876  0.16274161  1
  Ni  Ni8  1  0.99348074  0.66442762  0.32850422  1
  Cr  Cr9  1  0.33014730  0.99337301  0.99344426  1
  Cr  Cr10  1  0.49419426  0.16342826  0.16073267  1
  Fe  Fe11  1  0.32942862  0.99200673  0.32932642  1
  Ni  Ni12  1  0.33000820  0.33360124  -0.00480188  1
  Fe  Fe13  1  0.49372622  0.49502920  0.15984557  1
  Cr  Cr14  1  0.32710027  0.32972696  0.32956846  1
  Fe  Fe15  1  0.32916149  0.65687082  0.99385773  1
  Cr  Cr16  1  0.49252207  0.82522580  0.16212328  1
  Cr  Cr17  1  0.32926087  0.65958262  0.32770762  1
  Cr  Cr18  1  0.66324741  0.99253161  0.99250657  1
  Cr  Cr19  1  0.82773994  0.16382049  0.15986490  1
  Cr  Cr20  1  0.66244317  0.99102367  0.32933151  1
  Ni  Ni21  1  0.65596030  0.33078989  -0.00431050  1
  Cr  Cr22  1  0.82515213  0.49707663  0.16286882  1
  Cr  Cr23  1  0.66039089  0.32988726  0.32658587  1
  Cr  Cr24  1  0.65995507  0.66326356  -0.00498092  1
  Fe  Fe25  1  0.82845732  0.82726985  0.16349872  1
  Ni  Ni26  1  0.66401232  0.66658463  0.32859896  1
  Cr  Cr27  1  0.16207958  0.15776309  0.49346086  1
  Cr  Cr28  1  0.99102110  0.99300174  0.66351198  1
  Cr  Cr29  1  0.16351048  0.16144943  0.82925246  1
  Fe  Fe30  1  0.16081605  0.49875881  0.49564618  1
  Cr  Cr31  1  -0.00097281  0.33203372  0.66164831  1
  Ni  Ni32  1  0.16482938  0.49806489  0.82917177  1
  Cr  Cr33  1  0.16141415  0.82701169  0.49317812  1
  Ni  Ni34  1  0.99343712  0.66257855  0.66153346  1
  Cr  Cr35  1  0.16193003  0.82560651  0.82924433  1
  Cr  Cr36  1  0.49502998  0.15805818  0.49479033  1
  Cr  Cr37  1  0.33275621  0.99297764  0.66053462  1
  Cr  Cr38  1  0.49578486  0.16331756  0.82859368  1
  Cr  Cr39  1  0.50001249  0.49917024  0.49423366  1
  Cr  Cr40  1  0.32657325  0.33161686  0.66063911  1
  Ni  Ni41  1  0.49399619  0.49716980  0.83180125  1
  Ni  Ni42  1  0.49702860  0.82644476  0.49589054  1
  Cr  Cr43  1  0.32948928  0.65973179  0.66419186  1
  Fe  Fe44  1  0.49820534  0.82506759  0.82613967  1
  Cr  Cr45  1  0.82780969  0.16220562  0.49654023  1
  Ni  Ni46  1  0.66179722  0.98765022  0.66229660  1
  Cr  Cr47  1  0.82584730  0.16246749  0.82881405  1
  Cr  Cr48  1  0.82851200  0.50024327  0.49639456  1
  Cr  Cr49  1  0.65982366  0.32826162  0.66211592  1
  Cr  Cr50  1  0.82576786  0.49738777  0.82572431  1
  Fe  Fe51  1  0.82579593  0.82630543  0.49665038  1
  Ni  Ni52  1  0.66214552  0.66773658  0.66198457  1
  Ni  Ni53  1  0.82665237  0.82522526  0.82495010  1
" 