8968,Ni20Fe80_9,-242.659302063232, 207.530466643139,Ni20Fe80,"# generated using pymatgen
 data_Fe5Ni22
_symmetry_space_group_name_H-M   'P 1'
_cell_length_a   7.42364826
_cell_length_b   7.42364826
_cell_length_c   10.49862406
_cell_angle_alpha   90.00000000
_cell_angle_beta   90.00000000
_cell_angle_gamma   90.00000000
_symmetry_Int_Tables_number   1
_chemical_formula_structural   Fe5Ni22
_chemical_formula_sum   'Fe10 Ni44'
_cell_volume   578.58498318
_cell_formula_units_Z   2
loop_
 _symmetry_equiv_pos_site_id
 _symmetry_equiv_pos_as_xyz
  1  'x, y, z'
loop_
 _atom_site_type_symbol
 _atom_site_label
 _atom_site_symmetry_multiplicity
 _atom_site_fract_x
 _atom_site_fract_y
 _atom_site_fract_z
 _atom_site_occupancy
  Fe  Fe0  1  0.00416098  1.00174170  0.00349016  1
  Ni  Ni1  1  0.16997948  0.16928190  0.16897136  1
  Ni  Ni2  1  0.00394761  0.00304718  0.33525964  1
  Ni  Ni3  1  0.00318926  0.33600702  1.00231294  1
  Fe  Fe4  1  0.16881230  0.50301272  0.16938277  1
  Ni  Ni5  1  0.00297780  0.33542088  0.33667786  1
  Ni  Ni6  1  1.00159248  0.66927066  1.00291108  1
  Ni  Ni7  1  0.17087891  0.83639563  0.16988920  1
  Ni  Ni8  1  1.00190382  0.67028240  0.33633154  1
  Ni  Ni9  1  0.33710148  0.00371505  1.00192048  1
  Ni  Ni10  1  0.50250278  0.16907790  0.17055939  1
  Ni  Ni11  1  0.33563826  0.00347321  0.33711818  1
  Ni  Ni12  1  0.33601008  0.33471044  0.00349600  1
  Fe  Fe13  1  0.50338932  0.50345525  0.16972154  1
  Ni  Ni14  1  0.33636629  0.33497073  0.33548691  1
  Ni  Ni15  1  0.33707586  0.67034942  1.00282004  1
  Ni  Ni16  1  0.50197880  0.83695318  0.16932124  1
  Ni  Ni17  1  0.33703030  0.67035777  0.33569938  1
  Fe  Fe18  1  0.66893754  1.00278864  1.00253461  1
  Ni  Ni19  1  0.83631391  0.17087599  0.16952462  1
  Fe  Fe20  1  0.66982550  1.00271277  0.33636854  1
  Fe  Fe21  1  0.66897919  0.33749234  0.00299473  1
  Ni  Ni22  1  0.83643239  0.50229883  0.16980669  1
  Ni  Ni23  1  0.66940706  0.33705020  0.33623552  1
  Ni  Ni24  1  0.67015681  0.67070271  1.00220018  1
  Ni  Ni25  1  0.83601719  0.83571655  0.16972912  1
  Ni  Ni26  1  0.66987874  0.66959058  0.33647153  1
  Ni  Ni27  1  0.16882084  0.16960049  0.50345487  1
  Ni  Ni28  1  1.00231820  1.00255614  0.67072446  1
  Fe  Fe29  1  0.16960820  0.17013308  0.83626774  1
  Ni  Ni30  1  0.16996780  0.50254234  0.50165627  1
  Ni  Ni31  1  0.00365503  0.33592076  0.66949274  1
  Ni  Ni32  1  0.16971675  0.50354448  0.83665495  1
  Ni  Ni33  1  0.16994697  0.83648786  0.50259618  1
  Ni  Ni34  1  1.00175092  0.67032501  0.66934344  1
  Ni  Ni35  1  0.17008654  0.83511567  0.83626545  1
  Fe  Fe36  1  0.50304803  0.17029186  0.50313965  1
  Fe  Fe37  1  0.33619453  1.00270890  0.66960780  1
  Ni  Ni38  1  0.50351015  0.16979675  0.83563104  1
  Ni  Ni39  1  0.50284290  0.50324341  0.50261770  1
  Ni  Ni40  1  0.33635389  0.33558225  0.66983843  1
  Ni  Ni41  1  0.50221977  0.50259332  0.83717867  1
  Ni  Ni42  1  0.50245110  0.83540611  0.50297547  1
  Fe  Fe43  1  0.33604317  0.66834163  0.66947153  1
  Ni  Ni44  1  0.50212437  0.83640157  0.83607416  1
  Ni  Ni45  1  0.83695839  0.17015615  0.50241281  1
  Ni  Ni46  1  0.67001250  1.00213293  0.66928238  1
  Ni  Ni47  1  0.83563807  0.17022994  0.83701021  1
  Ni  Ni48  1  0.83588241  0.50191608  0.50378895  1
  Ni  Ni49  1  0.66877229  0.33633724  0.67047852  1
  Ni  Ni50  1  0.83669585  0.50204937  0.83535321  1
  Ni  Ni51  1  0.83629966  0.83677171  0.50235679  1
  Ni  Ni52  1  0.66986336  0.67031965  0.67023815  1
  Ni  Ni53  1  0.83657870  0.83658824  0.83669775  1
" 