3301,Ni20Fe17Cr62_12,-214.597127781329, 164.5367378262,Ni20Fe17Cr62,"# generated using pymatgen
 data_Cr34Fe9Ni11
_symmetry_space_group_name_H-M   'P 1'
_cell_length_a   7.53494344
_cell_length_b   7.53494344
_cell_length_c   10.65601921
_cell_angle_alpha   90.00000000
_cell_angle_beta   90.00000000
_cell_angle_gamma   90.00000000
_symmetry_Int_Tables_number   1
_chemical_formula_structural   Cr34Fe9Ni11
_chemical_formula_sum   'Cr34 Fe9 Ni11'
_cell_volume   604.99946158
_cell_formula_units_Z   1
loop_
 _symmetry_equiv_pos_site_id
 _symmetry_equiv_pos_as_xyz
  1  'x, y, z'
loop_
 _atom_site_type_symbol
 _atom_site_label
 _atom_site_symmetry_multiplicity
 _atom_site_fract_x
 _atom_site_fract_y
 _atom_site_fract_z
 _atom_site_occupancy
  Cr  Cr0  1  0.99500988  -0.00393036  0.99475761  1
  Cr  Cr1  1  0.16178168  0.16387339  0.16307315  1
  Cr  Cr2  1  -0.00400240  -0.00278713  0.33029584  1
  Ni  Ni3  1  -0.00003708  0.33105032  0.99424606  1
  Ni  Ni4  1  0.16320888  0.49188079  0.16085116  1
  Ni  Ni5  1  -0.00290916  0.32865806  0.33148028  1
  Cr  Cr6  1  -0.00363387  0.65963620  -0.00387676  1
  Cr  Cr7  1  0.16391441  0.82748776  0.16406089  1
  Cr  Cr8  1  0.99377528  0.65989343  0.32854062  1
  Cr  Cr9  1  0.33046354  -0.00049227  -0.00361649  1
  Ni  Ni10  1  0.49447198  0.16181239  0.16200282  1
  Fe  Fe11  1  0.33039387  -0.00169424  0.33024206  1
  Ni  Ni12  1  0.32634494  0.32972523  -0.00262689  1
  Fe  Fe13  1  0.49211746  0.49294859  0.16139097  1
  Cr  Cr14  1  0.32869769  0.32536172  0.32735089  1
  Cr  Cr15  1  0.32774498  0.65861615  0.99316371  1
  Cr  Cr16  1  0.49475818  0.82983935  0.16161862  1
  Cr  Cr17  1  0.32958602  0.66037641  0.32795780  1
  Ni  Ni18  1  0.65898394  -0.00343456  0.99424633  1
  Cr  Cr19  1  0.82828980  0.16291079  0.15853436  1
  Cr  Cr20  1  0.66038782  -0.00281486  0.33038464  1
  Cr  Cr21  1  0.65833042  0.32790117  -0.00180757  1
  Cr  Cr22  1  0.83096454  0.49225540  0.16383670  1
  Cr  Cr23  1  0.66104538  0.32835427  0.32864071  1
  Cr  Cr24  1  0.66202414  0.66293409  -0.00353523  1
  Cr  Cr25  1  0.82787669  0.83081080  0.16123793  1
  Cr  Cr26  1  0.66385507  0.66158342  0.33032435  1
  Ni  Ni27  1  0.16180309  0.16070256  0.49496394  1
  Fe  Fe28  1  -0.00436987  -0.00340214  0.66079929  1
  Cr  Cr29  1  0.16020568  0.16498968  0.82875543  1
  Cr  Cr30  1  0.16183136  0.49427431  0.49668997  1
  Fe  Fe31  1  -0.00374796  0.32968695  0.66117020  1
  Ni  Ni32  1  0.16347170  0.49451930  0.82825540  1
  Cr  Cr33  1  0.16523971  0.82971447  0.49356858  1
  Cr  Cr34  1  -0.00410070  0.66242648  0.66215157  1
  Cr  Cr35  1  0.16459859  0.82758592  0.82815807  1
  Fe  Fe36  1  0.49458008  0.16288788  0.49597388  1
  Cr  Cr37  1  0.32891056  -0.00321407  0.65965015  1
  Cr  Cr38  1  0.49785916  0.16231637  0.82915848  1
  Cr  Cr39  1  0.49624100  0.49641758  0.49688388  1
  Cr  Cr40  1  0.32854863  0.32829572  0.66269264  1
  Cr  Cr41  1  0.49359914  0.49544728  0.82802493  1
  Fe  Fe42  1  0.49578536  0.82979015  0.49623912  1
  Ni  Ni43  1  0.32918982  0.66420417  0.66397786  1
  Fe  Fe44  1  0.49541622  0.82935606  0.82797087  1
  Cr  Cr45  1  0.82977412  0.16466979  0.49870908  1
  Fe  Fe46  1  0.66086315  -0.00434189  0.66123157  1
  Cr  Cr47  1  0.82808398  0.16317289  0.82864152  1
  Ni  Ni48  1  0.82799284  0.49335123  0.49632047  1
  Ni  Ni49  1  0.66362921  0.32642298  0.65957888  1
  Cr  Cr50  1  0.82921275  0.49133909  0.82741376  1
  Fe  Fe51  1  0.82949622  0.82893018  0.49667339  1
  Cr  Cr52  1  0.66265624  0.66219528  0.66057775  1
  Cr  Cr53  1  0.82649442  0.83221402  0.82970331  1
" 