20,Ni20Fe56Cr23_16,-226.771255283395, 181.693347524283,Ni20Fe56Cr23,"# generated using pymatgen
 data_Cr7(Fe3Ni)5
_symmetry_space_group_name_H-M   'P 1'
_cell_length_a   7.46108120
_cell_length_b   7.46108120
_cell_length_c   10.55156222
_cell_angle_alpha   90.00000000
_cell_angle_beta   90.00000000
_cell_angle_gamma   90.00000000
_symmetry_Int_Tables_number   1
_chemical_formula_structural   Cr7(Fe3Ni)5
_chemical_formula_sum   'Cr14 Fe30 Ni10'
_cell_volume   587.38154428
_cell_formula_units_Z   2
loop_
 _symmetry_equiv_pos_site_id
 _symmetry_equiv_pos_as_xyz
  1  'x, y, z'
loop_
 _atom_site_type_symbol
 _atom_site_label
 _atom_site_symmetry_multiplicity
 _atom_site_fract_x
 _atom_site_fract_y
 _atom_site_fract_z
 _atom_site_occupancy
  Fe  Fe0  1  0.00127881  0.00443479  0.99938311  1
  Fe  Fe1  1  0.16912634  0.16962711  0.16584837  1
  Cr  Cr2  1  0.00174653  0.00084644  0.33455561  1
  Fe  Fe3  1  1.00005490  0.33046303  0.00070052  1
  Fe  Fe4  1  0.16905396  0.49845048  0.16857396  1
  Fe  Fe5  1  0.00162264  0.33522658  0.33413520  1
  Cr  Cr6  1  0.00053351  0.66698426  0.00093499  1
  Cr  Cr7  1  0.16957249  0.83395072  0.16714210  1
  Fe  Fe8  1  0.00201898  0.66375204  0.33517259  1
  Fe  Fe9  1  0.33364017  0.00295743  0.99949033  1
  Fe  Fe10  1  0.49821497  0.16775018  0.16758571  1
  Fe  Fe11  1  0.33589199  0.00349485  0.33582896  1
  Fe  Fe12  1  0.33470979  0.33229514  0.00075648  1
  Ni  Ni13  1  0.49840800  0.49792178  0.16508253  1
  Ni  Ni14  1  0.33214756  0.33466798  0.33395112  1
  Fe  Fe15  1  0.33561298  0.66551281  1.00034358  1
  Cr  Cr16  1  0.49803413  0.83387301  0.16905838  1
  Fe  Fe17  1  0.33425734  0.66408395  0.33562060  1
  Cr  Cr18  1  0.66703093  0.00183400  0.99969296  1
  Fe  Fe19  1  0.83332243  0.16944126  0.16729424  1
  Ni  Ni20  1  0.66558123  0.00057539  0.33462291  1
  Fe  Fe21  1  0.66618334  0.33320315  0.00070158  1
  Fe  Fe22  1  0.83414451  0.49822351  0.16654491  1
  Cr  Cr23  1  0.66328423  0.33446595  0.33306651  1
  Cr  Cr24  1  0.66530531  0.66666240  0.99888931  1
  Cr  Cr25  1  0.83403972  0.83569532  0.16818495  1
  Cr  Cr26  1  0.66688924  0.66636956  0.33470975  1
  Fe  Fe27  1  0.17056185  0.16827658  0.50155413  1
  Ni  Ni28  1  0.00073054  0.99820446  0.66870781  1
  Ni  Ni29  1  0.16815972  0.16624428  0.83391274  1
  Ni  Ni30  1  0.16941518  0.50169828  0.49911400  1
  Cr  Cr31  1  0.00497302  0.33226130  0.66502117  1
  Cr  Cr32  1  0.16958392  0.49925642  0.83372161  1
  Fe  Fe33  1  0.16786939  0.83289211  0.50183596  1
  Fe  Fe34  1  1.00011310  0.66771537  0.66479293  1
  Cr  Cr35  1  0.16868933  0.83451258  0.83353333  1
  Fe  Fe36  1  0.49813770  0.16844794  0.50148053  1
  Fe  Fe37  1  0.33439835  0.00379789  0.66673396  1
  Fe  Fe38  1  0.49882085  0.16822184  0.83190860  1
  Ni  Ni39  1  0.49861675  0.50003995  0.50277101  1
  Ni  Ni40  1  0.33473690  0.33435743  0.66706704  1
  Fe  Fe41  1  0.49821303  0.49851053  0.83238998  1
  Fe  Fe42  1  0.49985482  0.83466173  0.50103568  1
  Fe  Fe43  1  0.33510792  0.66699364  0.66518199  1
  Fe  Fe44  1  0.49982851  0.83435325  0.83176982  1
  Cr  Cr45  1  0.83094397  0.16663483  0.50190315  1
  Ni  Ni46  1  0.66663921  0.99860823  0.66750450  1
  Fe  Fe47  1  0.83452370  0.16572985  0.83143559  1
  Fe  Fe48  1  0.83310902  0.50103441  0.50225352  1
  Ni  Ni49  1  0.66277488  0.33323053  0.66793259  1
  Cr  Cr50  1  0.83130917  0.49806448  0.83048985  1
  Fe  Fe51  1  0.83349954  0.83249995  0.50217434  1
  Fe  Fe52  1  0.66553157  0.66731220  0.66584560  1
  Fe  Fe53  1  0.83374315  0.83526794  0.83164845  1
" 