4996,Ni20Fe17Cr62_17,-214.956470633623, 168.095145073394,Ni20Fe17Cr62,"# generated using pymatgen
 data_Cr34Fe9Ni11
_symmetry_space_group_name_H-M   'P 1'
_cell_length_a   7.54696719
_cell_length_b   7.54696719
_cell_length_c   10.67302335
_cell_angle_alpha   90.00000000
_cell_angle_beta   90.00000000
_cell_angle_gamma   90.00000000
_symmetry_Int_Tables_number   1
_chemical_formula_structural   Cr34Fe9Ni11
_chemical_formula_sum   'Cr34 Fe9 Ni11'
_cell_volume   607.90033553
_cell_formula_units_Z   1
loop_
 _symmetry_equiv_pos_site_id
 _symmetry_equiv_pos_as_xyz
  1  'x, y, z'
loop_
 _atom_site_type_symbol
 _atom_site_label
 _atom_site_symmetry_multiplicity
 _atom_site_fract_x
 _atom_site_fract_y
 _atom_site_fract_z
 _atom_site_occupancy
  Cr  Cr0  1  0.99450192  0.99194099  0.99388566  1
  Ni  Ni1  1  0.16163838  0.15800119  0.16369529  1
  Ni  Ni2  1  0.99272020  0.99204917  0.32806760  1
  Cr  Cr3  1  -0.00417209  0.32866976  -0.00480610  1
  Cr  Cr4  1  0.15964446  0.49609340  0.16234667  1
  Cr  Cr5  1  -0.00410595  0.32424712  0.32820410  1
  Cr  Cr6  1  0.99398344  0.66353955  0.99463794  1
  Cr  Cr7  1  0.16096750  0.82750652  0.16209727  1
  Fe  Fe8  1  0.99164593  0.66455991  0.32782387  1
  Cr  Cr9  1  0.32553995  0.99425247  -0.00303059  1
  Fe  Fe10  1  0.49603206  0.16082693  0.16111348  1
  Fe  Fe11  1  0.32636129  -0.00482327  0.32694849  1
  Cr  Cr12  1  0.32766073  0.32902270  -0.00238330  1
  Cr  Cr13  1  0.49661526  0.49713118  0.15872983  1
  Cr  Cr14  1  0.32801471  0.32623905  0.32654984  1
  Ni  Ni15  1  0.32736487  0.66020892  0.99041568  1
  Cr  Cr16  1  0.49567986  0.82846625  0.16322337  1
  Cr  Cr17  1  0.32947454  0.65969918  0.32863190  1
  Cr  Cr18  1  0.66393242  0.99262050  -0.00513633  1
  Cr  Cr19  1  0.82821347  0.16160348  0.15959006  1
  Fe  Fe20  1  0.66594122  0.99459637  0.32853086  1
  Ni  Ni21  1  0.66087685  0.33031690  0.99283637  1
  Cr  Cr22  1  0.82746806  0.49653965  0.16258400  1
  Cr  Cr23  1  0.66018132  0.32977374  0.32879683  1
  Cr  Cr24  1  0.66323643  0.66124569  0.99363430  1
  Ni  Ni25  1  0.82749681  0.82965998  0.16483644  1
  Ni  Ni26  1  0.66463501  0.66678921  0.32834143  1
  Cr  Cr27  1  0.15832410  0.16056426  0.49505022  1
  Cr  Cr28  1  0.99286410  0.99218047  0.66280530  1
  Cr  Cr29  1  0.15994208  0.16289168  0.82745824  1
  Cr  Cr30  1  0.15831960  0.49649136  0.49587921  1
  Ni  Ni31  1  0.99411350  0.33043627  0.66156640  1
  Ni  Ni32  1  0.15930208  0.49882390  0.82616603  1
  Cr  Cr33  1  0.16038680  0.82627047  0.49502075  1
  Fe  Fe34  1  0.99316219  0.66025121  0.66304007  1
  Fe  Fe35  1  0.16001458  0.82470600  0.82753042  1
  Cr  Cr36  1  0.49672535  0.15839707  0.49361686  1
  Cr  Cr37  1  0.32661687  0.99333142  0.66122209  1
  Cr  Cr38  1  0.49645869  0.16002305  0.82979005  1
  Cr  Cr39  1  0.49478409  0.49757613  0.49600593  1
  Cr  Cr40  1  0.32676742  0.33014910  0.66081044  1
  Fe  Fe41  1  0.49458835  0.49367623  0.82918623  1
  Cr  Cr42  1  0.49523274  0.82803492  0.49264550  1
  Fe  Fe43  1  0.32551655  0.66057792  0.66391800  1
  Cr  Cr44  1  0.49189920  0.82682540  0.82771582  1
  Ni  Ni45  1  0.83003063  0.15876130  0.49506570  1
  Cr  Cr46  1  0.66442928  0.99195560  0.65901130  1
  Cr  Cr47  1  0.82770202  0.16517374  0.82750052  1
  Cr  Cr48  1  0.83013427  0.49488121  0.49303242  1
  Cr  Cr49  1  0.66292207  0.32933217  0.66107508  1
  Ni  Ni50  1  0.83097869  0.49585404  0.82785540  1
  Ni  Ni51  1  0.82904148  0.82858665  0.49182140  1
  Cr  Cr52  1  0.66285512  0.66195343  0.66188991  1
  Fe  Fe53  1  0.82941955  0.82559846  0.82723578  1
" 