6110,Ni20Fe80_16,-242.773921150992, 205.198057351195,Ni20Fe80,"# generated using pymatgen
 data_Fe5Ni22
_symmetry_space_group_name_H-M   'P 1'
_cell_length_a   7.42472606
_cell_length_b   7.42472606
_cell_length_c   10.50014829
_cell_angle_alpha   90.00000000
_cell_angle_beta   90.00000000
_cell_angle_gamma   90.00000000
_symmetry_Int_Tables_number   1
_chemical_formula_structural   Fe5Ni22
_chemical_formula_sum   'Fe10 Ni44'
_cell_volume   578.83702430
_cell_formula_units_Z   2
loop_
 _symmetry_equiv_pos_site_id
 _symmetry_equiv_pos_as_xyz
  1  'x, y, z'
loop_
 _atom_site_type_symbol
 _atom_site_label
 _atom_site_symmetry_multiplicity
 _atom_site_fract_x
 _atom_site_fract_y
 _atom_site_fract_z
 _atom_site_occupancy
  Ni  Ni0  1  1.00274877  1.00212423  0.00312748  1
  Ni  Ni1  1  0.16887495  0.16983602  0.16948576  1
  Ni  Ni2  1  1.00204009  1.00268021  0.33645504  1
  Ni  Ni3  1  1.00180498  0.33657964  0.00296536  1
  Ni  Ni4  1  0.17031330  0.50327034  0.16894424  1
  Ni  Ni5  1  1.00158043  0.33614043  0.33581138  1
  Ni  Ni6  1  1.00219359  0.66983317  1.00240827  1
  Ni  Ni7  1  0.16855260  0.83544430  0.16899827  1
  Ni  Ni8  1  0.00314447  0.66961772  0.33687829  1
  Ni  Ni9  1  0.33629876  1.00261342  0.00320085  1
  Ni  Ni10  1  0.50389454  0.17029742  0.16989250  1
  Ni  Ni11  1  0.33716075  1.00192410  0.33566486  1
  Ni  Ni12  1  0.33746449  0.33612995  0.00328253  1
  Ni  Ni13  1  0.50284404  0.50293953  0.16982621  1
  Ni  Ni14  1  0.33712361  0.33641738  0.33622595  1
  Ni  Ni15  1  0.33622733  0.66982007  1.00178305  1
  Ni  Ni16  1  0.50384160  0.83527718  0.16818085  1
  Ni  Ni17  1  0.33614751  0.67018870  0.33661981  1
  Fe  Fe18  1  0.66973860  0.00330716  0.00366064  1
  Ni  Ni19  1  0.83587796  0.16849727  0.16867625  1
  Ni  Ni20  1  0.66929860  0.00365428  0.33642063  1
  Ni  Ni21  1  0.66954026  0.33661448  1.00229157  1
  Fe  Fe22  1  0.83647645  0.50245023  0.17024476  1
  Ni  Ni23  1  0.66982204  0.33530152  0.33701722  1
  Fe  Fe24  1  0.66974275  0.66905075  1.00174719  1
  Ni  Ni25  1  0.83632623  0.83642945  0.17083952  1
  Fe  Fe26  1  0.66872366  0.66981899  0.33713109  1
  Ni  Ni27  1  0.16888419  0.16946994  0.50237906  1
  Ni  Ni28  1  0.00301011  0.00306198  0.66921507  1
  Ni  Ni29  1  0.17021190  0.16956344  0.83668181  1
  Ni  Ni30  1  0.16922751  0.50318765  0.50383767  1
  Ni  Ni31  1  1.00267038  0.33588533  0.66986024  1
  Ni  Ni32  1  0.17046561  0.50288668  0.83574713  1
  Ni  Ni33  1  0.16941226  0.83590483  0.50342776  1
  Ni  Ni34  1  1.00194906  0.66963190  0.66941133  1
  Ni  Ni35  1  0.16686021  0.83609920  0.83614739  1
  Ni  Ni36  1  0.50343383  0.16954068  0.50260059  1
  Ni  Ni37  1  0.33597177  0.00325399  0.66945043  1
  Ni  Ni38  1  0.50362342  0.17054736  0.83611094  1
  Ni  Ni39  1  0.50303739  0.50299789  0.50305484  1
  Ni  Ni40  1  0.33656699  0.33565980  0.66902878  1
  Ni  Ni41  1  0.50296450  0.50181137  0.83554810  1
  Ni  Ni42  1  0.50267533  0.83603708  0.50381619  1
  Ni  Ni43  1  0.33684195  0.66967098  0.66990682  1
  Fe  Fe44  1  0.50049107  0.83636556  0.83553793  1
  Ni  Ni45  1  0.83624038  0.16978784  0.50390668  1
  Fe  Fe46  1  0.66921842  1.00240511  0.66885601  1
  Fe  Fe47  1  0.83778445  0.16960660  0.83657607  1
  Ni  Ni48  1  0.83622093  0.50235358  0.50307303  1
  Fe  Fe49  1  0.66895309  0.33689085  0.66895666  1
  Fe  Fe50  1  0.83737003  0.50285229  0.83521806  1
  Fe  Fe51  1  0.83647033  0.83615307  0.50303278  1
  Ni  Ni52  1  0.66945634  0.66920845  0.66949172  1
  Ni  Ni53  1  0.83608840  0.83681085  0.83524957  1
" 