7815,Ni20Fe80_0,-243.103976644722, 207.418420766928,Ni20Fe80,"# generated using pymatgen
 data_Fe5Ni22
_symmetry_space_group_name_H-M   'P 1'
_cell_length_a   7.42639795
_cell_length_b   7.42639795
_cell_length_c   10.50251271
_cell_angle_alpha   90.00000000
_cell_angle_beta   90.00000000
_cell_angle_gamma   90.00000000
_symmetry_Int_Tables_number   1
_chemical_formula_structural   Fe5Ni22
_chemical_formula_sum   'Fe10 Ni44'
_cell_volume   579.22813818
_cell_formula_units_Z   2
loop_
 _symmetry_equiv_pos_site_id
 _symmetry_equiv_pos_as_xyz
  1  'x, y, z'
loop_
 _atom_site_type_symbol
 _atom_site_label
 _atom_site_symmetry_multiplicity
 _atom_site_fract_x
 _atom_site_fract_y
 _atom_site_fract_z
 _atom_site_occupancy
  Ni  Ni0  1  0.00323628  1.00224182  0.00310531  1
  Ni  Ni1  1  0.16993775  0.16930125  0.16937081  1
  Ni  Ni2  1  0.00383999  1.00233412  0.33630674  1
  Ni  Ni3  1  1.00226723  0.33621849  0.00282890  1
  Ni  Ni4  1  0.16908582  0.50156413  0.16852587  1
  Ni  Ni5  1  1.00118271  0.33622711  0.33661497  1
  Ni  Ni6  1  1.00249745  0.66975359  0.00307546  1
  Ni  Ni7  1  0.16913199  0.83734522  0.16903258  1
  Ni  Ni8  1  0.00319211  0.66964870  0.33633513  1
  Ni  Ni9  1  0.33616483  1.00228184  0.00314446  1
  Ni  Ni10  1  0.50167694  0.16964982  0.16896248  1
  Ni  Ni11  1  0.33570318  1.00147629  0.33591703  1
  Ni  Ni12  1  0.33682386  0.33586941  0.00371054  1
  Ni  Ni13  1  0.50345813  0.50213898  0.16896346  1
  Fe  Fe14  1  0.33479528  0.33633262  0.33581243  1
  Ni  Ni15  1  0.33655418  0.67006242  1.00230195  1
  Ni  Ni16  1  0.50306819  0.83642336  0.16864800  1
  Ni  Ni17  1  0.33603731  0.67082022  0.33673131  1
  Ni  Ni18  1  0.66880744  1.00250851  0.00277128  1
  Fe  Fe19  1  0.83613825  0.16972354  0.16977410  1
  Fe  Fe20  1  0.66991191  1.00223431  0.33556592  1
  Ni  Ni21  1  0.66911716  0.33660747  1.00252766  1
  Ni  Ni22  1  0.83566357  0.50294991  0.16930500  1
  Ni  Ni23  1  0.66983709  0.33656643  0.33626710  1
  Ni  Ni24  1  0.66915857  0.66909112  0.00363888  1
  Ni  Ni25  1  0.83601583  0.83556791  0.16901982  1
  Fe  Fe26  1  0.66984770  0.66945550  0.33619757  1
  Ni  Ni27  1  0.16861357  0.16935684  0.50265149  1
  Ni  Ni28  1  0.00400718  1.00206116  0.66880039  1
  Ni  Ni29  1  0.16935262  0.16878311  0.83618651  1
  Ni  Ni30  1  0.16942635  0.50145606  0.50352504  1
  Ni  Ni31  1  1.00217359  0.33617772  0.66876962  1
  Fe  Fe32  1  0.16914502  0.50348619  0.83632440  1
  Ni  Ni33  1  0.16947313  0.83739474  0.50295396  1
  Ni  Ni34  1  1.00157886  0.66997528  0.66879983  1
  Ni  Ni35  1  0.16930449  0.83826722  0.83622383  1
  Fe  Fe36  1  0.50260915  0.16965439  0.50248259  1
  Ni  Ni37  1  0.33544051  0.00287354  0.66914826  1
  Fe  Fe38  1  0.50245927  0.16915618  0.83683245  1
  Ni  Ni39  1  0.50328325  0.50289198  0.50271293  1
  Ni  Ni40  1  0.33695232  0.33504159  0.66827338  1
  Ni  Ni41  1  0.50419702  0.50266647  0.83653343  1
  Ni  Ni42  1  0.50285426  0.83557185  0.50299573  1
  Fe  Fe43  1  0.33601207  0.66909317  0.66902309  1
  Ni  Ni44  1  0.50299895  0.83555887  0.83656677  1
  Ni  Ni45  1  0.83732334  0.16978721  0.50305803  1
  Fe  Fe46  1  0.67016705  1.00240643  0.66958793  1
  Fe  Fe47  1  0.83628371  0.16915364  0.83575700  1
  Ni  Ni48  1  0.83549647  0.50203489  0.50302838  1
  Ni  Ni49  1  0.66908569  0.33746757  0.66941772  1
  Ni  Ni50  1  0.83470242  0.50271625  0.83587811  1
  Ni  Ni51  1  0.83588924  0.83639022  0.50327147  1
  Ni  Ni52  1  0.66990012  0.66845574  0.66861332  1
  Ni  Ni53  1  0.83590871  0.83551668  0.83591866  1
" 