1850,Ni20Fe32Cr47_9,-220.519643292885, 177.360421762,Ni20Fe32Cr47,"# generated using pymatgen
 data_Cr26Fe17Ni11
_symmetry_space_group_name_H-M   'P 1'
_cell_length_a   7.50966533
_cell_length_b   7.50966533
_cell_length_c   10.62027056
_cell_angle_alpha   90.00000000
_cell_angle_beta   90.00000000
_cell_angle_gamma   90.00000000
_symmetry_Int_Tables_number   1
_chemical_formula_structural   Cr26Fe17Ni11
_chemical_formula_sum   'Cr26 Fe17 Ni11'
_cell_volume   598.93093698
_cell_formula_units_Z   1
loop_
 _symmetry_equiv_pos_site_id
 _symmetry_equiv_pos_as_xyz
  1  'x, y, z'
loop_
 _atom_site_type_symbol
 _atom_site_label
 _atom_site_symmetry_multiplicity
 _atom_site_fract_x
 _atom_site_fract_y
 _atom_site_fract_z
 _atom_site_occupancy
  Ni  Ni0  1  -0.00067691  0.00171156  0.99476362  1
  Ni  Ni1  1  0.16051610  0.16401767  0.16582537  1
  Ni  Ni2  1  0.99643750  0.00053587  0.33197184  1
  Ni  Ni3  1  -0.00208957  0.32701653  -0.00222010  1
  Cr  Cr4  1  0.16095431  0.49444707  0.16426338  1
  Fe  Fe5  1  0.99493527  0.32709996  0.33045089  1
  Cr  Cr6  1  0.99676360  0.66397198  0.99436608  1
  Cr  Cr7  1  0.16079142  0.83236943  0.16152025  1
  Cr  Cr8  1  0.99309652  0.66544362  0.33343659  1
  Cr  Cr9  1  0.32844269  -0.00106962  -0.00250886  1
  Ni  Ni10  1  0.49702405  0.16367312  0.16548857  1
  Fe  Fe11  1  0.32931373  -0.00231170  0.33050418  1
  Cr  Cr12  1  0.32947845  0.32841943  0.99451005  1
  Cr  Cr13  1  0.49560671  0.49567150  0.16133233  1
  Cr  Cr14  1  0.32963845  0.32584581  0.33137087  1
  Fe  Fe15  1  0.32829434  0.66344860  0.99422484  1
  Cr  Cr16  1  0.49802540  0.83294833  0.16518681  1
  Cr  Cr17  1  0.33161537  0.66626634  0.33086615  1
  Cr  Cr18  1  0.66717427  0.00014842  0.00052385  1
  Fe  Fe19  1  0.83506928  0.16406466  0.16428420  1
  Fe  Fe20  1  0.66628438  -0.00211184  0.33186450  1
  Cr  Cr21  1  0.66720386  0.32922773  0.99646005  1
  Fe  Fe22  1  0.83245372  0.49391516  0.16334254  1
  Cr  Cr23  1  0.66626490  0.32927470  0.32920911  1
  Cr  Cr24  1  0.66428167  0.66240998  -0.00209622  1
  Cr  Cr25  1  0.83269055  0.83336865  0.16392492  1
  Cr  Cr26  1  0.66553432  0.66469064  0.33274674  1
  Fe  Fe27  1  0.16135901  0.15931649  0.49667258  1
  Fe  Fe28  1  0.99605398  -0.00271319  0.66393904  1
  Ni  Ni29  1  0.15974044  0.16482599  0.82915143  1
  Cr  Cr30  1  0.15972685  0.49382033  0.49504091  1
  Cr  Cr31  1  0.99594745  0.32819768  0.66165777  1
  Fe  Fe32  1  0.16042398  0.49653316  0.82988887  1
  Cr  Cr33  1  0.16167968  0.83123198  0.49863352  1
  Ni  Ni34  1  0.99359145  0.66564712  0.66362523  1
  Fe  Fe35  1  0.16264529  0.83432684  0.82912176  1
  Cr  Cr36  1  0.49824961  0.16199695  0.49943302  1
  Fe  Fe37  1  0.32889238  0.99633919  0.66469243  1
  Cr  Cr38  1  0.50005733  0.16377870  0.82735353  1
  Cr  Cr39  1  0.49760880  0.49650157  0.50074993  1
  Cr  Cr40  1  0.32905114  0.32726106  0.66483863  1
  Fe  Fe41  1  0.49962891  0.49724244  0.82795372  1
  Ni  Ni42  1  0.50176273  0.83464467  0.49867411  1
  Cr  Cr43  1  0.32904744  0.66538139  0.66557991  1
  Cr  Cr44  1  0.50018180  0.83076806  0.83004393  1
  Fe  Fe45  1  0.83067684  0.16131215  0.49747807  1
  Fe  Fe46  1  0.66704398  0.99650858  0.66242733  1
  Fe  Fe47  1  0.83355516  0.16464649  0.83009412  1
  Fe  Fe48  1  0.82839965  0.49864392  0.50037284  1
  Ni  Ni49  1  0.66690573  0.32985471  0.66538435  1
  Fe  Fe50  1  0.83141598  0.49532068  0.82802674  1
  Ni  Ni51  1  0.82998046  0.83365538  0.49942416  1
  Ni  Ni52  1  0.66631893  0.66449141  0.66189864  1
  Cr  Cr53  1  0.83170427  0.83274633  0.82900456  1
" 