304,Ni20Fe56Cr23_10,-226.683589694221, 181.944158681361,Ni20Fe56Cr23,"# generated using pymatgen
 data_Cr7(Fe3Ni)5
_symmetry_space_group_name_H-M   'P 1'
_cell_length_a   7.46180847
_cell_length_b   7.46180847
_cell_length_c   10.55259074
_cell_angle_alpha   90.00000000
_cell_angle_beta   90.00000000
_cell_angle_gamma   90.00000000
_symmetry_Int_Tables_number   1
_chemical_formula_structural   Cr7(Fe3Ni)5
_chemical_formula_sum   'Cr14 Fe30 Ni10'
_cell_volume   587.55332813
_cell_formula_units_Z   2
loop_
 _symmetry_equiv_pos_site_id
 _symmetry_equiv_pos_as_xyz
  1  'x, y, z'
loop_
 _atom_site_type_symbol
 _atom_site_label
 _atom_site_symmetry_multiplicity
 _atom_site_fract_x
 _atom_site_fract_y
 _atom_site_fract_z
 _atom_site_occupancy
  Fe  Fe0  1  0.99983123  0.00395958  0.99912742  1
  Fe  Fe1  1  0.16620227  0.16817832  0.16774160  1
  Fe  Fe2  1  0.99990217  0.00247661  0.33624187  1
  Ni  Ni3  1  0.00053213  0.33202416  1.00021836  1
  Cr  Cr4  1  0.16574517  0.49828400  0.16831708  1
  Fe  Fe5  1  0.00200267  0.33278237  0.33435710  1
  Fe  Fe6  1  0.99809231  0.66349914  0.99920762  1
  Cr  Cr7  1  0.16580543  0.83741818  0.16870010  1
  Fe  Fe8  1  0.00099847  0.66594505  0.33519083  1
  Fe  Fe9  1  0.33378036  0.00508297  0.00091391  1
  Fe  Fe10  1  0.49856003  0.16624452  0.16816348  1
  Fe  Fe11  1  0.33515556  0.00253349  0.33516355  1
  Fe  Fe12  1  0.33235982  0.33132122  0.00130452  1
  Ni  Ni13  1  0.50049833  0.49815910  0.16708080  1
  Ni  Ni14  1  0.33252249  0.33264840  0.33321976  1
  Cr  Cr15  1  0.33451990  0.66613904  0.00326982  1
  Fe  Fe16  1  0.50065250  0.83440288  0.16660557  1
  Fe  Fe17  1  0.33311355  0.66534801  0.33417387  1
  Fe  Fe18  1  0.66728931  0.00162260  0.99994284  1
  Fe  Fe19  1  0.83636124  0.16804379  0.16676463  1
  Fe  Fe20  1  0.66597368  0.00115497  0.33562984  1
  Cr  Cr21  1  0.66746743  0.33368975  0.00195819  1
  Ni  Ni22  1  0.83405815  0.49969466  0.16572410  1
  Cr  Cr23  1  0.66737723  0.33215314  0.33293520  1
  Fe  Fe24  1  0.66874435  0.66559920  0.00121064  1
  Cr  Cr25  1  0.83479263  0.83521366  0.16468779  1
  Cr  Cr26  1  0.66552341  0.66768175  0.33189738  1
  Ni  Ni27  1  0.16838348  0.16762821  0.49933290  1
  Cr  Cr28  1  0.00141972  0.00175065  0.66582279  1
  Fe  Fe29  1  0.16752269  0.17031172  0.83364457  1
  Ni  Ni30  1  0.16728336  0.49897704  0.50096521  1
  Ni  Ni31  1  0.00141928  0.33390584  0.66698441  1
  Fe  Fe32  1  0.16517209  0.49824723  0.83286814  1
  Fe  Fe33  1  0.16790706  0.83291869  0.49940648  1
  Fe  Fe34  1  0.99995325  0.66551808  0.66651961  1
  Cr  Cr35  1  0.16523691  0.83508284  0.83391885  1
  Ni  Ni36  1  0.49828390  0.16628415  0.50133679  1
  Fe  Fe37  1  0.33305717  0.00343308  0.66555414  1
  Fe  Fe38  1  0.49915405  0.16717169  0.83249666  1
  Cr  Cr39  1  0.49886156  0.49736898  0.50256873  1
  Fe  Fe40  1  0.33106744  0.33043840  0.66538879  1
  Cr  Cr41  1  0.50101559  0.49750906  0.83070925  1
  Fe  Fe42  1  0.49835404  0.83446140  0.50049425  1
  Fe  Fe43  1  0.33108180  0.66668439  0.66624041  1
  Cr  Cr44  1  0.50141012  0.83481630  0.83358341  1
  Fe  Fe45  1  0.83494887  0.16829051  0.50023429  1
  Cr  Cr46  1  0.66738846  0.00186120  0.66471378  1
  Fe  Fe47  1  0.83442254  0.16872864  0.83369384  1
  Cr  Cr48  1  0.83511349  0.49991086  0.50128337  1
  Ni  Ni49  1  0.66832671  0.33226062  0.66727397  1
  Fe  Fe50  1  0.83619548  0.49990893  0.83308262  1
  Ni  Ni51  1  0.83476452  0.83473759  0.50022494  1
  Fe  Fe52  1  0.67020811  0.66707267  0.66652508  1
  Fe  Fe53  1  0.83314395  0.83237807  0.83434227  1
" 