1947,Ni20Fe17Cr62_16,-214.576335057255, 168.671956118108,Ni20Fe17Cr62,"# generated using pymatgen
 data_Cr34Fe9Ni11
_symmetry_space_group_name_H-M   'P 1'
_cell_length_a   7.54438735
_cell_length_b   7.54438735
_cell_length_c   10.66937491
_cell_angle_alpha   90.00000000
_cell_angle_beta   90.00000000
_cell_angle_gamma   90.00000000
_symmetry_Int_Tables_number   1
_chemical_formula_structural   Cr34Fe9Ni11
_chemical_formula_sum   'Cr34 Fe9 Ni11'
_cell_volume   607.27713973
_cell_formula_units_Z   1
loop_
 _symmetry_equiv_pos_site_id
 _symmetry_equiv_pos_as_xyz
  1  'x, y, z'
loop_
 _atom_site_type_symbol
 _atom_site_label
 _atom_site_symmetry_multiplicity
 _atom_site_fract_x
 _atom_site_fract_y
 _atom_site_fract_z
 _atom_site_occupancy
  Cr  Cr0  1  0.99410816  -0.00211565  0.99477304  1
  Fe  Fe1  1  0.16090841  0.16264650  0.16279412  1
  Fe  Fe2  1  -0.00418388  -0.00471382  0.32699717  1
  Ni  Ni3  1  0.99124576  0.32970491  0.99307772  1
  Cr  Cr4  1  0.16038506  0.49388738  0.16176271  1
  Cr  Cr5  1  -0.00503525  0.32787178  0.32721931  1
  Fe  Fe6  1  -0.00456263  0.65917012  0.99264409  1
  Cr  Cr7  1  0.16033941  0.82902387  0.16368003  1
  Ni  Ni8  1  0.99319549  0.66268411  0.32989669  1
  Cr  Cr9  1  0.32770154  0.99463629  0.99468566  1
  Fe  Fe10  1  0.49451944  0.16385835  0.16297036  1
  Ni  Ni11  1  0.32708592  -0.00177615  0.32544878  1
  Cr  Cr12  1  0.32646287  0.32964565  -0.00200955  1
  Ni  Ni13  1  0.49552616  0.49115826  0.16207388  1
  Ni  Ni14  1  0.32903345  0.32554512  0.32569910  1
  Cr  Cr15  1  0.32771017  0.66032482  0.99214605  1
  Cr  Cr16  1  0.49489930  0.82777722  0.15997021  1
  Cr  Cr17  1  0.32932592  0.65857850  0.32867720  1
  Cr  Cr18  1  0.66287795  -0.00304054  -0.00409054  1
  Ni  Ni19  1  0.82875903  0.16297338  0.15932741  1
  Cr  Cr20  1  0.66327018  -0.00468368  0.32727157  1
  Fe  Fe21  1  0.66382432  0.32874506  -0.00472981  1
  Cr  Cr22  1  0.82821603  0.49447646  0.15791412  1
  Cr  Cr23  1  0.66025983  0.32908579  0.32730363  1
  Fe  Fe24  1  0.66280902  0.65785898  -0.00495853  1
  Cr  Cr25  1  0.82985946  0.82701980  0.16359574  1
  Cr  Cr26  1  0.66303306  0.66019832  0.33062978  1
  Cr  Cr27  1  0.16319309  0.16092282  0.49152836  1
  Cr  Cr28  1  0.99374366  0.99455391  0.66225095  1
  Cr  Cr29  1  0.16067706  0.16289200  0.82738852  1
  Cr  Cr30  1  0.15994824  0.49419625  0.49316761  1
  Cr  Cr31  1  0.99217009  0.32993687  0.66429119  1
  Ni  Ni32  1  0.15661060  0.49623282  0.83031115  1
  Cr  Cr33  1  0.16011055  0.82929587  0.49235336  1
  Cr  Cr34  1  -0.00481860  0.66016628  0.66248214  1
  Ni  Ni35  1  0.15954418  0.82557758  0.82901261  1
  Cr  Cr36  1  0.49362397  0.16316126  0.49598622  1
  Cr  Cr37  1  0.32684852  0.99282792  0.66497835  1
  Cr  Cr38  1  0.49797298  0.16267277  0.82628574  1
  Fe  Fe39  1  0.49637484  0.49224172  0.49422270  1
  Cr  Cr40  1  0.32824211  0.33143997  0.66029264  1
  Cr  Cr41  1  0.49819721  0.49332178  0.82772607  1
  Cr  Cr42  1  0.49468621  0.82948376  0.49567775  1
  Cr  Cr43  1  0.32678849  0.66034550  0.66375363  1
  Cr  Cr44  1  0.49446610  0.82858644  0.82894307  1
  Cr  Cr45  1  0.82778692  0.16315563  0.49740261  1
  Cr  Cr46  1  0.66417859  -0.00385119  0.66196931  1
  Fe  Fe47  1  0.82843235  0.16616891  0.82960520  1
  Ni  Ni48  1  0.82684842  0.49594067  0.49496763  1
  Ni  Ni49  1  0.66445877  0.33053654  0.66252035  1
  Ni  Ni50  1  0.82980577  0.49219244  0.83087958  1
  Fe  Fe51  1  0.83027605  0.82620589  0.49322561  1
  Cr  Cr52  1  0.66277678  0.65899393  0.65751108  1
  Cr  Cr53  1  0.82869789  0.82547584  0.82971159  1
" 