2362,Ni20Fe80_19,-242.503347180394, 205.337110724416,Ni20Fe80,"# generated using pymatgen
 data_Fe5Ni22
_symmetry_space_group_name_H-M   'P 1'
_cell_length_a   7.42312888
_cell_length_b   7.42312888
_cell_length_c   10.49788954
_cell_angle_alpha   90.00000000
_cell_angle_beta   90.00000000
_cell_angle_gamma   90.00000000
_symmetry_Int_Tables_number   1
_chemical_formula_structural   Fe5Ni22
_chemical_formula_sum   'Fe10 Ni44'
_cell_volume   578.46355244
_cell_formula_units_Z   2
loop_
 _symmetry_equiv_pos_site_id
 _symmetry_equiv_pos_as_xyz
  1  'x, y, z'
loop_
 _atom_site_type_symbol
 _atom_site_label
 _atom_site_symmetry_multiplicity
 _atom_site_fract_x
 _atom_site_fract_y
 _atom_site_fract_z
 _atom_site_occupancy
  Ni  Ni0  1  0.00375173  0.00315226  0.00372573  1
  Ni  Ni1  1  0.16908629  0.17063830  0.16920135  1
  Fe  Fe2  1  0.00413275  1.00259898  0.33615710  1
  Ni  Ni3  1  1.00173496  0.33536163  1.00268140  1
  Ni  Ni4  1  0.17011041  0.50257612  0.17071648  1
  Ni  Ni5  1  1.00208686  0.33555429  0.33715940  1
  Ni  Ni6  1  1.00205278  0.67033259  1.00223008  1
  Ni  Ni7  1  0.16875004  0.83565522  0.16881876  1
  Ni  Ni8  1  1.00233395  0.67047059  0.33666245  1
  Ni  Ni9  1  0.33578812  0.00298512  1.00228548  1
  Ni  Ni10  1  0.50312400  0.17026386  0.16899534  1
  Ni  Ni11  1  0.33591676  1.00274635  0.33638503  1
  Ni  Ni12  1  0.33695083  0.33530755  0.00355742  1
  Ni  Ni13  1  0.50188566  0.50295750  0.16991291  1
  Ni  Ni14  1  0.33704601  0.33452592  0.33617426  1
  Ni  Ni15  1  0.33699624  0.67077460  0.00344434  1
  Ni  Ni16  1  0.50382206  0.83561170  0.16986108  1
  Ni  Ni17  1  0.33684904  0.67176021  0.33648159  1
  Fe  Fe18  1  0.66989672  0.00301375  1.00289801  1
  Ni  Ni19  1  0.83676179  0.16869764  0.17043991  1
  Fe  Fe20  1  0.66829816  1.00280020  0.33619142  1
  Ni  Ni21  1  0.66991945  0.33655789  1.00281846  1
  Fe  Fe22  1  0.83644533  0.50275108  0.17052880  1
  Ni  Ni23  1  0.66961650  0.33635888  0.33670763  1
  Ni  Ni24  1  0.66976006  0.66883111  0.00317852  1
  Ni  Ni25  1  0.83636309  0.83650453  0.17004005  1
  Ni  Ni26  1  0.66974280  0.66933249  0.33656152  1
  Ni  Ni27  1  0.16944586  0.17021168  0.50274851  1
  Ni  Ni28  1  0.00341230  0.00300288  0.66887489  1
  Ni  Ni29  1  0.16883985  0.17166694  0.83680402  1
  Fe  Fe30  1  0.17028233  0.50389453  0.50300762  1
  Ni  Ni31  1  1.00242539  0.33471389  0.66919723  1
  Ni  Ni32  1  0.17012532  0.50212197  0.83529104  1
  Ni  Ni33  1  0.16851962  0.83710185  0.50363619  1
  Ni  Ni34  1  1.00237743  0.67128653  0.67015058  1
  Fe  Fe35  1  0.17040708  0.83692152  0.83632650  1
  Ni  Ni36  1  0.50185184  0.17054920  0.50332677  1
  Fe  Fe37  1  0.33614238  0.00344322  0.66935114  1
  Ni  Ni38  1  0.50288178  0.17036865  0.83641161  1
  Ni  Ni39  1  0.50385839  0.50269410  0.50282278  1
  Ni  Ni40  1  0.33717187  0.33557899  0.66916003  1
  Ni  Ni41  1  0.50121962  0.50322067  0.83613949  1
  Ni  Ni42  1  0.50391284  0.83564813  0.50290818  1
  Ni  Ni43  1  0.33740415  0.67065993  0.66895408  1
  Ni  Ni44  1  0.50511860  0.83523099  0.83595311  1
  Fe  Fe45  1  0.83535852  0.16962090  0.50330702  1
  Fe  Fe46  1  0.66988793  1.00255700  0.66973286  1
  Ni  Ni47  1  0.83722798  0.16789257  0.83527987  1
  Ni  Ni48  1  0.83617687  0.50393058  0.50373053  1
  Ni  Ni49  1  0.66898256  0.33628010  0.66946821  1
  Fe  Fe50  1  0.83543879  0.50200874  0.83522395  1
  Ni  Ni51  1  0.83652333  0.83499654  0.50274514  1
  Ni  Ni52  1  0.66921107  0.66940485  0.66926237  1
  Ni  Ni53  1  0.83631867  0.83661738  0.83611647  1
" 