1982,Ni20Fe56Cr23_12,-226.513840267799, 177.220364443301,Ni20Fe56Cr23,"# generated using pymatgen
 data_Cr7(Fe3Ni)5
_symmetry_space_group_name_H-M   'P 1'
_cell_length_a   7.46689580
_cell_length_b   7.46689580
_cell_length_c   10.55978530
_cell_angle_alpha   90.00000000
_cell_angle_beta   90.00000000
_cell_angle_gamma   90.00000000
_symmetry_Int_Tables_number   1
_chemical_formula_structural   Cr7(Fe3Ni)5
_chemical_formula_sum   'Cr14 Fe30 Ni10'
_cell_volume   588.75589640
_cell_formula_units_Z   2
loop_
 _symmetry_equiv_pos_site_id
 _symmetry_equiv_pos_as_xyz
  1  'x, y, z'
loop_
 _atom_site_type_symbol
 _atom_site_label
 _atom_site_symmetry_multiplicity
 _atom_site_fract_x
 _atom_site_fract_y
 _atom_site_fract_z
 _atom_site_occupancy
  Ni  Ni0  1  0.99736300  0.99890927  0.99959199  1
  Cr  Cr1  1  0.16409533  0.16450386  0.16972592  1
  Ni  Ni2  1  0.99674058  0.99887406  0.33445515  1
  Cr  Cr3  1  0.00065566  0.33446925  0.00142892  1
  Ni  Ni4  1  0.16741693  0.49952734  0.16824631  1
  Fe  Fe5  1  0.99834763  0.33350086  0.33435523  1
  Fe  Fe6  1  0.99873400  0.66828348  0.00112668  1
  Fe  Fe7  1  0.16535790  0.83205762  0.16722897  1
  Cr  Cr8  1  0.00078615  0.66468267  0.33321977  1
  Cr  Cr9  1  0.33376302  0.00203647  0.99997334  1
  Fe  Fe10  1  0.50090626  0.17065193  0.17139764  1
  Fe  Fe11  1  0.33271189  0.99880464  0.33433229  1
  Cr  Cr12  1  0.33535035  0.33284724  0.00084536  1
  Ni  Ni13  1  0.50266235  0.50105839  0.16793767  1
  Fe  Fe14  1  0.33394256  0.33612646  0.33416076  1
  Cr  Cr15  1  0.33196737  0.66510769  0.99952589  1
  Cr  Cr16  1  0.50278049  0.83196658  0.16958513  1
  Fe  Fe17  1  0.33356048  0.66452550  0.33338351  1
  Cr  Cr18  1  0.66727147  0.00143149  0.00192318  1
  Fe  Fe19  1  0.83194079  0.16760203  0.16820823  1
  Fe  Fe20  1  0.66834812  0.00094675  0.33499428  1
  Fe  Fe21  1  0.66766298  0.33374135  0.00013077  1
  Fe  Fe22  1  0.83149542  0.49983540  0.16793526  1
  Fe  Fe23  1  0.66714506  0.33413919  0.33460223  1
  Fe  Fe24  1  0.66903551  0.66466933  0.99949342  1
  Fe  Fe25  1  0.83638988  0.83255725  0.16718939  1
  Fe  Fe26  1  0.66728759  0.66569655  0.33549933  1
  Cr  Cr27  1  0.16507989  0.16448888  0.49936661  1
  Fe  Fe28  1  0.99975254  0.99931338  0.66724467  1
  Ni  Ni29  1  0.16394873  0.16373498  0.83268772  1
  Ni  Ni30  1  0.16809754  0.50078577  0.49886046  1
  Cr  Cr31  1  0.99910791  0.33424860  0.66313437  1
  Fe  Fe32  1  0.16484984  0.49885145  0.83304965  1
  Fe  Fe33  1  0.16885663  0.83188102  0.49884238  1
  Cr  Cr34  1  0.00070609  0.66660534  0.66500310  1
  Fe  Fe35  1  0.16442462  0.83500239  0.83304328  1
  Ni  Ni36  1  0.49946713  0.16642147  0.49838134  1
  Fe  Fe37  1  0.33269152  0.99812950  0.66715561  1
  Fe  Fe38  1  0.50200985  0.16730278  0.83141635  1
  Ni  Ni39  1  0.50071820  0.50087396  0.49931463  1
  Cr  Cr40  1  0.33400138  0.33375231  0.66771283  1
  Fe  Fe41  1  0.50328102  0.49883482  0.83338336  1
  Fe  Fe42  1  0.49737472  0.83231736  0.49707460  1
  Fe  Fe43  1  0.33378012  0.66735691  0.66598288  1
  Fe  Fe44  1  0.49995471  0.83424877  0.83272441  1
  Fe  Fe45  1  0.83097084  0.16981284  0.49773946  1
  Cr  Cr46  1  0.66695439  0.00141849  0.66301507  1
  Ni  Ni47  1  0.83458285  0.16667095  0.83223206  1
  Ni  Ni48  1  0.83152813  0.50083262  0.49886370  1
  Fe  Fe49  1  0.66697729  0.33421447  0.66458777  1
  Fe  Fe50  1  0.83245991  0.49800099  0.83299085  1
  Fe  Fe51  1  0.83362676  0.83397545  0.49760535  1
  Cr  Cr52  1  0.66674191  0.66830148  0.66455261  1
  Fe  Fe53  1  0.83488566  0.83461933  0.83408721  1
" 