4865,Ni20Fe17Cr62_2,-214.65284271211, 166.177980217055,Ni20Fe17Cr62,"# generated using pymatgen
 data_Cr34Fe9Ni11
_symmetry_space_group_name_H-M   'P 1'
_cell_length_a   7.54659899
_cell_length_b   7.54659899
_cell_length_c   10.67250265
_cell_angle_alpha   90.00000000
_cell_angle_beta   90.00000000
_cell_angle_gamma   90.00000000
_symmetry_Int_Tables_number   1
_chemical_formula_structural   Cr34Fe9Ni11
_chemical_formula_sum   'Cr34 Fe9 Ni11'
_cell_volume   607.81136734
_cell_formula_units_Z   1
loop_
 _symmetry_equiv_pos_site_id
 _symmetry_equiv_pos_as_xyz
  1  'x, y, z'
loop_
 _atom_site_type_symbol
 _atom_site_label
 _atom_site_symmetry_multiplicity
 _atom_site_fract_x
 _atom_site_fract_y
 _atom_site_fract_z
 _atom_site_occupancy
  Cr  Cr0  1  0.99438587  -0.00472471  -0.00453372  1
  Fe  Fe1  1  0.16146882  0.16055669  0.16053936  1
  Fe  Fe2  1  0.99432631  -0.00493059  0.32632783  1
  Cr  Cr3  1  0.99455274  0.32693512  -0.00450535  1
  Cr  Cr4  1  0.16156888  0.49333665  0.16160588  1
  Fe  Fe5  1  -0.00480984  0.32766006  0.32803083  1
  Cr  Cr6  1  0.99434092  0.66197459  0.99415594  1
  Cr  Cr7  1  0.16230479  0.82975486  0.16145960  1
  Cr  Cr8  1  -0.00409915  0.66081091  0.32724793  1
  Ni  Ni9  1  0.32777770  -0.00359374  -0.00436703  1
  Cr  Cr10  1  0.49403896  0.16112611  0.15830432  1
  Cr  Cr11  1  0.32802219  0.99388529  0.32725441  1
  Ni  Ni12  1  0.32891345  0.32522987  -0.00455287  1
  Cr  Cr13  1  0.49506539  0.49444570  0.16056372  1
  Cr  Cr14  1  0.32620398  0.33054193  0.33018438  1
  Cr  Cr15  1  0.32787103  0.66196473  -0.00508338  1
  Ni  Ni16  1  0.49489675  0.82937375  0.16149666  1
  Ni  Ni17  1  0.32780806  0.66004645  0.32930602  1
  Cr  Cr18  1  0.66148242  -0.00443909  -0.00366615  1
  Fe  Fe19  1  0.82803567  0.16057993  0.16143837  1
  Cr  Cr20  1  0.66351676  0.99427618  0.32576068  1
  Ni  Ni21  1  0.66086111  0.32590101  0.99472215  1
  Cr  Cr22  1  0.82755059  0.49359743  0.16071777  1
  Fe  Fe23  1  0.66173305  0.32849948  0.32809186  1
  Cr  Cr24  1  0.66197487  0.66213261  -0.00351371  1
  Ni  Ni25  1  0.82737439  0.83029163  0.16235064  1
  Cr  Cr26  1  0.65968726  0.66262433  0.32717967  1
  Cr  Cr27  1  0.15983485  0.16209216  0.49384267  1
  Fe  Fe28  1  0.99346210  0.99430736  0.66272887  1
  Cr  Cr29  1  0.16159394  0.15979145  0.82894473  1
  Ni  Ni30  1  0.16137760  0.49500546  0.49445413  1
  Fe  Fe31  1  0.99267529  0.32932205  0.66143170  1
  Cr  Cr32  1  0.16010964  0.49549197  0.82858068  1
  Cr  Cr33  1  0.16066372  0.82674409  0.49559319  1
  Ni  Ni34  1  0.99402906  0.66117679  0.66126289  1
  Fe  Fe35  1  0.16055621  0.82892213  0.82762996  1
  Cr  Cr36  1  0.49573652  0.16321117  0.49582124  1
  Cr  Cr37  1  0.32706626  -0.00507342  0.66243606  1
  Cr  Cr38  1  0.49532275  0.16260014  0.83006987  1
  Fe  Fe39  1  0.49432887  0.49510075  0.49515079  1
  Cr  Cr40  1  0.32796168  0.32922480  0.65947873  1
  Cr  Cr41  1  0.49687637  0.49275778  0.82907289  1
  Cr  Cr42  1  0.49433907  0.82620064  0.49395983  1
  Cr  Cr43  1  0.32662314  0.66003614  0.65921657  1
  Cr  Cr44  1  0.49332830  0.82883212  0.82905948  1
  Cr  Cr45  1  0.82861551  0.16287043  0.49485335  1
  Cr  Cr46  1  0.66329543  -0.00418883  0.66208831  1
  Ni  Ni47  1  0.82811936  0.16274872  0.82691323  1
  Cr  Cr48  1  0.82807332  0.49396016  0.49695631  1
  Ni  Ni49  1  0.66384303  0.32896607  0.66109117  1
  Cr  Cr50  1  0.82719922  0.49350351  0.82650913  1
  Cr  Cr51  1  0.82918546  0.82736276  0.49637251  1
  Ni  Ni52  1  0.66430543  0.65921318  0.66029669  1
  Cr  Cr53  1  0.83000831  0.82734665  0.82505261  1
" 