4963,Ni20Fe80_4,-242.541842013704, 204.858502344129,Ni20Fe80,"# generated using pymatgen
 data_Fe5Ni22
_symmetry_space_group_name_H-M   'P 1'
_cell_length_a   7.42631901
_cell_length_b   7.42631901
_cell_length_c   10.50240106
_cell_angle_alpha   90.00000000
_cell_angle_beta   90.00000000
_cell_angle_gamma   90.00000000
_symmetry_Int_Tables_number   1
_chemical_formula_structural   Fe5Ni22
_chemical_formula_sum   'Fe10 Ni44'
_cell_volume   579.20966553
_cell_formula_units_Z   2
loop_
 _symmetry_equiv_pos_site_id
 _symmetry_equiv_pos_as_xyz
  1  'x, y, z'
loop_
 _atom_site_type_symbol
 _atom_site_label
 _atom_site_symmetry_multiplicity
 _atom_site_fract_x
 _atom_site_fract_y
 _atom_site_fract_z
 _atom_site_occupancy
  Ni  Ni0  1  1.00242830  1.00261281  1.00190372  1
  Ni  Ni1  1  0.16974059  0.16905649  0.16874751  1
  Ni  Ni2  1  0.00318146  0.00287053  0.33680654  1
  Fe  Fe3  1  0.00313634  0.33607792  0.00298893  1
  Ni  Ni4  1  0.16945012  0.50339985  0.16912790  1
  Ni  Ni5  1  1.00264127  0.33590924  0.33627090  1
  Ni  Ni6  1  1.00180839  0.66953620  0.00312494  1
  Ni  Ni7  1  0.16971746  0.83577034  0.16925747  1
  Ni  Ni8  1  1.00170239  0.66944669  0.33596252  1
  Ni  Ni9  1  0.33592505  0.00439704  1.00250560  1
  Ni  Ni10  1  0.50280456  0.16910529  0.16933317  1
  Ni  Ni11  1  0.33543988  0.00380045  0.33596265  1
  Ni  Ni12  1  0.33592025  0.33541623  0.00305607  1
  Ni  Ni13  1  0.50283794  0.50309176  0.16883285  1
  Ni  Ni14  1  0.33630113  0.33529895  0.33627092  1
  Ni  Ni15  1  0.33588265  0.66840933  1.00200635  1
  Ni  Ni16  1  0.50252085  0.83602827  0.16899418  1
  Ni  Ni17  1  0.33631103  0.66912736  0.33680710  1
  Ni  Ni18  1  0.66987736  1.00265233  0.00308113  1
  Ni  Ni19  1  0.83568055  0.16936870  0.16906459  1
  Fe  Fe20  1  0.66947246  0.00285786  0.33613894  1
  Fe  Fe21  1  0.66920867  0.33575582  0.00337832  1
  Ni  Ni22  1  0.83593865  0.50311880  0.16940905  1
  Ni  Ni23  1  0.66928391  0.33677900  0.33657940  1
  Ni  Ni24  1  0.67053834  0.66953265  1.00257564  1
  Ni  Ni25  1  0.83598773  0.83573836  0.16875706  1
  Ni  Ni26  1  0.67021356  0.66858613  0.33627137  1
  Ni  Ni27  1  0.16979276  0.16916182  0.50324869  1
  Fe  Fe28  1  0.00294412  1.00247721  0.66921803  1
  Ni  Ni29  1  0.17011064  0.16873625  0.83622922  1
  Ni  Ni30  1  0.16939774  0.50329445  0.50287477  1
  Fe  Fe31  1  1.00263010  0.33615069  0.66909877  1
  Ni  Ni32  1  0.16885480  0.50389157  0.83622196  1
  Ni  Ni33  1  0.16971606  0.83577209  0.50270057  1
  Ni  Ni34  1  1.00117334  0.66889283  0.66913907  1
  Ni  Ni35  1  0.17000278  0.83560076  0.83626412  1
  Ni  Ni36  1  0.50285870  0.16915775  0.50270144  1
  Ni  Ni37  1  0.33656430  0.00504442  0.66975901  1
  Ni  Ni38  1  0.50309073  0.16868399  0.83619456  1
  Ni  Ni39  1  0.50294191  0.50298786  0.50323870  1
  Ni  Ni40  1  0.33569358  0.33456562  0.66889949  1
  Fe  Fe41  1  0.50197705  0.50183930  0.83632526  1
  Ni  Ni42  1  0.50262929  0.83608420  0.50299887  1
  Fe  Fe43  1  0.33606427  0.66998328  0.66895900  1
  Fe  Fe44  1  0.50261628  0.83691486  0.83627066  1
  Ni  Ni45  1  0.83557224  0.16947110  0.50300256  1
  Ni  Ni46  1  0.66901806  1.00242955  0.66887458  1
  Ni  Ni47  1  0.83502110  0.16981948  0.83616132  1
  Ni  Ni48  1  0.83588599  0.50306415  0.50262730  1
  Fe  Fe49  1  0.66920520  0.33575636  0.66877320  1
  Ni  Ni50  1  0.83623509  0.50284436  0.83619499  1
  Ni  Ni51  1  0.83588308  0.83568858  0.50323945  1
  Ni  Ni52  1  0.67140154  0.66975442  0.66938027  1
  Fe  Fe53  1  0.83684607  0.83626636  0.83626705  1
" 