8899,Ni20Fe32Cr47_17,-220.307743171642, 174.561888989805,Ni20Fe32Cr47,"# generated using pymatgen
 data_Cr26Fe17Ni11
_symmetry_space_group_name_H-M   'P 1'
_cell_length_a   7.51363718
_cell_length_b   7.51363718
_cell_length_c   10.62588760
_cell_angle_alpha   90.00000000
_cell_angle_beta   90.00000000
_cell_angle_gamma   90.00000000
_symmetry_Int_Tables_number   1
_chemical_formula_structural   Cr26Fe17Ni11
_chemical_formula_sum   'Cr26 Fe17 Ni11'
_cell_volume   599.88176059
_cell_formula_units_Z   1
loop_
 _symmetry_equiv_pos_site_id
 _symmetry_equiv_pos_as_xyz
  1  'x, y, z'
loop_
 _atom_site_type_symbol
 _atom_site_label
 _atom_site_symmetry_multiplicity
 _atom_site_fract_x
 _atom_site_fract_y
 _atom_site_fract_z
 _atom_site_occupancy
  Fe  Fe0  1  -0.00262564  0.99358279  -0.00157965  1
  Fe  Fe1  1  0.16340648  0.16091602  0.16550944  1
  Ni  Ni2  1  -0.00105792  -0.00261443  0.32981943  1
  Cr  Cr3  1  0.00090772  0.33351838  0.99575411  1
  Fe  Fe4  1  0.16335021  0.49833057  0.16593360  1
  Fe  Fe5  1  0.99512682  0.32709046  0.33240130  1
  Cr  Cr6  1  -0.00305258  0.66591023  -0.00268148  1
  Ni  Ni7  1  0.16077188  0.83166520  0.16635573  1
  Fe  Fe8  1  -0.00165791  0.66552165  0.32943941  1
  Cr  Cr9  1  0.33187162  -0.00204817  -0.00092537  1
  Ni  Ni10  1  0.49702058  0.16227162  0.16257782  1
  Fe  Fe11  1  0.32745054  -0.00220870  0.32844097  1
  Cr  Cr12  1  0.32963991  0.32949720  0.99551896  1
  Cr  Cr13  1  0.49775143  0.49654758  0.16525719  1
  Cr  Cr14  1  0.32881781  0.32666539  0.32838104  1
  Cr  Cr15  1  0.32752066  0.66302610  0.99582129  1
  Cr  Cr16  1  0.49426655  0.83012132  0.16469742  1
  Fe  Fe17  1  0.32672744  0.66593784  0.32850981  1
  Ni  Ni18  1  0.66405054  0.99514970  0.99674325  1
  Cr  Cr19  1  0.83132367  0.16318255  0.16154857  1
  Cr  Cr20  1  0.66423104  -0.00221136  0.32956938  1
  Cr  Cr21  1  0.66040492  0.32871452  0.99608410  1
  Cr  Cr22  1  0.83095772  0.49526645  0.16582268  1
  Fe  Fe23  1  0.66599383  0.32723821  0.33143636  1
  Cr  Cr24  1  0.66618181  0.66822912  0.99427830  1
  Fe  Fe25  1  0.83224971  0.83277406  0.16391432  1
  Cr  Cr26  1  0.66723920  0.66533184  0.33208232  1
  Ni  Ni27  1  0.16042792  0.16063769  0.49529513  1
  Fe  Fe28  1  0.99580359  -0.00205741  0.66215562  1
  Cr  Cr29  1  0.16083529  0.15868498  0.82979106  1
  Cr  Cr30  1  0.16406986  0.49891336  0.49526748  1
  Cr  Cr31  1  -0.00264021  0.33109222  0.66042375  1
  Fe  Fe32  1  0.16315371  0.49919550  0.82894410  1
  Cr  Cr33  1  0.16582721  0.83287230  0.49721692  1
  Cr  Cr34  1  0.99532159  0.66367225  0.66530724  1
  Ni  Ni35  1  0.16478527  0.83123610  0.82867728  1
  Cr  Cr36  1  0.49654022  0.16145810  0.49716467  1
  Fe  Fe37  1  0.32983487  0.99648669  0.66517015  1
  Fe  Fe38  1  0.49844283  0.16114127  0.82981417  1
  Cr  Cr39  1  0.49793296  0.49974287  0.49573235  1
  Cr  Cr40  1  0.32894299  0.32909901  0.66681254  1
  Ni  Ni41  1  0.49832969  0.50036842  0.82887262  1
  Cr  Cr42  1  0.49299554  0.82879312  0.49949598  1
  Fe  Fe43  1  0.33146923  0.66466839  0.66752384  1
  Fe  Fe44  1  0.49765462  0.83167047  0.82837485  1
  Ni  Ni45  1  0.83312873  0.16374304  0.49615715  1
  Ni  Ni46  1  0.66279670  0.99398874  0.66492778  1
  Cr  Cr47  1  0.83059182  0.16210335  0.83130633  1
  Ni  Ni48  1  0.83042456  0.49439115  0.49466108  1
  Cr  Cr49  1  0.66460622  0.32900746  0.66121368  1
  Ni  Ni50  1  0.82676190  0.49754965  0.82907679  1
  Cr  Cr51  1  0.83142401  0.83176078  0.49830562  1
  Fe  Fe52  1  0.66408395  0.66330717  0.66546999  1
  Fe  Fe53  1  0.83016888  0.83164913  0.82871351  1
" 