7093,Ni20Fe32Cr47_1,-220.621723873793, 180.852409272266,Ni20Fe32Cr47,"# generated using pymatgen
 data_Cr26Fe17Ni11
_symmetry_space_group_name_H-M   'P 1'
_cell_length_a   7.50072652
_cell_length_b   7.50072652
_cell_length_c   10.60762917
_cell_angle_alpha   90.00000000
_cell_angle_beta   90.00000000
_cell_angle_gamma   90.00000000
_symmetry_Int_Tables_number   1
_chemical_formula_structural   Cr26Fe17Ni11
_chemical_formula_sum   'Cr26 Fe17 Ni11'
_cell_volume   596.79474598
_cell_formula_units_Z   1
loop_
 _symmetry_equiv_pos_site_id
 _symmetry_equiv_pos_as_xyz
  1  'x, y, z'
loop_
 _atom_site_type_symbol
 _atom_site_label
 _atom_site_symmetry_multiplicity
 _atom_site_fract_x
 _atom_site_fract_y
 _atom_site_fract_z
 _atom_site_occupancy
  Cr  Cr0  1  0.99717398  -0.00194157  0.99735524  1
  Cr  Cr1  1  0.16461210  0.16725673  0.16885643  1
  Fe  Fe2  1  0.99589672  -0.00092993  0.33259169  1
  Fe  Fe3  1  -0.00204351  0.33334265  -0.00197223  1
  Ni  Ni4  1  0.16529736  0.49647386  0.16426951  1
  Ni  Ni5  1  -0.00019240  0.33157257  0.33114019  1
  Fe  Fe6  1  -0.00182588  0.66220344  0.99757919  1
  Cr  Cr7  1  0.16655306  0.82924719  0.16351116  1
  Cr  Cr8  1  0.99658278  0.66373246  0.32972750  1
  Fe  Fe9  1  0.33351377  0.99663040  0.99764261  1
  Cr  Cr10  1  0.49896209  0.16377778  0.16284829  1
  Cr  Cr11  1  0.33285777  0.99739612  0.32989265  1
  Cr  Cr12  1  0.33174202  0.33138851  0.99580315  1
  Fe  Fe13  1  0.49664374  0.49899347  0.16463214  1
  Ni  Ni14  1  0.32973619  0.33345284  0.33140253  1
  Cr  Cr15  1  0.33162021  0.66386395  -0.00036180  1
  Ni  Ni16  1  0.49888328  0.83030588  0.16392933  1
  Fe  Fe17  1  0.33264829  0.66188463  0.32936939  1
  Fe  Fe18  1  0.66182125  0.99694252  0.99751127  1
  Cr  Cr19  1  0.82963144  0.16620699  0.16566741  1
  Ni  Ni20  1  0.66460129  0.99591756  0.33047300  1
  Fe  Fe21  1  0.66377119  0.33221777  0.99569254  1
  Cr  Cr22  1  0.83149160  0.49648723  0.16216425  1
  Fe  Fe23  1  0.66405908  0.33162983  0.33221312  1
  Ni  Ni24  1  0.66309401  0.66419848  -0.00222871  1
  Cr  Cr25  1  0.82793723  0.83079292  0.16350247  1
  Cr  Cr26  1  0.66284415  0.66588723  0.33390795  1
  Ni  Ni27  1  0.16413721  0.16475248  0.49537419  1
  Fe  Fe28  1  0.99578019  -0.00168266  0.66372464  1
  Cr  Cr29  1  0.16493533  0.16359662  0.82981794  1
  Cr  Cr30  1  0.16489492  0.49501150  0.49582442  1
  Cr  Cr31  1  0.99751179  0.33033829  0.66461111  1
  Fe  Fe32  1  0.16522006  0.49972917  0.83288726  1
  Cr  Cr33  1  0.16376306  0.83361669  0.49812711  1
  Cr  Cr34  1  0.99602016  0.66509841  0.66571331  1
  Fe  Fe35  1  0.16451333  0.82911083  0.83199344  1
  Cr  Cr36  1  0.49630537  0.16455114  0.49739534  1
  Cr  Cr37  1  0.33180057  -0.00151805  0.66606072  1
  Fe  Fe38  1  0.50180198  0.16477933  0.83202838  1
  Fe  Fe39  1  0.49914462  0.49814152  0.49697567  1
  Cr  Cr40  1  0.33190785  0.33179202  0.66529001  1
  Ni  Ni41  1  0.49910706  0.49763228  0.83148944  1
  Fe  Fe42  1  0.50124669  0.83162695  0.49781380  1
  Cr  Cr43  1  0.33313157  0.66294534  0.66390365  1
  Cr  Cr44  1  0.49866447  0.83128068  0.83102647  1
  Cr  Cr45  1  0.83233434  0.16355056  0.49576141  1
  Ni  Ni46  1  0.66642240  0.99599826  0.66507527  1
  Fe  Fe47  1  0.82767195  0.16372566  0.83167325  1
  Ni  Ni48  1  0.82892167  0.49946802  0.49766111  1
  Cr  Cr49  1  0.66402473  0.33143666  0.66518477  1
  Cr  Cr50  1  0.82997221  0.49831719  0.83347648  1
  Ni  Ni51  1  0.82779975  0.83127489  0.49968646  1
  Fe  Fe52  1  0.66366241  0.66474658  0.66266808  1
  Cr  Cr53  1  0.83015914  0.83051579  0.83040370  1
" 