1576,Ni20Fe17Cr62_5,-214.858116180546, 172.567992668333,Ni20Fe17Cr62,"# generated using pymatgen
 data_Cr34Fe9Ni11
_symmetry_space_group_name_H-M   'P 1'
_cell_length_a   7.53764283
_cell_length_b   7.53764283
_cell_length_c   10.65983672
_cell_angle_alpha   90.00000000
_cell_angle_beta   90.00000000
_cell_angle_gamma   90.00000000
_symmetry_Int_Tables_number   1
_chemical_formula_structural   Cr34Fe9Ni11
_chemical_formula_sum   'Cr34 Fe9 Ni11'
_cell_volume   605.64991619
_cell_formula_units_Z   1
loop_
 _symmetry_equiv_pos_site_id
 _symmetry_equiv_pos_as_xyz
  1  'x, y, z'
loop_
 _atom_site_type_symbol
 _atom_site_label
 _atom_site_symmetry_multiplicity
 _atom_site_fract_x
 _atom_site_fract_y
 _atom_site_fract_z
 _atom_site_occupancy
  Cr  Cr0  1  0.99469143  0.99484116  -0.00438698  1
  Ni  Ni1  1  0.15982857  0.16528745  0.16137732  1
  Cr  Cr2  1  -0.00368770  0.99283606  0.32600601  1
  Ni  Ni3  1  0.99453127  0.33097214  0.99502406  1
  Cr  Cr4  1  0.15928538  0.49402160  0.16182373  1
  Fe  Fe5  1  0.99403745  0.32930691  0.32550974  1
  Ni  Ni6  1  0.99155664  0.65924212  -0.00416279  1
  Cr  Cr7  1  0.16172023  0.82696121  0.15975771  1
  Cr  Cr8  1  0.99311305  0.66365622  0.32860554  1
  Cr  Cr9  1  0.32740489  -0.00180085  -0.00435976  1
  Cr  Cr10  1  0.49752898  0.16094962  0.16195550  1
  Cr  Cr11  1  0.32718654  -0.00377227  0.32838118  1
  Cr  Cr12  1  0.33007325  0.32928822  -0.00349376  1
  Fe  Fe13  1  0.49862706  0.49608234  0.15992197  1
  Cr  Cr14  1  0.32936198  0.32813734  0.32632025  1
  Fe  Fe15  1  0.32800880  0.66045742  0.99529150  1
  Cr  Cr16  1  0.49805464  0.82720452  0.15904107  1
  Cr  Cr17  1  0.32982971  0.66138337  0.32751131  1
  Ni  Ni18  1  0.66355678  0.99452940  -0.00462347  1
  Cr  Cr19  1  0.82944649  0.16359179  0.16105767  1
  Cr  Cr20  1  0.66239666  0.99305430  0.32856164  1
  Fe  Fe21  1  0.66515335  0.32960959  0.99434279  1
  Ni  Ni22  1  0.82767786  0.49638968  0.16013508  1
  Cr  Cr23  1  0.65978575  0.33165172  0.32872920  1
  Fe  Fe24  1  0.66416307  0.65927698  -0.00375586  1
  Ni  Ni25  1  0.82615749  0.82498930  0.16040376  1
  Ni  Ni26  1  0.66329749  0.65999621  0.32513950  1
  Cr  Cr27  1  0.16029606  0.16357897  0.49420364  1
  Cr  Cr28  1  -0.00427218  0.99468063  0.66368422  1
  Ni  Ni29  1  0.15976842  0.16383705  0.82991466  1
  Cr  Cr30  1  0.16097285  0.49572499  0.49487204  1
  Cr  Cr31  1  0.99403115  0.32875273  0.66510194  1
  Cr  Cr32  1  0.16208943  0.49592592  0.82917874  1
  Ni  Ni33  1  0.16523558  0.82952382  0.49772761  1
  Cr  Cr34  1  0.99445606  0.66322486  0.66131913  1
  Cr  Cr35  1  0.16389870  0.82685642  0.82821648  1
  Fe  Fe36  1  0.49427594  0.16165881  0.49576410  1
  Fe  Fe37  1  0.32735276  -0.00400819  0.66241287  1
  Cr  Cr38  1  0.49770160  0.16056267  0.82885533  1
  Cr  Cr39  1  0.49521653  0.49668221  0.49470094  1
  Cr  Cr40  1  0.33049359  0.32837806  0.66264713  1
  Ni  Ni41  1  0.49658086  0.49650162  0.83215404  1
  Cr  Cr42  1  0.49427380  0.82886154  0.49671786  1
  Fe  Fe43  1  0.32950733  0.66143636  0.66232290  1
  Cr  Cr44  1  0.49517119  0.82697690  0.82985347  1
  Cr  Cr45  1  0.82838183  0.16413275  0.49450499  1
  Cr  Cr46  1  0.66304728  -0.00347240  0.66157419  1
  Ni  Ni47  1  0.82910194  0.16470658  0.83190009  1
  Cr  Cr48  1  0.82968543  0.49350274  0.49390302  1
  Cr  Cr49  1  0.66123054  0.33001026  0.66478388  1
  Fe  Fe50  1  0.82793922  0.49410201  0.83265721  1
  Cr  Cr51  1  0.82765171  0.82820427  0.49336195  1
  Cr  Cr52  1  0.66323336  0.65925773  0.66312749  1
  Cr  Cr53  1  0.82701830  0.82938352  0.83155260  1
" 