2663,Ni20Fe32Cr47_7,-220.734331546763, 180.179657052967,Ni20Fe32Cr47,"# generated using pymatgen
 data_Cr26Fe17Ni11
_symmetry_space_group_name_H-M   'P 1'
_cell_length_a   7.50839661
_cell_length_b   7.50839661
_cell_length_c   10.61847632
_cell_angle_alpha   90.00000000
_cell_angle_beta   90.00000000
_cell_angle_gamma   90.00000000
_symmetry_Int_Tables_number   1
_chemical_formula_structural   Cr26Fe17Ni11
_chemical_formula_sum   'Cr26 Fe17 Ni11'
_cell_volume   598.62743063
_cell_formula_units_Z   1
loop_
 _symmetry_equiv_pos_site_id
 _symmetry_equiv_pos_as_xyz
  1  'x, y, z'
loop_
 _atom_site_type_symbol
 _atom_site_label
 _atom_site_symmetry_multiplicity
 _atom_site_fract_x
 _atom_site_fract_y
 _atom_site_fract_z
 _atom_site_occupancy
  Cr  Cr0  1  -0.00092660  0.99677401  0.99565465  1
  Fe  Fe1  1  0.16603411  0.16298994  0.16551778  1
  Cr  Cr2  1  -0.00076106  0.99501800  0.33488208  1
  Fe  Fe3  1  0.99715563  0.32948362  0.99475781  1
  Cr  Cr4  1  0.16066540  0.49404362  0.16398437  1
  Fe  Fe5  1  -0.00078308  0.32909695  0.33417078  1
  Cr  Cr6  1  0.99678589  0.66364230  0.99590845  1
  Cr  Cr7  1  0.16654869  0.82903201  0.16310557  1
  Cr  Cr8  1  0.99488315  0.66383586  0.33394699  1
  Ni  Ni9  1  0.33020152  -0.00238179  0.99704504  1
  Cr  Cr10  1  0.49816167  0.16151025  0.16534139  1
  Ni  Ni11  1  0.32797690  -0.00141127  0.33216123  1
  Cr  Cr12  1  0.33074974  0.33044866  0.99564034  1
  Cr  Cr13  1  0.49439944  0.49902604  0.16621811  1
  Ni  Ni14  1  0.32769885  0.33116605  0.33271076  1
  Ni  Ni15  1  0.33127916  0.66514643  -0.00266944  1
  Fe  Fe16  1  0.49512607  0.83222119  0.16321185  1
  Fe  Fe17  1  0.32821381  0.66469060  0.33143305  1
  Ni  Ni18  1  0.66426725  0.99695933  0.99542302  1
  Cr  Cr19  1  0.83414645  0.16672255  0.16240948  1
  Cr  Cr20  1  0.66654607  0.99658634  0.33196513  1
  Cr  Cr21  1  0.66397257  0.33134023  0.99257386  1
  Fe  Fe22  1  0.83039920  0.49652204  0.16501813  1
  Cr  Cr23  1  0.66443524  0.33371745  0.33450590  1
  Cr  Cr24  1  0.66392044  0.66239891  -0.00228792  1
  Cr  Cr25  1  0.82804392  0.83171757  0.16267942  1
  Fe  Fe26  1  0.66287771  0.66514676  0.33162337  1
  Ni  Ni27  1  0.16224340  0.16779623  0.49585373  1
  Cr  Cr28  1  0.00026439  0.99570833  0.66051067  1
  Ni  Ni29  1  0.16088847  0.16490887  0.83168568  1
  Ni  Ni30  1  0.16210627  0.49796124  0.49756522  1
  Ni  Ni31  1  -0.00143585  0.33101267  0.66242019  1
  Cr  Cr32  1  0.16188532  0.49777901  0.83015480  1
  Fe  Fe33  1  0.16550417  0.83041659  0.49843168  1
  Fe  Fe34  1  0.99603694  0.66079407  0.66077287  1
  Cr  Cr35  1  0.16504272  0.82945289  0.82763341  1
  Cr  Cr36  1  0.49675870  0.16309302  0.49708986  1
  Fe  Fe37  1  0.32813317  -0.00052667  0.66270981  1
  Cr  Cr38  1  0.49741437  0.16040779  0.82921112  1
  Cr  Cr39  1  0.49399210  0.49939955  0.49886367  1
  Cr  Cr40  1  0.32812482  0.33033649  0.66471709  1
  Fe  Fe41  1  0.49465013  0.50002834  0.82898410  1
  Cr  Cr42  1  0.49664172  0.83069796  0.49661139  1
  Fe  Fe43  1  0.32811894  0.66425811  0.66320094  1
  Cr  Cr44  1  0.49738074  0.83026512  0.83123941  1
  Ni  Ni45  1  0.83475097  0.16375364  0.49880427  1
  Cr  Cr46  1  0.66787916  0.99706411  0.66297487  1
  Fe  Fe47  1  0.83485421  0.16441655  0.82879932  1
  Fe  Fe48  1  0.83308357  0.49548587  0.49961422  1
  Cr  Cr49  1  0.66399214  0.33242293  0.66506447  1
  Fe  Fe50  1  0.83245289  0.49717145  0.82771776  1
  Ni  Ni51  1  0.83010703  0.82691474  0.49996966  1
  Fe  Fe52  1  0.66713362  0.66380815  0.66472598  1
  Fe  Fe53  1  0.83128778  0.83103936  0.82905267  1
" 