4350,Ni20Fe56Cr23_1,-226.872423675756, 182.950431560151,Ni20Fe56Cr23,"# generated using pymatgen
 data_Cr7(Fe3Ni)5
_symmetry_space_group_name_H-M   'P 1'
_cell_length_a   7.45753948
_cell_length_b   7.45753948
_cell_length_c   10.54655348
_cell_angle_alpha   90.00000000
_cell_angle_beta   90.00000000
_cell_angle_gamma   90.00000000
_symmetry_Int_Tables_number   1
_chemical_formula_structural   Cr7(Fe3Ni)5
_chemical_formula_sum   'Cr14 Fe30 Ni10'
_cell_volume   586.54546600
_cell_formula_units_Z   2
loop_
 _symmetry_equiv_pos_site_id
 _symmetry_equiv_pos_as_xyz
  1  'x, y, z'
loop_
 _atom_site_type_symbol
 _atom_site_label
 _atom_site_symmetry_multiplicity
 _atom_site_fract_x
 _atom_site_fract_y
 _atom_site_fract_z
 _atom_site_occupancy
  Fe  Fe0  1  0.00072650  1.00014118  0.99963092  1
  Cr  Cr1  1  0.16774640  0.16512021  0.16855351  1
  Fe  Fe2  1  0.99879357  0.99698199  0.33390168  1
  Fe  Fe3  1  1.00019274  0.33295543  1.00001475  1
  Fe  Fe4  1  0.16739251  0.50318102  0.16872316  1
  Cr  Cr5  1  1.00005770  0.33679323  0.33292600  1
  Cr  Cr6  1  0.00119169  0.66754385  0.00211726  1
  Fe  Fe7  1  0.16736540  0.83194586  0.16854872  1
  Fe  Fe8  1  0.00073060  0.66897458  0.33324081  1
  Fe  Fe9  1  0.33335621  0.99699481  0.99997890  1
  Fe  Fe10  1  0.50193186  0.16743717  0.16831930  1
  Fe  Fe11  1  0.33442644  0.99974352  0.33381574  1
  Cr  Cr12  1  0.33324326  0.33425969  0.99973037  1
  Ni  Ni13  1  0.49969985  0.50218582  0.16806777  1
  Fe  Fe14  1  0.33615312  0.33644083  0.33326825  1
  Fe  Fe15  1  0.33527385  0.66972746  0.00146443  1
  Fe  Fe16  1  0.50149667  0.83440895  0.16649718  1
  Fe  Fe17  1  0.33289891  0.66575917  0.33377265  1
  Fe  Fe18  1  0.66782005  0.99802931  0.00096514  1
  Cr  Cr19  1  0.83392939  0.16678632  0.16592822  1
  Ni  Ni20  1  0.66664517  0.99983902  0.33213370  1
  Fe  Fe21  1  0.66800775  0.33522741  0.00193366  1
  Ni  Ni22  1  0.83239258  0.50188603  0.16692764  1
  Ni  Ni23  1  0.66597650  0.33413444  0.33163784  1
  Fe  Fe24  1  0.66543903  0.66869256  0.00309321  1
  Ni  Ni25  1  0.83432812  0.83403884  0.16792356  1
  Cr  Cr26  1  0.66885583  0.66664162  0.33443323  1
  Fe  Fe27  1  0.16760392  0.16725604  0.50173822  1
  Fe  Fe28  1  0.00157242  0.00095493  0.66858015  1
  Fe  Fe29  1  0.16568771  0.16598013  0.83322720  1
  Ni  Ni30  1  0.16655851  0.50140436  0.50073404  1
  Ni  Ni31  1  0.00248016  0.33352565  0.66910568  1
  Fe  Fe32  1  0.16624611  0.49979946  0.83260090  1
  Fe  Fe33  1  0.16569640  0.83494237  0.50030346  1
  Fe  Fe34  1  1.00059403  0.66769320  0.66614073  1
  Fe  Fe35  1  0.16708606  0.83611866  0.83444428  1
  Cr  Cr36  1  0.49933206  0.16673752  0.49885850  1
  Ni  Ni37  1  0.33166520  0.99986716  0.66869839  1
  Cr  Cr38  1  0.50173387  0.16517657  0.83311800  1
  Fe  Fe39  1  0.49892839  0.50000044  0.49901421  1
  Fe  Fe40  1  0.32978135  0.33242278  0.66638958  1
  Cr  Cr41  1  0.50042858  0.50408916  0.83235104  1
  Cr  Cr42  1  0.50072786  0.83454373  0.50162265  1
  Cr  Cr43  1  0.33355017  0.66873139  0.66855806  1
  Ni  Ni44  1  0.50005635  0.83452014  0.83555245  1
  Cr  Cr45  1  0.83505923  0.16544648  0.49905932  1
  Fe  Fe46  1  0.66888027  0.99838480  0.66873906  1
  Ni  Ni47  1  0.83729886  0.16542469  0.83594517  1
  Fe  Fe48  1  0.83571813  0.50173064  0.50108985  1
  Cr  Cr49  1  0.66844528  0.33408110  0.66519400  1
  Cr  Cr50  1  0.83496702  0.50016050  0.83438236  1
  Fe  Fe51  1  0.83664757  0.83304867  0.49997049  1
  Fe  Fe52  1  0.66995639  0.67064794  0.66692854  1
  Fe  Fe53  1  0.83165053  0.83586529  0.83453023  1
" 