643,Ni20Fe80_3,-242.920716593257, 207.923374444891,Ni20Fe80,"# generated using pymatgen
 data_Fe5Ni22
_symmetry_space_group_name_H-M   'P 1'
_cell_length_a   7.42639401
_cell_length_b   7.42639401
_cell_length_c   10.50250713
_cell_angle_alpha   90.00000000
_cell_angle_beta   90.00000000
_cell_angle_gamma   90.00000000
_symmetry_Int_Tables_number   1
_chemical_formula_structural   Fe5Ni22
_chemical_formula_sum   'Fe10 Ni44'
_cell_volume   579.22721495
_cell_formula_units_Z   2
loop_
 _symmetry_equiv_pos_site_id
 _symmetry_equiv_pos_as_xyz
  1  'x, y, z'
loop_
 _atom_site_type_symbol
 _atom_site_label
 _atom_site_symmetry_multiplicity
 _atom_site_fract_x
 _atom_site_fract_y
 _atom_site_fract_z
 _atom_site_occupancy
  Ni  Ni0  1  0.00325934  0.00392398  0.00319041  1
  Ni  Ni1  1  0.16936236  0.17003473  0.16947082  1
  Fe  Fe2  1  1.00248845  0.00298571  0.33569720  1
  Ni  Ni3  1  1.00216537  0.33432812  0.00277631  1
  Ni  Ni4  1  0.16973508  0.50246344  0.16978441  1
  Ni  Ni5  1  1.00258116  0.33567606  0.33554374  1
  Fe  Fe6  1  1.00249597  0.66916229  1.00249963  1
  Ni  Ni7  1  0.16977607  0.83571250  0.16921491  1
  Fe  Fe8  1  0.00279588  0.66890134  0.33662072  1
  Fe  Fe9  1  0.33606219  1.00273296  1.00273433  1
  Ni  Ni10  1  0.50313170  0.16973982  0.16984385  1
  Ni  Ni11  1  0.33598385  1.00179003  0.33528729  1
  Fe  Fe12  1  0.33582262  0.33638320  0.00292488  1
  Ni  Ni13  1  0.50253043  0.50253675  0.16939931  1
  Ni  Ni14  1  0.33516163  0.33632004  0.33499027  1
  Ni  Ni15  1  0.33691753  0.67025726  0.00307600  1
  Ni  Ni16  1  0.50279039  0.83593826  0.16958669  1
  Ni  Ni17  1  0.33659094  0.67009925  0.33587811  1
  Fe  Fe18  1  0.66996463  0.00273751  1.00267821  1
  Ni  Ni19  1  0.83571976  0.16977473  0.16921770  1
  Ni  Ni20  1  0.66933605  1.00213289  0.33502718  1
  Ni  Ni21  1  0.67055853  0.33655169  0.00341275  1
  Ni  Ni22  1  0.83594468  0.50212454  0.16953442  1
  Ni  Ni23  1  0.67046720  0.33628535  0.33554416  1
  Ni  Ni24  1  0.66799894  0.66916491  0.00311539  1
  Ni  Ni25  1  0.83564423  0.83630948  0.16974816  1
  Ni  Ni26  1  0.66869811  0.66979250  0.33564588  1
  Fe  Fe27  1  0.16909632  0.16965175  0.50292363  1
  Ni  Ni28  1  0.00294135  0.00294775  0.66917679  1
  Ni  Ni29  1  0.16920853  0.17036481  0.83536511  1
  Ni  Ni30  1  0.17000974  0.50285392  0.50277961  1
  Ni  Ni31  1  1.00267987  0.33552830  0.66989112  1
  Ni  Ni32  1  0.16959048  0.50255543  0.83564924  1
  Ni  Ni33  1  0.17005059  0.83536939  0.50341341  1
  Ni  Ni34  1  0.00301721  0.66973483  0.67008848  1
  Ni  Ni35  1  0.16958505  0.83529182  0.83558719  1
  Fe  Fe36  1  0.50323227  0.16939835  0.50273438  1
  Ni  Ni37  1  0.33553090  1.00200927  0.66994859  1
  Ni  Ni38  1  0.50334881  0.16928706  0.83539005  1
  Ni  Ni39  1  0.50221760  0.50289139  0.50319019  1
  Ni  Ni40  1  0.33549294  0.33616662  0.66984572  1
  Fe  Fe41  1  0.50248782  0.50298821  0.83594154  1
  Ni  Ni42  1  0.50252445  0.83568110  0.50303892  1
  Ni  Ni43  1  0.33609200  0.67003456  0.66925923  1
  Ni  Ni44  1  0.50300434  0.83633977  0.83558260  1
  Ni  Ni45  1  0.83567320  0.16967592  0.50307426  1
  Ni  Ni46  1  0.66973841  1.00234904  0.67014359  1
  Ni  Ni47  1  0.83565770  0.16927796  0.83591769  1
  Ni  Ni48  1  0.83598410  0.50173398  0.50329683  1
  Ni  Ni49  1  0.67003808  0.33608681  0.66925858  1
  Fe  Fe50  1  0.83625838  0.50242757  0.83594454  1
  Ni  Ni51  1  0.83563588  0.83680062  0.50311560  1
  Ni  Ni52  1  0.66910229  0.66977638  0.66945432  1
  Ni  Ni53  1  0.83562214  0.83672159  0.83534958  1
" 