1004,Ni20Fe56Cr23_6,-226.631545918545, 176.878933779171,Ni20Fe56Cr23,"# generated using pymatgen
 data_Cr7(Fe3Ni)5
_symmetry_space_group_name_H-M   'P 1'
_cell_length_a   7.46822668
_cell_length_b   7.46822668
_cell_length_c   10.56166746
_cell_angle_alpha   90.00000000
_cell_angle_beta   90.00000000
_cell_angle_gamma   90.00000000
_symmetry_Int_Tables_number   1
_chemical_formula_structural   Cr7(Fe3Ni)5
_chemical_formula_sum   'Cr14 Fe30 Ni10'
_cell_volume   589.07076826
_cell_formula_units_Z   2
loop_
 _symmetry_equiv_pos_site_id
 _symmetry_equiv_pos_as_xyz
  1  'x, y, z'
loop_
 _atom_site_type_symbol
 _atom_site_label
 _atom_site_symmetry_multiplicity
 _atom_site_fract_x
 _atom_site_fract_y
 _atom_site_fract_z
 _atom_site_occupancy
  Fe  Fe0  1  0.99804955  0.00073369  0.99761857  1
  Cr  Cr1  1  0.16649013  0.16363414  0.16753306  1
  Ni  Ni2  1  0.99808160  0.00007187  0.33467484  1
  Cr  Cr3  1  0.00031156  0.33401668  0.00073498  1
  Fe  Fe4  1  0.16659035  0.50331204  0.16737206  1
  Fe  Fe5  1  0.99740796  0.33360585  0.33429145  1
  Fe  Fe6  1  0.99944871  0.66681320  0.99741650  1
  Cr  Cr7  1  0.16602898  0.83388557  0.16614320  1
  Fe  Fe8  1  0.99962106  0.66622354  0.33584424  1
  Fe  Fe9  1  0.33497259  0.00002135  0.99843347  1
  Fe  Fe10  1  0.50404703  0.16519087  0.16629760  1
  Fe  Fe11  1  0.33581685  0.99810078  0.33479744  1
  Cr  Cr12  1  0.33352270  0.33556503  0.00182260  1
  Ni  Ni13  1  0.50190117  0.50084895  0.16711383  1
  Cr  Cr14  1  0.33363263  0.33451650  0.33002597  1
  Fe  Fe15  1  0.33652173  0.66625956  0.99958270  1
  Fe  Fe16  1  0.50047469  0.83197591  0.16666765  1
  Fe  Fe17  1  0.33468607  0.66767800  0.33320726  1
  Ni  Ni18  1  0.66654490  0.99792972  0.00067763  1
  Fe  Fe19  1  0.83066209  0.16594755  0.16715177  1
  Fe  Fe20  1  0.66584214  0.00052172  0.33398160  1
  Ni  Ni21  1  0.66555268  0.33265228  0.00061665  1
  Cr  Cr22  1  0.83092268  0.50164504  0.16666821  1
  Fe  Fe23  1  0.66681407  0.33296518  0.33299221  1
  Fe  Fe24  1  0.66431158  0.66471252  0.99851028  1
  Cr  Cr25  1  0.83333137  0.83246763  0.16662906  1
  Ni  Ni26  1  0.66511699  0.66734630  0.33410121  1
  Cr  Cr27  1  0.16733992  0.16612765  0.50095109  1
  Cr  Cr28  1  0.99790678  -0.00000870  0.66926516  1
  Ni  Ni29  1  0.16558196  0.16649173  0.83244138  1
  Fe  Fe30  1  0.16753831  0.49971883  0.49992013  1
  Ni  Ni31  1  0.00059791  0.33442483  0.66696406  1
  Fe  Fe32  1  0.16799847  0.49952716  0.83214914  1
  Fe  Fe33  1  0.16748259  0.83229875  0.49742023  1
  Cr  Cr34  1  0.99909792  0.66646394  0.66597959  1
  Fe  Fe35  1  0.16825058  0.83232896  0.83600684  1
  Ni  Ni36  1  0.50101878  0.16865178  0.49894711  1
  Cr  Cr37  1  0.33446154  0.99796582  0.66664011  1
  Cr  Cr38  1  0.49904361  0.16993670  0.83257570  1
  Fe  Fe39  1  0.50021850  0.49925223  0.49939015  1
  Fe  Fe40  1  0.33306568  0.33594620  0.66649568  1
  Ni  Ni41  1  0.50090887  0.50086956  0.83198127  1
  Fe  Fe42  1  0.49908045  0.83312192  0.49747463  1
  Fe  Fe43  1  0.33267330  0.66478601  0.66676881  1
  Fe  Fe44  1  0.50030891  0.83279219  0.83587624  1
  Fe  Fe45  1  0.83240743  0.16870000  0.49875457  1
  Cr  Cr46  1  0.66737186  0.99844277  0.66470386  1
  Fe  Fe47  1  0.83188242  0.16757341  0.83475173  1
  Fe  Fe48  1  0.83212643  0.49754657  0.49849586  1
  Fe  Fe49  1  0.66845887  0.33368695  0.66608700  1
  Fe  Fe50  1  0.83190972  0.49755613  0.83404260  1
  Fe  Fe51  1  0.83275909  0.83376100  0.49705991  1
  Cr  Cr52  1  0.66562577  0.66776144  0.66744522  1
  Ni  Ni53  1  0.83391775  0.83137195  0.83624316  1
" 