8970,Ni20Fe80_1,-242.412542178033, 205.561213060434,Ni20Fe80,"# generated using pymatgen
 data_Fe5Ni22
_symmetry_space_group_name_H-M   'P 1'
_cell_length_a   7.42427681
_cell_length_b   7.42427681
_cell_length_c   10.49951296
_cell_angle_alpha   90.00000000
_cell_angle_beta   90.00000000
_cell_angle_gamma   90.00000000
_symmetry_Int_Tables_number   1
_chemical_formula_structural   Fe5Ni22
_chemical_formula_sum   'Fe10 Ni44'
_cell_volume   578.73195940
_cell_formula_units_Z   2
loop_
 _symmetry_equiv_pos_site_id
 _symmetry_equiv_pos_as_xyz
  1  'x, y, z'
loop_
 _atom_site_type_symbol
 _atom_site_label
 _atom_site_symmetry_multiplicity
 _atom_site_fract_x
 _atom_site_fract_y
 _atom_site_fract_z
 _atom_site_occupancy
  Ni  Ni0  1  1.00230399  1.00244577  0.00306554  1
  Ni  Ni1  1  0.16927968  0.16926655  0.16978366  1
  Ni  Ni2  1  0.00397321  1.00115946  0.33625273  1
  Ni  Ni3  1  0.00309031  0.33606653  0.00398897  1
  Fe  Fe4  1  0.16931294  0.50195328  0.16973595  1
  Ni  Ni5  1  1.00275260  0.33657045  0.33559653  1
  Ni  Ni6  1  1.00286754  0.67012216  1.00278812  1
  Fe  Fe7  1  0.16888058  0.83676526  0.16880089  1
  Ni  Ni8  1  1.00205018  0.67055869  0.33600123  1
  Fe  Fe9  1  0.33625564  0.00334169  1.00264763  1
  Ni  Ni10  1  0.50190360  0.16903916  0.16988416  1
  Ni  Ni11  1  0.33629467  1.00224685  0.33582645  1
  Ni  Ni12  1  0.33702611  0.33662237  0.00294764  1
  Ni  Ni13  1  0.50287680  0.50377660  0.16996510  1
  Ni  Ni14  1  0.33765035  0.33531071  0.33620567  1
  Ni  Ni15  1  0.33634182  0.66904934  0.00399746  1
  Ni  Ni16  1  0.50248122  0.83569534  0.17020787  1
  Fe  Fe17  1  0.33498950  0.66848627  0.33652173  1
  Ni  Ni18  1  0.66967303  0.00305476  0.00414573  1
  Ni  Ni19  1  0.83767048  0.16957840  0.17006340  1
  Fe  Fe20  1  0.67077472  0.00406321  0.33579245  1
  Ni  Ni21  1  0.66856969  0.33602289  0.00336093  1
  Ni  Ni22  1  0.83615368  0.50319715  0.17003600  1
  Ni  Ni23  1  0.66885985  0.33706366  0.33574407  1
  Ni  Ni24  1  0.66920068  0.66960275  0.00310326  1
  Ni  Ni25  1  0.83559765  0.83604651  0.16942648  1
  Fe  Fe26  1  0.67011299  0.66937459  0.33668202  1
  Fe  Fe27  1  0.16989171  0.16961648  0.50222487  1
  Ni  Ni28  1  1.00277086  1.00245383  0.66910846  1
  Ni  Ni29  1  0.16857817  0.16952683  0.83547666  1
  Ni  Ni30  1  0.16934993  0.50182722  0.50242571  1
  Ni  Ni31  1  0.00306836  0.33621014  0.66875469  1
  Ni  Ni32  1  0.16942555  0.50295561  0.83660915  1
  Fe  Fe33  1  0.16828805  0.83489341  0.50368954  1
  Ni  Ni34  1  1.00277310  0.66962381  0.67005307  1
  Ni  Ni35  1  0.17082458  0.83622755  0.83593671  1
  Fe  Fe36  1  0.50452857  0.17073522  0.50287926  1
  Ni  Ni37  1  0.33653323  1.00280856  0.66950937  1
  Ni  Ni38  1  0.50303571  0.16866574  0.83592172  1
  Ni  Ni39  1  0.50217888  0.50464343  0.50322253  1
  Ni  Ni40  1  0.33669214  0.33638501  0.66931930  1
  Ni  Ni41  1  0.50253723  0.50408725  0.83570908  1
  Ni  Ni42  1  0.50209041  0.83677291  0.50217972  1
  Ni  Ni43  1  0.33604410  0.66960151  0.66869133  1
  Ni  Ni44  1  0.50201226  0.83590264  0.83639646  1
  Ni  Ni45  1  0.83831166  0.16951913  0.50178702  1
  Ni  Ni46  1  0.66944448  0.00298448  0.66885498  1
  Ni  Ni47  1  0.83693154  0.16993537  0.83667769  1
  Ni  Ni48  1  0.83689369  0.50251699  0.50284677  1
  Ni  Ni49  1  0.66938294  0.33627882  0.66958051  1
  Ni  Ni50  1  0.83665099  0.50176469  0.83584363  1
  Ni  Ni51  1  0.83510097  0.83687480  0.50353739  1
  Ni  Ni52  1  0.66937744  0.66981730  0.66940126  1
  Fe  Fe53  1  0.83588525  0.83643616  0.83633674  1
" 