3235,Ni20Fe56Cr23_15,-226.506205235717, 184.66088599386,Ni20Fe56Cr23,"# generated using pymatgen
 data_Cr7(Fe3Ni)5
_symmetry_space_group_name_H-M   'P 1'
_cell_length_a   7.45610396
_cell_length_b   7.45610396
_cell_length_c   10.54452334
_cell_angle_alpha   90.00000000
_cell_angle_beta   90.00000000
_cell_angle_gamma   90.00000000
_symmetry_Int_Tables_number   1
_chemical_formula_structural   Cr7(Fe3Ni)5
_chemical_formula_sum   'Cr14 Fe30 Ni10'
_cell_volume   586.20681263
_cell_formula_units_Z   2
loop_
 _symmetry_equiv_pos_site_id
 _symmetry_equiv_pos_as_xyz
  1  'x, y, z'
loop_
 _atom_site_type_symbol
 _atom_site_label
 _atom_site_symmetry_multiplicity
 _atom_site_fract_x
 _atom_site_fract_y
 _atom_site_fract_z
 _atom_site_occupancy
  Cr  Cr0  1  0.00120896  0.99912793  0.00163681  1
  Cr  Cr1  1  0.16917759  0.16776351  0.16729761  1
  Fe  Fe2  1  0.00102697  1.00046456  0.33425547  1
  Cr  Cr3  1  0.99934539  0.33714778  0.00202508  1
  Ni  Ni4  1  0.16940097  0.50250079  0.16845579  1
  Cr  Cr5  1  0.99878104  0.33580526  0.33457560  1
  Fe  Fe6  1  0.99985350  0.66775435  0.00186799  1
  Fe  Fe7  1  0.16935945  0.83527870  0.16795038  1
  Cr  Cr8  1  0.00196799  0.66706517  0.33140226  1
  Ni  Ni9  1  0.33711633  0.99999668  0.99998928  1
  Ni  Ni10  1  0.50182456  0.16673257  0.16690497  1
  Fe  Fe11  1  0.33409887  1.00047206  0.33330188  1
  Fe  Fe12  1  0.33591446  0.33309059  0.00208963  1
  Fe  Fe13  1  0.50122675  0.49822657  0.16908712  1
  Ni  Ni14  1  0.33657841  0.33568694  0.33360534  1
  Cr  Cr15  1  0.33320893  0.66716372  0.00225791  1
  Fe  Fe16  1  0.50063464  0.83533445  0.16757544  1
  Fe  Fe17  1  0.33618399  0.66648975  0.33437726  1
  Fe  Fe18  1  0.66528477  1.00069170  0.00209645  1
  Ni  Ni19  1  0.83106468  0.16638424  0.16884661  1
  Cr  Cr20  1  0.66648231  0.00213459  0.33522418  1
  Fe  Fe21  1  0.66494047  0.33375207  0.00132915  1
  Fe  Fe22  1  0.83102173  0.50002566  0.16660774  1
  Fe  Fe23  1  0.66542135  0.33646884  0.33445820  1
  Fe  Fe24  1  0.66850081  0.66795849  0.00086578  1
  Fe  Fe25  1  0.83244663  0.83407413  0.16719335  1
  Fe  Fe26  1  0.66611373  0.66496479  0.33447578  1
  Cr  Cr27  1  0.16719081  0.16637449  0.50156522  1
  Ni  Ni28  1  1.00025514  0.99939015  0.66598293  1
  Fe  Fe29  1  0.16850585  0.16660214  0.83385732  1
  Fe  Fe30  1  0.16991934  0.50119778  0.50025942  1
  Fe  Fe31  1  1.00041604  0.33398760  0.66633995  1
  Cr  Cr32  1  0.16875291  0.49916651  0.83193161  1
  Fe  Fe33  1  0.16821150  0.83168405  0.50054247  1
  Cr  Cr34  1  0.00086194  0.66655615  0.66791289  1
  Fe  Fe35  1  0.16708085  0.83473278  0.83382767  1
  Fe  Fe36  1  0.49985630  0.17091076  0.49832972  1
  Cr  Cr37  1  0.33615449  0.99872836  0.66904455  1
  Fe  Fe38  1  0.49962264  0.16974657  0.83693144  1
  Ni  Ni39  1  0.50073129  0.50346887  0.50044902  1
  Fe  Fe40  1  0.33476021  0.33514336  0.66544776  1
  Fe  Fe41  1  0.50237261  0.50148418  0.83287207  1
  Fe  Fe42  1  0.50013668  0.83096075  0.50003129  1
  Ni  Ni43  1  0.33551546  0.66639768  0.66539924  1
  Fe  Fe44  1  0.50181566  0.83134622  0.83498297  1
  Fe  Fe45  1  0.83376977  0.16857323  0.50057387  1
  Cr  Cr46  1  0.66663406  1.00033320  0.66698074  1
  Cr  Cr47  1  0.83494276  0.16713400  0.83314753  1
  Ni  Ni48  1  0.83169070  0.50273299  0.50106551  1
  Cr  Cr49  1  0.66677799  0.33491506  0.66507951  1
  Ni  Ni50  1  0.83172055  0.50318864  0.83519996  1
  Fe  Fe51  1  0.83427640  0.83266106  0.50038072  1
  Fe  Fe52  1  0.66581494  0.66795177  0.66718948  1
  Fe  Fe53  1  0.83365694  0.83170487  0.83455116  1
" 