1796,Ni20Fe56Cr23_4,-226.834907310432, 184.272247549449,Ni20Fe56Cr23,"# generated using pymatgen
 data_Cr7(Fe3Ni)5
_symmetry_space_group_name_H-M   'P 1'
_cell_length_a   7.45891289
_cell_length_b   7.45891289
_cell_length_c   10.54849577
_cell_angle_alpha   90.00000000
_cell_angle_beta   90.00000000
_cell_angle_gamma   90.00000000
_symmetry_Int_Tables_number   1
_chemical_formula_structural   Cr7(Fe3Ni)5
_chemical_formula_sum   'Cr14 Fe30 Ni10'
_cell_volume   586.86958692
_cell_formula_units_Z   2
loop_
 _symmetry_equiv_pos_site_id
 _symmetry_equiv_pos_as_xyz
  1  'x, y, z'
loop_
 _atom_site_type_symbol
 _atom_site_label
 _atom_site_symmetry_multiplicity
 _atom_site_fract_x
 _atom_site_fract_y
 _atom_site_fract_z
 _atom_site_occupancy
  Fe  Fe0  1  1.00012856  0.00064428  0.00230928  1
  Fe  Fe1  1  0.16367256  0.16712581  0.16753180  1
  Ni  Ni2  1  0.99954984  0.00125453  0.33325035  1
  Fe  Fe3  1  0.00151030  0.33262706  0.00161098  1
  Fe  Fe4  1  0.16812215  0.50045959  0.16660365  1
  Ni  Ni5  1  0.00066609  0.33133984  0.33407623  1
  Cr  Cr6  1  0.00245035  0.66860488  0.99883945  1
  Ni  Ni7  1  0.16662370  0.83582148  0.16877773  1
  Cr  Cr8  1  0.00367505  0.66903810  0.33590403  1
  Cr  Cr9  1  0.33488177  0.99888915  0.00148570  1
  Cr  Cr10  1  0.49892897  0.16933191  0.16774948  1
  Fe  Fe11  1  0.32952194  1.00005311  0.33405574  1
  Ni  Ni12  1  0.33441715  0.33503443  0.99968700  1
  Fe  Fe13  1  0.49864976  0.50379567  0.16602893  1
  Cr  Cr14  1  0.33298963  0.33434312  0.33540622  1
  Fe  Fe15  1  0.33324269  0.66742171  0.00173001  1
  Fe  Fe16  1  0.50134872  0.83135979  0.16808381  1
  Ni  Ni17  1  0.33356247  0.66789430  0.33024839  1
  Fe  Fe18  1  0.66895055  0.00063809  1.00013212  1
  Fe  Fe19  1  0.83689958  0.16498385  0.16667304  1
  Cr  Cr20  1  0.66854115  0.00234774  0.33425212  1
  Fe  Fe21  1  0.66745311  0.33179322  0.99931239  1
  Cr  Cr22  1  0.83200507  0.49940539  0.16816567  1
  Fe  Fe23  1  0.66901865  0.33224917  0.33454817  1
  Fe  Fe24  1  0.66606955  0.66943063  0.00120937  1
  Ni  Ni25  1  0.83522522  0.83342538  0.16678616  1
  Fe  Fe26  1  0.66731167  0.66852298  0.33145804  1
  Ni  Ni27  1  0.16607578  0.16447758  0.50025030  1
  Fe  Fe28  1  1.00042860  0.99971496  0.66578602  1
  Cr  Cr29  1  0.16768872  0.16588258  0.83482954  1
  Fe  Fe30  1  0.16794187  0.49858487  0.50090438  1
  Fe  Fe31  1  0.00253483  0.33385201  0.66578516  1
  Fe  Fe32  1  0.16679761  0.49927180  0.83436989  1
  Fe  Fe33  1  0.16708615  0.83633553  0.50026461  1
  Fe  Fe34  1  0.99874869  0.66804678  0.66853490  1
  Ni  Ni35  1  0.16509460  0.83502576  0.83282358  1
  Ni  Ni36  1  0.49734606  0.16578589  0.50232775  1
  Fe  Fe37  1  0.33385754  0.00235182  0.66765656  1
  Ni  Ni38  1  0.50101985  0.16655840  0.83264467  1
  Cr  Cr39  1  0.50256821  0.50137489  0.49768532  1
  Fe  Fe40  1  0.33237423  0.33168547  0.66650247  1
  Cr  Cr41  1  0.50208307  0.49995574  0.83563206  1
  Cr  Cr42  1  0.49947251  0.83411702  0.49946742  1
  Cr  Cr43  1  0.33081634  0.66651935  0.66899049  1
  Fe  Fe44  1  0.50056509  0.83633938  0.83334808  1
  Fe  Fe45  1  0.83582612  0.16606425  0.50009297  1
  Fe  Fe46  1  0.66716718  0.99924090  0.66762350  1
  Fe  Fe47  1  0.83369821  0.16561553  0.83485011  1
  Cr  Cr48  1  0.83459826  0.50267748  0.49984398  1
  Cr  Cr49  1  0.66676364  0.32992617  0.66605436  1
  Fe  Fe50  1  0.83594520  0.49949020  0.83336608  1
  Fe  Fe51  1  0.83546206  0.83746605  0.50142093  1
  Fe  Fe52  1  0.66918736  0.66913208  0.66860802  1
  Fe  Fe53  1  0.83288226  0.83611861  0.83386732  1
" 