6351,Ni20Fe17Cr62_15,-214.641665806205, 168.37712062389,Ni20Fe17Cr62,"# generated using pymatgen
 data_Cr34Fe9Ni11
_symmetry_space_group_name_H-M   'P 1'
_cell_length_a   7.53727935
_cell_length_b   7.53727935
_cell_length_c   10.65932267
_cell_angle_alpha   90.00000000
_cell_angle_beta   90.00000000
_cell_angle_gamma   90.00000000
_symmetry_Int_Tables_number   1
_chemical_formula_structural   Cr34Fe9Ni11
_chemical_formula_sum   'Cr34 Fe9 Ni11'
_cell_volume   605.56230267
_cell_formula_units_Z   1
loop_
 _symmetry_equiv_pos_site_id
 _symmetry_equiv_pos_as_xyz
  1  'x, y, z'
loop_
 _atom_site_type_symbol
 _atom_site_label
 _atom_site_symmetry_multiplicity
 _atom_site_fract_x
 _atom_site_fract_y
 _atom_site_fract_z
 _atom_site_occupancy
  Cr  Cr0  1  0.99261389  -0.00390015  -0.00366515  1
  Cr  Cr1  1  0.16000166  0.16260781  0.16544394  1
  Ni  Ni2  1  0.99220427  -0.00386036  0.32901758  1
  Ni  Ni3  1  -0.00424258  0.33030710  -0.00277509  1
  Fe  Fe4  1  0.16119342  0.49408645  0.16243975  1
  Ni  Ni5  1  -0.00280699  0.32899157  0.32903182  1
  Fe  Fe6  1  -0.00275132  0.65924787  -0.00369592  1
  Cr  Cr7  1  0.16345914  0.82903049  0.15987723  1
  Cr  Cr8  1  0.99519698  0.66224048  0.33059522  1
  Cr  Cr9  1  0.33176690  0.99498994  0.99167453  1
  Cr  Cr10  1  0.49308289  0.16172697  0.16389055  1
  Fe  Fe11  1  0.32669840  -0.00314769  0.32860755  1
  Cr  Cr12  1  0.32885624  0.33129101  -0.00315654  1
  Fe  Fe13  1  0.49289517  0.49546874  0.16245650  1
  Ni  Ni14  1  0.32620738  0.33247982  0.32792956  1
  Ni  Ni15  1  0.32849312  0.65969997  0.99529925  1
  Cr  Cr16  1  0.49337931  0.82625671  0.16346262  1
  Cr  Cr17  1  0.32779159  0.65751569  0.32881179  1
  Cr  Cr18  1  0.66202427  -0.00297543  0.99418514  1
  Ni  Ni19  1  0.83224200  0.16502620  0.16275197  1
  Cr  Cr20  1  0.66556153  0.99478955  0.32777293  1
  Cr  Cr21  1  0.66138010  0.32630778  -0.00360287  1
  Cr  Cr22  1  0.82979813  0.49355199  0.16030636  1
  Cr  Cr23  1  0.66095222  0.32936974  0.32574073  1
  Cr  Cr24  1  0.65994800  0.66221330  -0.00272512  1
  Cr  Cr25  1  0.82968001  0.82834505  0.16295958  1
  Fe  Fe26  1  0.66401345  0.66079472  0.32887991  1
  Cr  Cr27  1  0.16176827  0.16375207  0.49132384  1
  Cr  Cr28  1  0.99254233  0.99326209  0.66008221  1
  Cr  Cr29  1  0.16044067  0.16348971  0.82860905  1
  Ni  Ni30  1  0.16215327  0.49329654  0.49487130  1
  Fe  Fe31  1  -0.00302400  0.32906308  0.66070750  1
  Cr  Cr32  1  0.16040102  0.49560742  0.83037805  1
  Cr  Cr33  1  0.16379368  0.83046014  0.49412368  1
  Cr  Cr34  1  -0.00184010  0.66189644  0.65984673  1
  Cr  Cr35  1  0.16507381  0.82655255  0.83154660  1
  Cr  Cr36  1  0.49404569  0.16167748  0.49508641  1
  Cr  Cr37  1  0.33099400  0.99429287  0.66458843  1
  Fe  Fe38  1  0.49698309  0.16134933  0.82666519  1
  Cr  Cr39  1  0.49622430  0.49651168  0.49485140  1
  Cr  Cr40  1  0.32830517  0.33148760  0.66117452  1
  Cr  Cr41  1  0.49698010  0.49836111  0.82763889  1
  Cr  Cr42  1  0.49696537  0.82782894  0.49518511  1
  Ni  Ni43  1  0.32979950  0.66004475  0.66244986  1
  Ni  Ni44  1  0.49549255  0.82677905  0.82704562  1
  Cr  Cr45  1  0.82969195  0.16315361  0.49524614  1
  Ni  Ni46  1  0.66214580  0.99464357  0.66388759  1
  Cr  Cr47  1  0.82943243  0.16548941  0.82773771  1
  Cr  Cr48  1  0.82758697  0.49519628  0.49841157  1
  Fe  Fe49  1  0.66112021  0.32705102  0.66215533  1
  Cr  Cr50  1  0.82882643  0.49399172  0.82744180  1
  Ni  Ni51  1  0.82571107  0.82853376  0.49494721  1
  Fe  Fe52  1  0.66042902  0.66613080  0.66209354  1
  Cr  Cr53  1  0.82673448  0.82605793  0.82880717  1
" 