7017,Ni20Fe32Cr47_8,-220.241008193708, 181.230385231011,Ni20Fe32Cr47,"# generated using pymatgen
 data_Cr26Fe17Ni11
_symmetry_space_group_name_H-M   'P 1'
_cell_length_a   7.50026870
_cell_length_b   7.50026870
_cell_length_c   10.60698172
_cell_angle_alpha   90.00000000
_cell_angle_beta   90.00000000
_cell_angle_gamma   90.00000000
_symmetry_Int_Tables_number   1
_chemical_formula_structural   Cr26Fe17Ni11
_chemical_formula_sum   'Cr26 Fe17 Ni11'
_cell_volume   596.68547470
_cell_formula_units_Z   1
loop_
 _symmetry_equiv_pos_site_id
 _symmetry_equiv_pos_as_xyz
  1  'x, y, z'
loop_
 _atom_site_type_symbol
 _atom_site_label
 _atom_site_symmetry_multiplicity
 _atom_site_fract_x
 _atom_site_fract_y
 _atom_site_fract_z
 _atom_site_occupancy
  Fe  Fe0  1  -0.00134697  -0.00200497  0.00041569  1
  Fe  Fe1  1  0.16659907  0.16027897  0.16504445  1
  Ni  Ni2  1  -0.00031487  -0.00120390  0.33154966  1
  Cr  Cr3  1  0.00042595  0.33188697  0.00137440  1
  Fe  Fe4  1  0.16502874  0.50118766  0.16556229  1
  Cr  Cr5  1  -0.00209944  0.32926789  0.32686340  1
  Ni  Ni6  1  -0.00167610  0.66263183  0.00044308  1
  Cr  Cr7  1  0.16522466  0.83173230  0.16915078  1
  Fe  Fe8  1  0.99572214  0.66375096  0.33021416  1
  Fe  Fe9  1  0.33217238  0.99695373  0.00030862  1
  Ni  Ni10  1  0.49823842  0.16406532  0.16409192  1
  Fe  Fe11  1  0.33260127  -0.00043342  0.33010315  1
  Cr  Cr12  1  0.32882423  0.33025253  -0.00101755  1
  Cr  Cr13  1  0.50011304  0.49626954  0.16717503  1
  Cr  Cr14  1  0.33055564  0.33057560  0.33006851  1
  Cr  Cr15  1  0.33270764  0.66376088  0.99749975  1
  Ni  Ni16  1  0.49699094  0.83414079  0.16357876  1
  Fe  Fe17  1  0.33300017  0.66649358  0.33027693  1
  Ni  Ni18  1  0.66209194  0.99589382  -0.00010158  1
  Fe  Fe19  1  0.82717669  0.16241541  0.16398803  1
  Cr  Cr20  1  0.66445734  0.99655657  0.33182816  1
  Fe  Fe21  1  0.66493883  0.32996287  0.00142682  1
  Fe  Fe22  1  0.82943614  0.49801813  0.16526656  1
  Ni  Ni23  1  0.66376447  0.33044286  0.33017631  1
  Fe  Fe24  1  0.66387853  0.66542927  -0.00025181  1
  Cr  Cr25  1  0.83302511  0.83003484  0.16371824  1
  Ni  Ni26  1  0.66182849  0.66523219  0.32814614  1
  Fe  Fe27  1  0.16487817  0.16167554  0.49500143  1
  Cr  Cr28  1  0.99751944  -0.00063344  0.66174886  1
  Fe  Fe29  1  0.16463862  0.16256244  0.83308196  1
  Cr  Cr30  1  0.16638033  0.50259433  0.49663281  1
  Cr  Cr31  1  -0.00100429  0.32961281  0.66512758  1
  Fe  Fe32  1  0.16494310  0.49997902  0.83181099  1
  Ni  Ni33  1  0.16654289  0.83367817  0.49353203  1
  Cr  Cr34  1  -0.00004242  0.66447385  0.66520385  1
  Cr  Cr35  1  0.16477929  0.83245928  0.83139528  1
  Fe  Fe36  1  0.49802193  0.16748186  0.49578303  1
  Cr  Cr37  1  0.33232083  0.99656579  0.66402686  1
  Cr  Cr38  1  0.49862091  0.16429299  0.83303181  1
  Fe  Fe39  1  0.49789314  0.49864173  0.49603819  1
  Cr  Cr40  1  0.32902236  0.33196514  0.66413485  1
  Cr  Cr41  1  0.49913383  0.49572080  0.82755978  1
  Cr  Cr42  1  0.49346960  0.82965389  0.49548685  1
  Ni  Ni43  1  0.33130036  0.66541676  0.66408937  1
  Ni  Ni44  1  0.49520863  0.83197437  0.83516186  1
  Fe  Fe45  1  0.83132672  0.16492806  0.49514808  1
  Cr  Cr46  1  0.66413918  0.99693849  0.66219567  1
  Cr  Cr47  1  0.82934844  0.16525436  0.83190341  1
  Cr  Cr48  1  0.82697835  0.49556785  0.49591575  1
  Ni  Ni49  1  0.66278257  0.32944122  0.65928666  1
  Cr  Cr50  1  0.82969988  0.49646656  0.83296244  1
  Cr  Cr51  1  0.83629446  0.82961643  0.49562147  1
  Cr  Cr52  1  0.66116674  0.66838850  0.66627483  1
  Cr  Cr53  1  0.83168082  0.83209933  0.83535275  1
" 