590,Ni20Fe17Cr62_1,-214.335018825842, 163.783191092111,Ni20Fe17Cr62,"# generated using pymatgen
 data_Cr34Fe9Ni11
_symmetry_space_group_name_H-M   'P 1'
_cell_length_a   7.54385329
_cell_length_b   7.54385329
_cell_length_c   10.66861964
_cell_angle_alpha   90.00000000
_cell_angle_beta   90.00000000
_cell_angle_gamma   90.00000000
_symmetry_Int_Tables_number   1
_chemical_formula_structural   Cr34Fe9Ni11
_chemical_formula_sum   'Cr34 Fe9 Ni11'
_cell_volume   607.14818304
_cell_formula_units_Z   1
loop_
 _symmetry_equiv_pos_site_id
 _symmetry_equiv_pos_as_xyz
  1  'x, y, z'
loop_
 _atom_site_type_symbol
 _atom_site_label
 _atom_site_symmetry_multiplicity
 _atom_site_fract_x
 _atom_site_fract_y
 _atom_site_fract_z
 _atom_site_occupancy
  Cr  Cr0  1  -0.00456593  -0.00460105  0.99463167  1
  Ni  Ni1  1  0.16105808  0.16261938  0.16372046  1
  Cr  Cr2  1  0.99414971  -0.00296593  0.32920407  1
  Fe  Fe3  1  -0.00456976  0.32750098  -0.00322191  1
  Fe  Fe4  1  0.16121618  0.49299309  0.16336505  1
  Ni  Ni5  1  -0.00183064  0.32532855  0.32723936  1
  Cr  Cr6  1  0.99463791  0.66187977  -0.00306582  1
  Cr  Cr7  1  0.16404844  0.82860753  0.16453722  1
  Cr  Cr8  1  -0.00492401  0.66069693  0.32490861  1
  Cr  Cr9  1  0.32682033  -0.00453875  -0.00371584  1
  Cr  Cr10  1  0.49516871  0.15891608  0.16045480  1
  Fe  Fe11  1  0.32915376  0.99408408  0.32802111  1
  Cr  Cr12  1  0.32533816  0.32849340  -0.00431190  1
  Cr  Cr13  1  0.49533526  0.49557153  0.16202297  1
  Cr  Cr14  1  0.32699941  0.32939008  0.32816414  1
  Cr  Cr15  1  0.32916211  0.66014738  -0.00367733  1
  Fe  Fe16  1  0.49749392  0.82904265  0.16274370  1
  Ni  Ni17  1  0.33041698  0.66236360  0.32921784  1
  Ni  Ni18  1  0.66274016  0.99195774  -0.00311430  1
  Cr  Cr19  1  0.82679200  0.16153312  0.16202924  1
  Ni  Ni20  1  0.66015581  0.99301933  0.32811954  1
  Fe  Fe21  1  0.66160861  0.32925537  -0.00429623  1
  Cr  Cr22  1  0.82856109  0.49448731  0.16029966  1
  Cr  Cr23  1  0.66214841  0.32867276  0.33209803  1
  Ni  Ni24  1  0.66160797  0.66367675  -0.00308332  1
  Ni  Ni25  1  0.82558186  0.82958130  0.16044293  1
  Cr  Cr26  1  0.65949331  0.66298433  0.32906869  1
  Fe  Fe27  1  0.16101063  0.16349593  0.49435094  1
  Cr  Cr28  1  0.99454683  -0.00347436  0.66105577  1
  Cr  Cr29  1  0.16160818  0.16329498  0.82673633  1
  Cr  Cr30  1  0.16077803  0.49585089  0.49466105  1
  Ni  Ni31  1  -0.00279028  0.32845006  0.66003103  1
  Cr  Cr32  1  0.16056587  0.49578135  0.82555815  1
  Cr  Cr33  1  0.16331929  0.82750427  0.49652504  1
  Ni  Ni34  1  -0.00394770  0.65816356  0.66188225  1
  Cr  Cr35  1  0.16169387  0.82555184  0.82364503  1
  Cr  Cr36  1  0.49408048  0.16013139  0.49324547  1
  Cr  Cr37  1  0.32905850  -0.00343438  0.66140814  1
  Cr  Cr38  1  0.49641080  0.16202801  0.83169808  1
  Ni  Ni39  1  0.49110180  0.49639707  0.49610294  1
  Fe  Fe40  1  0.32697780  0.32955770  0.65960836  1
  Cr  Cr41  1  0.49484480  0.49412966  0.82701134  1
  Ni  Ni42  1  0.49237687  0.82832498  0.49097940  1
  Fe  Fe43  1  0.32955235  0.66052035  0.65867816  1
  Cr  Cr44  1  0.49475054  0.82867461  0.83022194  1
  Fe  Fe45  1  0.82968781  0.16229588  0.49389628  1
  Cr  Cr46  1  0.66152078  0.99440431  0.66009062  1
  Cr  Cr47  1  0.82635050  0.16344294  0.82985713  1
  Cr  Cr48  1  0.83087589  0.49316771  0.49490256  1
  Cr  Cr49  1  0.66048239  0.32882591  0.65901040  1
  Cr  Cr50  1  0.82874559  0.49451595  0.82974528  1
  Cr  Cr51  1  0.82898115  0.82853481  0.49455006  1
  Cr  Cr52  1  0.66020105  0.66147423  0.65889087  1
  Cr  Cr53  1  0.82852520  0.82679993  0.82896178  1
" 