2634,Ni20Fe80_14,-242.930642326748, 207.677207937145,Ni20Fe80,"# generated using pymatgen
 data_Fe5Ni22
_symmetry_space_group_name_H-M   'P 1'
_cell_length_a   7.42540799
_cell_length_b   7.42540799
_cell_length_c   10.50111268
_cell_angle_alpha   90.00000000
_cell_angle_beta   90.00000000
_cell_angle_gamma   90.00000000
_symmetry_Int_Tables_number   1
_chemical_formula_structural   Fe5Ni22
_chemical_formula_sum   'Fe10 Ni44'
_cell_volume   578.99652945
_cell_formula_units_Z   2
loop_
 _symmetry_equiv_pos_site_id
 _symmetry_equiv_pos_as_xyz
  1  'x, y, z'
loop_
 _atom_site_type_symbol
 _atom_site_label
 _atom_site_symmetry_multiplicity
 _atom_site_fract_x
 _atom_site_fract_y
 _atom_site_fract_z
 _atom_site_occupancy
  Ni  Ni0  1  0.00348261  1.00235708  0.00304968  1
  Ni  Ni1  1  0.17003823  0.16872589  0.16944789  1
  Ni  Ni2  1  1.00274109  0.00330112  0.33550168  1
  Fe  Fe3  1  1.00174717  0.33570521  0.00291858  1
  Ni  Ni4  1  0.17004010  0.50336876  0.16943772  1
  Fe  Fe5  1  0.00341748  0.33564333  0.33614502  1
  Ni  Ni6  1  1.00236362  0.66950308  0.00356944  1
  Ni  Ni7  1  0.16941521  0.83632323  0.17000453  1
  Fe  Fe8  1  0.00310888  0.67015358  0.33589411  1
  Ni  Ni9  1  0.33509824  0.00383910  0.00338821  1
  Ni  Ni10  1  0.50261223  0.16904643  0.16978419  1
  Ni  Ni11  1  0.33519785  0.00392601  0.33606368  1
  Fe  Fe12  1  0.33663145  0.33565076  0.00280430  1
  Ni  Ni13  1  0.50265490  0.50307784  0.16974622  1
  Ni  Ni14  1  0.33578470  0.33653404  0.33561417  1
  Fe  Fe15  1  0.33632247  0.67022703  0.00311173  1
  Ni  Ni16  1  0.50295905  0.83628751  0.16945124  1
  Ni  Ni17  1  0.33633419  0.66794946  0.33554375  1
  Ni  Ni18  1  0.66982851  0.00353601  0.00308620  1
  Ni  Ni19  1  0.83575401  0.16841688  0.16961452  1
  Ni  Ni20  1  0.67047189  1.00274607  0.33549412  1
  Ni  Ni21  1  0.66919013  0.33683595  0.00356975  1
  Ni  Ni22  1  0.83571771  0.50370700  0.16966241  1
  Fe  Fe23  1  0.66848380  0.33564187  0.33614509  1
  Ni  Ni24  1  0.67066640  0.66803866  1.00278413  1
  Ni  Ni25  1  0.83604437  0.83628244  0.16930975  1
  Ni  Ni26  1  0.66965044  0.66880457  0.33579442  1
  Ni  Ni27  1  0.17040435  0.16922155  0.50316291  1
  Ni  Ni28  1  0.00295356  1.00251190  0.66986163  1
  Ni  Ni29  1  0.17020116  0.16855915  0.83579826  1
  Ni  Ni30  1  0.17045623  0.50297028  0.50319651  1
  Fe  Fe31  1  0.00286272  0.33619439  0.66934821  1
  Ni  Ni32  1  0.17015141  0.50363383  0.83577626  1
  Fe  Fe33  1  0.16916475  0.83638398  0.50310532  1
  Ni  Ni34  1  1.00265447  0.66957641  0.66904136  1
  Ni  Ni35  1  0.16869503  0.83622149  0.83558104  1
  Ni  Ni36  1  0.50224908  0.16954333  0.50282842  1
  Ni  Ni37  1  0.33511426  0.00401491  0.66895994  1
  Ni  Ni38  1  0.50271651  0.16976322  0.83579901  1
  Ni  Ni39  1  0.50224251  0.50267775  0.50289581  1
  Ni  Ni40  1  0.33657317  0.33632032  0.66974833  1
  Ni  Ni41  1  0.50275366  0.50241728  0.83576877  1
  Fe  Fe42  1  0.50336627  0.83607100  0.50219511  1
  Ni  Ni43  1  0.33541495  0.66807597  0.66978113  1
  Fe  Fe44  1  0.50292718  0.83639372  0.83637531  1
  Ni  Ni45  1  0.83575477  0.16803441  0.50319912  1
  Ni  Ni46  1  0.67034267  0.00367328  0.66982725  1
  Ni  Ni47  1  0.83549090  0.16830498  0.83560046  1
  Ni  Ni48  1  0.83571361  0.50414156  0.50322326  1
  Ni  Ni49  1  0.66884330  0.33662051  0.66893569  1
  Ni  Ni50  1  0.83550859  0.50391933  0.83553043  1
  Ni  Ni51  1  0.83604535  0.83623487  0.50289675  1
  Ni  Ni52  1  0.67034227  0.66811706  0.66982929  1
  Ni  Ni53  1  0.83670899  0.83618310  0.83620638  1
" 