3888,Ni20Fe56Cr23_13,-226.82387953333, 176.428818726856,Ni20Fe56Cr23,"# generated using pymatgen
 data_Cr7(Fe3Ni)5
_symmetry_space_group_name_H-M   'P 1'
_cell_length_a   7.46919235
_cell_length_b   7.46919235
_cell_length_c   10.56303313
_cell_angle_alpha   90.00000000
_cell_angle_beta   90.00000000
_cell_angle_gamma   90.00000000
_symmetry_Int_Tables_number   1
_chemical_formula_structural   Cr7(Fe3Ni)5
_chemical_formula_sum   'Cr14 Fe30 Ni10'
_cell_volume   589.29930628
_cell_formula_units_Z   2
loop_
 _symmetry_equiv_pos_site_id
 _symmetry_equiv_pos_as_xyz
  1  'x, y, z'
loop_
 _atom_site_type_symbol
 _atom_site_label
 _atom_site_symmetry_multiplicity
 _atom_site_fract_x
 _atom_site_fract_y
 _atom_site_fract_z
 _atom_site_occupancy
  Fe  Fe0  1  0.99985395  0.99923089  0.00087512  1
  Fe  Fe1  1  0.16603694  0.16600033  0.16754459  1
  Fe  Fe2  1  0.00010640  0.99728152  0.33272865  1
  Fe  Fe3  1  0.00100627  0.33158586  0.99943156  1
  Cr  Cr4  1  0.16649393  0.50019328  0.16748506  1
  Fe  Fe5  1  0.99897348  0.33331388  0.33233884  1
  Ni  Ni6  1  0.00064543  0.66848539  0.99867846  1
  Fe  Fe7  1  0.16406789  0.83440641  0.16739728  1
  Fe  Fe8  1  0.99961163  0.66847649  0.33364781  1
  Fe  Fe9  1  0.33085909  0.00197840  0.99842958  1
  Cr  Cr10  1  0.49972882  0.16545335  0.16701713  1
  Fe  Fe11  1  0.33118256  0.99623666  0.33464930  1
  Fe  Fe12  1  0.33163950  0.33217092  0.99801750  1
  Ni  Ni13  1  0.49891392  0.50056341  0.16804883  1
  Fe  Fe14  1  0.33379732  0.33492163  0.33419646  1
  Cr  Cr15  1  0.33096611  0.66386154  0.99844970  1
  Cr  Cr16  1  0.49967991  0.83096861  0.16432631  1
  Fe  Fe17  1  0.33288440  0.66655986  0.33433187  1
  Ni  Ni18  1  0.66926336  0.00159831  0.00026718  1
  Ni  Ni19  1  0.83616003  0.16512095  0.16780890  1
  Fe  Fe20  1  0.66905892  0.99710669  0.33288953  1
  Cr  Cr21  1  0.66437016  0.33358365  0.99819334  1
  Cr  Cr22  1  0.83360547  0.50111109  0.16359621  1
  Fe  Fe23  1  0.66746678  0.33512740  0.33157233  1
  Fe  Fe24  1  0.66847633  0.66681698  0.99781349  1
  Fe  Fe25  1  0.83391549  0.83380094  0.16413531  1
  Fe  Fe26  1  0.66635033  0.66567840  0.33482260  1
  Cr  Cr27  1  0.16475899  0.16686640  0.49985773  1
  Fe  Fe28  1  0.00134358  0.99568016  0.66640541  1
  Fe  Fe29  1  0.16791721  0.16796063  0.83314456  1
  Fe  Fe30  1  0.16715628  0.50116627  0.49989818  1
  Fe  Fe31  1  0.00099266  0.33725631  0.66724285  1
  Fe  Fe32  1  0.16426083  0.49913908  0.83288575  1
  Ni  Ni33  1  0.16630012  0.82907128  0.50014641  1
  Fe  Fe34  1  0.00294766  0.66708060  0.66800306  1
  Fe  Fe35  1  0.16475332  0.83305808  0.83290405  1
  Cr  Cr36  1  0.50084136  0.16630253  0.50010130  1
  Cr  Cr37  1  0.33236340  0.99943672  0.66763510  1
  Ni  Ni38  1  0.49838363  0.16859610  0.83312220  1
  Fe  Fe39  1  0.49737735  0.50031044  0.49997740  1
  Ni  Ni40  1  0.33103568  0.33592477  0.66807551  1
  Ni  Ni41  1  0.49647939  0.49910143  0.83240770  1
  Ni  Ni42  1  0.49815105  0.82961646  0.49821378  1
  Fe  Fe43  1  0.33280708  0.66495621  0.66610899  1
  Cr  Cr44  1  0.50122678  0.83370637  0.83620792  1
  Cr  Cr45  1  0.83369284  0.16974174  0.50126087  1
  Cr  Cr46  1  0.66709570  0.99800419  0.66551702  1
  Cr  Cr47  1  0.83478445  0.16575443  0.83020824  1
  Fe  Fe48  1  0.83493187  0.50288438  0.49865687  1
  Fe  Fe49  1  0.66276449  0.33556716  0.66863831  1
  Fe  Fe50  1  0.83347688  0.50204550  0.83451761  1
  Fe  Fe51  1  0.83500142  0.83254802  0.49929628  1
  Cr  Cr52  1  0.66880699  0.66606609  0.66760153  1
  Ni  Ni53  1  0.83748162  0.83277286  0.83551947  1
" 