8589,Ni20Fe80_11,-242.644954560295, 205.592453173172,Ni20Fe80,"# generated using pymatgen
 data_Fe5Ni22
_symmetry_space_group_name_H-M   'P 1'
_cell_length_a   7.42537859
_cell_length_b   7.42537859
_cell_length_c   10.50107110
_cell_angle_alpha   90.00000000
_cell_angle_beta   90.00000000
_cell_angle_gamma   90.00000000
_symmetry_Int_Tables_number   1
_chemical_formula_structural   Fe5Ni22
_chemical_formula_sum   'Fe10 Ni44'
_cell_volume   578.98965180
_cell_formula_units_Z   2
loop_
 _symmetry_equiv_pos_site_id
 _symmetry_equiv_pos_as_xyz
  1  'x, y, z'
loop_
 _atom_site_type_symbol
 _atom_site_label
 _atom_site_symmetry_multiplicity
 _atom_site_fract_x
 _atom_site_fract_y
 _atom_site_fract_z
 _atom_site_occupancy
  Ni  Ni0  1  0.00305295  1.00223778  0.00318625  1
  Ni  Ni1  1  0.16967989  0.16933634  0.16968745  1
  Ni  Ni2  1  0.00326385  0.00340704  0.33552381  1
  Fe  Fe3  1  1.00075724  0.33624599  1.00277484  1
  Ni  Ni4  1  0.16867770  0.50078167  0.16899961  1
  Ni  Ni5  1  0.00317216  0.33543642  0.33501107  1
  Ni  Ni6  1  0.00338969  0.67052520  0.00323326  1
  Fe  Fe7  1  0.17000123  0.83521345  0.16970140  1
  Fe  Fe8  1  0.00282440  0.66868820  0.33618374  1
  Fe  Fe9  1  0.33705729  1.00238240  1.00279704  1
  Ni  Ni10  1  0.50133603  0.16863757  0.16980188  1
  Ni  Ni11  1  0.33560682  1.00253536  0.33534537  1
  Fe  Fe12  1  0.33605364  0.33633447  0.00302313  1
  Ni  Ni13  1  0.50333397  0.50286024  0.16963047  1
  Ni  Ni14  1  0.33595710  0.33675178  0.33643684  1
  Fe  Fe15  1  0.33728571  0.66958362  1.00249952  1
  Ni  Ni16  1  0.50496248  0.83690946  0.16898591  1
  Ni  Ni17  1  0.33659335  0.66887962  0.33509164  1
  Ni  Ni18  1  0.67091250  0.00314134  0.00294705  1
  Fe  Fe19  1  0.83486671  0.16986188  0.17013841  1
  Ni  Ni20  1  0.66955483  1.00275807  0.33558443  1
  Ni  Ni21  1  0.66807589  0.33646210  0.00346238  1
  Ni  Ni22  1  0.83616533  0.50433661  0.16920339  1
  Ni  Ni23  1  0.66907995  0.33668997  0.33552442  1
  Ni  Ni24  1  0.67015014  0.66913301  1.00268852  1
  Ni  Ni25  1  0.83527996  0.83574236  0.17010235  1
  Ni  Ni26  1  0.66817861  0.66908945  0.33555319  1
  Ni  Ni27  1  0.16904352  0.16923445  0.50294974  1
  Ni  Ni28  1  0.00342789  1.00255294  0.66967343  1
  Ni  Ni29  1  0.16926594  0.16925421  0.83568516  1
  Ni  Ni30  1  0.16865030  0.50219907  0.50323627  1
  Ni  Ni31  1  0.00299576  0.33612556  0.67068046  1
  Ni  Ni32  1  0.16869902  0.50187867  0.83622129  1
  Ni  Ni33  1  0.17053588  0.83695962  0.50234087  1
  Ni  Ni34  1  0.00369472  0.66976432  0.66932633  1
  Ni  Ni35  1  0.16908440  0.83725661  0.83707391  1
  Ni  Ni36  1  0.50268344  0.16842888  0.50283087  1
  Ni  Ni37  1  0.33555591  1.00248032  0.67012389  1
  Fe  Fe38  1  0.50274629  0.16986567  0.83576727  1
  Ni  Ni39  1  0.50346100  0.50338833  0.50251930  1
  Ni  Ni40  1  0.33621273  0.33669360  0.66905944  1
  Ni  Ni41  1  0.50372119  0.50329174  0.83619629  1
  Ni  Ni42  1  0.50256537  0.83657415  0.50292357  1
  Ni  Ni43  1  0.33571840  0.66936028  0.67071946  1
  Ni  Ni44  1  0.50412146  0.83660385  0.83636472  1
  Ni  Ni45  1  0.83667877  0.17025804  0.50252848  1
  Ni  Ni46  1  0.66948282  0.00288394  0.66976721  1
  Fe  Fe47  1  0.83611719  0.16916072  0.83546253  1
  Ni  Ni48  1  0.83616935  0.50187561  0.50290488  1
  Ni  Ni49  1  0.66914810  0.33667106  0.66942304  1
  Ni  Ni50  1  0.83592835  0.50370394  0.83644682  1
  Fe  Fe51  1  0.83578528  0.83651131  0.50297282  1
  Ni  Ni52  1  0.66905788  0.66898710  0.67003182  1
  Ni  Ni53  1  0.83569562  0.83559061  0.83516876  1
" 