7132,Ni20Fe32Cr47_0,-220.569847285939, 182.396678430811,Ni20Fe32Cr47,"# generated using pymatgen
 data_Cr26Fe17Ni11
_symmetry_space_group_name_H-M   'P 1'
_cell_length_a   7.50412212
_cell_length_b   7.50412212
_cell_length_c   10.61243127
_cell_angle_alpha   90.00000000
_cell_angle_beta   90.00000000
_cell_angle_gamma   90.00000000
_symmetry_Int_Tables_number   1
_chemical_formula_structural   Cr26Fe17Ni11
_chemical_formula_sum   'Cr26 Fe17 Ni11'
_cell_volume   597.60562416
_cell_formula_units_Z   1
loop_
 _symmetry_equiv_pos_site_id
 _symmetry_equiv_pos_as_xyz
  1  'x, y, z'
loop_
 _atom_site_type_symbol
 _atom_site_label
 _atom_site_symmetry_multiplicity
 _atom_site_fract_x
 _atom_site_fract_y
 _atom_site_fract_z
 _atom_site_occupancy
  Cr  Cr0  1  -0.00210908  0.99361952  -0.00115736  1
  Cr  Cr1  1  0.16753034  0.16544798  0.16266534  1
  Cr  Cr2  1  0.99423932  -0.00176563  0.32952434  1
  Cr  Cr3  1  0.99678224  0.32934568  0.99452571  1
  Cr  Cr4  1  0.16126068  0.49646700  0.16849666  1
  Ni  Ni5  1  -0.00215944  0.33280712  0.33617573  1
  Fe  Fe6  1  0.00038448  0.66341248  -0.00244013  1
  Fe  Fe7  1  0.16592741  0.82952860  0.16483003  1
  Ni  Ni8  1  0.99723224  0.66431041  0.33112650  1
  Ni  Ni9  1  0.33347674  0.99441873  -0.00148083  1
  Cr  Cr10  1  0.49624206  0.16341741  0.16255153  1
  Cr  Cr11  1  0.33349039  0.99623709  0.32945497  1
  Ni  Ni12  1  0.33314404  0.33468885  0.99584160  1
  Fe  Fe13  1  0.49805354  0.49793182  0.16533418  1
  Cr  Cr14  1  0.33359220  0.33527157  0.33466425  1
  Cr  Cr15  1  0.33143837  0.66343286  -0.00021242  1
  Ni  Ni16  1  0.49819784  0.82939395  0.16619073  1
  Fe  Fe17  1  0.33250878  0.66609765  0.33128506  1
  Cr  Cr18  1  0.66598860  0.99697251  -0.00119906  1
  Cr  Cr19  1  0.82957166  0.16814790  0.16681927  1
  Ni  Ni20  1  0.66327693  0.99510105  0.33353895  1
  Fe  Fe21  1  0.66025348  0.33230216  0.99720981  1
  Cr  Cr22  1  0.82952237  0.49827940  0.16553638  1
  Fe  Fe23  1  0.66518113  0.32922108  0.33327999  1
  Fe  Fe24  1  0.66057615  0.66378180  -0.00130989  1
  Cr  Cr25  1  0.82868841  0.82585024  0.16647027  1
  Fe  Fe26  1  0.66142416  0.66541066  0.33219779  1
  Ni  Ni27  1  0.16615555  0.16753465  0.49656561  1
  Cr  Cr28  1  0.99348079  0.99746499  0.66348946  1
  Cr  Cr29  1  0.16906915  0.16252006  0.83161608  1
  Fe  Fe30  1  0.16423141  0.50093351  0.49528385  1
  Cr  Cr31  1  -0.00204209  0.32964789  0.66241276  1
  Ni  Ni32  1  0.16348287  0.49750825  0.83069693  1
  Cr  Cr33  1  0.16453939  0.83338645  0.49570109  1
  Cr  Cr34  1  0.00051375  0.66490701  0.66609967  1
  Ni  Ni35  1  0.16524615  0.82944063  0.83306887  1
  Fe  Fe36  1  0.49874920  0.16075548  0.49751450  1
  Fe  Fe37  1  0.32893591  -0.00152094  0.66154298  1
  Cr  Cr38  1  0.49641586  0.16325365  0.83130760  1
  Fe  Fe39  1  0.49979450  0.50123639  0.49618424  1
  Cr  Cr40  1  0.33153453  0.33573561  0.66125373  1
  Fe  Fe41  1  0.49525647  0.49894174  0.83152375  1
  Ni  Ni42  1  0.50048443  0.83148014  0.49812726  1
  Cr  Cr43  1  0.33276617  0.66425036  0.66278645  1
  Cr  Cr44  1  0.49683166  0.83279338  0.82650735  1
  Fe  Fe45  1  0.82981627  0.16142062  0.49517096  1
  Fe  Fe46  1  0.66263745  0.99656014  0.65980823  1
  Fe  Fe47  1  0.83083955  0.16237205  0.83070516  1
  Cr  Cr48  1  0.83235333  0.49991407  0.49453962  1
  Cr  Cr49  1  0.66344409  0.32944894  0.66427529  1
  Cr  Cr50  1  0.82878186  0.49835786  0.83361821  1
  Ni  Ni51  1  0.82661917  0.82907730  0.49659453  1
  Fe  Fe52  1  0.66447786  0.66324035  0.66141053  1
  Cr  Cr53  1  0.82847481  0.82681460  0.82888098  1
" 