1564,Ni20Fe56Cr23_14,-226.564168595275, 183.909975809295,Ni20Fe56Cr23,"# generated using pymatgen
 data_Cr7(Fe3Ni)5
_symmetry_space_group_name_H-M   'P 1'
_cell_length_a   7.45763895
_cell_length_b   7.45763895
_cell_length_c   10.54669415
_cell_angle_alpha   90.00000000
_cell_angle_beta   90.00000000
_cell_angle_gamma   90.00000000
_symmetry_Int_Tables_number   1
_chemical_formula_structural   Cr7(Fe3Ni)5
_chemical_formula_sum   'Cr14 Fe30 Ni10'
_cell_volume   586.56893623
_cell_formula_units_Z   2
loop_
 _symmetry_equiv_pos_site_id
 _symmetry_equiv_pos_as_xyz
  1  'x, y, z'
loop_
 _atom_site_type_symbol
 _atom_site_label
 _atom_site_symmetry_multiplicity
 _atom_site_fract_x
 _atom_site_fract_y
 _atom_site_fract_z
 _atom_site_occupancy
  Cr  Cr0  1  0.99884936  0.99644667  1.00023517  1
  Cr  Cr1  1  0.16863329  0.16428489  0.16649813  1
  Cr  Cr2  1  0.99904719  0.99974520  0.33267870  1
  Fe  Fe3  1  0.00149293  0.33408708  0.99970965  1
  Fe  Fe4  1  0.16742748  0.50132515  0.16527746  1
  Cr  Cr5  1  0.00311012  0.33926443  0.33344543  1
  Ni  Ni6  1  1.00045816  0.66348052  0.00197205  1
  Fe  Fe7  1  0.16948790  0.83055379  0.16637030  1
  Fe  Fe8  1  0.00166764  0.66964578  0.33357258  1
  Ni  Ni9  1  0.33671270  0.00116819  0.00076268  1
  Fe  Fe10  1  0.50081961  0.16917442  0.16562505  1
  Ni  Ni11  1  0.33745786  1.00038439  0.33331842  1
  Ni  Ni12  1  0.33456514  0.33575929  1.00042252  1
  Cr  Cr13  1  0.50034769  0.50220941  0.16591824  1
  Fe  Fe14  1  0.33691166  0.33383467  0.33521726  1
  Fe  Fe15  1  0.33170634  0.66935068  0.99912060  1
  Fe  Fe16  1  0.49820973  0.83435265  0.16718037  1
  Fe  Fe17  1  0.33376259  0.66751116  0.33491533  1
  Cr  Cr18  1  0.66553333  1.00009045  0.00173160  1
  Ni  Ni19  1  0.83321019  0.16877914  0.16443949  1
  Cr  Cr20  1  0.66572266  0.99934339  0.33092107  1
  Fe  Fe21  1  0.66732458  0.33400793  0.99829348  1
  Cr  Cr22  1  0.83083072  0.49989559  0.16754862  1
  Fe  Fe23  1  0.66570961  0.33279614  0.33511645  1
  Fe  Fe24  1  0.66664490  0.66746269  0.99812873  1
  Fe  Fe25  1  0.83365387  0.83104793  0.16681936  1
  Fe  Fe26  1  0.66655918  0.66698556  0.33572823  1
  Fe  Fe27  1  0.16959800  0.16999184  0.50015249  1
  Fe  Fe28  1  1.00050686  0.99919536  0.66921546  1
  Cr  Cr29  1  0.16686334  0.16415869  0.83303041  1
  Fe  Fe30  1  0.16741711  0.50263214  0.50108140  1
  Ni  Ni31  1  1.00039945  0.33907975  0.66838180  1
  Fe  Fe32  1  0.16675267  0.50187370  0.83518045  1
  Cr  Cr33  1  0.16678752  0.83679690  0.50208931  1
  Ni  Ni34  1  0.99893424  0.66505984  0.66710258  1
  Ni  Ni35  1  0.16678550  0.83019329  0.83446222  1
  Fe  Fe36  1  0.50034907  0.16855497  0.49954874  1
  Cr  Cr37  1  0.33754394  0.00092131  0.66768234  1
  Ni  Ni38  1  0.50177047  0.17034686  0.83649999  1
  Ni  Ni39  1  0.50266018  0.50182790  0.50042275  1
  Cr  Cr40  1  0.33358292  0.33663866  0.66471529  1
  Fe  Fe41  1  0.49941076  0.50155049  0.83491854  1
  Fe  Fe42  1  0.50133889  0.83106528  0.49928130  1
  Fe  Fe43  1  0.33326175  0.66670299  0.66814392  1
  Fe  Fe44  1  0.49797376  0.83297436  0.83580977  1
  Cr  Cr45  1  0.83615091  0.16904515  0.50500520  1
  Cr  Cr46  1  0.66622696  0.99787999  0.66923038  1
  Fe  Fe47  1  0.83325830  0.16924436  0.83295006  1
  Fe  Fe48  1  0.83347723  0.50329802  0.50161267  1
  Fe  Fe49  1  0.66783711  0.33690873  0.66905590  1
  Fe  Fe50  1  0.83534864  0.50144617  0.83462777  1
  Fe  Fe51  1  0.83188528  0.82973553  0.50193328  1
  Fe  Fe52  1  0.66654934  0.66374173  0.66789531  1
  Fe  Fe53  1  0.83553696  0.83021234  0.83306727  1
" 