7581,Ni20Fe56Cr23_18,-226.501694489341, 183.054176196295,Ni20Fe56Cr23,"# generated using pymatgen
 data_Cr7(Fe3Ni)5
_symmetry_space_group_name_H-M   'P 1'
_cell_length_a   7.45829872
_cell_length_b   7.45829872
_cell_length_c   10.54762720
_cell_angle_alpha   90.00000000
_cell_angle_beta   90.00000000
_cell_angle_gamma   90.00000000
_symmetry_Int_Tables_number   1
_chemical_formula_structural   Cr7(Fe3Ni)5
_chemical_formula_sum   'Cr14 Fe30 Ni10'
_cell_volume   586.72462827
_cell_formula_units_Z   2
loop_
 _symmetry_equiv_pos_site_id
 _symmetry_equiv_pos_as_xyz
  1  'x, y, z'
loop_
 _atom_site_type_symbol
 _atom_site_label
 _atom_site_symmetry_multiplicity
 _atom_site_fract_x
 _atom_site_fract_y
 _atom_site_fract_z
 _atom_site_occupancy
  Fe  Fe0  1  0.00335032  0.99919922  0.00281243  1
  Cr  Cr1  1  0.16818550  0.16644671  0.16569087  1
  Fe  Fe2  1  0.00147527  0.99958769  0.33211758  1
  Ni  Ni3  1  0.99960205  0.33257485  1.00010352  1
  Fe  Fe4  1  0.17004961  0.49911310  0.16684813  1
  Fe  Fe5  1  0.00071607  0.33315814  0.33400226  1
  Cr  Cr6  1  0.00239726  0.66669792  0.00313124  1
  Ni  Ni7  1  0.16998245  0.83224574  0.16722530  1
  Fe  Fe8  1  0.00141125  0.66858903  0.33264260  1
  Ni  Ni9  1  0.33702043  1.00052662  0.00066343  1
  Ni  Ni10  1  0.50132204  0.16881097  0.16737823  1
  Fe  Fe11  1  0.33348103  0.99960441  0.33128761  1
  Fe  Fe12  1  0.33629124  0.33398069  1.00028494  1
  Fe  Fe13  1  0.49677111  0.49945395  0.16894086  1
  Fe  Fe14  1  0.33621132  0.33379336  0.33487027  1
  Ni  Ni15  1  0.33559046  0.66971782  0.00107696  1
  Fe  Fe16  1  0.49753229  0.83533709  0.16764320  1
  Ni  Ni17  1  0.33289430  0.66560828  0.33177086  1
  Fe  Fe18  1  0.66442810  0.00219331  0.00372193  1
  Ni  Ni19  1  0.83254978  0.16817597  0.16513193  1
  Cr  Cr20  1  0.66641339  0.00140873  0.33074966  1
  Fe  Fe21  1  0.66305715  0.33355154  0.00077842  1
  Cr  Cr22  1  0.83267868  0.49821587  0.16766067  1
  Fe  Fe23  1  0.66495559  0.33464407  0.33428598  1
  Cr  Cr24  1  0.66489634  0.66875126  0.00185835  1
  Fe  Fe25  1  0.83553937  0.83767687  0.16776227  1
  Fe  Fe26  1  0.66507449  0.66630435  0.33320263  1
  Fe  Fe27  1  0.16907172  0.16777381  0.49735078  1
  Fe  Fe28  1  0.00108677  0.00318082  0.66631114  1
  Fe  Fe29  1  0.16789757  0.16555211  0.83711373  1
  Fe  Fe30  1  0.17040732  0.50100375  0.49710130  1
  Cr  Cr31  1  0.00129004  0.33388382  0.66547710  1
  Cr  Cr32  1  0.16816060  0.50159442  0.83778363  1
  Cr  Cr33  1  0.16808917  0.83545591  0.50136972  1
  Cr  Cr34  1  0.00063350  0.66662114  0.66712217  1
  Fe  Fe35  1  0.17032406  0.83710977  0.83546899  1
  Fe  Fe36  1  0.49896533  0.16709420  0.49897675  1
  Fe  Fe37  1  0.33343175  0.00141666  0.67049186  1
  Ni  Ni38  1  0.49946173  0.16503093  0.83518988  1
  Ni  Ni39  1  0.50139536  0.50049701  0.49940030  1
  Cr  Cr40  1  0.33416050  0.33205186  0.66656719  1
  Fe  Fe41  1  0.50214766  0.50032461  0.83444028  1
  Cr  Cr42  1  0.49915847  0.83269628  0.50275149  1
  Fe  Fe43  1  0.33594536  0.66526220  0.66834383  1
  Fe  Fe44  1  0.49887873  0.83442160  0.83308999  1
  Fe  Fe45  1  0.83391294  0.16626030  0.49777411  1
  Fe  Fe46  1  0.66650065  0.00172611  0.66681997  1
  Cr  Cr47  1  0.83318655  0.16831599  0.83895267  1
  Fe  Fe48  1  0.83243286  0.50244377  0.49779891  1
  Cr  Cr49  1  0.66705270  0.33292478  0.66630148  1
  Ni  Ni50  1  0.83253963  0.50014975  0.83439201  1
  Fe  Fe51  1  0.83232591  0.83348195  0.50056574  1
  Fe  Fe52  1  0.66562969  0.66507268  0.66784501  1
  Cr  Cr53  1  0.83370867  0.83495837  0.83322996  1
" 