2538,Ni20Fe32Cr47_13,-220.40174499343, 178.551554265498,Ni20Fe32Cr47,"# generated using pymatgen
 data_Cr26Fe17Ni11
_symmetry_space_group_name_H-M   'P 1'
_cell_length_a   7.50308530
_cell_length_b   7.50308530
_cell_length_c   10.61096500
_cell_angle_alpha   90.00000000
_cell_angle_beta   90.00000000
_cell_angle_gamma   90.00000000
_symmetry_Int_Tables_number   1
_chemical_formula_structural   Cr26Fe17Ni11
_chemical_formula_sum   'Cr26 Fe17 Ni11'
_cell_volume   597.35795295
_cell_formula_units_Z   1
loop_
 _symmetry_equiv_pos_site_id
 _symmetry_equiv_pos_as_xyz
  1  'x, y, z'
loop_
 _atom_site_type_symbol
 _atom_site_label
 _atom_site_symmetry_multiplicity
 _atom_site_fract_x
 _atom_site_fract_y
 _atom_site_fract_z
 _atom_site_occupancy
  Ni  Ni0  1  0.99580000  -0.00207497  0.00113800  1
  Cr  Cr1  1  0.15944781  0.16568913  0.16358646  1
  Fe  Fe2  1  0.99417641  -0.00018368  0.33092681  1
  Cr  Cr3  1  0.99119757  0.33285274  -0.00066580  1
  Fe  Fe4  1  0.16435724  0.49587391  0.16681111  1
  Ni  Ni5  1  0.99660445  0.33430363  0.33125194  1
  Cr  Cr6  1  -0.00067544  0.66129336  -0.00201160  1
  Ni  Ni7  1  0.16176002  0.82985253  0.16715045  1
  Cr  Cr8  1  0.00056355  0.66213361  0.33206190  1
  Cr  Cr9  1  0.32908502  0.99566095  0.99561286  1
  Cr  Cr10  1  0.49795749  0.16646814  0.16481358  1
  Cr  Cr11  1  0.33097497  0.99457250  0.33088294  1
  Fe  Fe12  1  0.33140354  0.33121883  -0.00144493  1
  Fe  Fe13  1  0.49991689  0.49580835  0.16468443  1
  Fe  Fe14  1  0.32900139  0.33184608  0.33034358  1
  Cr  Cr15  1  0.32819325  0.66432461  0.00212780  1
  Cr  Cr16  1  0.50320603  0.82697465  0.16651263  1
  Fe  Fe17  1  0.33089164  0.66044424  0.32859037  1
  Cr  Cr18  1  0.66337855  0.00576174  0.99428075  1
  Ni  Ni19  1  0.83101346  0.16634985  0.16721601  1
  Ni  Ni20  1  0.66478686  -0.00057349  0.33537425  1
  Ni  Ni21  1  0.66553355  0.33378863  -0.00239328  1
  Fe  Fe22  1  0.82922084  0.49693288  0.16577228  1
  Cr  Cr23  1  0.66719561  0.32950000  0.33268268  1
  Fe  Fe24  1  0.66698289  0.66099397  -0.00082245  1
  Cr  Cr25  1  0.83042071  0.83405936  0.16421399  1
  Fe  Fe26  1  0.66877767  0.66291479  0.33212225  1
  Cr  Cr27  1  0.16150806  0.16927913  0.49565396  1
  Cr  Cr28  1  0.99636371  -0.00054297  0.66204472  1
  Cr  Cr29  1  0.16102852  0.16728534  0.83322793  1
  Fe  Fe30  1  0.16272560  0.49857246  0.49907593  1
  Ni  Ni31  1  0.99584725  0.33581688  0.66180315  1
  Cr  Cr32  1  0.16417795  0.49478949  0.82504033  1
  Fe  Fe33  1  0.16558766  0.83075586  0.49701369  1
  Fe  Fe34  1  0.99670673  0.66416887  0.65970496  1
  Cr  Cr35  1  0.16046226  0.82978339  0.82893287  1
  Ni  Ni36  1  0.49526219  0.16597945  0.49656541  1
  Cr  Cr37  1  0.33335240  0.99685689  0.66590747  1
  Ni  Ni38  1  0.49892307  0.17075308  0.83073877  1
  Cr  Cr39  1  0.49493736  0.49599240  0.49578846  1
  Fe  Fe40  1  0.33192366  0.32850486  0.66272928  1
  Cr  Cr41  1  0.49700160  0.49698329  0.83310251  1
  Cr  Cr42  1  0.50273527  0.82796578  0.49590241  1
  Fe  Fe43  1  0.32919481  0.66245738  0.66167624  1
  Cr  Cr44  1  0.50066563  0.82727682  0.83122186  1
  Fe  Fe45  1  0.83088097  0.16378127  0.49573989  1
  Cr  Cr46  1  0.66267190  0.00082463  0.66274051  1
  Ni  Ni47  1  0.83258728  0.16622086  0.83095655  1
  Fe  Fe48  1  0.83278905  0.49644024  0.49723081  1
  Cr  Cr49  1  0.66749575  0.32862212  0.66374765  1
  Fe  Fe50  1  0.83111998  0.49429029  0.83056194  1
  Ni  Ni51  1  0.83380574  0.82981283  0.49484318  1
  Cr  Cr52  1  0.66785585  0.66057669  0.66431366  1
  Cr  Cr53  1  0.83153542  0.83028401  0.83323448  1
" 