5714,Ni20Fe56Cr23_8,-226.608920881005, 183.232699331774,Ni20Fe56Cr23,"# generated using pymatgen
 data_Cr7(Fe3Ni)5
_symmetry_space_group_name_H-M   'P 1'
_cell_length_a   7.45741135
_cell_length_b   7.45741135
_cell_length_c   10.54637227
_cell_angle_alpha   90.00000000
_cell_angle_beta   90.00000000
_cell_angle_gamma   90.00000000
_symmetry_Int_Tables_number   1
_chemical_formula_structural   Cr7(Fe3Ni)5
_chemical_formula_sum   'Cr14 Fe30 Ni10'
_cell_volume   586.51523282
_cell_formula_units_Z   2
loop_
 _symmetry_equiv_pos_site_id
 _symmetry_equiv_pos_as_xyz
  1  'x, y, z'
loop_
 _atom_site_type_symbol
 _atom_site_label
 _atom_site_symmetry_multiplicity
 _atom_site_fract_x
 _atom_site_fract_y
 _atom_site_fract_z
 _atom_site_occupancy
  Ni  Ni0  1  0.00130550  0.00294241  0.99917384  1
  Ni  Ni1  1  0.16825088  0.16702691  0.16790999  1
  Fe  Fe2  1  0.00204474  0.00120752  0.33585311  1
  Cr  Cr3  1  0.99940006  0.33199733  0.00107505  1
  Cr  Cr4  1  0.16664676  0.50130118  0.17202215  1
  Fe  Fe5  1  1.00062054  0.33330637  0.33635935  1
  Fe  Fe6  1  0.00159486  0.66758090  0.99939370  1
  Cr  Cr7  1  0.16468908  0.83403523  0.16755061  1
  Fe  Fe8  1  1.00038111  0.66794249  0.33841494  1
  Fe  Fe9  1  0.33073400  0.00190242  0.00075416  1
  Cr  Cr10  1  0.49983453  0.16671471  0.16644413  1
  Ni  Ni11  1  0.33264165  0.00087949  0.33436267  1
  Ni  Ni12  1  0.33205131  0.33328313  1.00032270  1
  Cr  Cr13  1  0.50088828  0.49715285  0.17074558  1
  Fe  Fe14  1  0.33326272  0.33155120  0.33634569  1
  Cr  Cr15  1  0.33655515  0.66988401  0.00240005  1
  Fe  Fe16  1  0.50086501  0.83495103  0.17136466  1
  Fe  Fe17  1  0.33514241  0.66965302  0.33771698  1
  Fe  Fe18  1  0.66762190  0.00095799  0.99873604  1
  Cr  Cr19  1  0.83095984  0.16529753  0.17022606  1
  Fe  Fe20  1  0.66451051  0.99880399  0.33855517  1
  Fe  Fe21  1  0.66763794  0.33418746  0.99846127  1
  Fe  Fe22  1  0.83382048  0.49985473  0.17171443  1
  Fe  Fe23  1  0.66742175  0.33409105  0.33926523  1
  Cr  Cr24  1  0.66717621  0.66658419  0.99842398  1
  Cr  Cr25  1  0.83444286  0.83259540  0.16899877  1
  Ni  Ni26  1  0.66765642  0.66625232  0.33724405  1
  Fe  Fe27  1  0.16746135  0.16788283  0.49898896  1
  Fe  Fe28  1  0.00437030  0.00210815  0.66695699  1
  Fe  Fe29  1  0.16503358  0.16451437  0.83366375  1
  Fe  Fe30  1  0.16845262  0.49973906  0.50137911  1
  Fe  Fe31  1  0.00226291  0.33309866  0.66567909  1
  Cr  Cr32  1  0.16899643  0.50273481  0.83084255  1
  Fe  Fe33  1  0.16776784  0.83473645  0.50150712  1
  Fe  Fe34  1  0.00156238  0.66785307  0.66378054  1
  Ni  Ni35  1  0.16789098  0.83347857  0.83231512  1
  Ni  Ni36  1  0.49897579  0.16743388  0.49852999  1
  Fe  Fe37  1  0.33267127  1.00035808  0.66433807  1
  Cr  Cr38  1  0.49870834  0.16893561  0.83649017  1
  Fe  Fe39  1  0.50067543  0.50064209  0.49999251  1
  Fe  Fe40  1  0.33414207  0.33327558  0.66518827  1
  Fe  Fe41  1  0.50008443  0.50253220  0.83216142  1
  Fe  Fe42  1  0.49943020  0.83319350  0.49899131  1
  Ni  Ni43  1  0.33449739  0.66849245  0.66456575  1
  Fe  Fe44  1  0.49806663  0.83429122  0.83078842  1
  Fe  Fe45  1  0.83548443  0.16870530  0.49964478  1
  Cr  Cr46  1  0.66789804  0.99989651  0.66291507  1
  Ni  Ni47  1  0.83317799  0.16659371  0.83289168  1
  Ni  Ni48  1  0.83559962  0.50258308  0.50048811  1
  Cr  Cr49  1  0.66969432  0.33556283  0.66682965  1
  Fe  Fe50  1  0.83529412  0.49978719  0.83112471  1
  Fe  Fe51  1  0.83467274  0.83385614  0.49911310  1
  Fe  Fe52  1  0.66606775  0.66676541  0.66444662  1
  Cr  Cr53  1  0.83779316  0.83390103  0.83144145  1
" 