2391,Ni20Fe80_13,-242.723752696631, 206.824784708717,Ni20Fe80,"# generated using pymatgen
 data_Fe5Ni22
_symmetry_space_group_name_H-M   'P 1'
_cell_length_a   7.42432807
_cell_length_b   7.42432807
_cell_length_c   10.49958545
_cell_angle_alpha   90.00000000
_cell_angle_beta   90.00000000
_cell_angle_gamma   90.00000000
_symmetry_Int_Tables_number   1
_chemical_formula_structural   Fe5Ni22
_chemical_formula_sum   'Fe10 Ni44'
_cell_volume   578.74394643
_cell_formula_units_Z   2
loop_
 _symmetry_equiv_pos_site_id
 _symmetry_equiv_pos_as_xyz
  1  'x, y, z'
loop_
 _atom_site_type_symbol
 _atom_site_label
 _atom_site_symmetry_multiplicity
 _atom_site_fract_x
 _atom_site_fract_y
 _atom_site_fract_z
 _atom_site_occupancy
  Ni  Ni0  1  0.00401009  0.00337018  1.00275018  1
  Ni  Ni1  1  0.16934275  0.17038252  0.16946561  1
  Ni  Ni2  1  1.00203012  0.00311865  0.33633783  1
  Ni  Ni3  1  1.00100405  0.33545078  1.00240222  1
  Ni  Ni4  1  0.16991762  0.50319703  0.16869965  1
  Ni  Ni5  1  1.00277834  0.33551265  0.33667741  1
  Ni  Ni6  1  1.00270857  0.66977077  1.00241181  1
  Ni  Ni7  1  0.16948417  0.83528570  0.16952628  1
  Ni  Ni8  1  0.00306895  0.66996830  0.33628379  1
  Ni  Ni9  1  0.33598311  1.00247593  0.00329063  1
  Ni  Ni10  1  0.50353129  0.16977879  0.16875390  1
  Fe  Fe11  1  0.33646467  0.00296475  0.33570889  1
  Fe  Fe12  1  0.33487990  0.33700812  0.00299056  1
  Fe  Fe13  1  0.50274735  0.50313829  0.16967747  1
  Ni  Ni14  1  0.33682685  0.33662700  0.33576978  1
  Ni  Ni15  1  0.33693452  0.67107983  1.00232394  1
  Ni  Ni16  1  0.50346758  0.83601369  0.16922712  1
  Ni  Ni17  1  0.33679162  0.66932932  0.33657965  1
  Fe  Fe18  1  0.67084058  1.00201571  0.00407192  1
  Ni  Ni19  1  0.83575418  0.16926036  0.16956723  1
  Ni  Ni20  1  0.66968976  0.00310343  0.33598155  1
  Ni  Ni21  1  0.66964756  0.33623758  1.00278880  1
  Fe  Fe22  1  0.83695262  0.50281511  0.16986029  1
  Ni  Ni23  1  0.66911040  0.33551358  0.33683095  1
  Ni  Ni24  1  0.66890097  0.66833436  1.00282811  1
  Ni  Ni25  1  0.83589997  0.83621869  0.16926096  1
  Ni  Ni26  1  0.66880985  0.66998118  0.33645187  1
  Ni  Ni27  1  0.16994224  0.17012060  0.50237764  1
  Ni  Ni28  1  0.00319883  0.00312325  0.66958361  1
  Ni  Ni29  1  0.16937933  0.16940627  0.83670082  1
  Ni  Ni30  1  0.17013432  0.50270308  0.50388498  1
  Ni  Ni31  1  1.00239770  0.33570415  0.66962243  1
  Ni  Ni32  1  0.17008331  0.50301868  0.83617771  1
  Ni  Ni33  1  0.16957319  0.83582875  0.50236226  1
  Ni  Ni34  1  1.00286648  0.66979715  0.67003480  1
  Ni  Ni35  1  0.16923413  0.83636581  0.83648527  1
  Ni  Ni36  1  0.50282881  0.16999829  0.50293417  1
  Ni  Ni37  1  0.33606448  1.00275045  0.66855861  1
  Fe  Fe38  1  0.50240561  0.16975950  0.83649641  1
  Ni  Ni39  1  0.50244898  0.50270191  0.50231775  1
  Ni  Ni40  1  0.33683546  0.33605160  0.67044846  1
  Ni  Ni41  1  0.50264564  0.50284668  0.83695982  1
  Ni  Ni42  1  0.50309648  0.83595246  0.50281688  1
  Ni  Ni43  1  0.33699693  0.66979822  0.66969565  1
  Fe  Fe44  1  0.50227212  0.83577268  0.83633503  1
  Ni  Ni45  1  0.83596379  0.16946923  0.50273191  1
  Fe  Fe46  1  0.67020825  1.00279759  0.66822830  1
  Ni  Ni47  1  0.83578835  0.16879129  0.83641160  1
  Ni  Ni48  1  0.83611388  0.50301913  0.50251186  1
  Fe  Fe49  1  0.66971965  0.33670522  0.66958277  1
  Ni  Ni50  1  0.83565633  0.50297292  0.83673055  1
  Ni  Ni51  1  0.83612074  0.83614245  0.50257496  1
  Fe  Fe52  1  0.66989784  0.66910733  0.66950618  1
  Ni  Ni53  1  0.83590750  0.83670087  0.83676901  1
" 