7533,Ni20Fe32Cr47_3,-220.405555310448, 179.326226449605,Ni20Fe32Cr47,"# generated using pymatgen
 data_Cr26Fe17Ni11
_symmetry_space_group_name_H-M   'P 1'
_cell_length_a   7.50266809
_cell_length_b   7.50266809
_cell_length_c   10.61037496
_cell_angle_alpha   90.00000000
_cell_angle_beta   90.00000000
_cell_angle_gamma   90.00000000
_symmetry_Int_Tables_number   1
_chemical_formula_structural   Cr26Fe17Ni11
_chemical_formula_sum   'Cr26 Fe17 Ni11'
_cell_volume   597.25830841
_cell_formula_units_Z   1
loop_
 _symmetry_equiv_pos_site_id
 _symmetry_equiv_pos_as_xyz
  1  'x, y, z'
loop_
 _atom_site_type_symbol
 _atom_site_label
 _atom_site_symmetry_multiplicity
 _atom_site_fract_x
 _atom_site_fract_y
 _atom_site_fract_z
 _atom_site_occupancy
  Fe  Fe0  1  0.99680632  -0.00187002  0.99710517  1
  Cr  Cr1  1  0.16642598  0.16373605  0.16291263  1
  Cr  Cr2  1  0.99687612  -0.00194964  0.32911968  1
  Cr  Cr3  1  -0.00235452  0.32955840  -0.00194948  1
  Fe  Fe4  1  0.16297465  0.49985129  0.16596615  1
  Fe  Fe5  1  -0.00126116  0.33036775  0.33033922  1
  Cr  Cr6  1  -0.00216349  0.66752252  -0.00101812  1
  Fe  Fe7  1  0.16291050  0.83025105  0.16555694  1
  Fe  Fe8  1  -0.00050491  0.66401808  0.33017721  1
  Fe  Fe9  1  0.32816604  -0.00221741  0.99659620  1
  Fe  Fe10  1  0.50063731  0.16365621  0.16356644  1
  Fe  Fe11  1  0.33076693  0.99693749  0.33187849  1
  Fe  Fe12  1  0.32938402  0.32909987  0.99682722  1
  Cr  Cr13  1  0.49738031  0.49758964  0.16120298  1
  Cr  Cr14  1  0.33089854  0.33301897  0.32912823  1
  Cr  Cr15  1  0.32982669  0.66205616  0.99669496  1
  Cr  Cr16  1  0.49580952  0.83286961  0.16461241  1
  Ni  Ni17  1  0.32690724  0.66382805  0.33131589  1
  Fe  Fe18  1  0.66747498  0.99633519  -0.00139722  1
  Ni  Ni19  1  0.83192545  0.16303651  0.16315222  1
  Cr  Cr20  1  0.66658133  -0.00067710  0.33047584  1
  Cr  Cr21  1  0.66397216  0.32972055  0.99717543  1
  Cr  Cr22  1  0.83227438  0.49770986  0.16840124  1
  Ni  Ni23  1  0.66508360  0.32881318  0.32956748  1
  Fe  Fe24  1  0.66682918  0.66478128  0.99615562  1
  Ni  Ni25  1  0.83112198  0.83223684  0.16132769  1
  Cr  Cr26  1  0.66197821  0.66593986  0.33096583  1
  Ni  Ni27  1  0.16464669  0.16632741  0.49902469  1
  Cr  Cr28  1  -0.00144954  -0.00123367  0.66772114  1
  Ni  Ni29  1  0.16366349  0.16176020  0.83150308  1
  Ni  Ni30  1  0.16176155  0.49628340  0.49561960  1
  Fe  Fe31  1  -0.00107146  0.33175970  0.66569278  1
  Cr  Cr32  1  0.16131140  0.49596269  0.83082745  1
  Cr  Cr33  1  0.16577571  0.83172463  0.49786872  1
  Ni  Ni34  1  -0.00207230  0.66276098  0.66503152  1
  Fe  Fe35  1  0.16347907  0.83231566  0.83026281  1
  Cr  Cr36  1  0.49579834  0.16196598  0.49626536  1
  Ni  Ni37  1  0.32903914  -0.00084819  0.66337707  1
  Cr  Cr38  1  0.49501004  0.16229483  0.83242105  1
  Cr  Cr39  1  0.49938559  0.49834787  0.49894500  1
  Cr  Cr40  1  0.32991660  0.33068118  0.66579422  1
  Fe  Fe41  1  0.49862723  0.49611194  0.83194925  1
  Ni  Ni42  1  0.49415276  0.83154307  0.49682537  1
  Cr  Cr43  1  0.32923474  0.66386209  0.66312978  1
  Cr  Cr44  1  0.49700678  0.83171716  0.83069083  1
  Cr  Cr45  1  0.83374144  0.16881640  0.49862480  1
  Cr  Cr46  1  0.66488645  -0.00166231  0.66214997  1
  Fe  Fe47  1  0.83189068  0.16567970  0.83165257  1
  Cr  Cr48  1  0.83445724  0.49658357  0.49721609  1
  Fe  Fe49  1  0.66580228  0.33103436  0.66662616  1
  Ni  Ni50  1  0.83102081  0.49854421  0.82928392  1
  Cr  Cr51  1  0.83109431  0.82822021  0.49816204  1
  Cr  Cr52  1  0.66475474  0.66420993  0.66699681  1
  Fe  Fe53  1  0.83322073  0.83082863  0.83229343  1
" 