7853,Ni20Fe80_12,-242.986322129164, 207.951738382989,Ni20Fe80,"# generated using pymatgen
 data_Fe5Ni22
_symmetry_space_group_name_H-M   'P 1'
_cell_length_a   7.42593203
_cell_length_b   7.42593203
_cell_length_c   10.50185379
_cell_angle_alpha   90.00000000
_cell_angle_beta   90.00000000
_cell_angle_gamma   90.00000000
_symmetry_Int_Tables_number   1
_chemical_formula_structural   Fe5Ni22
_chemical_formula_sum   'Fe10 Ni44'
_cell_volume   579.11912528
_cell_formula_units_Z   2
loop_
 _symmetry_equiv_pos_site_id
 _symmetry_equiv_pos_as_xyz
  1  'x, y, z'
loop_
 _atom_site_type_symbol
 _atom_site_label
 _atom_site_symmetry_multiplicity
 _atom_site_fract_x
 _atom_site_fract_y
 _atom_site_fract_z
 _atom_site_occupancy
  Fe  Fe0  1  1.00276767  0.00283590  0.00319377  1
  Ni  Ni1  1  0.17011796  0.16986134  0.16938793  1
  Ni  Ni2  1  0.00292335  1.00105101  0.33596111  1
  Ni  Ni3  1  1.00242414  0.33693397  0.00368868  1
  Ni  Ni4  1  0.16913387  0.50247044  0.16903315  1
  Fe  Fe5  1  0.00302467  0.33530396  0.33591318  1
  Ni  Ni6  1  1.00243362  0.66915446  1.00256004  1
  Ni  Ni7  1  0.16972993  0.83597145  0.16962288  1
  Ni  Ni8  1  1.00258432  0.67028367  0.33623311  1
  Ni  Ni9  1  0.33678038  0.00282344  0.00343282  1
  Ni  Ni10  1  0.50247223  0.16956089  0.16901753  1
  Ni  Ni11  1  0.33610647  0.00339545  0.33593007  1
  Ni  Ni12  1  0.33594678  0.33515334  1.00259896  1
  Ni  Ni13  1  0.50306943  0.50238627  0.16947943  1
  Ni  Ni14  1  0.33690652  0.33512120  0.33619577  1
  Ni  Ni15  1  0.33534003  0.67033032  0.00312516  1
  Ni  Ni16  1  0.50277511  0.83636210  0.16931513  1
  Fe  Fe17  1  0.33583227  0.67017489  0.33585370  1
  Ni  Ni18  1  0.66875871  0.00283342  0.00283825  1
  Ni  Ni19  1  0.83571710  0.17015610  0.16961061  1
  Ni  Ni20  1  0.66927806  0.00335619  0.33641662  1
  Ni  Ni21  1  0.66993396  0.33548883  0.00286489  1
  Ni  Ni22  1  0.83610287  0.50277426  0.16925834  1
  Ni  Ni23  1  0.66877729  0.33545867  0.33586317  1
  Ni  Ni24  1  0.67053116  0.66998362  0.00339016  1
  Ni  Ni25  1  0.83580006  0.83537473  0.16901869  1
  Fe  Fe26  1  0.66975735  0.67024160  0.33597346  1
  Ni  Ni27  1  0.17095838  0.17013002  0.50294763  1
  Fe  Fe28  1  0.00358797  1.00258166  0.66919119  1
  Ni  Ni29  1  0.17037710  0.16971114  0.83596778  1
  Ni  Ni30  1  0.16828660  0.50225406  0.50336949  1
  Ni  Ni31  1  1.00230437  0.33676059  0.66841491  1
  Fe  Fe32  1  0.16886714  0.50276676  0.83603327  1
  Ni  Ni33  1  0.16973108  0.83591826  0.50301303  1
  Ni  Ni34  1  1.00226873  0.66942211  0.66951345  1
  Ni  Ni35  1  0.17009016  0.83608148  0.83566574  1
  Ni  Ni36  1  0.50175801  0.16904015  0.50298496  1
  Ni  Ni37  1  0.33610387  0.00277232  0.66894224  1
  Ni  Ni38  1  0.50215314  0.16936108  0.83630783  1
  Fe  Fe39  1  0.50227225  0.50269763  0.50284445  1
  Ni  Ni40  1  0.33607036  0.33489642  0.66951556  1
  Fe  Fe41  1  0.50333549  0.50278020  0.83653332  1
  Ni  Ni42  1  0.50289049  0.83710674  0.50298683  1
  Ni  Ni43  1  0.33546218  0.67064000  0.66892002  1
  Ni  Ni44  1  0.50245496  0.83640668  0.83600604  1
  Fe  Fe45  1  0.83628349  0.16918350  0.50245172  1
  Fe  Fe46  1  0.66861604  1.00245828  0.66968996  1
  Ni  Ni47  1  0.83577476  0.17089476  0.83547981  1
  Ni  Ni48  1  0.83677308  0.50338324  0.50277449  1
  Ni  Ni49  1  0.66992904  0.33611630  0.66957488  1
  Ni  Ni50  1  0.83610496  0.50282242  0.83627114  1
  Ni  Ni51  1  0.83568295  0.83442651  0.50328665  1
  Ni  Ni52  1  0.67057085  0.66944880  0.66902403  1
  Ni  Ni53  1  0.83575969  0.83458981  0.83600543  1
" 