3751,Ni20Fe32Cr47_15,-220.548730172963, 175.771089067616,Ni20Fe32Cr47,"# generated using pymatgen
 data_Cr26Fe17Ni11
_symmetry_space_group_name_H-M   'P 1'
_cell_length_a   7.51549199
_cell_length_b   7.51549199
_cell_length_c   10.62851069
_cell_angle_alpha   90.00000000
_cell_angle_beta   90.00000000
_cell_angle_gamma   90.00000000
_symmetry_Int_Tables_number   1
_chemical_formula_structural   Cr26Fe17Ni11
_chemical_formula_sum   'Cr26 Fe17 Ni11'
_cell_volume   600.32612842
_cell_formula_units_Z   1
loop_
 _symmetry_equiv_pos_site_id
 _symmetry_equiv_pos_as_xyz
  1  'x, y, z'
loop_
 _atom_site_type_symbol
 _atom_site_label
 _atom_site_symmetry_multiplicity
 _atom_site_fract_x
 _atom_site_fract_y
 _atom_site_fract_z
 _atom_site_occupancy
  Ni  Ni0  1  0.00001985  0.00190293  0.99553366  1
  Fe  Fe1  1  0.16282778  0.16125448  0.16422049  1
  Ni  Ni2  1  0.00230710  0.99649259  0.32842647  1
  Ni  Ni3  1  0.99670773  0.32597767  0.99601704  1
  Cr  Cr4  1  0.16563615  0.49271864  0.16278290  1
  Cr  Cr5  1  0.99399659  0.33308022  0.33229242  1
  Cr  Cr6  1  -0.00180256  0.66355030  -0.00142795  1
  Ni  Ni7  1  0.16296063  0.83266929  0.16533263  1
  Fe  Fe8  1  -0.00125480  0.66497807  0.33097056  1
  Cr  Cr9  1  0.32834192  0.99641238  -0.00139602  1
  Fe  Fe10  1  0.49360853  0.16541396  0.16513699  1
  Ni  Ni11  1  0.32744881  -0.00245942  0.32739984  1
  Fe  Fe12  1  0.32945713  0.32714348  -0.00239319  1
  Fe  Fe13  1  0.49705542  0.49306147  0.16463159  1
  Fe  Fe14  1  0.33358690  0.32907242  0.33069178  1
  Cr  Cr15  1  0.33106718  0.66629617  -0.00173055  1
  Fe  Fe16  1  0.49413881  0.83196981  0.16503737  1
  Cr  Cr17  1  0.32935404  0.66575153  0.32966071  1
  Cr  Cr18  1  0.66089098  -0.00140539  0.99559290  1
  Cr  Cr19  1  0.83174713  0.16307274  0.16260879  1
  Cr  Cr20  1  0.65856718  -0.00007650  0.33035212  1
  Fe  Fe21  1  0.66356759  0.32881014  -0.00153877  1
  Fe  Fe22  1  0.83104155  0.49417012  0.16291901  1
  Ni  Ni23  1  0.66110453  0.33228099  0.32927301  1
  Cr  Cr24  1  0.66134745  0.66084450  0.00145095  1
  Cr  Cr25  1  0.83229691  0.83293515  0.16484371  1
  Cr  Cr26  1  0.66337022  0.65827697  0.32811593  1
  Cr  Cr27  1  0.16580262  0.16506287  0.49269724  1
  Cr  Cr28  1  -0.00151985  -0.00106376  0.66650036  1
  Fe  Fe29  1  0.16341011  0.16378163  0.83226905  1
  Ni  Ni30  1  0.16876868  0.49672946  0.49727941  1
  Cr  Cr31  1  -0.00294721  0.33017561  0.66322650  1
  Cr  Cr32  1  0.16733177  0.49325564  0.82948530  1
  Fe  Fe33  1  0.16489576  0.82921479  0.49433946  1
  Cr  Cr34  1  -0.00029264  0.66143268  0.65956903  1
  Fe  Fe35  1  0.16368023  0.82945841  0.83095511  1
  Fe  Fe36  1  0.49525598  0.16599245  0.49523670  1
  Cr  Cr37  1  0.32996140  -0.00300086  0.66391150  1
  Fe  Fe38  1  0.49685796  0.16484291  0.82969765  1
  Ni  Ni39  1  0.49324913  0.49511916  0.49739983  1
  Fe  Fe40  1  0.33150852  0.33135126  0.66116176  1
  Cr  Cr41  1  0.49362717  0.49595942  0.82967477  1
  Cr  Cr42  1  0.49820613  0.82972655  0.49946426  1
  Ni  Ni43  1  0.33051947  0.66251786  0.66185946  1
  Cr  Cr44  1  0.49875270  0.82824149  0.82669790  1
  Cr  Cr45  1  0.82887306  0.15954381  0.49621574  1
  Ni  Ni46  1  0.66088692  -0.00073992  0.66468448  1
  Fe  Fe47  1  0.82983543  0.16453666  0.83180857  1
  Fe  Fe48  1  0.82782860  0.49727901  0.49614546  1
  Cr  Cr49  1  0.66364853  0.32916235  0.66139535  1
  Cr  Cr50  1  0.82958535  0.49651745  0.83249496  1
  Cr  Cr51  1  0.82994994  0.83189934  0.49679783  1
  Ni  Ni52  1  0.66028223  0.66146954  0.66155524  1
  Cr  Cr53  1  0.82861100  0.83329926  0.82863245  1
" 