4349,Ni20Fe17Cr62_3,-214.202240507032, 163.496234566209,Ni20Fe17Cr62,"# generated using pymatgen
 data_Cr34Fe9Ni11
_symmetry_space_group_name_H-M   'P 1'
_cell_length_a   7.54601161
_cell_length_b   7.54601161
_cell_length_c   10.67167196
_cell_angle_alpha   90.00000000
_cell_angle_beta   90.00000000
_cell_angle_gamma   90.00000000
_symmetry_Int_Tables_number   1
_chemical_formula_structural   Cr34Fe9Ni11
_chemical_formula_sum   'Cr34 Fe9 Ni11'
_cell_volume   607.66945216
_cell_formula_units_Z   1
loop_
 _symmetry_equiv_pos_site_id
 _symmetry_equiv_pos_as_xyz
  1  'x, y, z'
loop_
 _atom_site_type_symbol
 _atom_site_label
 _atom_site_symmetry_multiplicity
 _atom_site_fract_x
 _atom_site_fract_y
 _atom_site_fract_z
 _atom_site_occupancy
  Ni  Ni0  1  0.99282364  -0.00251773  -0.00461008  1
  Cr  Cr1  1  0.15959831  0.16376334  0.16189059  1
  Cr  Cr2  1  -0.00476093  -0.00309545  0.32967773  1
  Fe  Fe3  1  0.99273889  0.32547097  -0.00387876  1
  Cr  Cr4  1  0.16154299  0.49368170  0.16204220  1
  Ni  Ni5  1  0.99359789  0.32942687  0.32841177  1
  Cr  Cr6  1  -0.00417751  0.66267587  0.99390407  1
  Cr  Cr7  1  0.16246394  0.82697165  0.15989394  1
  Fe  Fe8  1  0.99429736  0.65962311  0.32896811  1
  Fe  Fe9  1  0.32949766  -0.00425432  0.99385773  1
  Cr  Cr10  1  0.49621790  0.16116432  0.15841482  1
  Cr  Cr11  1  0.32733583  0.99433038  0.32738503  1
  Cr  Cr12  1  0.33123258  0.32848844  0.99274110  1
  Cr  Cr13  1  0.49351298  0.49473442  0.16397329  1
  Fe  Fe14  1  0.32674762  0.32727879  0.32954039  1
  Ni  Ni15  1  0.32832689  0.66250151  -0.00511490  1
  Cr  Cr16  1  0.49500059  0.82808038  0.16006958  1
  Ni  Ni17  1  0.32880235  0.65863499  0.32873337  1
  Ni  Ni18  1  0.66412052  -0.00102185  0.99433488  1
  Fe  Fe19  1  0.82949666  0.16198080  0.15903057  1
  Cr  Cr20  1  0.66196325  -0.00341689  0.32633191  1
  Ni  Ni21  1  0.66214913  0.32239041  -0.00480407  1
  Cr  Cr22  1  0.82939430  0.49159276  0.16106516  1
  Cr  Cr23  1  0.66289359  0.32845561  0.32782122  1
  Cr  Cr24  1  0.66055503  0.65915409  0.99467569  1
  Cr  Cr25  1  0.82740471  0.82933310  0.16254031  1
  Fe  Fe26  1  0.66204314  0.65967648  0.32981474  1
  Ni  Ni27  1  0.16146335  0.16531360  0.49427590  1
  Fe  Fe28  1  -0.00447046  -0.00323863  0.66084948  1
  Cr  Cr29  1  0.16170952  0.16260962  0.82695649  1
  Cr  Cr30  1  0.16199722  0.49192662  0.49234137  1
  Cr  Cr31  1  -0.00488810  0.32853562  0.66112794  1
  Cr  Cr32  1  0.16206694  0.49241682  0.83087017  1
  Cr  Cr33  1  0.16097896  0.82878100  0.49449562  1
  Cr  Cr34  1  0.99384687  0.66053036  0.66183995  1
  Cr  Cr35  1  0.16071264  0.82982909  0.83123782  1
  Cr  Cr36  1  0.49260085  0.16291862  0.49582111  1
  Cr  Cr37  1  0.32664257  -0.00334777  0.66180668  1
  Ni  Ni38  1  0.49522923  0.16091384  0.82864083  1
  Fe  Fe39  1  0.49512117  0.49504139  0.49442327  1
  Ni  Ni40  1  0.32928144  0.32549160  0.65868714  1
  Cr  Cr41  1  0.49491779  0.49266763  0.82686979  1
  Cr  Cr42  1  0.49633223  0.82675391  0.49381644  1
  Cr  Cr43  1  0.32890548  0.65973509  0.66391368  1
  Cr  Cr44  1  0.49723261  0.83079501  0.83008643  1
  Cr  Cr45  1  0.82944188  0.16199387  0.49623252  1
  Fe  Fe46  1  0.65888369  -0.00377433  0.66259288  1
  Cr  Cr47  1  0.82652821  0.16031930  0.83073905  1
  Ni  Ni48  1  0.82704935  0.49580926  0.49238956  1
  Cr  Cr49  1  0.66001723  0.32963789  0.66219379  1
  Cr  Cr50  1  0.82737478  0.49336439  0.82953960  1
  Cr  Cr51  1  0.82605549  0.82712495  0.49776800  1
  Ni  Ni52  1  0.66121358  0.66007399  0.65771662  1
  Cr  Cr53  1  0.82639913  0.83013642  0.82352038  1
" 