7994,Ni20Fe17Cr62_8,-214.488058279057, 164.321568296612,Ni20Fe17Cr62,"# generated using pymatgen
 data_Cr34Fe9Ni11
_symmetry_space_group_name_H-M   'P 1'
_cell_length_a   7.53782713
_cell_length_b   7.53782713
_cell_length_c   10.66009735
_cell_angle_alpha   90.00000000
_cell_angle_beta   90.00000000
_cell_angle_gamma   90.00000000
_symmetry_Int_Tables_number   1
_chemical_formula_structural   Cr34Fe9Ni11
_chemical_formula_sum   'Cr34 Fe9 Ni11'
_cell_volume   605.69434204
_cell_formula_units_Z   1
loop_
 _symmetry_equiv_pos_site_id
 _symmetry_equiv_pos_as_xyz
  1  'x, y, z'
loop_
 _atom_site_type_symbol
 _atom_site_label
 _atom_site_symmetry_multiplicity
 _atom_site_fract_x
 _atom_site_fract_y
 _atom_site_fract_z
 _atom_site_occupancy
  Cr  Cr0  1  0.99410293  -0.00457371  0.99353933  1
  Cr  Cr1  1  0.16148990  0.16123185  0.16376916  1
  Cr  Cr2  1  0.99370213  -0.00265513  0.32910186  1
  Cr  Cr3  1  0.99324261  0.32666359  -0.00298740  1
  Cr  Cr4  1  0.16155255  0.49588592  0.16187696  1
  Fe  Fe5  1  0.99360839  0.32608207  0.32962738  1
  Cr  Cr6  1  0.99482595  0.66394703  0.99363659  1
  Cr  Cr7  1  0.16374868  0.82890197  0.15956475  1
  Cr  Cr8  1  -0.00417486  0.66312808  0.32775831  1
  Ni  Ni9  1  0.32816856  0.99296430  0.99470070  1
  Cr  Cr10  1  0.49571684  0.16060711  0.15852466  1
  Cr  Cr11  1  0.32775434  0.99493396  0.33118894  1
  Cr  Cr12  1  0.33036260  0.33007582  -0.00358489  1
  Ni  Ni13  1  0.49746798  0.49729017  0.15912172  1
  Cr  Cr14  1  0.32874502  0.33006275  0.32952393  1
  Ni  Ni15  1  0.33164617  0.66264028  -0.00411346  1
  Cr  Cr16  1  0.49520788  0.82835208  0.16055875  1
  Cr  Cr17  1  0.33011391  0.66072800  0.33098396  1
  Cr  Cr18  1  0.66493439  -0.00358612  -0.00415524  1
  Ni  Ni19  1  0.82849026  0.16305843  0.16151700  1
  Cr  Cr20  1  0.66420571  -0.00398614  0.32882192  1
  Fe  Fe21  1  0.66202847  0.33036140  -0.00382513  1
  Cr  Cr22  1  0.82783340  0.49522763  0.16223311  1
  Cr  Cr23  1  0.66199611  0.32791486  0.32691119  1
  Ni  Ni24  1  0.66032791  0.66133831  -0.00316195  1
  Fe  Fe25  1  0.82733143  0.82908200  0.16108172  1
  Cr  Cr26  1  0.65976682  0.66183249  0.32969092  1
  Fe  Fe27  1  0.15827888  0.16036822  0.49723247  1
  Ni  Ni28  1  -0.00450114  -0.00115421  0.66184556  1
  Cr  Cr29  1  0.16184247  0.16061656  0.82636554  1
  Cr  Cr30  1  0.15922502  0.49311088  0.49582056  1
  Ni  Ni31  1  0.99336450  0.32390409  0.65980165  1
  Cr  Cr32  1  0.16064433  0.49546729  0.82858350  1
  Ni  Ni33  1  0.16320141  0.83037245  0.49739170  1
  Cr  Cr34  1  -0.00330011  0.66500144  0.66431495  1
  Fe  Fe35  1  0.16271060  0.82960495  0.82906347  1
  Cr  Cr36  1  0.49606856  0.16102470  0.49765208  1
  Cr  Cr37  1  0.32607670  0.99429973  0.66014593  1
  Cr  Cr38  1  0.49611407  0.16140377  0.82984952  1
  Fe  Fe39  1  0.49621832  0.49488285  0.49639442  1
  Fe  Fe40  1  0.32824602  0.32820945  0.66113180  1
  Cr  Cr41  1  0.49723677  0.49498195  0.82903433  1
  Ni  Ni42  1  0.49246982  0.82870526  0.49502387  1
  Cr  Cr43  1  0.32892110  0.66112802  0.65958841  1
  Cr  Cr44  1  0.49451962  0.82953741  0.83141216  1
  Ni  Ni45  1  0.83118982  0.16408602  0.49808927  1
  Cr  Cr46  1  0.66521074  -0.00328834  0.66121445  1
  Fe  Fe47  1  0.82912456  0.16294093  0.82597824  1
  Cr  Cr48  1  0.82969886  0.49188078  0.49622439  1
  Ni  Ni49  1  0.66388057  0.32730406  0.66195071  1
  Cr  Cr50  1  0.82803271  0.49410629  0.82740320  1
  Cr  Cr51  1  0.82871523  0.82977359  0.49527001  1
  Cr  Cr52  1  0.66020894  0.66115963  0.65956548  1
  Fe  Fe53  1  0.82887796  0.82953566  0.82821995  1
" 