6367,Ni20Fe17Cr62_6,-214.707612734839, 169.336424825345,Ni20Fe17Cr62,"# generated using pymatgen
 data_Cr34Fe9Ni11
_symmetry_space_group_name_H-M   'P 1'
_cell_length_a   7.54053012
_cell_length_b   7.54053012
_cell_length_c   10.66391996
_cell_angle_alpha   90.00000000
_cell_angle_beta   90.00000000
_cell_angle_gamma   90.00000000
_symmetry_Int_Tables_number   1
_chemical_formula_structural   Cr34Fe9Ni11
_chemical_formula_sum   'Cr34 Fe9 Ni11'
_cell_volume   606.34616467
_cell_formula_units_Z   1
loop_
 _symmetry_equiv_pos_site_id
 _symmetry_equiv_pos_as_xyz
  1  'x, y, z'
loop_
 _atom_site_type_symbol
 _atom_site_label
 _atom_site_symmetry_multiplicity
 _atom_site_fract_x
 _atom_site_fract_y
 _atom_site_fract_z
 _atom_site_occupancy
  Cr  Cr0  1  0.99371047  0.99487182  -0.00462394  1
  Cr  Cr1  1  0.16307824  0.16217131  0.16366142  1
  Cr  Cr2  1  0.99174303  0.99355862  0.32765549  1
  Cr  Cr3  1  -0.00366243  0.32882233  0.99229302  1
  Cr  Cr4  1  0.16063392  0.49594254  0.16233487  1
  Cr  Cr5  1  -0.00302457  0.32983142  0.33074359  1
  Ni  Ni6  1  -0.00372316  0.66215773  -0.00426895  1
  Cr  Cr7  1  0.15977418  0.82712242  0.15915309  1
  Fe  Fe8  1  0.99462938  0.66313762  0.32828185  1
  Cr  Cr9  1  0.32876391  0.99449212  0.99464879  1
  Cr  Cr10  1  0.49479034  0.16519333  0.16328614  1
  Cr  Cr11  1  0.32906166  -0.00463637  0.32640139  1
  Cr  Cr12  1  0.32895456  0.33181295  0.99387961  1
  Cr  Cr13  1  0.49792469  0.49418181  0.16150417  1
  Ni  Ni14  1  0.32794043  0.33095640  0.33043598  1
  Ni  Ni15  1  0.32853207  0.65922658  0.99208796  1
  Cr  Cr16  1  0.49578241  0.82615851  0.15986813  1
  Cr  Cr17  1  0.32720651  0.65837393  0.32873026  1
  Cr  Cr18  1  0.66290515  -0.00391410  0.99431026  1
  Cr  Cr19  1  0.82752699  0.16481439  0.16125589  1
  Cr  Cr20  1  0.66444152  0.99374837  0.33031638  1
  Fe  Fe21  1  0.66042231  0.33035418  0.99200889  1
  Cr  Cr22  1  0.82685386  0.49759302  0.15940856  1
  Fe  Fe23  1  0.66083740  0.32808725  0.32914597  1
  Ni  Ni24  1  0.66042646  0.66105673  0.99497162  1
  Ni  Ni25  1  0.82929203  0.82467616  0.16084716  1
  Cr  Cr26  1  0.66337352  0.66423380  0.32978972  1
  Cr  Cr27  1  0.16292130  0.16311411  0.49568992  1
  Cr  Cr28  1  0.99190790  -0.00354053  0.66222857  1
  Cr  Cr29  1  0.16174554  0.15991628  0.82617137  1
  Fe  Fe30  1  0.16320235  0.49477211  0.49662426  1
  Ni  Ni31  1  -0.00178843  0.32811347  0.66158855  1
  Fe  Fe32  1  0.16268831  0.49846220  0.82801219  1
  Cr  Cr33  1  0.16214929  0.82919586  0.49634360  1
  Cr  Cr34  1  -0.00177689  0.65916869  0.66068789  1
  Ni  Ni35  1  0.16430342  0.82589301  0.82905057  1
  Cr  Cr36  1  0.49246782  0.16307579  0.49474550  1
  Fe  Fe37  1  0.32708532  0.99382623  0.66356109  1
  Fe  Fe38  1  0.49622741  0.16295459  0.82814253  1
  Cr  Cr39  1  0.49454511  0.49355625  0.49465887  1
  Fe  Fe40  1  0.32723476  0.33233559  0.66317487  1
  Ni  Ni41  1  0.49286682  0.49479750  0.82957972  1
  Cr  Cr42  1  0.49311954  0.82864711  0.49817706  1
  Ni  Ni43  1  0.32644597  0.65772242  0.66441212  1
  Cr  Cr44  1  0.49168127  0.82569336  0.82701976  1
  Fe  Fe45  1  0.82894826  0.16190797  0.49656249  1
  Cr  Cr46  1  0.66312561  -0.00453507  0.66069616  1
  Ni  Ni47  1  0.82853661  0.16525794  0.82687935  1
  Cr  Cr48  1  0.82988291  0.49447281  0.49421159  1
  Cr  Cr49  1  0.66279186  0.32749033  0.66430538  1
  Cr  Cr50  1  0.82709531  0.49507737  0.83139018  1
  Ni  Ni51  1  0.83123994  0.82750658  0.49361067  1
  Cr  Cr52  1  0.65915225  0.66203312  0.66085807  1
  Cr  Cr53  1  0.83089040  0.82594488  0.83037521  1
" 