1130,Ni20Fe80_17,-242.659802284565, 205.855971279289,Ni20Fe80,"# generated using pymatgen
 data_Fe5Ni22
_symmetry_space_group_name_H-M   'P 1'
_cell_length_a   7.42606930
_cell_length_b   7.42606930
_cell_length_c   10.50204792
_cell_angle_alpha   90.00000000
_cell_angle_beta   90.00000000
_cell_angle_gamma   90.00000000
_symmetry_Int_Tables_number   1
_chemical_formula_structural   Fe5Ni22
_chemical_formula_sum   'Fe10 Ni44'
_cell_volume   579.15124145
_cell_formula_units_Z   2
loop_
 _symmetry_equiv_pos_site_id
 _symmetry_equiv_pos_as_xyz
  1  'x, y, z'
loop_
 _atom_site_type_symbol
 _atom_site_label
 _atom_site_symmetry_multiplicity
 _atom_site_fract_x
 _atom_site_fract_y
 _atom_site_fract_z
 _atom_site_occupancy
  Ni  Ni0  1  1.00120140  1.00220558  1.00220973  1
  Ni  Ni1  1  0.16875378  0.16987008  0.16921513  1
  Ni  Ni2  1  1.00234830  1.00229013  0.33635995  1
  Ni  Ni3  1  1.00215779  0.33616267  0.00277558  1
  Ni  Ni4  1  0.16975679  0.50247121  0.16985028  1
  Ni  Ni5  1  1.00247902  0.33584743  0.33518981  1
  Ni  Ni6  1  0.00348194  0.66969604  1.00250261  1
  Ni  Ni7  1  0.16924416  0.83607136  0.16917016  1
  Ni  Ni8  1  0.00288160  0.67022982  0.33556113  1
  Fe  Fe9  1  0.33486541  0.00319194  0.00355304  1
  Ni  Ni10  1  0.50274645  0.16997048  0.16928899  1
  Ni  Ni11  1  0.33661987  1.00268378  0.33604311  1
  Ni  Ni12  1  0.33713409  0.33747517  1.00271543  1
  Ni  Ni13  1  0.50246895  0.50276181  0.16904502  1
  Ni  Ni14  1  0.33689775  0.33614235  0.33573711  1
  Ni  Ni15  1  0.33615157  0.66926201  0.00283236  1
  Ni  Ni16  1  0.50254973  0.83548512  0.16984261  1
  Ni  Ni17  1  0.33616157  0.66949806  0.33615032  1
  Fe  Fe18  1  0.66979521  0.00278334  0.00285315  1
  Ni  Ni19  1  0.83657899  0.16943449  0.16969156  1
  Ni  Ni20  1  0.66934689  0.00304605  0.33563499  1
  Ni  Ni21  1  0.66924160  0.33526084  1.00213758  1
  Ni  Ni22  1  0.83622363  0.50225417  0.16909415  1
  Ni  Ni23  1  0.66885676  0.33556047  0.33635799  1
  Fe  Fe24  1  0.67036348  0.66791784  0.00299265  1
  Ni  Ni25  1  0.83641427  0.83639931  0.16929951  1
  Ni  Ni26  1  0.66920331  0.66969355  0.33552512  1
  Ni  Ni27  1  0.16896324  0.16934272  0.50341126  1
  Ni  Ni28  1  1.00152476  1.00245562  0.66973553  1
  Fe  Fe29  1  0.16886911  0.17010774  0.83585740  1
  Fe  Fe30  1  0.16968112  0.50262974  0.50287045  1
  Ni  Ni31  1  1.00257152  0.33640637  0.67000380  1
  Ni  Ni32  1  0.16995716  0.50180639  0.83586272  1
  Ni  Ni33  1  0.16932047  0.83683018  0.50384316  1
  Ni  Ni34  1  1.00269660  0.66933608  0.66997821  1
  Fe  Fe35  1  0.16846630  0.83423349  0.83571158  1
  Ni  Ni36  1  0.50241059  0.16990727  0.50358837  1
  Ni  Ni37  1  0.33742254  1.00245049  0.67051368  1
  Fe  Fe38  1  0.50427483  0.17042432  0.83590225  1
  Ni  Ni39  1  0.50201894  0.50293664  0.50315158  1
  Ni  Ni40  1  0.33659031  0.33662555  0.67005175  1
  Ni  Ni41  1  0.50182639  0.50394569  0.83602764  1
  Ni  Ni42  1  0.50261304  0.83551289  0.50260694  1
  Ni  Ni43  1  0.33602909  0.66919760  0.66941980  1
  Ni  Ni44  1  0.50257280  0.83526555  0.83588436  1
  Ni  Ni45  1  0.83698370  0.16903663  0.50273504  1
  Ni  Ni46  1  0.66942080  0.00296859  0.66949896  1
  Ni  Ni47  1  0.83745014  0.16914186  0.83569664  1
  Fe  Fe48  1  0.83617294  0.50292318  0.50191795  1
  Fe  Fe49  1  0.66969378  0.33569039  0.66959037  1
  Ni  Ni50  1  0.83657879  0.50239690  0.83558248  1
  Ni  Ni51  1  0.83635649  0.83688500  0.50303985  1
  Fe  Fe52  1  0.66936774  0.67024882  0.66913953  1
  Ni  Ni53  1  0.83523305  0.83661977  0.83574020  1
" 