746,Ni20Fe56Cr23_19,-226.646814202375, 182.263486773122,Ni20Fe56Cr23,"# generated using pymatgen
 data_Cr7(Fe3Ni)5
_symmetry_space_group_name_H-M   'P 1'
_cell_length_a   7.46108984
_cell_length_b   7.46108984
_cell_length_c   10.55157444
_cell_angle_alpha   90.00000000
_cell_angle_beta   90.00000000
_cell_angle_gamma   90.00000000
_symmetry_Int_Tables_number   1
_chemical_formula_structural   Cr7(Fe3Ni)5
_chemical_formula_sum   'Cr14 Fe30 Ni10'
_cell_volume   587.38358599
_cell_formula_units_Z   2
loop_
 _symmetry_equiv_pos_site_id
 _symmetry_equiv_pos_as_xyz
  1  'x, y, z'
loop_
 _atom_site_type_symbol
 _atom_site_label
 _atom_site_symmetry_multiplicity
 _atom_site_fract_x
 _atom_site_fract_y
 _atom_site_fract_z
 _atom_site_occupancy
  Fe  Fe0  1  0.00188951  0.00276436  0.00124920  1
  Ni  Ni1  1  0.16715535  0.16554191  0.16584967  1
  Fe  Fe2  1  0.99992614  1.00030928  0.33196473  1
  Fe  Fe3  1  1.00032156  0.33194899  0.00073446  1
  Fe  Fe4  1  0.16607244  0.49902272  0.16818013  1
  Fe  Fe5  1  0.99964382  0.33411048  0.33213240  1
  Cr  Cr6  1  0.99895611  0.66611970  1.00007338  1
  Fe  Fe7  1  0.16580095  0.83490129  0.16866570  1
  Ni  Ni8  1  0.00119818  0.66670909  0.33332761  1
  Fe  Fe9  1  0.33128483  0.00191810  0.00101182  1
  Cr  Cr10  1  0.49772242  0.16899596  0.16682499  1
  Fe  Fe11  1  0.33280120  1.00007694  0.33284465  1
  Ni  Ni12  1  0.33169598  0.33241422  1.00027814  1
  Fe  Fe13  1  0.50099417  0.49973612  0.16825282  1
  Fe  Fe14  1  0.33397505  0.33523875  0.33331747  1
  Cr  Cr15  1  0.33554007  0.66594650  0.00138536  1
  Fe  Fe16  1  0.49976357  0.83269099  0.16821457  1
  Fe  Fe17  1  0.33475997  0.66588000  0.33345243  1
  Cr  Cr18  1  0.66854915  0.99935128  0.99964541  1
  Fe  Fe19  1  0.83634151  0.16849817  0.16745243  1
  Cr  Cr20  1  0.66789209  1.00001633  0.33603634  1
  Fe  Fe21  1  0.66793978  0.33627518  0.00052521  1
  Ni  Ni22  1  0.83300437  0.50112701  0.16827368  1
  Ni  Ni23  1  0.66687833  0.33426388  0.33426477  1
  Cr  Cr24  1  0.66670107  0.66688123  0.00095369  1
  Ni  Ni25  1  0.83600606  0.83142043  0.16902829  1
  Fe  Fe26  1  0.66734709  0.66559906  0.33278514  1
  Cr  Cr27  1  0.16867209  0.16600390  0.49974974  1
  Fe  Fe28  1  0.99872414  0.99996509  0.66798530  1
  Ni  Ni29  1  0.16743287  0.16459225  0.83544388  1
  Fe  Fe30  1  0.16921796  0.50148538  0.49969825  1
  Cr  Cr31  1  0.00149324  0.33345538  0.66805891  1
  Cr  Cr32  1  0.16707223  0.49927331  0.83163773  1
  Cr  Cr33  1  0.16569724  0.83319731  0.50049387  1
  Fe  Fe34  1  1.00005164  0.66808108  0.66698883  1
  Cr  Cr35  1  0.16639902  0.83725834  0.83281067  1
  Fe  Fe36  1  0.50141353  0.16853553  0.50068814  1
  Fe  Fe37  1  0.33456863  0.00063641  0.66733829  1
  Cr  Cr38  1  0.49855231  0.16894312  0.83291508  1
  Ni  Ni39  1  0.50026795  0.49884246  0.49942764  1
  Fe  Fe40  1  0.33594967  0.33478212  0.66723934  1
  Ni  Ni41  1  0.50330411  0.49883153  0.83372456  1
  Fe  Fe42  1  0.50028159  0.83325534  0.50051245  1
  Fe  Fe43  1  0.33486616  0.66577664  0.66653338  1
  Fe  Fe44  1  0.50021869  0.83303318  0.83247746  1
  Fe  Fe45  1  0.83172006  0.16643419  0.50020805  1
  Fe  Fe46  1  0.66790370  0.00104935  0.66640079  1
  Fe  Fe47  1  0.83531224  0.16811814  0.83354377  1
  Cr  Cr48  1  0.83239794  0.50126735  0.49839132  1
  Fe  Fe49  1  0.66560395  0.33345682  0.66678106  1
  Ni  Ni50  1  0.83079076  0.50006272  0.83435000  1
  Fe  Fe51  1  0.83379835  0.83440489  0.49968832  1
  Cr  Cr52  1  0.66593301  0.66869184  0.66882574  1
  Fe  Fe53  1  0.83375596  0.83436818  0.83292276  1
" 