1166,Ni20Fe17Cr62_7,-214.797597109393, 169.894611119721,Ni20Fe17Cr62,"# generated using pymatgen
 data_Cr34Fe9Ni11
_symmetry_space_group_name_H-M   'P 1'
_cell_length_a   7.54214111
_cell_length_b   7.54214111
_cell_length_c   10.66619825
_cell_angle_alpha   90.00000000
_cell_angle_beta   90.00000000
_cell_angle_gamma   90.00000000
_symmetry_Int_Tables_number   1
_chemical_formula_structural   Cr34Fe9Ni11
_chemical_formula_sum   'Cr34 Fe9 Ni11'
_cell_volume   606.73487589
_cell_formula_units_Z   1
loop_
 _symmetry_equiv_pos_site_id
 _symmetry_equiv_pos_as_xyz
  1  'x, y, z'
loop_
 _atom_site_type_symbol
 _atom_site_label
 _atom_site_symmetry_multiplicity
 _atom_site_fract_x
 _atom_site_fract_y
 _atom_site_fract_z
 _atom_site_occupancy
  Fe  Fe0  1  0.99382359  -0.00481302  0.99327008  1
  Cr  Cr1  1  0.16368289  0.16108631  0.16365922  1
  Cr  Cr2  1  -0.00414668  0.99380404  0.33210650  1
  Cr  Cr3  1  0.99362407  0.33111970  -0.00485136  1
  Cr  Cr4  1  0.16183465  0.49393633  0.16098358  1
  Cr  Cr5  1  0.99349406  0.33018735  0.32900138  1
  Fe  Fe6  1  0.99307168  0.66240739  -0.00466108  1
  Cr  Cr7  1  0.16231668  0.83037256  0.16269909  1
  Cr  Cr8  1  -0.00333820  0.66076715  0.32899581  1
  Cr  Cr9  1  0.33203173  0.99411000  -0.00253413  1
  Fe  Fe10  1  0.49520065  0.16213346  0.16252689  1
  Fe  Fe11  1  0.33059202  0.99221028  0.32789699  1
  Cr  Cr12  1  0.33122118  0.32963595  0.99438038  1
  Ni  Ni13  1  0.49659632  0.49791736  0.16399838  1
  Fe  Fe14  1  0.33151172  0.33148032  0.32727644  1
  Cr  Cr15  1  0.32842946  0.66136743  -0.00455015  1
  Ni  Ni16  1  0.49505286  0.82491770  0.16368038  1
  Fe  Fe17  1  0.33117321  0.66096047  0.32826896  1
  Cr  Cr18  1  0.65972940  -0.00471122  0.99220933  1
  Cr  Cr19  1  0.83071679  0.16150309  0.16182728  1
  Cr  Cr20  1  0.65919235  0.99459884  0.32891977  1
  Cr  Cr21  1  0.66033773  0.32815336  -0.00316179  1
  Ni  Ni22  1  0.82386034  0.49763717  0.16085914  1
  Cr  Cr23  1  0.66080176  0.33024781  0.32696677  1
  Fe  Fe24  1  0.65979311  0.66051564  -0.00287396  1
  Cr  Cr25  1  0.82623209  0.82585230  0.15858657  1
  Ni  Ni26  1  0.65582049  0.65967456  0.32463880  1
  Cr  Cr27  1  0.16306043  0.16140945  0.49294686  1
  Cr  Cr28  1  0.99330757  0.99445268  0.66010290  1
  Cr  Cr29  1  0.16279305  0.16339540  0.82904930  1
  Cr  Cr30  1  0.16688533  0.49462226  0.49729476  1
  Cr  Cr31  1  0.99354095  0.32844103  0.66106565  1
  Fe  Fe32  1  0.16227527  0.49542207  0.82719105  1
  Ni  Ni33  1  0.16614761  0.82750923  0.49383271  1
  Cr  Cr34  1  -0.00092182  0.66244347  0.66192957  1
  Cr  Cr35  1  0.16045183  0.82772472  0.82936843  1
  Cr  Cr36  1  0.49365206  0.16475384  0.49529400  1
  Cr  Cr37  1  0.32920765  0.99192218  0.66199864  1
  Ni  Ni38  1  0.49557299  0.16374944  0.82845757  1
  Ni  Ni39  1  0.49206586  0.49593692  0.49364319  1
  Fe  Fe40  1  0.32937594  0.32965098  0.66216524  1
  Cr  Cr41  1  0.49351661  0.49471594  0.82459309  1
  Cr  Cr42  1  0.49375248  0.82422417  0.49402615  1
  Ni  Ni43  1  0.32687052  0.65929499  0.65961634  1
  Cr  Cr44  1  0.49713125  0.82652964  0.82736538  1
  Ni  Ni45  1  0.82839366  0.16216860  0.49560922  1
  Cr  Cr46  1  0.66269932  -0.00232602  0.66415929  1
  Ni  Ni47  1  0.82854789  0.15995641  0.82879775  1
  Cr  Cr48  1  0.82337334  0.49539869  0.49233575  1
  Cr  Cr49  1  0.66205419  0.32561782  0.66120429  1
  Cr  Cr50  1  0.82741827  0.49793010  0.83115488  1
  Cr  Cr51  1  0.82698537  0.82781559  0.49510942  1
  Cr  Cr52  1  0.66027357  0.66198870  0.66075028  1
  Ni  Ni53  1  0.83008674  0.82935323  0.83199290  1
" 