4100,Ni20Fe32Cr47_6,-220.463731229678, 184.892303033116,Ni20Fe32Cr47,"# generated using pymatgen
 data_Cr26Fe17Ni11
_symmetry_space_group_name_H-M   'P 1'
_cell_length_a   7.50099314
_cell_length_b   7.50099314
_cell_length_c   10.60800623
_cell_angle_alpha   90.00000000
_cell_angle_beta   90.00000000
_cell_angle_gamma   90.00000000
_symmetry_Int_Tables_number   1
_chemical_formula_structural   Cr26Fe17Ni11
_chemical_formula_sum   'Cr26 Fe17 Ni11'
_cell_volume   596.85839026
_cell_formula_units_Z   1
loop_
 _symmetry_equiv_pos_site_id
 _symmetry_equiv_pos_as_xyz
  1  'x, y, z'
loop_
 _atom_site_type_symbol
 _atom_site_label
 _atom_site_symmetry_multiplicity
 _atom_site_fract_x
 _atom_site_fract_y
 _atom_site_fract_z
 _atom_site_occupancy
  Ni  Ni0  1  -0.00184369  -0.00067278  -0.00190097  1
  Ni  Ni1  1  0.16447518  0.16059001  0.16324603  1
  Fe  Fe2  1  -0.00072051  0.99575965  0.32720013  1
  Fe  Fe3  1  -0.00189986  0.32821539  -0.00080904  1
  Ni  Ni4  1  0.16291554  0.50121740  0.16130189  1
  Cr  Cr5  1  0.00141176  0.33098728  0.32789568  1
  Fe  Fe6  1  -0.00058187  0.66714565  0.00137812  1
  Ni  Ni7  1  0.16263070  0.83038352  0.16362377  1
  Ni  Ni8  1  0.00010094  0.66482296  0.32948755  1
  Cr  Cr9  1  0.33086584  0.99681981  0.00078635  1
  Ni  Ni10  1  0.49681040  0.15995398  0.16712207  1
  Fe  Fe11  1  0.32907906  0.99503448  0.32817864  1
  Cr  Cr12  1  0.32614791  0.32971486  -0.00058243  1
  Cr  Cr13  1  0.49617514  0.49374092  0.16390224  1
  Cr  Cr14  1  0.32574303  0.32805296  0.32941633  1
  Fe  Fe15  1  0.33006728  0.66640301  0.00038123  1
  Fe  Fe16  1  0.49547821  0.83273830  0.16569987  1
  Cr  Cr17  1  0.33048585  0.66403527  0.32914401  1
  Fe  Fe18  1  0.66464934  -0.00044097  -0.00114450  1
  Cr  Cr19  1  0.82753390  0.16317094  0.16352840  1
  Ni  Ni20  1  0.66309676  0.99534993  0.32675078  1
  Cr  Cr21  1  0.66508802  0.33302084  0.99719535  1
  Cr  Cr22  1  0.83299661  0.50027437  0.16539496  1
  Fe  Fe23  1  0.66372971  0.33064584  0.32877912  1
  Cr  Cr24  1  0.66242274  0.67112364  -0.00119476  1
  Fe  Fe25  1  0.83526176  0.83340117  0.16432112  1
  Cr  Cr26  1  0.66530734  0.66909588  0.33169653  1
  Fe  Fe27  1  0.16319933  0.16401932  0.49611030  1
  Fe  Fe28  1  -0.00181804  -0.00221635  0.66617675  1
  Fe  Fe29  1  0.16029180  0.16322605  0.83344140  1
  Ni  Ni30  1  0.16483145  0.49988989  0.49930087  1
  Cr  Cr31  1  0.00037631  0.32685313  0.66557182  1
  Cr  Cr32  1  0.16675670  0.50160119  0.83439224  1
  Cr  Cr33  1  0.16469692  0.82983694  0.49825420  1
  Fe  Fe34  1  0.00036233  0.66328194  0.66316058  1
  Cr  Cr35  1  0.16612238  0.83044538  0.83075623  1
  Cr  Cr36  1  0.49827832  0.16335072  0.49229097  1
  Cr  Cr37  1  0.32978357  -0.00029888  0.66267427  1
  Cr  Cr38  1  0.49734260  0.16611937  0.83206303  1
  Cr  Cr39  1  0.49576207  0.49498283  0.49977234  1
  Fe  Fe40  1  0.33058074  0.33265038  0.66487498  1
  Fe  Fe41  1  0.49764147  0.49990048  0.83103965  1
  Ni  Ni42  1  0.49586896  0.83311974  0.49694964  1
  Ni  Ni43  1  0.33274283  0.66390064  0.66558690  1
  Fe  Fe44  1  0.49691470  0.83016215  0.83116481  1
  Cr  Cr45  1  0.82829046  0.16278909  0.49534282  1
  Cr  Cr46  1  0.66521291  0.99524829  0.66785736  1
  Ni  Ni47  1  0.83024195  0.16284288  0.83346890  1
  Cr  Cr48  1  0.83289321  0.49648574  0.49550548  1
  Fe  Fe49  1  0.66420132  0.32986934  0.66626832  1
  Cr  Cr50  1  0.83313078  0.49705622  0.83210289  1
  Cr  Cr51  1  0.83573289  0.83322707  0.49587195  1
  Cr  Cr52  1  0.66394984  0.66595360  0.66359150  1
  Cr  Cr53  1  0.83699739  0.83293080  0.83342360  1
" 