1520,Ni20Fe17Cr62_10,-214.751972259706, 168.76079409522,Ni20Fe17Cr62,"# generated using pymatgen
 data_Cr34Fe9Ni11
_symmetry_space_group_name_H-M   'P 1'
_cell_length_a   7.53668444
_cell_length_b   7.53668444
_cell_length_c   10.65848136
_cell_angle_alpha   90.00000000
_cell_angle_beta   90.00000000
_cell_angle_gamma   90.00000000
_symmetry_Int_Tables_number   1
_chemical_formula_structural   Cr34Fe9Ni11
_chemical_formula_sum   'Cr34 Fe9 Ni11'
_cell_volume   605.41892683
_cell_formula_units_Z   1
loop_
 _symmetry_equiv_pos_site_id
 _symmetry_equiv_pos_as_xyz
  1  'x, y, z'
loop_
 _atom_site_type_symbol
 _atom_site_label
 _atom_site_symmetry_multiplicity
 _atom_site_fract_x
 _atom_site_fract_y
 _atom_site_fract_z
 _atom_site_occupancy
  Ni  Ni0  1  -0.00134970  0.99491415  0.99518988  1
  Ni  Ni1  1  0.16372800  0.16273508  0.15960584  1
  Cr  Cr2  1  -0.00284977  0.99438958  0.32744470  1
  Cr  Cr3  1  -0.00268183  0.32651325  0.99460307  1
  Ni  Ni4  1  0.16385567  0.49480984  0.16297356  1
  Cr  Cr5  1  -0.00294694  0.32829296  0.32429554  1
  Cr  Cr6  1  -0.00043953  0.66292470  0.99515471  1
  Fe  Fe7  1  0.16044383  0.83008518  0.16132156  1
  Ni  Ni8  1  0.00055715  0.66264265  0.32724723  1
  Fe  Fe9  1  0.32723330  -0.00240455  0.99513203  1
  Cr  Cr10  1  0.49331927  0.16158151  0.16022593  1
  Cr  Cr11  1  0.32642836  0.99466861  0.32629027  1
  Cr  Cr12  1  0.32832336  0.32940640  -0.00354489  1
  Fe  Fe13  1  0.49557474  0.49433550  0.16068249  1
  Fe  Fe14  1  0.32714602  0.32988675  0.32626028  1
  Cr  Cr15  1  0.32743156  0.66331843  -0.00351033  1
  Cr  Cr16  1  0.49614722  0.82985901  0.15704697  1
  Cr  Cr17  1  0.32733505  0.66160618  0.32632106  1
  Ni  Ni18  1  0.66211150  -0.00297022  0.99421800  1
  Cr  Cr19  1  0.82899135  0.16050277  0.15861550  1
  Cr  Cr20  1  0.66163144  -0.00364632  0.33079150  1
  Ni  Ni21  1  0.65923153  0.32612227  0.99426693  1
  Cr  Cr22  1  0.82947336  0.49707865  0.15931678  1
  Cr  Cr23  1  0.65979868  0.32862645  0.32953262  1
  Ni  Ni24  1  0.66023593  0.66197698  -0.00415786  1
  Cr  Cr25  1  0.82805115  0.82788987  0.15993287  1
  Cr  Cr26  1  0.66031450  0.66136067  0.33079799  1
  Cr  Cr27  1  0.16356948  0.16167462  0.49652299  1
  Fe  Fe28  1  -0.00079337  0.99469635  0.66412704  1
  Fe  Fe29  1  0.16496276  0.15926350  0.82996378  1
  Cr  Cr30  1  0.16313709  0.49452649  0.49481037  1
  Cr  Cr31  1  -0.00220021  0.32656996  0.66741953  1
  Fe  Fe32  1  0.16481402  0.49370139  0.82908331  1
  Ni  Ni33  1  0.16155992  0.82909988  0.49611569  1
  Cr  Cr34  1  -0.00097697  0.66352404  0.66419936  1
  Fe  Fe35  1  0.16272627  0.83320563  0.82905976  1
  Cr  Cr36  1  0.49053831  0.16410349  0.49608954  1
  Fe  Fe37  1  0.32610908  -0.00292949  0.66401023  1
  Ni  Ni38  1  0.49041268  0.16114181  0.82969690  1
  Ni  Ni39  1  0.49037970  0.49319466  0.49471879  1
  Ni  Ni40  1  0.32747967  0.32650576  0.66368319  1
  Cr  Cr41  1  0.49534308  0.49423572  0.83007385  1
  Cr  Cr42  1  0.49104306  0.82888239  0.49689691  1
  Cr  Cr43  1  0.32760465  0.66197401  0.66329851  1
  Cr  Cr44  1  0.49473919  0.83256155  0.83167820  1
  Cr  Cr45  1  0.83200374  0.16224527  0.49562656  1
  Cr  Cr46  1  0.66188257  -0.00296184  0.66010519  1
  Cr  Cr47  1  0.82782361  0.16039863  0.83171904  1
  Cr  Cr48  1  0.83085529  0.49590396  0.49518398  1
  Cr  Cr49  1  0.65975925  0.32775325  0.66194361  1
  Cr  Cr50  1  0.82908331  0.49654233  0.83198066  1
  Cr  Cr51  1  0.83274571  0.82772138  0.49494179  1
  Cr  Cr52  1  0.66046167  0.66186160  0.66005616  1
  Cr  Cr53  1  0.82836882  0.82862495  0.83146849  1
" 