7813,Ni20Fe56Cr23_5,-226.621454699812, 184.5225907295,Ni20Fe56Cr23,"# generated using pymatgen
 data_Cr7(Fe3Ni)5
_symmetry_space_group_name_H-M   'P 1'
_cell_length_a   7.45688131
_cell_length_b   7.45688131
_cell_length_c   10.54562268
_cell_angle_alpha   90.00000000
_cell_angle_beta   90.00000000
_cell_angle_gamma   90.00000000
_symmetry_Int_Tables_number   1
_chemical_formula_structural   Cr7(Fe3Ni)5
_chemical_formula_sum   'Cr14 Fe30 Ni10'
_cell_volume   586.39018033
_cell_formula_units_Z   2
loop_
 _symmetry_equiv_pos_site_id
 _symmetry_equiv_pos_as_xyz
  1  'x, y, z'
loop_
 _atom_site_type_symbol
 _atom_site_label
 _atom_site_symmetry_multiplicity
 _atom_site_fract_x
 _atom_site_fract_y
 _atom_site_fract_z
 _atom_site_occupancy
  Cr  Cr0  1  1.00022245  0.00181129  0.99474284  1
  Fe  Fe1  1  0.16508584  0.16719394  0.16827833  1
  Ni  Ni2  1  0.00182364  0.99973387  0.33699138  1
  Fe  Fe3  1  0.00281237  0.33437373  0.99910747  1
  Fe  Fe4  1  0.16500991  0.49849161  0.16616691  1
  Fe  Fe5  1  1.00010887  0.33645272  0.33600137  1
  Fe  Fe6  1  1.00034570  0.66697356  0.00087508  1
  Cr  Cr7  1  0.16852044  0.83358873  0.16847492  1
  Fe  Fe8  1  0.99934561  0.66649828  0.33539052  1
  Fe  Fe9  1  0.33417656  0.00243186  0.99889029  1
  Cr  Cr10  1  0.49931584  0.16601689  0.16997566  1
  Fe  Fe11  1  0.33312795  0.00260870  0.33660435  1
  Fe  Fe12  1  0.33265232  0.33314493  0.99968166  1
  Fe  Fe13  1  0.50079905  0.50152966  0.16509189  1
  Cr  Cr14  1  0.33403435  0.33517755  0.33659877  1
  Fe  Fe15  1  0.33363804  0.66518232  1.00023767  1
  Fe  Fe16  1  0.50306074  0.83425485  0.16517963  1
  Cr  Cr17  1  0.33386613  0.66653912  0.33599153  1
  Ni  Ni18  1  0.66772056  0.99974094  0.00130592  1
  Cr  Cr19  1  0.83443504  0.16813507  0.17041561  1
  Fe  Fe20  1  0.66898274  1.00045439  0.33501744  1
  Cr  Cr21  1  0.66733910  0.33395550  0.99840510  1
  Fe  Fe22  1  0.83627974  0.50119389  0.16676166  1
  Ni  Ni23  1  0.66719797  0.33668435  0.33638546  1
  Fe  Fe24  1  0.66802549  0.66799093  0.00282146  1
  Ni  Ni25  1  0.83563720  0.83347320  0.16760332  1
  Cr  Cr26  1  0.66895590  0.66555854  0.33152036  1
  Fe  Fe27  1  0.16593882  0.16715916  0.50115420  1
  Fe  Fe28  1  0.99991533  0.00191899  0.66686136  1
  Fe  Fe29  1  0.16809711  0.17046638  0.83243016  1
  Fe  Fe30  1  0.16478836  0.50010324  0.50356222  1
  Ni  Ni31  1  0.00208715  0.33500688  0.66838411  1
  Fe  Fe32  1  0.16897508  0.50245160  0.83325185  1
  Fe  Fe33  1  0.16470412  0.83485556  0.50127492  1
  Fe  Fe34  1  0.00251190  0.66842944  0.66537940  1
  Ni  Ni35  1  0.16782510  0.83272572  0.83207369  1
  Ni  Ni36  1  0.50018676  0.17001554  0.50089490  1
  Cr  Cr37  1  0.33248915  1.00043765  0.66694200  1
  Fe  Fe38  1  0.50133625  0.16664436  0.83291841  1
  Fe  Fe39  1  0.50377000  0.49961490  0.50434489  1
  Fe  Fe40  1  0.33419318  0.33418348  0.66628287  1
  Ni  Ni41  1  0.49798848  0.49799013  0.83207394  1
  Cr  Cr42  1  0.50173300  0.83624705  0.50020240  1
  Fe  Fe43  1  0.33309044  0.66476668  0.66696993  1
  Cr  Cr44  1  0.50021273  0.83192647  0.83707558  1
  Cr  Cr45  1  0.83197732  0.16787176  0.50087076  1
  Ni  Ni46  1  0.66779158  1.00066898  0.66742355  1
  Fe  Fe47  1  0.83248686  0.16724833  0.83051485  1
  Fe  Fe48  1  0.83409712  0.50108327  0.50324653  1
  Fe  Fe49  1  0.66559329  0.33250830  0.66725753  1
  Cr  Cr50  1  0.83454341  0.50005058  0.83223605  1
  Ni  Ni51  1  0.83647639  0.83283504  0.50168332  1
  Fe  Fe52  1  0.66705425  0.66647879  0.66558941  1
  Cr  Cr53  1  0.83442759  0.83393165  0.83139488  1
" 