7239,Ni20Fe80_18,-243.064062783464, 208.094243911161,Ni20Fe80,"# generated using pymatgen
 data_Fe5Ni22
_symmetry_space_group_name_H-M   'P 1'
_cell_length_a   7.42671302
_cell_length_b   7.42671302
_cell_length_c   10.50295828
_cell_angle_alpha   90.00000000
_cell_angle_beta   90.00000000
_cell_angle_gamma   90.00000000
_symmetry_Int_Tables_number   1
_chemical_formula_structural   Fe5Ni22
_chemical_formula_sum   'Fe10 Ni44'
_cell_volume   579.30186362
_cell_formula_units_Z   2
loop_
 _symmetry_equiv_pos_site_id
 _symmetry_equiv_pos_as_xyz
  1  'x, y, z'
loop_
 _atom_site_type_symbol
 _atom_site_label
 _atom_site_symmetry_multiplicity
 _atom_site_fract_x
 _atom_site_fract_y
 _atom_site_fract_z
 _atom_site_occupancy
  Ni  Ni0  1  1.00199984  1.00200038  0.00290497  1
  Ni  Ni1  1  0.16984406  0.16934130  0.17077745  1
  Ni  Ni2  1  1.00208326  1.00213790  0.33601708  1
  Fe  Fe3  1  1.00201399  0.33681038  0.00291263  1
  Ni  Ni4  1  0.16926956  0.50285134  0.16951626  1
  Ni  Ni5  1  1.00207483  0.33656121  0.33548123  1
  Ni  Ni6  1  0.00373643  0.66998499  0.00287016  1
  Ni  Ni7  1  0.16922770  0.83595308  0.16894219  1
  Ni  Ni8  1  0.00392885  0.66944774  0.33536900  1
  Fe  Fe9  1  0.33681160  1.00201024  0.00291135  1
  Ni  Ni10  1  0.50260011  0.16907746  0.16920676  1
  Ni  Ni11  1  0.33646132  1.00217418  0.33538225  1
  Fe  Fe12  1  0.33649697  0.33649995  1.00259065  1
  Ni  Ni13  1  0.50252240  0.50246353  0.16966836  1
  Ni  Ni14  1  0.33677900  0.33683419  0.33569095  1
  Ni  Ni15  1  0.33557074  0.66880317  0.00280240  1
  Ni  Ni16  1  0.50283564  0.83660409  0.16990974  1
  Ni  Ni17  1  0.33489689  0.66913707  0.33560229  1
  Ni  Ni18  1  0.66998139  0.00373012  0.00287046  1
  Ni  Ni19  1  0.83570215  0.16903530  0.16925110  1
  Ni  Ni20  1  0.66959833  0.00402366  0.33533310  1
  Ni  Ni21  1  0.66879900  0.33556530  0.00280306  1
  Ni  Ni22  1  0.83635406  0.50308607  0.16968134  1
  Ni  Ni23  1  0.66928945  0.33499605  0.33564097  1
  Ni  Ni24  1  0.66884207  0.66885381  0.00283220  1
  Ni  Ni25  1  0.83608740  0.83602820  0.16995202  1
  Fe  Fe26  1  0.66990457  0.66938141  0.33502711  1
  Fe  Fe27  1  0.16830727  0.16932280  0.50284288  1
  Ni  Ni28  1  1.00208114  1.00213816  0.66922836  1
  Ni  Ni29  1  0.17048295  0.16997858  0.83476391  1
  Ni  Ni30  1  0.16891069  0.50345539  0.50291162  1
  Ni  Ni31  1  1.00212435  0.33666461  0.66979757  1
  Ni  Ni32  1  0.16904469  0.50198249  0.83571775  1
  Ni  Ni33  1  0.16891663  0.83524197  0.50344783  1
  Ni  Ni34  1  0.00387969  0.66934318  0.66990731  1
  Fe  Fe35  1  0.16969337  0.83528442  0.83572789  1
  Ni  Ni36  1  0.50296934  0.16912722  0.50291165  1
  Ni  Ni37  1  0.33656620  1.00222351  0.66989489  1
  Ni  Ni38  1  0.50173337  0.16885305  0.83602739  1
  Fe  Fe39  1  0.50271063  0.50218733  0.50271547  1
  Ni  Ni40  1  0.33683428  0.33688963  0.66962183  1
  Ni  Ni41  1  0.50252230  0.50246306  0.83525786  1
  Fe  Fe42  1  0.50264550  0.83657837  0.50277886  1
  Ni  Ni43  1  0.33500567  0.66902881  0.66973822  1
  Ni  Ni44  1  0.50370336  0.83682882  0.83532679  1
  Ni  Ni45  1  0.83475697  0.16913730  0.50344771  1
  Ni  Ni46  1  0.66949486  0.00397541  0.66994416  1
  Fe  Fe47  1  0.83528571  0.16963300  0.83579149  1
  Ni  Ni48  1  0.83719779  0.50283260  0.50291172  1
  Ni  Ni49  1  0.66918190  0.33510241  0.66970195  1
  Ni  Ni50  1  0.83657875  0.50395444  0.83555483  1
  Ni  Ni51  1  0.83687839  0.83617872  0.50260150  1
  Fe  Fe52  1  0.66996871  0.66944692  0.67052532  1
  Ni  Ni53  1  0.83545122  0.83539307  0.83559356  1
" 