7537,Ni20Fe17Cr62_11,-214.573355044233, 163.143102443,Ni20Fe17Cr62,"# generated using pymatgen
 data_Cr34Fe9Ni11
_symmetry_space_group_name_H-M   'P 1'
_cell_length_a   7.54160037
_cell_length_b   7.54160037
_cell_length_c   10.66543352
_cell_angle_alpha   90.00000000
_cell_angle_beta   90.00000000
_cell_angle_gamma   90.00000000
_symmetry_Int_Tables_number   1
_chemical_formula_structural   Cr34Fe9Ni11
_chemical_formula_sum   'Cr34 Fe9 Ni11'
_cell_volume   606.60438233
_cell_formula_units_Z   1
loop_
 _symmetry_equiv_pos_site_id
 _symmetry_equiv_pos_as_xyz
  1  'x, y, z'
loop_
 _atom_site_type_symbol
 _atom_site_label
 _atom_site_symmetry_multiplicity
 _atom_site_fract_x
 _atom_site_fract_y
 _atom_site_fract_z
 _atom_site_occupancy
  Cr  Cr0  1  -0.00362838  -0.00463379  -0.00449277  1
  Cr  Cr1  1  0.16109088  0.16206848  0.16330520  1
  Ni  Ni2  1  -0.00230790  0.99456717  0.32999217  1
  Ni  Ni3  1  -0.00295771  0.33010884  0.99460468  1
  Cr  Cr4  1  0.15906384  0.49562384  0.16120203  1
  Ni  Ni5  1  -0.00357574  0.32787519  0.32980373  1
  Fe  Fe6  1  -0.00399178  0.65830737  0.99341480  1
  Cr  Cr7  1  0.16234770  0.82765376  0.16244700  1
  Fe  Fe8  1  0.99430818  0.66330809  0.33064092  1
  Fe  Fe9  1  0.32822946  -0.00380955  0.99466421  1
  Cr  Cr10  1  0.49399337  0.15851654  0.16205460  1
  Ni  Ni11  1  0.32598481  0.99108154  0.33046858  1
  Cr  Cr12  1  0.32765531  0.33007995  0.99317217  1
  Cr  Cr13  1  0.49425256  0.49761927  0.16496018  1
  Cr  Cr14  1  0.32590871  0.32816468  0.32843531  1
  Cr  Cr15  1  0.32757744  0.66110330  -0.00480746  1
  Cr  Cr16  1  0.49426416  0.82962377  0.16571954  1
  Fe  Fe17  1  0.32800518  0.66533485  0.33056659  1
  Cr  Cr18  1  0.66160510  -0.00488655  0.99463031  1
  Cr  Cr19  1  0.82993314  0.16180805  0.16346388  1
  Ni  Ni20  1  0.66177699  0.98989597  0.32891945  1
  Cr  Cr21  1  0.66115159  0.32912288  0.99407476  1
  Cr  Cr22  1  0.83133593  0.49574617  0.16391010  1
  Cr  Cr23  1  0.66331846  0.32983705  0.32832539  1
  Cr  Cr24  1  0.66020253  0.66116506  0.99456662  1
  Cr  Cr25  1  0.82865643  0.82750408  0.16185650  1
  Ni  Ni26  1  0.66176527  0.66511275  0.33034736  1
  Fe  Fe27  1  0.16403868  0.15895642  0.49374214  1
  Cr  Cr28  1  -0.00167455  0.99291535  0.65896135  1
  Cr  Cr29  1  0.16411530  0.16340971  0.82691243  1
  Cr  Cr30  1  0.15984498  0.49488846  0.49499140  1
  Cr  Cr31  1  -0.00296296  0.32857424  0.65896472  1
  Ni  Ni32  1  0.16203876  0.49388195  0.82834495  1
  Fe  Fe33  1  0.16420752  0.83006473  0.49415385  1
  Ni  Ni34  1  -0.00254437  0.66034816  0.66179088  1
  Cr  Cr35  1  0.16174098  0.82578427  0.82799717  1
  Cr  Cr36  1  0.49227995  0.15851974  0.49671917  1
  Ni  Ni37  1  0.32784363  -0.00399941  0.66041558  1
  Fe  Fe38  1  0.49183133  0.16285273  0.82658332  1
  Cr  Cr39  1  0.49396041  0.49725100  0.49441256  1
  Ni  Ni40  1  0.32716009  0.32771735  0.66443150  1
  Fe  Fe41  1  0.49185084  0.49408211  0.82692755  1
  Ni  Ni42  1  0.49264066  0.82997193  0.49171868  1
  Cr  Cr43  1  0.32727324  0.66176815  0.66076267  1
  Cr  Cr44  1  0.49330755  0.83156440  0.82765382  1
  Cr  Cr45  1  0.82982571  0.16201160  0.49203975  1
  Cr  Cr46  1  0.66111454  0.99440190  0.66237474  1
  Cr  Cr47  1  0.82800183  0.16234831  0.82910098  1
  Fe  Fe48  1  0.82893797  0.49726692  0.49329145  1
  Cr  Cr49  1  0.65948416  0.32980130  0.66284759  1
  Cr  Cr50  1  0.83283978  0.49576567  0.82719276  1
  Cr  Cr51  1  0.82806157  0.82701371  0.49513907  1
  Cr  Cr52  1  0.66183176  0.66149815  0.66084404  1
  Cr  Cr53  1  0.83007568  0.82653294  0.82853058  1
" 