5831,Ni20Fe17Cr62_14,-214.825236949914, 170.40387769039,Ni20Fe17Cr62,"# generated using pymatgen
 data_Cr34Fe9Ni11
_symmetry_space_group_name_H-M   'P 1'
_cell_length_a   7.54330641
_cell_length_b   7.54330641
_cell_length_c   10.66784623
_cell_angle_alpha   90.00000000
_cell_angle_beta   90.00000000
_cell_angle_gamma   90.00000000
_symmetry_Int_Tables_number   1
_chemical_formula_structural   Cr34Fe9Ni11
_chemical_formula_sum   'Cr34 Fe9 Ni11'
_cell_volume   607.01614944
_cell_formula_units_Z   1
loop_
 _symmetry_equiv_pos_site_id
 _symmetry_equiv_pos_as_xyz
  1  'x, y, z'
loop_
 _atom_site_type_symbol
 _atom_site_label
 _atom_site_symmetry_multiplicity
 _atom_site_fract_x
 _atom_site_fract_y
 _atom_site_fract_z
 _atom_site_occupancy
  Cr  Cr0  1  -0.00371671  -0.00171567  -0.00423723  1
  Ni  Ni1  1  0.15927039  0.16560928  0.16151816  1
  Ni  Ni2  1  0.99349987  -0.00010460  0.32634242  1
  Ni  Ni3  1  -0.00494195  0.32689131  -0.00040833  1
  Cr  Cr4  1  0.16222213  0.49118869  0.15997580  1
  Fe  Fe5  1  0.99485459  0.32845011  0.32715862  1
  Cr  Cr6  1  0.99392668  0.65896286  -0.00469461  1
  Cr  Cr7  1  0.16087272  0.83097941  0.16323077  1
  Cr  Cr8  1  0.99457473  0.65872486  0.33000087  1
  Cr  Cr9  1  0.32829751  -0.00169596  -0.00334401  1
  Fe  Fe10  1  0.49654299  0.16403767  0.16267364  1
  Cr  Cr11  1  0.32713434  -0.00172820  0.32699914  1
  Fe  Fe12  1  0.32772542  0.32578437  -0.00376406  1
  Fe  Fe13  1  0.49713405  0.48961924  0.16218735  1
  Cr  Cr14  1  0.32812220  0.32674304  0.32838700  1
  Cr  Cr15  1  0.32868705  0.66144409  -0.00162992  1
  Cr  Cr16  1  0.49616820  0.82696958  0.16409155  1
  Cr  Cr17  1  0.32707332  0.65958308  0.32909416  1
  Cr  Cr18  1  0.66017781  -0.00241267  0.99384529  1
  Ni  Ni19  1  0.82907493  0.16611025  0.16459130  1
  Fe  Fe20  1  0.66143473  -0.00146577  0.32735902  1
  Cr  Cr21  1  0.66202907  0.32698065  0.99479001  1
  Ni  Ni22  1  0.82765433  0.48858207  0.16279063  1
  Fe  Fe23  1  0.66287056  0.32600174  0.32807616  1
  Cr  Cr24  1  0.66281789  0.65914306  -0.00372561  1
  Cr  Cr25  1  0.82747858  0.83137323  0.16278847  1
  Cr  Cr26  1  0.66354637  0.65656783  0.32721882  1
  Cr  Cr27  1  0.16129157  0.16313296  0.49469355  1
  Fe  Fe28  1  -0.00377722  -0.00277584  0.66029370  1
  Cr  Cr29  1  0.16168618  0.16394231  0.82866481  1
  Ni  Ni30  1  0.16096365  0.49371530  0.49731470  1
  Cr  Cr31  1  -0.00504294  0.33111252  0.65850259  1
  Cr  Cr32  1  0.16300554  0.49236284  0.82887318  1
  Cr  Cr33  1  0.16181250  0.82895427  0.49642620  1
  Fe  Fe34  1  -0.00243058  0.66019388  0.65901046  1
  Cr  Cr35  1  0.16212940  0.82845397  0.82476476  1
  Ni  Ni36  1  0.49425180  0.16243992  0.49469763  1
  Ni  Ni37  1  0.32777580  -0.00155254  0.66090243  1
  Ni  Ni38  1  0.49082674  0.16262574  0.82718251  1
  Cr  Cr39  1  0.49377130  0.49223813  0.49542928  1
  Ni  Ni40  1  0.32709907  0.32468680  0.66116103  1
  Cr  Cr41  1  0.49199736  0.49191840  0.82926214  1
  Cr  Cr42  1  0.49511278  0.83009408  0.49443295  1
  Fe  Fe43  1  0.32805093  0.65913978  0.66000135  1
  Cr  Cr44  1  0.49389899  0.82789824  0.82715565  1
  Cr  Cr45  1  0.82730065  0.16279861  0.49074531  1
  Cr  Cr46  1  0.65835746  -0.00195769  0.66301984  1
  Cr  Cr47  1  0.82936886  0.16270842  0.82842182  1
  Ni  Ni48  1  0.83084548  0.49360376  0.49264200  1
  Cr  Cr49  1  0.65961246  0.32758501  0.65999311  1
  Cr  Cr50  1  0.83015342  0.49324001  0.82934633  1
  Cr  Cr51  1  0.82876964  0.83087134  0.49416139  1
  Cr  Cr52  1  0.66594341  0.65920618  0.66167907  1
  Cr  Cr53  1  0.82973835  0.82978449  0.82695123  1
" 