8360,Ni20Fe32Cr47_2,-220.664978404878, 178.872441672566,Ni20Fe32Cr47,"# generated using pymatgen
 data_Cr26Fe17Ni11
_symmetry_space_group_name_H-M   'P 1'
_cell_length_a   7.51000539
_cell_length_b   7.51000539
_cell_length_c   10.62075147
_cell_angle_alpha   90.00000000
_cell_angle_beta   90.00000000
_cell_angle_gamma   90.00000000
_symmetry_Int_Tables_number   1
_chemical_formula_structural   Cr26Fe17Ni11
_chemical_formula_sum   'Cr26 Fe17 Ni11'
_cell_volume   599.01230479
_cell_formula_units_Z   1
loop_
 _symmetry_equiv_pos_site_id
 _symmetry_equiv_pos_as_xyz
  1  'x, y, z'
loop_
 _atom_site_type_symbol
 _atom_site_label
 _atom_site_symmetry_multiplicity
 _atom_site_fract_x
 _atom_site_fract_y
 _atom_site_fract_z
 _atom_site_occupancy
  Cr  Cr0  1  -0.00206539  -0.00178988  0.00034616  1
  Ni  Ni1  1  0.16598891  0.16274007  0.16246638  1
  Cr  Cr2  1  -0.00222109  0.99610214  0.32693409  1
  Cr  Cr3  1  0.99473169  0.32858161  0.99391163  1
  Cr  Cr4  1  0.16504288  0.49661797  0.16342986  1
  Cr  Cr5  1  0.99508120  0.32923003  0.33238983  1
  Cr  Cr6  1  -0.00201567  0.66444628  0.99561109  1
  Fe  Fe7  1  0.16603097  0.83128678  0.16224068  1
  Ni  Ni8  1  0.99549545  0.66585224  0.33170298  1
  Ni  Ni9  1  0.33256261  0.99647700  -0.00259065  1
  Cr  Cr10  1  0.49579811  0.16220381  0.16122367  1
  Cr  Cr11  1  0.33001384  0.99398615  0.33099346  1
  Fe  Fe12  1  0.33097173  0.33077247  0.99701640  1
  Fe  Fe13  1  0.49810828  0.50006468  0.16157716  1
  Cr  Cr14  1  0.33175149  0.33090875  0.32788990  1
  Ni  Ni15  1  0.33400665  0.66494468  -0.00125309  1
  Ni  Ni16  1  0.50013986  0.82922780  0.16351736  1
  Cr  Cr17  1  0.33206416  0.66661178  0.32857537  1
  Fe  Fe18  1  0.66130669  0.99585272  -0.00266578  1
  Cr  Cr19  1  0.82954834  0.16070787  0.16487897  1
  Ni  Ni20  1  0.66400936  0.99405270  0.33120158  1
  Fe  Fe21  1  0.66214462  0.33019034  0.99533778  1
  Cr  Cr22  1  0.82887730  0.50186730  0.16561396  1
  Cr  Cr23  1  0.66446988  0.33142332  0.33088102  1
  Ni  Ni24  1  0.66005830  0.66267254  -0.00164868  1
  Fe  Fe25  1  0.82727384  0.82926766  0.16515054  1
  Ni  Ni26  1  0.66424749  0.66610552  0.33044132  1
  Cr  Cr27  1  0.16458972  0.16503394  0.49797263  1
  Cr  Cr28  1  0.99694204  -0.00154738  0.66429032  1
  Cr  Cr29  1  0.16717579  0.16676319  0.83055461  1
  Cr  Cr30  1  0.16098022  0.49728898  0.49831274  1
  Fe  Fe31  1  0.99658428  0.33246131  0.66566034  1
  Ni  Ni32  1  0.16293557  0.49600486  0.82893957  1
  Fe  Fe33  1  0.16367164  0.82971803  0.49764326  1
  Fe  Fe34  1  0.99557654  0.66113046  0.66396297  1
  Cr  Cr35  1  0.16437512  0.82808114  0.83059515  1
  Cr  Cr36  1  0.49747868  0.16065696  0.49849142  1
  Fe  Fe37  1  0.33287043  -0.00153477  0.66438887  1
  Ni  Ni38  1  0.49892800  0.16348014  0.83133582  1
  Cr  Cr39  1  0.49814634  0.49881403  0.49412327  1
  Fe  Fe40  1  0.33021776  0.32991672  0.66553925  1
  Cr  Cr41  1  0.49503138  0.49649276  0.83485170  1
  Fe  Fe42  1  0.49832134  0.83085750  0.49650402  1
  Cr  Cr43  1  0.33070508  0.66580042  0.66294323  1
  Cr  Cr44  1  0.49950510  0.83327340  0.82965612  1
  Fe  Fe45  1  0.82957212  0.16365892  0.49784573  1
  Fe  Fe46  1  0.66290427  -0.00230308  0.66393428  1
  Ni  Ni47  1  0.82701047  0.16416262  0.82962381  1
  Fe  Fe48  1  0.83070178  0.49843035  0.49673313  1
  Cr  Cr49  1  0.66643415  0.33022292  0.66505497  1
  Fe  Fe50  1  0.83053817  0.49592771  0.83057535  1
  Cr  Cr51  1  0.82809126  0.82866744  0.49508517  1
  Fe  Fe52  1  0.66541534  0.66405472  0.66332256  1
  Cr  Cr53  1  0.82743392  0.82964039  0.83244474  1
" 