2452,Ni20Fe80_15,-242.807433836776, 207.437631258939,Ni20Fe80,"# generated using pymatgen
 data_Fe5Ni22
_symmetry_space_group_name_H-M   'P 1'
_cell_length_a   7.42804512
_cell_length_b   7.42804512
_cell_length_c   10.50484215
_cell_angle_alpha   90.00000000
_cell_angle_beta   90.00000000
_cell_angle_gamma   90.00000000
_symmetry_Int_Tables_number   1
_chemical_formula_structural   Fe5Ni22
_chemical_formula_sum   'Fe10 Ni44'
_cell_volume   579.61363980
_cell_formula_units_Z   2
loop_
 _symmetry_equiv_pos_site_id
 _symmetry_equiv_pos_as_xyz
  1  'x, y, z'
loop_
 _atom_site_type_symbol
 _atom_site_label
 _atom_site_symmetry_multiplicity
 _atom_site_fract_x
 _atom_site_fract_y
 _atom_site_fract_z
 _atom_site_occupancy
  Ni  Ni0  1  0.00293399  1.00237181  0.00279898  1
  Fe  Fe1  1  0.17058277  0.16961844  0.16960448  1
  Fe  Fe2  1  1.00255989  0.00262593  0.33654946  1
  Ni  Ni3  1  0.00289374  0.33637230  1.00221882  1
  Ni  Ni4  1  0.16932103  0.50412787  0.16940933  1
  Ni  Ni5  1  0.00293441  0.33666533  0.33621018  1
  Ni  Ni6  1  0.00275520  0.66913156  1.00252655  1
  Ni  Ni7  1  0.16967495  0.83416076  0.16975885  1
  Ni  Ni8  1  0.00270600  0.66884178  0.33590401  1
  Ni  Ni9  1  0.33621433  1.00259427  0.00263321  1
  Ni  Ni10  1  0.50461180  0.16954176  0.16948972  1
  Ni  Ni11  1  0.33676275  0.00264151  0.33594686  1
  Ni  Ni12  1  0.33590371  0.33579954  0.00287809  1
  Ni  Ni13  1  0.50190933  0.50263008  0.16916566  1
  Ni  Ni14  1  0.33557796  0.33520856  0.33579745  1
  Ni  Ni15  1  0.33581417  0.66948321  1.00233873  1
  Ni  Ni16  1  0.50159910  0.83570403  0.16948984  1
  Ni  Ni17  1  0.33553532  0.67002421  0.33636163  1
  Ni  Ni18  1  0.66873010  1.00245886  1.00225883  1
  Ni  Ni19  1  0.83510174  0.16989880  0.16975814  1
  Ni  Ni20  1  0.66817927  1.00241144  0.33632133  1
  Ni  Ni21  1  0.66908293  0.33597557  1.00252642  1
  Fe  Fe22  1  0.83550965  0.50266906  0.16890651  1
  Ni  Ni23  1  0.66936568  0.33543681  0.33617306  1
  Ni  Ni24  1  0.66930144  0.66944051  0.00283464  1
  Fe  Fe25  1  0.83517997  0.83565400  0.16960463  1
  Ni  Ni26  1  0.66963138  0.67002953  0.33584162  1
  Ni  Ni27  1  0.16857689  0.16938877  0.50241191  1
  Ni  Ni28  1  0.00310618  1.00214496  0.66871649  1
  Fe  Fe29  1  0.16986953  0.16986454  0.83532023  1
  Fe  Fe30  1  0.16890355  0.50223596  0.50223497  1
  Ni  Ni31  1  0.00306164  0.33634267  0.66944600  1
  Ni  Ni32  1  0.16851638  0.50402594  0.83582825  1
  Ni  Ni33  1  0.16915542  0.83533214  0.50237128  1
  Ni  Ni34  1  1.00195770  0.66938800  0.66944571  1
  Ni  Ni35  1  0.16969469  0.83459724  0.83574830  1
  Ni  Ni36  1  0.50355605  0.16934760  0.50237049  1
  Ni  Ni37  1  0.33611426  0.00329114  0.66929466  1
  Ni  Ni38  1  0.50443825  0.16926226  0.83601589  1
  Fe  Fe39  1  0.50295132  0.50236072  0.50229482  1
  Ni  Ni40  1  0.33580505  0.33484121  0.66919696  1
  Ni  Ni41  1  0.50266826  0.50252431  0.83613825  1
  Ni  Ni42  1  0.50235490  0.83600124  0.50232986  1
  Fe  Fe43  1  0.33589649  0.66981983  0.66987987  1
  Ni  Ni44  1  0.50147602  0.83608984  0.83605839  1
  Ni  Ni45  1  0.83574203  0.16970550  0.50278873  1
  Ni  Ni46  1  0.66865633  1.00218632  0.66929563  1
  Ni  Ni47  1  0.83520306  0.17044120  0.83532955  1
  Fe  Fe48  1  0.83602128  0.50281484  0.50313714  1
  Ni  Ni49  1  0.66901164  0.33599099  0.66917729  1
  Ni  Ni50  1  0.83669130  0.50106789  0.83632580  1
  Ni  Ni51  1  0.83636543  0.83622845  0.50272193  1
  Ni  Ni52  1  0.67015657  0.66969865  0.66920001  1
  Fe  Fe53  1  0.83544626  0.83525934  0.83538365  1
" 