3687,Ni20Fe32Cr47_19,-220.740320228041, 184.232642880367,Ni20Fe32Cr47,"# generated using pymatgen
 data_Cr26Fe17Ni11
_symmetry_space_group_name_H-M   'P 1'
_cell_length_a   7.50545893
_cell_length_b   7.50545893
_cell_length_c   10.61432181
_cell_angle_alpha   90.00000000
_cell_angle_beta   90.00000000
_cell_angle_gamma   90.00000000
_symmetry_Int_Tables_number   1
_chemical_formula_structural   Cr26Fe17Ni11
_chemical_formula_sum   'Cr26 Fe17 Ni11'
_cell_volume   597.92506001
_cell_formula_units_Z   1
loop_
 _symmetry_equiv_pos_site_id
 _symmetry_equiv_pos_as_xyz
  1  'x, y, z'
loop_
 _atom_site_type_symbol
 _atom_site_label
 _atom_site_symmetry_multiplicity
 _atom_site_fract_x
 _atom_site_fract_y
 _atom_site_fract_z
 _atom_site_occupancy
  Cr  Cr0  1  -0.00154487  -0.00069987  -0.00199659  1
  Fe  Fe1  1  0.16478395  0.16388017  0.16475759  1
  Cr  Cr2  1  -0.00183635  -0.00007824  0.33203870  1
  Cr  Cr3  1  0.99363449  0.33294647  -0.00238674  1
  Fe  Fe4  1  0.16386153  0.49543984  0.16453128  1
  Ni  Ni5  1  -0.00200394  0.33269892  0.33009829  1
  Fe  Fe6  1  -0.00124979  0.66464642  -0.00216821  1
  Cr  Cr7  1  0.16655533  0.82610449  0.16013214  1
  Cr  Cr8  1  0.99673686  0.66542846  0.32817947  1
  Ni  Ni9  1  0.33104629  0.99625305  0.99623496  1
  Ni  Ni10  1  0.49450547  0.16572532  0.16148179  1
  Cr  Cr11  1  0.33097029  -0.00198508  0.32987269  1
  Cr  Cr12  1  0.32745193  0.32949585  0.99604559  1
  Cr  Cr13  1  0.49481056  0.49667756  0.16423845  1
  Cr  Cr14  1  0.32855269  0.32865076  0.33525663  1
  Ni  Ni15  1  0.33268483  0.66311678  0.99509483  1
  Cr  Cr16  1  0.49645979  0.83130079  0.16161235  1
  Ni  Ni17  1  0.33114277  0.66102807  0.33065238  1
  Cr  Cr18  1  0.66510956  0.99716737  -0.00192367  1
  Cr  Cr19  1  0.82744889  0.16666638  0.16409910  1
  Cr  Cr20  1  0.66449693  0.99560113  0.33044982  1
  Fe  Fe21  1  0.66188085  0.33106048  0.99619310  1
  Fe  Fe22  1  0.82986795  0.49924541  0.16432751  1
  Cr  Cr23  1  0.66161339  0.33009095  0.32939082  1
  Cr  Cr24  1  0.66726576  0.66241414  0.99410562  1
  Ni  Ni25  1  0.83286706  0.82866255  0.16531424  1
  Fe  Fe26  1  0.66352421  0.66354745  0.32981640  1
  Ni  Ni27  1  0.16583471  0.16532347  0.50244744  1
  Fe  Fe28  1  -0.00121002  0.00047556  0.66489642  1
  Fe  Fe29  1  0.16210556  0.16228910  0.82849293  1
  Cr  Cr30  1  0.16292087  0.49660632  0.49767769  1
  Fe  Fe31  1  -0.00229305  0.32889467  0.66525686  1
  Cr  Cr32  1  0.16290666  0.49838796  0.82964544  1
  Cr  Cr33  1  0.16488664  0.83121803  0.49946028  1
  Fe  Fe34  1  0.99609326  0.66566256  0.66380594  1
  Cr  Cr35  1  0.16785869  0.82988219  0.83228207  1
  Ni  Ni36  1  0.49648178  0.16264199  0.50019625  1
  Ni  Ni37  1  0.33197044  0.99705587  0.66581666  1
  Cr  Cr38  1  0.49820518  0.16196606  0.83292345  1
  Fe  Fe39  1  0.49687533  0.49545961  0.49751335  1
  Fe  Fe40  1  0.33106796  0.32560650  0.66429008  1
  Fe  Fe41  1  0.49806216  0.49794696  0.83181180  1
  Cr  Cr42  1  0.49885248  0.82951900  0.49707313  1
  Cr  Cr43  1  0.33395680  0.66043289  0.66481881  1
  Fe  Fe44  1  0.49883998  0.83137525  0.82989243  1
  Cr  Cr45  1  0.83075701  0.16564332  0.49933108  1
  Ni  Ni46  1  0.66463074  -0.00141748  0.66394893  1
  Ni  Ni47  1  0.82962005  0.16713688  0.82976595  1
  Cr  Cr48  1  0.82982923  0.49905346  0.49724457  1
  Cr  Cr49  1  0.66215984  0.33345328  0.66735387  1
  Fe  Fe50  1  0.83188321  0.49804514  0.82857455  1
  Fe  Fe51  1  0.83099970  0.83277258  0.49989754  1
  Fe  Fe52  1  0.66444466  0.66739605  0.66494415  1
  Cr  Cr53  1  0.83344355  0.83390699  0.82700959  1
" 