5578,Ni20Fe17Cr62_9,-214.547291649748, 169.853549466617,Ni20Fe17Cr62,"# generated using pymatgen
 data_Cr34Fe9Ni11
_symmetry_space_group_name_H-M   'P 1'
_cell_length_a   7.53716948
_cell_length_b   7.53716948
_cell_length_c   10.65916730
_cell_angle_alpha   90.00000000
_cell_angle_beta   90.00000000
_cell_angle_gamma   90.00000000
_symmetry_Int_Tables_number   1
_chemical_formula_structural   Cr34Fe9Ni11
_chemical_formula_sum   'Cr34 Fe9 Ni11'
_cell_volume   605.53582187
_cell_formula_units_Z   1
loop_
 _symmetry_equiv_pos_site_id
 _symmetry_equiv_pos_as_xyz
  1  'x, y, z'
loop_
 _atom_site_type_symbol
 _atom_site_label
 _atom_site_symmetry_multiplicity
 _atom_site_fract_x
 _atom_site_fract_y
 _atom_site_fract_z
 _atom_site_occupancy
  Cr  Cr0  1  0.99435269  -0.00181444  0.99438171  1
  Fe  Fe1  1  0.15999025  0.16360549  0.16342646  1
  Cr  Cr2  1  0.99279503  -0.00385477  0.32842198  1
  Cr  Cr3  1  -0.00429049  0.32854336  -0.00275911  1
  Ni  Ni4  1  0.16244803  0.49576062  0.16491349  1
  Cr  Cr5  1  0.99470343  0.33195188  0.32623199  1
  Cr  Cr6  1  -0.00337881  0.65968427  -0.00226882  1
  Cr  Cr7  1  0.16135958  0.83037858  0.16326937  1
  Fe  Fe8  1  0.99524946  0.66214656  0.32690091  1
  Cr  Cr9  1  0.32693038  0.99506102  0.99294379  1
  Cr  Cr10  1  0.49002389  0.16162039  0.16375343  1
  Ni  Ni11  1  0.32658903  0.99360020  0.32793938  1
  Cr  Cr12  1  0.32546330  0.33109693  -0.00289075  1
  Ni  Ni13  1  0.49424713  0.49523329  0.16163474  1
  Fe  Fe14  1  0.32862185  0.32922720  0.32616753  1
  Cr  Cr15  1  0.32955158  0.65979271  0.99330963  1
  Fe  Fe16  1  0.49471354  0.82604664  0.16205937  1
  Cr  Cr17  1  0.32729656  0.65983547  0.33056519  1
  Cr  Cr18  1  0.66379527  0.99443340  -0.00011426  1
  Ni  Ni19  1  0.82954136  0.16206327  0.16320085  1
  Cr  Cr20  1  0.66262321  0.99510093  0.32728160  1
  Cr  Cr21  1  0.66375837  0.32973882  -0.00118111  1
  Ni  Ni22  1  0.82949772  0.49758006  0.16121591  1
  Cr  Cr23  1  0.66424259  0.32916819  0.32745919  1
  Ni  Ni24  1  0.66147333  0.66069548  0.00113702  1
  Ni  Ni25  1  0.83000529  0.82645908  0.16151692  1
  Cr  Cr26  1  0.66197561  0.66082011  0.32422579  1
  Cr  Cr27  1  0.16353072  0.16184504  0.49121432  1
  Cr  Cr28  1  -0.00378703  -0.00269281  0.66234585  1
  Ni  Ni29  1  0.16105012  0.16395406  0.82906804  1
  Fe  Fe30  1  0.16117546  0.49562557  0.49350739  1
  Ni  Ni31  1  -0.00340593  0.32900980  0.66151855  1
  Fe  Fe32  1  0.15989291  0.49264980  0.82903084  1
  Ni  Ni33  1  0.16095853  0.82897567  0.49421358  1
  Cr  Cr34  1  0.00036460  0.66069308  0.66067090  1
  Fe  Fe35  1  0.16057893  0.82884771  0.82889670  1
  Cr  Cr36  1  0.49323663  0.16378096  0.49484827  1
  Cr  Cr37  1  0.32686550  0.99319778  0.66388552  1
  Cr  Cr38  1  0.49372236  0.16409500  0.82743517  1
  Cr  Cr39  1  0.49698665  0.49355799  0.49705139  1
  Cr  Cr40  1  0.32438978  0.33125379  0.66280762  1
  Cr  Cr41  1  0.49956335  0.49505735  0.82828243  1
  Cr  Cr42  1  0.49371924  0.82896992  0.49415863  1
  Cr  Cr43  1  0.32808896  0.66176970  0.66295009  1
  Cr  Cr44  1  0.49851049  0.82729974  0.83052981  1
  Fe  Fe45  1  0.83062962  0.16362390  0.49568155  1
  Cr  Cr46  1  0.66352002  -0.00451475  0.65859817  1
  Cr  Cr47  1  0.82967464  0.16507586  0.82565160  1
  Cr  Cr48  1  0.83015616  0.49555690  0.49800809  1
  Fe  Fe49  1  0.66438837  0.32947004  0.66095495  1
  Cr  Cr50  1  0.82858758  0.49723154  0.82771834  1
  Cr  Cr51  1  0.83179241  0.82467805  0.49452977  1
  Ni  Ni52  1  0.66201976  0.66112981  0.66209095  1
  Cr  Cr53  1  0.82901714  0.82468995  0.83041545  1
" 