6150,Ni20Fe32Cr47_16,-220.226646482378, 175.263919510789,Ni20Fe32Cr47,"# generated using pymatgen
 data_Cr26Fe17Ni11
_symmetry_space_group_name_H-M   'P 1'
_cell_length_a   7.50725502
_cell_length_b   7.50725502
_cell_length_c   10.61686186
_cell_angle_alpha   90.00000000
_cell_angle_beta   90.00000000
_cell_angle_gamma   90.00000000
_symmetry_Int_Tables_number   1
_chemical_formula_structural   Cr26Fe17Ni11
_chemical_formula_sum   'Cr26 Fe17 Ni11'
_cell_volume   598.35442172
_cell_formula_units_Z   1
loop_
 _symmetry_equiv_pos_site_id
 _symmetry_equiv_pos_as_xyz
  1  'x, y, z'
loop_
 _atom_site_type_symbol
 _atom_site_label
 _atom_site_symmetry_multiplicity
 _atom_site_fract_x
 _atom_site_fract_y
 _atom_site_fract_z
 _atom_site_occupancy
  Ni  Ni0  1  0.99695000  -0.00262482  -0.00132119  1
  Ni  Ni1  1  0.16348693  0.16470850  0.16351096  1
  Cr  Cr2  1  -0.00086424  -0.00245353  0.33062631  1
  Cr  Cr3  1  0.99719861  0.33057009  -0.00117821  1
  Ni  Ni4  1  0.16245325  0.49736369  0.16317881  1
  Cr  Cr5  1  -0.00177468  0.33136336  0.32988954  1
  Ni  Ni6  1  -0.00103713  0.66405847  0.00044554  1
  Ni  Ni7  1  0.16120401  0.82989381  0.16303035  1
  Fe  Fe8  1  -0.00013051  0.66378499  0.32932283  1
  Cr  Cr9  1  0.33134796  0.99701477  -0.00214704  1
  Fe  Fe10  1  0.49618476  0.16442915  0.16209571  1
  Cr  Cr11  1  0.32930416  -0.00253529  0.33108528  1
  Fe  Fe12  1  0.33034598  0.33043877  -0.00126144  1
  Cr  Cr13  1  0.49647930  0.49471947  0.16277468  1
  Cr  Cr14  1  0.32901040  0.33023194  0.33118301  1
  Fe  Fe15  1  0.32745229  0.66421391  -0.00166764  1
  Cr  Cr16  1  0.49686187  0.83210836  0.16344639  1
  Cr  Cr17  1  0.32815431  0.66426976  0.33052047  1
  Fe  Fe18  1  0.66510529  -0.00064007  0.99612188  1
  Fe  Fe19  1  0.83201701  0.16411129  0.16222313  1
  Cr  Cr20  1  0.66352687  -0.00159315  0.32952502  1
  Fe  Fe21  1  0.66404210  0.32770745  0.99703100  1
  Fe  Fe22  1  0.83406394  0.49734054  0.16317457  1
  Cr  Cr23  1  0.66473288  0.33020479  0.33083523  1
  Cr  Cr24  1  0.66358135  0.66454333  0.99649723  1
  Cr  Cr25  1  0.83346816  0.83068242  0.16433662  1
  Cr  Cr26  1  0.66465763  0.66335439  0.33104051  1
  Fe  Fe27  1  0.16382322  0.16136412  0.49867428  1
  Ni  Ni28  1  -0.00073912  0.99670726  0.66276065  1
  Cr  Cr29  1  0.16426642  0.16244649  0.82997189  1
  Fe  Fe30  1  0.16447354  0.49982100  0.49740810  1
  Cr  Cr31  1  0.99583816  0.32912996  0.66325008  1
  Cr  Cr32  1  0.16447470  0.49826657  0.83188777  1
  Ni  Ni33  1  0.16334542  0.83124473  0.49921043  1
  Fe  Fe34  1  -0.00133485  0.66599231  0.66307778  1
  Cr  Cr35  1  0.16355977  0.83125705  0.82991398  1
  Fe  Fe36  1  0.49711919  0.16455251  0.49949277  1
  Ni  Ni37  1  0.32991674  0.99535708  0.66294789  1
  Ni  Ni38  1  0.49957210  0.16345161  0.83137159  1
  Fe  Fe39  1  0.49690407  0.49707699  0.49909236  1
  Cr  Cr40  1  0.33186763  0.33018380  0.66202457  1
  Cr  Cr41  1  0.49757790  0.49627033  0.82983990  1
  Cr  Cr42  1  0.49563746  0.83066055  0.49860421  1
  Fe  Fe43  1  0.33066332  0.66644142  0.66282495  1
  Ni  Ni44  1  0.49760984  0.83245652  0.82953073  1
  Fe  Fe45  1  0.83102402  0.16339097  0.49900844  1
  Cr  Cr46  1  0.66304919  -0.00176905  0.66616112  1
  Fe  Fe47  1  0.82840243  0.16279419  0.83073622  1
  Cr  Cr48  1  0.82964821  0.49738562  0.49777477  1
  Ni  Ni49  1  0.66340576  0.33096963  0.66367858  1
  Cr  Cr50  1  0.82991029  0.49697392  0.82986662  1
  Cr  Cr51  1  0.83346720  0.83043059  0.49773656  1
  Fe  Fe52  1  0.66263833  0.66334754  0.66433191  1
  Cr  Cr53  1  0.83144977  0.83192310  0.82989550  1
" 