2183,Ni20Fe80_10,-243.094784566248, 208.469583995633,Ni20Fe80,"# generated using pymatgen
 data_Fe5Ni22
_symmetry_space_group_name_H-M   'P 1'
_cell_length_a   7.42560023
_cell_length_b   7.42560023
_cell_length_c   10.50138456
_cell_angle_alpha   90.00000000
_cell_angle_beta   90.00000000
_cell_angle_gamma   90.00000000
_symmetry_Int_Tables_number   1
_chemical_formula_structural   Fe5Ni22
_chemical_formula_sum   'Fe10 Ni44'
_cell_volume   579.04150150
_cell_formula_units_Z   2
loop_
 _symmetry_equiv_pos_site_id
 _symmetry_equiv_pos_as_xyz
  1  'x, y, z'
loop_
 _atom_site_type_symbol
 _atom_site_label
 _atom_site_symmetry_multiplicity
 _atom_site_fract_x
 _atom_site_fract_y
 _atom_site_fract_z
 _atom_site_occupancy
  Ni  Ni0  1  0.00400636  1.00230639  0.00322790  1
  Ni  Ni1  1  0.17051838  0.17069242  0.16951648  1
  Ni  Ni2  1  0.00310961  1.00259237  0.33606846  1
  Ni  Ni3  1  0.00315284  0.33641748  0.00301540  1
  Ni  Ni4  1  0.16890497  0.50119000  0.16912421  1
  Ni  Ni5  1  0.00404690  0.33659304  0.33564008  1
  Ni  Ni6  1  1.00121114  0.66964798  1.00238787  1
  Fe  Fe7  1  0.16944805  0.83619080  0.16939728  1
  Ni  Ni8  1  1.00121011  0.66918850  0.33651515  1
  Ni  Ni9  1  0.33534915  0.00351229  1.00273101  1
  Ni  Ni10  1  0.50149351  0.16884693  0.16896308  1
  Ni  Ni11  1  0.33633750  0.00385477  0.33659990  1
  Ni  Ni12  1  0.33615621  0.33517068  1.00248599  1
  Ni  Ni13  1  0.50282296  0.50275924  0.16948762  1
  Ni  Ni14  1  0.33538317  0.33530629  0.33620824  1
  Fe  Fe15  1  0.33560413  0.66893150  1.00214486  1
  Ni  Ni16  1  0.50403078  0.83676573  0.16954810  1
  Fe  Fe17  1  0.33553416  0.66997576  0.33670551  1
  Fe  Fe18  1  0.66991866  1.00278797  0.00285585  1
  Fe  Fe19  1  0.83607310  0.16997864  0.16939273  1
  Ni  Ni20  1  0.66892486  1.00101971  0.33572559  1
  Ni  Ni21  1  0.66906335  0.33796859  0.00339862  1
  Ni  Ni22  1  0.83663947  0.50373215  0.16916167  1
  Fe  Fe23  1  0.66997683  0.33553125  0.33605108  1
  Ni  Ni24  1  0.67026317  0.66884341  1.00276953  1
  Ni  Ni25  1  0.83479127  0.83515762  0.16923263  1
  Ni  Ni26  1  0.67020586  0.67013910  0.33620827  1
  Ni  Ni27  1  0.17020093  0.17021179  0.50317111  1
  Ni  Ni28  1  0.00311089  0.00319511  0.66907622  1
  Ni  Ni29  1  0.16954428  0.17031947  0.83568478  1
  Ni  Ni30  1  0.16867903  0.50206813  0.50285482  1
  Ni  Ni31  1  0.00310044  0.33559542  0.66971614  1
  Ni  Ni32  1  0.16890639  0.50178093  0.83639255  1
  Ni  Ni33  1  0.17020656  0.83609273  0.50254956  1
  Fe  Fe34  1  0.00292903  0.66932800  0.66946376  1
  Ni  Ni35  1  0.17043630  0.83626628  0.83655396  1
  Ni  Ni36  1  0.50243729  0.16830989  0.50319677  1
  Ni  Ni37  1  0.33561239  1.00257641  0.66904089  1
  Fe  Fe38  1  0.50253099  0.16925912  0.83591802  1
  Fe  Fe39  1  0.50278918  0.50279122  0.50292286  1
  Ni  Ni40  1  0.33553620  0.33613693  0.66967865  1
  Fe  Fe41  1  0.50312548  0.50312569  0.83637875  1
  Ni  Ni42  1  0.50315660  0.83726341  0.50257111  1
  Ni  Ni43  1  0.33710910  0.66966051  0.66939799  1
  Ni  Ni44  1  0.50310668  0.83650512  0.83625349  1
  Ni  Ni45  1  0.83573578  0.16983664  0.50226353  1
  Ni  Ni46  1  0.66964853  1.00163584  0.66991338  1
  Ni  Ni47  1  0.83639600  0.17005560  0.83659274  1
  Ni  Ni48  1  0.83690816  0.50279071  0.50285035  1
  Ni  Ni49  1  0.66973574  0.33708884  0.66880354  1
  Ni  Ni50  1  0.83663025  0.50245601  0.83635992  1
  Ni  Ni51  1  0.83500890  0.83574028  0.50345623  1
  Ni  Ni52  1  0.66911641  0.66965148  0.66939709  1
  Ni  Ni53  1  0.83483149  0.83586337  0.83568418  1
" 