7723,Ni20Fe56Cr23_11,-226.815005951886, 173.253516703205,Ni20Fe56Cr23,"# generated using pymatgen
 data_Cr7(Fe3Ni)5
_symmetry_space_group_name_H-M   'P 1'
_cell_length_a   7.47082960
_cell_length_b   7.47082960
_cell_length_c   10.56534854
_cell_angle_alpha   90.00000000
_cell_angle_beta   90.00000000
_cell_angle_gamma   90.00000000
_symmetry_Int_Tables_number   1
_chemical_formula_structural   Cr7(Fe3Ni)5
_chemical_formula_sum   'Cr14 Fe30 Ni10'
_cell_volume   589.68691420
_cell_formula_units_Z   2
loop_
 _symmetry_equiv_pos_site_id
 _symmetry_equiv_pos_as_xyz
  1  'x, y, z'
loop_
 _atom_site_type_symbol
 _atom_site_label
 _atom_site_symmetry_multiplicity
 _atom_site_fract_x
 _atom_site_fract_y
 _atom_site_fract_z
 _atom_site_occupancy
  Fe  Fe0  1  0.99739931  0.00213096  0.99813738  1
  Fe  Fe1  1  0.16473182  0.16582996  0.16840476  1
  Fe  Fe2  1  0.99880502  0.00046466  0.33290161  1
  Fe  Fe3  1  0.99960487  0.33094187  0.00033646  1
  Fe  Fe4  1  0.16474030  0.49847237  0.16686644  1
  Fe  Fe5  1  0.00231317  0.33312499  0.33332109  1
  Cr  Cr6  1  0.00118700  0.66860631  0.99913157  1
  Fe  Fe7  1  0.16517795  0.83514761  0.16700447  1
  Fe  Fe8  1  -0.00024745  0.66545386  0.33250210  1
  Cr  Cr9  1  0.33026193  0.99816303  0.99915754  1
  Fe  Fe10  1  0.50041989  0.16518353  0.16670062  1
  Ni  Ni11  1  0.33182254  0.00341059  0.33153990  1
  Cr  Cr12  1  0.33363854  0.33248442  0.00029257  1
  Fe  Fe13  1  0.50076170  0.49966343  0.16450187  1
  Fe  Fe14  1  0.33088508  0.33101515  0.33242630  1
  Fe  Fe15  1  0.33274868  0.66559218  0.00003979  1
  Fe  Fe16  1  0.50026993  0.83462294  0.16632750  1
  Cr  Cr17  1  0.33113817  0.66693278  0.32982798  1
  Fe  Fe18  1  0.66938886  0.00041059  0.00081818  1
  Fe  Fe19  1  0.83410260  0.16592402  0.16533118  1
  Fe  Fe20  1  0.66580022  -0.00005600  0.33227316  1
  Ni  Ni21  1  0.66886146  0.33225856  0.00254017  1
  Fe  Fe22  1  0.83406339  0.49834873  0.16484392  1
  Cr  Cr23  1  0.66649252  0.33167039  0.33297884  1
  Fe  Fe24  1  0.66595046  0.66705957  0.00196528  1
  Fe  Fe25  1  0.83352777  0.83505709  0.16562179  1
  Cr  Cr26  1  0.67063876  0.66557665  0.33368626  1
  Fe  Fe27  1  0.16717368  0.16686114  0.49999189  1
  Ni  Ni28  1  0.00006356  0.00092496  0.66868720  1
  Fe  Fe29  1  0.16334486  0.16550537  0.83118896  1
  Ni  Ni30  1  0.16437408  0.49586429  0.49831716  1
  Fe  Fe31  1  0.00221196  0.33088009  0.66546881  1
  Ni  Ni32  1  0.16606672  0.49884596  0.83273108  1
  Cr  Cr33  1  0.16620312  0.83417105  0.49859779  1
  Cr  Cr34  1  0.00053613  0.66754495  0.66508984  1
  Ni  Ni35  1  0.16488319  0.83406609  0.83300401  1
  Fe  Fe36  1  0.49716316  0.16588210  0.50121586  1
  Ni  Ni37  1  0.33007069  0.00085754  0.66654223  1
  Cr  Cr38  1  0.50240291  0.16674550  0.83016907  1
  Cr  Cr39  1  0.49717609  0.49866829  0.50452011  1
  Fe  Fe40  1  0.32893294  0.33239420  0.66620086  1
  Cr  Cr41  1  0.49931682  0.50012834  0.83218532  1
  Cr  Cr42  1  0.49995526  0.83621696  0.50264907  1
  Ni  Ni43  1  0.32966908  0.66662212  0.66961283  1
  Cr  Cr44  1  0.50014993  0.83242551  0.83156732  1
  Fe  Fe45  1  0.83479139  0.16597842  0.50143784  1
  Fe  Fe46  1  0.66945859  0.00030047  0.66596557  1
  Fe  Fe47  1  0.83505263  0.16520056  0.83284797  1
  Fe  Fe48  1  0.83547639  0.49829552  0.50097018  1
  Ni  Ni49  1  0.66830627  0.33116744  0.66476410  1
  Cr  Cr50  1  0.83272381  0.49698955  0.83301823  1
  Fe  Fe51  1  0.83429059  0.83483421  0.50083104  1
  Fe  Fe52  1  0.66783370  0.66831837  0.66613968  1
  Ni  Ni53  1  0.83421962  0.83715245  0.83313893  1
" 