1640,Ni20Fe32Cr47_4,-220.194670950252, 172.735966147505,Ni20Fe32Cr47,"# generated using pymatgen
 data_Cr26Fe17Ni11
_symmetry_space_group_name_H-M   'P 1'
_cell_length_a   7.51044888
_cell_length_b   7.51044888
_cell_length_c   10.62137866
_cell_angle_alpha   90.00000000
_cell_angle_beta   90.00000000
_cell_angle_gamma   90.00000000
_symmetry_Int_Tables_number   1
_chemical_formula_structural   Cr26Fe17Ni11
_chemical_formula_sum   'Cr26 Fe17 Ni11'
_cell_volume   599.11843165
_cell_formula_units_Z   1
loop_
 _symmetry_equiv_pos_site_id
 _symmetry_equiv_pos_as_xyz
  1  'x, y, z'
loop_
 _atom_site_type_symbol
 _atom_site_label
 _atom_site_symmetry_multiplicity
 _atom_site_fract_x
 _atom_site_fract_y
 _atom_site_fract_z
 _atom_site_occupancy
  Fe  Fe0  1  0.99640372  0.99618852  -0.00205810  1
  Cr  Cr1  1  0.16323203  0.16143478  0.16438563  1
  Fe  Fe2  1  0.99299503  0.99605666  0.32906651  1
  Fe  Fe3  1  0.99209010  0.33211131  -0.00273934  1
  Cr  Cr4  1  0.16095691  0.49770658  0.16191702  1
  Cr  Cr5  1  0.99589308  0.33017263  0.33045670  1
  Ni  Ni6  1  0.99281880  0.66081291  -0.00187140  1
  Cr  Cr7  1  0.16069281  0.83201175  0.16440433  1
  Fe  Fe8  1  0.99218256  0.66408107  0.32854690  1
  Ni  Ni9  1  0.33031410  -0.00245439  0.99561106  1
  Cr  Cr10  1  0.49842505  0.16451261  0.16580249  1
  Fe  Fe11  1  0.33378724  -0.00185826  0.33080593  1
  Cr  Cr12  1  0.32906375  0.33058419  -0.00144089  1
  Cr  Cr13  1  0.50260692  0.49658682  0.16444269  1
  Fe  Fe14  1  0.33458743  0.32914446  0.33210015  1
  Cr  Cr15  1  0.33124831  0.66466051  0.99353030  1
  Cr  Cr16  1  0.49899640  0.83028402  0.16188801  1
  Cr  Cr17  1  0.33160042  0.66129283  0.33138627  1
  Cr  Cr18  1  0.66542118  0.99705433  0.99669943  1
  Ni  Ni19  1  0.83066627  0.16487571  0.16265736  1
  Ni  Ni20  1  0.66524443  -0.00193259  0.33049600  1
  Fe  Fe21  1  0.66869900  0.33280792  -0.00239454  1
  Ni  Ni22  1  0.82929248  0.49793596  0.16348130  1
  Fe  Fe23  1  0.66417031  0.33067123  0.33068372  1
  Ni  Ni24  1  0.66878535  0.66307427  0.99701693  1
  Fe  Fe25  1  0.82982730  0.82898533  0.16460000  1
  Ni  Ni26  1  0.66642294  0.66392564  0.33032205  1
  Cr  Cr27  1  0.16627517  0.16246736  0.49559326  1
  Cr  Cr28  1  0.99430768  -0.00010555  0.66402386  1
  Cr  Cr29  1  0.16180437  0.16433852  0.83152418  1
  Cr  Cr30  1  0.16167711  0.49693457  0.49698550  1
  Fe  Fe31  1  0.99367216  0.33276943  0.66528337  1
  Fe  Fe32  1  0.16006087  0.49724698  0.83151310  1
  Cr  Cr33  1  0.16258612  0.83180492  0.49503397  1
  Cr  Cr34  1  0.99541192  0.66081878  0.66259729  1
  Cr  Cr35  1  0.16519069  0.83134393  0.83163958  1
  Ni  Ni36  1  0.49828899  0.16517293  0.49571968  1
  Fe  Fe37  1  0.33385388  0.99655216  0.66441125  1
  Cr  Cr38  1  0.49823931  0.16172601  0.82984494  1
  Fe  Fe39  1  0.50150291  0.49551765  0.49646445  1
  Cr  Cr40  1  0.33016513  0.33079868  0.66127909  1
  Cr  Cr41  1  0.50266688  0.49917918  0.83208892  1
  Cr  Cr42  1  0.49934888  0.83177077  0.49969943  1
  Cr  Cr43  1  0.33282971  0.66353690  0.66660670  1
  Ni  Ni44  1  0.49854543  0.83084664  0.82926122  1
  Cr  Cr45  1  0.82719717  0.16523353  0.49977226  1
  Fe  Fe46  1  0.66095343  0.99644151  0.66382327  1
  Fe  Fe47  1  0.82953250  0.16644496  0.83092365  1
  Fe  Fe48  1  0.82592392  0.49730489  0.49696488  1
  Fe  Fe49  1  0.66553165  0.33245292  0.66344893  1
  Ni  Ni50  1  0.83113885  0.49545781  0.83054598  1
  Cr  Cr51  1  0.82914797  0.82757306  0.49435787  1
  Ni  Ni52  1  0.66386328  0.66240588  0.66388773  1
  Cr  Cr53  1  0.82783292  0.82721162  0.83088197  1
" 