664,Ni20Fe80_6,-242.538941728776, 205.095309952911,Ni20Fe80,"# generated using pymatgen
 data_Fe5Ni22
_symmetry_space_group_name_H-M   'P 1'
_cell_length_a   7.42650190
_cell_length_b   7.42650190
_cell_length_c   10.50265970
_cell_angle_alpha   90.00000000
_cell_angle_beta   90.00000000
_cell_angle_gamma   90.00000000
_symmetry_Int_Tables_number   1
_chemical_formula_structural   Fe5Ni22
_chemical_formula_sum   'Fe10 Ni44'
_cell_volume   579.25245953
_cell_formula_units_Z   2
loop_
 _symmetry_equiv_pos_site_id
 _symmetry_equiv_pos_as_xyz
  1  'x, y, z'
loop_
 _atom_site_type_symbol
 _atom_site_label
 _atom_site_symmetry_multiplicity
 _atom_site_fract_x
 _atom_site_fract_y
 _atom_site_fract_z
 _atom_site_occupancy
  Ni  Ni0  1  0.00322050  1.00262964  1.00176027  1
  Fe  Fe1  1  0.16951885  0.16939408  0.16886379  1
  Ni  Ni2  1  0.00306171  1.00246951  0.33704215  1
  Ni  Ni3  1  0.00294053  0.33638441  1.00269370  1
  Ni  Ni4  1  0.17020908  0.50326205  0.16918991  1
  Ni  Ni5  1  1.00272497  0.33665548  0.33614908  1
  Ni  Ni6  1  0.00297560  0.66917727  0.00273431  1
  Ni  Ni7  1  0.16985798  0.83526170  0.16886373  1
  Ni  Ni8  1  0.00280876  0.66906294  0.33622523  1
  Ni  Ni9  1  0.33595468  1.00263465  0.00306630  1
  Ni  Ni10  1  0.50378955  0.16967272  0.16919067  1
  Ni  Ni11  1  0.33622986  1.00241744  0.33577609  1
  Ni  Ni12  1  0.33563881  0.33577329  1.00224011  1
  Ni  Ni13  1  0.50188814  0.50202850  0.16927468  1
  Ni  Ni14  1  0.33590317  0.33603951  0.33667191  1
  Ni  Ni15  1  0.33559878  0.66978034  1.00227329  1
  Ni  Ni16  1  0.50222640  0.83648862  0.16894970  1
  Ni  Ni17  1  0.33586678  0.66972729  0.33671483  1
  Ni  Ni18  1  0.66900680  1.00267036  1.00252179  1
  Ni  Ni19  1  0.83486821  0.16932160  0.16886392  1
  Ni  Ni20  1  0.66889731  1.00250780  0.33643236  1
  Ni  Ni21  1  0.66961612  0.33601862  1.00255028  1
  Ni  Ni22  1  0.83609261  0.50170078  0.16894893  1
  Ni  Ni23  1  0.66955984  0.33629064  0.33643436  1
  Ni  Ni24  1  0.66962383  0.66950314  1.00262974  1
  Ni  Ni25  1  0.83610458  0.83716634  0.16951499  1
  Ni  Ni26  1  0.66951376  0.66938876  0.33647489  1
  Fe  Fe27  1  0.16897415  0.16939461  0.50286348  1
  Fe  Fe28  1  1.00131437  1.00252686  0.66980718  1
  Ni  Ni29  1  0.16903159  0.16989842  0.83637622  1
  Ni  Ni30  1  0.17027521  0.50302284  0.50293795  1
  Ni  Ni31  1  1.00251217  0.33734945  0.66934591  1
  Ni  Ni32  1  0.17053851  0.50259233  0.83606062  1
  Ni  Ni33  1  0.17003801  0.83550074  0.50327505  1
  Ni  Ni34  1  1.00254295  0.66826591  0.66922897  1
  Ni  Ni35  1  0.16936552  0.83569992  0.83605087  1
  Fe  Fe36  1  0.50341467  0.16905425  0.50212330  1
  Ni  Ni37  1  0.33651204  1.00254019  0.66934348  1
  Fe  Fe38  1  0.50226616  0.16852270  0.83673714  1
  Ni  Ni39  1  0.50211772  0.50269657  0.50259794  1
  Fe  Fe40  1  0.33612878  0.33665627  0.66953365  1
  Fe  Fe41  1  0.50275328  0.50266669  0.83654017  1
  Ni  Ni42  1  0.50239048  0.83586531  0.50289370  1
  Fe  Fe43  1  0.33612834  0.66934392  0.66885642  1
  Fe  Fe44  1  0.50240096  0.83699986  0.83613545  1
  Ni  Ni45  1  0.83542728  0.16938206  0.50305164  1
  Ni  Ni46  1  0.66793919  1.00257497  0.66923245  1
  Ni  Ni47  1  0.83561908  0.16871710  0.83627685  1
  Ni  Ni48  1  0.83580343  0.50146756  0.50325786  1
  Ni  Ni49  1  0.67038929  0.33611616  0.66920386  1
  Fe  Fe50  1  0.83776206  0.50273706  0.83586723  1
  Ni  Ni51  1  0.83575533  0.83734049  0.50272693  1
  Ni  Ni52  1  0.67036019  0.66949955  0.66908326  1
  Ni  Ni53  1  0.83595121  0.83754994  0.83595055  1
" 