738,Ni20Fe56Cr23_9,-226.815473999832, 181.810714816555,Ni20Fe56Cr23,"# generated using pymatgen
 data_Cr7(Fe3Ni)5
_symmetry_space_group_name_H-M   'P 1'
_cell_length_a   7.45922638
_cell_length_b   7.45922638
_cell_length_c   10.54893911
_cell_angle_alpha   90.00000000
_cell_angle_beta   90.00000000
_cell_angle_gamma   90.00000000
_symmetry_Int_Tables_number   1
_chemical_formula_structural   Cr7(Fe3Ni)5
_chemical_formula_sum   'Cr14 Fe30 Ni10'
_cell_volume   586.94358577
_cell_formula_units_Z   2
loop_
 _symmetry_equiv_pos_site_id
 _symmetry_equiv_pos_as_xyz
  1  'x, y, z'
loop_
 _atom_site_type_symbol
 _atom_site_label
 _atom_site_symmetry_multiplicity
 _atom_site_fract_x
 _atom_site_fract_y
 _atom_site_fract_z
 _atom_site_occupancy
  Fe  Fe0  1  0.00248941  0.99853559  0.99868046  1
  Cr  Cr1  1  0.16820111  0.16615804  0.16565193  1
  Cr  Cr2  1  1.00042623  0.99853524  0.33436346  1
  Cr  Cr3  1  1.00049127  0.33360662  0.99944722  1
  Fe  Fe4  1  0.16752563  0.50218877  0.17007307  1
  Ni  Ni5  1  0.99924814  0.33659101  0.33403429  1
  Cr  Cr6  1  0.00065438  0.66879176  0.00309180  1
  Ni  Ni7  1  0.16923726  0.83276951  0.16772953  1
  Fe  Fe8  1  0.00150036  0.66643947  0.33376870  1
  Ni  Ni9  1  0.33398869  0.99682269  0.00121036  1
  Fe  Fe10  1  0.49958396  0.16491299  0.16890404  1
  Fe  Fe11  1  0.33482213  0.99912814  0.33293803  1
  Cr  Cr12  1  0.33521525  0.33507396  1.00040696  1
  Fe  Fe13  1  0.49996010  0.50280236  0.17025395  1
  Fe  Fe14  1  0.33443409  0.33638954  0.33422692  1
  Fe  Fe15  1  0.33644834  0.66921291  0.00236462  1
  Fe  Fe16  1  0.49897691  0.83342006  0.16894532  1
  Ni  Ni17  1  0.33440191  0.66719192  0.33359312  1
  Cr  Cr18  1  0.66647505  0.99798357  0.99976334  1
  Cr  Cr19  1  0.83361597  0.16775796  0.16735289  1
  Fe  Fe20  1  0.66611062  0.99982155  0.33400786  1
  Cr  Cr21  1  0.66584615  0.33610244  0.00066464  1
  Fe  Fe22  1  0.83386928  0.50321707  0.16979255  1
  Fe  Fe23  1  0.66568779  0.33563703  0.33565856  1
  Fe  Fe24  1  0.66367503  0.66830127  0.00070467  1
  Fe  Fe25  1  0.83341332  0.83211870  0.16942659  1
  Fe  Fe26  1  0.66785771  0.66606805  0.33542402  1
  Cr  Cr27  1  0.16876148  0.16722683  0.50074230  1
  Ni  Ni28  1  0.00142860  0.99834138  0.66889048  1
  Fe  Fe29  1  0.16730502  0.16280352  0.83322080  1
  Fe  Fe30  1  0.16809161  0.50375061  0.49916719  1
  Cr  Cr31  1  0.99899212  0.33323428  0.66626384  1
  Cr  Cr32  1  0.16960045  0.50223051  0.83191953  1
  Fe  Fe33  1  0.16717602  0.83136230  0.50087378  1
  Fe  Fe34  1  0.99936873  0.67034735  0.66576757  1
  Fe  Fe35  1  0.16884473  0.83586737  0.83424794  1
  Fe  Fe36  1  0.50258206  0.16766412  0.50176927  1
  Ni  Ni37  1  0.33252674  0.99795000  0.66631979  1
  Cr  Cr38  1  0.49948534  0.16623235  0.83041914  1
  Ni  Ni39  1  0.50050114  0.50034898  0.50239552  1
  Fe  Fe40  1  0.33613377  0.33401935  0.66565994  1
  Fe  Fe41  1  0.50035885  0.50319017  0.83089484  1
  Cr  Cr42  1  0.50160580  0.83353424  0.50098285  1
  Fe  Fe43  1  0.33438969  0.66738712  0.66543096  1
  Fe  Fe44  1  0.49864931  0.83123888  0.83224688  1
  Fe  Fe45  1  0.83112399  0.16636815  0.50037826  1
  Fe  Fe46  1  0.66965194  1.00010751  0.66659851  1
  Fe  Fe47  1  0.83403268  0.16493734  0.83226980  1
  Fe  Fe48  1  0.83176010  0.50228308  0.50062709  1
  Ni  Ni49  1  0.66634296  0.33546323  0.66513498  1
  Cr  Cr50  1  0.83171338  0.50283149  0.83295767  1
  Ni  Ni51  1  0.83411963  0.83254168  0.50183766  1
  Ni  Ni52  1  0.66600324  0.66695677  0.66766601  1
  Fe  Fe53  1  0.83360488  0.83451351  0.83114887  1
" 