6415,Ni20Fe32Cr47_14,-220.930788979013, 183.417758415017,Ni20Fe32Cr47,"# generated using pymatgen
 data_Cr26Fe17Ni11
_symmetry_space_group_name_H-M   'P 1'
_cell_length_a   7.50691556
_cell_length_b   7.50691556
_cell_length_c   10.61638179
_cell_angle_alpha   90.00000000
_cell_angle_beta   90.00000000
_cell_angle_gamma   90.00000000
_symmetry_Int_Tables_number   1
_chemical_formula_structural   Cr26Fe17Ni11
_chemical_formula_sum   'Cr26 Fe17 Ni11'
_cell_volume   598.27325613
_cell_formula_units_Z   1
loop_
 _symmetry_equiv_pos_site_id
 _symmetry_equiv_pos_as_xyz
  1  'x, y, z'
loop_
 _atom_site_type_symbol
 _atom_site_label
 _atom_site_symmetry_multiplicity
 _atom_site_fract_x
 _atom_site_fract_y
 _atom_site_fract_z
 _atom_site_occupancy
  Cr  Cr0  1  -0.00058601  0.99615942  -0.00085378  1
  Cr  Cr1  1  0.16628103  0.16339185  0.16391931  1
  Fe  Fe2  1  0.00008516  0.99505857  0.32948951  1
  Ni  Ni3  1  -0.00232068  0.33264864  -0.00224094  1
  Ni  Ni4  1  0.16527727  0.49979676  0.16260244  1
  Cr  Cr5  1  0.99522140  0.33142152  0.32828195  1
  Ni  Ni6  1  0.99678748  0.66406316  0.99673957  1
  Ni  Ni7  1  0.16569837  0.82908094  0.16607244  1
  Cr  Cr8  1  -0.00166509  0.66362967  0.32968410  1
  Cr  Cr9  1  0.33219916  0.99583472  0.99303800  1
  Cr  Cr10  1  0.49585775  0.16070736  0.16252933  1
  Ni  Ni11  1  0.33327156  0.99482350  0.33237170  1
  Cr  Cr12  1  0.32872967  0.33171402  0.99534384  1
  Fe  Fe13  1  0.49572491  0.49967018  0.16458770  1
  Fe  Fe14  1  0.33172251  0.32998462  0.32953158  1
  Cr  Cr15  1  0.33008211  0.66477431  -0.00164631  1
  Fe  Fe16  1  0.49451012  0.82875575  0.16475029  1
  Fe  Fe17  1  0.33167222  0.66569441  0.32865617  1
  Fe  Fe18  1  0.66365118  0.99467887  0.99485126  1
  Cr  Cr19  1  0.83009349  0.16259278  0.16337834  1
  Cr  Cr20  1  0.66426515  -0.00234762  0.33120339  1
  Cr  Cr21  1  0.66237414  0.33137874  0.99601594  1
  Cr  Cr22  1  0.82919438  0.49915688  0.16034775  1
  Fe  Fe23  1  0.66117074  0.33044131  0.33056127  1
  Ni  Ni24  1  0.66279529  0.66596649  0.99690545  1
  Cr  Cr25  1  0.82766958  0.82956388  0.15947006  1
  Fe  Fe26  1  0.66196962  0.66487062  0.32914813  1
  Cr  Cr27  1  0.16492737  0.16190293  0.49625073  1
  Fe  Fe28  1  -0.00069041  0.99603940  0.66578383  1
  Ni  Ni29  1  0.16210815  0.16194326  0.83134125  1
  Cr  Cr30  1  0.16458944  0.49784859  0.49955381  1
  Fe  Fe31  1  0.99718159  0.32678148  0.66513813  1
  Cr  Cr32  1  0.16255240  0.49646821  0.83029231  1
  Fe  Fe33  1  0.16802076  0.83156446  0.49506949  1
  Fe  Fe34  1  -0.00120348  0.66850603  0.66570828  1
  Fe  Fe35  1  0.16244218  0.82964070  0.83169116  1
  Ni  Ni36  1  0.49709827  0.16263834  0.49783876  1
  Cr  Cr37  1  0.33178456  0.99545482  0.66683265  1
  Fe  Fe38  1  0.49746213  0.16530864  0.83094706  1
  Cr  Cr39  1  0.49668196  0.49772533  0.49482603  1
  Cr  Cr40  1  0.33258032  0.32949650  0.66814883  1
  Ni  Ni41  1  0.49872211  0.50187356  0.83148539  1
  Ni  Ni42  1  0.49741952  0.83269561  0.49388995  1
  Cr  Cr43  1  0.33149896  0.66768710  0.66429776  1
  Ni  Ni44  1  0.50024371  0.83033032  0.83396755  1
  Fe  Fe45  1  0.82838981  0.16455654  0.49831711  1
  Cr  Cr46  1  0.66281651  -0.00222617  0.66594410  1
  Cr  Cr47  1  0.83252270  0.16284148  0.83196104  1
  Cr  Cr48  1  0.82957918  0.49703481  0.50133185  1
  Fe  Fe49  1  0.66176991  0.32986169  0.66521969  1
  Cr  Cr50  1  0.83076713  0.49990032  0.82989572  1
  Cr  Cr51  1  0.83250244  0.83142904  0.49855388  1
  Cr  Cr52  1  0.66204673  0.66607366  0.66464271  1
  Fe  Fe53  1  0.83106116  0.82971958  0.83294008  1
" 