918,Ni20Fe80_8,-242.882486411463, 207.690051353333,Ni20Fe80,"# generated using pymatgen
 data_Fe5Ni22
_symmetry_space_group_name_H-M   'P 1'
_cell_length_a   7.42571652
_cell_length_b   7.42571652
_cell_length_c   10.50154901
_cell_angle_alpha   90.00000000
_cell_angle_beta   90.00000000
_cell_angle_gamma   90.00000000
_symmetry_Int_Tables_number   1
_chemical_formula_structural   Fe5Ni22
_chemical_formula_sum   'Fe10 Ni44'
_cell_volume   579.06870568
_cell_formula_units_Z   2
loop_
 _symmetry_equiv_pos_site_id
 _symmetry_equiv_pos_as_xyz
  1  'x, y, z'
loop_
 _atom_site_type_symbol
 _atom_site_label
 _atom_site_symmetry_multiplicity
 _atom_site_fract_x
 _atom_site_fract_y
 _atom_site_fract_z
 _atom_site_occupancy
  Ni  Ni0  1  1.00194139  1.00199866  1.00240045  1
  Ni  Ni1  1  0.17072780  0.16950451  0.16934388  1
  Ni  Ni2  1  1.00229152  1.00150791  0.33616426  1
  Ni  Ni3  1  1.00194389  0.33690368  0.00304530  1
  Ni  Ni4  1  0.16930378  0.50201081  0.16919655  1
  Fe  Fe5  1  0.00309489  0.33685192  0.33580286  1
  Ni  Ni6  1  0.00332752  0.66945087  1.00272262  1
  Fe  Fe7  1  0.16938245  0.83562693  0.16938804  1
  Ni  Ni8  1  0.00286406  0.66996546  0.33620552  1
  Ni  Ni9  1  0.33671661  1.00236893  1.00269413  1
  Ni  Ni10  1  0.50141368  0.16984082  0.16915115  1
  Ni  Ni11  1  0.33623371  1.00274606  0.33620310  1
  Ni  Ni12  1  0.33704930  0.33686615  1.00249533  1
  Ni  Ni13  1  0.50251018  0.50134141  0.16978421  1
  Ni  Ni14  1  0.33735366  0.33679971  0.33613880  1
  Ni  Ni15  1  0.33529821  0.66910505  0.00305267  1
  Fe  Fe16  1  0.50255597  0.83586900  0.16970538  1
  Ni  Ni17  1  0.33559624  0.66879385  0.33624784  1
  Ni  Ni18  1  0.66968968  0.00375245  0.00289152  1
  Fe  Fe19  1  0.83592932  0.17017971  0.16865896  1
  Ni  Ni20  1  0.66982125  0.00326640  0.33620177  1
  Ni  Ni21  1  0.66935193  0.33548474  1.00275596  1
  Ni  Ni22  1  0.83653706  0.50395706  0.16945459  1
  Ni  Ni23  1  0.66866158  0.33623255  0.33610853  1
  Fe  Fe24  1  0.66975137  0.66920586  0.00307648  1
  Ni  Ni25  1  0.83687854  0.83573049  0.16918699  1
  Ni  Ni26  1  0.66988979  0.66885317  0.33627849  1
  Fe  Fe27  1  0.17013008  0.16920422  0.50248879  1
  Ni  Ni28  1  1.00195168  1.00175706  0.66978773  1
  Fe  Fe29  1  0.16932447  0.16890052  0.83666358  1
  Ni  Ni30  1  0.16908647  0.50303389  0.50279153  1
  Ni  Ni31  1  1.00189907  0.33699318  0.66923625  1
  Fe  Fe32  1  0.16944842  0.50340367  0.83611567  1
  Ni  Ni33  1  0.16874887  0.83620091  0.50202366  1
  Ni  Ni34  1  0.00337622  0.66960228  0.66941519  1
  Ni  Ni35  1  0.16891514  0.83665506  0.83657851  1
  Ni  Ni36  1  0.50223738  0.16945446  0.50283770  1
  Ni  Ni37  1  0.33679892  1.00208131  0.66945096  1
  Ni  Ni38  1  0.50258866  0.16971648  0.83635947  1
  Ni  Ni39  1  0.50251127  0.50153835  0.50250395  1
  Ni  Ni40  1  0.33714001  0.33695424  0.66971369  1
  Ni  Ni41  1  0.50282303  0.50161148  0.83606108  1
  Ni  Ni42  1  0.50251084  0.83735679  0.50251152  1
  Ni  Ni43  1  0.33534541  0.66931664  0.66904444  1
  Ni  Ni44  1  0.50199090  0.83702086  0.83627988  1
  Fe  Fe45  1  0.83537010  0.16920538  0.50363566  1
  Ni  Ni46  1  0.66959305  0.00355411  0.66926222  1
  Ni  Ni47  1  0.83595280  0.16942916  0.83665700  1
  Ni  Ni48  1  0.83675465  0.50330064  0.50253289  1
  Ni  Ni49  1  0.66930548  0.33553291  0.66948969  1
  Ni  Ni50  1  0.83632905  0.50249849  0.83635867  1
  Ni  Ni51  1  0.83708946  0.83593304  0.50339966  1
  Fe  Fe52  1  0.66950044  0.66938918  0.66896399  1
  Ni  Ni53  1  0.83744316  0.83642191  0.83576164  1
" 