11,Ni20Fe32Cr47_11,-220.77253205972, 173.971110062807,Ni20Fe32Cr47,"# generated using pymatgen
 data_Cr26Fe17Ni11
_symmetry_space_group_name_H-M   'P 1'
_cell_length_a   7.51463366
_cell_length_b   7.51463366
_cell_length_c   10.62729683
_cell_angle_alpha   90.00000000
_cell_angle_beta   90.00000000
_cell_angle_gamma   90.00000000
_symmetry_Int_Tables_number   1
_chemical_formula_structural   Cr26Fe17Ni11
_chemical_formula_sum   'Cr26 Fe17 Ni11'
_cell_volume   600.12046581
_cell_formula_units_Z   1
loop_
 _symmetry_equiv_pos_site_id
 _symmetry_equiv_pos_as_xyz
  1  'x, y, z'
loop_
 _atom_site_type_symbol
 _atom_site_label
 _atom_site_symmetry_multiplicity
 _atom_site_fract_x
 _atom_site_fract_y
 _atom_site_fract_z
 _atom_site_occupancy
  Cr  Cr0  1  -0.00289312  0.99661063  -0.00162466  1
  Fe  Fe1  1  0.16325897  0.16381178  0.16518469  1
  Ni  Ni2  1  -0.00305575  -0.00076204  0.32972752  1
  Ni  Ni3  1  -0.00130163  0.32981639  0.00022370  1
  Cr  Cr4  1  0.16312712  0.49574457  0.16290858  1
  Fe  Fe5  1  -0.00162967  0.32750288  0.32848443  1
  Ni  Ni6  1  0.99575786  0.66135876  0.99585462  1
  Cr  Cr7  1  0.16542885  0.82981786  0.16506178  1
  Cr  Cr8  1  0.99461134  0.66409212  0.33147625  1
  Cr  Cr9  1  0.33091465  -0.00026324  0.99467789  1
  Fe  Fe10  1  0.49632363  0.16227822  0.16479381  1
  Cr  Cr11  1  0.32871974  -0.00047797  0.33065017  1
  Fe  Fe12  1  0.32767110  0.32861932  -0.00288884  1
  Fe  Fe13  1  0.49492906  0.49710385  0.16497320  1
  Fe  Fe14  1  0.32765583  0.33025326  0.33161612  1
  Cr  Cr15  1  0.33120366  0.66538304  -0.00113610  1
  Ni  Ni16  1  0.49952923  0.83307878  0.16431776  1
  Fe  Fe17  1  0.33091199  0.66207635  0.32889312  1
  Ni  Ni18  1  0.66214887  -0.00277402  -0.00020354  1
  Fe  Fe19  1  0.83071450  0.16170824  0.16424342  1
  Fe  Fe20  1  0.66572552  0.99622029  0.32844856  1
  Cr  Cr21  1  0.66321532  0.32911039  -0.00065465  1
  Fe  Fe22  1  0.83192430  0.49687573  0.16233442  1
  Cr  Cr23  1  0.66304565  0.33053705  0.33024957  1
  Cr  Cr24  1  0.66582692  0.66612340  -0.00026047  1
  Fe  Fe25  1  0.83115480  0.83282554  0.16470160  1
  Cr  Cr26  1  0.66346619  0.66306604  0.32844548  1
  Ni  Ni27  1  0.16247990  0.16436330  0.49429499  1
  Ni  Ni28  1  -0.00204523  0.99618855  0.66192590  1
  Fe  Fe29  1  0.16169981  0.16580292  0.83088857  1
  Fe  Fe30  1  0.16513162  0.49467038  0.49348092  1
  Cr  Cr31  1  0.00093639  0.32883675  0.66122079  1
  Fe  Fe32  1  0.16352680  0.49509629  0.83298778  1
  Cr  Cr33  1  0.16229727  0.83108501  0.49560847  1
  Fe  Fe34  1  0.99668952  0.66570735  0.66362768  1
  Cr  Cr35  1  0.16254762  0.82799116  0.82916264  1
  Ni  Ni36  1  0.49413973  0.16567535  0.49539584  1
  Cr  Cr37  1  0.32768045  -0.00017550  0.66536145  1
  Fe  Fe38  1  0.49796299  0.16233672  0.83114175  1
  Ni  Ni39  1  0.49280895  0.49479322  0.49248378  1
  Cr  Cr40  1  0.32970235  0.32838619  0.66259413  1
  Cr  Cr41  1  0.49587254  0.49669985  0.83202331  1
  Cr  Cr42  1  0.49711050  0.83095168  0.49437967  1
  Cr  Cr43  1  0.33034504  0.66139293  0.66047344  1
  Ni  Ni44  1  0.49746109  0.83212081  0.83233997  1
  Cr  Cr45  1  0.83038100  0.16054532  0.49497664  1
  Cr  Cr46  1  0.66280829  0.99589421  0.66315489  1
  Cr  Cr47  1  0.83013599  0.16346359  0.82986564  1
  Cr  Cr48  1  0.83068879  0.49569053  0.49852573  1
  Cr  Cr49  1  0.66003293  0.33057530  0.66043054  1
  Cr  Cr50  1  0.83350498  0.49456557  0.83122838  1
  Ni  Ni51  1  0.83329303  0.83193834  0.49721496  1
  Cr  Cr52  1  0.66427803  0.66339312  0.66309063  1
  Fe  Fe53  1  0.82916852  0.83129766  0.83064687  1
" 