4089,Ni20Fe80_2,-242.723742024899, 206.675482688972,Ni20Fe80,"# generated using pymatgen
 data_Fe5Ni22
_symmetry_space_group_name_H-M   'P 1'
_cell_length_a   7.42442510
_cell_length_b   7.42442510
_cell_length_c   10.49972267
_cell_angle_alpha   90.00000000
_cell_angle_beta   90.00000000
_cell_angle_gamma   90.00000000
_symmetry_Int_Tables_number   1
_chemical_formula_structural   Fe5Ni22
_chemical_formula_sum   'Fe10 Ni44'
_cell_volume   578.76663694
_cell_formula_units_Z   2
loop_
 _symmetry_equiv_pos_site_id
 _symmetry_equiv_pos_as_xyz
  1  'x, y, z'
loop_
 _atom_site_type_symbol
 _atom_site_label
 _atom_site_symmetry_multiplicity
 _atom_site_fract_x
 _atom_site_fract_y
 _atom_site_fract_z
 _atom_site_occupancy
  Ni  Ni0  1  0.00383974  0.00288968  1.00204773  1
  Ni  Ni1  1  0.16984702  0.16978341  0.16896081  1
  Ni  Ni2  1  0.00377439  0.00319473  0.33682736  1
  Ni  Ni3  1  1.00223235  0.33639770  1.00240450  1
  Ni  Ni4  1  0.16962672  0.50218906  0.16956133  1
  Fe  Fe5  1  0.00319377  0.33559182  0.33557956  1
  Ni  Ni6  1  0.00353910  0.66922395  0.00366699  1
  Ni  Ni7  1  0.16992229  0.83660001  0.17006057  1
  Fe  Fe8  1  1.00245128  0.67016230  0.33600224  1
  Ni  Ni9  1  0.33544399  1.00213785  0.00345067  1
  Fe  Fe10  1  0.50272937  0.16925176  0.17014607  1
  Ni  Ni11  1  0.33470788  0.00309120  0.33639557  1
  Fe  Fe12  1  0.33639450  0.33669362  0.00358196  1
  Ni  Ni13  1  0.50297048  0.50326715  0.16971260  1
  Ni  Ni14  1  0.33631870  0.33648859  0.33614005  1
  Ni  Ni15  1  0.33597731  0.66973926  1.00251777  1
  Ni  Ni16  1  0.50321747  0.83622407  0.16943576  1
  Ni  Ni17  1  0.33608751  0.66911678  0.33694057  1
  Ni  Ni18  1  0.66933298  0.00348215  1.00265850  1
  Fe  Fe19  1  0.83681419  0.16901076  0.16912898  1
  Ni  Ni20  1  0.67025695  0.00309243  0.33665830  1
  Ni  Ni21  1  0.66999529  0.33707102  0.00311324  1
  Ni  Ni22  1  0.83596150  0.50283675  0.16911001  1
  Ni  Ni23  1  0.66944464  0.33714068  0.33626066  1
  Ni  Ni24  1  0.66912538  0.66816164  1.00196640  1
  Ni  Ni25  1  0.83539125  0.83606873  0.16909579  1
  Ni  Ni26  1  0.66911858  0.66846962  0.33658136  1
  Ni  Ni27  1  0.16981040  0.17029611  0.50357803  1
  Ni  Ni28  1  0.00398453  1.00210372  0.66977585  1
  Fe  Fe29  1  0.16962344  0.16889061  0.83660500  1
  Ni  Ni30  1  0.16868111  0.50229081  0.50224692  1
  Fe  Fe31  1  1.00119680  0.33576354  0.67002004  1
  Ni  Ni32  1  0.16932796  0.50286457  0.83686876  1
  Ni  Ni33  1  0.16999833  0.83605960  0.50206866  1
  Ni  Ni34  1  0.00332230  0.66948504  0.66927755  1
  Ni  Ni35  1  0.16964169  0.83546186  0.83673515  1
  Ni  Ni36  1  0.50284499  0.16876575  0.50166148  1
  Ni  Ni37  1  0.33523755  0.00359670  0.66900253  1
  Ni  Ni38  1  0.50327509  0.16941569  0.83709945  1
  Fe  Fe39  1  0.50331288  0.50293673  0.50233198  1
  Fe  Fe40  1  0.33677895  0.33591157  0.66885986  1
  Ni  Ni41  1  0.50249173  0.50192704  0.83589374  1
  Ni  Ni42  1  0.50323107  0.83760912  0.50293221  1
  Fe  Fe43  1  0.33654740  0.67123818  0.66984270  1
  Ni  Ni44  1  0.50296945  0.83734854  0.83638705  1
  Ni  Ni45  1  0.83585675  0.16994055  0.50234500  1
  Ni  Ni46  1  0.66932328  0.00389349  0.66921802  1
  Ni  Ni47  1  0.83495035  0.16962865  0.83633559  1
  Ni  Ni48  1  0.83716968  0.50234453  0.50268702  1
  Ni  Ni49  1  0.66892182  0.33676431  0.66899292  1
  Ni  Ni50  1  0.83671219  0.50241565  0.83672982  1
  Ni  Ni51  1  0.83547386  0.83624365  0.50321660  1
  Ni  Ni52  1  0.67048833  0.66796069  0.66990529  1
  Ni  Ni53  1  0.83611636  0.83646954  0.83638041  1
" 