8046,Ni20Fe80_5,-242.816740042055, 206.700340166084,Ni20Fe80,"# generated using pymatgen
 data_Fe5Ni22
_symmetry_space_group_name_H-M   'P 1'
_cell_length_a   7.42509656
_cell_length_b   7.42509656
_cell_length_c   10.50067226
_cell_angle_alpha   90.00000000
_cell_angle_beta   90.00000000
_cell_angle_gamma   90.00000000
_symmetry_Int_Tables_number   1
_chemical_formula_structural   Fe5Ni22
_chemical_formula_sum   'Fe10 Ni44'
_cell_volume   578.92368201
_cell_formula_units_Z   2
loop_
 _symmetry_equiv_pos_site_id
 _symmetry_equiv_pos_as_xyz
  1  'x, y, z'
loop_
 _atom_site_type_symbol
 _atom_site_label
 _atom_site_symmetry_multiplicity
 _atom_site_fract_x
 _atom_site_fract_y
 _atom_site_fract_z
 _atom_site_occupancy
  Fe  Fe0  1  1.00230195  1.00201633  0.00303536  1
  Ni  Ni1  1  0.16997581  0.16885900  0.16857833  1
  Ni  Ni2  1  0.00509126  0.00392006  0.33505121  1
  Ni  Ni3  1  0.00345391  0.33714529  0.00355880  1
  Ni  Ni4  1  0.16987371  0.50361212  0.17016433  1
  Ni  Ni5  1  1.00183446  0.33575253  0.33540077  1
  Ni  Ni6  1  1.00148703  0.66754053  1.00244160  1
  Ni  Ni7  1  0.16874836  0.83594252  0.16923912  1
  Ni  Ni8  1  1.00251216  0.66884333  0.33750198  1
  Ni  Ni9  1  0.33708573  0.00371443  1.00237604  1
  Ni  Ni10  1  0.50281270  0.17011138  0.17076470  1
  Ni  Ni11  1  0.33564329  1.00254854  0.33632087  1
  Ni  Ni12  1  0.33469485  0.33444141  1.00263194  1
  Ni  Ni13  1  0.50252325  0.50196626  0.16821005  1
  Fe  Fe14  1  0.33522349  0.33728289  0.33508314  1
  Fe  Fe15  1  0.33545249  0.66899541  1.00251060  1
  Fe  Fe16  1  0.50300238  0.83627334  0.16937747  1
  Ni  Ni17  1  0.33691964  0.67128218  0.33449774  1
  Ni  Ni18  1  0.66745469  1.00167722  0.00340186  1
  Ni  Ni19  1  0.83562430  0.16888298  0.16891982  1
  Fe  Fe20  1  0.67112290  1.00194427  0.33603543  1
  Fe  Fe21  1  0.66901778  0.33576255  0.00292045  1
  Ni  Ni22  1  0.83580575  0.50323024  0.16944963  1
  Ni  Ni23  1  0.67070921  0.33731901  0.33521546  1
  Ni  Ni24  1  0.67026450  0.67005651  1.00253086  1
  Ni  Ni25  1  0.83737286  0.83603336  0.17002247  1
  Ni  Ni26  1  0.66907463  0.66793362  0.33619069  1
  Ni  Ni27  1  0.16909589  0.16937900  0.50318356  1
  Ni  Ni28  1  0.00365642  0.00508338  0.67077024  1
  Fe  Fe29  1  0.16937814  0.16982332  0.83633447  1
  Ni  Ni30  1  0.17083734  0.50289513  0.50248431  1
  Ni  Ni31  1  1.00223651  0.33602295  0.66942681  1
  Ni  Ni32  1  0.16983619  0.50355599  0.83570151  1
  Ni  Ni33  1  0.16983785  0.83652453  0.50301679  1
  Fe  Fe34  1  1.00223743  0.67029990  0.66938581  1
  Ni  Ni35  1  0.16948488  0.83586946  0.83629909  1
  Fe  Fe36  1  0.50320220  0.16964272  0.50293888  1
  Ni  Ni37  1  0.33600641  1.00137757  0.66982686  1
  Ni  Ni38  1  0.50390692  0.16922258  0.83499721  1
  Ni  Ni39  1  0.50232448  0.50294922  0.50320191  1
  Fe  Fe40  1  0.33685400  0.33617084  0.67023644  1
  Ni  Ni41  1  0.50238847  0.50223656  0.83688359  1
  Ni  Ni42  1  0.50238108  0.83532092  0.50210817  1
  Ni  Ni43  1  0.33734850  0.67077577  0.67059602  1
  Ni  Ni44  1  0.50272922  0.83675304  0.83696393  1
  Ni  Ni45  1  0.83657644  0.16918509  0.50223434  1
  Ni  Ni46  1  0.66880674  1.00243413  0.66850721  1
  Ni  Ni47  1  0.83489231  0.16881909  0.83737846  1
  Ni  Ni48  1  0.83542168  0.50212159  0.50315972  1
  Ni  Ni49  1  0.67156492  0.33690816  0.67086316  1
  Ni  Ni50  1  0.83615472  0.50231501  0.83620368  1
  Ni  Ni51  1  0.83642946  0.83731013  0.50331292  1
  Ni  Ni52  1  0.66791324  0.66913676  0.66983865  1
  Ni  Ni53  1  0.83596274  0.83732711  0.83526280  1
" 