5543,Ni20Fe56Cr23_0,-227.112009581557, 183.171512941695,Ni20Fe56Cr23,"# generated using pymatgen
 data_Cr7(Fe3Ni)5
_symmetry_space_group_name_H-M   'P 1'
_cell_length_a   7.46386155
_cell_length_b   7.46386155
_cell_length_c   10.55549424
_cell_angle_alpha   90.00000000
_cell_angle_beta   90.00000000
_cell_angle_gamma   90.00000000
_symmetry_Int_Tables_number   1
_chemical_formula_structural   Cr7(Fe3Ni)5
_chemical_formula_sum   'Cr14 Fe30 Ni10'
_cell_volume   588.03844868
_cell_formula_units_Z   2
loop_
 _symmetry_equiv_pos_site_id
 _symmetry_equiv_pos_as_xyz
  1  'x, y, z'
loop_
 _atom_site_type_symbol
 _atom_site_label
 _atom_site_symmetry_multiplicity
 _atom_site_fract_x
 _atom_site_fract_y
 _atom_site_fract_z
 _atom_site_occupancy
  Cr  Cr0  1  0.00302764  0.00302764  0.00085909  1
  Fe  Fe1  1  0.16569199  0.16915301  0.16565324  1
  Cr  Cr2  1  0.00089467  0.00448060  0.33552528  1
  Fe  Fe3  1  0.00102988  0.33748879  1.00011372  1
  Fe  Fe4  1  0.16869118  0.49882733  0.16865791  1
  Cr  Cr5  1  0.99979100  0.33125965  0.33603774  1
  Fe  Fe6  1  0.00109802  0.66501517  0.99702445  1
  Fe  Fe7  1  0.16940656  0.83464353  0.16900642  1
  Fe  Fe8  1  0.00400094  0.66615127  0.33564178  1
  Fe  Fe9  1  0.33538859  1.00007386  0.99779586  1
  Cr  Cr10  1  0.49921240  0.16751301  0.16385136  1
  Fe  Fe11  1  0.33332456  0.00031565  0.33439367  1
  Fe  Fe12  1  0.33230577  0.33328418  0.99816684  1
  Fe  Fe13  1  0.50121006  0.49969612  0.16816653  1
  Fe  Fe14  1  0.33110129  0.33249017  0.33335189  1
  Cr  Cr15  1  0.33302424  0.66561196  0.00126863  1
  Fe  Fe16  1  0.50138721  0.83342729  0.16928964  1
  Fe  Fe17  1  0.33106746  0.66748975  0.33430652  1
  Fe  Fe18  1  0.66459615  0.00042707  0.99812102  1
  Ni  Ni19  1  0.83118124  0.16716688  0.16449974  1
  Fe  Fe20  1  0.66694689  0.00176163  0.33409467  1
  Ni  Ni21  1  0.66628794  0.33466224  0.99908101  1
  Cr  Cr22  1  0.83558991  0.50032634  0.16626785  1
  Fe  Fe23  1  0.66823232  0.33090931  0.33282157  1
  Cr  Cr24  1  0.66379173  0.66593386  0.99551966  1
  Cr  Cr25  1  0.83584759  0.83340221  0.16499618  1
  Fe  Fe26  1  0.66825156  0.66629609  0.33433329  1
  Fe  Fe27  1  0.16539681  0.16943717  0.50409261  1
  Ni  Ni28  1  0.00332959  0.00520487  0.66504887  1
  Fe  Fe29  1  0.16810105  0.16957554  0.83148682  1
  Ni  Ni30  1  0.16666174  0.50366593  0.50189963  1
  Fe  Fe31  1  0.99908777  0.33657118  0.66492999  1
  Fe  Fe32  1  0.16600929  0.49989421  0.83081183  1
  Ni  Ni33  1  0.17012426  0.83420057  0.50164416  1
  Fe  Fe34  1  0.00211186  0.66786360  0.66700884  1
  Fe  Fe35  1  0.16603483  0.83234530  0.82997088  1
  Cr  Cr36  1  0.49819552  0.16512340  0.50373117  1
  Fe  Fe37  1  0.33153078  0.99646798  0.66850105  1
  Fe  Fe38  1  0.49849783  0.16945896  0.83402454  1
  Cr  Cr39  1  0.49923187  0.49636253  0.49779877  1
  Fe  Fe40  1  0.33120422  0.33472666  0.66868894  1
  Ni  Ni41  1  0.49765741  0.49700110  0.83355285  1
  Fe  Fe42  1  0.49916171  0.83087368  0.49923176  1
  Ni  Ni43  1  0.33253303  0.66509434  0.66579007  1
  Fe  Fe44  1  0.49656490  0.83271395  0.83237170  1
  Ni  Ni45  1  0.83080081  0.16860470  0.50162706  1
  Cr  Cr46  1  0.66897655  0.99826278  0.66902566  1
  Cr  Cr47  1  0.83323028  0.16846693  0.83536393  1
  Ni  Ni48  1  0.83481358  0.49857234  0.50130788  1
  Fe  Fe49  1  0.66777111  0.33377822  0.66899848  1
  Ni  Ni50  1  0.83436771  0.50037108  0.83277522  1
  Cr  Cr51  1  0.83774981  0.83196629  0.50147183  1
  Cr  Cr52  1  0.66249309  0.66253097  0.66908125  1
  Fe  Fe53  1  0.83750911  0.83155646  0.83244397  1
" 