1585,Ni20Fe56Cr23_7,-226.811544411353, 181.938020512218,Ni20Fe56Cr23,"# generated using pymatgen
 data_Cr7(Fe3Ni)5
_symmetry_space_group_name_H-M   'P 1'
_cell_length_a   7.46185688
_cell_length_b   7.46185688
_cell_length_c   10.55265920
_cell_angle_alpha   90.00000000
_cell_angle_beta   90.00000000
_cell_angle_gamma   90.00000000
_symmetry_Int_Tables_number   1
_chemical_formula_structural   Cr7(Fe3Ni)5
_chemical_formula_sum   'Cr14 Fe30 Ni10'
_cell_volume   587.56476237
_cell_formula_units_Z   2
loop_
 _symmetry_equiv_pos_site_id
 _symmetry_equiv_pos_as_xyz
  1  'x, y, z'
loop_
 _atom_site_type_symbol
 _atom_site_label
 _atom_site_symmetry_multiplicity
 _atom_site_fract_x
 _atom_site_fract_y
 _atom_site_fract_z
 _atom_site_occupancy
  Fe  Fe0  1  0.99883053  0.99852780  0.99655143  1
  Cr  Cr1  1  0.16720139  0.16519862  0.16390571  1
  Fe  Fe2  1  0.00052786  0.00098159  0.33611221  1
  Cr  Cr3  1  0.00048648  0.33573405  0.00055730  1
  Fe  Fe4  1  0.16813860  0.50286242  0.16624789  1
  Cr  Cr5  1  0.00170804  0.33706956  0.33613805  1
  Fe  Fe6  1  0.99962551  0.66822970  0.99902410  1
  Cr  Cr7  1  0.16391601  0.83282305  0.16725752  1
  Fe  Fe8  1  1.00004371  0.66718036  0.33503441  1
  Cr  Cr9  1  0.33574590  0.99968341  0.99789822  1
  Cr  Cr10  1  0.50143910  0.17069511  0.16786171  1
  Fe  Fe11  1  0.33345412  0.99939689  0.33628114  1
  Ni  Ni12  1  0.33441871  0.33546131  0.99954702  1
  Ni  Ni13  1  0.49998642  0.50179065  0.16434062  1
  Cr  Cr14  1  0.33062361  0.33511087  0.33315664  1
  Fe  Fe15  1  0.33489006  0.66507594  0.00105232  1
  Fe  Fe16  1  0.50133216  0.83288194  0.16985860  1
  Fe  Fe17  1  0.33469217  0.66728701  0.33420683  1
  Cr  Cr18  1  0.66665557  0.99835504  0.99820218  1
  Cr  Cr19  1  0.83251679  0.16319427  0.16768835  1
  Ni  Ni20  1  0.66534168  0.99657959  0.33419711  1
  Ni  Ni21  1  0.66606602  0.33537086  0.99922972  1
  Fe  Fe22  1  0.83196488  0.50165134  0.16755688  1
  Fe  Fe23  1  0.66691062  0.33501389  0.33413260  1
  Cr  Cr24  1  0.66758036  0.66868561  0.99914398  1
  Ni  Ni25  1  0.83515898  0.83156480  0.16731679  1
  Fe  Fe26  1  0.66649394  0.66562616  0.33121980  1
  Ni  Ni27  1  0.16727794  0.16562495  0.50368672  1
  Ni  Ni28  1  0.00096407  0.99982545  0.66799729  1
  Fe  Fe29  1  0.16810181  0.16679834  0.83177106  1
  Ni  Ni30  1  0.16813254  0.50150824  0.50176193  1
  Fe  Fe31  1  0.00043523  0.33288614  0.66532246  1
  Cr  Cr32  1  0.16915597  0.50192649  0.83364117  1
  Fe  Fe33  1  0.16818253  0.83287779  0.50156974  1
  Ni  Ni34  1  0.00128463  0.66554090  0.66618314  1
  Fe  Fe35  1  0.16603168  0.83482088  0.83200572  1
  Fe  Fe36  1  0.49949921  0.16565389  0.50037253  1
  Fe  Fe37  1  0.33095030  1.00021956  0.66796254  1
  Ni  Ni38  1  0.50009589  0.17054557  0.83298370  1
  Cr  Cr39  1  0.50187076  0.50035678  0.50438548  1
  Fe  Fe40  1  0.33144586  0.33108480  0.66726849  1
  Fe  Fe41  1  0.50136490  0.49830708  0.83337476  1
  Fe  Fe42  1  0.49715260  0.83452827  0.49947979  1
  Fe  Fe43  1  0.33186269  0.67015094  0.66658515  1
  Fe  Fe44  1  0.49732174  0.83166403  0.83129580  1
  Fe  Fe45  1  0.83391037  0.16771871  0.50062174  1
  Cr  Cr46  1  0.66486579  0.99983104  0.66858561  1
  Fe  Fe47  1  0.83432496  0.16900866  0.83329499  1
  Fe  Fe48  1  0.83571076  0.49975229  0.50279228  1
  Fe  Fe49  1  0.66980454  0.33376741  0.66949980  1
  Fe  Fe50  1  0.83222899  0.49939370  0.83146614  1
  Cr  Cr51  1  0.83385801  0.83340124  0.50007185  1
  Fe  Fe52  1  0.66953925  0.66697139  0.66931667  1
  Fe  Fe53  1  0.83765990  0.83258579  0.83176648  1
" 