2019,Ni20Fe17Cr62_4,-214.715026508149, 167.989384128733,Ni20Fe17Cr62,"# generated using pymatgen
 data_Cr34Fe9Ni11
_symmetry_space_group_name_H-M   'P 1'
_cell_length_a   7.54351966
_cell_length_b   7.54351966
_cell_length_c   10.66814781
_cell_angle_alpha   90.00000000
_cell_angle_beta   90.00000000
_cell_angle_gamma   90.00000000
_symmetry_Int_Tables_number   1
_chemical_formula_structural   Cr34Fe9Ni11
_chemical_formula_sum   'Cr34 Fe9 Ni11'
_cell_volume   607.06763247
_cell_formula_units_Z   1
loop_
 _symmetry_equiv_pos_site_id
 _symmetry_equiv_pos_as_xyz
  1  'x, y, z'
loop_
 _atom_site_type_symbol
 _atom_site_label
 _atom_site_symmetry_multiplicity
 _atom_site_fract_x
 _atom_site_fract_y
 _atom_site_fract_z
 _atom_site_occupancy
  Fe  Fe0  1  0.99261127  -0.00460910  -0.00433848  1
  Ni  Ni1  1  0.16118122  0.16154114  0.16284546  1
  Cr  Cr2  1  0.99464804  -0.00453515  0.32778140  1
  Cr  Cr3  1  -0.00470858  0.32716348  0.00007271  1
  Cr  Cr4  1  0.16330617  0.49557720  0.16345786  1
  Cr  Cr5  1  0.99196304  0.32726011  0.32447283  1
  Cr  Cr6  1  0.99372235  0.66191514  0.99454621  1
  Cr  Cr7  1  0.16310385  0.82894629  0.16101758  1
  Cr  Cr8  1  0.99316836  0.66242936  0.32970834  1
  Cr  Cr9  1  0.32745007  -0.00346788  -0.00339129  1
  Cr  Cr10  1  0.49588769  0.15952783  0.16333063  1
  Fe  Fe11  1  0.32677337  0.99478432  0.32694016  1
  Cr  Cr12  1  0.32992392  0.32732503  0.99309207  1
  Ni  Ni13  1  0.49656046  0.49462491  0.16132951  1
  Fe  Fe14  1  0.32961410  0.32902142  0.32616554  1
  Cr  Cr15  1  0.33079566  0.66097849  0.99245187  1
  Cr  Cr16  1  0.49525163  0.82616251  0.16278780  1
  Ni  Ni17  1  0.33048499  0.65907344  0.32742500  1
  Ni  Ni18  1  0.66240543  -0.00474664  0.99308553  1
  Ni  Ni19  1  0.82797599  0.16151749  0.15978843  1
  Cr  Cr20  1  0.66266043  -0.00365098  0.33090173  1
  Cr  Cr21  1  0.66052623  0.32885797  -0.00315824  1
  Ni  Ni22  1  0.82355652  0.49358666  0.16089207  1
  Fe  Fe23  1  0.66067114  0.32918770  0.32525093  1
  Ni  Ni24  1  0.66203138  0.66347170  -0.00436263  1
  Cr  Cr25  1  0.82541190  0.82971911  0.15738253  1
  Cr  Cr26  1  0.66282431  0.66041762  0.32736011  1
  Cr  Cr27  1  0.16279191  0.16379287  0.49382041  1
  Fe  Fe28  1  -0.00483290  0.99293955  0.66216752  1
  Cr  Cr29  1  0.16007103  0.16211486  0.82836008  1
  Cr  Cr30  1  0.16468160  0.49434898  0.49640519  1
  Cr  Cr31  1  0.99489711  0.32762834  0.66032323  1
  Cr  Cr32  1  0.16397227  0.49513077  0.82361908  1
  Cr  Cr33  1  0.16376773  0.82714868  0.49430001  1
  Cr  Cr34  1  0.99381905  0.66473404  0.65969264  1
  Fe  Fe35  1  0.15880372  0.82920139  0.82771143  1
  Cr  Cr36  1  0.49442411  0.16234402  0.49479565  1
  Cr  Cr37  1  0.32995087  0.99491407  0.66231621  1
  Fe  Fe38  1  0.49630308  0.16049973  0.82852366  1
  Cr  Cr39  1  0.49230243  0.49480981  0.49487513  1
  Ni  Ni40  1  0.33172302  0.32741039  0.66393360  1
  Fe  Fe41  1  0.49686694  0.49581771  0.82782448  1
  Cr  Cr42  1  0.49468926  0.82767457  0.49146956  1
  Ni  Ni43  1  0.32969321  0.66217944  0.66369385  1
  Cr  Cr44  1  0.49730068  0.82826167  0.83064740  1
  Cr  Cr45  1  0.82705907  0.16010197  0.49778725  1
  Fe  Fe46  1  0.66125765  0.99261623  0.66291331  1
  Cr  Cr47  1  0.82740950  0.15840381  0.82858451  1
  Cr  Cr48  1  0.82714785  0.49382202  0.49303726  1
  Cr  Cr49  1  0.65910957  0.32645019  0.66298586  1
  Cr  Cr50  1  0.82806181  0.49607651  0.83073621  1
  Ni  Ni51  1  0.82711454  0.83177018  0.49886582  1
  Cr  Cr52  1  0.66173265  0.66293114  0.66105267  1
  Ni  Ni53  1  0.82637016  0.83108672  0.82901117  1
" 