5786,Ni20Fe32Cr47_18,-220.274413262694, 177.358162052,Ni20Fe32Cr47,"# generated using pymatgen
 data_Cr26Fe17Ni11
_symmetry_space_group_name_H-M   'P 1'
_cell_length_a   7.50461064
_cell_length_b   7.50461064
_cell_length_c   10.61312215
_cell_angle_alpha   90.00000000
_cell_angle_beta   90.00000000
_cell_angle_gamma   90.00000000
_symmetry_Int_Tables_number   1
_chemical_formula_structural   Cr26Fe17Ni11
_chemical_formula_sum   'Cr26 Fe17 Ni11'
_cell_volume   597.72234610
_cell_formula_units_Z   1
loop_
 _symmetry_equiv_pos_site_id
 _symmetry_equiv_pos_as_xyz
  1  'x, y, z'
loop_
 _atom_site_type_symbol
 _atom_site_label
 _atom_site_symmetry_multiplicity
 _atom_site_fract_x
 _atom_site_fract_y
 _atom_site_fract_z
 _atom_site_occupancy
  Ni  Ni0  1  0.99715930  0.99684552  -0.00196167  1
  Fe  Fe1  1  0.16629672  0.16492435  0.16245856  1
  Cr  Cr2  1  0.99493779  0.99727642  0.32976714  1
  Cr  Cr3  1  0.99699456  0.32972809  0.99527155  1
  Cr  Cr4  1  0.16651254  0.49572891  0.16692264  1
  Cr  Cr5  1  -0.00227060  0.33007638  0.33185181  1
  Cr  Cr6  1  0.99641273  0.66495339  0.99743128  1
  Cr  Cr7  1  0.16476896  0.83434902  0.16417329  1
  Fe  Fe8  1  -0.00204749  0.66401417  0.33018894  1
  Fe  Fe9  1  0.33147665  -0.00073031  0.99544070  1
  Cr  Cr10  1  0.49478079  0.16520588  0.16372079  1
  Fe  Fe11  1  0.33299143  -0.00094912  0.33071720  1
  Ni  Ni12  1  0.33449757  0.33067923  0.99611737  1
  Cr  Cr13  1  0.49783350  0.49528743  0.16324122  1
  Ni  Ni14  1  0.33342363  0.32889840  0.33091645  1
  Cr  Cr15  1  0.33391144  0.66372516  0.99423675  1
  Fe  Fe16  1  0.49752445  0.83152748  0.16344721  1
  Fe  Fe17  1  0.33072486  0.66436239  0.33065243  1
  Cr  Cr18  1  0.66328754  0.99652393  0.99682512  1
  Cr  Cr19  1  0.82989754  0.16403341  0.16212567  1
  Fe  Fe20  1  0.66144751  0.00073162  0.33057421  1
  Ni  Ni21  1  0.66120464  0.33048190  0.99446292  1
  Cr  Cr22  1  0.82820931  0.49760519  0.16200037  1
  Fe  Fe23  1  0.66295134  0.32777446  0.33195192  1
  Fe  Fe24  1  0.66287233  0.66215419  0.99568536  1
  Fe  Fe25  1  0.82948349  0.83167454  0.16294489  1
  Cr  Cr26  1  0.66397009  0.66679739  0.32625912  1
  Cr  Cr27  1  0.16529671  0.16474413  0.49655981  1
  Cr  Cr28  1  0.99555487  0.00040854  0.66534671  1
  Cr  Cr29  1  0.16347081  0.16346500  0.83591733  1
  Cr  Cr30  1  0.16559820  0.49798581  0.49690574  1
  Ni  Ni31  1  0.99282755  0.33081354  0.66589741  1
  Fe  Fe32  1  0.16684237  0.49674567  0.82991584  1
  Cr  Cr33  1  0.16561013  0.82968980  0.49857221  1
  Cr  Cr34  1  0.00012957  0.66195594  0.66576394  1
  Fe  Fe35  1  0.16707757  0.83112284  0.83162106  1
  Fe  Fe36  1  0.50026217  0.16501073  0.49715561  1
  Cr  Cr37  1  0.33436912  0.99621432  0.66723987  1
  Ni  Ni38  1  0.50013129  0.16613610  0.83146826  1
  Cr  Cr39  1  0.49771606  0.49645476  0.49665524  1
  Cr  Cr40  1  0.33279684  0.33245648  0.66628594  1
  Ni  Ni41  1  0.49961267  0.49730402  0.83090823  1
  Cr  Cr42  1  0.49783343  0.83194384  0.49869971  1
  Ni  Ni43  1  0.33412765  0.66432820  0.66657678  1
  Ni  Ni44  1  0.49771129  0.82861846  0.83035396  1
  Fe  Fe45  1  0.82701490  0.16528494  0.49979458  1
  Fe  Fe46  1  0.66259517  0.00084109  0.66692641  1
  Ni  Ni47  1  0.82884126  0.16607106  0.82928353  1
  Cr  Cr48  1  0.82916973  0.49617902  0.49899490  1
  Ni  Ni49  1  0.66485710  0.32841917  0.66477402  1
  Fe  Fe50  1  0.82586173  0.49374874  0.82973518  1
  Cr  Cr51  1  0.82894277  0.83225410  0.49787828  1
  Fe  Fe52  1  0.66129097  0.66156422  0.66692442  1
  Cr  Cr53  1  0.83006159  0.83141622  0.83127795  1
" 