2672,Ni20Fe17Cr62_18,-215.026265718838, 171.694148510776,Ni20Fe17Cr62,"# generated using pymatgen
 data_Cr34Fe9Ni11
_symmetry_space_group_name_H-M   'P 1'
_cell_length_a   7.53524889
_cell_length_b   7.53524889
_cell_length_c   10.65645117
_cell_angle_alpha   90.00000000
_cell_angle_beta   90.00000000
_cell_angle_gamma   90.00000000
_symmetry_Int_Tables_number   1
_chemical_formula_structural   Cr34Fe9Ni11
_chemical_formula_sum   'Cr34 Fe9 Ni11'
_cell_volume   605.07303944
_cell_formula_units_Z   1
loop_
 _symmetry_equiv_pos_site_id
 _symmetry_equiv_pos_as_xyz
  1  'x, y, z'
loop_
 _atom_site_type_symbol
 _atom_site_label
 _atom_site_symmetry_multiplicity
 _atom_site_fract_x
 _atom_site_fract_y
 _atom_site_fract_z
 _atom_site_occupancy
  Ni  Ni0  1  0.99494603  0.99376538  -0.00285213  1
  Cr  Cr1  1  0.16239299  0.16142672  0.15944369  1
  Cr  Cr2  1  -0.00405601  0.99324989  0.32951647  1
  Cr  Cr3  1  -0.00401107  0.33075188  0.99491464  1
  Ni  Ni4  1  0.16474574  0.49760367  0.16464676  1
  Cr  Cr5  1  -0.00212135  0.33223005  0.32718177  1
  Cr  Cr6  1  0.99293423  0.66012367  0.00034646  1
  Cr  Cr7  1  0.16148937  0.82652153  0.16103562  1
  Fe  Fe8  1  -0.00141796  0.66302643  0.32750073  1
  Fe  Fe9  1  0.32883971  0.99219881  -0.00303136  1
  Fe  Fe10  1  0.49489943  0.15947702  0.16454323  1
  Cr  Cr11  1  0.32942698  0.99388840  0.33001728  1
  Cr  Cr12  1  0.32763864  0.32870075  -0.00191260  1
  Cr  Cr13  1  0.49339581  0.49516723  0.16444632  1
  Ni  Ni14  1  0.32838926  0.33071037  0.32635676  1
  Fe  Fe15  1  0.32893128  0.66313153  -0.00221326  1
  Ni  Ni16  1  0.49590970  0.82729509  0.16165993  1
  Ni  Ni17  1  0.32917818  0.66212368  0.32759079  1
  Cr  Cr18  1  0.66002229  0.99232465  -0.00294755  1
  Cr  Cr19  1  0.82656282  0.15906967  0.16348697  1
  Ni  Ni20  1  0.65993914  0.99257594  0.32616851  1
  Cr  Cr21  1  0.66348934  0.33196730  -0.00336743  1
  Fe  Fe22  1  0.82989741  0.49797039  0.16415302  1
  Fe  Fe23  1  0.66084922  0.32848142  0.32684060  1
  Cr  Cr24  1  0.66156936  0.66267170  0.99447226  1
  Ni  Ni25  1  0.82716288  0.82927153  0.16305971  1
  Cr  Cr26  1  0.66344226  0.66472838  0.32672896  1
  Cr  Cr27  1  0.16139650  0.16298793  0.49662456  1
  Cr  Cr28  1  -0.00204795  0.99517766  0.65981459  1
  Cr  Cr29  1  0.16072909  0.15957244  0.83031466  1
  Cr  Cr30  1  0.16459730  0.49965412  0.49484007  1
  Ni  Ni31  1  -0.00447252  0.33350151  0.66420632  1
  Cr  Cr32  1  0.16427609  0.49930666  0.82706619  1
  Ni  Ni33  1  0.16418378  0.82351388  0.49568349  1
  Ni  Ni34  1  -0.00255245  0.66088689  0.66061423  1
  Cr  Cr35  1  0.16200341  0.82696944  0.83123609  1
  Cr  Cr36  1  0.49796420  0.16463876  0.49014190  1
  Cr  Cr37  1  0.33024523  0.99243521  0.66018332  1
  Cr  Cr38  1  0.49549303  0.16214093  0.83160384  1
  Cr  Cr39  1  0.49331706  0.49695972  0.49413704  1
  Cr  Cr40  1  0.32656478  0.32789217  0.66103272  1
  Cr  Cr41  1  0.49324071  0.49815314  0.82793697  1
  Fe  Fe42  1  0.49342769  0.82637100  0.49267433  1
  Ni  Ni43  1  0.32798039  0.66588315  0.66131969  1
  Fe  Fe44  1  0.49218186  0.82863378  0.83034141  1
  Cr  Cr45  1  0.82686855  0.16189938  0.49534076  1
  Cr  Cr46  1  0.65806574  0.99241245  0.65997139  1
  Cr  Cr47  1  0.82968677  0.16052659  0.82713397  1
  Cr  Cr48  1  0.82851189  0.49611302  0.49641314  1
  Cr  Cr49  1  0.66343843  0.33036621  0.66417422  1
  Fe  Fe50  1  0.83210384  0.49695284  0.82737413  1
  Cr  Cr51  1  0.83113306  0.82852559  0.49358613  1
  Cr  Cr52  1  0.66097482  0.66429167  0.66491466  1
  Cr  Cr53  1  0.83186698  0.82940469  0.82915796  1
" 