6467,Ni21Fe37Cr40_7,-222.409594203538, 184.337501437205,Ni21Fe37Cr40,"# generated using pymatgen
 data_Cr23Fe20Ni11
_symmetry_space_group_name_H-M   'P 1'
_cell_length_a   7.49531125
_cell_length_b   7.49531125
_cell_length_c   10.59997083
_cell_angle_alpha   90.00000000
_cell_angle_beta   90.00000000
_cell_angle_gamma   90.00000000
_symmetry_Int_Tables_number   1
_chemical_formula_structural   Cr23Fe20Ni11
_chemical_formula_sum   'Cr23 Fe20 Ni11'
_cell_volume   595.50308305
_cell_formula_units_Z   1
loop_
 _symmetry_equiv_pos_site_id
 _symmetry_equiv_pos_as_xyz
  1  'x, y, z'
loop_
 _atom_site_type_symbol
 _atom_site_label
 _atom_site_symmetry_multiplicity
 _atom_site_fract_x
 _atom_site_fract_y
 _atom_site_fract_z
 _atom_site_occupancy
  Cr  Cr0  1  0.00167334  0.99605453  -0.00147641  1
  Fe  Fe1  1  0.16564904  0.16382842  0.16527003  1
  Ni  Ni2  1  -0.00034586  0.99687255  0.33220599  1
  Ni  Ni3  1  -0.00178882  0.33377142  -0.00135192  1
  Cr  Cr4  1  0.16507113  0.49894394  0.16360641  1
  Cr  Cr5  1  -0.00022579  0.33051540  0.33195939  1
  Ni  Ni6  1  0.99765823  0.66638368  0.99797451  1
  Fe  Fe7  1  0.16337403  0.83173192  0.16380276  1
  Cr  Cr8  1  0.99667965  0.66798240  0.33411335  1
  Fe  Fe9  1  0.33174441  0.99589069  -0.00145081  1
  Fe  Fe10  1  0.49785249  0.16487826  0.16509420  1
  Cr  Cr11  1  0.32917953  0.00180554  0.33100665  1
  Cr  Cr12  1  0.33336774  0.32787624  0.00100374  1
  Ni  Ni13  1  0.49565294  0.49881354  0.16486611  1
  Fe  Fe14  1  0.33107161  0.32923387  0.33112576  1
  Fe  Fe15  1  0.33034710  0.66542613  0.99752088  1
  Cr  Cr16  1  0.49938200  0.83085859  0.16324540  1
  Cr  Cr17  1  0.33009109  0.66522535  0.33188218  1
  Fe  Fe18  1  0.66533670  0.99717084  0.99766404  1
  Cr  Cr19  1  0.83312143  0.16126693  0.16426452  1
  Ni  Ni20  1  0.66500084  -0.00133699  0.33071976  1
  Cr  Cr21  1  0.66419791  0.33352473  0.99757953  1
  Fe  Fe22  1  0.83194492  0.49925783  0.16277102  1
  Cr  Cr23  1  0.66141389  0.33180465  0.33051382  1
  Cr  Cr24  1  0.66568385  0.66401648  0.99659833  1
  Fe  Fe25  1  0.83325618  0.83070219  0.16583356  1
  Cr  Cr26  1  0.66749232  0.66424108  0.33095476  1
  Ni  Ni27  1  0.16463038  0.16501345  0.49835107  1
  Ni  Ni28  1  0.00086738  0.99545474  0.66297064  1
  Cr  Cr29  1  0.16221036  0.16493950  0.83199084  1
  Fe  Fe30  1  0.16433166  0.49727618  0.49904696  1
  Cr  Cr31  1  0.99732904  0.33124039  0.66480975  1
  Cr  Cr32  1  0.16642679  0.50027428  0.83266757  1
  Fe  Fe33  1  0.16327384  0.83545852  0.49910160  1
  Cr  Cr34  1  0.99798903  0.66792170  0.66255527  1
  Fe  Fe35  1  0.16640153  0.83125387  0.83125765  1
  Fe  Fe36  1  0.49805753  0.16327382  0.50040326  1
  Fe  Fe37  1  0.33002347  -0.00126541  0.66340469  1
  Cr  Cr38  1  0.50023830  0.16316026  0.82884924  1
  Cr  Cr39  1  0.49427348  0.49758488  0.49885653  1
  Fe  Fe40  1  0.33258887  0.32978687  0.66398765  1
  Ni  Ni41  1  0.49602950  0.50175842  0.83035639  1
  Cr  Cr42  1  0.50106802  0.83232620  0.49977481  1
  Fe  Fe43  1  0.33148000  0.66633476  0.66573067  1
  Fe  Fe44  1  0.49641012  0.83148827  0.83099436  1
  Cr  Cr45  1  0.83111914  0.15988206  0.50039852  1
  Ni  Ni46  1  0.66389020  0.99753599  0.66530876  1
  Cr  Cr47  1  0.83208292  0.16250461  0.82963001  1
  Fe  Fe48  1  0.83107468  0.49761378  0.49937526  1
  Ni  Ni49  1  0.66061669  0.33177615  0.66564518  1
  Fe  Fe50  1  0.83135477  0.49742494  0.83220784  1
  Ni  Ni51  1  0.83242244  0.83623676  0.49684660  1
  Cr  Cr52  1  0.66616864  0.66336363  0.66632162  1
  Fe  Fe53  1  0.83194656  0.83182841  0.83004692  1
" 