2993,Ni21Fe37Cr40_13,-222.493417227123, 176.540561877429,Ni21Fe37Cr40,"# generated using pymatgen
 data_Cr23Fe20Ni11
_symmetry_space_group_name_H-M   'P 1'
_cell_length_a   7.49868693
_cell_length_b   7.49868693
_cell_length_c   10.60474476
_cell_angle_alpha   90.00000000
_cell_angle_beta   90.00000000
_cell_angle_gamma   90.00000000
_symmetry_Int_Tables_number   1
_chemical_formula_structural   Cr23Fe20Ni11
_chemical_formula_sum   'Cr23 Fe20 Ni11'
_cell_volume   596.30803905
_cell_formula_units_Z   1
loop_
 _symmetry_equiv_pos_site_id
 _symmetry_equiv_pos_as_xyz
  1  'x, y, z'
loop_
 _atom_site_type_symbol
 _atom_site_label
 _atom_site_symmetry_multiplicity
 _atom_site_fract_x
 _atom_site_fract_y
 _atom_site_fract_z
 _atom_site_occupancy
  Ni  Ni0  1  -0.00058784  0.99666384  0.99738119  1
  Fe  Fe1  1  0.16473906  0.16394317  0.16435100  1
  Fe  Fe2  1  -0.00166357  -0.00177496  0.33021408  1
  Ni  Ni3  1  0.00110915  0.33221289  -0.00008614  1
  Fe  Fe4  1  0.16695465  0.49791976  0.16440095  1
  Cr  Cr5  1  0.00154731  0.33131239  0.33104084  1
  Fe  Fe6  1  -0.00005362  0.66481025  0.99701285  1
  Cr  Cr7  1  0.16673321  0.83020613  0.16464347  1
  Cr  Cr8  1  -0.00040086  0.66378810  0.33363328  1
  Cr  Cr9  1  0.33081305  0.99538774  0.99677059  1
  Cr  Cr10  1  0.49657199  0.16447521  0.16549257  1
  Fe  Fe11  1  0.33085934  0.99751484  0.32931300  1
  Cr  Cr12  1  0.33043949  0.33329694  -0.00085960  1
  Fe  Fe13  1  0.49787207  0.50051111  0.16557633  1
  Ni  Ni14  1  0.33010452  0.33208287  0.33181629  1
  Fe  Fe15  1  0.33219863  0.66359237  0.99738496  1
  Ni  Ni16  1  0.49606441  0.82769365  0.16576007  1
  Fe  Fe17  1  0.33180056  0.66012738  0.33035130  1
  Cr  Cr18  1  0.66288422  0.99533928  0.99584502  1
  Cr  Cr19  1  0.83250117  0.16569481  0.16251575  1
  Fe  Fe20  1  0.66418312  -0.00194578  0.33021808  1
  Ni  Ni21  1  0.66310744  0.33479151  0.99655903  1
  Cr  Cr22  1  0.83060598  0.49887276  0.15984315  1
  Cr  Cr23  1  0.66334659  0.33378570  0.33442930  1
  Ni  Ni24  1  0.66087563  0.66494546  0.99686589  1
  Cr  Cr25  1  0.82929093  0.82925288  0.16347138  1
  Ni  Ni26  1  0.66083846  0.66701722  0.33040065  1
  Cr  Cr27  1  0.16629894  0.16242794  0.49729592  1
  Fe  Fe28  1  -0.00177923  0.99627581  0.66549586  1
  Cr  Cr29  1  0.16549259  0.16553387  0.83155599  1
  Ni  Ni30  1  0.16966357  0.49937365  0.49881632  1
  Cr  Cr31  1  0.00033844  0.33325057  0.66085143  1
  Ni  Ni32  1  0.16648437  0.50101801  0.83223011  1
  Fe  Fe33  1  0.16548100  0.82996654  0.49888925  1
  Fe  Fe34  1  0.00135453  0.66567639  0.66479180  1
  Fe  Fe35  1  0.16283132  0.82898466  0.83119543  1
  Cr  Cr36  1  0.49646901  0.16436962  0.49925402  1
  Fe  Fe37  1  0.33057714  0.99535857  0.66675044  1
  Fe  Fe38  1  0.49666158  0.16772044  0.83124054  1
  Ni  Ni39  1  0.49230575  0.49953625  0.49701595  1
  Fe  Fe40  1  0.33128142  0.33538455  0.66484938  1
  Fe  Fe41  1  0.49616712  0.49838285  0.83160118  1
  Cr  Cr42  1  0.49491280  0.83004630  0.49367746  1
  Fe  Fe43  1  0.32946067  0.66314319  0.66510663  1
  Fe  Fe44  1  0.49511057  0.82731652  0.83173692  1
  Ni  Ni45  1  0.83285599  0.16081997  0.49693082  1
  Cr  Cr46  1  0.66413521  0.99700246  0.66755176  1
  Cr  Cr47  1  0.83188920  0.16629437  0.83390756  1
  Cr  Cr48  1  0.83034583  0.49898185  0.49832067  1
  Cr  Cr49  1  0.66259063  0.33144401  0.66333058  1
  Cr  Cr50  1  0.83306314  0.49935209  0.83496172  1
  Cr  Cr51  1  0.83163605  0.83214298  0.49656725  1
  Cr  Cr52  1  0.66287932  0.66503629  0.66480249  1
  Fe  Fe53  1  0.83483644  0.82972120  0.83300576  1
" 