2951,Ni21Fe37Cr40_18,-222.283499042634, 173.254289191372,Ni21Fe37Cr40,"# generated using pymatgen
 data_Cr23Fe20Ni11
_symmetry_space_group_name_H-M   'P 1'
_cell_length_a   7.50404101
_cell_length_b   7.50404101
_cell_length_c   10.61231657
_cell_angle_alpha   90.00000000
_cell_angle_beta   90.00000000
_cell_angle_gamma   90.00000000
_symmetry_Int_Tables_number   1
_chemical_formula_structural   Cr23Fe20Ni11
_chemical_formula_sum   'Cr23 Fe20 Ni11'
_cell_volume   597.58624828
_cell_formula_units_Z   1
loop_
 _symmetry_equiv_pos_site_id
 _symmetry_equiv_pos_as_xyz
  1  'x, y, z'
loop_
 _atom_site_type_symbol
 _atom_site_label
 _atom_site_symmetry_multiplicity
 _atom_site_fract_x
 _atom_site_fract_y
 _atom_site_fract_z
 _atom_site_occupancy
  Ni  Ni0  1  -0.00210532  -0.00073167  -0.00021536  1
  Fe  Fe1  1  0.16370563  0.16642110  0.16532772  1
  Fe  Fe2  1  -0.00195344  -0.00017599  0.33195231  1
  Ni  Ni3  1  0.00038579  0.32967072  0.00001846  1
  Fe  Fe4  1  0.16497486  0.49460854  0.16450414  1
  Cr  Cr5  1  -0.00182585  0.33101579  0.33306297  1
  Cr  Cr6  1  -0.00143929  0.66457346  -0.00199178  1
  Cr  Cr7  1  0.16511017  0.83329033  0.16721709  1
  Cr  Cr8  1  -0.00163956  0.66395910  0.33308990  1
  Cr  Cr9  1  0.33214704  0.99704330  -0.00012890  1
  Fe  Fe10  1  0.49728051  0.16351478  0.16652933  1
  Fe  Fe11  1  0.33213356  0.00006791  0.33300410  1
  Fe  Fe12  1  0.32844113  0.33145092  -0.00105829  1
  Cr  Cr13  1  0.49474534  0.49742092  0.16346775  1
  Ni  Ni14  1  0.33063362  0.32763020  0.33188810  1
  Fe  Fe15  1  0.32964403  0.66378502  0.99591777  1
  Fe  Fe16  1  0.49882468  0.83306139  0.16606555  1
  Cr  Cr17  1  0.33038390  0.66554163  0.33259527  1
  Cr  Cr18  1  0.66383303  0.99719088  0.99727396  1
  Ni  Ni19  1  0.83314548  0.16148246  0.16526184  1
  Fe  Fe20  1  0.66268581  -0.00189598  0.33034865  1
  Cr  Cr21  1  0.66457743  0.32891101  -0.00162891  1
  Cr  Cr22  1  0.83087629  0.49600621  0.16489447  1
  Cr  Cr23  1  0.66373533  0.32856646  0.33312506  1
  Cr  Cr24  1  0.66249432  0.66697022  0.99688975  1
  Fe  Fe25  1  0.83160167  0.83412078  0.16525638  1
  Cr  Cr26  1  0.66414799  0.66528914  0.33044429  1
  Ni  Ni27  1  0.16567847  0.16341774  0.49592130  1
  Ni  Ni28  1  -0.00158018  -0.00133162  0.66173369  1
  Cr  Cr29  1  0.16317463  0.16489846  0.83274512  1
  Fe  Fe30  1  0.16769494  0.49688115  0.49785457  1
  Cr  Cr31  1  -0.00140301  0.33010036  0.66073144  1
  Fe  Fe32  1  0.16744977  0.49707434  0.83078853  1
  Fe  Fe33  1  0.16513990  0.83250745  0.49821984  1
  Cr  Cr34  1  -0.00092344  0.66362085  0.66212569  1
  Cr  Cr35  1  0.16432544  0.83235803  0.82823110  1
  Fe  Fe36  1  0.49659623  0.16267748  0.49662780  1
  Cr  Cr37  1  0.33129552  0.99739610  0.66149929  1
  Cr  Cr38  1  0.49547890  0.16529263  0.82864787  1
  Fe  Fe39  1  0.49574478  0.49872686  0.49766772  1
  Fe  Fe40  1  0.32942780  0.33297907  0.66112545  1
  Fe  Fe41  1  0.49431129  0.49879301  0.82971104  1
  Ni  Ni42  1  0.49663668  0.83107042  0.49711289  1
  Ni  Ni43  1  0.33441544  0.66430134  0.66357471  1
  Ni  Ni44  1  0.49686479  0.82756722  0.82991311  1
  Fe  Fe45  1  0.83156625  0.16125915  0.49725866  1
  Fe  Fe46  1  0.66352032  0.99338613  0.66411128  1
  Cr  Cr47  1  0.83317663  0.16250966  0.82899356  1
  Ni  Ni48  1  0.82870140  0.49752420  0.49744188  1
  Cr  Cr49  1  0.66279698  0.33067185  0.66031443  1
  Cr  Cr50  1  0.82977635  0.49718689  0.83067000  1
  Cr  Cr51  1  0.82942955  0.83067400  0.49857436  1
  Ni  Ni52  1  0.66073945  0.66412986  0.66386571  1
  Fe  Fe53  1  0.83031639  0.83243418  0.82832280  1
" 