2057,Ni21Fe37Cr40_8,-222.440582900383, 181.02904357753,Ni21Fe37Cr40,"# generated using pymatgen
 data_Cr23Fe20Ni11
_symmetry_space_group_name_H-M   'P 1'
_cell_length_a   7.49204115
_cell_length_b   7.49204115
_cell_length_c   10.59534620
_cell_angle_alpha   90.00000000
_cell_angle_beta   90.00000000
_cell_angle_gamma   90.00000000
_symmetry_Int_Tables_number   1
_chemical_formula_structural   Cr23Fe20Ni11
_chemical_formula_sum   'Cr23 Fe20 Ni11'
_cell_volume   594.72399268
_cell_formula_units_Z   1
loop_
 _symmetry_equiv_pos_site_id
 _symmetry_equiv_pos_as_xyz
  1  'x, y, z'
loop_
 _atom_site_type_symbol
 _atom_site_label
 _atom_site_symmetry_multiplicity
 _atom_site_fract_x
 _atom_site_fract_y
 _atom_site_fract_z
 _atom_site_occupancy
  Fe  Fe0  1  0.00105696  0.99493377  -0.00111699  1
  Cr  Cr1  1  0.16616648  0.16512464  0.16457018  1
  Cr  Cr2  1  0.99675963  0.99746551  0.33275202  1
  Ni  Ni3  1  0.00142876  0.33193618  0.99762783  1
  Cr  Cr4  1  0.16482879  0.50056280  0.16491944  1
  Fe  Fe5  1  -0.00078833  0.33169310  0.33213887  1
  Fe  Fe6  1  -0.00081273  0.66562188  0.99693720  1
  Fe  Fe7  1  0.16384455  0.83030346  0.16311959  1
  Ni  Ni8  1  0.99791887  0.66711224  0.32964463  1
  Fe  Fe9  1  0.32963364  0.99523895  0.99721326  1
  Cr  Cr10  1  0.49647388  0.16473959  0.16124295  1
  Cr  Cr11  1  0.33182402  0.99643077  0.33256862  1
  Ni  Ni12  1  0.32895164  0.33599934  -0.00106689  1
  Ni  Ni13  1  0.49619322  0.50118658  0.16458802  1
  Fe  Fe14  1  0.33153734  0.33161786  0.33150725  1
  Ni  Ni15  1  0.32941845  0.66618299  0.99706856  1
  Fe  Fe16  1  0.49822883  0.82919128  0.16502123  1
  Cr  Cr17  1  0.33291231  0.66411808  0.33127053  1
  Cr  Cr18  1  0.66784210  0.99526679  0.00095253  1
  Cr  Cr19  1  0.83254756  0.16420549  0.16349209  1
  Ni  Ni20  1  0.66512640  0.99499332  0.33035041  1
  Cr  Cr21  1  0.66621224  0.33455363  0.99558353  1
  Cr  Cr22  1  0.83346955  0.50156164  0.16572353  1
  Cr  Cr23  1  0.66362904  0.33221507  0.32974350  1
  Cr  Cr24  1  0.66406258  0.66559956  -0.00111976  1
  Ni  Ni25  1  0.83305009  0.82968291  0.16699020  1
  Fe  Fe26  1  0.66560292  0.66895154  0.33106908  1
  Fe  Fe27  1  0.16331716  0.16481827  0.50021230  1
  Fe  Fe28  1  -0.00036577  0.99567167  0.66567545  1
  Cr  Cr29  1  0.16582758  0.16345130  0.83067017  1
  Cr  Cr30  1  0.16217515  0.50025405  0.49596572  1
  Ni  Ni31  1  0.99803003  0.33280965  0.66447908  1
  Fe  Fe32  1  0.16267421  0.49810884  0.83326939  1
  Cr  Cr33  1  0.16345880  0.82969433  0.50226360  1
  Ni  Ni34  1  0.99633860  0.66412366  0.66896956  1
  Fe  Fe35  1  0.16463866  0.83053463  0.83151304  1
  Cr  Cr36  1  0.49769630  0.16288315  0.49942733  1
  Ni  Ni37  1  0.33140041  0.99690614  0.66518597  1
  Cr  Cr38  1  0.49681860  0.16411266  0.83334211  1
  Fe  Fe39  1  0.50040083  0.50067556  0.49779783  1
  Cr  Cr40  1  0.33011911  0.33326149  0.66255270  1
  Fe  Fe41  1  0.49686304  0.50012543  0.83280320  1
  Fe  Fe42  1  0.50137171  0.82923510  0.49898414  1
  Cr  Cr43  1  0.33294346  0.66470245  0.66703328  1
  Fe  Fe44  1  0.49708845  0.83085929  0.83174766  1
  Cr  Cr45  1  0.83083074  0.16528352  0.50014496  1
  Cr  Cr46  1  0.66589088  0.99554759  0.66512785  1
  Cr  Cr47  1  0.83292629  0.16597598  0.83117922  1
  Cr  Cr48  1  0.83246038  0.50296442  0.49806879  1
  Fe  Fe49  1  0.66509698  0.33677763  0.66641035  1
  Fe  Fe50  1  0.83402427  0.49987005  0.82977652  1
  Fe  Fe51  1  0.83068954  0.82931027  0.49749571  1
  Ni  Ni52  1  0.66680169  0.66576778  0.66511995  1
  Fe  Fe53  1  0.83329177  0.82971384  0.83192042  1
" 