4564,Ni21Fe37Cr40_4,-221.979096724158, 180.507046996878,Ni21Fe37Cr40,"# generated using pymatgen
 data_Cr23Fe20Ni11
_symmetry_space_group_name_H-M   'P 1'
_cell_length_a   7.49196528
_cell_length_b   7.49196528
_cell_length_c   10.59523891
_cell_angle_alpha   90.00000000
_cell_angle_beta   90.00000000
_cell_angle_gamma   90.00000000
_symmetry_Int_Tables_number   1
_chemical_formula_structural   Cr23Fe20Ni11
_chemical_formula_sum   'Cr23 Fe20 Ni11'
_cell_volume   594.70592623
_cell_formula_units_Z   1
loop_
 _symmetry_equiv_pos_site_id
 _symmetry_equiv_pos_as_xyz
  1  'x, y, z'
loop_
 _atom_site_type_symbol
 _atom_site_label
 _atom_site_symmetry_multiplicity
 _atom_site_fract_x
 _atom_site_fract_y
 _atom_site_fract_z
 _atom_site_occupancy
  Ni  Ni0  1  0.99717625  0.00088545  0.99814205  1
  Ni  Ni1  1  0.16382837  0.16439655  0.16582916  1
  Cr  Cr2  1  -0.00153702  0.00020030  0.33174866  1
  Cr  Cr3  1  0.99754987  0.33042738  -0.00119592  1
  Cr  Cr4  1  0.16379807  0.49742676  0.16815964  1
  Fe  Fe5  1  0.99615438  0.32930106  0.32962041  1
  Fe  Fe6  1  -0.00153393  0.66577808  0.99716250  1
  Cr  Cr7  1  0.16437551  0.83277075  0.16453422  1
  Cr  Cr8  1  0.99413086  0.66471105  0.33127560  1
  Cr  Cr9  1  0.32952797  0.00049744  -0.00140140  1
  Ni  Ni10  1  0.49933626  0.16594667  0.16799857  1
  Ni  Ni11  1  0.33184125  0.00250113  0.33053653  1
  Cr  Cr12  1  0.33034512  0.33054746  0.99668427  1
  Cr  Cr13  1  0.49970578  0.49670850  0.16742660  1
  Fe  Fe14  1  0.33412648  0.32936738  0.33141279  1
  Cr  Cr15  1  0.33258007  0.66399654  0.99331478  1
  Cr  Cr16  1  0.49832738  0.83265418  0.16606215  1
  Fe  Fe17  1  0.33402614  0.66667785  0.33374714  1
  Cr  Cr18  1  0.66673483  -0.00135203  0.00070371  1
  Ni  Ni19  1  0.83174319  0.16616554  0.16481174  1
  Cr  Cr20  1  0.66502627  0.99733813  0.33181965  1
  Fe  Fe21  1  0.66712808  0.32978236  -0.00157451  1
  Fe  Fe22  1  0.83055706  0.49573849  0.16576613  1
  Fe  Fe23  1  0.66475380  0.33087302  0.33152243  1
  Cr  Cr24  1  0.66721419  0.66281817  -0.00046277  1
  Fe  Fe25  1  0.83266374  0.83290516  0.16438946  1
  Ni  Ni26  1  0.66515077  0.66223085  0.33124896  1
  Cr  Cr27  1  0.16452484  0.16409177  0.49612616  1
  Fe  Fe28  1  0.99737936  0.99674636  0.66542316  1
  Fe  Fe29  1  0.16008606  0.16458819  0.83233222  1
  Cr  Cr30  1  0.16724923  0.50022190  0.49608308  1
  Cr  Cr31  1  0.99694734  0.33076785  0.66668967  1
  Ni  Ni32  1  0.16371899  0.50259236  0.83001625  1
  Fe  Fe33  1  0.16564539  0.83042389  0.49862334  1
  Fe  Fe34  1  0.00153549  0.66570868  0.66604437  1
  Fe  Fe35  1  0.16275744  0.83091933  0.83122919  1
  Fe  Fe36  1  0.49947549  0.16815943  0.49706382  1
  Cr  Cr37  1  0.33070874  0.99691170  0.66662388  1
  Cr  Cr38  1  0.50210298  0.16447637  0.83149291  1
  Ni  Ni39  1  0.49881227  0.49851016  0.49736779  1
  Cr  Cr40  1  0.33177028  0.33451049  0.66676395  1
  Fe  Fe41  1  0.50032542  0.49861864  0.83005128  1
  Cr  Cr42  1  0.49757721  0.83139305  0.49728323  1
  Ni  Ni43  1  0.33168949  0.66502032  0.66607444  1
  Fe  Fe44  1  0.49813844  0.82966236  0.83018988  1
  Fe  Fe45  1  0.82867963  0.16490077  0.49945889  1
  Fe  Fe46  1  0.66671575  0.00038121  0.66423093  1
  Ni  Ni47  1  0.83150733  0.16554127  0.82963131  1
  Cr  Cr48  1  0.83026055  0.49695794  0.49748853  1
  Fe  Fe49  1  0.66451068  0.33156649  0.66526665  1
  Ni  Ni50  1  0.83344370  0.49699130  0.83291171  1
  Fe  Fe51  1  0.83226205  0.83170774  0.49957990  1
  Cr  Cr52  1  0.66415496  0.66403079  0.66531403  1
  Cr  Cr53  1  0.83349033  0.83350557  0.83155705  1
" 