8391,Ni21Fe37Cr40_1,-221.942719536944, 180.034844321361,Ni21Fe37Cr40,"# generated using pymatgen
 data_Cr23Fe20Ni11
_symmetry_space_group_name_H-M   'P 1'
_cell_length_a   7.49453366
_cell_length_b   7.49453366
_cell_length_c   10.59887114
_cell_angle_alpha   90.00000000
_cell_angle_beta   90.00000000
_cell_angle_gamma   90.00000000
_symmetry_Int_Tables_number   1
_chemical_formula_structural   Cr23Fe20Ni11
_chemical_formula_sum   'Cr23 Fe20 Ni11'
_cell_volume   595.31776221
_cell_formula_units_Z   1
loop_
 _symmetry_equiv_pos_site_id
 _symmetry_equiv_pos_as_xyz
  1  'x, y, z'
loop_
 _atom_site_type_symbol
 _atom_site_label
 _atom_site_symmetry_multiplicity
 _atom_site_fract_x
 _atom_site_fract_y
 _atom_site_fract_z
 _atom_site_occupancy
  Fe  Fe0  1  -0.00175122  -0.00148901  -0.00012265  1
  Ni  Ni1  1  0.16485391  0.16392192  0.16199206  1
  Fe  Fe2  1  -0.00110776  0.99743468  0.33170629  1
  Ni  Ni3  1  0.00248910  0.33236114  0.00035743  1
  Fe  Fe4  1  0.16628811  0.49885014  0.16323384  1
  Fe  Fe5  1  0.00075442  0.33107860  0.33113352  1
  Fe  Fe6  1  -0.00053480  0.66491479  -0.00171150  1
  Ni  Ni7  1  0.16592031  0.83154380  0.16313897  1
  Cr  Cr8  1  0.00226434  0.66564419  0.33141399  1
  Fe  Fe9  1  0.33212211  -0.00046825  0.00070757  1
  Ni  Ni10  1  0.49685350  0.16340768  0.16160886  1
  Cr  Cr11  1  0.32960308  0.99689383  0.33030421  1
  Fe  Fe12  1  0.33206663  0.33152798  -0.00001542  1
  Fe  Fe13  1  0.49507797  0.49924805  0.16456026  1
  Cr  Cr14  1  0.32844358  0.33258136  0.32682164  1
  Fe  Fe15  1  0.33113906  0.66348039  -0.00020925  1
  Cr  Cr16  1  0.49842603  0.83045767  0.16707353  1
  Ni  Ni17  1  0.32934720  0.66506873  0.33104093  1
  Ni  Ni18  1  0.66151511  0.99800289  0.99611871  1
  Cr  Cr19  1  0.83201983  0.16305084  0.16766550  1
  Ni  Ni20  1  0.66567466  0.99681141  0.33387149  1
  Cr  Cr21  1  0.66285826  0.33115187  0.99669759  1
  Cr  Cr22  1  0.83104672  0.49904752  0.16452469  1
  Cr  Cr23  1  0.66350284  0.33028702  0.32974109  1
  Cr  Cr24  1  0.66425057  0.66537203  0.99522827  1
  Cr  Cr25  1  0.83115754  0.83246322  0.16419514  1
  Ni  Ni26  1  0.66342951  0.66804610  0.33216460  1
  Cr  Cr27  1  0.16423286  0.16563065  0.49934587  1
  Cr  Cr28  1  -0.00168089  0.99402157  0.66175380  1
  Cr  Cr29  1  0.16697795  0.16417862  0.83227119  1
  Ni  Ni30  1  0.16530992  0.50171281  0.49922394  1
  Cr  Cr31  1  -0.00150619  0.33421627  0.66279617  1
  Cr  Cr32  1  0.16583281  0.49871938  0.83072598  1
  Fe  Fe33  1  0.16700564  0.82718194  0.49843060  1
  Ni  Ni34  1  0.00097847  0.66590553  0.66555020  1
  Cr  Cr35  1  0.16539663  0.83156216  0.83276419  1
  Cr  Cr36  1  0.49838514  0.16306742  0.50018255  1
  Fe  Fe37  1  0.33193882  0.99511532  0.66492318  1
  Fe  Fe38  1  0.49491723  0.16420271  0.83325096  1
  Cr  Cr39  1  0.49556597  0.50165424  0.49609741  1
  Fe  Fe40  1  0.33208406  0.33424888  0.66521557  1
  Ni  Ni41  1  0.49649390  0.49953642  0.83124516  1
  Fe  Fe42  1  0.49705979  0.82966647  0.49592009  1
  Fe  Fe43  1  0.33050450  0.66534664  0.66356399  1
  Fe  Fe44  1  0.49614194  0.83227884  0.83303583  1
  Fe  Fe45  1  0.83187488  0.16359982  0.49559407  1
  Cr  Cr46  1  0.66316163  0.99651871  0.66580416  1
  Cr  Cr47  1  0.83294940  0.16377728  0.83357812  1
  Cr  Cr48  1  0.83209655  0.49924897  0.49776456  1
  Cr  Cr49  1  0.66318174  0.33175072  0.66891250  1
  Fe  Fe50  1  0.83437791  0.49968884  0.83274432  1
  Fe  Fe51  1  0.83126224  0.83132816  0.49629759  1
  Cr  Cr52  1  0.66630549  0.66606998  0.66775295  1
  Fe  Fe53  1  0.83241906  0.83005905  0.83299173  1
" 