2722,Ni21Fe37Cr40_9,-222.273810798916, 179.591443921617,Ni21Fe37Cr40,"# generated using pymatgen
 data_Cr23Fe20Ni11
_symmetry_space_group_name_H-M   'P 1'
_cell_length_a   7.49361279
_cell_length_b   7.49361279
_cell_length_c   10.59756884
_cell_angle_alpha   90.00000000
_cell_angle_beta   90.00000000
_cell_angle_gamma   90.00000000
_symmetry_Int_Tables_number   1
_chemical_formula_structural   Cr23Fe20Ni11
_chemical_formula_sum   'Cr23 Fe20 Ni11'
_cell_volume   595.09834556
_cell_formula_units_Z   1
loop_
 _symmetry_equiv_pos_site_id
 _symmetry_equiv_pos_as_xyz
  1  'x, y, z'
loop_
 _atom_site_type_symbol
 _atom_site_label
 _atom_site_symmetry_multiplicity
 _atom_site_fract_x
 _atom_site_fract_y
 _atom_site_fract_z
 _atom_site_occupancy
  Cr  Cr0  1  -0.00165812  0.99499945  -0.00150296  1
  Cr  Cr1  1  0.16865299  0.16595804  0.16735129  1
  Cr  Cr2  1  -0.00084331  -0.00117638  0.33124371  1
  Cr  Cr3  1  -0.00146141  0.33293545  0.99665542  1
  Cr  Cr4  1  0.16753295  0.49890277  0.16308183  1
  Fe  Fe5  1  -0.00111910  0.33146534  0.33484115  1
  Ni  Ni6  1  -0.00110134  0.66646825  0.99571389  1
  Cr  Cr7  1  0.16668292  0.82978538  0.16278548  1
  Cr  Cr8  1  -0.00125836  0.66490556  0.32998679  1
  Ni  Ni9  1  0.33398324  -0.00098478  0.99563799  1
  Ni  Ni10  1  0.49824675  0.16385511  0.16363931  1
  Ni  Ni11  1  0.33291664  0.00114152  0.33372109  1
  Fe  Fe12  1  0.33149792  0.33087886  -0.00160265  1
  Fe  Fe13  1  0.49697669  0.49480911  0.16683539  1
  Ni  Ni14  1  0.33455321  0.33052250  0.33075045  1
  Fe  Fe15  1  0.32974314  0.66605665  0.99617026  1
  Cr  Cr16  1  0.49767809  0.83351594  0.16729587  1
  Fe  Fe17  1  0.33267461  0.66252742  0.33383119  1
  Fe  Fe18  1  0.66336116  0.99772753  0.99658949  1
  Cr  Cr19  1  0.82725960  0.16396872  0.16713424  1
  Fe  Fe20  1  0.66222347  0.00169647  0.33210551  1
  Cr  Cr21  1  0.66116867  0.32951559  0.99778963  1
  Cr  Cr22  1  0.83189194  0.49786978  0.16595763  1
  Ni  Ni23  1  0.66149044  0.33101902  0.33249923  1
  Cr  Cr24  1  0.66708411  0.66531739  0.99787680  1
  Fe  Fe25  1  0.83039071  0.83182883  0.16426015  1
  Cr  Cr26  1  0.66367900  0.66291115  0.33426824  1
  Fe  Fe27  1  0.16423005  0.16781349  0.49729162  1
  Fe  Fe28  1  0.99752494  0.00004561  0.66451771  1
  Cr  Cr29  1  0.16504425  0.16477714  0.82904467  1
  Ni  Ni30  1  0.16570056  0.49577585  0.49648887  1
  Fe  Fe31  1  0.99773657  0.33246827  0.66393050  1
  Ni  Ni32  1  0.16346374  0.50032156  0.83411755  1
  Cr  Cr33  1  0.16766200  0.83279043  0.49877160  1
  Cr  Cr34  1  0.99766962  0.66357394  0.66677296  1
  Fe  Fe35  1  0.16660902  0.82983854  0.83283886  1
  Cr  Cr36  1  0.49908304  0.16427162  0.49718891  1
  Fe  Fe37  1  0.33209564  0.99687291  0.66566864  1
  Fe  Fe38  1  0.49694005  0.16290983  0.83345642  1
  Ni  Ni39  1  0.49744947  0.49879110  0.49591761  1
  Cr  Cr40  1  0.33054106  0.33091513  0.66454415  1
  Cr  Cr41  1  0.49714088  0.49959188  0.83303137  1
  Fe  Fe42  1  0.49798413  0.83059912  0.49750319  1
  Cr  Cr43  1  0.33341157  0.66486151  0.66292180  1
  Fe  Fe44  1  0.49644352  0.83258716  0.83219964  1
  Ni  Ni45  1  0.83301564  0.16725566  0.49815247  1
  Cr  Cr46  1  0.66352138  0.99743963  0.66718203  1
  Fe  Fe47  1  0.83183297  0.16529857  0.83043321  1
  Fe  Fe48  1  0.83120048  0.49513016  0.49792272  1
  Cr  Cr49  1  0.66565248  0.33426009  0.66531120  1
  Fe  Fe50  1  0.83368494  0.49936928  0.83145111  1
  Cr  Cr51  1  0.82894139  0.83344811  0.49759543  1
  Ni  Ni52  1  0.66537399  0.66494745  0.66406658  1
  Fe  Fe53  1  0.83208386  0.82990914  0.83104659  1
" 