4723,Ni21Fe37Cr40_2,-221.728758080804, 175.012648132911,Ni21Fe37Cr40,"# generated using pymatgen
 data_Cr23Fe20Ni11
_symmetry_space_group_name_H-M   'P 1'
_cell_length_a   7.49691149
_cell_length_b   7.49691149
_cell_length_c   10.60223390
_cell_angle_alpha   90.00000000
_cell_angle_beta   90.00000000
_cell_angle_gamma   90.00000000
_symmetry_Int_Tables_number   1
_chemical_formula_structural   Cr23Fe20Ni11
_chemical_formula_sum   'Cr23 Fe20 Ni11'
_cell_volume   595.88458100
_cell_formula_units_Z   1
loop_
 _symmetry_equiv_pos_site_id
 _symmetry_equiv_pos_as_xyz
  1  'x, y, z'
loop_
 _atom_site_type_symbol
 _atom_site_label
 _atom_site_symmetry_multiplicity
 _atom_site_fract_x
 _atom_site_fract_y
 _atom_site_fract_z
 _atom_site_occupancy
  Cr  Cr0  1  0.99579178  0.00037411  0.99800229  1
  Cr  Cr1  1  0.16455889  0.16386680  0.16414870  1
  Fe  Fe2  1  0.99696554  0.99586682  0.33084678  1
  Fe  Fe3  1  0.99785520  0.33188557  -0.00120356  1
  Fe  Fe4  1  0.16518111  0.49729330  0.16227670  1
  Cr  Cr5  1  0.99722080  0.33246914  0.33079907  1
  Cr  Cr6  1  0.99638066  0.66327184  0.00398741  1
  Ni  Ni7  1  0.16362398  0.82917384  0.16416821  1
  Cr  Cr8  1  0.99677260  0.66379344  0.32953294  1
  Cr  Cr9  1  0.33283697  -0.00041230  0.99561189  1
  Cr  Cr10  1  0.50079200  0.16699184  0.16714730  1
  Cr  Cr11  1  0.32980190  0.99727311  0.33409582  1
  Ni  Ni12  1  0.33358980  0.33248221  0.99715290  1
  Fe  Fe13  1  0.49897184  0.49770765  0.16330170  1
  Cr  Cr14  1  0.32962625  0.33235169  0.33138957  1
  Ni  Ni15  1  0.33358759  0.66130084  -0.00041933  1
  Cr  Cr16  1  0.49721226  0.83227117  0.16424040  1
  Cr  Cr17  1  0.32990730  0.66427717  0.33016453  1
  Fe  Fe18  1  0.66434324  0.00030620  0.99752629  1
  Ni  Ni19  1  0.82959293  0.16588097  0.16364576  1
  Fe  Fe20  1  0.66902440  0.99696381  0.33072862  1
  Fe  Fe21  1  0.66436960  0.33064136  0.99798162  1
  Ni  Ni22  1  0.82988640  0.49533978  0.16487000  1
  Fe  Fe23  1  0.66678798  0.33319167  0.32970160  1
  Cr  Cr24  1  0.66530117  0.66419813  0.99759328  1
  Ni  Ni25  1  0.83235909  0.83307313  0.16599371  1
  Cr  Cr26  1  0.66742556  0.66448192  0.33260942  1
  Fe  Fe27  1  0.16220444  0.16392481  0.49953631  1
  Ni  Ni28  1  -0.00159688  0.00098831  0.66292753  1
  Fe  Fe29  1  0.16369682  0.16690402  0.83054531  1
  Fe  Fe30  1  0.16354351  0.49752239  0.49983463  1
  Ni  Ni31  1  -0.00141669  0.32966115  0.66446330  1
  Cr  Cr32  1  0.16545938  0.49837091  0.83275657  1
  Ni  Ni33  1  0.16266315  0.83077147  0.49827900  1
  Cr  Cr34  1  0.99567222  0.66427278  0.66090626  1
  Cr  Cr35  1  0.16403968  0.82953161  0.83239997  1
  Cr  Cr36  1  0.49934102  0.16633237  0.49449444  1
  Cr  Cr37  1  0.33119500  -0.00035961  0.66484978  1
  Ni  Ni38  1  0.49910378  0.16853795  0.83232344  1
  Cr  Cr39  1  0.49817501  0.49656574  0.50060030  1
  Fe  Fe40  1  0.32989143  0.33015787  0.66622383  1
  Fe  Fe41  1  0.49706154  0.49750842  0.83083271  1
  Fe  Fe42  1  0.49924265  0.83083818  0.49860863  1
  Fe  Fe43  1  0.33088780  0.66534978  0.66420285  1
  Fe  Fe44  1  0.49737864  0.82942716  0.83208067  1
  Cr  Cr45  1  0.83088540  0.16438297  0.49712991  1
  Cr  Cr46  1  0.66344595  0.99653485  0.66693070  1
  Fe  Fe47  1  0.83214186  0.16603588  0.83069249  1
  Fe  Fe48  1  0.83166578  0.49767240  0.49913169  1
  Fe  Fe49  1  0.66549594  0.32971211  0.66578626  1
  Cr  Cr50  1  0.83129321  0.49609235  0.82879007  1
  Ni  Ni51  1  0.83415506  0.83222583  0.49783034  1
  Fe  Fe52  1  0.66418253  0.66487226  0.66346016  1
  Cr  Cr53  1  0.83287069  0.83229657  0.83093494  1
" 