5503,Ni21Fe37Cr40_10,-222.360609690118, 175.845694137517,Ni21Fe37Cr40,"# generated using pymatgen
 data_Cr23Fe20Ni11
_symmetry_space_group_name_H-M   'P 1'
_cell_length_a   7.49705352
_cell_length_b   7.49705352
_cell_length_c   10.60243476
_cell_angle_alpha   90.00000000
_cell_angle_beta   90.00000000
_cell_angle_gamma   90.00000000
_symmetry_Int_Tables_number   1
_chemical_formula_structural   Cr23Fe20Ni11
_chemical_formula_sum   'Cr23 Fe20 Ni11'
_cell_volume   595.91844925
_cell_formula_units_Z   1
loop_
 _symmetry_equiv_pos_site_id
 _symmetry_equiv_pos_as_xyz
  1  'x, y, z'
loop_
 _atom_site_type_symbol
 _atom_site_label
 _atom_site_symmetry_multiplicity
 _atom_site_fract_x
 _atom_site_fract_y
 _atom_site_fract_z
 _atom_site_occupancy
  Ni  Ni0  1  0.99657207  0.99614557  -0.00181987  1
  Fe  Fe1  1  0.16298131  0.16069199  0.16433880  1
  Ni  Ni2  1  -0.00191632  0.99580640  0.33272195  1
  Cr  Cr3  1  0.99696683  0.33051110  0.99502730  1
  Cr  Cr4  1  0.16485916  0.50215863  0.16314584  1
  Cr  Cr5  1  -0.00043177  0.33078804  0.33264738  1
  Fe  Fe6  1  0.99710815  0.66827385  -0.00085425  1
  Ni  Ni7  1  0.16249974  0.83262550  0.16315298  1
  Ni  Ni8  1  0.99767460  0.66789675  0.33139360  1
  Fe  Fe9  1  0.33095001  0.99710658  -0.00091650  1
  Fe  Fe10  1  0.49795190  0.16340587  0.16534661  1
  Cr  Cr11  1  0.32992227  -0.00053215  0.33228914  1
  Cr  Cr12  1  0.33125766  0.32989551  0.00143754  1
  Fe  Fe13  1  0.49759759  0.49865367  0.16543608  1
  Fe  Fe14  1  0.33248192  0.32956955  0.33008630  1
  Ni  Ni15  1  0.33148393  0.66668822  0.99791623  1
  Cr  Cr16  1  0.49864209  0.83293043  0.16171562  1
  Cr  Cr17  1  0.32986872  0.66658618  0.33160406  1
  Ni  Ni18  1  0.66685399  0.99638437  0.99649575  1
  Cr  Cr19  1  0.82988649  0.16019967  0.16433834  1
  Ni  Ni20  1  0.66513331  -0.00063136  0.33140999  1
  Cr  Cr21  1  0.66529874  0.33090951  -0.00119905  1
  Cr  Cr22  1  0.83192951  0.49841450  0.16672951  1
  Fe  Fe23  1  0.66314717  0.32890940  0.33111371  1
  Cr  Cr24  1  0.66570072  0.66600921  0.99587074  1
  Fe  Fe25  1  0.83436196  0.83298068  0.16575915  1
  Cr  Cr26  1  0.66772192  0.66623491  0.33273469  1
  Fe  Fe27  1  0.16374707  0.16268100  0.49885695  1
  Fe  Fe28  1  0.99671218  0.99583476  0.66365388  1
  Cr  Cr29  1  0.16205567  0.16306593  0.83053597  1
  Cr  Cr30  1  0.16573149  0.49890377  0.49928837  1
  Fe  Fe31  1  0.99650435  0.32974572  0.66463690  1
  Cr  Cr32  1  0.16529122  0.49990472  0.83152875  1
  Ni  Ni33  1  0.16121323  0.83147888  0.49755757  1
  Cr  Cr34  1  0.99599004  0.66485688  0.66289865  1
  Cr  Cr35  1  0.16572951  0.83055492  0.83374811  1
  Fe  Fe36  1  0.49917087  0.16368190  0.49840333  1
  Cr  Cr37  1  0.33081792  0.99689458  0.66301577  1
  Cr  Cr38  1  0.50087958  0.16202217  0.83155342  1
  Cr  Cr39  1  0.49823539  0.49584144  0.49803464  1
  Fe  Fe40  1  0.33183178  0.33030964  0.66414930  1
  Cr  Cr41  1  0.49655941  0.50043687  0.82993056  1
  Cr  Cr42  1  0.50009463  0.83167044  0.50163092  1
  Ni  Ni43  1  0.33145822  0.66501459  0.66488350  1
  Fe  Fe44  1  0.49852274  0.83191658  0.83071069  1
  Cr  Cr45  1  0.82966332  0.16257240  0.49902546  1
  Ni  Ni46  1  0.66665071  -0.00175210  0.66600402  1
  Fe  Fe47  1  0.83128553  0.16146195  0.83024845  1
  Fe  Fe48  1  0.83161400  0.50025258  0.49781494  1
  Fe  Fe49  1  0.66571318  0.33162253  0.66499374  1
  Fe  Fe50  1  0.83130746  0.49781435  0.82964543  1
  Ni  Ni51  1  0.83274967  0.83454574  0.49614803  1
  Fe  Fe52  1  0.66540380  0.66748083  0.66479520  1
  Fe  Fe53  1  0.83049964  0.83451065  0.83032210  1
" 