4101,Ni21Fe37Cr40_12,-222.168646281874, 175.048705185724,Ni21Fe37Cr40,"# generated using pymatgen
 data_Cr23Fe20Ni11
_symmetry_space_group_name_H-M   'P 1'
_cell_length_a   7.50035515
_cell_length_b   7.50035515
_cell_length_c   10.60710398
_cell_angle_alpha   90.00000000
_cell_angle_beta   90.00000000
_cell_angle_gamma   90.00000000
_symmetry_Int_Tables_number   1
_chemical_formula_structural   Cr23Fe20Ni11
_chemical_formula_sum   'Cr23 Fe20 Ni11'
_cell_volume   596.70610656
_cell_formula_units_Z   1
loop_
 _symmetry_equiv_pos_site_id
 _symmetry_equiv_pos_as_xyz
  1  'x, y, z'
loop_
 _atom_site_type_symbol
 _atom_site_label
 _atom_site_symmetry_multiplicity
 _atom_site_fract_x
 _atom_site_fract_y
 _atom_site_fract_z
 _atom_site_occupancy
  Fe  Fe0  1  0.99678263  0.99437835  0.99689822  1
  Fe  Fe1  1  0.16267705  0.16370774  0.16588298  1
  Fe  Fe2  1  0.99766726  0.99523237  0.33183940  1
  Cr  Cr3  1  0.00009263  0.33121918  0.99693086  1
  Fe  Fe4  1  0.16406852  0.50001236  0.16673060  1
  Fe  Fe5  1  -0.00047905  0.33322122  0.33254593  1
  Fe  Fe6  1  -0.00117406  0.66749405  0.99761796  1
  Fe  Fe7  1  0.16152005  0.82927609  0.16548725  1
  Fe  Fe8  1  -0.00018484  0.66486038  0.33190321  1
  Cr  Cr9  1  0.32862691  0.99696283  0.99475313  1
  Cr  Cr10  1  0.49602417  0.16416400  0.16417158  1
  Cr  Cr11  1  0.32669731  0.99529125  0.33211427  1
  Cr  Cr12  1  0.32877109  0.33017053  0.99651152  1
  Cr  Cr13  1  0.49440135  0.49999084  0.16453437  1
  Fe  Fe14  1  0.32858346  0.33468445  0.33172169  1
  Fe  Fe15  1  0.32984583  0.66511230  0.99683320  1
  Cr  Cr16  1  0.49808021  0.82922010  0.16308233  1
  Ni  Ni17  1  0.32513418  0.66260297  0.33164098  1
  Fe  Fe18  1  0.66549401  0.99497282  0.99626692  1
  Cr  Cr19  1  0.83420609  0.16142709  0.16512277  1
  Cr  Cr20  1  0.66805363  0.99738933  0.33081071  1
  Cr  Cr21  1  0.66463173  0.33174610  -0.00175402  1
  Cr  Cr22  1  0.83394175  0.50088691  0.16321151  1
  Cr  Cr23  1  0.66739741  0.33274975  0.33337541  1
  Ni  Ni24  1  0.66679820  0.66951293  0.99685821  1
  Ni  Ni25  1  0.83614638  0.83098451  0.16090558  1
  Cr  Cr26  1  0.66640035  0.66302723  0.33324510  1
  Cr  Cr27  1  0.16093263  0.16419714  0.49726179  1
  Ni  Ni28  1  0.99683470  0.99609800  0.66464933  1
  Fe  Fe29  1  0.16407943  0.16292805  0.82958565  1
  Ni  Ni30  1  0.16196541  0.49974663  0.49589067  1
  Fe  Fe31  1  0.99717606  0.33141656  0.66261961  1
  Fe  Fe32  1  0.16440001  0.49944456  0.83030504  1
  Ni  Ni33  1  0.16209015  0.82753039  0.49678311  1
  Fe  Fe34  1  -0.00163195  0.66410912  0.66307556  1
  Fe  Fe35  1  0.16244233  0.83087586  0.83034375  1
  Cr  Cr36  1  0.49948176  0.16493865  0.49873451  1
  Cr  Cr37  1  0.32855731  0.99599834  0.66634236  1
  Ni  Ni38  1  0.49842685  0.16111067  0.83066023  1
  Fe  Fe39  1  0.49720331  0.49788105  0.49809052  1
  Cr  Cr40  1  0.33136363  0.33147022  0.66592112  1
  Cr  Cr41  1  0.49838043  0.49958326  0.83210235  1
  Cr  Cr42  1  0.49548684  0.82952608  0.49844564  1
  Cr  Cr43  1  0.32915199  0.66574443  0.66375394  1
  Ni  Ni44  1  0.49822711  0.83216539  0.83289544  1
  Ni  Ni45  1  0.83346425  0.16728579  0.49972099  1
  Fe  Fe46  1  0.66515766  -0.00114392  0.66580508  1
  Cr  Cr47  1  0.83164349  0.16311530  0.82868829  1
  Ni  Ni48  1  0.83473718  0.49586313  0.50025268  1
  Ni  Ni49  1  0.66754377  0.33198670  0.66229451  1
  Cr  Cr50  1  0.83373347  0.49988063  0.82967026  1
  Cr  Cr51  1  0.83394863  0.83190698  0.50033913  1
  Fe  Fe52  1  0.66578327  0.66448958  0.66515855  1
  Fe  Fe53  1  0.82931456  0.83165227  0.83146674  1
" 