3467,Ni21Fe37Cr40_0,-222.112116434106, 176.540216373817,Ni21Fe37Cr40,"# generated using pymatgen
 data_Cr23Fe20Ni11
_symmetry_space_group_name_H-M   'P 1'
_cell_length_a   7.49600283
_cell_length_b   7.49600283
_cell_length_c   10.60094886
_cell_angle_alpha   90.00000000
_cell_angle_beta   90.00000000
_cell_angle_gamma   90.00000000
_symmetry_Int_Tables_number   1
_chemical_formula_structural   Cr23Fe20Ni11
_chemical_formula_sum   'Cr23 Fe20 Ni11'
_cell_volume   595.66793539
_cell_formula_units_Z   1
loop_
 _symmetry_equiv_pos_site_id
 _symmetry_equiv_pos_as_xyz
  1  'x, y, z'
loop_
 _atom_site_type_symbol
 _atom_site_label
 _atom_site_symmetry_multiplicity
 _atom_site_fract_x
 _atom_site_fract_y
 _atom_site_fract_z
 _atom_site_occupancy
  Fe  Fe0  1  0.99717336  0.99443597  0.99578894  1
  Cr  Cr1  1  0.16416113  0.16439185  0.16342054  1
  Fe  Fe2  1  -0.00092865  0.99647178  0.33292880  1
  Cr  Cr3  1  0.99562092  0.33274775  0.99552765  1
  Fe  Fe4  1  0.16378624  0.50156399  0.16585715  1
  Cr  Cr5  1  -0.00072624  0.33193891  0.33554344  1
  Fe  Fe6  1  -0.00172779  0.66921543  0.99707800  1
  Ni  Ni7  1  0.16095772  0.82977436  0.16549374  1
  Fe  Fe8  1  -0.00041193  0.66658293  0.33205927  1
  Cr  Cr9  1  0.33045395  0.99422810  0.99642804  1
  Fe  Fe10  1  0.49688677  0.16389065  0.16545733  1
  Cr  Cr11  1  0.32828218  0.99644395  0.33223856  1
  Cr  Cr12  1  0.33137287  0.33287769  -0.00011378  1
  Cr  Cr13  1  0.49758564  0.49796345  0.16670452  1
  Fe  Fe14  1  0.33074170  0.33278611  0.33337730  1
  Cr  Cr15  1  0.33000604  0.66754152  0.99543921  1
  Cr  Cr16  1  0.49911015  0.82873669  0.16731495  1
  Fe  Fe17  1  0.32876472  0.66329276  0.33341878  1
  Cr  Cr18  1  0.66576004  0.99712877  0.99791301  1
  Cr  Cr19  1  0.83321139  0.16283624  0.16440955  1
  Cr  Cr20  1  0.66665121  0.99781112  0.33034986  1
  Cr  Cr21  1  0.66654407  0.33134156  0.99650986  1
  Cr  Cr22  1  0.83269722  0.50207404  0.16405215  1
  Cr  Cr23  1  0.66728935  0.33155953  0.33231646  1
  Cr  Cr24  1  0.66578132  0.66555215  0.99371319  1
  Fe  Fe25  1  0.83462324  0.82997352  0.16535538  1
  Ni  Ni26  1  0.66629730  0.66303341  0.33315112  1
  Ni  Ni27  1  0.16366372  0.16565614  0.50126628  1
  Fe  Fe28  1  0.99666120  0.99566270  0.66444749  1
  Cr  Cr29  1  0.16285260  0.16399680  0.82889641  1
  Fe  Fe30  1  0.16553623  0.49981398  0.49977585  1
  Fe  Fe31  1  0.99716790  0.33188751  0.66303414  1
  Cr  Cr32  1  0.16335569  0.49814017  0.83153539  1
  Ni  Ni33  1  0.16238231  0.83205907  0.49863803  1
  Fe  Fe34  1  0.99666919  0.66628329  0.66504472  1
  Ni  Ni35  1  0.16133614  0.83094668  0.82979597  1
  Cr  Cr36  1  0.49751085  0.16547963  0.49966991  1
  Ni  Ni37  1  0.32700812  0.99723258  0.66515436  1
  Cr  Cr38  1  0.49757036  0.16543431  0.83011120  1
  Fe  Fe39  1  0.49880816  0.49887039  0.49920604  1
  Fe  Fe40  1  0.33312944  0.33287336  0.66341270  1
  Fe  Fe41  1  0.50014483  0.49891324  0.82832913  1
  Cr  Cr42  1  0.49921263  0.82942249  0.49972454  1
  Cr  Cr43  1  0.33043652  0.66875401  0.66564134  1
  Ni  Ni44  1  0.49985759  0.83105396  0.82730056  1
  Fe  Fe45  1  0.83327419  0.16327659  0.50182024  1
  Fe  Fe46  1  0.66487770  0.99634413  0.66656798  1
  Ni  Ni47  1  0.83120922  0.16373754  0.82769342  1
  Fe  Fe48  1  0.83146935  0.49901148  0.50020407  1
  Ni  Ni49  1  0.66962933  0.33324449  0.66460634  1
  Fe  Fe50  1  0.83165506  0.49928936  0.82795859  1
  Cr  Cr51  1  0.83131505  0.82924721  0.49687489  1
  Ni  Ni52  1  0.66692960  0.66213464  0.66618299  1
  Ni  Ni53  1  0.83207870  0.83074567  0.83108004  1
" 