7807,Ni21Fe37Cr40_15,-221.928374474381, 173.714720588706,Ni21Fe37Cr40,"# generated using pymatgen
 data_Cr23Fe20Ni11
_symmetry_space_group_name_H-M   'P 1'
_cell_length_a   7.50309215
_cell_length_b   7.50309215
_cell_length_c   10.61097468
_cell_angle_alpha   90.00000000
_cell_angle_beta   90.00000000
_cell_angle_gamma   90.00000000
_symmetry_Int_Tables_number   1
_chemical_formula_structural   Cr23Fe20Ni11
_chemical_formula_sum   'Cr23 Fe20 Ni11'
_cell_volume   597.35958775
_cell_formula_units_Z   1
loop_
 _symmetry_equiv_pos_site_id
 _symmetry_equiv_pos_as_xyz
  1  'x, y, z'
loop_
 _atom_site_type_symbol
 _atom_site_label
 _atom_site_symmetry_multiplicity
 _atom_site_fract_x
 _atom_site_fract_y
 _atom_site_fract_z
 _atom_site_occupancy
  Fe  Fe0  1  -0.00082036  -0.00190193  0.99655741  1
  Cr  Cr1  1  0.16507054  0.16549471  0.16296491  1
  Cr  Cr2  1  0.99718915  0.99654371  0.33348906  1
  Fe  Fe3  1  -0.00070153  0.33053731  0.99751760  1
  Ni  Ni4  1  0.16714311  0.49912241  0.16447908  1
  Cr  Cr5  1  0.99622870  0.33191506  0.33238463  1
  Fe  Fe6  1  -0.00002628  0.66453351  -0.00132840  1
  Ni  Ni7  1  0.16492012  0.83026653  0.16225727  1
  Cr  Cr8  1  0.00234256  0.66456158  0.33065175  1
  Fe  Fe9  1  0.32999057  -0.00227243  -0.00222549  1
  Fe  Fe10  1  0.49805138  0.16254818  0.16353398  1
  Cr  Cr11  1  0.33036911  0.99200851  0.33022855  1
  Fe  Fe12  1  0.33050847  0.33204767  -0.00083698  1
  Ni  Ni13  1  0.49606719  0.49923117  0.16483678  1
  Cr  Cr14  1  0.33221702  0.33572039  0.32952123  1
  Cr  Cr15  1  0.32903353  0.66487064  -0.00003640  1
  Fe  Fe16  1  0.49674540  0.82908452  0.16545686  1
  Fe  Fe17  1  0.33392773  0.66402284  0.33032422  1
  Fe  Fe18  1  0.66391590  -0.00148124  -0.00137665  1
  Fe  Fe19  1  0.83089660  0.16302243  0.16359320  1
  Ni  Ni20  1  0.66381258  0.99583281  0.32925858  1
  Cr  Cr21  1  0.66387164  0.33006418  -0.00155560  1
  Cr  Cr22  1  0.83257311  0.50037714  0.16409124  1
  Cr  Cr23  1  0.66421184  0.33155744  0.32932299  1
  Cr  Cr24  1  0.66086453  0.66101949  0.99601620  1
  Cr  Cr25  1  0.82875742  0.83137706  0.16346095  1
  Ni  Ni26  1  0.66101048  0.66480318  0.33338030  1
  Cr  Cr27  1  0.16480892  0.16760132  0.50000289  1
  Cr  Cr28  1  -0.00224112  0.99699119  0.66419859  1
  Ni  Ni29  1  0.16315230  0.16564908  0.83219231  1
  Fe  Fe30  1  0.16538443  0.49930363  0.49965182  1
  Fe  Fe31  1  -0.00235279  0.33101203  0.66391973  1
  Cr  Cr32  1  0.16476716  0.49578333  0.83027982  1
  Fe  Fe33  1  0.16557709  0.82682994  0.49845473  1
  Ni  Ni34  1  0.00068040  0.66375862  0.66287565  1
  Fe  Fe35  1  0.16311910  0.83104875  0.83192692  1
  Cr  Cr36  1  0.49668132  0.16409181  0.49600013  1
  Cr  Cr37  1  0.32763482  0.99400855  0.66560223  1
  Cr  Cr38  1  0.49337214  0.16454814  0.83153118  1
  Ni  Ni39  1  0.49653608  0.50347710  0.49984298  1
  Fe  Fe40  1  0.32968761  0.33416365  0.66373092  1
  Fe  Fe41  1  0.49530199  0.49688854  0.82892364  1
  Fe  Fe42  1  0.49917670  0.82869510  0.49750080  1
  Ni  Ni43  1  0.32904837  0.66213139  0.66237265  1
  Cr  Cr44  1  0.49812610  0.82896040  0.82903436  1
  Ni  Ni45  1  0.83074844  0.16279716  0.49637718  1
  Cr  Cr46  1  0.66673887  -0.00005610  0.66335148  1
  Ni  Ni47  1  0.83474101  0.16404944  0.83364179  1
  Fe  Fe48  1  0.82983596  0.49882646  0.49887008  1
  Cr  Cr49  1  0.66546498  0.33197697  0.66489134  1
  Cr  Cr50  1  0.83293756  0.50010979  0.82919010  1
  Fe  Fe51  1  0.82807453  0.82865610  0.49707825  1
  Fe  Fe52  1  0.66383242  0.66485852  0.66108850  1
  Cr  Cr53  1  0.83128823  0.82922537  0.83179581  1
" 