4315,Ni21Fe37Cr40_17,-222.024143150341, 181.098205792328,Ni21Fe37Cr40,"# generated using pymatgen
 data_Cr23Fe20Ni11
_symmetry_space_group_name_H-M   'P 1'
_cell_length_a   7.49157384
_cell_length_b   7.49157384
_cell_length_c   10.59468533
_cell_angle_alpha   90.00000000
_cell_angle_beta   90.00000000
_cell_angle_gamma   90.00000000
_symmetry_Int_Tables_number   1
_chemical_formula_structural   Cr23Fe20Ni11
_chemical_formula_sum   'Cr23 Fe20 Ni11'
_cell_volume   594.61271386
_cell_formula_units_Z   1
loop_
 _symmetry_equiv_pos_site_id
 _symmetry_equiv_pos_as_xyz
  1  'x, y, z'
loop_
 _atom_site_type_symbol
 _atom_site_label
 _atom_site_symmetry_multiplicity
 _atom_site_fract_x
 _atom_site_fract_y
 _atom_site_fract_z
 _atom_site_occupancy
  Cr  Cr0  1  -0.00094701  0.99751205  0.99810548  1
  Cr  Cr1  1  0.16447307  0.16141361  0.16603080  1
  Fe  Fe2  1  -0.00129813  -0.00160115  0.33215185  1
  Cr  Cr3  1  0.99689417  0.33333226  0.00077919  1
  Cr  Cr4  1  0.16560582  0.50186762  0.16574487  1
  Fe  Fe5  1  0.99472456  0.33142717  0.33208966  1
  Fe  Fe6  1  -0.00014314  0.66614645  0.99759559  1
  Fe  Fe7  1  0.16877897  0.83112356  0.16479432  1
  Cr  Cr8  1  0.99737758  0.66283002  0.33244226  1
  Ni  Ni9  1  0.33206422  0.99417709  0.99675436  1
  Cr  Cr10  1  0.49939323  0.16293414  0.16475713  1
  Ni  Ni11  1  0.33215569  0.99556842  0.33143990  1
  Cr  Cr12  1  0.33144395  0.33147389  0.99453957  1
  Cr  Cr13  1  0.49914961  0.50128214  0.16614151  1
  Cr  Cr14  1  0.33011145  0.33208191  0.33363111  1
  Ni  Ni15  1  0.33191996  0.67006784  -0.00097975  1
  Fe  Fe16  1  0.49525813  0.83086691  0.16568187  1
  Ni  Ni17  1  0.33348643  0.66839629  0.33098079  1
  Fe  Fe18  1  0.66195392  0.99683739  0.99713173  1
  Fe  Fe19  1  0.83167682  0.16726209  0.16712574  1
  Cr  Cr20  1  0.66479964  0.99737678  0.33258986  1
  Cr  Cr21  1  0.66672990  0.33266526  -0.00112740  1
  Ni  Ni22  1  0.83076987  0.49844531  0.16669820  1
  Fe  Fe23  1  0.66757112  0.33349469  0.33187505  1
  Cr  Cr24  1  0.66502526  0.66600976  0.99775748  1
  Cr  Cr25  1  0.83188551  0.83217346  0.16411549  1
  Ni  Ni26  1  0.66511023  0.66495477  0.33253649  1
  Cr  Cr27  1  0.16495662  0.16481476  0.49809280  1
  Cr  Cr28  1  0.99739285  0.99689570  0.66485236  1
  Fe  Fe29  1  0.16671852  0.16250092  0.83167928  1
  Fe  Fe30  1  0.16426238  0.49781652  0.49850084  1
  Cr  Cr31  1  -0.00094279  0.33301026  0.66409354  1
  Cr  Cr32  1  0.16657632  0.50072591  0.83090104  1
  Cr  Cr33  1  0.16470842  0.83057937  0.49629829  1
  Fe  Fe34  1  0.99620958  0.66583590  0.66562304  1
  Ni  Ni35  1  0.16460409  0.83068914  0.83470261  1
  Fe  Fe36  1  0.49928504  0.16489011  0.49829101  1
  Cr  Cr37  1  0.33277775  0.00002447  0.66644890  1
  Fe  Fe38  1  0.49642561  0.16380803  0.83200513  1
  Cr  Cr39  1  0.49915091  0.49884851  0.49824747  1
  Ni  Ni40  1  0.33296429  0.33135588  0.66664878  1
  Fe  Fe41  1  0.49994083  0.50020757  0.82994649  1
  Fe  Fe42  1  0.49990227  0.83149971  0.49643262  1
  Cr  Cr43  1  0.33317992  0.66483428  0.66426837  1
  Fe  Fe44  1  0.49817608  0.83099113  0.83305449  1
  Ni  Ni45  1  0.83004317  0.16622000  0.49483160  1
  Cr  Cr46  1  0.66474690  0.99559935  0.66445126  1
  Cr  Cr47  1  0.82914428  0.16337392  0.83340630  1
  Fe  Fe48  1  0.83112382  0.49828304  0.49779311  1
  Fe  Fe49  1  0.66339873  0.33252979  0.66485408  1
  Fe  Fe50  1  0.83114851  0.50232360  0.83071135  1
  Fe  Fe51  1  0.82956262  0.83020336  0.49888472  1
  Ni  Ni52  1  0.66808839  0.66426758  0.66512124  1
  Ni  Ni53  1  0.83209032  0.82935772  0.83008239  1
" 