7115,Ni21Fe37Cr40_11,-222.590681111666, 176.410475515034,Ni21Fe37Cr40,"# generated using pymatgen
 data_Cr23Fe20Ni11
_symmetry_space_group_name_H-M   'P 1'
_cell_length_a   7.49990623
_cell_length_b   7.49990623
_cell_length_c   10.60646911
_cell_angle_alpha   90.00000000
_cell_angle_beta   90.00000000
_cell_angle_gamma   90.00000000
_symmetry_Int_Tables_number   1
_chemical_formula_structural   Cr23Fe20Ni11
_chemical_formula_sum   'Cr23 Fe20 Ni11'
_cell_volume   596.59896927
_cell_formula_units_Z   1
loop_
 _symmetry_equiv_pos_site_id
 _symmetry_equiv_pos_as_xyz
  1  'x, y, z'
loop_
 _atom_site_type_symbol
 _atom_site_label
 _atom_site_symmetry_multiplicity
 _atom_site_fract_x
 _atom_site_fract_y
 _atom_site_fract_z
 _atom_site_occupancy
  Cr  Cr0  1  0.00011234  -0.00075587  0.99653708  1
  Cr  Cr1  1  0.16375683  0.16587122  0.16593793  1
  Fe  Fe2  1  0.99569170  0.00047837  0.33335939  1
  Cr  Cr3  1  0.99461361  0.33083998  -0.00132952  1
  Cr  Cr4  1  0.16612028  0.49796189  0.16657749  1
  Ni  Ni5  1  0.99605944  0.32722232  0.33212285  1
  Cr  Cr6  1  -0.00215821  0.66345309  0.99744886  1
  Fe  Fe7  1  0.16507915  0.83116907  0.16610198  1
  Cr  Cr8  1  -0.00164888  0.66336603  0.32984835  1
  Cr  Cr9  1  0.33002067  -0.00216777  0.99711220  1
  Fe  Fe10  1  0.50064336  0.16661752  0.16467160  1
  Cr  Cr11  1  0.33016169  0.99731914  0.33167057  1
  Fe  Fe12  1  0.33277961  0.33172689  -0.00163659  1
  Ni  Ni13  1  0.49794227  0.49838020  0.16504953  1
  Cr  Cr14  1  0.33003161  0.33154750  0.33136731  1
  Cr  Cr15  1  0.33147444  0.66603606  0.99753557  1
  Cr  Cr16  1  0.50001850  0.83115435  0.16683037  1
  Ni  Ni17  1  0.33380558  0.66619248  0.33313938  1
  Cr  Cr18  1  0.66400971  0.00005061  -0.00201665  1
  Ni  Ni19  1  0.83038374  0.16412325  0.16630270  1
  Ni  Ni20  1  0.66634015  0.99770777  0.33317063  1
  Fe  Fe21  1  0.66355360  0.33174177  0.00031805  1
  Fe  Fe22  1  0.82841345  0.49574709  0.16637751  1
  Cr  Cr23  1  0.66705603  0.33063374  0.33064839  1
  Cr  Cr24  1  0.66429047  0.66061944  0.99672346  1
  Cr  Cr25  1  0.83013403  0.83300436  0.16773969  1
  Ni  Ni26  1  0.66168541  0.66578403  0.33305877  1
  Ni  Ni27  1  0.16135292  0.16395045  0.49977951  1
  Fe  Fe28  1  -0.00033535  -0.00013773  0.66397088  1
  Ni  Ni29  1  0.16471072  0.16627424  0.82771228  1
  Cr  Cr30  1  0.16565208  0.49595626  0.49777437  1
  Ni  Ni31  1  -0.00165927  0.32836914  0.66451201  1
  Cr  Cr32  1  0.16419347  0.49575647  0.82903006  1
  Fe  Fe33  1  0.16368732  0.83302994  0.49863043  1
  Fe  Fe34  1  -0.00147267  0.66494168  0.66409481  1
  Fe  Fe35  1  0.16689300  0.83336304  0.82762484  1
  Cr  Cr36  1  0.49785806  0.16346996  0.49725954  1
  Fe  Fe37  1  0.32778761  0.99772129  0.66488341  1
  Cr  Cr38  1  0.49678918  0.16542392  0.83280636  1
  Fe  Fe39  1  0.49760467  0.49842656  0.49629870  1
  Fe  Fe40  1  0.33088269  0.32950149  0.66367493  1
  Fe  Fe41  1  0.49731162  0.49669317  0.83070259  1
  Fe  Fe42  1  0.49769347  0.83000584  0.49664399  1
  Fe  Fe43  1  0.33056882  0.66593355  0.66376432  1
  Ni  Ni44  1  0.49682219  0.83031776  0.82869662  1
  Ni  Ni45  1  0.83429826  0.16195766  0.49825000  1
  Cr  Cr46  1  0.66397955  -0.00192105  0.66328743  1
  Fe  Fe47  1  0.83274234  0.16679589  0.82884763  1
  Cr  Cr48  1  0.83267962  0.49800036  0.49734329  1
  Fe  Fe49  1  0.66674021  0.33040972  0.66407319  1
  Fe  Fe50  1  0.82996846  0.49358552  0.82808141  1
  Fe  Fe51  1  0.83185268  0.83385409  0.49600069  1
  Cr  Cr52  1  0.66190719  0.66317364  0.66316899  1
  Cr  Cr53  1  0.83082806  0.83103009  0.83012830  1
" 