5242,Ni21Fe37Cr40_19,-221.929242564057, 178.514202178492,Ni21Fe37Cr40,"# generated using pymatgen
 data_Cr23Fe20Ni11
_symmetry_space_group_name_H-M   'P 1'
_cell_length_a   7.49511894
_cell_length_b   7.49511894
_cell_length_c   10.59969886
_cell_angle_alpha   90.00000000
_cell_angle_beta   90.00000000
_cell_angle_gamma   90.00000000
_symmetry_Int_Tables_number   1
_chemical_formula_structural   Cr23Fe20Ni11
_chemical_formula_sum   'Cr23 Fe20 Ni11'
_cell_volume   595.45724710
_cell_formula_units_Z   1
loop_
 _symmetry_equiv_pos_site_id
 _symmetry_equiv_pos_as_xyz
  1  'x, y, z'
loop_
 _atom_site_type_symbol
 _atom_site_label
 _atom_site_symmetry_multiplicity
 _atom_site_fract_x
 _atom_site_fract_y
 _atom_site_fract_z
 _atom_site_occupancy
  Fe  Fe0  1  0.99656600  0.00015553  0.99727623  1
  Fe  Fe1  1  0.16481443  0.16507705  0.16644430  1
  Fe  Fe2  1  0.99525566  0.99783415  0.33141033  1
  Cr  Cr3  1  0.99785450  0.33166932  -0.00137845  1
  Cr  Cr4  1  0.16490559  0.50095986  0.16693015  1
  Ni  Ni5  1  -0.00120392  0.33246846  0.33073614  1
  Fe  Fe6  1  0.99634791  0.66415921  0.99776559  1
  Cr  Cr7  1  0.16288696  0.83242096  0.16464252  1
  Ni  Ni8  1  0.99578504  0.66201561  0.33269770  1
  Fe  Fe9  1  0.33524839  0.00024549  0.99771127  1
  Ni  Ni10  1  0.50063383  0.16407926  0.16305492  1
  Cr  Cr11  1  0.33578359  0.99685473  0.32920388  1
  Cr  Cr12  1  0.33074065  0.32834650  0.99590960  1
  Cr  Cr13  1  0.49851375  0.49506050  0.16371331  1
  Fe  Fe14  1  0.33077262  0.33144099  0.33023150  1
  Cr  Cr15  1  0.33293706  0.66816115  -0.00134246  1
  Fe  Fe16  1  0.49927403  0.83429550  0.16354651  1
  Fe  Fe17  1  0.33074166  0.66285571  0.33254943  1
  Ni  Ni18  1  0.66246906  -0.00123372  0.99801790  1
  Fe  Fe19  1  0.83194186  0.16446010  0.16392263  1
  Fe  Fe20  1  0.66744661  0.99761505  0.32993358  1
  Ni  Ni21  1  0.66602478  0.32748945  0.00037430  1
  Fe  Fe22  1  0.83309132  0.49783769  0.16450560  1
  Cr  Cr23  1  0.66842520  0.33191801  0.32778092  1
  Cr  Cr24  1  0.66456408  0.66558578  -0.00134114  1
  Cr  Cr25  1  0.83448091  0.83355790  0.16248264  1
  Cr  Cr26  1  0.66432798  0.66779071  0.33200900  1
  Cr  Cr27  1  0.16545383  0.16583032  0.49585454  1
  Cr  Cr28  1  0.99812472  0.99727017  0.66517761  1
  Fe  Fe29  1  0.16640163  0.16457033  0.83144368  1
  Fe  Fe30  1  0.16230228  0.49923281  0.49714847  1
  Cr  Cr31  1  0.99807712  0.33309634  0.66412374  1
  Fe  Fe32  1  0.16623339  0.49939873  0.82971492  1
  Cr  Cr33  1  0.16192726  0.82872215  0.49502573  1
  Ni  Ni34  1  0.99806515  0.66385628  0.66527604  1
  Cr  Cr35  1  0.16084429  0.82993958  0.83506977  1
  Cr  Cr36  1  0.50043018  0.16734316  0.50087875  1
  Cr  Cr37  1  0.33313069  0.99735957  0.66807851  1
  Ni  Ni38  1  0.49994494  0.16451813  0.83120788  1
  Cr  Cr39  1  0.49569167  0.49707541  0.50044094  1
  Fe  Fe40  1  0.33028049  0.33278215  0.66702835  1
  Cr  Cr41  1  0.49877294  0.49571951  0.83006105  1
  Fe  Fe42  1  0.50002893  0.83231978  0.50029535  1
  Ni  Ni43  1  0.33104910  0.66606204  0.66359547  1
  Ni  Ni44  1  0.49726911  0.83300043  0.83118068  1
  Cr  Cr45  1  0.82968163  0.16210263  0.49696558  1
  Fe  Fe46  1  0.66471384  0.99491592  0.66639947  1
  Cr  Cr47  1  0.82758703  0.16334354  0.83203953  1
  Fe  Fe48  1  0.83254768  0.49909140  0.49882635  1
  Ni  Ni49  1  0.66497672  0.33165587  0.66592830  1
  Cr  Cr50  1  0.83025996  0.49924832  0.83247843  1
  Ni  Ni51  1  0.83201661  0.82892526  0.50036489  1
  Fe  Fe52  1  0.66533472  0.66661646  0.66447048  1
  Fe  Fe53  1  0.82710192  0.83176015  0.83101499  1
" 