914,Ni21Fe37Cr40_5,-222.443393680966, 178.240954104022,Ni21Fe37Cr40,"# generated using pymatgen
 data_Cr23Fe20Ni11
_symmetry_space_group_name_H-M   'P 1'
_cell_length_a   7.50550104
_cell_length_b   7.50550104
_cell_length_c   10.61438136
_cell_angle_alpha   90.00000000
_cell_angle_beta   90.00000000
_cell_angle_gamma   90.00000000
_symmetry_Int_Tables_number   1
_chemical_formula_structural   Cr23Fe20Ni11
_chemical_formula_sum   'Cr23 Fe20 Ni11'
_cell_volume   597.93512384
_cell_formula_units_Z   1
loop_
 _symmetry_equiv_pos_site_id
 _symmetry_equiv_pos_as_xyz
  1  'x, y, z'
loop_
 _atom_site_type_symbol
 _atom_site_label
 _atom_site_symmetry_multiplicity
 _atom_site_fract_x
 _atom_site_fract_y
 _atom_site_fract_z
 _atom_site_occupancy
  Ni  Ni0  1  0.99696208  0.99568163  -0.00214008  1
  Cr  Cr1  1  0.16476829  0.16574381  0.15862202  1
  Cr  Cr2  1  -0.00254204  0.99623752  0.32924919  1
  Cr  Cr3  1  0.99427969  0.33079643  -0.00231357  1
  Fe  Fe4  1  0.16623223  0.49725429  0.16535091  1
  Cr  Cr5  1  0.99619436  0.33266382  0.33075602  1
  Cr  Cr6  1  -0.00245869  0.66528307  -0.00004086  1
  Fe  Fe7  1  0.16344591  0.83038046  0.16396057  1
  Fe  Fe8  1  0.00011186  0.66183549  0.32952056  1
  Fe  Fe9  1  0.33049117  -0.00137487  0.99518756  1
  Cr  Cr10  1  0.49688301  0.16697841  0.16459255  1
  Cr  Cr11  1  0.32927349  0.99704220  0.33312475  1
  Ni  Ni12  1  0.33390492  0.33110843  0.99590390  1
  Cr  Cr13  1  0.49728348  0.49490826  0.16365612  1
  Ni  Ni14  1  0.33165341  0.33523529  0.33333456  1
  Cr  Cr15  1  0.33035932  0.66359149  0.99666295  1
  Cr  Cr16  1  0.49859058  0.83027640  0.16426279  1
  Fe  Fe17  1  0.32727998  0.66003742  0.33222664  1
  Cr  Cr18  1  0.66582376  -0.00115762  0.99544262  1
  Fe  Fe19  1  0.82864455  0.16578117  0.16315532  1
  Cr  Cr20  1  0.66577116  0.00219001  0.33311096  1
  Ni  Ni21  1  0.66305419  0.32973995  0.99624172  1
  Fe  Fe22  1  0.82938217  0.49489454  0.16421547  1
  Ni  Ni23  1  0.66365893  0.33268537  0.33263542  1
  Cr  Cr24  1  0.66450871  0.66089253  0.99309558  1
  Fe  Fe25  1  0.83278886  0.83155650  0.16371951  1
  Cr  Cr26  1  0.66539003  0.66051034  0.32933982  1
  Cr  Cr27  1  0.16439565  0.16891209  0.50084902  1
  Cr  Cr28  1  0.99641533  -0.00099964  0.66478108  1
  Cr  Cr29  1  0.16443394  0.16627125  0.83291230  1
  Fe  Fe30  1  0.16514148  0.49956876  0.49917291  1
  Fe  Fe31  1  0.99592932  0.33308998  0.66372133  1
  Cr  Cr32  1  0.16475212  0.49618425  0.82814976  1
  Fe  Fe33  1  0.16315087  0.82688158  0.49839047  1
  Fe  Fe34  1  -0.00219133  0.66172368  0.66440357  1
  Fe  Fe35  1  0.16371861  0.83176245  0.83093773  1
  Fe  Fe36  1  0.49832383  0.16914844  0.49718049  1
  Cr  Cr37  1  0.33149755  -0.00239372  0.66535971  1
  Ni  Ni38  1  0.49768250  0.16634862  0.83248942  1
  Fe  Fe39  1  0.49691229  0.49504945  0.49796710  1
  Ni  Ni40  1  0.33202930  0.33487788  0.66301650  1
  Fe  Fe41  1  0.49742324  0.49327469  0.82951327  1
  Cr  Cr42  1  0.49806711  0.82563718  0.49797754  1
  Ni  Ni43  1  0.33092711  0.66137211  0.66268132  1
  Fe  Fe44  1  0.49686845  0.83049555  0.82851019  1
  Ni  Ni45  1  0.83109063  0.16821143  0.49617170  1
  Cr  Cr46  1  0.66448673  -0.00061103  0.66367277  1
  Ni  Ni47  1  0.82969156  0.16400548  0.83277301  1
  Fe  Fe48  1  0.83018874  0.49646604  0.49858936  1
  Cr  Cr49  1  0.66437740  0.33064561  0.66358631  1
  Fe  Fe50  1  0.82884865  0.49461741  0.82973667  1
  Cr  Cr51  1  0.83057588  0.82763146  0.49877262  1
  Ni  Ni52  1  0.66330738  0.66108704  0.66777691  1
  Fe  Fe53  1  0.83188942  0.83163872  0.82970307  1
" 