4792,Ni21Fe37Cr40_3,-222.274188433502, 180.763733555905,Ni21Fe37Cr40,"# generated using pymatgen
 data_Cr23Fe20Ni11
_symmetry_space_group_name_H-M   'P 1'
_cell_length_a   7.49020915
_cell_length_b   7.49020915
_cell_length_c   10.59275537
_cell_angle_alpha   90.00000000
_cell_angle_beta   90.00000000
_cell_angle_gamma   90.00000000
_symmetry_Int_Tables_number   1
_chemical_formula_structural   Cr23Fe20Ni11
_chemical_formula_sum   'Cr23 Fe20 Ni11'
_cell_volume   594.28782460
_cell_formula_units_Z   1
loop_
 _symmetry_equiv_pos_site_id
 _symmetry_equiv_pos_as_xyz
  1  'x, y, z'
loop_
 _atom_site_type_symbol
 _atom_site_label
 _atom_site_symmetry_multiplicity
 _atom_site_fract_x
 _atom_site_fract_y
 _atom_site_fract_z
 _atom_site_occupancy
  Cr  Cr0  1  0.99679538  0.00073085  0.99723571  1
  Cr  Cr1  1  0.16643350  0.16584453  0.16740053  1
  Fe  Fe2  1  0.99717804  0.00021670  0.33483778  1
  Cr  Cr3  1  0.99424547  0.33118392  0.99617870  1
  Cr  Cr4  1  0.16227587  0.49786748  0.16666027  1
  Ni  Ni5  1  0.99492460  0.32962544  0.33323991  1
  Fe  Fe6  1  0.99520600  0.66181816  0.99825968  1
  Cr  Cr7  1  0.16205964  0.83165068  0.16433913  1
  Fe  Fe8  1  0.99643520  0.66318870  0.33389386  1
  Cr  Cr9  1  0.33198077  0.99834202  0.99812761  1
  Cr  Cr10  1  0.50009829  0.16627506  0.16528325  1
  Fe  Fe11  1  0.33136121  -0.00074799  0.33384664  1
  Ni  Ni12  1  0.33344986  0.33157171  -0.00117033  1
  Cr  Cr13  1  0.50123392  0.49458768  0.16467640  1
  Fe  Fe14  1  0.33069165  0.33100724  0.33295813  1
  Cr  Cr15  1  0.33421459  0.66527224  -0.00140131  1
  Fe  Fe16  1  0.50084540  0.83167852  0.16586928  1
  Cr  Cr17  1  0.33354674  0.66766890  0.33452379  1
  Fe  Fe18  1  0.66594760  0.00126155  -0.00118472  1
  Fe  Fe19  1  0.83076560  0.16874195  0.16696067  1
  Fe  Fe20  1  0.66695660  -0.00061360  0.33276759  1
  Ni  Ni21  1  0.66786386  0.33297789  -0.00127887  1
  Ni  Ni22  1  0.83026815  0.49890782  0.16475880  1
  Ni  Ni23  1  0.67015852  0.33077329  0.33009424  1
  Fe  Fe24  1  0.66738639  0.66264716  -0.00122916  1
  Cr  Cr25  1  0.83225317  0.83048773  0.16575083  1
  Fe  Fe26  1  0.66764601  0.66391256  0.33209593  1
  Fe  Fe27  1  0.16215161  0.16563254  0.49552970  1
  Cr  Cr28  1  0.99788570  0.00141532  0.66410534  1
  Fe  Fe29  1  0.16392125  0.16671280  0.83234012  1
  Fe  Fe30  1  0.16232493  0.49834684  0.49830154  1
  Fe  Fe31  1  0.99466550  0.33226934  0.66461653  1
  Cr  Cr32  1  0.16324757  0.49925085  0.83035921  1
  Ni  Ni33  1  0.16328360  0.83069931  0.49795559  1
  Ni  Ni34  1  0.99717568  0.66518457  0.66328727  1
  Cr  Cr35  1  0.16217216  0.82950068  0.83278426  1
  Cr  Cr36  1  0.50180675  0.16607672  0.49743326  1
  Cr  Cr37  1  0.33054841  0.99625037  0.66444523  1
  Cr  Cr38  1  0.50155242  0.16737082  0.83283550  1
  Cr  Cr39  1  0.49935703  0.49681316  0.49975054  1
  Cr  Cr40  1  0.32989647  0.33175095  0.66442738  1
  Cr  Cr41  1  0.50040287  0.49614424  0.83105640  1
  Fe  Fe42  1  0.50068089  0.83199484  0.49928363  1
  Fe  Fe43  1  0.33108283  0.66568220  0.66237264  1
  Cr  Cr44  1  0.50110222  0.83192717  0.83027534  1
  Ni  Ni45  1  0.83164994  0.16429947  0.49698307  1
  Fe  Fe46  1  0.66788206  -0.00080330  0.66361734  1
  Ni  Ni47  1  0.82936010  0.16709928  0.83103911  1
  Cr  Cr48  1  0.83238796  0.49797607  0.49987533  1
  Ni  Ni49  1  0.66961694  0.33255742  0.66646872  1
  Fe  Fe50  1  0.82998391  0.49757311  0.83025074  1
  Fe  Fe51  1  0.83158950  0.83245650  0.49877289  1
  Ni  Ni52  1  0.66643656  0.66470392  0.66402882  1
  Cr  Cr53  1  0.83212260  0.83074607  0.83081960  1
" 