7966,Ni21Fe37Cr40_6,-222.565316844245, 178.851680434695,Ni21Fe37Cr40,"# generated using pymatgen
 data_Cr23Fe20Ni11
_symmetry_space_group_name_H-M   'P 1'
_cell_length_a   7.49922037
_cell_length_b   7.49922037
_cell_length_c   10.60549916
_cell_angle_alpha   90.00000000
_cell_angle_beta   90.00000000
_cell_angle_gamma   90.00000000
_symmetry_Int_Tables_number   1
_chemical_formula_structural   Cr23Fe20Ni11
_chemical_formula_sum   'Cr23 Fe20 Ni11'
_cell_volume   596.43530951
_cell_formula_units_Z   1
loop_
 _symmetry_equiv_pos_site_id
 _symmetry_equiv_pos_as_xyz
  1  'x, y, z'
loop_
 _atom_site_type_symbol
 _atom_site_label
 _atom_site_symmetry_multiplicity
 _atom_site_fract_x
 _atom_site_fract_y
 _atom_site_fract_z
 _atom_site_occupancy
  Cr  Cr0  1  0.99621547  -0.00170673  0.00066788  1
  Ni  Ni1  1  0.16856096  0.16491616  0.16519685  1
  Cr  Cr2  1  0.99354066  0.99690311  0.33213565  1
  Cr  Cr3  1  -0.00142295  0.32986928  -0.00173450  1
  Ni  Ni4  1  0.16458758  0.49908444  0.16696967  1
  Ni  Ni5  1  -0.00161081  0.33306208  0.33157784  1
  Fe  Fe6  1  0.99706413  0.66369726  0.00003035  1
  Cr  Cr7  1  0.16308816  0.82876154  0.16702302  1
  Ni  Ni8  1  -0.00210289  0.66419860  0.33274830  1
  Fe  Fe9  1  0.33214980  -0.00093343  -0.00054771  1
  Ni  Ni10  1  0.49664446  0.16220750  0.16626549  1
  Fe  Fe11  1  0.33120304  0.99685513  0.33012199  1
  Cr  Cr12  1  0.33179222  0.33178353  0.00046645  1
  Fe  Fe13  1  0.49902623  0.49989048  0.16698482  1
  Cr  Cr14  1  0.33190608  0.33513343  0.32721040  1
  Cr  Cr15  1  0.33607299  0.66446027  0.00057085  1
  Fe  Fe16  1  0.49770073  0.83043559  0.16820655  1
  Ni  Ni17  1  0.33411400  0.66453357  0.33330181  1
  Cr  Cr18  1  0.66337105  0.99480158  0.00092823  1
  Cr  Cr19  1  0.82924214  0.16457949  0.17090025  1
  Fe  Fe20  1  0.66180612  0.99358386  0.33100366  1
  Cr  Cr21  1  0.66246069  0.33065868  -0.00118488  1
  Cr  Cr22  1  0.83226536  0.50057569  0.16466162  1
  Fe  Fe23  1  0.66478518  0.33405759  0.33146823  1
  Fe  Fe24  1  0.66546100  0.66352691  -0.00164602  1
  Ni  Ni25  1  0.82750933  0.82744864  0.16546121  1
  Fe  Fe26  1  0.66622739  0.66493111  0.33289302  1
  Cr  Cr27  1  0.16753499  0.16516846  0.49619041  1
  Cr  Cr28  1  0.99567011  0.99674260  0.66105169  1
  Fe  Fe29  1  0.16534301  0.16380768  0.83150519  1
  Ni  Ni30  1  0.16400535  0.50000764  0.49396839  1
  Cr  Cr31  1  -0.00201880  0.33177696  0.66280542  1
  Cr  Cr32  1  0.16164159  0.50088994  0.83306229  1
  Fe  Fe33  1  0.16437100  0.82992360  0.49425144  1
  Cr  Cr34  1  0.99627731  0.66489710  0.66136429  1
  Cr  Cr35  1  0.16722269  0.83253225  0.83093479  1
  Cr  Cr36  1  0.50052349  0.16470694  0.49818598  1
  Fe  Fe37  1  0.33356618  0.99675887  0.66412132  1
  Fe  Fe38  1  0.49662717  0.16105726  0.83074593  1
  Fe  Fe39  1  0.50038010  0.49945631  0.49629069  1
  Cr  Cr40  1  0.33167070  0.33330045  0.66649018  1
  Cr  Cr41  1  0.50120782  0.49801013  0.82963919  1
  Fe  Fe42  1  0.49878126  0.83026408  0.49565553  1
  Cr  Cr43  1  0.33364200  0.66474789  0.65867552  1
  Fe  Fe44  1  0.49948416  0.83112834  0.82981428  1
  Fe  Fe45  1  0.83037802  0.16594950  0.49560215  1
  Fe  Fe46  1  0.66286889  0.99375504  0.66293692  1
  Cr  Cr47  1  0.82716458  0.16573976  0.82704680  1
  Fe  Fe48  1  0.83039909  0.49857984  0.49609149  1
  Fe  Fe49  1  0.66548982  0.33531515  0.66231389  1
  Ni  Ni50  1  0.82804405  0.49930431  0.82988472  1
  Ni  Ni51  1  0.82733254  0.82921748  0.49659146  1
  Ni  Ni52  1  0.66370259  0.66650458  0.66328292  1
  Cr  Cr53  1  0.83119817  0.82730850  0.83398209  1
" 