5372,Ni21Fe37Cr40_14,-222.107449695938, 178.472939188992,Ni21Fe37Cr40,"# generated using pymatgen
 data_Cr23Fe20Ni11
_symmetry_space_group_name_H-M   'P 1'
_cell_length_a   7.49303688
_cell_length_b   7.49303688
_cell_length_c   10.59675438
_cell_angle_alpha   90.00000000
_cell_angle_beta   90.00000000
_cell_angle_gamma   90.00000000
_symmetry_Int_Tables_number   1
_chemical_formula_structural   Cr23Fe20Ni11
_chemical_formula_sum   'Cr23 Fe20 Ni11'
_cell_volume   594.96115075
_cell_formula_units_Z   1
loop_
 _symmetry_equiv_pos_site_id
 _symmetry_equiv_pos_as_xyz
  1  'x, y, z'
loop_
 _atom_site_type_symbol
 _atom_site_label
 _atom_site_symmetry_multiplicity
 _atom_site_fract_x
 _atom_site_fract_y
 _atom_site_fract_z
 _atom_site_occupancy
  Fe  Fe0  1  0.99670089  -0.00123811  0.99640790  1
  Cr  Cr1  1  0.16237958  0.16145583  0.16359282  1
  Fe  Fe2  1  0.99667776  -0.00098581  0.33520647  1
  Cr  Cr3  1  0.99799361  0.32964801  0.99580114  1
  Fe  Fe4  1  0.16450358  0.49689085  0.16548613  1
  Cr  Cr5  1  0.99792865  0.33058088  0.33336776  1
  Cr  Cr6  1  -0.00144242  0.66462132  0.99692009  1
  Fe  Fe7  1  0.16455995  0.83543874  0.16516224  1
  Cr  Cr8  1  0.00156406  0.66742280  0.33533716  1
  Fe  Fe9  1  0.33189316  0.99804301  -0.00061782  1
  Ni  Ni10  1  0.49758917  0.16074315  0.16874331  1
  Fe  Fe11  1  0.33231760  -0.00050239  0.33277649  1
  Cr  Cr12  1  0.32883934  0.32898551  0.99642632  1
  Cr  Cr13  1  0.50182348  0.49700486  0.16435383  1
  Cr  Cr14  1  0.33133855  0.33115093  0.33377822  1
  Cr  Cr15  1  0.33124027  0.66710026  0.00241153  1
  Ni  Ni16  1  0.49705597  0.83640342  0.16476501  1
  Cr  Cr17  1  0.32972799  0.66865205  0.33010056  1
  Cr  Cr18  1  0.66452977  -0.00105086  0.99644034  1
  Ni  Ni19  1  0.83181768  0.16153490  0.16850294  1
  Ni  Ni20  1  0.66513598  0.00011145  0.33370083  1
  Cr  Cr21  1  0.66696554  0.32658995  -0.00134968  1
  Cr  Cr22  1  0.83075803  0.49591464  0.16660673  1
  Ni  Ni23  1  0.66474079  0.32468981  0.33459946  1
  Ni  Ni24  1  0.66601729  0.66925929  0.99651184  1
  Cr  Cr25  1  0.83222964  0.83338029  0.16443512  1
  Cr  Cr26  1  0.66448788  0.66860630  0.33235490  1
  Ni  Ni27  1  0.16388131  0.16268817  0.50070220  1
  Fe  Fe28  1  0.99559176  -0.00124837  0.66328931  1
  Fe  Fe29  1  0.16374500  0.16420645  0.82866688  1
  Fe  Fe30  1  0.16605197  0.49849696  0.50075203  1
  Cr  Cr31  1  -0.00089771  0.33126517  0.66554826  1
  Fe  Fe32  1  0.16508978  0.49929196  0.82910129  1
  Fe  Fe33  1  0.16466702  0.83438069  0.50167935  1
  Fe  Fe34  1  0.99807236  0.66516406  0.66376677  1
  Cr  Cr35  1  0.16397066  0.83545778  0.82864783  1
  Fe  Fe36  1  0.49780434  0.16328729  0.49770423  1
  Fe  Fe37  1  0.33019868  0.00074448  0.66228022  1
  Cr  Cr38  1  0.49536997  0.16414992  0.82741773  1
  Ni  Ni39  1  0.49811142  0.49676347  0.49865823  1
  Fe  Fe40  1  0.33146936  0.33194172  0.66137376  1
  Cr  Cr41  1  0.49973163  0.49882212  0.83182404  1
  Cr  Cr42  1  0.49901905  0.83203329  0.49993442  1
  Fe  Fe43  1  0.32938956  0.66213071  0.66263140  1
  Cr  Cr44  1  0.49629707  0.83150336  0.83036260  1
  Fe  Fe45  1  0.83152707  0.16188158  0.49745802  1
  Fe  Fe46  1  0.66914572  -0.00063143  0.66395951  1
  Ni  Ni47  1  0.83564775  0.16336953  0.82994669  1
  Fe  Fe48  1  0.82998583  0.49872266  0.49826157  1
  Cr  Cr49  1  0.66636896  0.32830247  0.66235322  1
  Ni  Ni50  1  0.83297152  0.49850889  0.83129872  1
  Ni  Ni51  1  0.83470649  0.83431220  0.50092025  1
  Cr  Cr52  1  0.66685741  0.66735300  0.66606984  1
  Fe  Fe53  1  0.83220388  0.83300248  0.82992163  1
" 