2170,Ni21Fe37Cr40_16,-222.275621356241, 175.580089788645,Ni21Fe37Cr40,"# generated using pymatgen
 data_Cr23Fe20Ni11
_symmetry_space_group_name_H-M   'P 1'
_cell_length_a   7.49715032
_cell_length_b   7.49715032
_cell_length_c   10.60257166
_cell_angle_alpha   90.00000000
_cell_angle_beta   90.00000000
_cell_angle_gamma   90.00000000
_symmetry_Int_Tables_number   1
_chemical_formula_structural   Cr23Fe20Ni11
_chemical_formula_sum   'Cr23 Fe20 Ni11'
_cell_volume   595.94153226
_cell_formula_units_Z   1
loop_
 _symmetry_equiv_pos_site_id
 _symmetry_equiv_pos_as_xyz
  1  'x, y, z'
loop_
 _atom_site_type_symbol
 _atom_site_label
 _atom_site_symmetry_multiplicity
 _atom_site_fract_x
 _atom_site_fract_y
 _atom_site_fract_z
 _atom_site_occupancy
  Cr  Cr0  1  0.99527955  0.99734716  0.99636163  1
  Fe  Fe1  1  0.16106383  0.16505540  0.16412211  1
  Ni  Ni2  1  0.99586649  0.99772244  0.32721072  1
  Fe  Fe3  1  0.99787726  0.33111082  0.99751579  1
  Fe  Fe4  1  0.16208203  0.49881383  0.16399631  1
  Fe  Fe5  1  0.99692003  0.33259748  0.32809297  1
  Ni  Ni6  1  0.99728453  0.66168248  0.99631166  1
  Cr  Cr7  1  0.16406033  0.82898890  0.16763054  1
  Ni  Ni8  1  0.99722587  0.66271509  0.33117471  1
  Cr  Cr9  1  0.33140149  0.99797879  0.99530881  1
  Cr  Cr10  1  0.49854699  0.16586620  0.16412689  1
  Cr  Cr11  1  0.33179337  0.99713680  0.33181644  1
  Fe  Fe12  1  0.32918633  0.33391561  0.99675875  1
  Fe  Fe13  1  0.49802609  0.50060893  0.16231809  1
  Cr  Cr14  1  0.33084942  0.33358296  0.33092880  1
  Fe  Fe15  1  0.33125808  0.66352069  -0.00176030  1
  Ni  Ni16  1  0.49798610  0.82598940  0.16365139  1
  Ni  Ni17  1  0.32971681  0.66195122  0.32740582  1
  Cr  Cr18  1  0.66739343  0.99632040  -0.00053846  1
  Ni  Ni19  1  0.83484782  0.16787881  0.16412332  1
  Cr  Cr20  1  0.66697999  0.99721770  0.32790153  1
  Fe  Fe21  1  0.66720729  0.33219667  -0.00153189  1
  Fe  Fe22  1  0.83364948  0.49969646  0.16215635  1
  Cr  Cr23  1  0.66695921  0.33335848  0.33231675  1
  Fe  Fe24  1  0.66620532  0.66567925  -0.00070116  1
  Ni  Ni25  1  0.83265981  0.82956541  0.16436497  1
  Cr  Cr26  1  0.66622348  0.66372474  0.32722188  1
  Cr  Cr27  1  0.16298769  0.16379597  0.49337312  1
  Cr  Cr28  1  0.99684837  0.99717142  0.67051368  1
  Ni  Ni29  1  0.16541089  0.16753912  0.83435190  1
  Cr  Cr30  1  0.16253069  0.50072280  0.49623613  1
  Cr  Cr31  1  0.99797556  0.33361470  0.66512843  1
  Fe  Fe32  1  0.16298755  0.49804081  0.83450455  1
  Cr  Cr33  1  0.16296514  0.82958238  0.49573200  1
  Fe  Fe34  1  0.99601081  0.66595401  0.66696119  1
  Fe  Fe35  1  0.16113613  0.82963409  0.83322716  1
  Fe  Fe36  1  0.50009491  0.16374653  0.49979006  1
  Cr  Cr37  1  0.33281813  -0.00076239  0.66670626  1
  Fe  Fe38  1  0.50209878  0.16566901  0.83188697  1
  Cr  Cr39  1  0.49979938  0.49826591  0.49911414  1
  Cr  Cr40  1  0.33185316  0.33062031  0.66634082  1
  Fe  Fe41  1  0.49903526  0.49696139  0.83340579  1
  Cr  Cr42  1  0.49830424  0.83091260  0.49667455  1
  Cr  Cr43  1  0.32936478  0.66403077  0.66831355  1
  Fe  Fe44  1  0.50180392  0.83122548  0.83175101  1
  Cr  Cr45  1  0.83022034  0.16502775  0.49845158  1
  Ni  Ni46  1  0.66466442  -0.00141788  0.66806768  1
  Ni  Ni47  1  0.83016482  0.16474396  0.83178825  1
  Fe  Fe48  1  0.83259847  0.50011001  0.49876692  1
  Fe  Fe49  1  0.66414577  0.32861022  0.66594309  1
  Cr  Cr50  1  0.82949673  0.49838615  0.83010396  1
  Cr  Cr51  1  0.83270843  0.83059065  0.49920680  1
  Fe  Fe52  1  0.66568425  0.66660065  0.66638316  1
  Ni  Ni53  1  0.82933005  0.82999049  0.83058189  1
" 