4868,Ni22Fe78_7,-243.296231654715, 211.960083794533,Ni22Fe78,"# generated using pymatgen
 data_Fe11Ni43
_symmetry_space_group_name_H-M   'P 1'
_cell_length_a   7.42510681
_cell_length_b   7.42510681
_cell_length_c   10.50068676
_cell_angle_alpha   90.00000000
_cell_angle_beta   90.00000000
_cell_angle_gamma   90.00000000
_symmetry_Int_Tables_number   1
_chemical_formula_structural   Fe11Ni43
_chemical_formula_sum   'Fe11 Ni43'
_cell_volume   578.92607984
_cell_formula_units_Z   1
loop_
 _symmetry_equiv_pos_site_id
 _symmetry_equiv_pos_as_xyz
  1  'x, y, z'
loop_
 _atom_site_type_symbol
 _atom_site_label
 _atom_site_symmetry_multiplicity
 _atom_site_fract_x
 _atom_site_fract_y
 _atom_site_fract_z
 _atom_site_occupancy
  Ni  Ni0  1  1.00231779  1.00230864  0.00288256  1
  Fe  Fe1  1  0.16851253  0.17133102  0.16893138  1
  Ni  Ni2  1  1.00204215  1.00237973  0.33558514  1
  Ni  Ni3  1  1.00190144  0.33641433  0.00337388  1
  Ni  Ni4  1  0.17021668  0.50368341  0.16887343  1
  Fe  Fe5  1  1.00177712  0.33751062  0.33640375  1
  Ni  Ni6  1  0.00351221  0.66984485  1.00255347  1
  Fe  Fe7  1  0.16907761  0.83519104  0.16947791  1
  Ni  Ni8  1  0.00336843  0.67102463  0.33673610  1
  Ni  Ni9  1  0.33654190  1.00234823  0.00417871  1
  Ni  Ni10  1  0.50263169  0.16986410  0.16898457  1
  Fe  Fe11  1  0.33746634  1.00247570  0.33672886  1
  Ni  Ni12  1  0.33690009  0.33649969  1.00227467  1
  Ni  Ni13  1  0.50196542  0.50160027  0.16884196  1
  Ni  Ni14  1  0.33713606  0.33681852  0.33615747  1
  Ni  Ni15  1  0.33568808  0.66969273  1.00247717  1
  Fe  Fe16  1  0.50483754  0.83528011  0.16901195  1
  Ni  Ni17  1  0.33572881  0.66808189  0.33688590  1
  Ni  Ni18  1  0.66951796  0.00377460  1.00188341  1
  Ni  Ni19  1  0.83484654  0.16820081  0.16898225  1
  Ni  Ni20  1  0.67091143  0.00359171  0.33728870  1
  Ni  Ni21  1  0.66937009  0.33540268  0.00329835  1
  Ni  Ni22  1  0.83625101  0.50396544  0.16938114  1
  Ni  Ni23  1  0.66844850  0.33546826  0.33594875  1
  Fe  Fe24  1  0.66971501  0.66943555  1.00262309  1
  Ni  Ni25  1  0.83715509  0.83650767  0.16889478  1
  Ni  Ni26  1  0.66946821  0.66930441  0.33526575  1
  Ni  Ni27  1  0.16997966  0.16912407  0.50168490  1
  Ni  Ni28  1  0.00348907  0.00284493  0.67000540  1
  Ni  Ni29  1  0.17007412  0.16904611  0.83722616  1
  Ni  Ni30  1  0.17023125  0.50321968  0.50416507  1
  Ni  Ni31  1  1.00260408  0.33520385  0.66841741  1
  Fe  Fe32  1  0.17040854  0.50336911  0.83596968  1
  Ni  Ni33  1  0.16792491  0.83625116  0.50287088  1
  Ni  Ni34  1  1.00276795  0.67039294  0.66918014  1
  Ni  Ni35  1  0.16874033  0.83723223  0.83670741  1
  Ni  Ni36  1  0.50255241  0.17077397  0.50363527  1
  Ni  Ni37  1  0.33501699  1.00270599  0.66884362  1
  Ni  Ni38  1  0.50135068  0.17017197  0.83623215  1
  Ni  Ni39  1  0.50275092  0.50183349  0.50253155  1
  Ni  Ni40  1  0.33667857  0.33587136  0.67001192  1
  Ni  Ni41  1  0.50304405  0.50213610  0.83685845  1
  Fe  Fe42  1  0.50313122  0.83537253  0.50327278  1
  Ni  Ni43  1  0.33643459  0.66996900  0.66947368  1
  Ni  Ni44  1  0.50269979  0.83609761  0.83635488  1
  Ni  Ni45  1  0.83592848  0.16851712  0.50345509  1
  Fe  Fe46  1  0.66920507  1.00247096  0.66992290  1
  Fe  Fe47  1  0.83583403  0.16875804  0.83632901  1
  Ni  Ni48  1  0.83546150  0.50404369  0.50201478  1
  Ni  Ni49  1  0.66909750  0.33650037  0.66899249  1
  Fe  Fe50  1  0.83607756  0.50270551  0.83568540  1
  Ni  Ni51  1  0.83720045  0.83596587  0.50319809  1
  Ni  Ni52  1  0.66936495  0.66845883  0.66929867  1
  Ni  Ni53  1  0.83715539  0.83547269  0.83624691  1
" 