3262,Ni22Fe78_3,-243.295661511892, 209.971975590278,Ni22Fe78,"# generated using pymatgen
 data_Fe11Ni43
_symmetry_space_group_name_H-M   'P 1'
_cell_length_a   7.42564250
_cell_length_b   7.42564250
_cell_length_c   10.50144434
_cell_angle_alpha   90.00000000
_cell_angle_beta   90.00000000
_cell_angle_gamma   90.00000000
_symmetry_Int_Tables_number   1
_chemical_formula_structural   Fe11Ni43
_chemical_formula_sum   'Fe11 Ni43'
_cell_volume   579.05139039
_cell_formula_units_Z   1
loop_
 _symmetry_equiv_pos_site_id
 _symmetry_equiv_pos_as_xyz
  1  'x, y, z'
loop_
 _atom_site_type_symbol
 _atom_site_label
 _atom_site_symmetry_multiplicity
 _atom_site_fract_x
 _atom_site_fract_y
 _atom_site_fract_z
 _atom_site_occupancy
  Ni  Ni0  1  0.00293787  1.00231831  0.00311232  1
  Ni  Ni1  1  0.17071752  0.16980721  0.16865117  1
  Ni  Ni2  1  1.00208133  1.00047270  0.33607445  1
  Ni  Ni3  1  1.00241735  0.33671521  0.00339104  1
  Ni  Ni4  1  0.16945892  0.50197895  0.16888773  1
  Fe  Fe5  1  0.00472839  0.33495750  0.33495678  1
  Ni  Ni6  1  0.00319962  0.66963710  0.00292811  1
  Fe  Fe7  1  0.16952372  0.83586409  0.16958679  1
  Ni  Ni8  1  0.00301574  0.67016239  0.33617531  1
  Ni  Ni9  1  0.33587373  0.00305605  1.00242183  1
  Ni  Ni10  1  0.50194234  0.16937602  0.16896684  1
  Ni  Ni11  1  0.33598131  0.00329256  0.33748172  1
  Ni  Ni12  1  0.33672549  0.33621889  1.00215802  1
  Ni  Ni13  1  0.50268545  0.50222934  0.16808146  1
  Ni  Ni14  1  0.33857096  0.33678034  0.33662143  1
  Ni  Ni15  1  0.33537743  0.66865679  0.00303965  1
  Fe  Fe16  1  0.50212008  0.83593374  0.16910114  1
  Ni  Ni17  1  0.33422212  0.66804935  0.33608804  1
  Ni  Ni18  1  0.66968575  0.00355705  0.00332010  1
  Fe  Fe19  1  0.83620604  0.17093470  0.16920121  1
  Ni  Ni20  1  0.67024802  0.00477877  0.33584858  1
  Ni  Ni21  1  0.66897933  0.33610225  0.00313736  1
  Ni  Ni22  1  0.83628426  0.50515788  0.16977199  1
  Ni  Ni23  1  0.66849913  0.33612515  0.33572567  1
  Ni  Ni24  1  0.66975361  0.66877830  1.00213383  1
  Ni  Ni25  1  0.83551465  0.83609575  0.16802981  1
  Fe  Fe26  1  0.66835293  0.67070851  0.33494871  1
  Ni  Ni27  1  0.16902836  0.17005979  0.50368610  1
  Ni  Ni28  1  1.00220773  1.00100660  0.66949190  1
  Ni  Ni29  1  0.16942857  0.16971538  0.83602578  1
  Ni  Ni30  1  0.16951660  0.50242151  0.50243173  1
  Fe  Fe31  1  0.00382891  0.33450992  0.67051932  1
  Ni  Ni32  1  0.16873777  0.50306433  0.83713923  1
  Ni  Ni33  1  0.16882294  0.83547543  0.50237172  1
  Ni  Ni34  1  0.00334301  0.66966592  0.66967971  1
  Ni  Ni35  1  0.17033573  0.83534174  0.83701689  1
  Ni  Ni36  1  0.50337243  0.16962831  0.50321154  1
  Ni  Ni37  1  0.33610699  1.00215692  0.66848422  1
  Ni  Ni38  1  0.50342899  0.16811484  0.83616676  1
  Ni  Ni39  1  0.50252923  0.50342739  0.50311084  1
  Ni  Ni40  1  0.33806326  0.33682656  0.66937236  1
  Fe  Fe41  1  0.50093790  0.50189892  0.83632922  1
  Ni  Ni42  1  0.50375728  0.83578697  0.50177567  1
  Ni  Ni43  1  0.33392750  0.66918065  0.66905253  1
  Ni  Ni44  1  0.50337065  0.83627512  0.83679309  1
  Ni  Ni45  1  0.83642411  0.16871331  0.50148094  1
  Ni  Ni46  1  0.67028297  0.00512059  0.66920057  1
  Ni  Ni47  1  0.83566241  0.16944212  0.83798152  1
  Fe  Fe48  1  0.83606799  0.50249913  0.50206263  1
  Ni  Ni49  1  0.66955596  0.33542306  0.66952787  1
  Fe  Fe50  1  0.83648701  0.50207869  0.83718652  1
  Ni  Ni51  1  0.83542789  0.83612398  0.50396686  1
  Fe  Fe52  1  0.66767951  0.67097706  0.67006794  1
  Fe  Fe53  1  0.83711623  0.83787185  0.83657641  1
" 