4612,Ni22Fe78_15,-242.908049561342, 208.036430178506,Ni22Fe78,"# generated using pymatgen
 data_Fe11Ni43
_symmetry_space_group_name_H-M   'P 1'
_cell_length_a   7.42504782
_cell_length_b   7.42504782
_cell_length_c   10.50060333
_cell_angle_alpha   90.00000000
_cell_angle_beta   90.00000000
_cell_angle_gamma   90.00000000
_symmetry_Int_Tables_number   1
_chemical_formula_structural   Fe11Ni43
_chemical_formula_sum   'Fe11 Ni43'
_cell_volume   578.91228085
_cell_formula_units_Z   1
loop_
 _symmetry_equiv_pos_site_id
 _symmetry_equiv_pos_as_xyz
  1  'x, y, z'
loop_
 _atom_site_type_symbol
 _atom_site_label
 _atom_site_symmetry_multiplicity
 _atom_site_fract_x
 _atom_site_fract_y
 _atom_site_fract_z
 _atom_site_occupancy
  Fe  Fe0  1  1.00250378  1.00262923  0.00345099  1
  Ni  Ni1  1  0.16949698  0.16994060  0.16860294  1
  Ni  Ni2  1  0.00356433  0.00335548  0.33585740  1
  Fe  Fe3  1  0.00295921  0.33673085  0.00375524  1
  Ni  Ni4  1  0.16892757  0.50301117  0.16974508  1
  Ni  Ni5  1  1.00206783  0.33622586  0.33616237  1
  Ni  Ni6  1  0.00337256  0.66902210  0.00316243  1
  Ni  Ni7  1  0.17012275  0.83553626  0.16922801  1
  Ni  Ni8  1  0.00353637  0.66890408  0.33655661  1
  Ni  Ni9  1  0.33627071  0.00348791  1.00274846  1
  Ni  Ni10  1  0.50323128  0.16844771  0.16930693  1
  Ni  Ni11  1  0.33554996  1.00248288  0.33613098  1
  Ni  Ni12  1  0.33652584  0.33562651  0.00300359  1
  Fe  Fe13  1  0.50314365  0.50295215  0.16917350  1
  Fe  Fe14  1  0.33553184  0.33615754  0.33565642  1
  Ni  Ni15  1  0.33502470  0.66937047  1.00276750  1
  Ni  Ni16  1  0.50289216  0.83673202  0.16903326  1
  Ni  Ni17  1  0.33524969  0.67010826  0.33587532  1
  Ni  Ni18  1  0.66891353  0.00415033  1.00278941  1
  Ni  Ni19  1  0.83575281  0.16965486  0.16949194  1
  Ni  Ni20  1  0.66936945  0.00394919  0.33644656  1
  Ni  Ni21  1  0.66926064  0.33554855  0.00300683  1
  Ni  Ni22  1  0.83696421  0.50266826  0.16892046  1
  Ni  Ni23  1  0.67057645  0.33592228  0.33584776  1
  Ni  Ni24  1  0.67008335  0.66877899  1.00272732  1
  Ni  Ni25  1  0.83546584  0.83616183  0.16931186  1
  Ni  Ni26  1  0.66969958  0.66861185  0.33619277  1
  Ni  Ni27  1  0.16845004  0.16952963  0.50340371  1
  Ni  Ni28  1  0.00351108  1.00282393  0.66938572  1
  Fe  Fe29  1  0.17107103  0.16950580  0.83609891  1
  Ni  Ni30  1  0.16963083  0.50288348  0.50286065  1
  Fe  Fe31  1  1.00238449  0.33602921  0.66856775  1
  Ni  Ni32  1  0.17003492  0.50332204  0.83588145  1
  Ni  Ni33  1  0.16996818  0.83607427  0.50312131  1
  Ni  Ni34  1  0.00358847  0.66937385  0.66876531  1
  Fe  Fe35  1  0.17068024  0.83591239  0.83585092  1
  Fe  Fe36  1  0.50325373  0.16913486  0.50289169  1
  Ni  Ni37  1  0.33560709  1.00276126  0.66959240  1
  Ni  Ni38  1  0.50409854  0.16881224  0.83565416  1
  Ni  Ni39  1  0.50269224  0.50402646  0.50298641  1
  Fe  Fe40  1  0.33655019  0.33673684  0.67019425  1
  Ni  Ni41  1  0.50173516  0.50357193  0.83681488  1
  Ni  Ni42  1  0.50294605  0.83552556  0.50328953  1
  Ni  Ni43  1  0.33528982  0.66968869  0.66984442  1
  Ni  Ni44  1  0.50289478  0.83610350  0.83616175  1
  Ni  Ni45  1  0.83670943  0.16927641  0.50254657  1
  Ni  Ni46  1  0.66937792  0.00427286  0.66924115  1
  Ni  Ni47  1  0.83549770  0.16911872  0.83644892  1
  Ni  Ni48  1  0.83616039  0.50250145  0.50371657  1
  Ni  Ni49  1  0.66967447  0.33597346  0.66963262  1
  Fe  Fe50  1  0.83465746  0.50275308  0.83622689  1
  Ni  Ni51  1  0.83557111  0.83670381  0.50312133  1
  Ni  Ni52  1  0.66960069  0.66823547  0.66957230  1
  Fe  Fe53  1  0.83503242  0.83590709  0.83590199  1
" 