1988,Ni22Fe21Cr56_1,-217.109581128787, 164.681469650942,Ni22Fe21Cr56,"# generated using pymatgen
 data_Cr31Fe11Ni12
_symmetry_space_group_name_H-M   'P 1'
_cell_length_a   7.53649446
_cell_length_b   7.53649446
_cell_length_c   10.65821268
_cell_angle_alpha   90.00000000
_cell_angle_beta   90.00000000
_cell_angle_gamma   90.00000000
_symmetry_Int_Tables_number   1
_chemical_formula_structural   Cr31Fe11Ni12
_chemical_formula_sum   'Cr31 Fe11 Ni12'
_cell_volume   605.37314392
_cell_formula_units_Z   1
loop_
 _symmetry_equiv_pos_site_id
 _symmetry_equiv_pos_as_xyz
  1  'x, y, z'
loop_
 _atom_site_type_symbol
 _atom_site_label
 _atom_site_symmetry_multiplicity
 _atom_site_fract_x
 _atom_site_fract_y
 _atom_site_fract_z
 _atom_site_occupancy
  Cr  Cr0  1  0.99342822  -0.00296507  0.99411412  1
  Cr  Cr1  1  0.16073350  0.16040120  0.16510853  1
  Cr  Cr2  1  0.99318443  0.99340519  0.33040678  1
  Cr  Cr3  1  -0.00394427  0.32840752  -0.00098169  1
  Ni  Ni4  1  0.16365164  0.49650330  0.16311005  1
  Cr  Cr5  1  0.99460991  0.33119315  0.32720365  1
  Cr  Cr6  1  -0.00331693  0.66091431  -0.00354983  1
  Cr  Cr7  1  0.16363103  0.82668580  0.16457135  1
  Ni  Ni8  1  -0.00087303  0.66229052  0.33108475  1
  Cr  Cr9  1  0.33115885  -0.00222683  -0.00073315  1
  Fe  Fe10  1  0.49700071  0.16268116  0.16548766  1
  Fe  Fe11  1  0.32939092  0.99278092  0.33166052  1
  Cr  Cr12  1  0.32828651  0.32845383  0.99426034  1
  Cr  Cr13  1  0.49653464  0.49777609  0.16334331  1
  Cr  Cr14  1  0.32884164  0.33088476  0.32786911  1
  Cr  Cr15  1  0.32765811  0.65935494  0.99452756  1
  Cr  Cr16  1  0.49486011  0.82906727  0.16501888  1
  Ni  Ni17  1  0.32701388  0.66268880  0.33097955  1
  Fe  Fe18  1  0.66166723  -0.00271710  -0.00427004  1
  Ni  Ni19  1  0.82379261  0.16102869  0.16176279  1
  Ni  Ni20  1  0.66084366  -0.00449058  0.32644681  1
  Cr  Cr21  1  0.66069286  0.32527439  -0.00381073  1
  Cr  Cr22  1  0.82833697  0.49493284  0.16688136  1
  Ni  Ni23  1  0.66214046  0.32551814  0.32771266  1
  Cr  Cr24  1  0.66202613  0.66307994  0.99221420  1
  Cr  Cr25  1  0.82768164  0.82886763  0.16037470  1
  Fe  Fe26  1  0.66358534  0.66301940  0.33156064  1
  Cr  Cr27  1  0.16179963  0.16129398  0.49842992  1
  Ni  Ni28  1  0.99481046  0.99413774  0.66241158  1
  Ni  Ni29  1  0.16151305  0.16351296  0.82540719  1
  Ni  Ni30  1  0.16269045  0.49806650  0.49589306  1
  Cr  Cr31  1  -0.00334263  0.32956078  0.66064467  1
  Fe  Fe32  1  0.16138190  0.49402729  0.82741815  1
  Ni  Ni33  1  0.16267355  0.82593471  0.49403405  1
  Cr  Cr34  1  0.99526352  0.66538873  0.65848116  1
  Cr  Cr35  1  0.16219031  0.83274220  0.82912587  1
  Cr  Cr36  1  0.49587338  0.16110813  0.49334741  1
  Cr  Cr37  1  0.32930826  0.99401914  0.65727311  1
  Fe  Fe38  1  0.49239172  0.16147480  0.82732863  1
  Cr  Cr39  1  0.49683103  0.49515108  0.49579180  1
  Ni  Ni40  1  0.32770582  0.32921801  0.66539799  1
  Fe  Fe41  1  0.49330335  0.49265574  0.82732289  1
  Ni  Ni42  1  0.49628388  0.82676961  0.49036157  1
  Cr  Cr43  1  0.32901508  0.66036992  0.66163975  1
  Cr  Cr44  1  0.49628429  0.82814657  0.83024798  1
  Cr  Cr45  1  0.82870771  0.16408522  0.49576847  1
  Cr  Cr46  1  0.66414175  0.99384789  0.66292638  1
  Fe  Fe47  1  0.83063575  0.16052095  0.82823505  1
  Fe  Fe48  1  0.83008608  0.49810042  0.49170163  1
  Cr  Cr49  1  0.65963203  0.32846533  0.66226757  1
  Cr  Cr50  1  0.82732073  0.49504589  0.82757820  1
  Fe  Fe51  1  0.82900177  0.82967244  0.49258263  1
  Cr  Cr52  1  0.66239989  0.66436525  0.65893633  1
  Fe  Fe53  1  0.83068244  0.83071049  0.82829507  1
" 