1163,Ni22Fe34Cr43_13,-221.802214249565, 181.84121416326,Ni22Fe34Cr43,"# generated using pymatgen
 data_Cr4Fe3Ni2
_symmetry_space_group_name_H-M   'P 1'
_cell_length_a   7.49246850
_cell_length_b   7.49246850
_cell_length_c   10.59595056
_cell_angle_alpha   90.00000000
_cell_angle_beta   90.00000000
_cell_angle_gamma   90.00000000
_symmetry_Int_Tables_number   1
_chemical_formula_structural   Cr4Fe3Ni2
_chemical_formula_sum   'Cr24 Fe18 Ni12'
_cell_volume   594.82576845
_cell_formula_units_Z   6
loop_
 _symmetry_equiv_pos_site_id
 _symmetry_equiv_pos_as_xyz
  1  'x, y, z'
loop_
 _atom_site_type_symbol
 _atom_site_label
 _atom_site_symmetry_multiplicity
 _atom_site_fract_x
 _atom_site_fract_y
 _atom_site_fract_z
 _atom_site_occupancy
  Fe  Fe0  1  0.00037692  0.99626177  -0.00061977  1
  Cr  Cr1  1  0.16689480  0.16473855  0.16218221  1
  Cr  Cr2  1  0.99438590  0.99665109  0.32922721  1
  Fe  Fe3  1  0.00050297  0.33265106  0.99647943  1
  Cr  Cr4  1  0.16483094  0.50017919  0.16951533  1
  Fe  Fe5  1  0.00072861  0.33233481  0.33318242  1
  Fe  Fe6  1  -0.00069549  0.66636962  0.99822368  1
  Ni  Ni7  1  0.16570404  0.82898586  0.16326994  1
  Fe  Fe8  1  -0.00073480  0.66739792  0.33196612  1
  Fe  Fe9  1  0.33025811  0.99651191  -0.00098117  1
  Cr  Cr10  1  0.49752338  0.16592029  0.16547627  1
  Cr  Cr11  1  0.33373579  0.99514942  0.32965081  1
  Fe  Fe12  1  0.33148268  0.33452621  0.99687504  1
  Fe  Fe13  1  0.49620859  0.50015058  0.16453909  1
  Ni  Ni14  1  0.33096085  0.33613239  0.33311576  1
  Ni  Ni15  1  0.33027911  0.66292391  -0.00040039  1
  Fe  Fe16  1  0.49675142  0.82908381  0.16411973  1
  Ni  Ni17  1  0.33054507  0.66218996  0.33183864  1
  Cr  Cr18  1  0.66839951  0.99646802  0.00179208  1
  Cr  Cr19  1  0.83094292  0.16705418  0.16629936  1
  Ni  Ni20  1  0.66718812  0.99618105  0.33337021  1
  Ni  Ni21  1  0.66327494  0.33383348  0.99766666  1
  Cr  Cr22  1  0.83100578  0.49929521  0.16420727  1
  Cr  Cr23  1  0.66363584  0.32950634  0.33413446  1
  Fe  Fe24  1  0.66289344  0.66406634  -0.00043401  1
  Ni  Ni25  1  0.83243788  0.82949890  0.16359695  1
  Cr  Cr26  1  0.66244147  0.66926714  0.32960009  1
  Cr  Cr27  1  0.16706315  0.16489265  0.49801278  1
  Fe  Fe28  1  -0.00130795  0.99685210  0.66490116  1
  Ni  Ni29  1  0.16578783  0.16489373  0.83410741  1
  Fe  Fe30  1  0.16576902  0.49994454  0.49617628  1
  Cr  Cr31  1  0.00110304  0.33185536  0.66481324  1
  Ni  Ni32  1  0.16402013  0.49850491  0.83232705  1
  Cr  Cr33  1  0.16486744  0.82957090  0.49946601  1
  Ni  Ni34  1  -0.00080239  0.66727445  0.66543942  1
  Cr  Cr35  1  0.16487918  0.83274848  0.83046114  1
  Fe  Fe36  1  0.49874953  0.16413742  0.49642408  1
  Fe  Fe37  1  0.33032012  -0.00091563  0.66464467  1
  Cr  Cr38  1  0.49565709  0.16456485  0.83199899  1
  Ni  Ni39  1  0.49690406  0.49763621  0.49663706  1
  Cr  Cr40  1  0.33074254  0.33349413  0.66641188  1
  Fe  Fe41  1  0.49496281  0.49799636  0.83487412  1
  Fe  Fe42  1  0.49934766  0.83055474  0.49690222  1
  Cr  Cr43  1  0.33055852  0.66166316  0.66310455  1
  Cr  Cr44  1  0.49743594  0.83111774  0.83160135  1
  Fe  Fe45  1  0.83133417  0.16271238  0.49704655  1
  Cr  Cr46  1  0.66717098  0.99744342  0.66003038  1
  Cr  Cr47  1  0.83294472  0.16564437  0.83216920  1
  Cr  Cr48  1  0.83351684  0.50056113  0.49692395  1
  Cr  Cr49  1  0.66292446  0.33144436  0.66362960  1
  Cr  Cr50  1  0.83091692  0.50114955  0.83391201  1
  Ni  Ni51  1  0.83158033  0.83166912  0.49958020  1
  Cr  Cr52  1  0.66506318  0.66577958  0.66697422  1
  Fe  Fe53  1  0.83492471  0.83187378  0.83192991  1
" 