452,Ni22Fe21Cr56_8,-217.194527010601, 174.804781068112,Ni22Fe21Cr56,"# generated using pymatgen
 data_Cr31Fe11Ni12
_symmetry_space_group_name_H-M   'P 1'
_cell_length_a   7.52355856
_cell_length_b   7.52355856
_cell_length_c   10.63991856
_cell_angle_alpha   90.00000000
_cell_angle_beta   90.00000000
_cell_angle_gamma   90.00000000
_symmetry_Int_Tables_number   1
_chemical_formula_structural   Cr31Fe11Ni12
_chemical_formula_sum   'Cr31 Fe11 Ni12'
_cell_volume   602.26124236
_cell_formula_units_Z   1
loop_
 _symmetry_equiv_pos_site_id
 _symmetry_equiv_pos_as_xyz
  1  'x, y, z'
loop_
 _atom_site_type_symbol
 _atom_site_label
 _atom_site_symmetry_multiplicity
 _atom_site_fract_x
 _atom_site_fract_y
 _atom_site_fract_z
 _atom_site_occupancy
  Ni  Ni0  1  -0.00115882  0.99608252  0.99462108  1
  Fe  Fe1  1  0.16217418  0.16178910  0.16246986  1
  Cr  Cr2  1  0.99349935  -0.00284559  0.33126743  1
  Cr  Cr3  1  -0.00183082  0.32627350  -0.00153772  1
  Fe  Fe4  1  0.16161656  0.49924889  0.16452588  1
  Fe  Fe5  1  0.99507391  0.33323393  0.32887101  1
  Fe  Fe6  1  -0.00235677  0.66324557  -0.00307096  1
  Cr  Cr7  1  0.16147622  0.82886797  0.16150764  1
  Ni  Ni8  1  0.99371452  0.66215096  0.33075096  1
  Cr  Cr9  1  0.32783556  -0.00355787  0.99573230  1
  Fe  Fe10  1  0.49872290  0.16230578  0.16406244  1
  Cr  Cr11  1  0.32902993  -0.00371339  0.32673250  1
  Cr  Cr12  1  0.32905480  0.33139647  0.00041095  1
  Ni  Ni13  1  0.49896506  0.49714282  0.16342805  1
  Cr  Cr14  1  0.32839856  0.33196635  0.32402096  1
  Cr  Cr15  1  0.33294414  0.66143638  -0.00371904  1
  Ni  Ni16  1  0.49725827  0.82661246  0.16351847  1
  Cr  Cr17  1  0.33011198  0.66041632  0.32985091  1
  Cr  Cr18  1  0.66466990  0.99425660  -0.00211213  1
  Cr  Cr19  1  0.82926088  0.16370630  0.16422375  1
  Fe  Fe20  1  0.66367540  0.99376128  0.32826485  1
  Cr  Cr21  1  0.66108878  0.33344974  0.99583965  1
  Cr  Cr22  1  0.82986102  0.49834477  0.16186728  1
  Ni  Ni23  1  0.66385295  0.33077084  0.32850300  1
  Ni  Ni24  1  0.66045978  0.66243382  -0.00311615  1
  Cr  Cr25  1  0.83002920  0.82700596  0.16137487  1
  Ni  Ni26  1  0.66497226  0.66111188  0.32788467  1
  Cr  Cr27  1  0.16426975  0.16589068  0.49701291  1
  Cr  Cr28  1  0.99486136  0.99589611  0.66338383  1
  Ni  Ni29  1  0.16258593  0.16164735  0.83138517  1
  Ni  Ni30  1  0.15766390  0.49507288  0.49469364  1
  Fe  Fe31  1  0.99559157  0.33040009  0.66296726  1
  Cr  Cr32  1  0.15935828  0.49794052  0.82892546  1
  Cr  Cr33  1  0.16128529  0.82629777  0.49675965  1
  Fe  Fe34  1  0.99485115  0.66296117  0.66141241  1
  Ni  Ni35  1  0.16187792  0.82920728  0.83073626  1
  Cr  Cr36  1  0.49835235  0.16394215  0.49440224  1
  Cr  Cr37  1  0.32753272  0.99410346  0.66612757  1
  Cr  Cr38  1  0.49590846  0.16432897  0.82790113  1
  Cr  Cr39  1  0.49681950  0.49390213  0.49697313  1
  Cr  Cr40  1  0.32842941  0.33229470  0.66468153  1
  Fe  Fe41  1  0.49595081  0.49743710  0.83003345  1
  Cr  Cr42  1  0.49789245  0.83050641  0.49307699  1
  Cr  Cr43  1  0.32880772  0.66237007  0.66269701  1
  Fe  Fe44  1  0.49596267  0.82872253  0.83129571  1
  Fe  Fe45  1  0.82927089  0.16527071  0.49482899  1
  Cr  Cr46  1  0.66742298  0.99510691  0.65950241  1
  Cr  Cr47  1  0.82980924  0.16489183  0.82877672  1
  Cr  Cr48  1  0.83008521  0.49615116  0.49617818  1
  Ni  Ni49  1  0.66628065  0.33113894  0.66335152  1
  Cr  Cr50  1  0.82848819  0.49708704  0.83161210  1
  Ni  Ni51  1  0.82962471  0.82750658  0.49231793  1
  Cr  Cr52  1  0.66337898  0.66342733  0.66501966  1
  Cr  Cr53  1  0.83243581  0.82680238  0.83497223  1
" 