2429,Ni22Fe78_17,-242.550988835742, 206.894857752195,Ni22Fe78,"# generated using pymatgen
 data_Fe11Ni43
_symmetry_space_group_name_H-M   'P 1'
_cell_length_a   7.42120307
_cell_length_b   7.42120307
_cell_length_c   10.49516603
_cell_angle_alpha   90.00000000
_cell_angle_beta   90.00000000
_cell_angle_gamma   90.00000000
_symmetry_Int_Tables_number   1
_chemical_formula_structural   Fe11Ni43
_chemical_formula_sum   'Fe11 Ni43'
_cell_volume   578.01345002
_cell_formula_units_Z   1
loop_
 _symmetry_equiv_pos_site_id
 _symmetry_equiv_pos_as_xyz
  1  'x, y, z'
loop_
 _atom_site_type_symbol
 _atom_site_label
 _atom_site_symmetry_multiplicity
 _atom_site_fract_x
 _atom_site_fract_y
 _atom_site_fract_z
 _atom_site_occupancy
  Ni  Ni0  1  0.00319730  0.00325461  1.00276206  1
  Ni  Ni1  1  0.16933878  0.16957746  0.16915546  1
  Ni  Ni2  1  1.00270034  1.00264886  0.33634643  1
  Ni  Ni3  1  0.00350531  0.33592960  0.00359734  1
  Ni  Ni4  1  0.17018796  0.50265023  0.17009694  1
  Fe  Fe5  1  1.00289621  0.33702795  0.33636652  1
  Ni  Ni6  1  0.00383007  0.67008298  1.00292552  1
  Ni  Ni7  1  0.17042325  0.83703771  0.17031360  1
  Ni  Ni8  1  0.00409369  0.67071055  0.33666219  1
  Ni  Ni9  1  0.33593031  0.00326337  0.00345338  1
  Fe  Fe10  1  0.50338607  0.17007345  0.16901931  1
  Fe  Fe11  1  0.33668816  1.00242385  0.33588761  1
  Ni  Ni12  1  0.33624413  0.33655339  1.00261928  1
  Ni  Ni13  1  0.50338957  0.50407097  0.16990535  1
  Ni  Ni14  1  0.33698010  0.33739204  0.33671320  1
  Ni  Ni15  1  0.33591221  0.66945199  0.00351797  1
  Ni  Ni16  1  0.50343229  0.83590541  0.16933523  1
  Ni  Ni17  1  0.33596118  0.66845795  0.33616382  1
  Ni  Ni18  1  0.67013882  0.00358451  0.00314224  1
  Ni  Ni19  1  0.83683068  0.16953947  0.16970151  1
  Ni  Ni20  1  0.67069856  0.00366993  0.33637105  1
  Ni  Ni21  1  0.66951609  0.33592346  0.00314386  1
  Ni  Ni22  1  0.83568356  0.50298121  0.16986474  1
  Ni  Ni23  1  0.66843931  0.33600343  0.33645847  1
  Ni  Ni24  1  0.66951890  0.66976032  0.00320581  1
  Ni  Ni25  1  0.83541849  0.83675072  0.17003543  1
  Ni  Ni26  1  0.66921841  0.66961034  0.33670597  1
  Ni  Ni27  1  0.16954653  0.16993111  0.50363284  1
  Ni  Ni28  1  1.00289989  0.00357631  0.67015515  1
  Ni  Ni29  1  0.17017264  0.16958060  0.83648121  1
  Ni  Ni30  1  0.16960697  0.50211260  0.50302619  1
  Ni  Ni31  1  0.00319389  0.33581469  0.66927163  1
  Ni  Ni32  1  0.16936746  0.50307243  0.83613683  1
  Fe  Fe33  1  0.16983932  0.83495629  0.50315566  1
  Ni  Ni34  1  0.00430062  0.66986532  0.66968077  1
  Ni  Ni35  1  0.16970002  0.83661118  0.83592660  1
  Fe  Fe36  1  0.50331668  0.17104421  0.50340334  1
  Fe  Fe37  1  0.33625074  1.00283166  0.67041765  1
  Ni  Ni38  1  0.50320487  0.16925236  0.83617106  1
  Ni  Ni39  1  0.50375260  0.50439372  0.50352811  1
  Fe  Fe40  1  0.33587595  0.33678854  0.66956802  1
  Fe  Fe41  1  0.50326737  0.50271668  0.83659902  1
  Ni  Ni42  1  0.50379189  0.83605478  0.50348112  1
  Ni  Ni43  1  0.33602733  0.66928170  0.66959580  1
  Fe  Fe44  1  0.50326398  0.83678310  0.83648020  1
  Fe  Fe45  1  0.83611826  0.17042787  0.50332439  1
  Ni  Ni46  1  0.67034324  0.00384956  0.66973947  1
  Ni  Ni47  1  0.83588935  0.16959098  0.83589714  1
  Ni  Ni48  1  0.83589802  0.50324546  0.50305943  1
  Ni  Ni49  1  0.66975156  0.33582448  0.66966067  1
  Ni  Ni50  1  0.83640393  0.50335075  0.83634184  1
  Fe  Fe51  1  0.83643270  0.83557116  0.50310092  1
  Ni  Ni52  1  0.66893720  0.66960448  0.66936532  1
  Ni  Ni53  1  0.83607995  0.83632494  0.83612206  1
" 