5602,Ni22Fe40Cr36_1,-223.839516597327, 174.864439840361,Ni22Fe40Cr36,"# generated using pymatgen
 data_Cr7Fe7Ni4
_symmetry_space_group_name_H-M   'P 1'
_cell_length_a   7.49455256
_cell_length_b   7.49455256
_cell_length_c   10.59889788
_cell_angle_alpha   90.00000000
_cell_angle_beta   90.00000000
_cell_angle_gamma   90.00000000
_symmetry_Int_Tables_number   1
_chemical_formula_structural   Cr7Fe7Ni4
_chemical_formula_sum   'Cr21 Fe21 Ni12'
_cell_volume   595.32226732
_cell_formula_units_Z   3
loop_
 _symmetry_equiv_pos_site_id
 _symmetry_equiv_pos_as_xyz
  1  'x, y, z'
loop_
 _atom_site_type_symbol
 _atom_site_label
 _atom_site_symmetry_multiplicity
 _atom_site_fract_x
 _atom_site_fract_y
 _atom_site_fract_z
 _atom_site_occupancy
  Cr  Cr0  1  0.99565848  -0.00083275  0.99704564  1
  Fe  Fe1  1  0.16412940  0.16495901  0.16364013  1
  Fe  Fe2  1  0.00124344  0.99736951  0.33081159  1
  Fe  Fe3  1  0.99405705  0.33125430  0.99800658  1
  Fe  Fe4  1  0.16344303  0.49892866  0.16567743  1
  Cr  Cr5  1  -0.00077847  0.33088686  0.32830435  1
  Cr  Cr6  1  -0.00152433  0.66523871  0.99611055  1
  Fe  Fe7  1  0.16621066  0.83228140  0.16567484  1
  Ni  Ni8  1  0.00001672  0.66711972  0.33083374  1
  Fe  Fe9  1  0.33130729  0.99650198  0.99732937  1
  Cr  Cr10  1  0.49817434  0.16334011  0.16396071  1
  Fe  Fe11  1  0.32951398  0.99600058  0.33234185  1
  Cr  Cr12  1  0.33311631  0.33274909  0.99743656  1
  Ni  Ni13  1  0.49907382  0.49812730  0.16690421  1
  Cr  Cr14  1  0.33413382  0.33234944  0.33403430  1
  Cr  Cr15  1  0.33502676  0.66514995  0.00149940  1
  Fe  Fe16  1  0.49912281  0.83048614  0.16524656  1
  Fe  Fe17  1  0.32994040  0.66733507  0.32986330  1
  Cr  Cr18  1  0.66511748  0.99693865  0.99577965  1
  Ni  Ni19  1  0.83126841  0.16751443  0.16479376  1
  Cr  Cr20  1  0.66473890  0.00029375  0.33210749  1
  Fe  Fe21  1  0.66624562  0.33319754  -0.00169823  1
  Ni  Ni22  1  0.83051172  0.49791416  0.16432224  1
  Fe  Fe23  1  0.66516625  0.33311017  0.33016077  1
  Fe  Fe24  1  0.66533253  0.66270798  -0.00107364  1
  Cr  Cr25  1  0.83281204  0.83044658  0.16711082  1
  Cr  Cr26  1  0.66239620  0.66559432  0.33252418  1
  Fe  Fe27  1  0.16651287  0.16384783  0.49963551  1
  Cr  Cr28  1  0.99321030  0.99745909  0.66446583  1
  Cr  Cr29  1  0.16930441  0.16297032  0.82979008  1
  Cr  Cr30  1  0.16465236  0.50043120  0.49956640  1
  Cr  Cr31  1  -0.00085196  0.33001679  0.66889786  1
  Cr  Cr32  1  0.16443650  0.49855119  0.83081393  1
  Fe  Fe33  1  0.16567706  0.83434258  0.49710986  1
  Cr  Cr34  1  0.99732260  0.66801990  0.66699783  1
  Ni  Ni35  1  0.16764034  0.83258185  0.83114546  1
  Ni  Ni36  1  0.49476686  0.16050072  0.49892396  1
  Fe  Fe37  1  0.33334252  -0.00170773  0.66421022  1
  Ni  Ni38  1  0.49922455  0.16266658  0.82990341  1
  Fe  Fe39  1  0.49900049  0.49612727  0.49766862  1
  Ni  Ni40  1  0.33682092  0.33045604  0.66341289  1
  Fe  Fe41  1  0.50086566  0.49690739  0.83250225  1
  Fe  Fe42  1  0.49829653  0.83265830  0.49949721  1
  Cr  Cr43  1  0.33508758  0.66306609  0.66501996  1
  Fe  Fe44  1  0.49946239  0.83220556  0.83073959  1
  Cr  Cr45  1  0.82846998  0.16463570  0.49595967  1
  Ni  Ni46  1  0.66225856  0.99589025  0.66532173  1
  Ni  Ni47  1  0.82665643  0.16516788  0.83254536  1
  Cr  Cr48  1  0.83175591  0.50133641  0.49776511  1
  Cr  Cr49  1  0.66253638  0.32866338  0.66417651  1
  Ni  Ni50  1  0.82609567  0.49981660  0.83362692  1
  Fe  Fe51  1  0.82995632  0.83213031  0.49794134  1
  Fe  Fe52  1  0.66433463  0.66515755  0.66584886  1
  Ni  Ni53  1  0.82861966  0.83004846  0.82867570  1
" 