7359,Ni22Fe34Cr43_9,-222.036849825889, 184.625269378688,Ni22Fe34Cr43,"# generated using pymatgen
 data_Cr4Fe3Ni2
_symmetry_space_group_name_H-M   'P 1'
_cell_length_a   7.49231270
_cell_length_b   7.49231270
_cell_length_c   10.59573023
_cell_angle_alpha   90.00000000
_cell_angle_beta   90.00000000
_cell_angle_gamma   90.00000000
_symmetry_Int_Tables_number   1
_chemical_formula_structural   Cr4Fe3Ni2
_chemical_formula_sum   'Cr24 Fe18 Ni12'
_cell_volume   594.78866293
_cell_formula_units_Z   6
loop_
 _symmetry_equiv_pos_site_id
 _symmetry_equiv_pos_as_xyz
  1  'x, y, z'
loop_
 _atom_site_type_symbol
 _atom_site_label
 _atom_site_symmetry_multiplicity
 _atom_site_fract_x
 _atom_site_fract_y
 _atom_site_fract_z
 _atom_site_occupancy
  Cr  Cr0  1  0.99815029  0.00119625  0.99589505  1
  Fe  Fe1  1  0.16822594  0.16576105  0.16605969  1
  Cr  Cr2  1  -0.00155416  0.00123182  0.33359906  1
  Cr  Cr3  1  0.99820907  0.33037816  -0.00144416  1
  Cr  Cr4  1  0.16718888  0.49858813  0.16557938  1
  Cr  Cr5  1  -0.00002330  0.32914646  0.33056207  1
  Fe  Fe6  1  -0.00131622  0.66391110  0.99762521  1
  Cr  Cr7  1  0.16628195  0.83095257  0.16612053  1
  Fe  Fe8  1  0.99800146  0.66484884  0.33233997  1
  Cr  Cr9  1  0.33367483  -0.00115713  -0.00026851  1
  Fe  Fe10  1  0.49845923  0.16589985  0.16451038  1
  Fe  Fe11  1  0.33412635  -0.00114574  0.33094082  1
  Fe  Fe12  1  0.33377960  0.33094485  -0.00136853  1
  Ni  Ni13  1  0.49799062  0.49810897  0.16508488  1
  Ni  Ni14  1  0.33197414  0.33192999  0.33057847  1
  Fe  Fe15  1  0.33348528  0.66255732  -0.00024337  1
  Ni  Ni16  1  0.49921847  0.83156521  0.16686112  1
  Ni  Ni17  1  0.33737962  0.66519449  0.33165536  1
  Fe  Fe18  1  0.66415094  0.00171220  -0.00162211  1
  Fe  Fe19  1  0.82831388  0.16462971  0.16332850  1
  Fe  Fe20  1  0.66233054  0.99619575  0.33147867  1
  Ni  Ni21  1  0.66378907  0.33043417  0.99798944  1
  Cr  Cr22  1  0.82961722  0.49922995  0.16442427  1
  Cr  Cr23  1  0.66387283  0.33334614  0.33147996  1
  Fe  Fe24  1  0.66276012  0.66431270  0.00085200  1
  Cr  Cr25  1  0.82989034  0.83106354  0.16435752  1
  Ni  Ni26  1  0.66012984  0.66753925  0.33242090  1
  Ni  Ni27  1  0.16541964  0.16367129  0.49772819  1
  Fe  Fe28  1  -0.00146296  0.00035760  0.66471063  1
  Ni  Ni29  1  0.16582729  0.16641210  0.83020988  1
  Cr  Cr30  1  0.16898836  0.49793592  0.49728989  1
  Cr  Cr31  1  -0.00124439  0.32736994  0.66573912  1
  Fe  Fe32  1  0.16715122  0.49636805  0.83191033  1
  Cr  Cr33  1  0.16509523  0.83270885  0.49749458  1
  Cr  Cr34  1  -0.00024099  0.66495692  0.66550597  1
  Cr  Cr35  1  0.16422876  0.83047276  0.83145796  1
  Cr  Cr36  1  0.49682585  0.16728961  0.49821390  1
  Cr  Cr37  1  0.33054164  -0.00157855  0.66535473  1
  Ni  Ni38  1  0.49887114  0.16824412  0.83314227  1
  Ni  Ni39  1  0.49775481  0.49924169  0.49798667  1
  Fe  Fe40  1  0.33234347  0.33234655  0.66482898  1
  Cr  Cr41  1  0.49699658  0.49454405  0.83091947  1
  Fe  Fe42  1  0.49771146  0.82850696  0.49576082  1
  Ni  Ni43  1  0.33312443  0.66313068  0.66474437  1
  Cr  Cr44  1  0.49781566  0.83247926  0.83316138  1
  Fe  Fe45  1  0.83265845  0.16384606  0.49952848  1
  Cr  Cr46  1  0.66632016  -0.00049868  0.66522492  1
  Ni  Ni47  1  0.83028325  0.16546938  0.83101421  1
  Cr  Cr48  1  0.82856910  0.49936131  0.49653655  1
  Fe  Fe49  1  0.66284692  0.33075252  0.66583329  1
  Cr  Cr50  1  0.83062300  0.49715986  0.83403769  1
  Fe  Fe51  1  0.83000698  0.83261470  0.49659259  1
  Cr  Cr52  1  0.66089273  0.66446034  0.66159653  1
  Cr  Cr53  1  0.83289773  0.83295347  0.83363243  1
" 