7950,Ni22Fe78_19,-242.829066444334, 207.772007600489,Ni22Fe78,"# generated using pymatgen
 data_Fe11Ni43
_symmetry_space_group_name_H-M   'P 1'
_cell_length_a   7.42192136
_cell_length_b   7.42192136
_cell_length_c   10.49618184
_cell_angle_alpha   90.00000000
_cell_angle_beta   90.00000000
_cell_angle_gamma   90.00000000
_symmetry_Int_Tables_number   1
_chemical_formula_structural   Fe11Ni43
_chemical_formula_sum   'Fe11 Ni43'
_cell_volume   578.18130206
_cell_formula_units_Z   1
loop_
 _symmetry_equiv_pos_site_id
 _symmetry_equiv_pos_as_xyz
  1  'x, y, z'
loop_
 _atom_site_type_symbol
 _atom_site_label
 _atom_site_symmetry_multiplicity
 _atom_site_fract_x
 _atom_site_fract_y
 _atom_site_fract_z
 _atom_site_occupancy
  Ni  Ni0  1  1.00274936  0.00332886  1.00298681  1
  Ni  Ni1  1  0.16982698  0.17028302  0.16980403  1
  Ni  Ni2  1  1.00221472  1.00252318  0.33627769  1
  Ni  Ni3  1  0.00307434  0.33614675  1.00259216  1
  Ni  Ni4  1  0.16950511  0.50226749  0.17004834  1
  Fe  Fe5  1  0.00373779  0.33662488  0.33555069  1
  Ni  Ni6  1  1.00189909  0.66964462  0.00330655  1
  Ni  Ni7  1  0.17097831  0.83657000  0.17047884  1
  Ni  Ni8  1  1.00217873  0.67012683  0.33566982  1
  Ni  Ni9  1  0.33598730  0.00393524  1.00288004  1
  Fe  Fe10  1  0.50234955  0.16908155  0.16965025  1
  Ni  Ni11  1  0.33625337  0.00399866  0.33662969  1
  Ni  Ni12  1  0.33628246  0.33615259  1.00252619  1
  Fe  Fe13  1  0.50260819  0.50392186  0.16926638  1
  Ni  Ni14  1  0.33651323  0.33643525  0.33630892  1
  Ni  Ni15  1  0.33684884  0.66903327  0.00319727  1
  Ni  Ni16  1  0.50308195  0.83652927  0.16994564  1
  Ni  Ni17  1  0.33625108  0.66868892  0.33606298  1
  Fe  Fe18  1  0.66989288  1.00228233  1.00285386  1
  Ni  Ni19  1  0.83660140  0.17025246  0.17037839  1
  Ni  Ni20  1  0.67065428  1.00278389  0.33605372  1
  Fe  Fe21  1  0.67034391  0.33693991  1.00196002  1
  Ni  Ni22  1  0.83655937  0.50266073  0.16980337  1
  Fe  Fe23  1  0.67002024  0.33662692  0.33669934  1
  Ni  Ni24  1  0.67037253  0.66934975  1.00233431  1
  Ni  Ni25  1  0.83505825  0.83620741  0.17018903  1
  Ni  Ni26  1  0.67068765  0.66986623  0.33717266  1
  Ni  Ni27  1  0.17056747  0.17018586  0.50291858  1
  Ni  Ni28  1  1.00221701  1.00213749  0.66985758  1
  Ni  Ni29  1  0.17024704  0.17012196  0.83639461  1
  Ni  Ni30  1  0.16937645  0.50202398  0.50284475  1
  Fe  Fe31  1  0.00367327  0.33611893  0.67033402  1
  Ni  Ni32  1  0.16992535  0.50236771  0.83622446  1
  Ni  Ni33  1  0.17081634  0.83690848  0.50245014  1
  Ni  Ni34  1  1.00303612  0.67028339  0.67014398  1
  Ni  Ni35  1  0.17053697  0.83662915  0.83619153  1
  Fe  Fe36  1  0.50235357  0.16914577  0.50379726  1
  Ni  Ni37  1  0.33640791  0.00365283  0.66961326  1
  Ni  Ni38  1  0.50272456  0.16951687  0.83637315  1
  Fe  Fe39  1  0.50202473  0.50386028  0.50348150  1
  Ni  Ni40  1  0.33756428  0.33665579  0.67028642  1
  Ni  Ni41  1  0.50304445  0.50297278  0.83611563  1
  Ni  Ni42  1  0.50336058  0.83695732  0.50313209  1
  Ni  Ni43  1  0.33553787  0.66881316  0.66985880  1
  Ni  Ni44  1  0.50303523  0.83663215  0.83604393  1
  Fe  Fe45  1  0.83700861  0.16843846  0.50329279  1
  Ni  Ni46  1  0.67049783  0.00416334  0.67018969  1
  Ni  Ni47  1  0.83615101  0.17012720  0.83585995  1
  Ni  Ni48  1  0.83640766  0.50319317  0.50285186  1
  Ni  Ni49  1  0.66903087  0.33583487  0.66999237  1
  Ni  Ni50  1  0.83615176  0.50268315  0.83646139  1
  Ni  Ni51  1  0.83494008  0.83576372  0.50249496  1
  Fe  Fe52  1  0.66945145  0.67040353  0.66989457  1
  Ni  Ni53  1  0.83554414  0.83631032  0.83643730  1
" 