2687,Ni22Fe78_11,-242.884273296586, 208.778310834055,Ni22Fe78,"# generated using pymatgen
 data_Fe11Ni43
_symmetry_space_group_name_H-M   'P 1'
_cell_length_a   7.42163398
_cell_length_b   7.42163398
_cell_length_c   10.49577543
_cell_angle_alpha   90.00000000
_cell_angle_beta   90.00000000
_cell_angle_gamma   90.00000000
_symmetry_Int_Tables_number   1
_chemical_formula_structural   Fe11Ni43
_chemical_formula_sum   'Fe11 Ni43'
_cell_volume   578.11414291
_cell_formula_units_Z   1
loop_
 _symmetry_equiv_pos_site_id
 _symmetry_equiv_pos_as_xyz
  1  'x, y, z'
loop_
 _atom_site_type_symbol
 _atom_site_label
 _atom_site_symmetry_multiplicity
 _atom_site_fract_x
 _atom_site_fract_y
 _atom_site_fract_z
 _atom_site_occupancy
  Ni  Ni0  1  0.00338832  0.00367694  1.00238655  1
  Ni  Ni1  1  0.17078442  0.16937784  0.16969809  1
  Ni  Ni2  1  1.00280043  0.00308781  0.33706668  1
  Ni  Ni3  1  0.00309200  0.33559542  1.00274583  1
  Fe  Fe4  1  0.17002324  0.50224137  0.17001822  1
  Ni  Ni5  1  0.00329481  0.33598235  0.33700200  1
  Fe  Fe6  1  1.00265339  0.66978782  1.00259685  1
  Fe  Fe7  1  0.16973106  0.83650814  0.16972736  1
  Ni  Ni8  1  0.00325967  0.67010801  0.33659909  1
  Ni  Ni9  1  0.33603884  1.00265433  0.00347225  1
  Ni  Ni10  1  0.50174169  0.17046114  0.16962927  1
  Fe  Fe11  1  0.33662352  0.00335302  0.33668463  1
  Ni  Ni12  1  0.33636520  0.33664980  1.00220575  1
  Ni  Ni13  1  0.50328443  0.50188246  0.16972609  1
  Ni  Ni14  1  0.33656794  0.33703716  0.33695450  1
  Ni  Ni15  1  0.33742484  0.66987139  1.00218526  1
  Fe  Fe16  1  0.50376113  0.83609816  0.16943516  1
  Ni  Ni17  1  0.33683654  0.66928428  0.33726690  1
  Ni  Ni18  1  0.66975229  1.00261965  1.00192065  1
  Fe  Fe19  1  0.83610604  0.17012767  0.16972624  1
  Ni  Ni20  1  0.67014021  1.00282170  0.33723726  1
  Ni  Ni21  1  0.66972017  0.33698210  1.00303521  1
  Ni  Ni22  1  0.83612663  0.50402838  0.16982379  1
  Ni  Ni23  1  0.66931492  0.33657671  0.33641726  1
  Ni  Ni24  1  0.66869742  0.66957645  1.00289987  1
  Ni  Ni25  1  0.83721285  0.83581619  0.16975533  1
  Ni  Ni26  1  0.66908581  0.66977992  0.33684556  1
  Fe  Fe27  1  0.16926486  0.16966608  0.50253153  1
  Ni  Ni28  1  0.00435228  1.00294408  0.66972602  1
  Fe  Fe29  1  0.16943688  0.16943267  0.83721184  1
  Ni  Ni30  1  0.16948413  0.50371309  0.50203452  1
  Ni  Ni31  1  1.00246785  0.33627487  0.66943212  1
  Ni  Ni32  1  0.16963478  0.50361920  0.83738832  1
  Ni  Ni33  1  0.16919131  0.83591759  0.50232006  1
  Ni  Ni34  1  1.00253827  0.66995981  0.66993207  1
  Ni  Ni35  1  0.16937858  0.83610339  0.83713288  1
  Ni  Ni36  1  0.50338319  0.16987852  0.50250096  1
  Ni  Ni37  1  0.33568886  1.00264074  0.66951996  1
  Ni  Ni38  1  0.50328891  0.16978334  0.83704780  1
  Ni  Ni39  1  0.50262449  0.50232588  0.50276264  1
  Fe  Fe40  1  0.33638923  0.33679757  0.66966519  1
  Ni  Ni41  1  0.50256777  0.50226871  0.83668874  1
  Ni  Ni42  1  0.50259212  0.83697633  0.50229455  1
  Fe  Fe43  1  0.33574287  0.66978593  0.66972627  1
  Ni  Ni44  1  0.50249916  0.83712753  0.83718608  1
  Ni  Ni45  1  0.83600700  0.16958222  0.50176969  1
  Fe  Fe46  1  0.67059835  0.00318496  0.66966547  1
  Ni  Ni47  1  0.83594890  0.16952543  0.83768165  1
  Ni  Ni48  1  0.83706680  0.50292162  0.50275172  1
  Ni  Ni49  1  0.66993988  0.33758992  0.66972632  1
  Ni  Ni50  1  0.83697258  0.50282720  0.83660318  1
  Ni  Ni51  1  0.83739527  0.83667588  0.50315209  1
  Ni  Ni52  1  0.66963279  0.66887974  0.66943211  1
  Ni  Ni53  1  0.83730044  0.83682690  0.83626995  1
" 