4318,Ni22Cr78_10,-231.509550546483, 153.924903022533,Ni22Cr78,"# generated using pymatgen
 data_Cr11Ni43
_symmetry_space_group_name_H-M   'P 1'
_cell_length_a   7.47658570
_cell_length_b   7.47658570
_cell_length_c   10.57348890
_cell_angle_alpha   90.00000000
_cell_angle_beta   90.00000000
_cell_angle_gamma   90.00000000
_symmetry_Int_Tables_number   1
_chemical_formula_structural   Cr11Ni43
_chemical_formula_sum   'Cr11 Ni43'
_cell_volume   591.05098473
_cell_formula_units_Z   1
loop_
 _symmetry_equiv_pos_site_id
 _symmetry_equiv_pos_as_xyz
  1  'x, y, z'
loop_
 _atom_site_type_symbol
 _atom_site_label
 _atom_site_symmetry_multiplicity
 _atom_site_fract_x
 _atom_site_fract_y
 _atom_site_fract_z
 _atom_site_occupancy
  Ni  Ni0  1  0.00030105  0.99797103  0.99835903  1
  Cr  Cr1  1  0.16651124  0.16431134  0.16539535  1
  Ni  Ni2  1  0.99850182  -0.00005550  0.33166565  1
  Ni  Ni3  1  -0.00020140  0.33197432  0.99815020  1
  Cr  Cr4  1  0.16613118  0.50019541  0.16484810  1
  Ni  Ni5  1  0.99746953  0.33307045  0.33503343  1
  Ni  Ni6  1  -0.00023236  0.66799423  -0.00024993  1
  Ni  Ni7  1  0.16583303  0.83262564  0.16574060  1
  Ni  Ni8  1  0.99884905  0.66510225  0.33171535  1
  Ni  Ni9  1  0.33199293  0.99763572  0.99886638  1
  Ni  Ni10  1  0.49898049  0.16603689  0.16782289  1
  Ni  Ni11  1  0.33332789  0.99785733  0.33125852  1
  Ni  Ni12  1  0.33295175  0.33289415  0.99666299  1
  Ni  Ni13  1  0.49980584  0.50038409  0.16636095  1
  Ni  Ni14  1  0.33237678  0.33323627  0.33305458  1
  Ni  Ni15  1  0.33319898  0.66751683  0.99830386  1
  Ni  Ni16  1  0.49877741  0.83185969  0.16766758  1
  Ni  Ni17  1  0.33321109  0.66689172  0.33200169  1
  Cr  Cr18  1  0.66614938  0.99828359  0.99891675  1
  Ni  Ni19  1  0.83329937  0.16556657  0.16800562  1
  Ni  Ni20  1  0.66641644  0.99897833  0.33117468  1
  Cr  Cr21  1  0.66575604  0.33341069  0.00150918  1
  Ni  Ni22  1  0.83213244  0.50077587  0.16713752  1
  Ni  Ni23  1  0.66821373  0.33285655  0.33029451  1
  Ni  Ni24  1  0.66494759  0.66725166  0.00051682  1
  Ni  Ni25  1  0.83355001  0.83181512  0.16627267  1
  Ni  Ni26  1  0.66621301  0.66609763  0.33066813  1
  Ni  Ni27  1  0.16357528  0.16844049  0.49835977  1
  Ni  Ni28  1  0.99829705  0.00094200  0.66808902  1
  Ni  Ni29  1  0.16506089  0.16681579  0.83378470  1
  Ni  Ni30  1  0.16459982  0.49789381  0.49988076  1
  Ni  Ni31  1  0.00184641  0.33214443  0.66463321  1
  Ni  Ni32  1  0.16749997  0.49941024  0.83240886  1
  Cr  Cr33  1  0.16635627  0.83215021  0.49713750  1
  Ni  Ni34  1  0.00097464  0.66511903  0.66666169  1
  Ni  Ni35  1  0.16487066  0.83189789  0.83445209  1
  Cr  Cr36  1  0.49946448  0.16344032  0.49680071  1
  Cr  Cr37  1  0.33166638  0.99863320  0.66747103  1
  Ni  Ni38  1  0.49714560  0.16581862  0.83305941  1
  Cr  Cr39  1  0.49893407  0.50210157  0.49922730  1
  Ni  Ni40  1  0.32877132  0.33440295  0.66806786  1
  Ni  Ni41  1  0.49597797  0.50146598  0.83324204  1
  Ni  Ni42  1  0.50042404  0.83169241  0.49861046  1
  Ni  Ni43  1  0.33189676  0.66493392  0.66756499  1
  Ni  Ni44  1  0.49958521  0.83084377  0.83177145  1
  Ni  Ni45  1  0.83523867  0.16619569  0.49865886  1
  Ni  Ni46  1  0.66733628  0.99766044  0.66803856  1
  Ni  Ni47  1  0.83581737  0.16343125  0.83150774  1
  Ni  Ni48  1  0.83502675  0.49917726  0.49814272  1
  Cr  Cr49  1  0.66730093  0.33147021  0.66727494  1
  Cr  Cr50  1  0.83438270  0.50243320  0.83336424  1
  Cr  Cr51  1  0.83026352  0.83274915  0.50109387  1
  Ni  Ni52  1  0.66508657  0.66826229  0.66740669  1
  Ni  Ni53  1  0.83369140  0.83349131  0.83169176  1
" 