2307,Ni22Fe40Cr36_5,-223.784364531414, 180.498877689233,Ni22Fe40Cr36,"# generated using pymatgen
 data_Cr7Fe7Ni4
_symmetry_space_group_name_H-M   'P 1'
_cell_length_a   7.48790402
_cell_length_b   7.48790402
_cell_length_c   10.58949541
_cell_angle_alpha   90.00000000
_cell_angle_beta   90.00000000
_cell_angle_gamma   90.00000000
_symmetry_Int_Tables_number   1
_chemical_formula_structural   Cr7Fe7Ni4
_chemical_formula_sum   'Cr21 Fe21 Ni12'
_cell_volume   593.73931078
_cell_formula_units_Z   3
loop_
 _symmetry_equiv_pos_site_id
 _symmetry_equiv_pos_as_xyz
  1  'x, y, z'
loop_
 _atom_site_type_symbol
 _atom_site_label
 _atom_site_symmetry_multiplicity
 _atom_site_fract_x
 _atom_site_fract_y
 _atom_site_fract_z
 _atom_site_occupancy
  Ni  Ni0  1  0.99609101  0.00100732  0.99823728  1
  Fe  Fe1  1  0.16557020  0.16736295  0.16451740  1
  Cr  Cr2  1  0.99807116  0.00054908  0.33204926  1
  Fe  Fe3  1  -0.00130730  0.33037321  0.99740643  1
  Cr  Cr4  1  0.16447898  0.49446286  0.16573844  1
  Fe  Fe5  1  0.99829686  0.33125065  0.33548919  1
  Cr  Cr6  1  0.99770282  0.66653322  0.99552643  1
  Cr  Cr7  1  0.16481029  0.83463238  0.16406623  1
  Fe  Fe8  1  0.99800033  0.66331154  0.33363707  1
  Cr  Cr9  1  0.33165829  0.99816450  0.99825950  1
  Cr  Cr10  1  0.49723238  0.16684661  0.16742874  1
  Ni  Ni11  1  0.33006192  0.00250318  0.33263190  1
  Ni  Ni12  1  0.33204333  0.33349739  0.99673396  1
  Ni  Ni13  1  0.49810647  0.49543970  0.16534493  1
  Ni  Ni14  1  0.33116101  0.33060936  0.33424924  1
  Cr  Cr15  1  0.33417421  0.66271431  0.99728553  1
  Ni  Ni16  1  0.49818111  0.83326282  0.16623757  1
  Cr  Cr17  1  0.33216299  0.66368273  0.32900618  1
  Cr  Cr18  1  0.66836139  -0.00134633  0.99860486  1
  Fe  Fe19  1  0.83358537  0.16601583  0.16591676  1
  Cr  Cr20  1  0.66722079  0.00031816  0.33226726  1
  Cr  Cr21  1  0.66539854  0.33242357  0.99761379  1
  Cr  Cr22  1  0.83275426  0.49487706  0.16665931  1
  Ni  Ni23  1  0.66642723  0.33218383  0.33347500  1
  Cr  Cr24  1  0.66342275  0.66457946  0.00047521  1
  Fe  Fe25  1  0.83194215  0.83245455  0.16399715  1
  Cr  Cr26  1  0.66666979  0.66350710  0.32867549  1
  Fe  Fe27  1  0.16472751  0.16939382  0.49877514  1
  Cr  Cr28  1  0.99664038  0.00024610  0.66508700  1
  Cr  Cr29  1  0.16442410  0.16687940  0.83473399  1
  Fe  Fe30  1  0.16294302  0.49572508  0.49890237  1
  Ni  Ni31  1  0.99670576  0.33352872  0.66518733  1
  Fe  Fe32  1  0.16350817  0.49793702  0.83131517  1
  Cr  Cr33  1  0.16479304  0.83102732  0.49864664  1
  Fe  Fe34  1  0.99650482  0.66295448  0.66614098  1
  Fe  Fe35  1  0.16345626  0.83272405  0.83182753  1
  Fe  Fe36  1  0.50005399  0.16738603  0.49742087  1
  Cr  Cr37  1  0.33300035  0.00035374  0.66472112  1
  Fe  Fe38  1  0.50026589  0.16521724  0.83115335  1
  Cr  Cr39  1  0.50084027  0.49686759  0.49821352  1
  Fe  Fe40  1  0.33001705  0.33144176  0.66572145  1
  Fe  Fe41  1  0.49991966  0.49703765  0.83093514  1
  Cr  Cr42  1  0.49932781  0.83433452  0.49790415  1
  Cr  Cr43  1  0.33138120  0.66324429  0.66895965  1
  Ni  Ni44  1  0.50177035  0.83174231  0.83099405  1
  Ni  Ni45  1  0.83177297  0.16877805  0.49995151  1
  Fe  Fe46  1  0.66641718  0.00014257  0.66607167  1
  Fe  Fe47  1  0.83102243  0.16478067  0.83022016  1
  Ni  Ni48  1  0.83424038  0.49616723  0.49983215  1
  Fe  Fe49  1  0.66698487  0.33071324  0.66473529  1
  Fe  Fe50  1  0.83167011  0.49879081  0.82896172  1
  Fe  Fe51  1  0.83125303  0.82997499  0.50044861  1
  Fe  Fe52  1  0.66827927  0.66480878  0.66624298  1
  Ni  Ni53  1  0.83059746  0.83138115  0.83016199  1
" 