2653,Ni22Cr78_19,-231.551044737937, 155.9700762818,Ni22Cr78,"# generated using pymatgen
 data_Cr11Ni43
_symmetry_space_group_name_H-M   'P 1'
_cell_length_a   7.47890926
_cell_length_b   7.47890926
_cell_length_c   10.57677490
_cell_angle_alpha   90.00000000
_cell_angle_beta   90.00000000
_cell_angle_gamma   90.00000000
_symmetry_Int_Tables_number   1
_chemical_formula_structural   Cr11Ni43
_chemical_formula_sum   'Cr11 Ni43'
_cell_volume   591.60221275
_cell_formula_units_Z   1
loop_
 _symmetry_equiv_pos_site_id
 _symmetry_equiv_pos_as_xyz
  1  'x, y, z'
loop_
 _atom_site_type_symbol
 _atom_site_label
 _atom_site_symmetry_multiplicity
 _atom_site_fract_x
 _atom_site_fract_y
 _atom_site_fract_z
 _atom_site_occupancy
  Ni  Ni0  1  0.99762452  0.99890482  0.99917470  1
  Ni  Ni1  1  0.16631212  0.16745670  0.16696441  1
  Ni  Ni2  1  0.00075110  0.00188808  0.33352269  1
  Ni  Ni3  1  -0.00013469  0.33411264  0.00042600  1
  Ni  Ni4  1  0.16738746  0.49766994  0.16447871  1
  Ni  Ni5  1  0.00043107  0.33193433  0.33339995  1
  Ni  Ni6  1  0.99812429  0.66462075  0.00017064  1
  Ni  Ni7  1  0.16618886  0.83251695  0.16547200  1
  Cr  Cr8  1  -0.00018845  0.66294314  0.33259623  1
  Cr  Cr9  1  0.33441437  0.00110481  -0.00019849  1
  Ni  Ni10  1  0.49721161  0.16821883  0.16777305  1
  Ni  Ni11  1  0.33250079  0.00153859  0.33269290  1
  Ni  Ni12  1  0.33267231  0.33460949  0.00129345  1
  Ni  Ni13  1  0.49808996  0.49837830  0.16667511  1
  Ni  Ni14  1  0.33253523  0.33234398  0.33195829  1
  Ni  Ni15  1  0.33338307  0.66304010  0.00045043  1
  Cr  Cr16  1  0.50014654  0.83118712  0.16786308  1
  Ni  Ni17  1  0.33412576  0.66367379  0.33221515  1
  Ni  Ni18  1  0.66665129  0.99830741  0.99579430  1
  Cr  Cr19  1  0.83216402  0.16650716  0.16715373  1
  Ni  Ni20  1  0.66423957  0.00073947  0.33566643  1
  Cr  Cr21  1  0.66395558  0.33303712  0.99747310  1
  Ni  Ni22  1  0.83211759  0.49884557  0.16572703  1
  Ni  Ni23  1  0.66459117  0.33373640  0.33369424  1
  Ni  Ni24  1  0.66622481  0.66533256  0.99700568  1
  Cr  Cr25  1  0.83173579  0.83249916  0.16520483  1
  Ni  Ni26  1  0.66424922  0.66322043  0.33489056  1
  Ni  Ni27  1  0.16575567  0.16813041  0.49918957  1
  Ni  Ni28  1  0.99771358  0.00009891  0.66495345  1
  Cr  Cr29  1  0.16438851  0.16821614  0.83049563  1
  Ni  Ni30  1  0.16738049  0.49575746  0.50051357  1
  Ni  Ni31  1  0.99678129  0.33296481  0.66358280  1
  Cr  Cr32  1  0.16658507  0.49865986  0.83147745  1
  Cr  Cr33  1  0.16769169  0.83338036  0.50100620  1
  Ni  Ni34  1  0.99572716  0.66456093  0.66519414  1
  Cr  Cr35  1  0.16523306  0.83089096  0.83120713  1
  Ni  Ni36  1  0.49841508  0.16733868  0.49798959  1
  Ni  Ni37  1  0.33411477  0.00048903  0.66470000  1
  Ni  Ni38  1  0.50030709  0.16743473  0.83177648  1
  Ni  Ni39  1  0.49929358  0.49913562  0.49917723  1
  Ni  Ni40  1  0.33508043  0.33240569  0.66402949  1
  Ni  Ni41  1  0.50024450  0.50039200  0.83167564  1
  Ni  Ni42  1  0.50033976  0.83117089  0.49823710  1
  Ni  Ni43  1  0.33584430  0.66465350  0.66485796  1
  Ni  Ni44  1  0.50155983  0.82979283  0.83244897  1
  Ni  Ni45  1  0.83343090  0.16723657  0.49826958  1
  Cr  Cr46  1  0.66525543  -0.00033639  0.66701307  1
  Ni  Ni47  1  0.83272068  0.16606078  0.83270206  1
  Ni  Ni48  1  0.83093264  0.49760756  0.50021577  1
  Ni  Ni49  1  0.66585894  0.33446012  0.66601883  1
  Ni  Ni50  1  0.83138148  0.50006213  0.83170600  1
  Ni  Ni51  1  0.83021821  0.83278605  0.49925606  1
  Ni  Ni52  1  0.66614724  0.66397259  0.66601652  1
  Ni  Ni53  1  0.83127131  0.83148780  0.83392914  1
" 