2888,Ni22Fe21Cr56_19,-216.863655068708, 164.349974949711,Ni22Fe21Cr56,"# generated using pymatgen
 data_Cr31Fe11Ni12
_symmetry_space_group_name_H-M   'P 1'
_cell_length_a   7.53177716
_cell_length_b   7.53177716
_cell_length_c   10.65154141
_cell_angle_alpha   90.00000000
_cell_angle_beta   90.00000000
_cell_angle_gamma   90.00000000
_symmetry_Int_Tables_number   1
_chemical_formula_structural   Cr31Fe11Ni12
_chemical_formula_sum   'Cr31 Fe11 Ni12'
_cell_volume   604.23709561
_cell_formula_units_Z   1
loop_
 _symmetry_equiv_pos_site_id
 _symmetry_equiv_pos_as_xyz
  1  'x, y, z'
loop_
 _atom_site_type_symbol
 _atom_site_label
 _atom_site_symmetry_multiplicity
 _atom_site_fract_x
 _atom_site_fract_y
 _atom_site_fract_z
 _atom_site_occupancy
  Cr  Cr0  1  -0.00427487  -0.00385570  -0.00196991  1
  Cr  Cr1  1  0.16604086  0.16299365  0.15741061  1
  Cr  Cr2  1  0.99501235  -0.00163880  0.32677632  1
  Cr  Cr3  1  -0.00281468  0.32893409  -0.00311751  1
  Ni  Ni4  1  0.16288301  0.49698714  0.16189072  1
  Cr  Cr5  1  0.99541782  0.32581600  0.32869825  1
  Ni  Ni6  1  0.99422296  0.66205183  0.99466820  1
  Cr  Cr7  1  0.16245714  0.82706173  0.16094168  1
  Cr  Cr8  1  0.99560762  0.66150295  0.32624647  1
  Ni  Ni9  1  0.33071812  -0.00368628  0.99368846  1
  Cr  Cr10  1  0.49669329  0.16098020  0.15719290  1
  Cr  Cr11  1  0.33020816  0.99448768  0.33096732  1
  Ni  Ni12  1  0.32718714  0.32955144  0.99175042  1
  Cr  Cr13  1  0.49224980  0.49381267  0.16278316  1
  Cr  Cr14  1  0.32695660  0.32790364  0.33035324  1
  Cr  Cr15  1  0.33078017  0.66208061  -0.00250037  1
  Ni  Ni16  1  0.49660778  0.83102873  0.16135925  1
  Fe  Fe17  1  0.32878878  0.66228942  0.32736267  1
  Ni  Ni18  1  0.66142733  0.99218729  0.99566673  1
  Ni  Ni19  1  0.82703911  0.15773301  0.16157958  1
  Cr  Cr20  1  0.66279189  -0.00411350  0.33026614  1
  Cr  Cr21  1  0.66279967  0.33074706  -0.00267282  1
  Cr  Cr22  1  0.83066391  0.49665329  0.16126944  1
  Cr  Cr23  1  0.66444543  0.32662259  0.32760060  1
  Cr  Cr24  1  0.66211006  0.66312875  0.99261447  1
  Ni  Ni25  1  0.82711409  0.83026803  0.15874305  1
  Cr  Cr26  1  0.65971114  0.66507122  0.32639267  1
  Fe  Fe27  1  0.16222298  0.16403606  0.49793690  1
  Cr  Cr28  1  -0.00316278  -0.00157573  0.66182883  1
  Ni  Ni29  1  0.16332829  0.16320996  0.82861357  1
  Fe  Fe30  1  0.16138445  0.49250142  0.49679970  1
  Fe  Fe31  1  -0.00226168  0.32836344  0.66254290  1
  Cr  Cr32  1  0.16299620  0.49663763  0.82810065  1
  Cr  Cr33  1  0.16231302  0.82516406  0.49341079  1
  Fe  Fe34  1  -0.00403599  0.66221706  0.66500418  1
  Cr  Cr35  1  0.15996086  0.82991570  0.83223008  1
  Ni  Ni36  1  0.49618184  0.16246871  0.49869929  1
  Cr  Cr37  1  0.32880004  -0.00353395  0.66250455  1
  Cr  Cr38  1  0.49473828  0.16362174  0.83245000  1
  Cr  Cr39  1  0.49453141  0.49457332  0.49307714  1
  Fe  Fe40  1  0.32893340  0.32852472  0.66338700  1
  Ni  Ni41  1  0.49509591  0.49529192  0.82931216  1
  Fe  Fe42  1  0.49805706  0.83104130  0.49604439  1
  Cr  Cr43  1  0.33164236  0.66273394  0.66074033  1
  Fe  Fe44  1  0.49412466  0.83134065  0.83128609  1
  Ni  Ni45  1  0.82711636  0.16221470  0.49792906  1
  Fe  Fe46  1  0.66115330  -0.00344226  0.66266299  1
  Cr  Cr47  1  0.82753658  0.16043715  0.82973797  1
  Cr  Cr48  1  0.83015046  0.49599022  0.49812693  1
  Cr  Cr49  1  0.66256984  0.33095908  0.66310995  1
  Fe  Fe50  1  0.83075563  0.49510646  0.82918200  1
  Cr  Cr51  1  0.83056653  0.82971459  0.49814385  1
  Cr  Cr52  1  0.66153886  0.66418391  0.66862969  1
  Fe  Fe53  1  0.82887429  0.82966220  0.83050404  1
" 