8821,Ni22Fe78_14,-242.918395820297, 209.96174847105,Ni22Fe78,"# generated using pymatgen
 data_Fe11Ni43
_symmetry_space_group_name_H-M   'P 1'
_cell_length_a   7.42123584
_cell_length_b   7.42123584
_cell_length_c   10.49521238
_cell_angle_alpha   90.00000000
_cell_angle_beta   90.00000000
_cell_angle_gamma   90.00000000
_symmetry_Int_Tables_number   1
_chemical_formula_structural   Fe11Ni43
_chemical_formula_sum   'Fe11 Ni43'
_cell_volume   578.02110787
_cell_formula_units_Z   1
loop_
 _symmetry_equiv_pos_site_id
 _symmetry_equiv_pos_as_xyz
  1  'x, y, z'
loop_
 _atom_site_type_symbol
 _atom_site_label
 _atom_site_symmetry_multiplicity
 _atom_site_fract_x
 _atom_site_fract_y
 _atom_site_fract_z
 _atom_site_occupancy
  Ni  Ni0  1  1.00213932  1.00287820  0.00316287  1
  Fe  Fe1  1  0.16934202  0.16901861  0.16940928  1
  Ni  Ni2  1  1.00250153  1.00305753  0.33569442  1
  Ni  Ni3  1  1.00305662  0.33666015  1.00274381  1
  Ni  Ni4  1  0.16920546  0.50383364  0.16968039  1
  Fe  Fe5  1  1.00275007  0.33628396  0.33608343  1
  Ni  Ni6  1  1.00305870  0.66971915  1.00274471  1
  Ni  Ni7  1  0.17008666  0.83559268  0.16929634  1
  Fe  Fe8  1  0.00309424  0.67022554  0.33581175  1
  Ni  Ni9  1  0.33632079  1.00291200  1.00305115  1
  Ni  Ni10  1  0.50359919  0.16890115  0.16986722  1
  Ni  Ni11  1  0.33526924  1.00308619  0.33642051  1
  Ni  Ni12  1  0.33604156  0.33726834  1.00268520  1
  Fe  Fe13  1  0.50308608  0.50369860  0.17049673  1
  Ni  Ni14  1  0.33686899  0.33719766  0.33682327  1
  Ni  Ni15  1  0.33601142  0.66908108  1.00263243  1
  Ni  Ni16  1  0.50269025  0.83813315  0.17010533  1
  Ni  Ni17  1  0.33679563  0.66897493  0.33676357  1
  Ni  Ni18  1  0.67079837  1.00291291  1.00253682  1
  Ni  Ni19  1  0.83487816  0.16978227  0.16951346  1
  Ni  Ni20  1  0.67148389  0.00312937  0.33764981  1
  Fe  Fe21  1  0.66988879  0.33574183  1.00308650  1
  Ni  Ni22  1  0.83741546  0.50292033  0.17008517  1
  Ni  Ni23  1  0.66988834  0.33715421  0.33621614  1
  Fe  Fe24  1  0.67022660  0.67063353  1.00268264  1
  Ni  Ni25  1  0.83648401  0.83655710  0.16975056  1
  Ni  Ni26  1  0.66992176  0.66897648  0.33610501  1
  Ni  Ni27  1  0.17093181  0.16938209  0.50216396  1
  Ni  Ni28  1  0.00338908  1.00305811  0.67040100  1
  Ni  Ni29  1  0.17121754  0.16965580  0.83711519  1
  Ni  Ni30  1  0.17032935  0.50339000  0.50350130  1
  Fe  Fe31  1  0.00383098  0.33675052  0.67001962  1
  Ni  Ni32  1  0.16965069  0.50291974  0.83607448  1
  Ni  Ni33  1  0.16933370  0.83648897  0.50308426  1
  Fe  Fe34  1  0.00348595  0.66976015  0.67029228  1
  Ni  Ni35  1  0.16961578  0.83668403  0.83687702  1
  Ni  Ni36  1  0.50298728  0.17040950  0.50305182  1
  Ni  Ni37  1  0.33453364  0.00312871  0.66978374  1
  Ni  Ni38  1  0.50213256  0.16968958  0.83634453  1
  Ni  Ni39  1  0.50303292  0.50178556  0.50250518  1
  Ni  Ni40  1  0.33711116  0.33702916  0.66975323  1
  Ni  Ni41  1  0.50305155  0.50223778  0.83727658  1
  Fe  Fe42  1  0.50281711  0.83593480  0.50274795  1
  Ni  Ni43  1  0.33708254  0.66909917  0.66986677  1
  Ni  Ni44  1  0.50304513  0.83733259  0.83610487  1
  Ni  Ni45  1  0.83533715  0.16942580  0.50329845  1
  Fe  Fe46  1  0.66867059  1.00308312  0.66989284  1
  Fe  Fe47  1  0.83675982  0.16948691  0.83675441  1
  Ni  Ni48  1  0.83590408  0.50338985  0.50274365  1
  Ni  Ni49  1  0.66967714  0.33798922  0.66996164  1
  Ni  Ni50  1  0.83656282  0.50383507  0.83642541  1
  Ni  Ni51  1  0.83693548  0.83644537  0.50237786  1
  Ni  Ni52  1  0.66974775  0.66818367  0.67002503  1
  Ni  Ni53  1  0.83659598  0.83576688  0.83713114  1
" 