6938,Ni22Fe34Cr43_12,-221.781890136942, 173.405124444428,Ni22Fe34Cr43,"# generated using pymatgen
 data_Cr4Fe3Ni2
_symmetry_space_group_name_H-M   'P 1'
_cell_length_a   7.50151860
_cell_length_b   7.50151860
_cell_length_c   10.60874934
_cell_angle_alpha   90.00000000
_cell_angle_beta   90.00000000
_cell_angle_gamma   90.00000000
_symmetry_Int_Tables_number   1
_chemical_formula_structural   Cr4Fe3Ni2
_chemical_formula_sum   'Cr24 Fe18 Ni12'
_cell_volume   596.98383103
_cell_formula_units_Z   6
loop_
 _symmetry_equiv_pos_site_id
 _symmetry_equiv_pos_as_xyz
  1  'x, y, z'
loop_
 _atom_site_type_symbol
 _atom_site_label
 _atom_site_symmetry_multiplicity
 _atom_site_fract_x
 _atom_site_fract_y
 _atom_site_fract_z
 _atom_site_occupancy
  Cr  Cr0  1  0.99676680  -0.00133175  -0.00064715  1
  Cr  Cr1  1  0.16659008  0.16637277  0.16343757  1
  Ni  Ni2  1  -0.00070793  -0.00104019  0.33223082  1
  Fe  Fe3  1  0.99682546  0.33174853  -0.00111930  1
  Ni  Ni4  1  0.16676664  0.49419805  0.16418071  1
  Cr  Cr5  1  0.99535017  0.32954309  0.32961159  1
  Cr  Cr6  1  0.99579355  0.66149336  0.99691640  1
  Cr  Cr7  1  0.16503155  0.82999949  0.16595192  1
  Cr  Cr8  1  -0.00149431  0.66422199  0.33177141  1
  Cr  Cr9  1  0.33436793  -0.00056459  0.99326823  1
  Ni  Ni10  1  0.49998177  0.16671167  0.16270762  1
  Cr  Cr11  1  0.33104266  -0.00163325  0.33318953  1
  Ni  Ni12  1  0.33480906  0.33119547  -0.00080884  1
  Fe  Fe13  1  0.49539733  0.49520909  0.16334029  1
  Fe  Fe14  1  0.33133096  0.33099846  0.32987345  1
  Cr  Cr15  1  0.33122135  0.66432781  -0.00090519  1
  Cr  Cr16  1  0.49961287  0.83209256  0.16388107  1
  Fe  Fe17  1  0.33090574  0.66236373  0.33192830  1
  Ni  Ni18  1  0.66261849  0.00148009  0.99750262  1
  Fe  Fe19  1  0.82892013  0.16452220  0.16361279  1
  Fe  Fe20  1  0.66439212  -0.00020854  0.32977698  1
  Fe  Fe21  1  0.66444710  0.33063912  -0.00174723  1
  Fe  Fe22  1  0.83028539  0.49601289  0.16168764  1
  Cr  Cr23  1  0.66161073  0.33040284  0.32971823  1
  Fe  Fe24  1  0.66398279  0.66434893  0.99697059  1
  Cr  Cr25  1  0.82857108  0.83360777  0.16580305  1
  Cr  Cr26  1  0.66135304  0.66032396  0.33266614  1
  Ni  Ni27  1  0.16691322  0.16306921  0.49905392  1
  Ni  Ni28  1  0.00077520  -0.00197950  0.66162415  1
  Cr  Cr29  1  0.16635122  0.16689247  0.82974892  1
  Cr  Cr30  1  0.16708573  0.49432225  0.49834657  1
  Fe  Fe31  1  0.99738077  0.32833578  0.66383513  1
  Cr  Cr32  1  0.16407949  0.49351800  0.82997450  1
  Ni  Ni33  1  0.16538163  0.83326203  0.49784524  1
  Fe  Fe34  1  -0.00224351  0.66558234  0.66468996  1
  Cr  Cr35  1  0.16510535  0.83230987  0.83000505  1
  Fe  Fe36  1  0.49630316  0.16487063  0.49950750  1
  Ni  Ni37  1  0.33198240  -0.00118953  0.66463302  1
  Fe  Fe38  1  0.49980865  0.16480370  0.83026732  1
  Fe  Fe39  1  0.49676873  0.49538786  0.49954712  1
  Fe  Fe40  1  0.33392516  0.32717390  0.66355959  1
  Cr  Cr41  1  0.49797771  0.49676439  0.83171851  1
  Fe  Fe42  1  0.49644937  0.83320510  0.49923130  1
  Cr  Cr43  1  0.33180621  0.66813919  0.66335570  1
  Ni  Ni44  1  0.50143678  0.83251926  0.83025789  1
  Cr  Cr45  1  0.83082988  0.16255197  0.49703286  1
  Fe  Fe46  1  0.66067621  -0.00024650  0.66523463  1
  Cr  Cr47  1  0.83064769  0.16518985  0.83096866  1
  Cr  Cr48  1  0.82955440  0.49733095  0.50311501  1
  Ni  Ni49  1  0.66315522  0.33150385  0.66518896  1
  Ni  Ni50  1  0.82850462  0.49600724  0.82972567  1
  Cr  Cr51  1  0.82911707  0.83312856  0.49834318  1
  Fe  Fe52  1  0.66278833  0.66535802  0.66515013  1
  Cr  Cr53  1  0.82759630  0.83108310  0.82916983  1
" 