1250,Ni22Fe21Cr56_4,-217.269357785679, 175.357214043778,Ni22Fe21Cr56,"# generated using pymatgen
 data_Cr31Fe11Ni12
_symmetry_space_group_name_H-M   'P 1'
_cell_length_a   7.52466198
_cell_length_b   7.52466198
_cell_length_c   10.64147903
_cell_angle_alpha   90.00000000
_cell_angle_beta   90.00000000
_cell_angle_gamma   90.00000000
_symmetry_Int_Tables_number   1
_chemical_formula_structural   Cr31Fe11Ni12
_chemical_formula_sum   'Cr31 Fe11 Ni12'
_cell_volume   602.52626755
_cell_formula_units_Z   1
loop_
 _symmetry_equiv_pos_site_id
 _symmetry_equiv_pos_as_xyz
  1  'x, y, z'
loop_
 _atom_site_type_symbol
 _atom_site_label
 _atom_site_symmetry_multiplicity
 _atom_site_fract_x
 _atom_site_fract_y
 _atom_site_fract_z
 _atom_site_occupancy
  Ni  Ni0  1  -0.00260584  0.99596065  0.99366074  1
  Cr  Cr1  1  0.16211276  0.16202463  0.15818847  1
  Cr  Cr2  1  -0.00209312  0.99327200  0.33277575  1
  Cr  Cr3  1  0.99409464  0.32977741  0.99179961  1
  Cr  Cr4  1  0.16467194  0.49563429  0.16796781  1
  Cr  Cr5  1  0.99418211  0.32967206  0.32932090  1
  Cr  Cr6  1  -0.00324779  0.66192800  -0.00147706  1
  Ni  Ni7  1  0.16249724  0.82938521  0.16337003  1
  Ni  Ni8  1  -0.00016446  0.66621038  0.33004509  1
  Fe  Fe9  1  0.32552950  -0.00375492  0.99547320  1
  Fe  Fe10  1  0.49432283  0.16216578  0.16325145  1
  Cr  Cr11  1  0.32917434  -0.00373428  0.32667314  1
  Cr  Cr12  1  0.33062570  0.32867255  0.99389930  1
  Cr  Cr13  1  0.49515986  0.49618888  0.16527528  1
  Ni  Ni14  1  0.33101489  0.32636615  0.33137825  1
  Cr  Cr15  1  0.32932085  0.66469229  0.99276748  1
  Cr  Cr16  1  0.49666712  0.82947150  0.15869794  1
  Fe  Fe17  1  0.32819547  0.66530507  0.33021099  1
  Cr  Cr18  1  0.65991780  -0.00111120  0.99414458  1
  Cr  Cr19  1  0.83023034  0.15969252  0.16191571  1
  Cr  Cr20  1  0.66131352  -0.00179328  0.33534007  1
  Cr  Cr21  1  0.66373332  0.33214573  -0.00199773  1
  Fe  Fe22  1  0.83137969  0.49802750  0.16314951  1
  Cr  Cr23  1  0.66174155  0.32619915  0.32856221  1
  Fe  Fe24  1  0.66286537  0.66167402  0.99353274  1
  Cr  Cr25  1  0.83026634  0.83090179  0.16190164  1
  Cr  Cr26  1  0.66745974  0.66373590  0.32867044  1
  Cr  Cr27  1  0.16213300  0.16638784  0.49990103  1
  Fe  Fe28  1  0.99438175  -0.00274256  0.66356995  1
  Ni  Ni29  1  0.15971242  0.16121911  0.82879923  1
  Cr  Cr30  1  0.16568032  0.49680120  0.49554773  1
  Fe  Fe31  1  0.99482104  0.32842185  0.66484384  1
  Cr  Cr32  1  0.16468829  0.49309229  0.82394930  1
  Fe  Fe33  1  0.16335455  0.82980448  0.49642104  1
  Cr  Cr34  1  -0.00362182  0.66423529  0.66087685  1
  Cr  Cr35  1  0.16142069  0.83161031  0.83018074  1
  Ni  Ni36  1  0.49550843  0.16247744  0.49566327  1
  Cr  Cr37  1  0.32861008  0.99561965  0.66415384  1
  Cr  Cr38  1  0.49532293  0.16249286  0.82945692  1
  Cr  Cr39  1  0.49249703  0.49536848  0.49606758  1
  Fe  Fe40  1  0.33178147  0.32949074  0.66362237  1
  Ni  Ni41  1  0.49684270  0.49792475  0.82796503  1
  Cr  Cr42  1  0.49816788  0.82738471  0.49925854  1
  Ni  Ni43  1  0.32918459  0.66414082  0.66323822  1
  Fe  Fe44  1  0.49539971  0.82894769  0.82865351  1
  Ni  Ni45  1  0.82938138  0.15833144  0.50075244  1
  Fe  Fe46  1  0.66381647  -0.00374632  0.66137183  1
  Ni  Ni47  1  0.83160793  0.16204910  0.82690210  1
  Cr  Cr48  1  0.83083737  0.49672667  0.49389416  1
  Cr  Cr49  1  0.66467309  0.32728140  0.66219526  1
  Ni  Ni50  1  0.82681438  0.49510101  0.83174852  1
  Ni  Ni51  1  0.83170549  0.83224434  0.49764828  1
  Cr  Cr52  1  0.66299925  0.66132666  0.66762313  1
  Cr  Cr53  1  0.82718189  0.83256702  0.83046580  1
" 