6917,Ni22Fe34Cr43_8,-221.752164860336, 179.41713566665,Ni22Fe34Cr43,"# generated using pymatgen
 data_Cr4Fe3Ni2
_symmetry_space_group_name_H-M   'P 1'
_cell_length_a   7.49766813
_cell_length_b   7.49766813
_cell_length_c   10.60330395
_cell_angle_alpha   90.00000000
_cell_angle_beta   90.00000000
_cell_angle_gamma   90.00000000
_symmetry_Int_Tables_number   1
_chemical_formula_structural   Cr4Fe3Ni2
_chemical_formula_sum   'Cr24 Fe18 Ni12'
_cell_volume   596.06502209
_cell_formula_units_Z   6
loop_
 _symmetry_equiv_pos_site_id
 _symmetry_equiv_pos_as_xyz
  1  'x, y, z'
loop_
 _atom_site_type_symbol
 _atom_site_label
 _atom_site_symmetry_multiplicity
 _atom_site_fract_x
 _atom_site_fract_y
 _atom_site_fract_z
 _atom_site_occupancy
  Fe  Fe0  1  -0.00059629  0.99738385  0.99773842  1
  Cr  Cr1  1  0.16633334  0.16331737  0.16378223  1
  Ni  Ni2  1  -0.00024942  0.99535192  0.33333126  1
  Fe  Fe3  1  -0.00090407  0.33073404  0.99720618  1
  Ni  Ni4  1  0.16467857  0.49912312  0.16274867  1
  Cr  Cr5  1  0.99687119  0.33033246  0.33384947  1
  Fe  Fe6  1  -0.00198429  0.66471279  0.99710008  1
  Ni  Ni7  1  0.16420166  0.82931765  0.16558880  1
  Fe  Fe8  1  0.99723631  0.66542882  0.33348101  1
  Ni  Ni9  1  0.32809826  -0.00081916  -0.00082972  1
  Ni  Ni10  1  0.49599334  0.16828905  0.16262224  1
  Fe  Fe11  1  0.33043526  -0.00147926  0.32955974  1
  Fe  Fe12  1  0.33255713  0.32963038  0.99794899  1
  Fe  Fe13  1  0.49581581  0.49655028  0.16347619  1
  Fe  Fe14  1  0.33060616  0.33060830  0.32918962  1
  Cr  Cr15  1  0.32939150  0.66612965  0.99629952  1
  Cr  Cr16  1  0.49950308  0.83414502  0.16479779  1
  Cr  Cr17  1  0.33035195  0.66473713  0.33221828  1
  Cr  Cr18  1  0.66504913  0.00018769  0.99541586  1
  Cr  Cr19  1  0.83082666  0.16335900  0.16282463  1
  Cr  Cr20  1  0.66833722  -0.00040831  0.33217789  1
  Ni  Ni21  1  0.66847651  0.33128070  0.99763085  1
  Cr  Cr22  1  0.83190519  0.50111120  0.16434076  1
  Cr  Cr23  1  0.66634365  0.33200642  0.33104199  1
  Cr  Cr24  1  0.66527296  0.66438319  0.99637172  1
  Cr  Cr25  1  0.83656564  0.83037134  0.16533403  1
  Fe  Fe26  1  0.66788844  0.66568146  0.33380218  1
  Cr  Cr27  1  0.16331089  0.16171323  0.49810127  1
  Fe  Fe28  1  0.99584553  0.99617314  0.66393615  1
  Ni  Ni29  1  0.16161605  0.16240568  0.83300834  1
  Cr  Cr30  1  0.16184673  0.49836286  0.50054709  1
  Fe  Fe31  1  0.99305331  0.32911973  0.66489968  1
  Cr  Cr32  1  0.16146142  0.49581200  0.83022189  1
  Fe  Fe33  1  0.15988583  0.83090537  0.49727075  1
  Ni  Ni34  1  0.99420152  0.66372727  0.66378175  1
  Cr  Cr35  1  0.16052663  0.83304747  0.83147656  1
  Cr  Cr36  1  0.49862075  0.16400445  0.49723820  1
  Cr  Cr37  1  0.33235669  0.99541345  0.66336175  1
  Cr  Cr38  1  0.49756156  0.16435919  0.83118473  1
  Cr  Cr39  1  0.49968579  0.49688939  0.49837200  1
  Cr  Cr40  1  0.32680623  0.33034411  0.66503019  1
  Cr  Cr41  1  0.50049860  0.49634541  0.83093134  1
  Fe  Fe42  1  0.50186574  0.83233858  0.49719915  1
  Cr  Cr43  1  0.32939068  0.66723486  0.66506569  1
  Fe  Fe44  1  0.49687058  0.83443335  0.83158723  1
  Ni  Ni45  1  0.83129531  0.16172717  0.50216789  1
  Ni  Ni46  1  0.66852307  -0.00087896  0.66525065  1
  Fe  Fe47  1  0.83398728  0.16570026  0.83024144  1
  Ni  Ni48  1  0.83101849  0.50036485  0.50121153  1
  Fe  Fe49  1  0.66813146  0.33030099  0.66460442  1
  Fe  Fe50  1  0.83316948  0.49614069  0.83054041  1
  Ni  Ni51  1  0.83291477  0.83125356  0.49870363  1
  Cr  Cr52  1  0.66446092  0.66823232  0.66535930  1
  Fe  Fe53  1  0.83182165  0.83279537  0.82939012  1
" 