8646,Ni22Fe21Cr56_14,-217.174015476034, 167.680843217817,Ni22Fe21Cr56,"# generated using pymatgen
 data_Cr31Fe11Ni12
_symmetry_space_group_name_H-M   'P 1'
_cell_length_a   7.53265543
_cell_length_b   7.53265543
_cell_length_c   10.65278347
_cell_angle_alpha   90.00000000
_cell_angle_beta   90.00000000
_cell_angle_gamma   90.00000000
_symmetry_Int_Tables_number   1
_chemical_formula_structural   Cr31Fe11Ni12
_chemical_formula_sum   'Cr31 Fe11 Ni12'
_cell_volume   604.44849891
_cell_formula_units_Z   1
loop_
 _symmetry_equiv_pos_site_id
 _symmetry_equiv_pos_as_xyz
  1  'x, y, z'
loop_
 _atom_site_type_symbol
 _atom_site_label
 _atom_site_symmetry_multiplicity
 _atom_site_fract_x
 _atom_site_fract_y
 _atom_site_fract_z
 _atom_site_occupancy
  Cr  Cr0  1  0.99475671  0.99536519  -0.00368358  1
  Cr  Cr1  1  0.16618586  0.16104326  0.15800711  1
  Cr  Cr2  1  0.99554582  -0.00400180  0.33007683  1
  Cr  Cr3  1  -0.00157738  0.33054448  -0.00390617  1
  Fe  Fe4  1  0.16173962  0.49417781  0.16459967  1
  Cr  Cr5  1  -0.00248883  0.32943099  0.33036223  1
  Cr  Cr6  1  0.99327457  0.66091500  -0.00142662  1
  Cr  Cr7  1  0.16351745  0.82783259  0.16565705  1
  Fe  Fe8  1  -0.00331273  0.65976346  0.32943796  1
  Ni  Ni9  1  0.33100607  -0.00289737  0.99102593  1
  Cr  Cr10  1  0.49386229  0.16430866  0.16366675  1
  Cr  Cr11  1  0.32888760  -0.00238539  0.33320974  1
  Ni  Ni12  1  0.32891256  0.32596937  0.99495708  1
  Cr  Cr13  1  0.49338404  0.49230945  0.16483885  1
  Ni  Ni14  1  0.32802490  0.33092034  0.33011788  1
  Cr  Cr15  1  0.33111499  0.66106729  -0.00272718  1
  Fe  Fe16  1  0.49497011  0.82970150  0.16266652  1
  Fe  Fe17  1  0.32630946  0.65936628  0.33101970  1
  Cr  Cr18  1  0.66083411  0.99255425  -0.00238525  1
  Cr  Cr19  1  0.82753772  0.16370333  0.16429938  1
  Cr  Cr20  1  0.66245928  -0.00317787  0.32776115  1
  Cr  Cr21  1  0.66209938  0.33033035  -0.00322820  1
  Ni  Ni22  1  0.82822332  0.49785161  0.16606544  1
  Ni  Ni23  1  0.66186407  0.33108773  0.33230066  1
  Cr  Cr24  1  0.66287209  0.66423040  0.99384090  1
  Ni  Ni25  1  0.83115655  0.82464199  0.16319347  1
  Cr  Cr26  1  0.66240325  0.66308662  0.32661951  1
  Fe  Fe27  1  0.16557526  0.16377556  0.49518658  1
  Cr  Cr28  1  -0.00072485  -0.00043754  0.65998181  1
  Fe  Fe29  1  0.16442559  0.16228172  0.83004340  1
  Ni  Ni30  1  0.16098194  0.49591121  0.49214986  1
  Fe  Fe31  1  0.99507091  0.32981927  0.65821407  1
  Cr  Cr32  1  0.16304690  0.49545135  0.83131392  1
  Ni  Ni33  1  0.16107894  0.82713415  0.49450146  1
  Cr  Cr34  1  -0.00325342  0.66098558  0.66012490  1
  Cr  Cr35  1  0.16210103  0.83110497  0.82750220  1
  Ni  Ni36  1  0.49647713  0.16615304  0.49466805  1
  Fe  Fe37  1  0.33034514  -0.00189216  0.66091163  1
  Ni  Ni38  1  0.49308466  0.16117666  0.82882067  1
  Cr  Cr39  1  0.49649897  0.49294633  0.49512606  1
  Cr  Cr40  1  0.32607695  0.32679881  0.66198499  1
  Cr  Cr41  1  0.49545072  0.48998442  0.82787009  1
  Cr  Cr42  1  0.49319109  0.82981550  0.49576042  1
  Cr  Cr43  1  0.32831226  0.66208698  0.66014101  1
  Fe  Fe44  1  0.49502365  0.83168293  0.82867119  1
  Fe  Fe45  1  0.82730767  0.16595367  0.49563786  1
  Cr  Cr46  1  0.66062688  -0.00346231  0.66241304  1
  Cr  Cr47  1  0.82744816  0.16319004  0.82751605  1
  Fe  Fe48  1  0.82866712  0.49403366  0.49557232  1
  Ni  Ni49  1  0.66165715  0.32549982  0.65854446  1
  Cr  Cr50  1  0.82909708  0.49441028  0.82501102  1
  Cr  Cr51  1  0.83107110  0.82891431  0.49511459  1
  Cr  Cr52  1  0.66184328  0.66246844  0.66643193  1
  Ni  Ni53  1  0.83079152  0.83130954  0.82925540  1
" 