4981,Ni22Fe34Cr43_1,-221.968973057276, 174.950289919666,Ni22Fe34Cr43,"# generated using pymatgen
 data_Cr4Fe3Ni2
_symmetry_space_group_name_H-M   'P 1'
_cell_length_a   7.50170217
_cell_length_b   7.50170217
_cell_length_c   10.60900895
_cell_angle_alpha   90.00000000
_cell_angle_beta   90.00000000
_cell_angle_gamma   90.00000000
_symmetry_Int_Tables_number   1
_chemical_formula_structural   Cr4Fe3Ni2
_chemical_formula_sum   'Cr24 Fe18 Ni12'
_cell_volume   597.02765892
_cell_formula_units_Z   6
loop_
 _symmetry_equiv_pos_site_id
 _symmetry_equiv_pos_as_xyz
  1  'x, y, z'
loop_
 _atom_site_type_symbol
 _atom_site_label
 _atom_site_symmetry_multiplicity
 _atom_site_fract_x
 _atom_site_fract_y
 _atom_site_fract_z
 _atom_site_occupancy
  Fe  Fe0  1  0.99615082  -0.00086909  -0.00154857  1
  Ni  Ni1  1  0.16484347  0.16654796  0.16426521  1
  Cr  Cr2  1  -0.00103705  0.99717028  0.33099163  1
  Ni  Ni3  1  0.99670996  0.33054313  -0.00127853  1
  Fe  Fe4  1  0.16434106  0.49613364  0.16480510  1
  Cr  Cr5  1  0.00008382  0.33120419  0.33229261  1
  Fe  Fe6  1  0.99747646  0.66411374  -0.00060070  1
  Fe  Fe7  1  0.16256564  0.83139061  0.16422775  1
  Fe  Fe8  1  0.99642559  0.66395800  0.33045908  1
  Cr  Cr9  1  0.33078102  -0.00022965  -0.00064022  1
  Ni  Ni10  1  0.49833298  0.16606665  0.16450617  1
  Cr  Cr11  1  0.33014506  0.00070421  0.32979690  1
  Cr  Cr12  1  0.33119484  0.32961814  -0.00149210  1
  Fe  Fe13  1  0.49789308  0.49469058  0.16679685  1
  Ni  Ni14  1  0.33188231  0.33150456  0.32912875  1
  Cr  Cr15  1  0.33129157  0.66364844  -0.00223637  1
  Cr  Cr16  1  0.49874790  0.83203065  0.16629701  1
  Fe  Fe17  1  0.33252036  0.66247844  0.33073586  1
  Ni  Ni18  1  0.66609981  -0.00048398  0.99753787  1
  Cr  Cr19  1  0.82850980  0.16492303  0.16172659  1
  Fe  Fe20  1  0.66333192  0.99640224  0.33093902  1
  Fe  Fe21  1  0.66472860  0.32848472  0.99741289  1
  Fe  Fe22  1  0.83093010  0.49785836  0.16432717  1
  Fe  Fe23  1  0.66177960  0.33290469  0.33020608  1
  Cr  Cr24  1  0.66585171  0.66361335  -0.00221148  1
  Fe  Fe25  1  0.83128865  0.83104358  0.16428455  1
  Ni  Ni26  1  0.66491536  0.66350109  0.33238462  1
  Ni  Ni27  1  0.16376032  0.16533567  0.49760265  1
  Ni  Ni28  1  0.99610655  0.99650030  0.66426723  1
  Cr  Cr29  1  0.16084850  0.16449546  0.83016672  1
  Cr  Cr30  1  0.16464117  0.49833323  0.49836630  1
  Cr  Cr31  1  -0.00221455  0.32940335  0.66267945  1
  Cr  Cr32  1  0.16397668  0.50005827  0.83016057  1
  Cr  Cr33  1  0.16498813  0.82917196  0.50031332  1
  Ni  Ni34  1  0.99652379  0.66644709  0.66292932  1
  Cr  Cr35  1  0.16354349  0.82850443  0.83005782  1
  Cr  Cr36  1  0.49898284  0.16308058  0.49511409  1
  Cr  Cr37  1  0.33065524  -0.00174915  0.66387481  1
  Fe  Fe38  1  0.50194831  0.16406581  0.83207295  1
  Fe  Fe39  1  0.49756252  0.49934406  0.49521144  1
  Cr  Cr40  1  0.33126076  0.33089265  0.66477735  1
  Fe  Fe41  1  0.49801829  0.49627539  0.83108938  1
  Ni  Ni42  1  0.50039039  0.82831369  0.49719725  1
  Fe  Fe43  1  0.33135109  0.66494876  0.66367413  1
  Cr  Cr44  1  0.49778378  0.83203268  0.82915870  1
  Cr  Cr45  1  0.83053755  0.16339398  0.49901700  1
  Ni  Ni46  1  0.66592621  0.99592326  0.66407669  1
  Ni  Ni47  1  0.82850657  0.16362713  0.83269052  1
  Fe  Fe48  1  0.82995171  0.50062721  0.49664081  1
  Cr  Cr49  1  0.66407127  0.33200415  0.66664525  1
  Cr  Cr50  1  0.83260451  0.49474624  0.83259503  1
  Fe  Fe51  1  0.82980569  0.83054659  0.49847116  1
  Cr  Cr52  1  0.66424378  0.66509380  0.66247662  1
  Cr  Cr53  1  0.83171288  0.83490372  0.83083158  1
" 