6957,Ni22Fe40Cr36_14,-223.756346157433, 177.440490316316,Ni22Fe40Cr36,"# generated using pymatgen
 data_Cr7Fe7Ni4
_symmetry_space_group_name_H-M   'P 1'
_cell_length_a   7.48694339
_cell_length_b   7.48694339
_cell_length_c   10.58813689
_cell_angle_alpha   90.00000000
_cell_angle_beta   90.00000000
_cell_angle_gamma   90.00000000
_symmetry_Int_Tables_number   1
_chemical_formula_structural   Cr7Fe7Ni4
_chemical_formula_sum   'Cr21 Fe21 Ni12'
_cell_volume   593.51082794
_cell_formula_units_Z   3
loop_
 _symmetry_equiv_pos_site_id
 _symmetry_equiv_pos_as_xyz
  1  'x, y, z'
loop_
 _atom_site_type_symbol
 _atom_site_label
 _atom_site_symmetry_multiplicity
 _atom_site_fract_x
 _atom_site_fract_y
 _atom_site_fract_z
 _atom_site_occupancy
  Ni  Ni0  1  0.00124893  0.99617534  0.99710748  1
  Cr  Cr1  1  0.16339635  0.16357507  0.16562235  1
  Fe  Fe2  1  0.99473642  0.99809187  0.33166656  1
  Fe  Fe3  1  0.99713547  0.32994410  0.99790332  1
  Cr  Cr4  1  0.16515725  0.49859054  0.16312553  1
  Cr  Cr5  1  0.99458675  0.33284343  0.33355181  1
  Fe  Fe6  1  0.99843472  0.66710624  -0.00130837  1
  Fe  Fe7  1  0.16317751  0.83320274  0.16305047  1
  Cr  Cr8  1  0.99608917  0.66642216  0.33092879  1
  Ni  Ni9  1  0.33032925  0.00035906  0.99785929  1
  Fe  Fe10  1  0.50027475  0.16593594  0.16467977  1
  Fe  Fe11  1  0.33573880  -0.00014326  0.33212007  1
  Fe  Fe12  1  0.33409614  0.32823184  0.99705294  1
  Cr  Cr13  1  0.50044535  0.49855289  0.16491841  1
  Cr  Cr14  1  0.33573590  0.32822338  0.33323677  1
  Fe  Fe15  1  0.33208111  0.66766914  0.99756067  1
  Cr  Cr16  1  0.49881206  0.83487973  0.16571251  1
  Cr  Cr17  1  0.33193326  0.66840697  0.33133938  1
  Fe  Fe18  1  0.66467587  0.00033803  -0.00086648  1
  Cr  Cr19  1  0.83056598  0.16472390  0.16491061  1
  Ni  Ni20  1  0.66467694  0.00056429  0.33254790  1
  Ni  Ni21  1  0.66380132  0.33193646  0.99752838  1
  Ni  Ni22  1  0.83168572  0.49706800  0.16286405  1
  Ni  Ni23  1  0.66653420  0.32850348  0.33352723  1
  Cr  Cr24  1  0.66770974  0.66446833  0.99745616  1
  Fe  Fe25  1  0.83343987  0.83270270  0.16402794  1
  Cr  Cr26  1  0.66789182  0.66613452  0.33422831  1
  Cr  Cr27  1  0.16311429  0.16336343  0.49928729  1
  Fe  Fe28  1  0.99795838  0.99833678  0.66697896  1
  Ni  Ni29  1  0.16468417  0.16343997  0.83213150  1
  Cr  Cr30  1  0.16506607  0.49829474  0.49802902  1
  Cr  Cr31  1  0.99699644  0.33082431  0.66450683  1
  Cr  Cr32  1  0.16673131  0.49691427  0.83453800  1
  Cr  Cr33  1  0.16672980  0.83464944  0.49775828  1
  Cr  Cr34  1  0.99547448  0.66680587  0.66607277  1
  Fe  Fe35  1  0.16509093  0.83436653  0.83320635  1
  Ni  Ni36  1  0.50220460  0.16161469  0.49953824  1
  Fe  Fe37  1  0.33305420  0.00160239  0.66662150  1
  Fe  Fe38  1  0.49691700  0.16747368  0.83221202  1
  Cr  Cr39  1  0.50023675  0.49980178  0.49980495  1
  Fe  Fe40  1  0.33454466  0.32896970  0.66675001  1
  Ni  Ni41  1  0.49982876  0.49865238  0.83189130  1
  Ni  Ni42  1  0.50108701  0.83568937  0.49939783  1
  Cr  Cr43  1  0.33313118  0.66715995  0.66547868  1
  Cr  Cr44  1  0.50063541  0.83267233  0.83112641  1
  Ni  Ni45  1  0.82946580  0.16338002  0.49819359  1
  Fe  Fe46  1  0.66603403  -0.00112691  0.66326726  1
  Cr  Cr47  1  0.83221225  0.16319157  0.83331986  1
  Ni  Ni48  1  0.82866081  0.49659495  0.50005178  1
  Fe  Fe49  1  0.66416588  0.33135134  0.66541399  1
  Fe  Fe50  1  0.83005368  0.49711638  0.83248130  1
  Fe  Fe51  1  0.82955223  0.83503969  0.49956099  1
  Fe  Fe52  1  0.66647071  0.66507322  0.66554344  1
  Fe  Fe53  1  0.83375874  0.83249152  0.83273627  1
" 