8996,Ni22Fe68Cr8_4,-231.574848478678, 184.208008938845,Ni22Fe68Cr8,"# generated using pymatgen
 data_Cr5Fe37Ni12
_symmetry_space_group_name_H-M   'P 1'
_cell_length_a   7.41949090
_cell_length_b   7.41949090
_cell_length_c   10.49274465
_cell_angle_alpha   90.00000000
_cell_angle_beta   90.00000000
_cell_angle_gamma   90.00000000
_symmetry_Int_Tables_number   1
_chemical_formula_structural   Cr5Fe37Ni12
_chemical_formula_sum   'Cr5 Fe37 Ni12'
_cell_volume   577.61347560
_cell_formula_units_Z   1
loop_
 _symmetry_equiv_pos_site_id
 _symmetry_equiv_pos_as_xyz
  1  'x, y, z'
loop_
 _atom_site_type_symbol
 _atom_site_label
 _atom_site_symmetry_multiplicity
 _atom_site_fract_x
 _atom_site_fract_y
 _atom_site_fract_z
 _atom_site_occupancy
  Fe  Fe0  1  1.00233367  1.00320024  1.00289351  1
  Fe  Fe1  1  0.17126481  0.16972237  0.17001847  1
  Fe  Fe2  1  0.00393014  0.00398907  0.33575157  1
  Fe  Fe3  1  0.00451141  0.33679405  1.00271318  1
  Fe  Fe4  1  0.17126238  0.50323226  0.16984481  1
  Fe  Fe5  1  0.00321730  0.33657503  0.33691932  1
  Fe  Fe6  1  0.00447397  0.66961985  1.00279893  1
  Fe  Fe7  1  0.17120324  0.83665976  0.17012424  1
  Fe  Fe8  1  1.00243465  0.66904749  0.33601820  1
  Fe  Fe9  1  0.33781227  0.00326177  0.00347656  1
  Ni  Ni10  1  0.50250157  0.16970331  0.16996542  1
  Fe  Fe11  1  0.33644284  0.00375671  0.33546366  1
  Fe  Fe12  1  0.33563256  0.33673319  0.00329674  1
  Ni  Ni13  1  0.50161375  0.50307331  0.17196137  1
  Fe  Fe14  1  0.33686146  0.33651333  0.33627824  1
  Fe  Fe15  1  0.33560544  0.66961892  1.00279359  1
  Ni  Ni16  1  0.50197565  0.83683807  0.16999022  1
  Fe  Fe17  1  0.33787766  0.66934122  0.33632292  1
  Fe  Fe18  1  0.66946923  0.00322361  1.00238241  1
  Fe  Fe19  1  0.83663812  0.16992733  0.16950499  1
  Cr  Cr20  1  0.66923449  1.00320180  0.33562433  1
  Cr  Cr21  1  0.66942217  0.33478120  0.00329998  1
  Fe  Fe22  1  0.83645157  0.50320519  0.17147899  1
  Fe  Fe23  1  0.66953262  0.33800943  0.33593147  1
  Cr  Cr24  1  0.66898090  0.67099848  1.00219504  1
  Fe  Fe25  1  0.83672260  0.83648126  0.16946827  1
  Fe  Fe26  1  0.66930045  0.66863297  0.33602052  1
  Fe  Fe27  1  0.17021749  0.17131406  0.50296083  1
  Fe  Fe28  1  1.00168526  0.00371811  0.67096818  1
  Fe  Fe29  1  0.16975109  0.16943297  0.83663521  1
  Ni  Ni30  1  0.16910951  0.50137913  0.50265374  1
  Fe  Fe31  1  0.00495751  0.33683242  0.66998330  1
  Ni  Ni32  1  0.16931217  0.50305724  0.83671996  1
  Cr  Cr33  1  0.17070546  0.83564130  0.50370233  1
  Fe  Fe34  1  1.00256098  0.66905649  0.67079473  1
  Fe  Fe35  1  0.16998422  0.83674228  0.83626210  1
  Fe  Fe36  1  0.50132776  0.16950614  0.50337547  1
  Fe  Fe37  1  0.33876333  0.00342278  0.67067634  1
  Ni  Ni38  1  0.50311743  0.16749754  0.83676711  1
  Fe  Fe39  1  0.50160816  0.50482097  0.50209987  1
  Fe  Fe40  1  0.33518916  0.33683567  0.67004416  1
  Fe  Fe41  1  0.50124335  0.50410036  0.83609909  1
  Ni  Ni42  1  0.50442590  0.83628212  0.50401377  1
  Ni  Ni43  1  0.33630617  0.66928272  0.67108589  1
  Ni  Ni44  1  0.50365764  0.83819067  0.83560739  1
  Fe  Fe45  1  0.83807144  0.16949953  0.50384052  1
  Ni  Ni46  1  0.67023007  1.00207825  0.67103107  1
  Ni  Ni47  1  0.83721696  0.16779759  0.83704013  1
  Fe  Fe48  1  0.83748804  0.50453032  0.50220668  1
  Cr  Cr49  1  0.66990594  0.33560568  0.67030165  1
  Fe  Fe50  1  0.83832191  0.50386875  0.83592741  1
  Fe  Fe51  1  0.83568233  0.83558087  0.50453251  1
  Fe  Fe52  1  0.66916957  0.67262712  0.67014743  1
  Ni  Ni53  1  0.83634615  0.83821962  0.83504808  1
" 