7556,Ni22Fe68Cr8_9,-231.423039615436, 190.995383931688,Ni22Fe68Cr8,"# generated using pymatgen
 data_Cr5Fe37Ni12
_symmetry_space_group_name_H-M   'P 1'
_cell_length_a   7.41897313
_cell_length_b   7.41897313
_cell_length_c   10.49201242
_cell_angle_alpha   90.00000000
_cell_angle_beta   90.00000000
_cell_angle_gamma   90.00000000
_symmetry_Int_Tables_number   1
_chemical_formula_structural   Cr5Fe37Ni12
_chemical_formula_sum   'Cr5 Fe37 Ni12'
_cell_volume   577.49255793
_cell_formula_units_Z   1
loop_
 _symmetry_equiv_pos_site_id
 _symmetry_equiv_pos_as_xyz
  1  'x, y, z'
loop_
 _atom_site_type_symbol
 _atom_site_label
 _atom_site_symmetry_multiplicity
 _atom_site_fract_x
 _atom_site_fract_y
 _atom_site_fract_z
 _atom_site_occupancy
  Fe  Fe0  1  0.00507595  0.00503168  1.00266746  1
  Ni  Ni1  1  0.17036594  0.17179032  0.16985812  1
  Cr  Cr2  1  1.00199258  0.00558870  0.33783462  1
  Fe  Fe3  1  0.00386346  0.33629793  0.00354637  1
  Fe  Fe4  1  0.16966365  0.50200990  0.17016645  1
  Ni  Ni5  1  0.00365556  0.33735471  0.33553016  1
  Fe  Fe6  1  0.00470185  0.66839486  1.00225483  1
  Fe  Fe7  1  0.17200421  0.83646323  0.16861757  1
  Fe  Fe8  1  0.00361934  0.66566452  0.33666178  1
  Fe  Fe9  1  0.33657350  0.00367302  1.00268419  1
  Fe  Fe10  1  0.50332976  0.17041237  0.16984386  1
  Fe  Fe11  1  0.33747746  0.00616868  0.33479002  1
  Ni  Ni12  1  0.33695978  0.33753838  1.00260142  1
  Fe  Fe13  1  0.50293981  0.50192752  0.16941813  1
  Ni  Ni14  1  0.33615702  0.33739246  0.33744639  1
  Ni  Ni15  1  0.33646661  0.67027855  0.00398601  1
  Fe  Fe16  1  0.50143546  0.83738700  0.16954501  1
  Fe  Fe17  1  0.33590706  0.66752338  0.33501230  1
  Fe  Fe18  1  0.66806857  0.00450733  1.00229435  1
  Ni  Ni19  1  0.83651072  0.17333748  0.16907555  1
  Fe  Fe20  1  0.66850398  0.00603482  0.33669245  1
  Ni  Ni21  1  0.67019657  0.33541280  0.00338718  1
  Fe  Fe22  1  0.83711876  0.50012044  0.16999563  1
  Fe  Fe23  1  0.67037389  0.33614713  0.33589838  1
  Fe  Fe24  1  0.66778798  0.66825131  1.00219587  1
  Cr  Cr25  1  0.83525366  0.83582134  0.16946926  1
  Fe  Fe26  1  0.67019116  0.66753884  0.33676273  1
  Fe  Fe27  1  0.17069646  0.17300283  0.50377643  1
  Fe  Fe28  1  0.00509378  0.00404108  0.67101112  1
  Ni  Ni29  1  0.16948230  0.16960861  0.83545643  1
  Fe  Fe30  1  0.17009097  0.50134350  0.50314647  1
  Ni  Ni31  1  0.00372421  0.33596228  0.66960353  1
  Fe  Fe32  1  0.17093639  0.50392106  0.83640811  1
  Cr  Cr33  1  0.16980188  0.83641836  0.50414337  1
  Fe  Fe34  1  1.00282168  0.66908599  0.67080511  1
  Ni  Ni35  1  0.17110092  0.83728992  0.83662105  1
  Fe  Fe36  1  0.50208266  0.17233293  0.50206557  1
  Fe  Fe37  1  0.33413707  0.00457889  0.67223833  1
  Fe  Fe38  1  0.50151687  0.17011459  0.83781360  1
  Fe  Fe39  1  0.50254107  0.50185878  0.50320239  1
  Fe  Fe40  1  0.33601935  0.33654035  0.66989725  1
  Fe  Fe41  1  0.50171808  0.50383735  0.83710724  1
  Cr  Cr42  1  0.50321115  0.83542643  0.50156658  1
  Ni  Ni43  1  0.33658987  0.66842340  0.67162437  1
  Ni  Ni44  1  0.50194509  0.83449018  0.83767603  1
  Fe  Fe45  1  0.83694109  0.17156610  0.50277173  1
  Cr  Cr46  1  0.67139273  1.00317836  0.67077463  1
  Fe  Fe47  1  0.83784795  0.17011357  0.83781424  1
  Fe  Fe48  1  0.83709026  0.50324396  0.50328277  1
  Fe  Fe49  1  0.67001220  0.33881366  0.67033365  1
  Fe  Fe50  1  0.83706697  0.50326703  0.83643757  1
  Fe  Fe51  1  0.83642269  0.83490862  0.50288964  1
  Fe  Fe52  1  0.67055302  0.66718841  0.67075911  1
  Fe  Fe53  1  0.83792730  0.83633339  0.83749590  1
" 