1981,Ni22Cr78_16,-231.611109442012, 156.393618810012,Ni22Cr78,"# generated using pymatgen
 data_Cr11Ni43
_symmetry_space_group_name_H-M   'P 1'
_cell_length_a   7.47491245
_cell_length_b   7.47491245
_cell_length_c   10.57112256
_cell_angle_alpha   90.00000000
_cell_angle_beta   90.00000000
_cell_angle_gamma   90.00000000
_symmetry_Int_Tables_number   1
_chemical_formula_structural   Cr11Ni43
_chemical_formula_sum   'Cr11 Ni43'
_cell_volume   590.65424404
_cell_formula_units_Z   1
loop_
 _symmetry_equiv_pos_site_id
 _symmetry_equiv_pos_as_xyz
  1  'x, y, z'
loop_
 _atom_site_type_symbol
 _atom_site_label
 _atom_site_symmetry_multiplicity
 _atom_site_fract_x
 _atom_site_fract_y
 _atom_site_fract_z
 _atom_site_occupancy
  Ni  Ni0  1  0.00319063  -0.00050763  0.99735369  1
  Ni  Ni1  1  0.16804285  0.16647695  0.16641045  1
  Cr  Cr2  1  0.00264197  0.00069631  0.33408788  1
  Ni  Ni3  1  0.99852982  0.33350673  0.99921152  1
  Ni  Ni4  1  0.16540156  0.50037878  0.16708776  1
  Ni  Ni5  1  0.00100629  0.33460601  0.33258372  1
  Ni  Ni6  1  0.00169302  0.66543181  0.99885104  1
  Ni  Ni7  1  0.16894517  0.83156831  0.16507914  1
  Ni  Ni8  1  -0.00002207  0.66368410  0.33168854  1
  Ni  Ni9  1  0.33068908  0.99786823  0.00030295  1
  Ni  Ni10  1  0.49688638  0.16523460  0.16707861  1
  Ni  Ni11  1  0.33445037  0.99927780  0.33219438  1
  Cr  Cr12  1  0.33305505  0.33243868  -0.00032817  1
  Ni  Ni13  1  0.49827725  0.50036169  0.16702380  1
  Ni  Ni14  1  0.33213180  0.33173870  0.33210485  1
  Ni  Ni15  1  0.33108772  0.66813124  0.99931138  1
  Ni  Ni16  1  0.49594166  0.83281921  0.16832065  1
  Ni  Ni17  1  0.33405071  0.66739525  0.33194035  1
  Cr  Cr18  1  0.66427655  0.00074596  0.99773114  1
  Cr  Cr19  1  0.83323423  0.16800009  0.16482195  1
  Ni  Ni20  1  0.66154051  0.99827074  0.33403713  1
  Ni  Ni21  1  0.66724932  0.33384265  0.99845335  1
  Ni  Ni22  1  0.83476020  0.49946176  0.16635497  1
  Cr  Cr23  1  0.66575661  0.33424944  0.33317649  1
  Cr  Cr24  1  0.66539446  0.66323383  0.99902691  1
  Cr  Cr25  1  0.83324776  0.83092596  0.16704294  1
  Ni  Ni26  1  0.66438975  0.66596276  0.33257568  1
  Ni  Ni27  1  0.16611286  0.16647426  0.49899820  1
  Ni  Ni28  1  0.99874161  0.00051124  0.66719343  1
  Ni  Ni29  1  0.16419727  0.16614911  0.83304000  1
  Cr  Cr30  1  0.16662876  0.49953863  0.49994465  1
  Ni  Ni31  1  0.99835892  0.33174603  0.66662080  1
  Ni  Ni32  1  0.16540219  0.50071593  0.83193735  1
  Ni  Ni33  1  0.16774184  0.83262001  0.49943107  1
  Ni  Ni34  1  0.00081583  0.66615740  0.66788393  1
  Ni  Ni35  1  0.16509862  0.83155992  0.83390968  1
  Ni  Ni36  1  0.49987935  0.16593961  0.49920478  1
  Cr  Cr37  1  0.33210131  0.99943211  0.66593606  1
  Ni  Ni38  1  0.50092411  0.16697898  0.83213778  1
  Ni  Ni39  1  0.49922536  0.49931240  0.49961092  1
  Ni  Ni40  1  0.33373539  0.33344986  0.66666799  1
  Ni  Ni41  1  0.49843971  0.49860191  0.83176591  1
  Ni  Ni42  1  0.49821534  0.83316394  0.49708031  1
  Ni  Ni43  1  0.33214351  0.66534162  0.66720085  1
  Ni  Ni44  1  0.49788766  0.83285989  0.83301743  1
  Ni  Ni45  1  0.83241647  0.16741632  0.50156157  1
  Ni  Ni46  1  0.66714408  0.00209824  0.66664662  1
  Ni  Ni47  1  0.83330766  0.16669096  0.83176086  1
  Ni  Ni48  1  0.83299865  0.49767528  0.49879842  1
  Ni  Ni49  1  0.66633945  0.33140869  0.66651111  1
  Ni  Ni50  1  0.83459120  0.49768765  0.83325678  1
  Cr  Cr51  1  0.83261380  0.83316023  0.49922754  1
  Cr  Cr52  1  0.66524606  0.66505570  0.66681509  1
  Ni  Ni53  1  0.83543589  0.83404569  0.83190930  1
" 