5767,Ni22Fe40Cr36_11,-224.029324800515, 184.938478736745,Ni22Fe40Cr36,"# generated using pymatgen
 data_Cr7Fe7Ni4
_symmetry_space_group_name_H-M   'P 1'
_cell_length_a   7.48733780
_cell_length_b   7.48733780
_cell_length_c   10.58869466
_cell_angle_alpha   90.00000000
_cell_angle_beta   90.00000000
_cell_angle_gamma   90.00000000
_symmetry_Int_Tables_number   1
_chemical_formula_structural   Cr7Fe7Ni4
_chemical_formula_sum   'Cr21 Fe21 Ni12'
_cell_volume   593.60462990
_cell_formula_units_Z   3
loop_
 _symmetry_equiv_pos_site_id
 _symmetry_equiv_pos_as_xyz
  1  'x, y, z'
loop_
 _atom_site_type_symbol
 _atom_site_label
 _atom_site_symmetry_multiplicity
 _atom_site_fract_x
 _atom_site_fract_y
 _atom_site_fract_z
 _atom_site_occupancy
  Cr  Cr0  1  0.00210322  -0.00132410  0.00134951  1
  Fe  Fe1  1  0.16626429  0.16681528  0.16592146  1
  Fe  Fe2  1  0.99778841  0.00112919  0.33243188  1
  Fe  Fe3  1  -0.00066877  0.33242664  0.99778909  1
  Cr  Cr4  1  0.16473322  0.49786396  0.16565233  1
  Ni  Ni5  1  -0.00017236  0.32915318  0.33219412  1
  Cr  Cr6  1  0.99529754  0.66452541  0.99819300  1
  Fe  Fe7  1  0.16667234  0.83427308  0.16537520  1
  Cr  Cr8  1  0.99584816  0.66720833  0.33022343  1
  Ni  Ni9  1  0.33147450  0.00218793  0.99814523  1
  Cr  Cr10  1  0.49924837  0.16539440  0.16334494  1
  Cr  Cr11  1  0.33027754  0.00211627  0.32959050  1
  Ni  Ni12  1  0.33216593  0.32794839  0.99614020  1
  Cr  Cr13  1  0.49947175  0.49792112  0.16837466  1
  Ni  Ni14  1  0.33184679  0.33005228  0.33465729  1
  Cr  Cr15  1  0.33330760  0.66587714  -0.00097386  1
  Fe  Fe16  1  0.49875796  0.83192548  0.16669855  1
  Fe  Fe17  1  0.33382145  0.66351121  0.33126833  1
  Cr  Cr18  1  0.66253265  0.99755808  0.99677507  1
  Cr  Cr19  1  0.83175523  0.16794780  0.16662380  1
  Fe  Fe20  1  0.66680789  -0.00122467  0.33296280  1
  Ni  Ni21  1  0.66381198  0.33384894  0.99762045  1
  Fe  Fe22  1  0.83071479  0.49721660  0.16600339  1
  Fe  Fe23  1  0.66473255  0.33220416  0.33322860  1
  Cr  Cr24  1  0.66738837  0.66348920  0.99760573  1
  Fe  Fe25  1  0.83034302  0.83130611  0.16750908  1
  Ni  Ni26  1  0.66578804  0.66651217  0.33076757  1
  Ni  Ni27  1  0.16563164  0.16713786  0.49853691  1
  Cr  Cr28  1  0.99835144  0.00045517  0.66192823  1
  Fe  Fe29  1  0.16822936  0.16869471  0.83128735  1
  Cr  Cr30  1  0.16712398  0.49731520  0.50021167  1
  Ni  Ni31  1  0.00232094  0.33076962  0.66662274  1
  Fe  Fe32  1  0.16609235  0.49357764  0.83109339  1
  Cr  Cr33  1  0.16632725  0.83127702  0.49851263  1
  Cr  Cr34  1  0.99642537  0.66436777  0.66756057  1
  Cr  Cr35  1  0.16854162  0.83140460  0.83054576  1
  Ni  Ni36  1  0.49924450  0.16554138  0.49862613  1
  Fe  Fe37  1  0.33388999  0.00312755  0.66585533  1
  Ni  Ni38  1  0.49654323  0.16483903  0.83281639  1
  Fe  Fe39  1  0.49649634  0.49621714  0.49663269  1
  Ni  Ni40  1  0.33157773  0.32933848  0.66532923  1
  Fe  Fe41  1  0.49775511  0.49518662  0.83259163  1
  Cr  Cr42  1  0.49859441  0.83217844  0.49941074  1
  Fe  Fe43  1  0.33276265  0.66228427  0.66685697  1
  Fe  Fe44  1  0.49896972  0.83402266  0.83087658  1
  Fe  Fe45  1  0.83301448  0.16464722  0.49725346  1
  Fe  Fe46  1  0.66335480  0.00069002  0.66550738  1
  Cr  Cr47  1  0.83013321  0.16841956  0.83186598  1
  Cr  Cr48  1  0.83222865  0.49586388  0.49603337  1
  Cr  Cr49  1  0.66214453  0.33169806  0.66380026  1
  Ni  Ni50  1  0.83334085  0.49694699  0.83513455  1
  Fe  Fe51  1  0.83022741  0.83491865  0.49697424  1
  Cr  Cr52  1  0.66540566  0.66602643  0.66817759  1
  Fe  Fe53  1  0.82999208  0.83202227  0.83131767  1
" 