592,Ni22Cr78_3,-231.659219672246, 157.15964101425,Ni22Cr78,"# generated using pymatgen
 data_Cr11Ni43
_symmetry_space_group_name_H-M   'P 1'
_cell_length_a   7.47715244
_cell_length_b   7.47715244
_cell_length_c   10.57429039
_cell_angle_alpha   90.00000000
_cell_angle_beta   90.00000000
_cell_angle_gamma   90.00000000
_symmetry_Int_Tables_number   1
_chemical_formula_structural   Cr11Ni43
_chemical_formula_sum   'Cr11 Ni43'
_cell_volume   591.18540327
_cell_formula_units_Z   1
loop_
 _symmetry_equiv_pos_site_id
 _symmetry_equiv_pos_as_xyz
  1  'x, y, z'
loop_
 _atom_site_type_symbol
 _atom_site_label
 _atom_site_symmetry_multiplicity
 _atom_site_fract_x
 _atom_site_fract_y
 _atom_site_fract_z
 _atom_site_occupancy
  Ni  Ni0  1  -0.00064932  0.99888719  0.99815806  1
  Ni  Ni1  1  0.16764554  0.16643655  0.16644226  1
  Ni  Ni2  1  -0.00049104  0.00083706  0.33426759  1
  Cr  Cr3  1  -0.00040798  0.33240489  0.00003401  1
  Ni  Ni4  1  0.16872437  0.49819554  0.16493220  1
  Cr  Cr5  1  0.99868149  0.33003675  0.33129226  1
  Ni  Ni6  1  0.99912625  0.66640552  0.99717083  1
  Cr  Cr7  1  0.16684061  0.83331940  0.16535731  1
  Cr  Cr8  1  0.99824340  0.66678076  0.33376751  1
  Ni  Ni9  1  0.33166346  0.00165007  0.99848663  1
  Ni  Ni10  1  0.49934209  0.16810400  0.16602120  1
  Ni  Ni11  1  0.33169162  0.00182794  0.33376136  1
  Ni  Ni12  1  0.33447771  0.33265372  -0.00028438  1
  Ni  Ni13  1  0.49913895  0.49741302  0.16643971  1
  Ni  Ni14  1  0.33554881  0.33157668  0.33144426  1
  Ni  Ni15  1  0.33189230  0.66365903  0.99866984  1
  Cr  Cr16  1  0.49956348  0.83275020  0.16597911  1
  Ni  Ni17  1  0.33476929  0.66453843  0.33267095  1
  Ni  Ni18  1  0.66697304  0.00151826  0.99828898  1
  Ni  Ni19  1  0.83100498  0.16630371  0.16626740  1
  Ni  Ni20  1  0.66678607  0.00164358  0.33371911  1
  Ni  Ni21  1  0.66422701  0.33285868  -0.00046641  1
  Ni  Ni22  1  0.83012197  0.49816571  0.16532042  1
  Ni  Ni23  1  0.66402376  0.33286404  0.33272357  1
  Ni  Ni24  1  0.66695878  0.66360037  0.99905666  1
  Cr  Cr25  1  0.83154365  0.83381364  0.16486068  1
  Ni  Ni26  1  0.66495120  0.66346886  0.33335575  1
  Ni  Ni27  1  0.16742358  0.16407344  0.49880671  1
  Cr  Cr28  1  -0.00052265  0.99905803  0.66555200  1
  Ni  Ni29  1  0.16759528  0.16609752  0.83271169  1
  Cr  Cr30  1  0.16740805  0.49889557  0.50153914  1
  Ni  Ni31  1  0.99856143  0.33354737  0.66664341  1
  Ni  Ni32  1  0.16653689  0.50048561  0.83179486  1
  Ni  Ni33  1  0.16592189  0.83421807  0.49925904  1
  Ni  Ni34  1  0.00020881  0.66515170  0.66702829  1
  Ni  Ni35  1  0.16505663  0.83138213  0.83336281  1
  Ni  Ni36  1  0.49968065  0.16725182  0.49947057  1
  Ni  Ni37  1  0.33224675  0.00126276  0.66573100  1
  Ni  Ni38  1  0.49951083  0.16744768  0.83248575  1
  Ni  Ni39  1  0.50023382  0.49700953  0.49790260  1
  Ni  Ni40  1  0.33357945  0.33174513  0.66682821  1
  Ni  Ni41  1  0.49823510  0.49687072  0.83361432  1
  Cr  Cr42  1  0.49837708  0.83357357  0.49795776  1
  Ni  Ni43  1  0.32990086  0.66494631  0.66663908  1
  Cr  Cr44  1  0.49867222  0.83404034  0.83402720  1
  Ni  Ni45  1  0.83087714  0.16577140  0.49903716  1
  Ni  Ni46  1  0.66602399  0.00292239  0.66595872  1
  Ni  Ni47  1  0.83087066  0.16593276  0.83268128  1
  Ni  Ni48  1  0.83029836  0.49850733  0.50015600  1
  Ni  Ni49  1  0.66581076  0.33126334  0.66572307  1
  Ni  Ni50  1  0.83317776  0.49940159  0.83248070  1
  Ni  Ni51  1  0.83343563  0.83372542  0.49814893  1
  Cr  Cr52  1  0.66747196  0.66456041  0.66556062  1
  Ni  Ni53  1  0.83452700  0.83265594  0.83467367  1
" 