5803,Ni22Fe21Cr56_13,-216.971444809273, 163.748532174555,Ni22Fe21Cr56,"# generated using pymatgen
 data_Cr31Fe11Ni12
_symmetry_space_group_name_H-M   'P 1'
_cell_length_a   7.53316260
_cell_length_b   7.53316260
_cell_length_c   10.65350072
_cell_angle_alpha   90.00000000
_cell_angle_beta   90.00000000
_cell_angle_gamma   90.00000000
_symmetry_Int_Tables_number   1
_chemical_formula_structural   Cr31Fe11Ni12
_chemical_formula_sum   'Cr31 Fe11 Ni12'
_cell_volume   604.57059810
_cell_formula_units_Z   1
loop_
 _symmetry_equiv_pos_site_id
 _symmetry_equiv_pos_as_xyz
  1  'x, y, z'
loop_
 _atom_site_type_symbol
 _atom_site_label
 _atom_site_symmetry_multiplicity
 _atom_site_fract_x
 _atom_site_fract_y
 _atom_site_fract_z
 _atom_site_occupancy
  Cr  Cr0  1  -0.00268403  0.99480399  0.99554883  1
  Ni  Ni1  1  0.16345192  0.16430115  0.16646102  1
  Cr  Cr2  1  0.00013201  0.99561063  0.32730101  1
  Cr  Cr3  1  0.99551471  0.33078157  -0.00280152  1
  Cr  Cr4  1  0.16499638  0.49534753  0.16213870  1
  Ni  Ni5  1  0.99541242  0.33243912  0.32692647  1
  Cr  Cr6  1  0.99384026  0.66203391  0.99528020  1
  Cr  Cr7  1  0.16321660  0.82649186  0.16384028  1
  Ni  Ni8  1  0.99209586  0.65828228  0.32887905  1
  Cr  Cr9  1  0.32891537  0.99514060  -0.00270798  1
  Cr  Cr10  1  0.49711998  0.16400107  0.16440895  1
  Fe  Fe11  1  0.33216895  -0.00438237  0.32923628  1
  Cr  Cr12  1  0.32941974  0.32831659  -0.00205295  1
  Ni  Ni13  1  0.49528078  0.49568848  0.16483028  1
  Ni  Ni14  1  0.33042178  0.32936556  0.32775957  1
  Fe  Fe15  1  0.32944137  0.66193251  0.99488471  1
  Cr  Cr16  1  0.49638147  0.82455655  0.16498317  1
  Fe  Fe17  1  0.32998072  0.65759475  0.33067128  1
  Cr  Cr18  1  0.66178071  0.99347134  0.99204366  1
  Cr  Cr19  1  0.82940352  0.16304643  0.16319662  1
  Fe  Fe20  1  0.66176190  -0.00367181  0.33014403  1
  Cr  Cr21  1  0.66184742  0.33158344  -0.00408554  1
  Fe  Fe22  1  0.82731251  0.49536645  0.16609717  1
  Ni  Ni23  1  0.66027020  0.33576869  0.32873382  1
  Cr  Cr24  1  0.66221302  0.66067346  -0.00190460  1
  Cr  Cr25  1  0.82794978  0.82758471  0.16548883  1
  Ni  Ni26  1  0.65951494  0.65902843  0.33014346  1
  Cr  Cr27  1  0.16175390  0.16462459  0.49176048  1
  Cr  Cr28  1  -0.00399699  0.99444420  0.66412529  1
  Cr  Cr29  1  0.16308445  0.16406797  0.82829169  1
  Cr  Cr30  1  0.16372042  0.49552675  0.49670860  1
  Cr  Cr31  1  0.99366738  0.33175605  0.66243045  1
  Fe  Fe32  1  0.16018149  0.49902169  0.82849745  1
  Cr  Cr33  1  0.16377040  0.82537470  0.49439636  1
  Cr  Cr34  1  0.99414093  0.66224350  0.66225089  1
  Fe  Fe35  1  0.16333700  0.82555650  0.82856379  1
  Cr  Cr36  1  0.49762828  0.16418092  0.49362641  1
  Cr  Cr37  1  0.33046974  0.99345214  0.65986153  1
  Fe  Fe38  1  0.49721357  0.16180384  0.82874820  1
  Ni  Ni39  1  0.49459883  0.49804157  0.49312354  1
  Cr  Cr40  1  0.33029395  0.33055027  0.66129953  1
  Cr  Cr41  1  0.49233646  0.49669877  0.82972483  1
  Ni  Ni42  1  0.49541575  0.82429473  0.49313058  1
  Ni  Ni43  1  0.33028099  0.66317311  0.66276780  1
  Fe  Fe44  1  0.49550780  0.82650932  0.82784491  1
  Cr  Cr45  1  0.82905604  0.16460222  0.49492058  1
  Cr  Cr46  1  0.66149527  0.99368519  0.66406571  1
  Fe  Fe47  1  0.82829397  0.16386938  0.82926388  1
  Fe  Fe48  1  0.82677974  0.49603056  0.49148430  1
  Cr  Cr49  1  0.66208619  0.33209934  0.66248483  1
  Ni  Ni50  1  0.82761286  0.49881587  0.82900484  1
  Cr  Cr51  1  0.82731341  0.82881972  0.49182714  1
  Cr  Cr52  1  0.66105396  0.66161721  0.65841756  1
  Ni  Ni53  1  0.82877778  0.82701680  0.82896787  1
" 