8870,Ni22Fe78_10,-242.881282773799, 208.947013379146,Ni22Fe78,"# generated using pymatgen
 data_Fe11Ni43
_symmetry_space_group_name_H-M   'P 1'
_cell_length_a   7.42429914
_cell_length_b   7.42429914
_cell_length_c   10.49954454
_cell_angle_alpha   90.00000000
_cell_angle_beta   90.00000000
_cell_angle_gamma   90.00000000
_symmetry_Int_Tables_number   1
_chemical_formula_structural   Fe11Ni43
_chemical_formula_sum   'Fe11 Ni43'
_cell_volume   578.73718175
_cell_formula_units_Z   1
loop_
 _symmetry_equiv_pos_site_id
 _symmetry_equiv_pos_as_xyz
  1  'x, y, z'
loop_
 _atom_site_type_symbol
 _atom_site_label
 _atom_site_symmetry_multiplicity
 _atom_site_fract_x
 _atom_site_fract_y
 _atom_site_fract_z
 _atom_site_occupancy
  Fe  Fe0  1  1.00189092  0.00368202  0.00299683  1
  Ni  Ni1  1  0.16943597  0.16837740  0.16867302  1
  Ni  Ni2  1  0.00355207  1.00192408  0.33631629  1
  Ni  Ni3  1  0.00377670  0.33801907  0.00302133  1
  Ni  Ni4  1  0.16948170  0.50430248  0.16948492  1
  Fe  Fe5  1  0.00298381  0.33574410  0.33521444  1
  Ni  Ni6  1  1.00183222  0.66904994  1.00238851  1
  Ni  Ni7  1  0.16993533  0.83595925  0.16962498  1
  Ni  Ni8  1  1.00249962  0.66953210  0.33715907  1
  Ni  Ni9  1  0.33639758  0.00458559  1.00276852  1
  Ni  Ni10  1  0.50402444  0.16967426  0.16947499  1
  Ni  Ni11  1  0.33562705  0.00445745  0.33687491  1
  Ni  Ni12  1  0.33593931  0.33490677  1.00239032  1
  Ni  Ni13  1  0.50352138  0.50238285  0.16861511  1
  Ni  Ni14  1  0.33634485  0.33558150  0.33617795  1
  Fe  Fe15  1  0.33694286  0.66893673  0.00342567  1
  Fe  Fe16  1  0.50267933  0.83643937  0.17019279  1
  Ni  Ni17  1  0.33569255  0.66860982  0.33649716  1
  Ni  Ni18  1  0.66820990  1.00238734  1.00248215  1
  Ni  Ni19  1  0.83483498  0.17000212  0.16950217  1
  Ni  Ni20  1  0.66951452  0.00334553  0.33713892  1
  Ni  Ni21  1  0.66918541  0.33648463  1.00205777  1
  Ni  Ni22  1  0.83568333  0.50186734  0.16946634  1
  Ni  Ni23  1  0.66799498  0.33669509  0.33666838  1
  Ni  Ni24  1  0.67185699  0.66940621  1.00255307  1
  Fe  Fe25  1  0.83647740  0.83581717  0.17068930  1
  Ni  Ni26  1  0.67051229  0.66852561  0.33678790  1
  Ni  Ni27  1  0.16858471  0.16880621  0.50301420  1
  Ni  Ni28  1  0.00362991  1.00202293  0.67088547  1
  Fe  Fe29  1  0.17074156  0.17049186  0.83629695  1
  Ni  Ni30  1  0.16899779  0.50362739  0.50238670  1
  Fe  Fe31  1  1.00198258  0.33545203  0.66998012  1
  Ni  Ni32  1  0.16926882  0.50557801  0.83665227  1
  Ni  Ni33  1  0.16942103  0.83638474  0.50288146  1
  Ni  Ni34  1  1.00213749  0.66855224  0.66911196  1
  Ni  Ni35  1  0.17005995  0.83602783  0.83654039  1
  Ni  Ni36  1  0.50370676  0.16916609  0.50272468  1
  Ni  Ni37  1  0.33633995  0.00521495  0.66882282  1
  Ni  Ni38  1  0.50495517  0.16884271  0.83617064  1
  Ni  Ni39  1  0.50328428  0.50336522  0.50334447  1
  Fe  Fe40  1  0.33649095  0.33689026  0.66929865  1
  Ni  Ni41  1  0.50319270  0.50329937  0.83645425  1
  Ni  Ni42  1  0.50255830  0.83637086  0.50192064  1
  Fe  Fe43  1  0.33652787  0.67212701  0.66898064  1
  Ni  Ni44  1  0.50109464  0.83666369  0.83676427  1
  Ni  Ni45  1  0.83623223  0.16888162  0.50227330  1
  Ni  Ni46  1  0.66870892  1.00209403  0.66912098  1
  Ni  Ni47  1  0.83546829  0.16939285  0.83706624  1
  Ni  Ni48  1  0.83630251  0.50234397  0.50247750  1
  Fe  Fe49  1  0.67036876  0.33530667  0.66946560  1
  Ni  Ni50  1  0.83636148  0.50117192  0.83646999  1
  Ni  Ni51  1  0.83669129  0.83691208  0.50333748  1
  Ni  Ni52  1  0.67069031  0.66876967  0.66937522  1
  Fe  Fe53  1  0.83483791  0.83501163  0.83500393  1
" 