6087,Ni22Fe21Cr56_9,-217.209408007004, 164.794277514334,Ni22Fe21Cr56,"# generated using pymatgen
 data_Cr31Fe11Ni12
_symmetry_space_group_name_H-M   'P 1'
_cell_length_a   7.53634846
_cell_length_b   7.53634846
_cell_length_c   10.65800620
_cell_angle_alpha   90.00000000
_cell_angle_beta   90.00000000
_cell_angle_gamma   90.00000000
_symmetry_Int_Tables_number   1
_chemical_formula_structural   Cr31Fe11Ni12
_chemical_formula_sum   'Cr31 Fe11 Ni12'
_cell_volume   605.33796166
_cell_formula_units_Z   1
loop_
 _symmetry_equiv_pos_site_id
 _symmetry_equiv_pos_as_xyz
  1  'x, y, z'
loop_
 _atom_site_type_symbol
 _atom_site_label
 _atom_site_symmetry_multiplicity
 _atom_site_fract_x
 _atom_site_fract_y
 _atom_site_fract_z
 _atom_site_occupancy
  Cr  Cr0  1  -0.00269664  0.99370262  -0.00338765  1
  Fe  Fe1  1  0.16574741  0.16027704  0.16277893  1
  Cr  Cr2  1  -0.00268034  0.99201040  0.32446700  1
  Cr  Cr3  1  -0.00289182  0.32936005  0.99411720  1
  Ni  Ni4  1  0.16039320  0.49909980  0.16242864  1
  Cr  Cr5  1  -0.00316097  0.33180062  0.32809899  1
  Cr  Cr6  1  -0.00243420  0.66313531  -0.00237070  1
  Ni  Ni7  1  0.16255594  0.82686175  0.16308937  1
  Ni  Ni8  1  -0.00348598  0.66035329  0.32650205  1
  Fe  Fe9  1  0.32802745  0.99318819  -0.00309421  1
  Ni  Ni10  1  0.49471161  0.15838748  0.16287197  1
  Ni  Ni11  1  0.32992457  0.99505033  0.32893254  1
  Cr  Cr12  1  0.32643274  0.32859337  -0.00162908  1
  Cr  Cr13  1  0.49272287  0.49558397  0.15945398  1
  Cr  Cr14  1  0.32839329  0.32759104  0.32803843  1
  Ni  Ni15  1  0.32600654  0.66547093  0.99498962  1
  Cr  Cr16  1  0.49330335  0.82892979  0.16002638  1
  Cr  Cr17  1  0.32640361  0.66257282  0.32867297  1
  Ni  Ni18  1  0.66003535  0.99459593  -0.00353210  1
  Cr  Cr19  1  0.82737094  0.16016215  0.16087778  1
  Cr  Cr20  1  0.65967150  0.99480481  0.32974845  1
  Cr  Cr21  1  0.66268784  0.32846620  -0.00308776  1
  Fe  Fe22  1  0.83033657  0.49732005  0.16200217  1
  Cr  Cr23  1  0.66089599  0.32855492  0.32849321  1
  Cr  Cr24  1  0.66279921  0.66389486  0.99315451  1
  Fe  Fe25  1  0.82873309  0.82688261  0.16196941  1
  Cr  Cr26  1  0.66466300  0.66265150  0.32989682  1
  Cr  Cr27  1  0.16092494  0.16172089  0.49620191  1
  Cr  Cr28  1  -0.00254878  0.99336064  0.66507501  1
  Fe  Fe29  1  0.16314028  0.16075848  0.82839283  1
  Ni  Ni30  1  0.15871844  0.49659179  0.49589758  1
  Fe  Fe31  1  -0.00422271  0.33232346  0.66199439  1
  Cr  Cr32  1  0.16201164  0.49770648  0.82791231  1
  Cr  Cr33  1  0.16242093  0.82680885  0.49364233  1
  Ni  Ni34  1  -0.00411068  0.66102453  0.66178154  1
  Ni  Ni35  1  0.16523862  0.82960700  0.82921182  1
  Fe  Fe36  1  0.49267760  0.15953892  0.49439845  1
  Fe  Fe37  1  0.32821773  0.99340411  0.66204220  1
  Cr  Cr38  1  0.49463235  0.15984656  0.83089220  1
  Cr  Cr39  1  0.49382957  0.49770301  0.49508617  1
  Cr  Cr40  1  0.32785308  0.32737856  0.66059074  1
  Cr  Cr41  1  0.49560718  0.49738542  0.83171902  1
  Ni  Ni42  1  0.49426389  0.83029024  0.49734854  1
  Cr  Cr43  1  0.32864213  0.66373270  0.66284432  1
  Fe  Fe44  1  0.49348577  0.82929915  0.82999042  1
  Cr  Cr45  1  0.82973511  0.16324574  0.49648542  1
  Cr  Cr46  1  0.65921449  0.99322717  0.66049995  1
  Cr  Cr47  1  0.82927203  0.16338943  0.82864541  1
  Fe  Fe48  1  0.83225364  0.49802242  0.49683026  1
  Cr  Cr49  1  0.66159619  0.33015157  0.66063600  1
  Ni  Ni50  1  0.83054104  0.49688980  0.82502917  1
  Cr  Cr51  1  0.83052477  0.82814334  0.49396580  1
  Fe  Fe52  1  0.66383739  0.66234778  0.66191230  1
  Cr  Cr53  1  0.82949748  0.82852035  0.82918522  1
" 