5967,Ni22Fe34Cr43_5,-221.431344265866, 178.426252060577,Ni22Fe34Cr43,"# generated using pymatgen
 data_Cr4Fe3Ni2
_symmetry_space_group_name_H-M   'P 1'
_cell_length_a   7.49607258
_cell_length_b   7.49607258
_cell_length_c   10.60104751
_cell_angle_alpha   90.00000000
_cell_angle_beta   90.00000000
_cell_angle_gamma   90.00000000
_symmetry_Int_Tables_number   1
_chemical_formula_structural   Cr4Fe3Ni2
_chemical_formula_sum   'Cr24 Fe18 Ni12'
_cell_volume   595.68456468
_cell_formula_units_Z   6
loop_
 _symmetry_equiv_pos_site_id
 _symmetry_equiv_pos_as_xyz
  1  'x, y, z'
loop_
 _atom_site_type_symbol
 _atom_site_label
 _atom_site_symmetry_multiplicity
 _atom_site_fract_x
 _atom_site_fract_y
 _atom_site_fract_z
 _atom_site_occupancy
  Ni  Ni0  1  -0.00183220  -0.00016701  -0.00186493  1
  Cr  Cr1  1  0.16469994  0.16491106  0.16692650  1
  Ni  Ni2  1  0.00126114  0.99605280  0.33352174  1
  Cr  Cr3  1  0.99596134  0.32872394  0.99528178  1
  Ni  Ni4  1  0.16474586  0.49752251  0.16592657  1
  Cr  Cr5  1  0.99753803  0.33125987  0.33166411  1
  Cr  Cr6  1  0.00202751  0.66465519  0.99527755  1
  Cr  Cr7  1  0.16282500  0.83026135  0.16746745  1
  Ni  Ni8  1  0.00127507  0.66470147  0.33539326  1
  Fe  Fe9  1  0.32722888  0.00103628  0.99541370  1
  Cr  Cr10  1  0.49613326  0.16638331  0.16305450  1
  Cr  Cr11  1  0.33368282  0.99603809  0.33625883  1
  Fe  Fe12  1  0.32680382  0.33073015  0.99627879  1
  Cr  Cr13  1  0.49331320  0.49610476  0.16479371  1
  Fe  Fe14  1  0.32849541  0.33288613  0.33586002  1
  Cr  Cr15  1  0.33133189  0.66676611  0.99623967  1
  Cr  Cr16  1  0.49982077  0.83199585  0.15968985  1
  Fe  Fe17  1  0.32856011  0.66355097  0.33441244  1
  Fe  Fe18  1  0.66850843  -0.00020822  0.99619953  1
  Fe  Fe19  1  0.83177483  0.16486804  0.16438840  1
  Cr  Cr20  1  0.66568427  -0.00120343  0.33349303  1
  Ni  Ni21  1  0.66420751  0.32813885  -0.00190947  1
  Cr  Cr22  1  0.83135135  0.50159617  0.16475683  1
  Cr  Cr23  1  0.66199484  0.33099460  0.33405396  1
  Fe  Fe24  1  0.66831730  0.66361180  0.99643480  1
  Cr  Cr25  1  0.83449420  0.83414988  0.16738283  1
  Cr  Cr26  1  0.66126183  0.66538746  0.33444561  1
  Fe  Fe27  1  0.16720040  0.16666337  0.49860604  1
  Cr  Cr28  1  0.00241115  -0.00170037  0.66297758  1
  Ni  Ni29  1  0.16280868  0.16395568  0.82925043  1
  Ni  Ni30  1  0.16160816  0.49980798  0.49889324  1
  Ni  Ni31  1  -0.00108152  0.33248546  0.66634257  1
  Fe  Fe32  1  0.16334675  0.49656896  0.82858609  1
  Fe  Fe33  1  0.16542317  0.82945040  0.49780245  1
  Ni  Ni34  1  -0.00072440  0.66330709  0.66438887  1
  Fe  Fe35  1  0.16572627  0.83574977  0.83082833  1
  Ni  Ni36  1  0.49732341  0.16380680  0.50041446  1
  Fe  Fe37  1  0.33153204  -0.00088605  0.66281202  1
  Cr  Cr38  1  0.49595573  0.16399316  0.82955971  1
  Ni  Ni39  1  0.49256310  0.49918986  0.49600139  1
  Cr  Cr40  1  0.33010084  0.33221564  0.66210651  1
  Cr  Cr41  1  0.49985938  0.49690061  0.83408068  1
  Ni  Ni42  1  0.49865364  0.83235175  0.50243983  1
  Cr  Cr43  1  0.33010405  0.66879918  0.66547993  1
  Fe  Fe44  1  0.49766833  0.83441529  0.83129977  1
  Cr  Cr45  1  0.83468872  0.16146265  0.49932183  1
  Fe  Fe46  1  0.66463759  0.99643211  0.66295643  1
  Fe  Fe47  1  0.83172858  0.16426429  0.82993141  1
  Fe  Fe48  1  0.83301561  0.49923086  0.49896800  1
  Cr  Cr49  1  0.66685703  0.33085580  0.66098500  1
  Fe  Fe50  1  0.83284227  0.49458255  0.82978621  1
  Fe  Fe51  1  0.83384245  0.82774712  0.49824700  1
  Cr  Cr52  1  0.66353300  0.66308546  0.66314550  1
  Cr  Cr53  1  0.83236450  0.82997196  0.82940304  1
" 