1332,Ni22Fe68Cr8_16,-231.446000682199, 187.654061854633,Ni22Fe68Cr8,"# generated using pymatgen
 data_Cr5Fe37Ni12
_symmetry_space_group_name_H-M   'P 1'
_cell_length_a   7.42213467
_cell_length_b   7.42213467
_cell_length_c   10.49648352
_cell_angle_alpha   90.00000000
_cell_angle_beta   90.00000000
_cell_angle_gamma   90.00000000
_symmetry_Int_Tables_number   1
_chemical_formula_structural   Cr5Fe37Ni12
_chemical_formula_sum   'Cr5 Fe37 Ni12'
_cell_volume   578.23115616
_cell_formula_units_Z   1
loop_
 _symmetry_equiv_pos_site_id
 _symmetry_equiv_pos_as_xyz
  1  'x, y, z'
loop_
 _atom_site_type_symbol
 _atom_site_label
 _atom_site_symmetry_multiplicity
 _atom_site_fract_x
 _atom_site_fract_y
 _atom_site_fract_z
 _atom_site_occupancy
  Fe  Fe0  1  1.00202599  1.00205560  1.00259735  1
  Fe  Fe1  1  0.16929907  0.17016096  0.16890621  1
  Fe  Fe2  1  1.00261516  1.00292543  0.33593330  1
  Fe  Fe3  1  1.00255141  0.33597267  0.00317625  1
  Fe  Fe4  1  0.17045337  0.50317085  0.17012406  1
  Fe  Fe5  1  1.00235050  0.33552619  0.33615349  1
  Fe  Fe6  1  1.00077192  0.67104686  0.00366481  1
  Ni  Ni7  1  0.16786650  0.83461450  0.16995796  1
  Fe  Fe8  1  0.00353067  0.67062418  0.33453285  1
  Fe  Fe9  1  0.33769202  0.00310947  0.00351076  1
  Ni  Ni10  1  0.50338240  0.16982947  0.17038612  1
  Cr  Cr11  1  0.33633719  1.00141242  0.33723690  1
  Fe  Fe12  1  0.33745105  0.33519541  0.00356446  1
  Fe  Fe13  1  0.50151202  0.50433333  0.17010472  1
  Fe  Fe14  1  0.33800627  0.33686084  0.33533131  1
  Fe  Fe15  1  0.33816700  0.67076518  0.00442862  1
  Fe  Fe16  1  0.50376886  0.83609882  0.16912935  1
  Ni  Ni17  1  0.33676959  0.66923044  0.33564995  1
  Ni  Ni18  1  0.66930810  1.00119393  1.00269136  1
  Fe  Fe19  1  0.83675119  0.16790192  0.17075106  1
  Ni  Ni20  1  0.67026850  0.00435769  0.33527374  1
  Cr  Cr21  1  0.67016822  0.33690938  1.00153757  1
  Fe  Fe22  1  0.83711278  0.50392475  0.16980312  1
  Fe  Fe23  1  0.66872145  0.33594865  0.33603081  1
  Ni  Ni24  1  0.66930646  0.67104125  1.00287041  1
  Fe  Fe25  1  0.83558785  0.83725240  0.16915745  1
  Fe  Fe26  1  0.66830780  0.66944351  0.33529913  1
  Fe  Fe27  1  0.16805579  0.16889136  0.50448710  1
  Ni  Ni28  1  0.00478834  0.00475346  0.67015270  1
  Fe  Fe29  1  0.16914369  0.16884946  0.83568646  1
  Cr  Cr30  1  0.16991620  0.50326276  0.50266137  1
  Ni  Ni31  1  1.00087348  0.33438491  0.67017079  1
  Cr  Cr32  1  0.16938639  0.50273501  0.83727195  1
  Fe  Fe33  1  0.17057483  0.83702111  0.50326077  1
  Fe  Fe34  1  1.00178009  0.67052883  0.67087402  1
  Fe  Fe35  1  0.16948334  0.83759976  0.83648946  1
  Fe  Fe36  1  0.50409598  0.17013961  0.50341023  1
  Fe  Fe37  1  0.33538496  0.00385720  0.66964338  1
  Ni  Ni38  1  0.50229083  0.16913551  0.83528314  1
  Fe  Fe39  1  0.50431819  0.50366518  0.50320983  1
  Fe  Fe40  1  0.33740768  0.33419798  0.67017864  1
  Ni  Ni41  1  0.50349122  0.50219958  0.83532307  1
  Fe  Fe42  1  0.50208050  0.83527067  0.50316938  1
  Fe  Fe43  1  0.33700951  0.67101940  0.66913855  1
  Fe  Fe44  1  0.50441666  0.83554158  0.83678267  1
  Fe  Fe45  1  0.83692793  0.17113323  0.50311053  1
  Fe  Fe46  1  0.66989696  0.00435482  0.67074907  1
  Fe  Fe47  1  0.83669928  0.16934153  0.83520847  1
  Fe  Fe48  1  0.83517711  0.50114408  0.50372129  1
  Fe  Fe49  1  0.67038215  0.33622716  0.67047262  1
  Ni  Ni50  1  0.83609493  0.50532986  0.83436963  1
  Cr  Cr51  1  0.83690147  0.83707536  0.50171667  1
  Fe  Fe52  1  0.67029266  0.66849769  0.67169674  1
  Ni  Ni53  1  0.83642925  0.83631961  0.83734116  1
" 