2736,Ni22Fe34Cr43_11,-221.871389135129, 180.608977412639,Ni22Fe34Cr43,"# generated using pymatgen
 data_Cr4Fe3Ni2
_symmetry_space_group_name_H-M   'P 1'
_cell_length_a   7.49450047
_cell_length_b   7.49450047
_cell_length_c   10.59882421
_cell_angle_alpha   90.00000000
_cell_angle_beta   90.00000000
_cell_angle_gamma   90.00000000
_symmetry_Int_Tables_number   1
_chemical_formula_structural   Cr4Fe3Ni2
_chemical_formula_sum   'Cr24 Fe18 Ni12'
_cell_volume   595.30985436
_cell_formula_units_Z   6
loop_
 _symmetry_equiv_pos_site_id
 _symmetry_equiv_pos_as_xyz
  1  'x, y, z'
loop_
 _atom_site_type_symbol
 _atom_site_label
 _atom_site_symmetry_multiplicity
 _atom_site_fract_x
 _atom_site_fract_y
 _atom_site_fract_z
 _atom_site_occupancy
  Fe  Fe0  1  0.99639927  -0.00067601  0.99722342  1
  Cr  Cr1  1  0.16430186  0.16435876  0.16374016  1
  Ni  Ni2  1  0.99741094  0.00052253  0.33536950  1
  Fe  Fe3  1  0.99681219  0.32983260  0.99723206  1
  Fe  Fe4  1  0.16236996  0.49582780  0.16631296  1
  Fe  Fe5  1  0.00055253  0.33196078  0.33213461  1
  Cr  Cr6  1  0.99624680  0.66080406  -0.00049664  1
  Cr  Cr7  1  0.16674173  0.83433189  0.16228549  1
  Fe  Fe8  1  0.00060222  0.66515790  0.33035244  1
  Ni  Ni9  1  0.33352282  -0.00140768  0.00013649  1
  Fe  Fe10  1  0.49741246  0.16415385  0.16696012  1
  Ni  Ni11  1  0.33012882  0.00256797  0.32973638  1
  Cr  Cr12  1  0.33154874  0.33003556  0.99655300  1
  Cr  Cr13  1  0.49998148  0.49631221  0.16382865  1
  Ni  Ni14  1  0.33002667  0.32954618  0.33396376  1
  Fe  Fe15  1  0.33318128  0.66496520  0.00001317  1
  Fe  Fe16  1  0.49827825  0.83410107  0.16494092  1
  Cr  Cr17  1  0.32994497  0.66297053  0.32900469  1
  Cr  Cr18  1  0.66422196  -0.00075721  -0.00153903  1
  Cr  Cr19  1  0.83253040  0.16846119  0.16702390  1
  Fe  Fe20  1  0.66317001  0.00221563  0.33217215  1
  Cr  Cr21  1  0.66837633  0.33128521  0.99525201  1
  Ni  Ni22  1  0.83225267  0.49696595  0.16617091  1
  Fe  Fe23  1  0.66274962  0.32948535  0.33209976  1
  Fe  Fe24  1  0.66568454  0.66472551  -0.00158637  1
  Cr  Cr25  1  0.83235642  0.83315315  0.16713421  1
  Cr  Cr26  1  0.66734839  0.66591352  0.32911288  1
  Fe  Fe27  1  0.16628019  0.16717136  0.49581265  1
  Fe  Fe28  1  0.99440545  0.99802854  0.66397409  1
  Cr  Cr29  1  0.16398814  0.16160039  0.83272432  1
  Ni  Ni30  1  0.16326069  0.49686581  0.49577477  1
  Cr  Cr31  1  -0.00075269  0.33088859  0.66523956  1
  Cr  Cr32  1  0.16638884  0.49772652  0.83154332  1
  Cr  Cr33  1  0.16117857  0.83192101  0.49926592  1
  Fe  Fe34  1  0.99553288  0.66393254  0.66553850  1
  Cr  Cr35  1  0.16281303  0.83332021  0.83300765  1
  Ni  Ni36  1  0.49852090  0.16688478  0.49492781  1
  Cr  Cr37  1  0.33122874  0.00092803  0.66296498  1
  Ni  Ni38  1  0.49925281  0.16595668  0.83031044  1
  Cr  Cr39  1  0.49845781  0.49417519  0.50270986  1
  Fe  Fe40  1  0.33436052  0.32919868  0.66348311  1
  Fe  Fe41  1  0.50170317  0.49504378  0.83057304  1
  Cr  Cr42  1  0.49711272  0.83339228  0.49349586  1
  Cr  Cr43  1  0.32891598  0.66210250  0.66509359  1
  Cr  Cr44  1  0.49654892  0.83040278  0.83582505  1
  Fe  Fe45  1  0.83107462  0.16574830  0.49723947  1
  Cr  Cr46  1  0.66540919  0.00015953  0.66306196  1
  Ni  Ni47  1  0.83059794  0.16434347  0.83067925  1
  Cr  Cr48  1  0.83189458  0.49806989  0.49587415  1
  Ni  Ni49  1  0.66702839  0.32930566  0.66703318  1
  Ni  Ni50  1  0.83050525  0.49722285  0.83255979  1
  Fe  Fe51  1  0.83164319  0.83282210  0.49720622  1
  Cr  Cr52  1  0.66715777  0.66536489  0.66889557  1
  Ni  Ni53  1  0.83243623  0.83170734  0.83115144  1
" 