327,Ni22Fe68Cr8_6,-231.258381212187, 185.846298825061,Ni22Fe68Cr8,"# generated using pymatgen
 data_Cr5Fe37Ni12
_symmetry_space_group_name_H-M   'P 1'
_cell_length_a   7.41908358
_cell_length_b   7.41908358
_cell_length_c   10.49216863
_cell_angle_alpha   90.00000000
_cell_angle_beta   90.00000000
_cell_angle_gamma   90.00000000
_symmetry_Int_Tables_number   1
_chemical_formula_structural   Cr5Fe37Ni12
_chemical_formula_sum   'Cr5 Fe37 Ni12'
_cell_volume   577.51835218
_cell_formula_units_Z   1
loop_
 _symmetry_equiv_pos_site_id
 _symmetry_equiv_pos_as_xyz
  1  'x, y, z'
loop_
 _atom_site_type_symbol
 _atom_site_label
 _atom_site_symmetry_multiplicity
 _atom_site_fract_x
 _atom_site_fract_y
 _atom_site_fract_z
 _atom_site_occupancy
  Fe  Fe0  1  1.00015570  0.00542340  1.00302126  1
  Fe  Fe1  1  0.17013897  0.17159840  0.16983002  1
  Fe  Fe2  1  1.00184868  1.00234227  0.33705607  1
  Fe  Fe3  1  0.00403616  0.33678696  1.00306844  1
  Fe  Fe4  1  0.17124117  0.50257056  0.16812822  1
  Cr  Cr5  1  0.00346956  0.33767084  0.33618866  1
  Fe  Fe6  1  1.00240928  0.66748070  1.00242679  1
  Cr  Cr7  1  0.16955025  0.83515152  0.17080662  1
  Fe  Fe8  1  1.00318780  0.67090411  0.33814946  1
  Cr  Cr9  1  0.33841328  0.00441453  1.00202059  1
  Fe  Fe10  1  0.50408127  0.17081500  0.17067465  1
  Fe  Fe11  1  0.33776403  0.00400549  0.33769870  1
  Ni  Ni12  1  0.33571474  0.33847638  0.00335555  1
  Fe  Fe13  1  0.50193731  0.50232604  0.16840518  1
  Fe  Fe14  1  0.33870136  0.33618818  0.33601891  1
  Ni  Ni15  1  0.33771264  0.66667851  1.00301394  1
  Fe  Fe16  1  0.50469357  0.83656080  0.16957866  1
  Fe  Fe17  1  0.33616667  0.66950034  0.33669417  1
  Fe  Fe18  1  0.67077354  0.00340693  1.00258928  1
  Fe  Fe19  1  0.83547971  0.16884014  0.16870553  1
  Ni  Ni20  1  0.66920076  0.00380520  0.33569918  1
  Ni  Ni21  1  0.67071684  0.33688465  0.00415743  1
  Fe  Fe22  1  0.83652186  0.50319214  0.16887338  1
  Fe  Fe23  1  0.66868343  0.33485836  0.33631824  1
  Fe  Fe24  1  0.66859435  0.66959518  1.00314148  1
  Fe  Fe25  1  0.83572722  0.83767014  0.16904466  1
  Cr  Cr26  1  0.67063317  0.67083780  0.33665498  1
  Fe  Fe27  1  0.17054485  0.16939115  0.50404798  1
  Fe  Fe28  1  1.00205784  0.00359923  0.66962574  1
  Fe  Fe29  1  0.16911755  0.17168090  0.83581159  1
  Fe  Fe30  1  0.16987491  0.50432429  0.50464509  1
  Fe  Fe31  1  1.00308056  0.33630548  0.66978226  1
  Ni  Ni32  1  0.17080905  0.50193962  0.83730504  1
  Fe  Fe33  1  0.16938044  0.83598198  0.50347763  1
  Ni  Ni34  1  1.00202165  0.66782512  0.66822112  1
  Cr  Cr35  1  0.17011156  0.83496975  0.83557963  1
  Fe  Fe36  1  0.50394468  0.16975029  0.50329490  1
  Ni  Ni37  1  0.33836972  0.00416362  0.66900972  1
  Fe  Fe38  1  0.50437153  0.16999828  0.83572514  1
  Fe  Fe39  1  0.50295505  0.50230589  0.50371338  1
  Fe  Fe40  1  0.33613673  0.33623098  0.67047441  1
  Fe  Fe41  1  0.50320055  0.50360043  0.83758621  1
  Fe  Fe42  1  0.50308962  0.83764164  0.50460668  1
  Fe  Fe43  1  0.33736708  0.67020033  0.67004750  1
  Ni  Ni44  1  0.50524186  0.83603316  0.83632319  1
  Fe  Fe45  1  0.83520798  0.16925438  0.50426924  1
  Ni  Ni46  1  0.66885084  1.00275632  0.67070615  1
  Ni  Ni47  1  0.83564329  0.16972290  0.83658797  1
  Ni  Ni48  1  0.83643795  0.50266816  0.50486334  1
  Fe  Fe49  1  0.67048068  0.33609669  0.67014834  1
  Fe  Fe50  1  0.83683106  0.50392287  0.83600781  1
  Fe  Fe51  1  0.83722691  0.83697046  0.50451919  1
  Fe  Fe52  1  0.67014150  0.67122415  0.66977453  1
  Ni  Ni53  1  0.83450499  0.83801109  0.83707993  1
" 