5071,Ni22Fe68Cr8_10,-231.510462408814, 188.18128696491,Ni22Fe68Cr8,"# generated using pymatgen
 data_Cr5Fe37Ni12
_symmetry_space_group_name_H-M   'P 1'
_cell_length_a   7.42010054
_cell_length_b   7.42010054
_cell_length_c   10.49360681
_cell_angle_alpha   90.00000000
_cell_angle_beta   90.00000000
_cell_angle_gamma   90.00000000
_symmetry_Int_Tables_number   1
_chemical_formula_structural   Cr5Fe37Ni12
_chemical_formula_sum   'Cr5 Fe37 Ni12'
_cell_volume   577.75586997
_cell_formula_units_Z   1
loop_
 _symmetry_equiv_pos_site_id
 _symmetry_equiv_pos_as_xyz
  1  'x, y, z'
loop_
 _atom_site_type_symbol
 _atom_site_label
 _atom_site_symmetry_multiplicity
 _atom_site_fract_x
 _atom_site_fract_y
 _atom_site_fract_z
 _atom_site_occupancy
  Ni  Ni0  1  1.00186436  1.00240980  0.00328749  1
  Ni  Ni1  1  0.17029763  0.16837591  0.17100672  1
  Fe  Fe2  1  0.00403028  0.00323239  0.33572523  1
  Fe  Fe3  1  1.00282276  0.33386799  1.00257500  1
  Fe  Fe4  1  0.16981599  0.50269357  0.17042975  1
  Fe  Fe5  1  0.00476937  0.33577990  0.33747000  1
  Fe  Fe6  1  0.00403913  0.67226025  1.00174915  1
  Fe  Fe7  1  0.16914260  0.83815803  0.16840841  1
  Fe  Fe8  1  1.00283520  0.67047391  0.33800123  1
  Ni  Ni9  1  0.33642090  1.00161539  1.00269575  1
  Fe  Fe10  1  0.50345040  0.16869263  0.17043584  1
  Ni  Ni11  1  0.33663668  0.00458515  0.33674883  1
  Cr  Cr12  1  0.33617460  0.33664819  0.00424840  1
  Fe  Fe13  1  0.50275871  0.50262762  0.16970222  1
  Fe  Fe14  1  0.33597550  0.33457170  0.33670610  1
  Fe  Fe15  1  0.33636750  0.67288197  1.00299709  1
  Fe  Fe16  1  0.50337578  0.83816873  0.16948672  1
  Cr  Cr17  1  0.33578633  0.66906719  0.33661143  1
  Ni  Ni18  1  0.67121213  1.00292258  0.00386052  1
  Fe  Fe19  1  0.83690779  0.16801739  0.16940307  1
  Fe  Fe20  1  0.66890209  1.00267215  0.33635256  1
  Fe  Fe21  1  0.67057841  0.33444069  1.00253359  1
  Cr  Cr22  1  0.83626543  0.50352362  0.16921073  1
  Fe  Fe23  1  0.66874217  0.33576231  0.33738679  1
  Fe  Fe24  1  0.66907980  0.67197295  1.00221379  1
  Fe  Fe25  1  0.83697312  0.83884635  0.16885524  1
  Fe  Fe26  1  0.67010873  0.67106197  0.33777082  1
  Fe  Fe27  1  0.17032158  0.17033677  0.50312669  1
  Fe  Fe28  1  0.00399280  0.00477512  0.67113189  1
  Ni  Ni29  1  0.16979072  0.16856234  0.83495469  1
  Ni  Ni30  1  0.16798075  0.49996399  0.50187228  1
  Fe  Fe31  1  0.00408087  0.33548017  0.66943492  1
  Fe  Fe32  1  0.16886988  0.50270125  0.83644868  1
  Fe  Fe33  1  0.16930652  0.83793132  0.50252344  1
  Cr  Cr34  1  1.00229236  0.67041602  0.66909942  1
  Ni  Ni35  1  0.17006673  0.83942574  0.83857898  1
  Fe  Fe36  1  0.50277390  0.17031263  0.50316301  1
  Fe  Fe37  1  0.33613059  0.00476492  0.66993105  1
  Fe  Fe38  1  0.50324799  0.16802165  0.83589264  1
  Fe  Fe39  1  0.50453057  0.50192215  0.50345317  1
  Ni  Ni40  1  0.33689583  0.33551980  0.66835825  1
  Fe  Fe41  1  0.50398999  0.50335451  0.83633729  1
  Ni  Ni42  1  0.50485790  0.83841048  0.50381074  1
  Cr  Cr43  1  0.33678625  0.66892116  0.67017458  1
  Fe  Fe44  1  0.50348572  0.83811124  0.83724273  1
  Fe  Fe45  1  0.83639714  0.17038112  0.50310045  1
  Fe  Fe46  1  0.66936727  1.00278010  0.67018357  1
  Fe  Fe47  1  0.83740202  0.16840396  0.83699287  1
  Ni  Ni48  1  0.83608791  0.50286785  0.50283752  1
  Fe  Fe49  1  0.66957750  0.33718439  0.66956610  1
  Fe  Fe50  1  0.83663034  0.50293477  0.83697555  1
  Fe  Fe51  1  0.83569107  0.83617537  0.50285724  1
  Fe  Fe52  1  0.66956597  0.66952595  0.66950883  1
  Ni  Ni53  1  0.83537580  0.83631425  0.83740031  1
" 