3218,Ni22Fe34Cr43_10,-221.495822790033, 178.690056449128,Ni22Fe34Cr43,"# generated using pymatgen
 data_Cr4Fe3Ni2
_symmetry_space_group_name_H-M   'P 1'
_cell_length_a   7.49428841
_cell_length_b   7.49428841
_cell_length_c   10.59852430
_cell_angle_alpha   90.00000000
_cell_angle_beta   90.00000000
_cell_angle_gamma   90.00000000
_symmetry_Int_Tables_number   1
_chemical_formula_structural   Cr4Fe3Ni2
_chemical_formula_sum   'Cr24 Fe18 Ni12'
_cell_volume   595.25932099
_cell_formula_units_Z   6
loop_
 _symmetry_equiv_pos_site_id
 _symmetry_equiv_pos_as_xyz
  1  'x, y, z'
loop_
 _atom_site_type_symbol
 _atom_site_label
 _atom_site_symmetry_multiplicity
 _atom_site_fract_x
 _atom_site_fract_y
 _atom_site_fract_z
 _atom_site_occupancy
  Fe  Fe0  1  0.99703757  0.99667744  0.99579581  1
  Fe  Fe1  1  0.16529187  0.16323370  0.16537837  1
  Fe  Fe2  1  0.99786973  -0.00051529  0.33268143  1
  Cr  Cr3  1  0.99779696  0.33274702  0.99618295  1
  Cr  Cr4  1  0.16389616  0.49852626  0.16778973  1
  Fe  Fe5  1  -0.00104788  0.33036748  0.33118494  1
  Fe  Fe6  1  0.99765459  0.66592449  0.99581871  1
  Cr  Cr7  1  0.16419804  0.83308203  0.16265382  1
  Fe  Fe8  1  0.99681523  0.66474928  0.33232368  1
  Ni  Ni9  1  0.33173881  0.99654268  0.00008073  1
  Fe  Fe10  1  0.49767164  0.16212590  0.16398216  1
  Cr  Cr11  1  0.33387595  0.00016231  0.33096324  1
  Cr  Cr12  1  0.33200626  0.33042968  0.00233138  1
  Fe  Fe13  1  0.50070651  0.50050269  0.16415539  1
  Ni  Ni14  1  0.33015563  0.33130505  0.32984303  1
  Fe  Fe15  1  0.33280846  0.66605726  -0.00140864  1
  Ni  Ni16  1  0.49850787  0.83046630  0.16373796  1
  Cr  Cr17  1  0.33297069  0.66449313  0.33204146  1
  Fe  Fe18  1  0.66389898  0.99753333  -0.00173107  1
  Cr  Cr19  1  0.83296378  0.16473813  0.16432194  1
  Cr  Cr20  1  0.66473304  0.99652160  0.33501747  1
  Fe  Fe21  1  0.66548137  0.33202390  0.99803112  1
  Fe  Fe22  1  0.83007961  0.50046431  0.16362479  1
  Cr  Cr23  1  0.66271314  0.33101312  0.32875715  1
  Ni  Ni24  1  0.66749737  0.66512399  0.00050919  1
  Cr  Cr25  1  0.83140978  0.83170572  0.16590784  1
  Fe  Fe26  1  0.66370535  0.66480470  0.33037806  1
  Cr  Cr27  1  0.16320007  0.16606596  0.49695368  1
  Cr  Cr28  1  0.99609744  0.99693615  0.66696045  1
  Cr  Cr29  1  0.16487632  0.16113823  0.83178417  1
  Fe  Fe30  1  0.16289637  0.49791919  0.49734888  1
  Fe  Fe31  1  0.99463154  0.33071025  0.66577879  1
  Cr  Cr32  1  0.16615165  0.50103118  0.82818963  1
  Cr  Cr33  1  0.16528976  0.83101381  0.49893175  1
  Cr  Cr34  1  0.99709044  0.66468194  0.66694485  1
  Ni  Ni35  1  0.16588786  0.83184228  0.83418255  1
  Fe  Fe36  1  0.49957208  0.16573980  0.49909903  1
  Ni  Ni37  1  0.33127037  0.99594698  0.66352529  1
  Cr  Cr38  1  0.50033936  0.16417624  0.83076777  1
  Cr  Cr39  1  0.49714039  0.49844923  0.49996710  1
  Cr  Cr40  1  0.33115858  0.33116905  0.66294878  1
  Cr  Cr41  1  0.50067123  0.49966535  0.83230651  1
  Fe  Fe42  1  0.49851218  0.83213005  0.49918934  1
  Ni  Ni43  1  0.32985067  0.66764053  0.66464335  1
  Cr  Cr44  1  0.49519762  0.83124209  0.83102844  1
  Ni  Ni45  1  0.83183951  0.16565556  0.49893604  1
  Cr  Cr46  1  0.66628046  -0.00088166  0.66190124  1
  Ni  Ni47  1  0.83041119  0.16632605  0.83148034  1
  Cr  Cr48  1  0.83157863  0.49626520  0.49616146  1
  Ni  Ni49  1  0.66895318  0.33064320  0.66653502  1
  Ni  Ni50  1  0.82978893  0.49640619  0.83338923  1
  Ni  Ni51  1  0.83212582  0.83218086  0.49481795  1
  Cr  Cr52  1  0.66733170  0.66591295  0.66317557  1
  Fe  Fe53  1  0.83127851  0.83104549  0.83455858  1
" 