5921,Ni22Fe21Cr56_7,-216.696232653311, 166.885527432422,Ni22Fe21Cr56,"# generated using pymatgen
 data_Cr31Fe11Ni12
_symmetry_space_group_name_H-M   'P 1'
_cell_length_a   7.53027728
_cell_length_b   7.53027728
_cell_length_c   10.64942026
_cell_angle_alpha   90.00000000
_cell_angle_beta   90.00000000
_cell_angle_gamma   90.00000000
_symmetry_Int_Tables_number   1
_chemical_formula_structural   Cr31Fe11Ni12
_chemical_formula_sum   'Cr31 Fe11 Ni12'
_cell_volume   603.87618433
_cell_formula_units_Z   1
loop_
 _symmetry_equiv_pos_site_id
 _symmetry_equiv_pos_as_xyz
  1  'x, y, z'
loop_
 _atom_site_type_symbol
 _atom_site_label
 _atom_site_symmetry_multiplicity
 _atom_site_fract_x
 _atom_site_fract_y
 _atom_site_fract_z
 _atom_site_occupancy
  Cr  Cr0  1  -0.00367441  -0.00255610  -0.00339239  1
  Cr  Cr1  1  0.16641160  0.16333762  0.15778489  1
  Cr  Cr2  1  -0.00350796  0.99514135  0.32873637  1
  Ni  Ni3  1  0.99512419  0.33104066  0.99429405  1
  Cr  Cr4  1  0.16291193  0.49647662  0.16217666  1
  Cr  Cr5  1  -0.00309184  0.32900985  0.33056749  1
  Fe  Fe6  1  -0.00271577  0.66377000  -0.00362592  1
  Ni  Ni7  1  0.16219400  0.82749498  0.16056032  1
  Ni  Ni8  1  -0.00233131  0.66500158  0.32828652  1
  Ni  Ni9  1  0.33071309  0.99178645  -0.00249973  1
  Ni  Ni10  1  0.49489930  0.16020022  0.16386868  1
  Cr  Cr11  1  0.32897223  0.99507621  0.32843047  1
  Fe  Fe12  1  0.33185314  0.32935986  -0.00385270  1
  Cr  Cr13  1  0.49332561  0.49275399  0.16202916  1
  Ni  Ni14  1  0.33034841  0.32743659  0.32895261  1
  Ni  Ni15  1  0.33003241  0.66482660  0.99542457  1
  Fe  Fe16  1  0.49184285  0.83032215  0.16166683  1
  Cr  Cr17  1  0.32733715  0.66335501  0.33132142  1
  Cr  Cr18  1  0.66084664  0.99471051  -0.00195399  1
  Cr  Cr19  1  0.82780907  0.16217804  0.16281777  1
  Fe  Fe20  1  0.66183224  -0.00322520  0.32936153  1
  Cr  Cr21  1  0.66487929  0.32992475  0.99323710  1
  Cr  Cr22  1  0.83123234  0.49805618  0.16122118  1
  Cr  Cr23  1  0.66218433  0.32733212  0.33045479  1
  Cr  Cr24  1  0.65943843  0.66240473  0.99560246  1
  Fe  Fe25  1  0.83128777  0.82927861  0.16258550  1
  Cr  Cr26  1  0.66189647  0.66455696  0.32437168  1
  Cr  Cr27  1  0.16428611  0.16241135  0.49496117  1
  Cr  Cr28  1  -0.00410468  -0.00270997  0.66168852  1
  Cr  Cr29  1  0.16416644  0.16242585  0.83448600  1
  Fe  Fe30  1  0.16030332  0.49790669  0.49480418  1
  Cr  Cr31  1  0.99406765  0.32890175  0.66335164  1
  Cr  Cr32  1  0.16346149  0.49666076  0.83165020  1
  Ni  Ni33  1  0.16014549  0.82652671  0.49664009  1
  Ni  Ni34  1  0.99570914  0.66094951  0.66134084  1
  Cr  Cr35  1  0.16198259  0.82882543  0.82905883  1
  Fe  Fe36  1  0.49803477  0.16082668  0.49541238  1
  Cr  Cr37  1  0.32911183  0.99440294  0.66250793  1
  Cr  Cr38  1  0.49547367  0.16165303  0.82785863  1
  Cr  Cr39  1  0.49545892  0.49330975  0.49480188  1
  Cr  Cr40  1  0.32917209  0.33067746  0.66027050  1
  Ni  Ni41  1  0.49629249  0.49519470  0.83011640  1
  Cr  Cr42  1  0.49819663  0.83060986  0.49759299  1
  Cr  Cr43  1  0.32814632  0.66223940  0.66170890  1
  Fe  Fe44  1  0.49435705  0.82924167  0.83014484  1
  Ni  Ni45  1  0.82495423  0.16156674  0.49838980  1
  Ni  Ni46  1  0.66310105  -0.00112169  0.66163538  1
  Fe  Fe47  1  0.82806538  0.16335866  0.82837679  1
  Cr  Cr48  1  0.82856697  0.49793073  0.49619846  1
  Fe  Fe49  1  0.66288570  0.32787632  0.66325143  1
  Fe  Fe50  1  0.83051051  0.49540668  0.82926873  1
  Cr  Cr51  1  0.82950344  0.82913125  0.49463305  1
  Cr  Cr52  1  0.66020503  0.66063536  0.66698865  1
  Cr  Cr53  1  0.82918359  0.82940048  0.82772290  1
" 