6436,Ni22Fe78_13,-242.731939933483, 208.595954100172,Ni22Fe78,"# generated using pymatgen
 data_Fe11Ni43
_symmetry_space_group_name_H-M   'P 1'
_cell_length_a   7.42041496
_cell_length_b   7.42041496
_cell_length_c   10.49405148
_cell_angle_alpha   90.00000000
_cell_angle_beta   90.00000000
_cell_angle_gamma   90.00000000
_symmetry_Int_Tables_number   1
_chemical_formula_structural   Fe11Ni43
_chemical_formula_sum   'Fe11 Ni43'
_cell_volume   577.82932050
_cell_formula_units_Z   1
loop_
 _symmetry_equiv_pos_site_id
 _symmetry_equiv_pos_as_xyz
  1  'x, y, z'
loop_
 _atom_site_type_symbol
 _atom_site_label
 _atom_site_symmetry_multiplicity
 _atom_site_fract_x
 _atom_site_fract_y
 _atom_site_fract_z
 _atom_site_occupancy
  Ni  Ni0  1  1.00313263  1.00313197  0.00315011  1
  Ni  Ni1  1  0.16980673  0.16981515  0.16980549  1
  Ni  Ni2  1  1.00313706  1.00314194  0.33646880  1
  Ni  Ni3  1  0.00314612  0.33648067  1.00314160  1
  Ni  Ni4  1  0.16979629  0.50313863  0.16980168  1
  Ni  Ni5  1  0.00315177  0.33647362  0.33646895  1
  Ni  Ni6  1  0.00314307  0.66981391  0.00314395  1
  Ni  Ni7  1  0.16980977  0.83647278  0.16981021  1
  Ni  Ni8  1  1.00313766  0.66981100  0.33647619  1
  Fe  Fe9  1  0.33647093  0.00314826  0.00314709  1
  Ni  Ni10  1  0.50314823  0.16980044  0.16980565  1
  Ni  Ni11  1  0.33648294  0.00314562  0.33646750  1
  Ni  Ni12  1  0.33648234  0.33648008  1.00314034  1
  Fe  Fe13  1  0.50313898  0.50313825  0.16981129  1
  Ni  Ni14  1  0.33647192  0.33647361  0.33647732  1
  Fe  Fe15  1  0.33646594  0.66980639  1.00313679  1
  Ni  Ni16  1  0.50314517  0.83648749  0.16981005  1
  Ni  Ni17  1  0.33648234  0.66980733  0.33647459  1
  Ni  Ni18  1  0.66981097  0.00314241  1.00313942  1
  Ni  Ni19  1  0.83647160  0.16981393  0.16980437  1
  Ni  Ni20  1  0.66980655  1.00313151  0.33647949  1
  Ni  Ni21  1  0.66979810  0.33646963  0.00315102  1
  Ni  Ni22  1  0.83648631  0.50313557  0.16981040  1
  Fe  Fe23  1  0.66980885  0.33646911  0.33647549  1
  Fe  Fe24  1  0.66982131  0.66980277  1.00314072  1
  Ni  Ni25  1  0.83647161  0.83647705  0.16979895  1
  Ni  Ni26  1  0.66980655  0.66982202  0.33646678  1
  Ni  Ni27  1  0.16980320  0.16981451  0.50314668  1
  Ni  Ni28  1  0.00314878  1.00313737  0.66980765  1
  Fe  Fe29  1  0.16981245  0.16981738  0.83647233  1
  Ni  Ni30  1  0.16981365  0.50314050  0.50315191  1
  Ni  Ni31  1  1.00314196  0.33647465  0.66981600  1
  Ni  Ni32  1  0.16980133  0.50314306  0.83647296  1
  Ni  Ni33  1  0.16980688  0.83647155  0.50314324  1
  Ni  Ni34  1  1.00313892  0.66981453  0.66980641  1
  Ni  Ni35  1  0.16981482  0.83647253  0.83647310  1
  Ni  Ni36  1  0.50314841  0.16981088  0.50315028  1
  Ni  Ni37  1  0.33647310  1.00314042  0.66981022  1
  Fe  Fe38  1  0.50313613  0.16982205  0.83647772  1
  Ni  Ni39  1  0.50313496  0.50314112  0.50314539  1
  Ni  Ni40  1  0.33648359  0.33647528  0.66980891  1
  Ni  Ni41  1  0.50314727  0.50314244  0.83647947  1
  Ni  Ni42  1  0.50314536  0.83647455  0.50314700  1
  Ni  Ni43  1  0.33648359  0.66981086  0.66980915  1
  Ni  Ni44  1  0.50313680  0.83647618  0.83646949  1
  Ni  Ni45  1  0.83647494  0.16980412  0.50314304  1
  Fe  Fe46  1  0.66980568  1.00313974  0.66980006  1
  Fe  Fe47  1  0.83647796  0.16981841  0.83647945  1
  Fe  Fe48  1  0.83647723  0.50314538  0.50314687  1
  Ni  Ni49  1  0.66980101  0.33648514  0.66980603  1
  Ni  Ni50  1  0.83647796  0.50312890  0.83646804  1
  Ni  Ni51  1  0.83647432  0.83648500  0.50314973  1
  Ni  Ni52  1  0.66980405  0.66980405  0.66981638  1
  Fe  Fe53  1  0.83648191  0.83645626  0.83647625  1
" 