7332,Ni22Fe40Cr36_17,-223.207078070217, 183.818428513484,Ni22Fe40Cr36,"# generated using pymatgen
 data_Cr7Fe7Ni4
_symmetry_space_group_name_H-M   'P 1'
_cell_length_a   7.47858723
_cell_length_b   7.47858723
_cell_length_c   10.57631948
_cell_angle_alpha   90.00000000
_cell_angle_beta   90.00000000
_cell_angle_gamma   90.00000000
_symmetry_Int_Tables_number   1
_chemical_formula_structural   Cr7Fe7Ni4
_chemical_formula_sum   'Cr21 Fe21 Ni12'
_cell_volume   591.52579514
_cell_formula_units_Z   3
loop_
 _symmetry_equiv_pos_site_id
 _symmetry_equiv_pos_as_xyz
  1  'x, y, z'
loop_
 _atom_site_type_symbol
 _atom_site_label
 _atom_site_symmetry_multiplicity
 _atom_site_fract_x
 _atom_site_fract_y
 _atom_site_fract_z
 _atom_site_occupancy
  Cr  Cr0  1  0.99919621  -0.00056084  0.00267605  1
  Ni  Ni1  1  0.17013042  0.16205070  0.16656438  1
  Cr  Cr2  1  0.99879261  0.99761927  0.33250727  1
  Fe  Fe3  1  0.00074207  0.33377307  -0.00020557  1
  Fe  Fe4  1  0.16564038  0.49853079  0.16745053  1
  Cr  Cr5  1  0.00122241  0.33058907  0.33268269  1
  Cr  Cr6  1  -0.00055173  0.66769244  -0.00065465  1
  Fe  Fe7  1  0.16809261  0.83247101  0.16822123  1
  Ni  Ni8  1  0.99695747  0.67015140  0.33318670  1
  Fe  Fe9  1  0.33261486  0.99750645  -0.00042538  1
  Ni  Ni10  1  0.49745078  0.16258288  0.16601217  1
  Fe  Fe11  1  0.33308722  0.99680185  0.33399778  1
  Cr  Cr12  1  0.33291209  0.33186642  0.00143012  1
  Fe  Fe13  1  0.50074916  0.49751318  0.16672164  1
  Cr  Cr14  1  0.33412928  0.32953098  0.33335517  1
  Cr  Cr15  1  0.33279750  0.66608513  0.99755965  1
  Fe  Fe16  1  0.49949600  0.83351792  0.16800334  1
  Cr  Cr17  1  0.33321349  0.66452537  0.33400360  1
  Cr  Cr18  1  0.66507698  0.99901561  0.99863923  1
  Cr  Cr19  1  0.83085732  0.16874508  0.16598894  1
  Fe  Fe20  1  0.66378608  0.99757299  0.33184778  1
  Fe  Fe21  1  0.66613008  0.33433028  0.00011869  1
  Cr  Cr22  1  0.83243061  0.50213556  0.16630182  1
  Ni  Ni23  1  0.66303188  0.33352055  0.33269453  1
  Fe  Fe24  1  0.66537435  0.66615550  0.00005870  1
  Fe  Fe25  1  0.82965082  0.83333465  0.16787073  1
  Ni  Ni26  1  0.66600510  0.66754571  0.33252399  1
  Ni  Ni27  1  0.16605163  0.16123192  0.50057775  1
  Ni  Ni28  1  0.99920897  0.99828113  0.66378078  1
  Cr  Cr29  1  0.16667075  0.16315523  0.83074760  1
  Cr  Cr30  1  0.16188560  0.50176480  0.49994596  1
  Fe  Fe31  1  -0.00045974  0.33448664  0.66491516  1
  Fe  Fe32  1  0.16140890  0.49852212  0.83041310  1
  Ni  Ni33  1  0.16696350  0.83373073  0.50121249  1
  Ni  Ni34  1  0.99686041  0.66798786  0.66519103  1
  Fe  Fe35  1  0.16455302  0.83186106  0.82945880  1
  Cr  Cr36  1  0.49982635  0.16188047  0.49989285  1
  Ni  Ni37  1  0.33186676  0.99911776  0.66678829  1
  Fe  Fe38  1  0.50046487  0.16535369  0.83173097  1
  Fe  Fe39  1  0.50188477  0.50013007  0.49738168  1
  Cr  Cr40  1  0.33510337  0.33245633  0.66267529  1
  Cr  Cr41  1  0.50200855  0.50023815  0.83300239  1
  Ni  Ni42  1  0.49954223  0.83232617  0.49899176  1
  Cr  Cr43  1  0.33230197  0.66665891  0.66616329  1
  Fe  Fe44  1  0.49795154  0.83637168  0.83079142  1
  Cr  Cr45  1  0.83220653  0.16704121  0.50086046  1
  Fe  Fe46  1  0.66440812  0.99734458  0.66599834  1
  Cr  Cr47  1  0.83318236  0.16899351  0.83097434  1
  Fe  Fe48  1  0.83116278  0.50237893  0.49674092  1
  Fe  Fe49  1  0.66855972  0.33360665  0.66481857  1
  Ni  Ni50  1  0.83297697  0.49933394  0.83241119  1
  Fe  Fe51  1  0.83383376  0.83235998  0.49903901  1
  Cr  Cr52  1  0.66666468  0.66571784  0.66360398  1
  Cr  Cr53  1  0.83223401  0.83140410  0.83109992  1
" 