113,Ni22Fe40Cr36_2,-223.764739059435, 183.215144206728,Ni22Fe40Cr36,"# generated using pymatgen
 data_Cr7Fe7Ni4
_symmetry_space_group_name_H-M   'P 1'
_cell_length_a   7.48405960
_cell_length_b   7.48405960
_cell_length_c   10.58405859
_cell_angle_alpha   90.00000000
_cell_angle_beta   90.00000000
_cell_angle_gamma   90.00000000
_symmetry_Int_Tables_number   1
_chemical_formula_structural   Cr7Fe7Ni4
_chemical_formula_sum   'Cr21 Fe21 Ni12'
_cell_volume   592.82527304
_cell_formula_units_Z   3
loop_
 _symmetry_equiv_pos_site_id
 _symmetry_equiv_pos_as_xyz
  1  'x, y, z'
loop_
 _atom_site_type_symbol
 _atom_site_label
 _atom_site_symmetry_multiplicity
 _atom_site_fract_x
 _atom_site_fract_y
 _atom_site_fract_z
 _atom_site_occupancy
  Cr  Cr0  1  0.99798778  -0.00098538  0.99670460  1
  Cr  Cr1  1  0.16417466  0.16519110  0.16657729  1
  Fe  Fe2  1  0.99778415  0.99473131  0.33154708  1
  Cr  Cr3  1  0.99799797  0.33303002  0.99642605  1
  Ni  Ni4  1  0.16336249  0.50173753  0.16317629  1
  Cr  Cr5  1  0.99785598  0.33416625  0.33154793  1
  Fe  Fe6  1  -0.00082071  0.66605950  0.99632755  1
  Fe  Fe7  1  0.16376108  0.82944045  0.16419994  1
  Fe  Fe8  1  -0.00050707  0.66822214  0.33266611  1
  Ni  Ni9  1  0.33138119  0.99836468  0.99690665  1
  Cr  Cr10  1  0.50012330  0.16518940  0.16311764  1
  Cr  Cr11  1  0.33371687  0.99704652  0.33236144  1
  Ni  Ni12  1  0.32986292  0.33128092  0.99606210  1
  Cr  Cr13  1  0.49745099  0.49828566  0.16100279  1
  Cr  Cr14  1  0.33110878  0.33424621  0.33527083  1
  Fe  Fe15  1  0.32793130  0.66540853  0.99786856  1
  Cr  Cr16  1  0.49976095  0.83290960  0.16141244  1
  Cr  Cr17  1  0.33198878  0.66479069  0.33368122  1
  Ni  Ni18  1  0.66605698  -0.00107061  0.99714524  1
  Fe  Fe19  1  0.83038455  0.16395323  0.16510300  1
  Ni  Ni20  1  0.67046303  0.99793191  0.33060920  1
  Ni  Ni21  1  0.66682297  0.33075285  0.99767148  1
  Cr  Cr22  1  0.83289651  0.49962063  0.16414911  1
  Fe  Fe23  1  0.66452342  0.33176320  0.33172680  1
  Fe  Fe24  1  0.66945290  0.66614376  0.99677378  1
  Fe  Fe25  1  0.83368251  0.83341999  0.16456565  1
  Cr  Cr26  1  0.66666392  0.66603804  0.33437947  1
  Fe  Fe27  1  0.16549128  0.16433885  0.50090364  1
  Fe  Fe28  1  0.99763259  0.99633926  0.66744801  1
  Ni  Ni29  1  0.16523779  0.16389723  0.83041936  1
  Fe  Fe30  1  0.16497332  0.49935397  0.50004069  1
  Cr  Cr31  1  -0.00049884  0.33117716  0.66913211  1
  Ni  Ni32  1  0.16398079  0.49715690  0.83414645  1
  Ni  Ni33  1  0.15964981  0.83365904  0.49803775  1
  Cr  Cr34  1  0.99707966  0.66389878  0.66615948  1
  Fe  Fe35  1  0.16480559  0.82968989  0.83228647  1
  Cr  Cr36  1  0.50157076  0.16705391  0.50092396  1
  Cr  Cr37  1  0.33151587  0.00111811  0.66739275  1
  Fe  Fe38  1  0.49834359  0.16789214  0.83521707  1
  Ni  Ni39  1  0.50252178  0.49736068  0.50178014  1
  Fe  Fe40  1  0.33269431  0.33480276  0.66766095  1
  Cr  Cr41  1  0.49954942  0.50039083  0.83438024  1
  Cr  Cr42  1  0.50008037  0.83244665  0.50073655  1
  Cr  Cr43  1  0.33289228  0.66546816  0.66342762  1
  Cr  Cr44  1  0.50037432  0.83344203  0.83357047  1
  Cr  Cr45  1  0.83436149  0.16463210  0.49793917  1
  Fe  Fe46  1  0.66970495  0.99786368  0.66780156  1
  Fe  Fe47  1  0.82910170  0.16652461  0.83172332  1
  Fe  Fe48  1  0.83090695  0.49945442  0.50068976  1
  Fe  Fe49  1  0.66605157  0.33504888  0.66787130  1
  Ni  Ni50  1  0.83149724  0.49986378  0.83267094  1
  Fe  Fe51  1  0.83237560  0.83223590  0.49967750  1
  Ni  Ni52  1  0.66798401  0.66548034  0.66544032  1
  Fe  Fe53  1  0.83287996  0.83036818  0.83216857  1
" 