2211,Ni22Fe68Cr8_18,-231.612101578746, 188.981315500916,Ni22Fe68Cr8,"# generated using pymatgen
 data_Cr5Fe37Ni12
_symmetry_space_group_name_H-M   'P 1'
_cell_length_a   7.42019003
_cell_length_b   7.42019003
_cell_length_c   10.49373337
_cell_angle_alpha   90.00000000
_cell_angle_beta   90.00000000
_cell_angle_gamma   90.00000000
_symmetry_Int_Tables_number   1
_chemical_formula_structural   Cr5Fe37Ni12
_chemical_formula_sum   'Cr5 Fe37 Ni12'
_cell_volume   577.77677440
_cell_formula_units_Z   1
loop_
 _symmetry_equiv_pos_site_id
 _symmetry_equiv_pos_as_xyz
  1  'x, y, z'
loop_
 _atom_site_type_symbol
 _atom_site_label
 _atom_site_symmetry_multiplicity
 _atom_site_fract_x
 _atom_site_fract_y
 _atom_site_fract_z
 _atom_site_occupancy
  Fe  Fe0  1  1.00107241  0.00396614  0.00401710  1
  Fe  Fe1  1  0.17114566  0.17003816  0.16758513  1
  Cr  Cr2  1  1.00234755  1.00233764  0.33566660  1
  Fe  Fe3  1  1.00053294  0.33542996  0.00484947  1
  Fe  Fe4  1  0.17107502  0.50302875  0.17078340  1
  Cr  Cr5  1  0.00420464  0.33788492  0.33695754  1
  Cr  Cr6  1  0.00464592  0.67004958  1.00271601  1
  Fe  Fe7  1  0.17116676  0.83646033  0.16990526  1
  Ni  Ni8  1  0.00370900  0.66941817  0.33813864  1
  Fe  Fe9  1  0.33888078  1.00201695  0.00346771  1
  Fe  Fe10  1  0.50450346  0.16905038  0.16885807  1
  Fe  Fe11  1  0.33798209  1.00192602  0.33672559  1
  Fe  Fe12  1  0.33925836  0.33736472  0.00401086  1
  Fe  Fe13  1  0.50433212  0.50261713  0.17058776  1
  Fe  Fe14  1  0.33903599  0.33746558  0.33714909  1
  Fe  Fe15  1  0.34025054  0.66987700  1.00219366  1
  Fe  Fe16  1  0.50504646  0.83773346  0.17002788  1
  Fe  Fe17  1  0.33653470  0.66995638  0.33786416  1
  Ni  Ni18  1  0.66893035  0.00413086  1.00175127  1
  Ni  Ni19  1  0.83444021  0.16948282  0.16762258  1
  Ni  Ni20  1  0.66784971  0.00367034  0.33771341  1
  Ni  Ni21  1  0.66818909  0.33587093  1.00309300  1
  Fe  Fe22  1  0.83431304  0.50337673  0.16997222  1
  Fe  Fe23  1  0.66927984  0.33650992  0.33550366  1
  Fe  Fe24  1  0.66797410  0.66952070  0.00382983  1
  Fe  Fe25  1  0.83323698  0.83676737  0.17040077  1
  Ni  Ni26  1  0.66893758  0.66999231  0.33580806  1
  Fe  Fe27  1  0.17353631  0.17132880  0.50419952  1
  Cr  Cr28  1  1.00211618  1.00243347  0.66873301  1
  Cr  Cr29  1  0.17100373  0.16963700  0.83801148  1
  Ni  Ni30  1  0.17133963  0.50555047  0.50438694  1
  Fe  Fe31  1  1.00304988  0.33968245  0.66838668  1
  Fe  Fe32  1  0.17177675  0.50339744  0.83475468  1
  Ni  Ni33  1  0.17062638  0.83489230  0.50261935  1
  Fe  Fe34  1  0.00455927  0.66876629  0.66964048  1
  Ni  Ni35  1  0.17058874  0.83527483  0.83694959  1
  Fe  Fe36  1  0.50200732  0.17003378  0.50378281  1
  Fe  Fe37  1  0.33867370  1.00078951  0.66959484  1
  Ni  Ni38  1  0.50475289  0.17055333  0.83648396  1
  Ni  Ni39  1  0.50384977  0.50271922  0.50232228  1
  Fe  Fe40  1  0.33806851  0.33752425  0.66873120  1
  Fe  Fe41  1  0.50248830  0.50272506  0.83584385  1
  Fe  Fe42  1  0.50209336  0.83415698  0.50291893  1
  Ni  Ni43  1  0.33675042  0.66912747  0.67047619  1
  Fe  Fe44  1  0.50227106  0.83753579  0.83650724  1
  Fe  Fe45  1  0.83369824  0.17129961  0.50295821  1
  Fe  Fe46  1  0.66677764  1.00276641  0.66992685  1
  Fe  Fe47  1  0.83436098  0.17014055  0.83805763  1
  Fe  Fe48  1  0.83572249  0.50566456  0.50361722  1
  Fe  Fe49  1  0.66865381  0.33707564  0.67059925  1
  Fe  Fe50  1  0.83545620  0.50158350  0.83608584  1
  Fe  Fe51  1  0.83432782  0.83274781  0.50215830  1
  Fe  Fe52  1  0.66875935  0.66960589  0.66886210  1
  Fe  Fe53  1  0.83431764  0.83754602  0.83669454  1
" 