4395,Ni22Fe40Cr36_15,-224.176334071928, 182.700481379749,Ni22Fe40Cr36,"# generated using pymatgen
 data_Cr7Fe7Ni4
_symmetry_space_group_name_H-M   'P 1'
_cell_length_a   7.48979647
_cell_length_b   7.48979647
_cell_length_c   10.59217175
_cell_angle_alpha   90.00000000
_cell_angle_beta   90.00000000
_cell_angle_gamma   90.00000000
_symmetry_Int_Tables_number   1
_chemical_formula_structural   Cr7Fe7Ni4
_chemical_formula_sum   'Cr21 Fe21 Ni12'
_cell_volume   594.18960092
_cell_formula_units_Z   3
loop_
 _symmetry_equiv_pos_site_id
 _symmetry_equiv_pos_as_xyz
  1  'x, y, z'
loop_
 _atom_site_type_symbol
 _atom_site_label
 _atom_site_symmetry_multiplicity
 _atom_site_fract_x
 _atom_site_fract_y
 _atom_site_fract_z
 _atom_site_occupancy
  Fe  Fe0  1  -0.00076560  0.99741015  -0.00118626  1
  Cr  Cr1  1  0.16660895  0.16187489  0.16508163  1
  Fe  Fe2  1  0.99813910  0.99526004  0.32919827  1
  Fe  Fe3  1  0.99814570  0.32998791  0.00066346  1
  Ni  Ni4  1  0.16469144  0.50159407  0.16413114  1
  Cr  Cr5  1  0.00137752  0.33429515  0.33010171  1
  Fe  Fe6  1  0.00226175  0.66743775  -0.00139227  1
  Ni  Ni7  1  0.16416689  0.82967478  0.16494849  1
  Fe  Fe8  1  -0.00080356  0.66708271  0.32968639  1
  Ni  Ni9  1  0.32813705  0.99666821  0.99759192  1
  Cr  Cr10  1  0.49816706  0.16581371  0.16390939  1
  Ni  Ni11  1  0.33079962  0.99620897  0.32996001  1
  Cr  Cr12  1  0.32856493  0.33424861  0.99732538  1
  Fe  Fe13  1  0.49651606  0.49992454  0.16506204  1
  Fe  Fe14  1  0.33257220  0.33561949  0.33067742  1
  Fe  Fe15  1  0.32937558  0.66607172  -0.00087231  1
  Cr  Cr16  1  0.49489807  0.83190394  0.16574759  1
  Fe  Fe17  1  0.32971227  0.66270675  0.33029151  1
  Cr  Cr18  1  0.66612307  0.99757487  0.99783011  1
  Ni  Ni19  1  0.83163485  0.16490883  0.16612638  1
  Cr  Cr20  1  0.66731215  0.99536758  0.33329639  1
  Ni  Ni21  1  0.66414823  0.33373411  0.00084681  1
  Cr  Cr22  1  0.83073475  0.49933230  0.16248132  1
  Fe  Fe23  1  0.66401764  0.33267681  0.33038319  1
  Fe  Fe24  1  0.66198930  0.66519504  -0.00028142  1
  Ni  Ni25  1  0.83328872  0.82993030  0.16244107  1
  Ni  Ni26  1  0.66389666  0.66427428  0.32977236  1
  Cr  Cr27  1  0.16695967  0.16393091  0.49779338  1
  Ni  Ni28  1  0.00191174  0.99598108  0.66720622  1
  Fe  Fe29  1  0.16489844  0.16231152  0.83332188  1
  Ni  Ni30  1  0.16786532  0.49994824  0.49998092  1
  Cr  Cr31  1  0.00260133  0.33365729  0.66555009  1
  Fe  Fe32  1  0.16577147  0.50228655  0.83260641  1
  Cr  Cr33  1  0.16662231  0.83028161  0.49697095  1
  Ni  Ni34  1  0.00187660  0.66517878  0.66710365  1
  Ni  Ni35  1  0.16555886  0.83104708  0.83290959  1
  Cr  Cr36  1  0.49684239  0.16512269  0.49670114  1
  Cr  Cr37  1  0.33284320  0.99801242  0.66749257  1
  Fe  Fe38  1  0.49697912  0.16691637  0.83456458  1
  Fe  Fe39  1  0.49563264  0.50139551  0.49599735  1
  Fe  Fe40  1  0.33135532  0.33518625  0.66729874  1
  Fe  Fe41  1  0.49731929  0.49827384  0.83373251  1
  Fe  Fe42  1  0.49642681  0.82773093  0.49572161  1
  Fe  Fe43  1  0.32858385  0.66312479  0.66627995  1
  Cr  Cr44  1  0.49572001  0.83115226  0.83299635  1
  Fe  Fe45  1  0.83593207  0.16464614  0.49781774  1
  Cr  Cr46  1  0.66643505  0.99740253  0.66421521  1
  Cr  Cr47  1  0.83213914  0.16784422  0.83161461  1
  Cr  Cr48  1  0.83295501  0.49986196  0.49737537  1
  Cr  Cr49  1  0.66276488  0.33254289  0.66291484  1
  Cr  Cr50  1  0.83185562  0.50072788  0.83577364  1
  Cr  Cr51  1  0.83492655  0.82918623  0.50156584  1
  Cr  Cr52  1  0.66285210  0.66575722  0.66630346  1
  Fe  Fe53  1  0.83665334  0.83170783  0.83236221  1
" 