8965,Ni22Cr78_17,-231.650508207247, 153.941833044856,Ni22Cr78,"# generated using pymatgen
 data_Cr11Ni43
_symmetry_space_group_name_H-M   'P 1'
_cell_length_a   7.47865666
_cell_length_b   7.47865666
_cell_length_c   10.57641767
_cell_angle_alpha   90.00000000
_cell_angle_beta   90.00000000
_cell_angle_gamma   90.00000000
_symmetry_Int_Tables_number   1
_chemical_formula_structural   Cr11Ni43
_chemical_formula_sum   'Cr11 Ni43'
_cell_volume   591.54227021
_cell_formula_units_Z   1
loop_
 _symmetry_equiv_pos_site_id
 _symmetry_equiv_pos_as_xyz
  1  'x, y, z'
loop_
 _atom_site_type_symbol
 _atom_site_label
 _atom_site_symmetry_multiplicity
 _atom_site_fract_x
 _atom_site_fract_y
 _atom_site_fract_z
 _atom_site_occupancy
  Ni  Ni0  1  0.00128316  0.00129166  0.99912913  1
  Ni  Ni1  1  0.16576620  0.16608295  0.16530277  1
  Ni  Ni2  1  0.00068935  0.00062371  0.33261619  1
  Ni  Ni3  1  0.00010712  0.32949792  0.00032264  1
  Ni  Ni4  1  0.16874787  0.49836945  0.16705854  1
  Ni  Ni5  1  0.00063784  0.33092772  0.33235708  1
  Cr  Cr6  1  0.00139292  0.66692472  0.99754885  1
  Ni  Ni7  1  0.16891675  0.83322311  0.16684868  1
  Ni  Ni8  1  0.00290077  0.66612309  0.33324448  1
  Ni  Ni9  1  0.33235172  -0.00070032  0.99865811  1
  Ni  Ni10  1  0.49937203  0.16569674  0.16571588  1
  Ni  Ni11  1  0.33159531  -0.00056017  0.33181861  1
  Ni  Ni12  1  0.33359781  0.33151713  -0.00013679  1
  Ni  Ni13  1  0.49621128  0.49854335  0.16682743  1
  Ni  Ni14  1  0.33281908  0.33329387  0.33300421  1
  Ni  Ni15  1  0.33373988  0.66684307  0.00058080  1
  Ni  Ni16  1  0.49637206  0.83342706  0.16660084  1
  Ni  Ni17  1  0.33178234  0.66493347  0.33118008  1
  Ni  Ni18  1  0.66404256  0.00112087  0.99917005  1
  Ni  Ni19  1  0.83253422  0.16588726  0.16608063  1
  Ni  Ni20  1  0.66536344  0.00169799  0.33159267  1
  Ni  Ni21  1  0.66398705  0.33090101  0.99891045  1
  Cr  Cr22  1  0.83303969  0.49559878  0.16731958  1
  Ni  Ni23  1  0.66420613  0.33112022  0.33279431  1
  Cr  Cr24  1  0.66256107  0.66566746  0.99655294  1
  Cr  Cr25  1  0.83206736  0.83618494  0.16832704  1
  Ni  Ni26  1  0.66297371  0.66485890  0.33158454  1
  Ni  Ni27  1  0.16598072  0.16627572  0.49986280  1
  Ni  Ni28  1  0.00107332  0.99908164  0.66594501  1
  Ni  Ni29  1  0.16776256  0.16383465  0.83250398  1
  Ni  Ni30  1  0.16660412  0.49818017  0.49810794  1
  Ni  Ni31  1  -0.00011476  0.33151282  0.66500587  1
  Cr  Cr32  1  0.16570054  0.49683129  0.83279964  1
  Ni  Ni33  1  0.16479656  0.83321860  0.49852876  1
  Ni  Ni34  1  -0.00024769  0.66708069  0.66692446  1
  Ni  Ni35  1  0.16578014  0.83567833  0.83230293  1
  Ni  Ni36  1  0.49916332  0.16790412  0.49991734  1
  Ni  Ni37  1  0.33119064  0.00224308  0.66718843  1
  Ni  Ni38  1  0.49782494  0.16551501  0.83204836  1
  Ni  Ni39  1  0.49715569  0.49518452  0.49732504  1
  Ni  Ni40  1  0.33358680  0.32953948  0.66482383  1
  Ni  Ni41  1  0.50056081  0.49698381  0.83352310  1
  Cr  Cr42  1  0.49773477  0.83476148  0.49680702  1
  Cr  Cr43  1  0.33116294  0.66589567  0.66586468  1
  Ni  Ni44  1  0.49875201  0.83516890  0.83394501  1
  Ni  Ni45  1  0.83252484  0.16611266  0.49881776  1
  Ni  Ni46  1  0.66539809  0.00210052  0.66690222  1
  Cr  Cr47  1  0.83264049  0.16618734  0.83306829  1
  Cr  Cr48  1  0.83369900  0.49708515  0.49876099  1
  Ni  Ni49  1  0.66420147  0.33088024  0.66595704  1
  Ni  Ni50  1  0.83153967  0.49897751  0.83128118  1
  Cr  Cr51  1  0.83465397  0.83500261  0.49825896  1
  Cr  Cr52  1  0.66675387  0.66471029  0.66951996  1
  Ni  Ni53  1  0.83315060  0.83304591  0.83108781  1
" 