512,Ni22Fe21Cr56_12,-217.103754083619, 171.687250998594,Ni22Fe21Cr56,"# generated using pymatgen
 data_Cr31Fe11Ni12
_symmetry_space_group_name_H-M   'P 1'
_cell_length_a   7.52714731
_cell_length_b   7.52714731
_cell_length_c   10.64499382
_cell_angle_alpha   90.00000000
_cell_angle_beta   90.00000000
_cell_angle_gamma   90.00000000
_symmetry_Int_Tables_number   1
_chemical_formula_structural   Cr31Fe11Ni12
_chemical_formula_sum   'Cr31 Fe11 Ni12'
_cell_volume   603.12349228
_cell_formula_units_Z   1
loop_
 _symmetry_equiv_pos_site_id
 _symmetry_equiv_pos_as_xyz
  1  'x, y, z'
loop_
 _atom_site_type_symbol
 _atom_site_label
 _atom_site_symmetry_multiplicity
 _atom_site_fract_x
 _atom_site_fract_y
 _atom_site_fract_z
 _atom_site_occupancy
  Fe  Fe0  1  -0.00260277  0.99214552  -0.00267617  1
  Cr  Cr1  1  0.16496664  0.16063603  0.16493012  1
  Cr  Cr2  1  0.99388259  0.99532461  0.32739066  1
  Cr  Cr3  1  0.99399476  0.32477276  -0.00151171  1
  Cr  Cr4  1  0.16112572  0.49783392  0.16634770  1
  Fe  Fe5  1  0.99577877  0.33165760  0.32984525  1
  Fe  Fe6  1  -0.00242055  0.66498068  -0.00250947  1
  Ni  Ni7  1  0.16215971  0.83108662  0.16241975  1
  Ni  Ni8  1  -0.00243746  0.66608151  0.33045906  1
  Cr  Cr9  1  0.32925663  0.99388438  -0.00247967  1
  Ni  Ni10  1  0.49608036  0.16042608  0.16676176  1
  Fe  Fe11  1  0.33089281  0.99412814  0.32831476  1
  Cr  Cr12  1  0.32797694  0.32853545  -0.00381598  1
  Cr  Cr13  1  0.49733837  0.49553615  0.16159756  1
  Ni  Ni14  1  0.32992856  0.32780238  0.32869465  1
  Cr  Cr15  1  0.33008501  0.66611560  -0.00238459  1
  Ni  Ni16  1  0.49566237  0.83273039  0.16344794  1
  Cr  Cr17  1  0.32819815  0.66577213  0.32905650  1
  Cr  Cr18  1  0.66327812  -0.00320801  -0.00008138  1
  Fe  Fe19  1  0.82682813  0.16215815  0.16476831  1
  Fe  Fe20  1  0.66006080  0.99500928  0.32934289  1
  Fe  Fe21  1  0.66126804  0.32801475  -0.00194133  1
  Cr  Cr22  1  0.82843439  0.49865008  0.16183377  1
  Ni  Ni23  1  0.66222649  0.32547248  0.32514396  1
  Ni  Ni24  1  0.66252140  0.66687467  -0.00351592  1
  Cr  Cr25  1  0.83028916  0.82753923  0.16254382  1
  Cr  Cr26  1  0.66186644  0.66683094  0.33153894  1
  Cr  Cr27  1  0.16490639  0.16040563  0.49634885  1
  Ni  Ni28  1  -0.00100589  0.99089696  0.66259551  1
  Cr  Cr29  1  0.16253255  0.15660846  0.82641604  1
  Fe  Fe30  1  0.16203521  0.49878563  0.49312920  1
  Cr  Cr31  1  0.99564710  0.33008355  0.65996886  1
  Cr  Cr32  1  0.16063582  0.49868495  0.82926348  1
  Fe  Fe33  1  0.16129404  0.82989011  0.49510205  1
  Ni  Ni34  1  -0.00146044  0.66821634  0.66009559  1
  Fe  Fe35  1  0.16282873  0.82891598  0.82889259  1
  Cr  Cr36  1  0.49303901  0.16108556  0.49441544  1
  Ni  Ni37  1  0.32657935  0.99014585  0.66138099  1
  Cr  Cr38  1  0.49343987  0.16013165  0.82645129  1
  Cr  Cr39  1  0.49537282  0.49413086  0.49404933  1
  Cr  Cr40  1  0.32775690  0.33072961  0.66322607  1
  Cr  Cr41  1  0.49793297  0.49807378  0.83260332  1
  Ni  Ni42  1  0.49472630  0.83168684  0.49559525  1
  Cr  Cr43  1  0.32891332  0.66481576  0.66137175  1
  Fe  Fe44  1  0.49654892  0.83046710  0.82934596  1
  Cr  Cr45  1  0.82963570  0.15970244  0.49412381  1
  Cr  Cr46  1  0.66353999  0.99371274  0.65898325  1
  Cr  Cr47  1  0.83100495  0.15864660  0.82949534  1
  Cr  Cr48  1  0.83076214  0.50010830  0.49437820  1
  Cr  Cr49  1  0.66456506  0.32911636  0.66495986  1
  Cr  Cr50  1  0.82896968  0.50051200  0.83221933  1
  Ni  Ni51  1  0.83254098  0.82882302  0.49624631  1
  Cr  Cr52  1  0.66237611  0.66512455  0.66085814  1
  Cr  Cr53  1  0.83266423  0.82812922  0.82938443  1
" 