8594,Ni22Cr78_13,-231.577913299569, 153.431193944739,Ni22Cr78,"# generated using pymatgen
 data_Cr11Ni43
_symmetry_space_group_name_H-M   'P 1'
_cell_length_a   7.47835020
_cell_length_b   7.47835020
_cell_length_c   10.57598427
_cell_angle_alpha   90.00000000
_cell_angle_beta   90.00000000
_cell_angle_gamma   90.00000000
_symmetry_Int_Tables_number   1
_chemical_formula_structural   Cr11Ni43
_chemical_formula_sum   'Cr11 Ni43'
_cell_volume   591.46955307
_cell_formula_units_Z   1
loop_
 _symmetry_equiv_pos_site_id
 _symmetry_equiv_pos_as_xyz
  1  'x, y, z'
loop_
 _atom_site_type_symbol
 _atom_site_label
 _atom_site_symmetry_multiplicity
 _atom_site_fract_x
 _atom_site_fract_y
 _atom_site_fract_z
 _atom_site_occupancy
  Ni  Ni0  1  0.99795365  0.99817956  0.00045038  1
  Ni  Ni1  1  0.16543257  0.16610619  0.16603624  1
  Ni  Ni2  1  0.00227335  0.99720315  0.33235606  1
  Ni  Ni3  1  -0.00064862  0.33546567  -0.00070603  1
  Ni  Ni4  1  0.16402442  0.49968903  0.16531187  1
  Ni  Ni5  1  0.00012115  0.33555101  0.33296245  1
  Ni  Ni6  1  0.99690528  0.66394175  -0.00006859  1
  Ni  Ni7  1  0.16430621  0.83195656  0.16796821  1
  Ni  Ni8  1  -0.00050971  0.66490312  0.33271737  1
  Cr  Cr9  1  0.33363388  -0.00012445  0.00149451  1
  Ni  Ni10  1  0.49792367  0.16823170  0.16595214  1
  Ni  Ni11  1  0.33098165  0.99826544  0.33284394  1
  Ni  Ni12  1  0.33303945  0.33390092  0.00001646  1
  Ni  Ni13  1  0.50142037  0.49981791  0.16585708  1
  Cr  Cr14  1  0.33195623  0.33494757  0.33173128  1
  Cr  Cr15  1  0.33317069  0.66187229  0.00095453  1
  Ni  Ni16  1  0.49921112  0.82990266  0.16801515  1
  Ni  Ni17  1  0.33215305  0.66671485  0.33247320  1
  Cr  Cr18  1  0.66646699  0.99727507  0.99680554  1
  Cr  Cr19  1  0.83366753  0.16915496  0.16636585  1
  Cr  Cr20  1  0.66407572  0.99730547  0.33333051  1
  Ni  Ni21  1  0.66501547  0.33530011  0.99854979  1
  Ni  Ni22  1  0.83215561  0.50112474  0.16644098  1
  Ni  Ni23  1  0.66523704  0.33682635  0.33277507  1
  Ni  Ni24  1  0.66764390  0.66369958  -0.00069716  1
  Ni  Ni25  1  0.83420339  0.82896909  0.16576759  1
  Ni  Ni26  1  0.66614995  0.66400245  0.33243355  1
  Ni  Ni27  1  0.16746910  0.16611777  0.49895666  1
  Cr  Cr28  1  0.99812444  0.99796777  0.66479266  1
  Cr  Cr29  1  0.16597985  0.16837336  0.83266815  1
  Ni  Ni30  1  0.16537893  0.50068119  0.50074123  1
  Ni  Ni31  1  -0.00061965  0.33667237  0.66560249  1
  Ni  Ni32  1  0.16529439  0.49842694  0.83170888  1
  Ni  Ni33  1  0.16726070  0.83104062  0.49827721  1
  Ni  Ni34  1  0.99832754  0.66245783  0.66517047  1
  Cr  Cr35  1  0.16632316  0.82876497  0.83152244  1
  Ni  Ni36  1  0.49664317  0.16752808  0.50026989  1
  Ni  Ni37  1  0.33458826  -0.00062669  0.66341005  1
  Ni  Ni38  1  0.49988323  0.16942102  0.83141146  1
  Ni  Ni39  1  0.50028920  0.50074020  0.49993633  1
  Ni  Ni40  1  0.33309236  0.33453849  0.66548312  1
  Ni  Ni41  1  0.50036687  0.49881108  0.83188301  1
  Ni  Ni42  1  0.49732264  0.82981592  0.49950299  1
  Ni  Ni43  1  0.33325073  0.66369108  0.66473797  1
  Ni  Ni44  1  0.50064030  0.82947626  0.83028863  1
  Cr  Cr45  1  0.83298048  0.17081621  0.49746034  1
  Cr  Cr46  1  0.66518517  0.99820965  0.66758332  1
  Ni  Ni47  1  0.83198640  0.16967698  0.83383430  1
  Ni  Ni48  1  0.83207401  0.50145033  0.49883421  1
  Ni  Ni49  1  0.66516546  0.33549332  0.66645641  1
  Ni  Ni50  1  0.83200390  0.49926218  0.83253535  1
  Ni  Ni51  1  0.83351569  0.82773488  0.49809798  1
  Ni  Ni52  1  0.66635102  0.66393333  0.66598890  1
  Ni  Ni53  1  0.83235154  0.82853496  0.83390046  1
" 