3126,Ni22Fe78_6,-242.949935678785, 208.985701801817,Ni22Fe78,"# generated using pymatgen
 data_Fe11Ni43
_symmetry_space_group_name_H-M   'P 1'
_cell_length_a   7.42171615
_cell_length_b   7.42171615
_cell_length_c   10.49589163
_cell_angle_alpha   90.00000000
_cell_angle_beta   90.00000000
_cell_angle_gamma   90.00000000
_symmetry_Int_Tables_number   1
_chemical_formula_structural   Fe11Ni43
_chemical_formula_sum   'Fe11 Ni43'
_cell_volume   578.13334473
_cell_formula_units_Z   1
loop_
 _symmetry_equiv_pos_site_id
 _symmetry_equiv_pos_as_xyz
  1  'x, y, z'
loop_
 _atom_site_type_symbol
 _atom_site_label
 _atom_site_symmetry_multiplicity
 _atom_site_fract_x
 _atom_site_fract_y
 _atom_site_fract_z
 _atom_site_occupancy
  Fe  Fe0  1  1.00291110  0.00369087  1.00283459  1
  Ni  Ni1  1  0.16918545  0.17118165  0.16921164  1
  Ni  Ni2  1  0.00345149  1.00288252  0.33539455  1
  Ni  Ni3  1  1.00217693  0.33742380  0.00308290  1
  Ni  Ni4  1  0.17020563  0.50199179  0.17019164  1
  Ni  Ni5  1  1.00217561  0.33592829  0.33649412  1
  Ni  Ni6  1  0.00348382  0.66928922  1.00293830  1
  Fe  Fe7  1  0.17000067  0.83610668  0.16999822  1
  Ni  Ni8  1  1.00248520  0.67035235  0.33688235  1
  Ni  Ni9  1  0.33716937  1.00241333  1.00251483  1
  Ni  Ni10  1  0.50270459  0.17021890  0.16957668  1
  Ni  Ni11  1  0.33556828  1.00289007  0.33678852  1
  Ni  Ni12  1  0.33652155  0.33653859  0.00333555  1
  Ni  Ni13  1  0.50199255  0.50326090  0.16946149  1
  Ni  Ni14  1  0.33687835  0.33595543  0.33592781  1
  Ni  Ni15  1  0.33524501  0.67020551  0.00323153  1
  Ni  Ni16  1  0.50362032  0.83568071  0.16986094  1
  Ni  Ni17  1  0.33656323  0.67031711  0.33631718  1
  Ni  Ni18  1  0.66954489  0.00372713  0.00319580  1
  Ni  Ni19  1  0.83727213  0.16955296  0.17021458  1
  Fe  Fe20  1  0.66986191  1.00290830  0.33624421  1
  Ni  Ni21  1  0.67046408  0.33550260  0.00306171  1
  Ni  Ni22  1  0.83696132  0.50290773  0.16918748  1
  Ni  Ni23  1  0.67010644  0.33692071  0.33619697  1
  Fe  Fe24  1  0.66887486  0.66958698  0.00333042  1
  Ni  Ni25  1  0.83600300  0.83670231  0.16953759  1
  Ni  Ni26  1  0.67011262  0.66904095  0.33567620  1
  Ni  Ni27  1  0.16900644  0.16978062  0.50376674  1
  Ni  Ni28  1  1.00281064  1.00259003  0.67050323  1
  Fe  Fe29  1  0.17020821  0.16916123  0.83631591  1
  Fe  Fe30  1  0.17076794  0.50305360  0.50256865  1
  Fe  Fe31  1  1.00305198  0.33512334  0.66986950  1
  Ni  Ni32  1  0.17138550  0.50316184  0.83592379  1
  Ni  Ni33  1  0.16936106  0.83661284  0.50291697  1
  Fe  Fe34  1  0.00333632  0.67119004  0.67022057  1
  Ni  Ni35  1  0.16972159  0.83545708  0.83670576  1
  Ni  Ni36  1  0.50301904  0.17081563  0.50356226  1
  Ni  Ni37  1  0.33567814  1.00254721  0.66986195  1
  Fe  Fe38  1  0.50313328  0.16915674  0.83645568  1
  Ni  Ni39  1  0.50234940  0.50313187  0.50284461  1
  Ni  Ni40  1  0.33703229  0.33660408  0.66989895  1
  Ni  Ni41  1  0.50135160  0.50348055  0.83685744  1
  Ni  Ni42  1  0.50302530  0.83521395  0.50366857  1
  Ni  Ni43  1  0.33666951  0.67000704  0.66961306  1
  Ni  Ni44  1  0.50302371  0.83514522  0.83563108  1
  Ni  Ni45  1  0.83713727  0.16910749  0.50248953  1
  Ni  Ni46  1  0.67067441  1.00295179  0.66886116  1
  Ni  Ni47  1  0.83673792  0.16886977  0.83645446  1
  Fe  Fe48  1  0.83518878  0.50305645  0.50186598  1
  Ni  Ni49  1  0.66965081  0.33652964  0.66990191  1
  Fe  Fe50  1  0.83625120  0.50389824  0.83722796  1
  Ni  Ni51  1  0.83677614  0.83727930  0.50355383  1
  Ni  Ni52  1  0.66961030  0.66968150  0.67061654  1
  Ni  Ni53  1  0.83641544  0.83813014  0.83607076  1
" 