3978,Ni22Fe34Cr43_6,-221.806610821376, 177.391198800138,Ni22Fe34Cr43,"# generated using pymatgen
 data_Cr4Fe3Ni2
_symmetry_space_group_name_H-M   'P 1'
_cell_length_a   7.49830875
_cell_length_b   7.49830875
_cell_length_c   10.60420993
_cell_angle_alpha   90.00000000
_cell_angle_beta   90.00000000
_cell_angle_gamma   90.00000000
_symmetry_Int_Tables_number   1
_chemical_formula_structural   Cr4Fe3Ni2
_chemical_formula_sum   'Cr24 Fe18 Ni12'
_cell_volume   596.21782338
_cell_formula_units_Z   6
loop_
 _symmetry_equiv_pos_site_id
 _symmetry_equiv_pos_as_xyz
  1  'x, y, z'
loop_
 _atom_site_type_symbol
 _atom_site_label
 _atom_site_symmetry_multiplicity
 _atom_site_fract_x
 _atom_site_fract_y
 _atom_site_fract_z
 _atom_site_occupancy
  Ni  Ni0  1  -0.00188162  -0.00000908  -0.00190754  1
  Fe  Fe1  1  0.16577077  0.16808623  0.16266326  1
  Cr  Cr2  1  -0.00057101  0.99764887  0.32881769  1
  Cr  Cr3  1  0.00066461  0.33235196  0.99588410  1
  Ni  Ni4  1  0.16595612  0.49503083  0.16667866  1
  Cr  Cr5  1  -0.00048529  0.33546121  0.33186304  1
  Cr  Cr6  1  0.99737392  0.66273356  -0.00164087  1
  Cr  Cr7  1  0.16281671  0.83030026  0.16623532  1
  Fe  Fe8  1  -0.00190647  0.66136130  0.33111367  1
  Cr  Cr9  1  0.32925385  0.00208819  0.99570362  1
  Fe  Fe10  1  0.49659654  0.16810417  0.16314793  1
  Cr  Cr11  1  0.33145450  0.00094983  0.33267452  1
  Fe  Fe12  1  0.32985327  0.33016227  0.99598542  1
  Cr  Cr13  1  0.49587848  0.49460936  0.16319834  1
  Fe  Fe14  1  0.33093794  0.33295830  0.33255905  1
  Cr  Cr15  1  0.32904812  0.66228115  0.99569167  1
  Cr  Cr16  1  0.49790446  0.82973118  0.16306260  1
  Fe  Fe17  1  0.32813998  0.66075106  0.33336025  1
  Cr  Cr18  1  0.66472245  0.99738377  0.99658150  1
  Cr  Cr19  1  0.83174935  0.16479540  0.16327738  1
  Cr  Cr20  1  0.66267313  -0.00146429  0.33038703  1
  Ni  Ni21  1  0.66470386  0.33040791  0.99676033  1
  Ni  Ni22  1  0.83239954  0.49753950  0.16363670  1
  Cr  Cr23  1  0.66348584  0.33298788  0.33403453  1
  Cr  Cr24  1  0.66747735  0.66314566  0.99674893  1
  Ni  Ni25  1  0.83352199  0.83052131  0.16376105  1
  Cr  Cr26  1  0.66689820  0.66190969  0.32924016  1
  Cr  Cr27  1  0.16515379  0.16583263  0.50009922  1
  Cr  Cr28  1  -0.00186754  -0.00085005  0.66640491  1
  Ni  Ni29  1  0.16422031  0.16711219  0.83122298  1
  Fe  Fe30  1  0.16447307  0.50031957  0.50010667  1
  Fe  Fe31  1  -0.00041759  0.33527763  0.66671017  1
  Ni  Ni32  1  0.16542062  0.49442882  0.82670227  1
  Fe  Fe33  1  0.16344586  0.82633536  0.49957203  1
  Ni  Ni34  1  0.00015146  0.66000624  0.66294225  1
  Cr  Cr35  1  0.16484722  0.83016359  0.82778116  1
  Fe  Fe36  1  0.49812170  0.16744766  0.50207673  1
  Fe  Fe37  1  0.33292334  -0.00103370  0.66636794  1
  Fe  Fe38  1  0.49608809  0.16666959  0.82876070  1
  Fe  Fe39  1  0.49624194  0.49550913  0.50041565  1
  Ni  Ni40  1  0.33049963  0.33125178  0.66442371  1
  Cr  Cr41  1  0.49676327  0.49675677  0.83193113  1
  Cr  Cr42  1  0.49444982  0.82969092  0.50120330  1
  Ni  Ni43  1  0.32851614  0.66063614  0.66265746  1
  Fe  Fe44  1  0.49628393  0.83314771  0.82756910  1
  Cr  Cr45  1  0.83037181  0.16713984  0.50192145  1
  Ni  Ni46  1  0.66170207  0.00114736  0.66749954  1
  Fe  Fe47  1  0.83170842  0.16615329  0.83106253  1
  Ni  Ni48  1  0.83241508  0.49763446  0.50109915  1
  Fe  Fe49  1  0.66355511  0.33183434  0.66560601  1
  Fe  Fe50  1  0.83505699  0.49514585  0.82942763  1
  Cr  Cr51  1  0.83327983  0.83091524  0.49648792  1
  Cr  Cr52  1  0.66612973  0.66437362  0.66740901  1
  Fe  Fe53  1  0.83346381  0.83256108  0.83045557  1
" 