7478,Ni22Fe68Cr8_12,-231.453414525418, 190.889458476473,Ni22Fe68Cr8,"# generated using pymatgen
 data_Cr5Fe37Ni12
_symmetry_space_group_name_H-M   'P 1'
_cell_length_a   7.41819556
_cell_length_b   7.41819556
_cell_length_c   10.49091277
_cell_angle_alpha   90.00000000
_cell_angle_beta   90.00000000
_cell_angle_gamma   90.00000000
_symmetry_Int_Tables_number   1
_chemical_formula_structural   Cr5Fe37Ni12
_chemical_formula_sum   'Cr5 Fe37 Ni12'
_cell_volume   577.31099909
_cell_formula_units_Z   1
loop_
 _symmetry_equiv_pos_site_id
 _symmetry_equiv_pos_as_xyz
  1  'x, y, z'
loop_
 _atom_site_type_symbol
 _atom_site_label
 _atom_site_symmetry_multiplicity
 _atom_site_fract_x
 _atom_site_fract_y
 _atom_site_fract_z
 _atom_site_occupancy
  Fe  Fe0  1  1.00313832  0.00496597  1.00300505  1
  Fe  Fe1  1  0.16962395  0.17087840  0.16996868  1
  Fe  Fe2  1  1.00320428  0.00399734  0.33671127  1
  Fe  Fe3  1  1.00307344  0.33491451  0.00331065  1
  Fe  Fe4  1  0.17018606  0.50267163  0.17131292  1
  Ni  Ni5  1  0.00348838  0.33499512  0.33535252  1
  Cr  Cr6  1  1.00228512  0.66946372  1.00273271  1
  Fe  Fe7  1  0.17017788  0.83632414  0.17073455  1
  Fe  Fe8  1  0.00408380  0.66989982  0.33508419  1
  Fe  Fe9  1  0.33639489  1.00310952  1.00275231  1
  Fe  Fe10  1  0.50394871  0.17058887  0.17036767  1
  Fe  Fe11  1  0.33549384  0.00333775  0.33586805  1
  Fe  Fe12  1  0.33570932  0.33602772  0.00452176  1
  Ni  Ni13  1  0.50208889  0.50271909  0.16997837  1
  Ni  Ni14  1  0.33557486  0.33588828  0.33514683  1
  Fe  Fe15  1  0.33781767  0.67074285  0.00352548  1
  Fe  Fe16  1  0.50353623  0.83648196  0.16863071  1
  Fe  Fe17  1  0.33583921  0.66934274  0.33641311  1
  Fe  Fe18  1  0.67034651  1.00285709  1.00306454  1
  Fe  Fe19  1  0.83630427  0.17057397  0.17020529  1
  Fe  Fe20  1  0.67118432  0.00498183  0.33590094  1
  Fe  Fe21  1  0.67109099  0.33634370  0.00425648  1
  Ni  Ni22  1  0.83619934  0.50234726  0.17044733  1
  Fe  Fe23  1  0.67061813  0.33631824  0.33592866  1
  Fe  Fe24  1  0.66922699  0.67067930  0.00431867  1
  Ni  Ni25  1  0.83724948  0.83824438  0.16976647  1
  Cr  Cr26  1  0.66996162  0.66972091  0.33689782  1
  Fe  Fe27  1  0.16852427  0.16941812  0.50318122  1
  Fe  Fe28  1  1.00309234  1.00305573  0.67015763  1
  Ni  Ni29  1  0.16835016  0.16971264  0.83570485  1
  Cr  Cr30  1  0.17159631  0.50383287  0.50291374  1
  Fe  Fe31  1  1.00228138  0.33610518  0.67059598  1
  Fe  Fe32  1  0.16940240  0.50227757  0.83548648  1
  Fe  Fe33  1  0.17036916  0.83801627  0.50348720  1
  Fe  Fe34  1  1.00260574  0.67071645  0.67087187  1
  Fe  Fe35  1  0.17114666  0.83787706  0.83565449  1
  Cr  Cr36  1  0.50412535  0.17138162  0.50422916  1
  Fe  Fe37  1  0.33629404  1.00149449  0.67125769  1
  Fe  Fe38  1  0.50323545  0.16795461  0.83662240  1
  Ni  Ni39  1  0.50298296  0.50441998  0.50372086  1
  Fe  Fe40  1  0.33634985  0.33692257  0.67023878  1
  Cr  Cr41  1  0.50272824  0.50498099  0.83606153  1
  Fe  Fe42  1  0.50283871  0.83532869  0.50512369  1
  Ni  Ni43  1  0.33793438  0.67163952  0.66986214  1
  Ni  Ni44  1  0.50308402  0.83678250  0.83671080  1
  Ni  Ni45  1  0.83804700  0.16893866  0.50218233  1
  Fe  Fe46  1  0.67049627  1.00181129  0.67091322  1
  Ni  Ni47  1  0.83844611  0.16918708  0.83731596  1
  Fe  Fe48  1  0.83531825  0.50192450  0.50364551  1
  Fe  Fe49  1  0.67125171  0.33741584  0.66969674  1
  Fe  Fe50  1  0.83726198  0.50227418  0.83616745  1
  Fe  Fe51  1  0.83667446  0.83717386  0.50371984  1
  Ni  Ni52  1  0.67003062  0.67084323  0.66988368  1
  Fe  Fe53  1  0.83549249  0.83790514  0.83619853  1
" 