5326,Ni22Fe21Cr56_17,-216.871248341637, 166.041619216022,Ni22Fe21Cr56,"# generated using pymatgen
 data_Cr31Fe11Ni12
_symmetry_space_group_name_H-M   'P 1'
_cell_length_a   7.53123894
_cell_length_b   7.53123894
_cell_length_c   10.65078025
_cell_angle_alpha   90.00000000
_cell_angle_beta   90.00000000
_cell_angle_gamma   90.00000000
_symmetry_Int_Tables_number   1
_chemical_formula_structural   Cr31Fe11Ni12
_chemical_formula_sum   'Cr31 Fe11 Ni12'
_cell_volume   604.10756840
_cell_formula_units_Z   1
loop_
 _symmetry_equiv_pos_site_id
 _symmetry_equiv_pos_as_xyz
  1  'x, y, z'
loop_
 _atom_site_type_symbol
 _atom_site_label
 _atom_site_symmetry_multiplicity
 _atom_site_fract_x
 _atom_site_fract_y
 _atom_site_fract_z
 _atom_site_occupancy
  Fe  Fe0  1  0.99341024  -0.00284823  -0.00206483  1
  Fe  Fe1  1  0.16214667  0.16400080  0.16246625  1
  Ni  Ni2  1  0.99481191  0.99455020  0.32742245  1
  Ni  Ni3  1  -0.00213177  0.32638335  -0.00411773  1
  Cr  Cr4  1  0.16328504  0.49714437  0.16131208  1
  Cr  Cr5  1  0.99423187  0.33223314  0.33218250  1
  Cr  Cr6  1  0.99329460  0.65778479  0.99437810  1
  Cr  Cr7  1  0.15705687  0.83024999  0.16279951  1
  Cr  Cr8  1  0.99508238  0.66141835  0.33378036  1
  Cr  Cr9  1  0.32970993  -0.00323264  0.99500669  1
  Ni  Ni10  1  0.49909131  0.16134455  0.16312639  1
  Cr  Cr11  1  0.32825443  0.99400092  0.33041087  1
  Fe  Fe12  1  0.33022795  0.32794440  -0.00242203  1
  Cr  Cr13  1  0.49648903  0.49312897  0.16387639  1
  Cr  Cr14  1  0.32843261  0.32951626  0.33020460  1
  Cr  Cr15  1  0.33051999  0.66558697  -0.00346796  1
  Fe  Fe16  1  0.49542601  0.82917244  0.16298175  1
  Cr  Cr17  1  0.32800000  0.66320743  0.33224889  1
  Cr  Cr18  1  0.65976082  0.99551798  0.99358920  1
  Fe  Fe19  1  0.83044812  0.16271377  0.16392387  1
  Cr  Cr20  1  0.66132318  0.99435489  0.32970722  1
  Cr  Cr21  1  0.66695182  0.32910335  0.99463422  1
  Cr  Cr22  1  0.82857652  0.49610277  0.16268978  1
  Ni  Ni23  1  0.66283807  0.32906313  0.32988500  1
  Cr  Cr24  1  0.66240775  0.66351065  0.99422568  1
  Fe  Fe25  1  0.82698928  0.83108837  0.16279885  1
  Cr  Cr26  1  0.66344543  0.66119005  0.33031239  1
  Cr  Cr27  1  0.16074794  0.16163143  0.49624286  1
  Cr  Cr28  1  -0.00331858  -0.00423683  0.66067269  1
  Cr  Cr29  1  0.16174563  0.16462357  0.82895022  1
  Ni  Ni30  1  0.16303410  0.50037479  0.49911949  1
  Ni  Ni31  1  -0.00137632  0.33542741  0.66107818  1
  Cr  Cr32  1  0.16377088  0.49572486  0.82887971  1
  Ni  Ni33  1  0.15867569  0.82654264  0.49700007  1
  Ni  Ni34  1  0.99464707  0.65806906  0.65967503  1
  Cr  Cr35  1  0.16106496  0.82683984  0.82761137  1
  Cr  Cr36  1  0.49746937  0.16653802  0.49706103  1
  Cr  Cr37  1  0.32946368  0.99300962  0.66158126  1
  Cr  Cr38  1  0.49441945  0.16551738  0.82513893  1
  Ni  Ni39  1  0.49783616  0.49900307  0.49575211  1
  Fe  Fe40  1  0.32785530  0.33431872  0.65890143  1
  Cr  Cr41  1  0.49500529  0.49646204  0.82803078  1
  Fe  Fe42  1  0.49525834  0.82490987  0.49836954  1
  Fe  Fe43  1  0.32920897  0.66145727  0.65957042  1
  Ni  Ni44  1  0.49610121  0.82550757  0.82666790  1
  Cr  Cr45  1  0.82867178  0.16096756  0.49421408  1
  Cr  Cr46  1  0.66032884  0.99131054  0.66316988  1
  Cr  Cr47  1  0.83159658  0.16321385  0.82726499  1
  Ni  Ni48  1  0.82705207  0.49785833  0.49867411  1
  Cr  Cr49  1  0.66699455  0.33167716  0.66107277  1
  Fe  Fe50  1  0.83111676  0.49608123  0.82591037  1
  Fe  Fe51  1  0.82968863  0.82589525  0.49767705  1
  Ni  Ni52  1  0.66213473  0.65984643  0.66235297  1
  Cr  Cr53  1  0.83059662  0.82706810  0.82734002  1
" 