2647,Ni22Cr78_7,-231.413054781957, 151.496736749211,Ni22Cr78,"# generated using pymatgen
 data_Cr11Ni43
_symmetry_space_group_name_H-M   'P 1'
_cell_length_a   7.47621062
_cell_length_b   7.47621062
_cell_length_c   10.57295846
_cell_angle_alpha   90.00000000
_cell_angle_beta   90.00000000
_cell_angle_gamma   90.00000000
_symmetry_Int_Tables_number   1
_chemical_formula_structural   Cr11Ni43
_chemical_formula_sum   'Cr11 Ni43'
_cell_volume   590.96203573
_cell_formula_units_Z   1
loop_
 _symmetry_equiv_pos_site_id
 _symmetry_equiv_pos_as_xyz
  1  'x, y, z'
loop_
 _atom_site_type_symbol
 _atom_site_label
 _atom_site_symmetry_multiplicity
 _atom_site_fract_x
 _atom_site_fract_y
 _atom_site_fract_z
 _atom_site_occupancy
  Ni  Ni0  1  0.99912208  0.99927792  0.00157504  1
  Ni  Ni1  1  0.16724535  0.16345940  0.16470706  1
  Ni  Ni2  1  -0.00013497  0.99650143  0.33139328  1
  Ni  Ni3  1  0.99911566  0.33062033  0.99921486  1
  Cr  Cr4  1  0.16801992  0.50041944  0.16626542  1
  Cr  Cr5  1  0.99723339  0.33050721  0.33347454  1
  Ni  Ni6  1  0.99751117  0.66806668  0.99893639  1
  Ni  Ni7  1  0.16629949  0.83446452  0.16658115  1
  Ni  Ni8  1  0.99918434  0.66936538  0.33526593  1
  Ni  Ni9  1  0.33328917  0.00103828  0.00120752  1
  Ni  Ni10  1  0.49873688  0.16670066  0.16533458  1
  Ni  Ni11  1  0.33268299  0.99828767  0.33164294  1
  Ni  Ni12  1  0.33492102  0.33082561  0.99901078  1
  Ni  Ni13  1  0.49952585  0.49931976  0.16618231  1
  Ni  Ni14  1  0.33596578  0.33270181  0.33296060  1
  Ni  Ni15  1  0.33498385  0.66632452  0.00160332  1
  Ni  Ni16  1  0.49872719  0.83207889  0.16523021  1
  Ni  Ni17  1  0.33419768  0.66732465  0.33339925  1
  Ni  Ni18  1  0.66589555  0.99920562  0.00126150  1
  Ni  Ni19  1  0.83214428  0.16438877  0.16468926  1
  Cr  Cr20  1  0.66625210  -0.00054436  0.33152188  1
  Ni  Ni21  1  0.66415316  0.33223609  -0.00049571  1
  Cr  Cr22  1  0.82929197  0.50015411  0.16523854  1
  Ni  Ni23  1  0.66296360  0.33323066  0.33364475  1
  Ni  Ni24  1  0.66567725  0.66643786  0.99916167  1
  Ni  Ni25  1  0.83321842  0.83330429  0.16463405  1
  Ni  Ni26  1  0.66470677  0.66604345  0.33350806  1
  Cr  Cr27  1  0.16850224  0.16365418  0.49979728  1
  Ni  Ni28  1  0.99811997  0.99740841  0.66484913  1
  Ni  Ni29  1  0.16849911  0.16522979  0.83373634  1
  Ni  Ni30  1  0.16707737  0.50168421  0.49797840  1
  Cr  Cr31  1  0.99899290  0.33481438  0.66567495  1
  Cr  Cr32  1  0.16641200  0.49863251  0.83537373  1
  Ni  Ni33  1  0.16544069  0.83211147  0.49824907  1
  Ni  Ni34  1  0.99593554  0.66810285  0.66423869  1
  Cr  Cr35  1  0.16450183  0.83588541  0.83307575  1
  Ni  Ni36  1  0.50062935  0.16668974  0.50064051  1
  Ni  Ni37  1  0.33420461  0.00145490  0.66524086  1
  Ni  Ni38  1  0.49809617  0.16761481  0.83194159  1
  Ni  Ni39  1  0.50073810  0.49863834  0.49796157  1
  Ni  Ni40  1  0.33644512  0.33119645  0.66658038  1
  Ni  Ni41  1  0.50248469  0.49710642  0.83421945  1
  Ni  Ni42  1  0.49967910  0.83296186  0.49931352  1
  Cr  Cr43  1  0.33404722  0.66471207  0.66385529  1
  Cr  Cr44  1  0.50267304  0.83479370  0.83330493  1
  Ni  Ni45  1  0.82993362  0.16505454  0.49979212  1
  Ni  Ni46  1  0.66584471  0.99911436  0.66425115  1
  Cr  Cr47  1  0.83062694  0.16368018  0.83301500  1
  Ni  Ni48  1  0.83019938  0.50136907  0.49930705  1
  Ni  Ni49  1  0.66366186  0.33347370  0.66484066  1
  Ni  Ni50  1  0.82973738  0.50133879  0.83365893  1
  Ni  Ni51  1  0.83285674  0.83206970  0.50070265  1
  Ni  Ni52  1  0.66811307  0.66546373  0.66555661  1
  Ni  Ni53  1  0.83252551  0.83091198  0.83260338  1
" 