2841,Ni22Fe40Cr36_16,-223.610857781475, 182.682989298716,Ni22Fe40Cr36,"# generated using pymatgen
 data_Cr7Fe7Ni4
_symmetry_space_group_name_H-M   'P 1'
_cell_length_a   7.48266194
_cell_length_b   7.48266194
_cell_length_c   10.58208200
_cell_angle_alpha   90.00000000
_cell_angle_beta   90.00000000
_cell_angle_gamma   90.00000000
_symmetry_Int_Tables_number   1
_chemical_formula_structural   Cr7Fe7Ni4
_chemical_formula_sum   'Cr21 Fe21 Ni12'
_cell_volume   592.49320146
_cell_formula_units_Z   3
loop_
 _symmetry_equiv_pos_site_id
 _symmetry_equiv_pos_as_xyz
  1  'x, y, z'
loop_
 _atom_site_type_symbol
 _atom_site_label
 _atom_site_symmetry_multiplicity
 _atom_site_fract_x
 _atom_site_fract_y
 _atom_site_fract_z
 _atom_site_occupancy
  Cr  Cr0  1  0.99815317  0.00003351  0.00118789  1
  Ni  Ni1  1  0.16390548  0.16738525  0.16911300  1
  Cr  Cr2  1  -0.00036810  -0.00053194  0.33034085  1
  Fe  Fe3  1  -0.00069873  0.33231580  0.99808879  1
  Cr  Cr4  1  0.16727511  0.49716366  0.16734343  1
  Fe  Fe5  1  0.99794659  0.33111203  0.33325611  1
  Cr  Cr6  1  0.99892505  0.66643515  0.99815641  1
  Cr  Cr7  1  0.17024107  0.83084941  0.16559862  1
  Cr  Cr8  1  0.99674409  0.66856645  0.33404558  1
  Cr  Cr9  1  0.32964092  0.00101919  0.99871754  1
  Cr  Cr10  1  0.49860211  0.16540635  0.16653651  1
  Fe  Fe11  1  0.33308116  0.99863742  0.33497832  1
  Cr  Cr12  1  0.33464650  0.33328568  0.99820721  1
  Ni  Ni13  1  0.49868472  0.50106348  0.16416852  1
  Fe  Fe14  1  0.33292597  0.33164269  0.33391994  1
  Ni  Ni15  1  0.33354577  0.66267759  0.99539574  1
  Cr  Cr16  1  0.49933723  0.82944572  0.16459303  1
  Ni  Ni17  1  0.33356091  0.66379865  0.33447179  1
  Fe  Fe18  1  0.66531449  0.00031276  -0.00071060  1
  Ni  Ni19  1  0.83325562  0.16719808  0.16217631  1
  Cr  Cr20  1  0.66781002  -0.00093318  0.33373445  1
  Fe  Fe21  1  0.66689188  0.33322147  0.99710293  1
  Cr  Cr22  1  0.83166031  0.49712906  0.16587432  1
  Cr  Cr23  1  0.66249954  0.33306252  0.33499692  1
  Fe  Fe24  1  0.66420992  0.66257089  0.99773654  1
  Fe  Fe25  1  0.83051482  0.83329597  0.16420676  1
  Cr  Cr26  1  0.66533564  0.66450081  0.33421832  1
  Ni  Ni27  1  0.16692093  0.16360331  0.49707700  1
  Fe  Fe28  1  0.00020717  0.99871180  0.66462473  1
  Cr  Cr29  1  0.16418610  0.16624406  0.83071680  1
  Cr  Cr30  1  0.16400740  0.49716657  0.49849565  1
  Fe  Fe31  1  0.99862294  0.33341569  0.66612267  1
  Fe  Fe32  1  0.16494304  0.50125757  0.83105564  1
  Fe  Fe33  1  0.16798055  0.83274888  0.49998703  1
  Fe  Fe34  1  0.00001798  0.66456331  0.66602328  1
  Fe  Fe35  1  0.16528311  0.83040994  0.82997444  1
  Ni  Ni36  1  0.49713779  0.16396586  0.50146498  1
  Ni  Ni37  1  0.32952498  0.99885276  0.66374639  1
  Fe  Fe38  1  0.50281134  0.16566470  0.83026269  1
  Ni  Ni39  1  0.49849884  0.49930478  0.49904412  1
  Cr  Cr40  1  0.33639723  0.33205086  0.66549083  1
  Fe  Fe41  1  0.50225871  0.49898161  0.83202850  1
  Fe  Fe42  1  0.49573604  0.83272325  0.49964507  1
  Fe  Fe43  1  0.33265397  0.66588302  0.66500422  1
  Cr  Cr44  1  0.49697293  0.83361894  0.83234127  1
  Cr  Cr45  1  0.83311452  0.16850561  0.50315528  1
  Fe  Fe46  1  0.66196216  0.00052108  0.66494562  1
  Fe  Fe47  1  0.82975820  0.16761573  0.83189964  1
  Ni  Ni48  1  0.83253608  0.49919195  0.50089136  1
  Ni  Ni49  1  0.66607848  0.33277970  0.66661060  1
  Ni  Ni50  1  0.83303836  0.49675114  0.83119092  1
  Fe  Fe51  1  0.83337495  0.83343307  0.50151975  1
  Cr  Cr52  1  0.66630187  0.66198076  0.66142636  1
  Cr  Cr53  1  0.82969120  0.83304771  0.83145808  1
" 