3589,Ni22Fe40Cr36_18,-223.534466738746, 177.745948498045,Ni22Fe40Cr36,"# generated using pymatgen
 data_Cr7Fe7Ni4
_symmetry_space_group_name_H-M   'P 1'
_cell_length_a   7.48988302
_cell_length_b   7.48988302
_cell_length_c   10.59229414
_cell_angle_alpha   90.00000000
_cell_angle_beta   90.00000000
_cell_angle_gamma   90.00000000
_symmetry_Int_Tables_number   1
_chemical_formula_structural   Cr7Fe7Ni4
_chemical_formula_sum   'Cr21 Fe21 Ni12'
_cell_volume   594.21019875
_cell_formula_units_Z   3
loop_
 _symmetry_equiv_pos_site_id
 _symmetry_equiv_pos_as_xyz
  1  'x, y, z'
loop_
 _atom_site_type_symbol
 _atom_site_label
 _atom_site_symmetry_multiplicity
 _atom_site_fract_x
 _atom_site_fract_y
 _atom_site_fract_z
 _atom_site_occupancy
  Ni  Ni0  1  0.99708263  0.99518396  0.99779952  1
  Cr  Cr1  1  0.16510846  0.16609013  0.16860083  1
  Cr  Cr2  1  0.99736393  -0.00094958  0.33253115  1
  Cr  Cr3  1  0.99821816  0.33230178  0.99801741  1
  Ni  Ni4  1  0.16440501  0.50171835  0.16595275  1
  Fe  Fe5  1  -0.00033030  0.33375279  0.33296673  1
  Fe  Fe6  1  -0.00001227  0.66644970  -0.00106011  1
  Ni  Ni7  1  0.16274261  0.82876372  0.16251168  1
  Cr  Cr8  1  0.99791487  0.66417046  0.33048366  1
  Cr  Cr9  1  0.33002485  0.99791468  -0.00110068  1
  Ni  Ni10  1  0.50054425  0.16373183  0.16420354  1
  Cr  Cr11  1  0.33198656  -0.00118895  0.33193921  1
  Cr  Cr12  1  0.33128418  0.33282344  0.99826814  1
  Cr  Cr13  1  0.49553956  0.49736973  0.16635336  1
  Ni  Ni14  1  0.32970305  0.33414131  0.33219898  1
  Fe  Fe15  1  0.32747658  0.66575601  -0.00078289  1
  Fe  Fe16  1  0.49684497  0.83214507  0.16421880  1
  Fe  Fe17  1  0.33054879  0.66313172  0.33160676  1
  Fe  Fe18  1  0.66830359  -0.00093771  0.00008927  1
  Fe  Fe19  1  0.83268527  0.16323382  0.16377142  1
  Cr  Cr20  1  0.66607202  0.99708539  0.32861259  1
  Cr  Cr21  1  0.66607415  0.33097675  0.00003000  1
  Fe  Fe22  1  0.83526293  0.49944389  0.16512486  1
  Cr  Cr23  1  0.66559174  0.33251299  0.32983383  1
  Cr  Cr24  1  0.66724174  0.66542619  -0.00076122  1
  Ni  Ni25  1  0.83364364  0.83321333  0.16221983  1
  Cr  Cr26  1  0.66527473  0.66560688  0.33479157  1
  Fe  Fe27  1  0.16437995  0.17068734  0.49894920  1
  Cr  Cr28  1  -0.00148619  0.00016061  0.66526837  1
  Fe  Fe29  1  0.16341265  0.16584943  0.83065463  1
  Ni  Ni30  1  0.16415508  0.49529251  0.49749054  1
  Fe  Fe31  1  0.99780013  0.33337187  0.66499283  1
  Fe  Fe32  1  0.16424844  0.49788029  0.83127680  1
  Cr  Cr33  1  0.16594762  0.83152528  0.49759079  1
  Cr  Cr34  1  0.99539248  0.66408659  0.66747435  1
  Fe  Fe35  1  0.16305326  0.83130763  0.83384856  1
  Cr  Cr36  1  0.49809541  0.16505975  0.50135642  1
  Fe  Fe37  1  0.33272770  -0.00074550  0.66516098  1
  Cr  Cr38  1  0.49954149  0.16462369  0.83032216  1
  Fe  Fe39  1  0.49707552  0.49820681  0.49945316  1
  Ni  Ni40  1  0.32929312  0.33087960  0.66469775  1
  Cr  Cr41  1  0.50022980  0.49769646  0.82878552  1
  Fe  Fe42  1  0.50076196  0.82968421  0.50093798  1
  Cr  Cr43  1  0.33265599  0.66273129  0.66416966  1
  Cr  Cr44  1  0.49929686  0.83314991  0.83067673  1
  Fe  Fe45  1  0.83321134  0.16740113  0.49996422  1
  Ni  Ni46  1  0.66709514  0.99696718  0.66487605  1
  Fe  Fe47  1  0.83207994  0.16448844  0.83123007  1
  Ni  Ni48  1  0.83259156  0.49710819  0.50004050  1
  Fe  Fe49  1  0.66770632  0.33347136  0.66451393  1
  Ni  Ni50  1  0.83424669  0.49882494  0.83047338  1
  Fe  Fe51  1  0.82936775  0.83076925  0.49990871  1
  Ni  Ni52  1  0.66695907  0.66523598  0.66248178  1
  Fe  Fe53  1  0.83124673  0.83209955  0.83266541  1
" 