7135,Ni22Cr78_0,-231.592570808993, 153.179871740154,Ni22Cr78,"# generated using pymatgen
 data_Cr11Ni43
_symmetry_space_group_name_H-M   'P 1'
_cell_length_a   7.47817523
_cell_length_b   7.47817523
_cell_length_c   10.57573683
_cell_angle_alpha   90.00000000
_cell_angle_beta   90.00000000
_cell_angle_gamma   90.00000000
_symmetry_Int_Tables_number   1
_chemical_formula_structural   Cr11Ni43
_chemical_formula_sum   'Cr11 Ni43'
_cell_volume   591.42803870
_cell_formula_units_Z   1
loop_
 _symmetry_equiv_pos_site_id
 _symmetry_equiv_pos_as_xyz
  1  'x, y, z'
loop_
 _atom_site_type_symbol
 _atom_site_label
 _atom_site_symmetry_multiplicity
 _atom_site_fract_x
 _atom_site_fract_y
 _atom_site_fract_z
 _atom_site_occupancy
  Cr  Cr0  1  0.99920422  0.00127689  0.99503245  1
  Ni  Ni1  1  0.16978226  0.16898967  0.16578161  1
  Cr  Cr2  1  0.00228981  0.99925328  0.33683401  1
  Ni  Ni3  1  0.00335282  0.33437750  0.99644445  1
  Ni  Ni4  1  0.16728088  0.49721880  0.16507879  1
  Ni  Ni5  1  0.00236028  0.33331688  0.33494247  1
  Ni  Ni6  1  0.00090532  0.66430410  0.99706808  1
  Cr  Cr7  1  0.16552696  0.83253068  0.16399710  1
  Ni  Ni8  1  -0.00004854  0.66419175  0.33484316  1
  Ni  Ni9  1  0.33418911  0.00084853  0.99811847  1
  Ni  Ni10  1  0.49593471  0.16598283  0.16592677  1
  Ni  Ni11  1  0.33312191  0.00211879  0.33399363  1
  Ni  Ni12  1  0.33060340  0.33259533  0.99879979  1
  Ni  Ni13  1  0.49579247  0.49701215  0.16580861  1
  Ni  Ni14  1  0.33120514  0.33069058  0.33202389  1
  Ni  Ni15  1  0.33162578  0.66454969  0.99759696  1
  Ni  Ni16  1  0.49710922  0.83479312  0.16354803  1
  Cr  Cr17  1  0.33144831  0.66619351  0.33407938  1
  Ni  Ni18  1  0.66303149  0.99856199  0.99787251  1
  Cr  Cr19  1  0.83379141  0.16651386  0.16511271  1
  Cr  Cr20  1  0.66410260  0.99902002  0.33273938  1
  Cr  Cr21  1  0.66321476  0.33141420  0.99553688  1
  Cr  Cr22  1  0.83642163  0.49873194  0.16750245  1
  Ni  Ni23  1  0.66450813  0.33147835  0.33416430  1
  Cr  Cr24  1  0.66405314  0.66672255  0.99795654  1
  Ni  Ni25  1  0.83225749  0.83170159  0.16438990  1
  Cr  Cr26  1  0.66583299  0.66611599  0.33305538  1
  Ni  Ni27  1  0.16756980  0.16715666  0.50059480  1
  Ni  Ni28  1  -0.00012378  -0.00018916  0.66594312  1
  Ni  Ni29  1  0.16759155  0.16663051  0.83162893  1
  Ni  Ni30  1  0.16378037  0.49827332  0.50039174  1
  Ni  Ni31  1  0.00027205  0.33214889  0.66637339  1
  Ni  Ni32  1  0.16621004  0.49945369  0.83259344  1
  Ni  Ni33  1  0.16654997  0.83256375  0.50221684  1
  Ni  Ni34  1  -0.00006307  0.66579469  0.66570563  1
  Ni  Ni35  1  0.16726609  0.83200196  0.83118049  1
  Ni  Ni36  1  0.49816769  0.16507739  0.50028142  1
  Ni  Ni37  1  0.33184023  -0.00003382  0.66540369  1
  Ni  Ni38  1  0.49778269  0.16467467  0.83105072  1
  Cr  Cr39  1  0.49903849  0.49661120  0.50322818  1
  Ni  Ni40  1  0.33104095  0.33161296  0.66728732  1
  Ni  Ni41  1  0.49675967  0.49906492  0.82988633  1
  Ni  Ni42  1  0.49800441  0.83546204  0.50306719  1
  Ni  Ni43  1  0.33127115  0.66634972  0.66731328  1
  Ni  Ni44  1  0.49764673  0.83381917  0.83136510  1
  Ni  Ni45  1  0.83244698  0.16790576  0.50167357  1
  Ni  Ni46  1  0.66609268  -0.00039933  0.66657456  1
  Ni  Ni47  1  0.83255583  0.16603004  0.83010800  1
  Ni  Ni48  1  0.83506434  0.49796476  0.50039396  1
  Ni  Ni49  1  0.66653481  0.33155168  0.66702168  1
  Ni  Ni50  1  0.83475695  0.49910640  0.82973549  1
  Ni  Ni51  1  0.83353707  0.83153996  0.50235565  1
  Ni  Ni52  1  0.66657429  0.66665517  0.66709857  1
  Ni  Ni53  1  0.83275796  0.83249209  0.83110288  1
" 