4135,Ni22Fe21Cr56_2,-217.101801225119, 169.548178554933,Ni22Fe21Cr56,"# generated using pymatgen
 data_Cr31Fe11Ni12
_symmetry_space_group_name_H-M   'P 1'
_cell_length_a   7.52940682
_cell_length_b   7.52940682
_cell_length_c   10.64818925
_cell_angle_alpha   90.00000000
_cell_angle_beta   90.00000000
_cell_angle_gamma   90.00000000
_symmetry_Int_Tables_number   1
_chemical_formula_structural   Cr31Fe11Ni12
_chemical_formula_sum   'Cr31 Fe11 Ni12'
_cell_volume   603.66679486
_cell_formula_units_Z   1
loop_
 _symmetry_equiv_pos_site_id
 _symmetry_equiv_pos_as_xyz
  1  'x, y, z'
loop_
 _atom_site_type_symbol
 _atom_site_label
 _atom_site_symmetry_multiplicity
 _atom_site_fract_x
 _atom_site_fract_y
 _atom_site_fract_z
 _atom_site_occupancy
  Ni  Ni0  1  0.99326692  -0.00386234  -0.00244233  1
  Ni  Ni1  1  0.16227900  0.16292992  0.15976927  1
  Cr  Cr2  1  -0.00304471  -0.00405554  0.32845273  1
  Cr  Cr3  1  -0.00328111  0.32876459  0.99543670  1
  Cr  Cr4  1  0.16564812  0.49463044  0.16156489  1
  Cr  Cr5  1  0.99404512  0.32874802  0.33007246  1
  Fe  Fe6  1  0.99523927  0.66413118  -0.00321882  1
  Cr  Cr7  1  0.15777670  0.82922957  0.16378105  1
  Ni  Ni8  1  -0.00373173  0.66327025  0.32967459  1
  Cr  Cr9  1  0.32950644  0.99583416  -0.00288446  1
  Cr  Cr10  1  0.49411703  0.16566065  0.15959374  1
  Cr  Cr11  1  0.32903722  0.99234258  0.33084222  1
  Ni  Ni12  1  0.32979345  0.33135943  0.99451959  1
  Ni  Ni13  1  0.49454050  0.49700816  0.16404115  1
  Cr  Cr14  1  0.32948710  0.32918595  0.32455382  1
  Cr  Cr15  1  0.32999502  0.66017322  0.99446413  1
  Cr  Cr16  1  0.50083701  0.82623617  0.16328573  1
  Ni  Ni17  1  0.32953779  0.66359033  0.33022202  1
  Ni  Ni18  1  0.66573594  0.99557287  0.99359780  1
  Cr  Cr19  1  0.83028326  0.15736340  0.16024857  1
  Cr  Cr20  1  0.66161385  -0.00392766  0.32977697  1
  Cr  Cr21  1  0.66120224  0.32943044  0.99435302  1
  Cr  Cr22  1  0.82720727  0.50154701  0.16542904  1
  Cr  Cr23  1  0.66387777  0.32978031  0.33050846  1
  Cr  Cr24  1  0.66072891  0.66242159  0.99530876  1
  Ni  Ni25  1  0.83016699  0.82877662  0.16081549  1
  Fe  Fe26  1  0.66174841  0.66389751  0.32878109  1
  Cr  Cr27  1  0.16486129  0.16261258  0.49723069  1
  Cr  Cr28  1  -0.00293914  -0.00331199  0.65981256  1
  Cr  Cr29  1  0.16389862  0.16330331  0.82984936  1
  Cr  Cr30  1  0.16341275  0.49636172  0.49617010  1
  Cr  Cr31  1  0.99236069  0.33049006  0.66239255  1
  Fe  Fe32  1  0.16385475  0.49411002  0.83016502  1
  Fe  Fe33  1  0.16581065  0.82710505  0.49503189  1
  Cr  Cr34  1  -0.00342909  0.65993301  0.66410655  1
  Cr  Cr35  1  0.16076148  0.83027676  0.82821312  1
  Fe  Fe36  1  0.49500245  0.16068248  0.49701053  1
  Ni  Ni37  1  0.33227624  0.99560146  0.66052459  1
  Fe  Fe38  1  0.49608413  0.16243529  0.83015206  1
  Cr  Cr39  1  0.49572266  0.49673750  0.49230440  1
  Fe  Fe40  1  0.33151231  0.32815159  0.66498109  1
  Ni  Ni41  1  0.49350363  0.49264017  0.82926518  1
  Ni  Ni42  1  0.49533281  0.82894916  0.49663955  1
  Cr  Cr43  1  0.33022039  0.66601606  0.66421532  1
  Fe  Fe44  1  0.49589262  0.83182918  0.82894157  1
  Fe  Fe45  1  0.82699258  0.16274158  0.49645359  1
  Cr  Cr46  1  0.65908637  -0.00256981  0.66343615  1
  Ni  Ni47  1  0.82824022  0.16143245  0.82995282  1
  Fe  Fe48  1  0.82897938  0.49791037  0.49411710  1
  Cr  Cr49  1  0.66428385  0.32890019  0.66280993  1
  Fe  Fe50  1  0.82875525  0.49442653  0.83027809  1
  Cr  Cr51  1  0.82843538  0.82713652  0.49343857  1
  Cr  Cr52  1  0.66104748  0.66105301  0.66414928  1
  Cr  Cr53  1  0.82881007  0.83139054  0.83419427  1
" 