1699,Ni22Fe34Cr43_19,-222.277651988572, 179.796864740861,Ni22Fe34Cr43,"# generated using pymatgen
 data_Cr4Fe3Ni2
_symmetry_space_group_name_H-M   'P 1'
_cell_length_a   7.49759301
_cell_length_b   7.49759301
_cell_length_c   10.60319772
_cell_angle_alpha   90.00000000
_cell_angle_beta   90.00000000
_cell_angle_gamma   90.00000000
_symmetry_Int_Tables_number   1
_chemical_formula_structural   Cr4Fe3Ni2
_chemical_formula_sum   'Cr24 Fe18 Ni12'
_cell_volume   596.04710595
_cell_formula_units_Z   6
loop_
 _symmetry_equiv_pos_site_id
 _symmetry_equiv_pos_as_xyz
  1  'x, y, z'
loop_
 _atom_site_type_symbol
 _atom_site_label
 _atom_site_symmetry_multiplicity
 _atom_site_fract_x
 _atom_site_fract_y
 _atom_site_fract_z
 _atom_site_occupancy
  Cr  Cr0  1  -0.00008746  0.99554303  0.99701757  1
  Ni  Ni1  1  0.16690276  0.16675696  0.16498976  1
  Cr  Cr2  1  0.00105814  0.99549054  0.33148742  1
  Cr  Cr3  1  -0.00024616  0.33526248  0.99768789  1
  Ni  Ni4  1  0.16582239  0.50046645  0.16285255  1
  Cr  Cr5  1  0.99716131  0.33489234  0.32987425  1
  Ni  Ni6  1  0.00115334  0.66264388  -0.00124882  1
  Fe  Fe7  1  0.16732704  0.82827994  0.16448729  1
  Fe  Fe8  1  0.00089129  0.66353637  0.33015052  1
  Cr  Cr9  1  0.33300482  0.99431665  0.00252608  1
  Ni  Ni10  1  0.49616293  0.16525897  0.16562023  1
  Fe  Fe11  1  0.33042937  0.99524916  0.32774381  1
  Fe  Fe12  1  0.33175947  0.33311078  0.00099723  1
  Ni  Ni13  1  0.49512324  0.49965909  0.16499586  1
  Cr  Cr14  1  0.32972826  0.33396173  0.32962413  1
  Fe  Fe15  1  0.33047668  0.66412994  -0.00083774  1
  Ni  Ni16  1  0.49768773  0.82897573  0.16540210  1
  Ni  Ni17  1  0.33027348  0.66526256  0.33018575  1
  Ni  Ni18  1  0.66072267  0.99695299  0.99727940  1
  Cr  Cr19  1  0.83137963  0.16351080  0.16118501  1
  Cr  Cr20  1  0.66292332  0.99628905  0.32865868  1
  Cr  Cr21  1  0.66346925  0.33299373  -0.00186219  1
  Fe  Fe22  1  0.83050002  0.49899112  0.16389902  1
  Fe  Fe23  1  0.66407922  0.33452314  0.32839977  1
  Cr  Cr24  1  0.66232164  0.66536996  -0.00191648  1
  Cr  Cr25  1  0.83220356  0.82814262  0.16282005  1
  Fe  Fe26  1  0.66375550  0.66174991  0.32892011  1
  Cr  Cr27  1  0.16514848  0.16545507  0.49781573  1
  Fe  Fe28  1  -0.00104087  0.99510438  0.66513677  1
  Cr  Cr29  1  0.16476310  0.16493314  0.83185479  1
  Ni  Ni30  1  0.16266629  0.50280116  0.49919038  1
  Cr  Cr31  1  0.99786147  0.33472268  0.66616914  1
  Fe  Fe32  1  0.16522922  0.50330030  0.83272528  1
  Fe  Fe33  1  0.16405071  0.82677191  0.49795066  1
  Fe  Fe34  1  -0.00112467  0.66558039  0.66563301  1
  Ni  Ni35  1  0.16581510  0.82734740  0.83074078  1
  Cr  Cr36  1  0.49728457  0.16554636  0.49442946  1
  Cr  Cr37  1  0.33081424  0.99371452  0.66206157  1
  Cr  Cr38  1  0.49648877  0.16479372  0.83287111  1
  Cr  Cr39  1  0.49707098  0.49989380  0.49799190  1
  Cr  Cr40  1  0.33024554  0.33567999  0.66604802  1
  Fe  Fe41  1  0.49673499  0.50178371  0.83218191  1
  Cr  Cr42  1  0.49907718  0.82839456  0.49670273  1
  Fe  Fe43  1  0.32995175  0.66454761  0.66548402  1
  Ni  Ni44  1  0.49570602  0.82766016  0.83178798  1
  Cr  Cr45  1  0.83116012  0.16368821  0.49956917  1
  Cr  Cr46  1  0.66446793  0.99498975  0.66761943  1
  Fe  Fe47  1  0.83103750  0.16453395  0.83260518  1
  Fe  Fe48  1  0.83214809  0.50198195  0.49800651  1
  Cr  Cr49  1  0.66552321  0.33397183  0.66559354  1
  Ni  Ni50  1  0.83266246  0.50072580  0.83127666  1
  Fe  Fe51  1  0.83333432  0.82704842  0.49819225  1
  Fe  Fe52  1  0.66475638  0.66372004  0.66669429  1
  Cr  Cr53  1  0.83218494  0.82999051  0.83272975  1
" 