1180,Ni22Fe68Cr8_1,-231.576512294544, 181.804408999931,Ni22Fe68Cr8,"# generated using pymatgen
 data_Cr5Fe37Ni12
_symmetry_space_group_name_H-M   'P 1'
_cell_length_a   7.41989475
_cell_length_b   7.41989475
_cell_length_c   10.49331578
_cell_angle_alpha   90.00000000
_cell_angle_beta   90.00000000
_cell_angle_gamma   90.00000000
_symmetry_Int_Tables_number   1
_chemical_formula_structural   Cr5Fe37Ni12
_chemical_formula_sum   'Cr5 Fe37 Ni12'
_cell_volume   577.70780069
_cell_formula_units_Z   1
loop_
 _symmetry_equiv_pos_site_id
 _symmetry_equiv_pos_as_xyz
  1  'x, y, z'
loop_
 _atom_site_type_symbol
 _atom_site_label
 _atom_site_symmetry_multiplicity
 _atom_site_fract_x
 _atom_site_fract_y
 _atom_site_fract_z
 _atom_site_occupancy
  Cr  Cr0  1  0.00343776  1.00207415  1.00118063  1
  Cr  Cr1  1  0.17102762  0.16993069  0.17039436  1
  Fe  Fe2  1  1.00147984  0.00456864  0.33620058  1
  Fe  Fe3  1  1.00278923  0.33806658  1.00267068  1
  Fe  Fe4  1  0.16883439  0.50303239  0.16947268  1
  Fe  Fe5  1  1.00272070  0.33720632  0.33755350  1
  Fe  Fe6  1  0.00442972  0.66864383  1.00289558  1
  Fe  Fe7  1  0.16943031  0.83566110  0.16909574  1
  Fe  Fe8  1  1.00096541  0.66775577  0.33581710  1
  Ni  Ni9  1  0.33713247  1.00260177  1.00278139  1
  Fe  Fe10  1  0.50404965  0.17113578  0.17000183  1
  Fe  Fe11  1  0.33846539  0.00597034  0.33665887  1
  Ni  Ni12  1  0.33749659  0.33808457  1.00258126  1
  Fe  Fe13  1  0.50423753  0.50083673  0.16985731  1
  Ni  Ni14  1  0.33765731  0.33640892  0.33846379  1
  Fe  Fe15  1  0.33614644  0.67061641  0.00330486  1
  Fe  Fe16  1  0.50333736  0.83756044  0.16958551  1
  Cr  Cr17  1  0.33618812  0.66727067  0.33670220  1
  Cr  Cr18  1  0.66898319  0.00374832  1.00300657  1
  Ni  Ni19  1  0.83459636  0.17172225  0.17114381  1
  Fe  Fe20  1  0.66958650  0.00422984  0.33585798  1
  Fe  Fe21  1  0.66912666  0.33686596  0.00373824  1
  Fe  Fe22  1  0.83645882  0.50232582  0.16993990  1
  Ni  Ni23  1  0.66992236  0.33586345  0.33610238  1
  Fe  Fe24  1  0.66895661  0.66838972  0.00320692  1
  Fe  Fe25  1  0.83675994  0.83548636  0.17165347  1
  Fe  Fe26  1  0.67063218  0.66861536  0.33678638  1
  Ni  Ni27  1  0.17002305  0.17150051  0.50353846  1
  Fe  Fe28  1  0.00378379  0.00448842  0.67086691  1
  Fe  Fe29  1  0.17238376  0.17002904  0.83534857  1
  Ni  Ni30  1  0.16999026  0.50019100  0.50374352  1
  Fe  Fe31  1  0.00467997  0.33593868  0.66931129  1
  Fe  Fe32  1  0.17068648  0.50270147  0.83613694  1
  Cr  Cr33  1  0.16951491  0.83794736  0.50336037  1
  Fe  Fe34  1  0.00392348  0.66910408  0.67082350  1
  Ni  Ni35  1  0.17056349  0.83609547  0.83690362  1
  Fe  Fe36  1  0.50121789  0.17123745  0.50373154  1
  Ni  Ni37  1  0.33701215  0.00439539  0.67084416  1
  Ni  Ni38  1  0.50249453  0.17086522  0.83682677  1
  Ni  Ni39  1  0.50452103  0.50200616  0.50431118  1
  Ni  Ni40  1  0.33612902  0.33651956  0.66849273  1
  Fe  Fe41  1  0.50233967  0.50263526  0.83606464  1
  Fe  Fe42  1  0.50448301  0.83700565  0.50421733  1
  Fe  Fe43  1  0.33707728  0.66880491  0.67011425  1
  Fe  Fe44  1  0.50137558  0.83684882  0.83573653  1
  Fe  Fe45  1  0.83709654  0.17089661  0.50219824  1
  Fe  Fe46  1  0.66867011  0.00389320  0.67040794  1
  Fe  Fe47  1  0.83646479  0.17099743  0.83546553  1
  Fe  Fe48  1  0.83699630  0.50283043  0.50295247  1
  Fe  Fe49  1  0.66836672  0.33593792  0.66947895  1
  Fe  Fe50  1  0.83650606  0.50338652  0.83663952  1
  Fe  Fe51  1  0.83537352  0.83580162  0.50315146  1
  Fe  Fe52  1  0.66853452  0.66970289  0.66954348  1
  Fe  Fe53  1  0.83652655  0.83514969  0.83471952  1
" 