292,Ni22Cr78_15,-231.557117382079, 153.725381095075,Ni22Cr78,"# generated using pymatgen
 data_Cr11Ni43
_symmetry_space_group_name_H-M   'P 1'
_cell_length_a   7.47647436
_cell_length_b   7.47647436
_cell_length_c   10.57333143
_cell_angle_alpha   90.00000000
_cell_angle_beta   90.00000000
_cell_angle_gamma   90.00000000
_symmetry_Int_Tables_number   1
_chemical_formula_structural   Cr11Ni43
_chemical_formula_sum   'Cr11 Ni43'
_cell_volume   591.02457861
_cell_formula_units_Z   1
loop_
 _symmetry_equiv_pos_site_id
 _symmetry_equiv_pos_as_xyz
  1  'x, y, z'
loop_
 _atom_site_type_symbol
 _atom_site_label
 _atom_site_symmetry_multiplicity
 _atom_site_fract_x
 _atom_site_fract_y
 _atom_site_fract_z
 _atom_site_occupancy
  Ni  Ni0  1  0.99769078  -0.00062409  0.99928867  1
  Ni  Ni1  1  0.16488419  0.16857859  0.16708652  1
  Ni  Ni2  1  0.99832977  0.00033145  0.33370267  1
  Ni  Ni3  1  0.00184988  0.33355402  0.00035558  1
  Ni  Ni4  1  0.16485216  0.49670610  0.16513527  1
  Ni  Ni5  1  0.00006663  0.33175305  0.33134813  1
  Ni  Ni6  1  0.99890077  0.66519695  0.99849259  1
  Cr  Cr7  1  0.16369503  0.83370442  0.16646974  1
  Ni  Ni8  1  0.99775706  0.66595268  0.33291281  1
  Cr  Cr9  1  0.33191161  0.00116646  -0.00029419  1
  Ni  Ni10  1  0.49907846  0.16601455  0.16766469  1
  Ni  Ni11  1  0.33323765  0.00179041  0.33423229  1
  Ni  Ni12  1  0.33007720  0.33355394  0.00027382  1
  Ni  Ni13  1  0.49949379  0.49916241  0.16622827  1
  Ni  Ni14  1  0.33235022  0.33127551  0.33245972  1
  Ni  Ni15  1  0.33105801  0.66366658  0.00084228  1
  Ni  Ni16  1  0.50247260  0.83262993  0.16607179  1
  Cr  Cr17  1  0.33167678  0.66545163  0.33334000  1
  Ni  Ni18  1  0.66809606  0.99772387  0.00149487  1
  Ni  Ni19  1  0.83423597  0.16515257  0.16763017  1
  Ni  Ni20  1  0.66656604  -0.00017808  0.33213360  1
  Cr  Cr21  1  0.66738826  0.33109283  0.00127905  1
  Ni  Ni22  1  0.83383397  0.50003268  0.16695492  1
  Ni  Ni23  1  0.66565470  0.33142386  0.33182107  1
  Ni  Ni24  1  0.66862175  0.66688574  0.00131566  1
  Ni  Ni25  1  0.83136407  0.83277391  0.16598765  1
  Ni  Ni26  1  0.66685770  0.66678317  0.33210155  1
  Ni  Ni27  1  0.16578777  0.16598241  0.49926158  1
  Ni  Ni28  1  0.00184033  0.99846800  0.66518245  1
  Ni  Ni29  1  0.16626181  0.16681959  0.83188040  1
  Ni  Ni30  1  0.16553935  0.49716830  0.49901868  1
  Ni  Ni31  1  0.00294965  0.33271416  0.66623096  1
  Ni  Ni32  1  0.16357573  0.49830289  0.83370468  1
  Ni  Ni33  1  0.16383279  0.83506935  0.49926210  1
  Ni  Ni34  1  0.99904400  0.66690821  0.66680303  1
  Ni  Ni35  1  0.16261916  0.83303533  0.83259511  1
  Ni  Ni36  1  0.49722238  0.16606952  0.49788541  1
  Ni  Ni37  1  0.32977158  0.00179572  0.66485098  1
  Ni  Ni38  1  0.49537893  0.16603895  0.83267325  1
  Ni  Ni39  1  0.49871218  0.49837826  0.49830849  1
  Ni  Ni40  1  0.32960890  0.33054490  0.66515317  1
  Cr  Cr41  1  0.49887684  0.49892549  0.83279178  1
  Ni  Ni42  1  0.50029488  0.83400759  0.49799924  1
  Cr  Cr43  1  0.32972483  0.66695764  0.66295359  1
  Cr  Cr44  1  0.50009350  0.83312046  0.83471296  1
  Ni  Ni45  1  0.83500195  0.16425093  0.49708375  1
  Cr  Cr46  1  0.66659385  0.99890079  0.66492226  1
  Cr  Cr47  1  0.83594120  0.16538675  0.83313243  1
  Cr  Cr48  1  0.83396814  0.49914808  0.49878242  1
  Cr  Cr49  1  0.66610791  0.33272053  0.66491203  1
  Ni  Ni50  1  0.83667690  0.50267461  0.83241989  1
  Ni  Ni51  1  0.83394840  0.83328932  0.49848509  1
  Ni  Ni52  1  0.66883035  0.66733157  0.66482847  1
  Ni  Ni53  1  0.83575248  0.83039239  0.83379352  1
" 