3302,Ni22Fe68Cr8_17,-231.1246298197, 183.314493531718,Ni22Fe68Cr8,"# generated using pymatgen
 data_Cr5Fe37Ni12
_symmetry_space_group_name_H-M   'P 1'
_cell_length_a   7.41897741
_cell_length_b   7.41897741
_cell_length_c   10.49201848
_cell_angle_alpha   90.00000000
_cell_angle_beta   90.00000000
_cell_angle_gamma   90.00000000
_symmetry_Int_Tables_number   1
_chemical_formula_structural   Cr5Fe37Ni12
_chemical_formula_sum   'Cr5 Fe37 Ni12'
_cell_volume   577.49355866
_cell_formula_units_Z   1
loop_
 _symmetry_equiv_pos_site_id
 _symmetry_equiv_pos_as_xyz
  1  'x, y, z'
loop_
 _atom_site_type_symbol
 _atom_site_label
 _atom_site_symmetry_multiplicity
 _atom_site_fract_x
 _atom_site_fract_y
 _atom_site_fract_z
 _atom_site_occupancy
  Ni  Ni0  1  1.00297121  1.00301073  1.00300635  1
  Fe  Fe1  1  0.16775330  0.16912618  0.17023049  1
  Fe  Fe2  1  0.00413320  1.00288635  0.33541065  1
  Fe  Fe3  1  1.00170143  0.33646683  1.00288815  1
  Fe  Fe4  1  0.16966320  0.50354988  0.17058197  1
  Fe  Fe5  1  0.00441962  0.33727087  0.33570496  1
  Fe  Fe6  1  1.00291425  0.67011679  1.00244821  1
  Fe  Fe7  1  0.16983339  0.83704603  0.16977574  1
  Fe  Fe8  1  0.00350834  0.66955858  0.33734278  1
  Fe  Fe9  1  0.33518188  0.99983731  1.00245969  1
  Cr  Cr10  1  0.50397588  0.16883853  0.17087197  1
  Fe  Fe11  1  0.33613077  1.00278663  0.33791768  1
  Cr  Cr12  1  0.33569325  0.33751736  1.00212050  1
  Fe  Fe13  1  0.50401584  0.50525087  0.17066221  1
  Ni  Ni14  1  0.33645099  0.33669378  0.33845472  1
  Fe  Fe15  1  0.33673371  0.67180633  1.00303295  1
  Fe  Fe16  1  0.50337796  0.83486181  0.16962594  1
  Fe  Fe17  1  0.33682154  0.66959725  0.33656440  1
  Fe  Fe18  1  0.67168447  1.00103881  1.00289105  1
  Fe  Fe19  1  0.83821982  0.16976343  0.16987998  1
  Fe  Fe20  1  0.66945167  1.00187608  0.33711219  1
  Fe  Fe21  1  0.67336646  0.33800824  0.00329456  1
  Fe  Fe22  1  0.83603879  0.50317250  0.16974209  1
  Fe  Fe23  1  0.66949462  0.33796058  0.33661812  1
  Ni  Ni24  1  0.67012075  0.67002806  1.00285196  1
  Fe  Fe25  1  0.83650704  0.83678279  0.16947967  1
  Fe  Fe26  1  0.66938819  0.66988013  0.33652869  1
  Fe  Fe27  1  0.17212344  0.16917586  0.50381804  1
  Fe  Fe28  1  0.00437981  1.00261708  0.67127466  1
  Ni  Ni29  1  0.16804817  0.17135351  0.83580266  1
  Fe  Fe30  1  0.16987202  0.50378749  0.50383071  1
  Fe  Fe31  1  0.00683058  0.33733796  0.67111910  1
  Ni  Ni32  1  0.16860422  0.50270725  0.83583262  1
  Fe  Fe33  1  0.16958559  0.83675720  0.50345021  1
  Ni  Ni34  1  1.00207224  0.67115582  0.66988791  1
  Fe  Fe35  1  0.16982450  0.83704478  0.83648934  1
  Fe  Fe36  1  0.50092530  0.16854802  0.50261434  1
  Ni  Ni37  1  0.33543872  0.00373621  0.66906788  1
  Cr  Cr38  1  0.50260450  0.16744537  0.83598666  1
  Fe  Fe39  1  0.50282862  0.50407483  0.50226668  1
  Ni  Ni40  1  0.33506800  0.33593913  0.66840979  1
  Fe  Fe41  1  0.50282880  0.50643663  0.83678764  1
  Ni  Ni42  1  0.50396989  0.83671583  0.50288340  1
  Fe  Fe43  1  0.33655563  0.66986629  0.67012352  1
  Ni  Ni44  1  0.50455051  0.83557817  0.83740665  1
  Cr  Cr45  1  0.83718532  0.16874163  0.50317583  1
  Fe  Fe46  1  0.66939726  0.99943672  0.66971439  1
  Fe  Fe47  1  0.83938300  0.16858052  0.83756649  1
  Fe  Fe48  1  0.83701001  0.50659939  0.50262163  1
  Cr  Cr49  1  0.66830188  0.33840797  0.67065410  1
  Fe  Fe50  1  0.83750423  0.50464420  0.83735753  1
  Ni  Ni51  1  0.83554743  0.83504813  0.50288081  1
  Fe  Fe52  1  0.66944006  0.67233103  0.67029860  1
  Ni  Ni53  1  0.83551137  0.83614285  0.83612375  1
" 