5765,Ni22Fe78_12,-243.366741889002, 210.18123323885,Ni22Fe78,"# generated using pymatgen
 data_Fe11Ni43
_symmetry_space_group_name_H-M   'P 1'
_cell_length_a   7.42468897
_cell_length_b   7.42468897
_cell_length_c   10.50009584
_cell_angle_alpha   90.00000000
_cell_angle_beta   90.00000000
_cell_angle_gamma   90.00000000
_symmetry_Int_Tables_number   1
_chemical_formula_structural   Fe11Ni43
_chemical_formula_sum   'Fe11 Ni43'
_cell_volume   578.82835026
_cell_formula_units_Z   1
loop_
 _symmetry_equiv_pos_site_id
 _symmetry_equiv_pos_as_xyz
  1  'x, y, z'
loop_
 _atom_site_type_symbol
 _atom_site_label
 _atom_site_symmetry_multiplicity
 _atom_site_fract_x
 _atom_site_fract_y
 _atom_site_fract_z
 _atom_site_occupancy
  Ni  Ni0  1  1.00240777  1.00266413  0.00309788  1
  Ni  Ni1  1  0.16877441  0.16954572  0.16987722  1
  Ni  Ni2  1  1.00177695  0.00292382  0.33575462  1
  Ni  Ni3  1  0.00424043  0.33592169  0.00363539  1
  Ni  Ni4  1  0.16983114  0.50261195  0.16896403  1
  Fe  Fe5  1  0.00285803  0.33612297  0.33572952  1
  Ni  Ni6  1  1.00270940  0.66996219  0.00392862  1
  Ni  Ni7  1  0.16971857  0.83639677  0.16973700  1
  Fe  Fe8  1  0.00325819  0.67035707  0.33592309  1
  Fe  Fe9  1  0.33591336  0.00307015  1.00252219  1
  Ni  Ni10  1  0.50359250  0.16954363  0.16937765  1
  Fe  Fe11  1  0.33672873  1.00169485  0.33610957  1
  Ni  Ni12  1  0.33580505  0.33660620  0.00302587  1
  Ni  Ni13  1  0.50290792  0.50298322  0.16932803  1
  Ni  Ni14  1  0.33567488  0.33755468  0.33603759  1
  Fe  Fe15  1  0.33618756  0.66911914  1.00285227  1
  Ni  Ni16  1  0.50302599  0.83602206  0.17009159  1
  Ni  Ni17  1  0.33691719  0.66775105  0.33554449  1
  Ni  Ni18  1  0.67034329  1.00228305  0.00345698  1
  Ni  Ni19  1  0.83619208  0.16943974  0.16917995  1
  Ni  Ni20  1  0.67111587  1.00168453  0.33574785  1
  Ni  Ni21  1  0.66850083  0.33629967  0.00400428  1
  Ni  Ni22  1  0.83581326  0.50203941  0.17012737  1
  Fe  Fe23  1  0.66895636  0.33611655  0.33572676  1
  Ni  Ni24  1  0.66966122  0.66996874  0.00343358  1
  Ni  Ni25  1  0.83582302  0.83708057  0.16905664  1
  Ni  Ni26  1  0.66855243  0.67063593  0.33583136  1
  Fe  Fe27  1  0.16950265  0.16904523  0.50331292  1
  Ni  Ni28  1  1.00278210  1.00273157  0.66971074  1
  Ni  Ni29  1  0.16776764  0.16938484  0.83529844  1
  Ni  Ni30  1  0.17090786  0.50314856  0.50371782  1
  Ni  Ni31  1  0.00377190  0.33597469  0.66951379  1
  Ni  Ni32  1  0.16966207  0.50256069  0.83587962  1
  Ni  Ni33  1  0.16992476  0.83569785  0.50330343  1
  Ni  Ni34  1  0.00321064  0.66985387  0.66881026  1
  Ni  Ni35  1  0.17056123  0.83661573  0.83549557  1
  Fe  Fe36  1  0.50286749  0.16904554  0.50277417  1
  Ni  Ni37  1  0.33583289  0.00293834  0.66867732  1
  Fe  Fe38  1  0.50244982  0.17032810  0.83644678  1
  Ni  Ni39  1  0.50184040  0.50352250  0.50334959  1
  Ni  Ni40  1  0.33582712  0.33675563  0.66949241  1
  Ni  Ni41  1  0.50319968  0.50379340  0.83587997  1
  Ni  Ni42  1  0.50281966  0.83532301  0.50294728  1
  Ni  Ni43  1  0.33619072  0.66886391  0.66962015  1
  Ni  Ni44  1  0.50232962  0.83540135  0.83549386  1
  Ni  Ni45  1  0.83619236  0.16873762  0.50306094  1
  Ni  Ni46  1  0.66994017  1.00237555  0.66936215  1
  Ni  Ni47  1  0.83689847  0.17026009  0.83632941  1
  Fe  Fe48  1  0.83590929  0.50428903  0.50373386  1
  Ni  Ni49  1  0.66894893  0.33632964  0.66915314  1
  Ni  Ni50  1  0.83569648  0.50098742  0.83509395  1
  Ni  Ni51  1  0.83581974  0.83825985  0.50392201  1
  Ni  Ni52  1  0.66916299  0.66985982  0.66930348  1
  Fe  Fe53  1  0.83673474  0.83555452  0.83625340  1
" 