5659,Ni22Fe34Cr43_15,-221.76212679183, 176.177726792033,Ni22Fe34Cr43,"# generated using pymatgen
 data_Cr4Fe3Ni2
_symmetry_space_group_name_H-M   'P 1'
_cell_length_a   7.49777557
_cell_length_b   7.49777557
_cell_length_c   10.60345589
_cell_angle_alpha   90.00000000
_cell_angle_beta   90.00000000
_cell_angle_gamma   90.00000000
_symmetry_Int_Tables_number   1
_chemical_formula_structural   Cr4Fe3Ni2
_chemical_formula_sum   'Cr24 Fe18 Ni12'
_cell_volume   596.09064624
_cell_formula_units_Z   6
loop_
 _symmetry_equiv_pos_site_id
 _symmetry_equiv_pos_as_xyz
  1  'x, y, z'
loop_
 _atom_site_type_symbol
 _atom_site_label
 _atom_site_symmetry_multiplicity
 _atom_site_fract_x
 _atom_site_fract_y
 _atom_site_fract_z
 _atom_site_occupancy
  Cr  Cr0  1  0.99740987  0.99396852  -0.00048708  1
  Fe  Fe1  1  0.16442571  0.16451617  0.16686171  1
  Fe  Fe2  1  0.99672301  -0.00071060  0.32977355  1
  Cr  Cr3  1  -0.00190645  0.33204170  0.99671460  1
  Ni  Ni4  1  0.16375872  0.49859765  0.16270707  1
  Fe  Fe5  1  0.99684223  0.33015095  0.33072406  1
  Ni  Ni6  1  0.00153330  0.66610880  -0.00166942  1
  Fe  Fe7  1  0.16487314  0.82914871  0.16573826  1
  Cr  Cr8  1  0.99734232  0.66568254  0.32916708  1
  Cr  Cr9  1  0.33096751  -0.00110348  0.99666721  1
  Fe  Fe10  1  0.49927383  0.16374347  0.16518828  1
  Ni  Ni11  1  0.33143574  0.99660356  0.33113130  1
  Cr  Cr12  1  0.33392887  0.33086799  -0.00136827  1
  Cr  Cr13  1  0.49669077  0.49932058  0.16437662  1
  Cr  Cr14  1  0.33156773  0.33164554  0.32920829  1
  Fe  Fe15  1  0.32696095  0.66424756  -0.00169270  1
  Cr  Cr16  1  0.49833307  0.83297700  0.16659821  1
  Ni  Ni17  1  0.33186749  0.66649970  0.33083401  1
  Fe  Fe18  1  0.66555359  0.00141316  -0.00134994  1
  Fe  Fe19  1  0.83013574  0.16349322  0.16569360  1
  Ni  Ni20  1  0.66539479  0.99766207  0.32989063  1
  Ni  Ni21  1  0.66373915  0.32671789  0.99769852  1
  Cr  Cr22  1  0.83287670  0.49746089  0.16358160  1
  Cr  Cr23  1  0.66500249  0.33152103  0.33274950  1
  Cr  Cr24  1  0.66723921  0.66436371  -0.00100136  1
  Fe  Fe25  1  0.83169701  0.83169041  0.16568009  1
  Ni  Ni26  1  0.66368380  0.66648908  0.33544410  1
  Cr  Cr27  1  0.16192022  0.16428074  0.49636224  1
  Cr  Cr28  1  0.99712514  -0.00138126  0.66550964  1
  Fe  Fe29  1  0.16451445  0.16457506  0.83001759  1
  Cr  Cr30  1  0.16348325  0.49650903  0.49777900  1
  Fe  Fe31  1  0.99666973  0.33053459  0.66448067  1
  Fe  Fe32  1  0.16504203  0.50051523  0.83192026  1
  Cr  Cr33  1  0.17061145  0.83306350  0.49706404  1
  Cr  Cr34  1  -0.00168621  0.66453515  0.66617188  1
  Fe  Fe35  1  0.16575327  0.82878325  0.83118684  1
  Cr  Cr36  1  0.49789494  0.15843620  0.49760623  1
  Fe  Fe37  1  0.33344912  0.99582534  0.66497640  1
  Fe  Fe38  1  0.50069246  0.16365965  0.83114390  1
  Fe  Fe39  1  0.49941420  0.50281683  0.49765819  1
  Cr  Cr40  1  0.33183834  0.33163852  0.66598147  1
  Cr  Cr41  1  0.49733255  0.49903027  0.83284979  1
  Ni  Ni42  1  0.49835286  0.83013762  0.49843326  1
  Ni  Ni43  1  0.33181960  0.66546519  0.66482930  1
  Cr  Cr44  1  0.49704270  0.83304376  0.82864613  1
  Ni  Ni45  1  0.83167899  0.16631386  0.49754631  1
  Ni  Ni46  1  0.66415816  -0.00072986  0.66527662  1
  Fe  Fe47  1  0.82874840  0.16441001  0.83084256  1
  Ni  Ni48  1  0.83019822  0.49573134  0.49835717  1
  Cr  Cr49  1  0.66525033  0.33059428  0.66289994  1
  Cr  Cr50  1  0.83310979  0.49630395  0.83166877  1
  Cr  Cr51  1  0.82580795  0.83221396  0.49674347  1
  Fe  Fe52  1  0.66204519  0.66578985  0.66176288  1
  Cr  Cr53  1  0.82972913  0.83213264  0.83277246  1
" 