3726,Ni22Fe78_1,-243.237073007179, 210.526649974161,Ni22Fe78,"# generated using pymatgen
 data_Fe11Ni43
_symmetry_space_group_name_H-M   'P 1'
_cell_length_a   7.42354214
_cell_length_b   7.42354214
_cell_length_c   10.49847398
_cell_angle_alpha   90.00000000
_cell_angle_beta   90.00000000
_cell_angle_gamma   90.00000000
_symmetry_Int_Tables_number   1
_chemical_formula_structural   Fe11Ni43
_chemical_formula_sum   'Fe11 Ni43'
_cell_volume   578.56017131
_cell_formula_units_Z   1
loop_
 _symmetry_equiv_pos_site_id
 _symmetry_equiv_pos_as_xyz
  1  'x, y, z'
loop_
 _atom_site_type_symbol
 _atom_site_label
 _atom_site_symmetry_multiplicity
 _atom_site_fract_x
 _atom_site_fract_y
 _atom_site_fract_z
 _atom_site_occupancy
  Ni  Ni0  1  1.00030419  1.00265593  0.00421153  1
  Fe  Fe1  1  0.16997396  0.17051314  0.17033207  1
  Fe  Fe2  1  0.00424678  0.00365492  0.33642723  1
  Ni  Ni3  1  0.00411662  0.33660749  0.00334889  1
  Ni  Ni4  1  0.16966203  0.50389787  0.17015072  1
  Ni  Ni5  1  1.00258796  0.33812445  0.33543887  1
  Ni  Ni6  1  0.00384440  0.66967142  1.00169603  1
  Ni  Ni7  1  0.16974440  0.83574720  0.16951360  1
  Ni  Ni8  1  0.00363437  0.66884867  0.33675538  1
  Fe  Fe9  1  0.33438704  1.00272038  0.00341771  1
  Ni  Ni10  1  0.50419150  0.16944964  0.16955432  1
  Ni  Ni11  1  0.33831653  1.00209219  0.33490089  1
  Ni  Ni12  1  0.33575640  0.33822792  0.00344496  1
  Ni  Ni13  1  0.50237885  0.50261157  0.16998997  1
  Ni  Ni14  1  0.33595463  0.33719387  0.33664917  1
  Ni  Ni15  1  0.33576757  0.66838869  0.00339146  1
  Ni  Ni16  1  0.50249961  0.83647017  0.16882613  1
  Ni  Ni17  1  0.33486274  0.66971719  0.33594386  1
  Ni  Ni18  1  0.67000280  1.00240477  1.00246101  1
  Ni  Ni19  1  0.83576935  0.16963449  0.16988725  1
  Ni  Ni20  1  0.66972048  1.00272991  0.33727781  1
  Fe  Fe21  1  0.67027972  0.33647966  0.00334420  1
  Ni  Ni22  1  0.83679570  0.50207425  0.16892397  1
  Ni  Ni23  1  0.67012760  0.33461428  0.33550162  1
  Fe  Fe24  1  0.67072762  0.66962796  1.00207546  1
  Ni  Ni25  1  0.83644212  0.83700024  0.17076155  1
  Fe  Fe26  1  0.66877175  0.66817142  0.33644525  1
  Ni  Ni27  1  0.16827641  0.16902787  0.50263117  1
  Ni  Ni28  1  1.00210599  0.00339286  0.66890413  1
  Fe  Fe29  1  0.16842550  0.17007282  0.83547811  1
  Ni  Ni30  1  0.16973203  0.50279939  0.50348501  1
  Ni  Ni31  1  1.00285689  0.33596654  0.66988783  1
  Ni  Ni32  1  0.17030820  0.50325778  0.83499374  1
  Ni  Ni33  1  0.17193968  0.83716719  0.50349296  1
  Fe  Fe34  1  0.00295441  0.66931212  0.66982266  1
  Ni  Ni35  1  0.17017358  0.83660059  0.83596455  1
  Fe  Fe36  1  0.50173108  0.17036999  0.50244273  1
  Ni  Ni37  1  0.33689995  1.00240852  0.67078876  1
  Fe  Fe38  1  0.50329426  0.16997259  0.83674252  1
  Ni  Ni39  1  0.50310965  0.50374555  0.50270600  1
  Ni  Ni40  1  0.33609484  0.33718704  0.66859479  1
  Ni  Ni41  1  0.50220533  0.50320474  0.83608641  1
  Ni  Ni42  1  0.50136624  0.83632235  0.50294217  1
  Ni  Ni43  1  0.33703350  0.66943515  0.66949412  1
  Ni  Ni44  1  0.50187677  0.83614338  0.83702307  1
  Ni  Ni45  1  0.83655711  0.17033471  0.50281654  1
  Ni  Ni46  1  0.66968630  1.00262185  0.66900431  1
  Ni  Ni47  1  0.83656454  0.16967380  0.83638797  1
  Ni  Ni48  1  0.83579805  0.49972955  0.50362433  1
  Ni  Ni49  1  0.66966557  0.33598799  0.67030836  1
  Ni  Ni50  1  0.83649466  0.50104708  0.83611799  1
  Fe  Fe51  1  0.83691897  0.83507655  0.50295653  1
  Ni  Ni52  1  0.66871740  0.67008289  0.66988410  1
  Ni  Ni53  1  0.83657915  0.83796218  0.83498100  1
" 