1663,Ni22Cr78_12,-231.442434468155, 152.596178363837,Ni22Cr78,"# generated using pymatgen
 data_Cr11Ni43
_symmetry_space_group_name_H-M   'P 1'
_cell_length_a   7.48090358
_cell_length_b   7.48090358
_cell_length_c   10.57959530
_cell_angle_alpha   90.00000000
_cell_angle_beta   90.00000000
_cell_angle_gamma   90.00000000
_symmetry_Int_Tables_number   1
_chemical_formula_structural   Cr11Ni43
_chemical_formula_sum   'Cr11 Ni43'
_cell_volume   592.07560759
_cell_formula_units_Z   1
loop_
 _symmetry_equiv_pos_site_id
 _symmetry_equiv_pos_as_xyz
  1  'x, y, z'
loop_
 _atom_site_type_symbol
 _atom_site_label
 _atom_site_symmetry_multiplicity
 _atom_site_fract_x
 _atom_site_fract_y
 _atom_site_fract_z
 _atom_site_occupancy
  Cr  Cr0  1  0.99826775  -0.00076235  0.99801871  1
  Ni  Ni1  1  0.16427520  0.16771599  0.16624460  1
  Ni  Ni2  1  0.99635394  0.00084007  0.33354732  1
  Cr  Cr3  1  0.99897831  0.33336180  -0.00035634  1
  Ni  Ni4  1  0.16473695  0.49835242  0.16514962  1
  Ni  Ni5  1  0.99734390  0.33148474  0.33219175  1
  Ni  Ni6  1  0.99862645  0.66489408  0.99848917  1
  Cr  Cr7  1  0.16463979  0.83106225  0.16487779  1
  Ni  Ni8  1  0.99816631  0.66489648  0.33313572  1
  Ni  Ni9  1  0.33459802  0.99859480  0.99757739  1
  Cr  Cr10  1  0.50087735  0.16572122  0.16393681  1
  Cr  Cr11  1  0.33146594  0.99768464  0.33353859  1
  Ni  Ni12  1  0.33342233  0.33354583  0.99833655  1
  Ni  Ni13  1  0.49989321  0.49946359  0.16325628  1
  Cr  Cr14  1  0.33029810  0.33445430  0.33260675  1
  Ni  Ni15  1  0.33414480  0.66508141  0.99893277  1
  Ni  Ni16  1  0.50171341  0.83185940  0.16325416  1
  Cr  Cr17  1  0.33282264  0.66508131  0.33399919  1
  Ni  Ni18  1  0.66380745  0.99742341  0.99874986  1
  Ni  Ni19  1  0.83188308  0.16589557  0.16859164  1
  Ni  Ni20  1  0.66985859  0.99895103  0.33214897  1
  Ni  Ni21  1  0.66399511  0.33373029  0.99867737  1
  Ni  Ni22  1  0.83259195  0.49900409  0.16606937  1
  Ni  Ni23  1  0.67003893  0.33220079  0.33222128  1
  Ni  Ni24  1  0.66444975  0.66606773  -0.00049397  1
  Ni  Ni25  1  0.83077359  0.83232206  0.16607088  1
  Cr  Cr26  1  0.66614971  0.66579445  0.33260869  1
  Ni  Ni27  1  0.16179148  0.16640067  0.49948129  1
  Ni  Ni28  1  0.99728061  -0.00032897  0.66511126  1
  Ni  Ni29  1  0.16742211  0.16639998  0.83149582  1
  Ni  Ni30  1  0.16342339  0.49875874  0.49940797  1
  Ni  Ni31  1  -0.00090778  0.33196478  0.66511179  1
  Ni  Ni32  1  0.16588419  0.49918976  0.83266382  1
  Ni  Ni33  1  0.16224988  0.83206293  0.49865251  1
  Ni  Ni34  1  0.99710149  0.66558588  0.66559661  1
  Ni  Ni35  1  0.16471699  0.83163282  0.83341853  1
  Cr  Cr36  1  0.50176224  0.16685278  0.49991753  1
  Cr  Cr37  1  0.33124086  -0.00042719  0.66637211  1
  Ni  Ni38  1  0.49965949  0.16658159  0.83364758  1
  Ni  Ni39  1  0.50032652  0.49903527  0.50057882  1
  Ni  Ni40  1  0.33123531  0.33332601  0.66655161  1
  Ni  Ni41  1  0.49965555  0.49746732  0.83338735  1
  Ni  Ni42  1  0.50131642  0.83160334  0.49922536  1
  Cr  Cr43  1  0.33332617  0.66432703  0.66428899  1
  Ni  Ni44  1  0.50064075  0.83317288  0.83474277  1
  Ni  Ni45  1  0.83393735  0.16541361  0.49823007  1
  Ni  Ni46  1  0.66870328  0.99812713  0.66632352  1
  Ni  Ni47  1  0.83013864  0.16541544  0.83039894  1
  Ni  Ni48  1  0.83347319  0.49857441  0.49958125  1
  Ni  Ni49  1  0.66689336  0.33350741  0.66632390  1
  Ni  Ni50  1  0.83168159  0.50016967  0.83157092  1
  Ni  Ni51  1  0.83365752  0.83323317  0.49965346  1
  Ni  Ni52  1  0.66734333  0.66558703  0.66537967  1
  Ni  Ni53  1  0.83186469  0.83163630  0.83149683  1
" 