4744,Ni22Fe68Cr8_7,-231.921289966018, 186.507537707005,Ni22Fe68Cr8,"# generated using pymatgen
 data_Cr5Fe37Ni12
_symmetry_space_group_name_H-M   'P 1'
_cell_length_a   7.42660703
_cell_length_b   7.42660703
_cell_length_c   10.50280839
_cell_angle_alpha   90.00000000
_cell_angle_beta   90.00000000
_cell_angle_gamma   90.00000000
_symmetry_Int_Tables_number   1
_chemical_formula_structural   Cr5Fe37Ni12
_chemical_formula_sum   'Cr5 Fe37 Ni12'
_cell_volume   579.27706103
_cell_formula_units_Z   1
loop_
 _symmetry_equiv_pos_site_id
 _symmetry_equiv_pos_as_xyz
  1  'x, y, z'
loop_
 _atom_site_type_symbol
 _atom_site_label
 _atom_site_symmetry_multiplicity
 _atom_site_fract_x
 _atom_site_fract_y
 _atom_site_fract_z
 _atom_site_occupancy
  Fe  Fe0  1  1.00031211  1.00133924  0.00395982  1
  Ni  Ni1  1  0.16885329  0.17260026  0.17042945  1
  Cr  Cr2  1  0.00289118  1.00170173  0.33521919  1
  Fe  Fe3  1  1.00246987  0.33678718  0.00381799  1
  Fe  Fe4  1  0.16903914  0.50250130  0.16932829  1
  Fe  Fe5  1  0.00500554  0.33615159  0.33580276  1
  Ni  Ni6  1  1.00230930  0.66934414  1.00227046  1
  Fe  Fe7  1  0.16902314  0.83524974  0.16924801  1
  Fe  Fe8  1  1.00245257  0.66865985  0.33606016  1
  Cr  Cr9  1  0.33618742  1.00139105  0.00302600  1
  Cr  Cr10  1  0.50067030  0.16891412  0.17025699  1
  Ni  Ni11  1  0.33698289  1.00239920  0.33740329  1
  Fe  Fe12  1  0.33554662  0.33900632  0.00321606  1
  Fe  Fe13  1  0.50173382  0.50453135  0.16889090  1
  Ni  Ni14  1  0.33469969  0.33630764  0.33647347  1
  Fe  Fe15  1  0.33586775  0.66806592  1.00241213  1
  Fe  Fe16  1  0.50341628  0.83486573  0.17071214  1
  Fe  Fe17  1  0.33697931  0.67001692  0.33631203  1
  Fe  Fe18  1  0.67212019  1.00102191  1.00188993  1
  Fe  Fe19  1  0.83775026  0.16874079  0.16814205  1
  Ni  Ni20  1  0.66810352  1.00061488  0.33652521  1
  Fe  Fe21  1  0.67014694  0.33691132  1.00180150  1
  Fe  Fe22  1  0.83739117  0.50344596  0.16832805  1
  Cr  Cr23  1  0.66963084  0.33623093  0.33710232  1
  Fe  Fe24  1  0.66990794  0.67023306  1.00258695  1
  Ni  Ni25  1  0.83501300  0.83421717  0.16910004  1
  Fe  Fe26  1  0.66873058  0.67222694  0.33627324  1
  Fe  Fe27  1  0.17061744  0.16923178  0.50256165  1
  Fe  Fe28  1  1.00153392  1.00112919  0.66850424  1
  Cr  Cr29  1  0.16957317  0.17123942  0.83569961  1
  Fe  Fe30  1  0.16929810  0.50370297  0.50282289  1
  Fe  Fe31  1  1.00203295  0.33724901  0.66855059  1
  Fe  Fe32  1  0.16939750  0.50520874  0.83601628  1
  Fe  Fe33  1  0.17010068  0.83523359  0.50359419  1
  Ni  Ni34  1  1.00263003  0.66978321  0.66964993  1
  Fe  Fe35  1  0.16870776  0.83382753  0.83532881  1
  Fe  Fe36  1  0.50226664  0.16749028  0.50300696  1
  Fe  Fe37  1  0.33695316  1.00132360  0.66872569  1
  Ni  Ni38  1  0.50366092  0.17036516  0.83471373  1
  Fe  Fe39  1  0.50223169  0.50409271  0.50311696  1
  Fe  Fe40  1  0.33645084  0.33705669  0.66848471  1
  Fe  Fe41  1  0.50298087  0.50280573  0.83616472  1
  Ni  Ni42  1  0.50419713  0.83647526  0.50119594  1
  Fe  Fe43  1  0.33603896  0.66979550  0.66943803  1
  Ni  Ni44  1  0.50507964  0.83535977  0.83583278  1
  Fe  Fe45  1  0.83528218  0.16827803  0.50398214  1
  Fe  Fe46  1  0.66968411  1.00154549  0.66921670  1
  Fe  Fe47  1  0.83344700  0.16849984  0.83604393  1
  Fe  Fe48  1  0.83663509  0.50460393  0.50378924  1
  Fe  Fe49  1  0.66968496  0.33633141  0.66957979  1
  Fe  Fe50  1  0.83579383  0.50339445  0.83605307  1
  Ni  Ni51  1  0.83425456  0.83448946  0.50315848  1
  Fe  Fe52  1  0.66988010  0.67028621  0.66930167  1
  Ni  Ni53  1  0.83537693  0.83474964  0.83590364  1
" 