4138,Ni22Fe21Cr56_15,-216.98156290761, 170.906546916937,Ni22Fe21Cr56,"# generated using pymatgen
 data_Cr31Fe11Ni12
_symmetry_space_group_name_H-M   'P 1'
_cell_length_a   7.52943546
_cell_length_b   7.52943546
_cell_length_c   10.64822975
_cell_angle_alpha   90.00000000
_cell_angle_beta   90.00000000
_cell_angle_gamma   90.00000000
_symmetry_Int_Tables_number   1
_chemical_formula_structural   Cr31Fe11Ni12
_chemical_formula_sum   'Cr31 Fe11 Ni12'
_cell_volume   603.67368293
_cell_formula_units_Z   1
loop_
 _symmetry_equiv_pos_site_id
 _symmetry_equiv_pos_as_xyz
  1  'x, y, z'
loop_
 _atom_site_type_symbol
 _atom_site_label
 _atom_site_symmetry_multiplicity
 _atom_site_fract_x
 _atom_site_fract_y
 _atom_site_fract_z
 _atom_site_occupancy
  Cr  Cr0  1  0.99503517  0.99470072  -0.00230657  1
  Ni  Ni1  1  0.16044204  0.16072283  0.16499685  1
  Fe  Fe2  1  -0.00224533  -0.00347641  0.33031029  1
  Fe  Fe3  1  0.99530034  0.32981838  0.99558142  1
  Cr  Cr4  1  0.16020819  0.49391907  0.16148703  1
  Fe  Fe5  1  -0.00391627  0.32809133  0.33054228  1
  Fe  Fe6  1  -0.00399108  0.66199606  0.99513735  1
  Fe  Fe7  1  0.16262351  0.83045879  0.16296093  1
  Cr  Cr8  1  -0.00274697  0.66612536  0.33196398  1
  Cr  Cr9  1  0.32886857  0.99435161  -0.00166730  1
  Cr  Cr10  1  0.49470272  0.16009335  0.16210705  1
  Fe  Fe11  1  0.32684813  0.99468367  0.32889946  1
  Cr  Cr12  1  0.33009516  0.33049233  -0.00386932  1
  Cr  Cr13  1  0.49819887  0.49974880  0.16191901  1
  Cr  Cr14  1  0.32995625  0.32948781  0.33114698  1
  Ni  Ni15  1  0.32734789  0.66179573  -0.00246343  1
  Cr  Cr16  1  0.49602503  0.82774996  0.16073626  1
  Cr  Cr17  1  0.32836907  0.66194725  0.32948088  1
  Ni  Ni18  1  0.66447699  -0.00376249  0.99553221  1
  Cr  Cr19  1  0.83270494  0.16420108  0.16215618  1
  Cr  Cr20  1  0.66515451  -0.00328178  0.33137858  1
  Fe  Fe21  1  0.66358202  0.32922247  0.99484978  1
  Cr  Cr22  1  0.82911617  0.49595173  0.16045685  1
  Cr  Cr23  1  0.66096196  0.32923286  0.33120649  1
  Fe  Fe24  1  0.66234501  0.66303477  0.99474804  1
  Cr  Cr25  1  0.82710892  0.82776065  0.16353047  1
  Ni  Ni26  1  0.66324210  0.66309933  0.33059417  1
  Cr  Cr27  1  0.16199847  0.16279914  0.49597923  1
  Cr  Cr28  1  0.99303889  0.99322842  0.66037923  1
  Cr  Cr29  1  0.16353188  0.16371527  0.82678443  1
  Ni  Ni30  1  0.16486260  0.49570912  0.49651632  1
  Cr  Cr31  1  -0.00384737  0.33061537  0.66283430  1
  Cr  Cr32  1  0.16034732  0.49467314  0.82919294  1
  Ni  Ni33  1  0.16339216  0.83083798  0.49385104  1
  Cr  Cr34  1  0.99536743  0.66381496  0.66177874  1
  Cr  Cr35  1  0.16510049  0.82902865  0.82966183  1
  Fe  Fe36  1  0.49548399  0.16339583  0.49818137  1
  Fe  Fe37  1  0.33112983  -0.00353853  0.66047385  1
  Cr  Cr38  1  0.49562676  0.15935506  0.82616495  1
  Ni  Ni39  1  0.49555870  0.49741613  0.49655241  1
  Ni  Ni40  1  0.33088468  0.32938594  0.65923753  1
  Cr  Cr41  1  0.49753283  0.49830678  0.82968137  1
  Cr  Cr42  1  0.49748012  0.82856764  0.49752297  1
  Cr  Cr43  1  0.32793493  0.65927081  0.66027006  1
  Cr  Cr44  1  0.49735269  0.82982479  0.82940723  1
  Ni  Ni45  1  0.82929553  0.15976957  0.49481181  1
  Ni  Ni46  1  0.66287173  0.99570569  0.65999211  1
  Cr  Cr47  1  0.82860639  0.16399090  0.83118186  1
  Cr  Cr48  1  0.82825489  0.49637219  0.49431253  1
  Cr  Cr49  1  0.65987700  0.32842433  0.66116644  1
  Ni  Ni50  1  0.82810119  0.49721471  0.83296881  1
  Fe  Fe51  1  0.82878966  0.82943654  0.49635163  1
  Ni  Ni52  1  0.66283297  0.66385715  0.66178719  1
  Cr  Cr53  1  0.82506211  0.82693891  0.82782366  1
" 