521,Ni22Cr78_11,-231.591149620231, 152.901511969499,Ni22Cr78,"# generated using pymatgen
 data_Cr11Ni43
_symmetry_space_group_name_H-M   'P 1'
_cell_length_a   7.47857921
_cell_length_b   7.47857921
_cell_length_c   10.57630815
_cell_angle_alpha   90.00000000
_cell_angle_beta   90.00000000
_cell_angle_gamma   90.00000000
_symmetry_Int_Tables_number   1
_chemical_formula_structural   Cr11Ni43
_chemical_formula_sum   'Cr11 Ni43'
_cell_volume   591.52389409
_cell_formula_units_Z   1
loop_
 _symmetry_equiv_pos_site_id
 _symmetry_equiv_pos_as_xyz
  1  'x, y, z'
loop_
 _atom_site_type_symbol
 _atom_site_label
 _atom_site_symmetry_multiplicity
 _atom_site_fract_x
 _atom_site_fract_y
 _atom_site_fract_z
 _atom_site_occupancy
  Ni  Ni0  1  0.99660737  -0.00022563  0.99701343  1
  Cr  Cr1  1  0.16912101  0.16738062  0.16301997  1
  Cr  Cr2  1  0.99509287  0.00060697  0.33303328  1
  Ni  Ni3  1  0.99777329  0.33341538  0.99858178  1
  Ni  Ni4  1  0.16732520  0.49809710  0.16492010  1
  Cr  Cr5  1  0.99601958  0.33378299  0.33205609  1
  Ni  Ni6  1  0.99725522  0.66454418  0.99872304  1
  Cr  Cr7  1  0.16729361  0.83304086  0.16546381  1
  Cr  Cr8  1  0.00005802  0.66337814  0.33199496  1
  Ni  Ni9  1  0.33559502  0.00062055  0.99683531  1
  Ni  Ni10  1  0.50104585  0.16645111  0.16594552  1
  Ni  Ni11  1  0.33804217  0.99853479  0.33385187  1
  Ni  Ni12  1  0.33423830  0.33199121  0.99836375  1
  Ni  Ni13  1  0.50096103  0.49825123  0.16670322  1
  Ni  Ni14  1  0.33648133  0.33462376  0.33210653  1
  Cr  Cr15  1  0.33459921  0.66417430  0.99760901  1
  Ni  Ni16  1  0.50238271  0.83291662  0.16700496  1
  Ni  Ni17  1  0.33577257  0.66455631  0.33363609  1
  Ni  Ni18  1  0.66550860  0.00005463  -0.00018388  1
  Ni  Ni19  1  0.82867138  0.16634187  0.16410264  1
  Ni  Ni20  1  0.66242419  0.00082034  0.33121504  1
  Ni  Ni21  1  0.66567855  0.33188132  -0.00075837  1
  Ni  Ni22  1  0.82943899  0.49937861  0.16399697  1
  Ni  Ni23  1  0.66372966  0.33199537  0.33276114  1
  Ni  Ni24  1  0.66699007  0.66573480  0.99868702  1
  Ni  Ni25  1  0.82839929  0.83197596  0.16365672  1
  Ni  Ni26  1  0.66293896  0.66472359  0.33175085  1
  Cr  Cr27  1  0.16821721  0.16593115  0.50139630  1
  Ni  Ni28  1  -0.00000018  0.00131536  0.66772736  1
  Ni  Ni29  1  0.16616292  0.16624691  0.83258235  1
  Ni  Ni30  1  0.16835595  0.49823317  0.49880276  1
  Ni  Ni31  1  0.99803077  0.33191744  0.66647633  1
  Ni  Ni32  1  0.16488814  0.49563620  0.83386626  1
  Ni  Ni33  1  0.16963566  0.83297442  0.49930027  1
  Cr  Cr34  1  -0.00031913  0.66454735  0.66671408  1
  Ni  Ni35  1  0.16484959  0.83583750  0.83315323  1
  Ni  Ni36  1  0.49981838  0.16738675  0.49819113  1
  Ni  Ni37  1  0.33281872  0.00006522  0.66697844  1
  Ni  Ni38  1  0.49818597  0.16752160  0.83364554  1
  Ni  Ni39  1  0.50077341  0.49821182  0.49873899  1
  Ni  Ni40  1  0.33404071  0.33213090  0.66713895  1
  Ni  Ni41  1  0.50203116  0.49682013  0.83234895  1
  Ni  Ni42  1  0.49796707  0.83212112  0.49736264  1
  Cr  Cr43  1  0.33506987  0.66591578  0.66658346  1
  Ni  Ni44  1  0.50094029  0.83330350  0.83352359  1
  Ni  Ni45  1  0.82933314  0.16886823  0.50036694  1
  Cr  Cr46  1  0.66381460  0.00138698  0.66736934  1
  Ni  Ni47  1  0.83323841  0.16733873  0.83316474  1
  Ni  Ni48  1  0.82874992  0.49677746  0.50038670  1
  Ni  Ni49  1  0.66556130  0.33336572  0.66563608  1
  Ni  Ni50  1  0.83083631  0.49834859  0.83305062  1
  Cr  Cr51  1  0.82920766  0.83164164  0.49963947  1
  Ni  Ni52  1  0.66462587  0.66342529  0.66730807  1
  Ni  Ni53  1  0.83208954  0.83205135  0.83482388  1
" 