2619,Ni22Fe34Cr43_17,-221.64970485127, 177.888689422851,Ni22Fe34Cr43,"# generated using pymatgen
 data_Cr4Fe3Ni2
_symmetry_space_group_name_H-M   'P 1'
_cell_length_a   7.49802950
_cell_length_b   7.49802950
_cell_length_c   10.60381501
_cell_angle_alpha   90.00000000
_cell_angle_beta   90.00000000
_cell_angle_gamma   90.00000000
_symmetry_Int_Tables_number   1
_chemical_formula_structural   Cr4Fe3Ni2
_chemical_formula_sum   'Cr24 Fe18 Ni12'
_cell_volume   596.15121291
_cell_formula_units_Z   6
loop_
 _symmetry_equiv_pos_site_id
 _symmetry_equiv_pos_as_xyz
  1  'x, y, z'
loop_
 _atom_site_type_symbol
 _atom_site_label
 _atom_site_symmetry_multiplicity
 _atom_site_fract_x
 _atom_site_fract_y
 _atom_site_fract_z
 _atom_site_occupancy
  Cr  Cr0  1  -0.00115710  0.99681631  0.99727843  1
  Fe  Fe1  1  0.16519344  0.16622924  0.16464125  1
  Cr  Cr2  1  0.00164029  -0.00179436  0.33076049  1
  Fe  Fe3  1  0.99598261  0.33390405  -0.00016220  1
  Ni  Ni4  1  0.16484058  0.49849353  0.16501763  1
  Fe  Fe5  1  -0.00130046  0.33340965  0.33000442  1
  Cr  Cr6  1  -0.00184995  0.66656120  0.99701203  1
  Ni  Ni7  1  0.16771501  0.82654689  0.16520936  1
  Fe  Fe8  1  -0.00123157  0.66340994  0.32894823  1
  Cr  Cr9  1  0.32817490  0.99733500  0.00284482  1
  Ni  Ni10  1  0.49821357  0.16408448  0.16351849  1
  Fe  Fe11  1  0.33418626  0.99709663  0.32832704  1
  Fe  Fe12  1  0.33308868  0.33297147  0.00179097  1
  Fe  Fe13  1  0.49645756  0.49783241  0.16570023  1
  Cr  Cr14  1  0.33000171  0.32845922  0.33397540  1
  Fe  Fe15  1  0.33186628  0.66328108  -0.00000635  1
  Fe  Fe16  1  0.49670673  0.83077706  0.16647769  1
  Fe  Fe17  1  0.33041875  0.66311475  0.32884019  1
  Ni  Ni18  1  0.66260521  -0.00082762  0.00038742  1
  Cr  Cr19  1  0.82857065  0.16772929  0.16179761  1
  Fe  Fe20  1  0.66425354  -0.00086102  0.33098129  1
  Ni  Ni21  1  0.66152450  0.33384135  -0.00094855  1
  Fe  Fe22  1  0.83208200  0.49816546  0.16480997  1
  Cr  Cr23  1  0.66381241  0.33341539  0.33279438  1
  Cr  Cr24  1  0.66420397  0.66226084  0.99790101  1
  Cr  Cr25  1  0.82941060  0.83200116  0.16635810  1
  Ni  Ni26  1  0.66556602  0.66577818  0.32877284  1
  Fe  Fe27  1  0.16333770  0.16280590  0.49701257  1
  Ni  Ni28  1  0.99576871  0.99471908  0.66520280  1
  Cr  Cr29  1  0.16408567  0.16661025  0.83380603  1
  Ni  Ni30  1  0.16175756  0.49725654  0.49626097  1
  Cr  Cr31  1  0.99772587  0.32900521  0.66021843  1
  Cr  Cr32  1  0.16475147  0.49903773  0.83130462  1
  Cr  Cr33  1  0.16340940  0.82593589  0.49841258  1
  Fe  Fe34  1  0.99633204  0.66568488  0.66569270  1
  Fe  Fe35  1  0.16251589  0.83201046  0.83053831  1
  Ni  Ni36  1  0.50015876  0.16113301  0.49796449  1
  Cr  Cr37  1  0.32832355  -0.00065267  0.66184014  1
  Cr  Cr38  1  0.49988033  0.16386835  0.83216384  1
  Cr  Cr39  1  0.49523592  0.50011696  0.49881230  1
  Cr  Cr40  1  0.33232912  0.33072003  0.66142824  1
  Fe  Fe41  1  0.49937906  0.49585792  0.83363890  1
  Cr  Cr42  1  0.50092250  0.83342627  0.49284612  1
  Cr  Cr43  1  0.33140684  0.66360093  0.66714738  1
  Cr  Cr44  1  0.49794734  0.83384988  0.83255937  1
  Fe  Fe45  1  0.83143746  0.16106059  0.49728541  1
  Ni  Ni46  1  0.66884655  0.99634017  0.66093106  1
  Cr  Cr47  1  0.82869282  0.16454897  0.83334729  1
  Cr  Cr48  1  0.83517915  0.50171940  0.49416737  1
  Cr  Cr49  1  0.66416948  0.33234721  0.66332388  1
  Ni  Ni50  1  0.83312866  0.49763267  0.83364030  1
  Ni  Ni51  1  0.83220922  0.83301271  0.49818070  1
  Cr  Cr52  1  0.66745973  0.66411698  0.66772143  1
  Fe  Fe53  1  0.83106892  0.83263895  0.82995646  1
" 