5457,Ni22Fe21Cr56_3,-216.875788573033, 168.852022367377,Ni22Fe21Cr56,"# generated using pymatgen
 data_Cr31Fe11Ni12
_symmetry_space_group_name_H-M   'P 1'
_cell_length_a   7.53083563
_cell_length_b   7.53083563
_cell_length_c   10.65020989
_cell_angle_alpha   90.00000000
_cell_angle_beta   90.00000000
_cell_angle_gamma   90.00000000
_symmetry_Int_Tables_number   1
_chemical_formula_structural   Cr31Fe11Ni12
_chemical_formula_sum   'Cr31 Fe11 Ni12'
_cell_volume   604.01052272
_cell_formula_units_Z   1
loop_
 _symmetry_equiv_pos_site_id
 _symmetry_equiv_pos_as_xyz
  1  'x, y, z'
loop_
 _atom_site_type_symbol
 _atom_site_label
 _atom_site_symmetry_multiplicity
 _atom_site_fract_x
 _atom_site_fract_y
 _atom_site_fract_z
 _atom_site_occupancy
  Cr  Cr0  1  -0.00263120  0.99567667  -0.00338985  1
  Ni  Ni1  1  0.15881821  0.16126437  0.16557932  1
  Ni  Ni2  1  0.99569192  -0.00313279  0.33015331  1
  Cr  Cr3  1  0.99322326  0.32727716  -0.00242332  1
  Cr  Cr4  1  0.16257282  0.49254463  0.16334733  1
  Ni  Ni5  1  0.99478440  0.32452661  0.32981651  1
  Cr  Cr6  1  0.99501773  0.66468553  0.99548334  1
  Fe  Fe7  1  0.15951743  0.83079707  0.16411992  1
  Cr  Cr8  1  0.99437598  0.66581762  0.32933593  1
  Cr  Cr9  1  0.32841465  -0.00252335  -0.00309046  1
  Fe  Fe10  1  0.49908687  0.16216076  0.16281944  1
  Cr  Cr11  1  0.32602494  0.99514688  0.32779136  1
  Cr  Cr12  1  0.33198397  0.32632890  -0.00278218  1
  Ni  Ni13  1  0.49417983  0.49692987  0.16335508  1
  Cr  Cr14  1  0.32987500  0.32551108  0.32686772  1
  Cr  Cr15  1  0.32830744  0.66426601  -0.00251651  1
  Cr  Cr16  1  0.50024993  0.82971247  0.16452040  1
  Fe  Fe17  1  0.32733708  0.66256136  0.32779164  1
  Ni  Ni18  1  0.66308343  -0.00118170  -0.00141655  1
  Ni  Ni19  1  0.83192720  0.15717129  0.16353547  1
  Fe  Fe20  1  0.66797320  -0.00263437  0.32898634  1
  Cr  Cr21  1  0.66222306  0.32800542  0.99481314  1
  Cr  Cr22  1  0.83049003  0.49474350  0.16339591  1
  Cr  Cr23  1  0.66502670  0.32722633  0.32856217  1
  Cr  Cr24  1  0.66386583  0.66005163  0.99519328  1
  Ni  Ni25  1  0.82867558  0.83541731  0.16352390  1
  Cr  Cr26  1  0.66440280  0.66201738  0.33107322  1
  Fe  Fe27  1  0.16018758  0.16072294  0.49460749  1
  Fe  Fe28  1  0.99478541  -0.00362038  0.65978079  1
  Cr  Cr29  1  0.15994655  0.16344440  0.82630763  1
  Cr  Cr30  1  0.16208823  0.49161447  0.49390451  1
  Cr  Cr31  1  0.99231672  0.32815007  0.65991158  1
  Cr  Cr32  1  0.16235426  0.49322544  0.82995225  1
  Fe  Fe33  1  0.15997815  0.83123324  0.49491539  1
  Cr  Cr34  1  0.99398508  0.66546209  0.66243024  1
  Fe  Fe35  1  0.16185301  0.82881805  0.82883365  1
  Cr  Cr36  1  0.49651894  0.16176375  0.49619995  1
  Cr  Cr37  1  0.32502143  -0.00306749  0.66219540  1
  Fe  Fe38  1  0.49703590  0.16352875  0.82873028  1
  Cr  Cr39  1  0.49211219  0.49594670  0.49569654  1
  Ni  Ni40  1  0.32907854  0.32735100  0.66305509  1
  Ni  Ni41  1  0.49490993  0.49446235  0.82750842  1
  Cr  Cr42  1  0.49870559  0.82988936  0.49349044  1
  Cr  Cr43  1  0.32768098  0.66420439  0.66221063  1
  Cr  Cr44  1  0.49793440  0.83096125  0.82943656  1
  Ni  Ni45  1  0.83393144  0.15834945  0.49446654  1
  Cr  Cr46  1  0.66365742  -0.00206262  0.66131587  1
  Fe  Fe47  1  0.82725680  0.16333758  0.83000969  1
  Fe  Fe48  1  0.82982187  0.49402882  0.49460376  1
  Cr  Cr49  1  0.66230584  0.32943567  0.66344132  1
  Ni  Ni50  1  0.82826768  0.49500401  0.82794416  1
  Ni  Ni51  1  0.83186083  0.83468992  0.49457706  1
  Cr  Cr52  1  0.66543734  0.66052685  0.66083283  1
  Cr  Cr53  1  0.82777319  0.83353566  0.83049942  1
" 