8924,Ni22Cr78_9,-231.498293115953, 151.489442194949,Ni22Cr78,"# generated using pymatgen
 data_Cr11Ni43
_symmetry_space_group_name_H-M   'P 1'
_cell_length_a   7.47870594
_cell_length_b   7.47870594
_cell_length_c   10.57648736
_cell_angle_alpha   90.00000000
_cell_angle_beta   90.00000000
_cell_angle_gamma   90.00000000
_symmetry_Int_Tables_number   1
_chemical_formula_structural   Cr11Ni43
_chemical_formula_sum   'Cr11 Ni43'
_cell_volume   591.55396391
_cell_formula_units_Z   1
loop_
 _symmetry_equiv_pos_site_id
 _symmetry_equiv_pos_as_xyz
  1  'x, y, z'
loop_
 _atom_site_type_symbol
 _atom_site_label
 _atom_site_symmetry_multiplicity
 _atom_site_fract_x
 _atom_site_fract_y
 _atom_site_fract_z
 _atom_site_occupancy
  Cr  Cr0  1  0.99737998  0.99727430  0.99760595  1
  Cr  Cr1  1  0.16402441  0.16763573  0.16652114  1
  Ni  Ni2  1  0.99890495  0.99898778  0.33443241  1
  Ni  Ni3  1  0.99789169  0.33548326  0.99848700  1
  Ni  Ni4  1  0.16647172  0.50173206  0.16466468  1
  Ni  Ni5  1  0.99748098  0.33330709  0.33404984  1
  Ni  Ni6  1  0.00100882  0.66393271  0.99734139  1
  Ni  Ni7  1  0.16735805  0.82897453  0.16761303  1
  Ni  Ni8  1  0.00104021  0.66535229  0.33417534  1
  Cr  Cr9  1  0.33453998  0.99680770  -0.00041328  1
  Ni  Ni10  1  0.50116431  0.16698908  0.16644432  1
  Ni  Ni11  1  0.33148587  0.99708419  0.33119304  1
  Ni  Ni12  1  0.33474389  0.33647573  0.99888343  1
  Ni  Ni13  1  0.49896622  0.50045160  0.16531182  1
  Cr  Cr14  1  0.33259343  0.33586626  0.33351852  1
  Ni  Ni15  1  0.33264737  0.66380802  -0.00052860  1
  Ni  Ni16  1  0.49808398  0.83029759  0.16750993  1
  Ni  Ni17  1  0.33144639  0.66611367  0.33163267  1
  Cr  Cr18  1  0.66564062  -0.00028083  0.99785501  1
  Ni  Ni19  1  0.83089687  0.16769212  0.16754057  1
  Ni  Ni20  1  0.66719059  0.00016400  0.33148413  1
  Ni  Ni21  1  0.66509565  0.33362697  0.99873943  1
  Cr  Cr22  1  0.83320040  0.49856730  0.16530204  1
  Ni  Ni23  1  0.66747530  0.33306140  0.33241347  1
  Ni  Ni24  1  0.66408311  0.66396621  0.99743053  1
  Cr  Cr25  1  0.83273403  0.83048934  0.16786889  1
  Ni  Ni26  1  0.66524200  0.66434236  0.33356089  1
  Ni  Ni27  1  0.16258517  0.16596029  0.49943940  1
  Ni  Ni28  1  0.99630528  0.99810606  0.66492045  1
  Cr  Cr29  1  0.16518067  0.17012765  0.83111869  1
  Ni  Ni30  1  0.16469687  0.50021228  0.50024157  1
  Ni  Ni31  1  0.99783736  0.33415685  0.66488179  1
  Ni  Ni32  1  0.16573591  0.50086107  0.83293942  1
  Ni  Ni33  1  0.16368449  0.83148019  0.49812649  1
  Ni  Ni34  1  0.99903546  0.66540128  0.66606222  1
  Ni  Ni35  1  0.16507757  0.82815055  0.83182847  1
  Cr  Cr36  1  0.50053241  0.16674800  0.50019526  1
  Cr  Cr37  1  0.33129874  0.99768582  0.66709613  1
  Ni  Ni38  1  0.50156117  0.16892549  0.83189944  1
  Ni  Ni39  1  0.50038702  0.50036502  0.50020748  1
  Ni  Ni40  1  0.33254605  0.33678902  0.66604276  1
  Ni  Ni41  1  0.49936691  0.49946403  0.83233646  1
  Cr  Cr42  1  0.50075948  0.83001259  0.49835763  1
  Ni  Ni43  1  0.33145882  0.66287605  0.66659337  1
  Ni  Ni44  1  0.50020490  0.82929625  0.83189547  1
  Ni  Ni45  1  0.83400676  0.16600563  0.49889902  1
  Ni  Ni46  1  0.66982828  -0.00073608  0.66810028  1
  Ni  Ni47  1  0.83125765  0.16832301  0.83101521  1
  Ni  Ni48  1  0.83250073  0.49961086  0.49908351  1
  Ni  Ni49  1  0.66724904  0.33404281  0.66662499  1
  Ni  Ni50  1  0.83257166  0.49940414  0.83276896  1
  Ni  Ni51  1  0.83386850  0.83212068  0.49949818  1
  Ni  Ni52  1  0.66719150  0.66439501  0.66664138  1
  Ni  Ni53  1  0.83239129  0.82992351  0.83045888  1
" 