5395,Ni22Fe40Cr36_12,-223.449205770527, 184.050280834633,Ni22Fe40Cr36,"# generated using pymatgen
 data_Cr7Fe7Ni4
_symmetry_space_group_name_H-M   'P 1'
_cell_length_a   7.47981418
_cell_length_b   7.47981418
_cell_length_c   10.57805466
_cell_angle_alpha   90.00000000
_cell_angle_beta   90.00000000
_cell_angle_gamma   90.00000000
_symmetry_Int_Tables_number   1
_chemical_formula_structural   Cr7Fe7Ni4
_chemical_formula_sum   'Cr21 Fe21 Ni12'
_cell_volume   591.81698469
_cell_formula_units_Z   3
loop_
 _symmetry_equiv_pos_site_id
 _symmetry_equiv_pos_as_xyz
  1  'x, y, z'
loop_
 _atom_site_type_symbol
 _atom_site_label
 _atom_site_symmetry_multiplicity
 _atom_site_fract_x
 _atom_site_fract_y
 _atom_site_fract_z
 _atom_site_occupancy
  Fe  Fe0  1  -0.00044834  0.00134092  -0.00037312  1
  Ni  Ni1  1  0.16511590  0.16512750  0.16664643  1
  Ni  Ni2  1  -0.00025651  0.00129305  0.33126876  1
  Cr  Cr3  1  0.00118614  0.33079813  -0.00044150  1
  Fe  Fe4  1  0.16491431  0.49873764  0.16603052  1
  Fe  Fe5  1  0.99652672  0.33112465  0.33145888  1
  Fe  Fe6  1  0.99645270  0.66419663  0.00216926  1
  Cr  Cr7  1  0.16244257  0.83325315  0.16551655  1
  Fe  Fe8  1  0.99672910  0.66500303  0.33043653  1
  Cr  Cr9  1  0.33278036  0.00133352  0.00010707  1
  Fe  Fe10  1  0.49882478  0.16813488  0.16466065  1
  Fe  Fe11  1  0.33174934  0.99845233  0.33115803  1
  Fe  Fe12  1  0.33646550  0.33073971  0.00019195  1
  Ni  Ni13  1  0.50159612  0.49756635  0.16644244  1
  Cr  Cr14  1  0.32912077  0.33245178  0.32788895  1
  Cr  Cr15  1  0.33530527  0.66400356  -0.00009794  1
  Ni  Ni16  1  0.49822255  0.83021654  0.16908167  1
  Fe  Fe17  1  0.33498633  0.66896812  0.33112906  1
  Cr  Cr18  1  0.66516017  0.99884063  -0.00019114  1
  Cr  Cr19  1  0.83152079  0.16585004  0.16482406  1
  Cr  Cr20  1  0.66532851  0.99558839  0.33029688  1
  Ni  Ni21  1  0.66614806  0.33405747  -0.00068849  1
  Ni  Ni22  1  0.83077784  0.49931296  0.16756898  1
  Fe  Fe23  1  0.66862744  0.33337199  0.33087185  1
  Cr  Cr24  1  0.66464190  0.66549644  0.00080526  1
  Fe  Fe25  1  0.83247886  0.82993776  0.16707114  1
  Fe  Fe26  1  0.66564109  0.66484577  0.33059303  1
  Fe  Fe27  1  0.16501303  0.16281659  0.49749657  1
  Ni  Ni28  1  0.99839009  0.00261606  0.66641246  1
  Ni  Ni29  1  0.16643297  0.16377200  0.83214729  1
  Cr  Cr30  1  0.16415757  0.50057068  0.49674543  1
  Cr  Cr31  1  0.99742563  0.33020711  0.66259035  1
  Cr  Cr32  1  0.16604073  0.50011380  0.83510285  1
  Cr  Cr33  1  0.16593962  0.83424361  0.50060699  1
  Fe  Fe34  1  0.99647284  0.66431472  0.66587606  1
  Cr  Cr35  1  0.16224240  0.83353870  0.83094672  1
  Cr  Cr36  1  0.50105617  0.16656871  0.49878050  1
  Fe  Fe37  1  0.33437922  0.00186315  0.66760825  1
  Ni  Ni38  1  0.50189013  0.16977678  0.83334120  1
  Cr  Cr39  1  0.50121833  0.49727535  0.49717791  1
  Cr  Cr40  1  0.33114507  0.33180061  0.66957584  1
  Ni  Ni41  1  0.50298630  0.49339922  0.83359706  1
  Ni  Ni42  1  0.49908208  0.83476158  0.49921410  1
  Cr  Cr43  1  0.33548211  0.66752023  0.66659150  1
  Fe  Fe44  1  0.49822600  0.83534446  0.83188288  1
  Fe  Fe45  1  0.83309000  0.16539086  0.49777031  1
  Fe  Fe46  1  0.66593556  0.00192610  0.66715614  1
  Fe  Fe47  1  0.83137880  0.16776330  0.83204050  1
  Fe  Fe48  1  0.83044603  0.49817970  0.49655277  1
  Ni  Ni49  1  0.66903333  0.33179054  0.66688808  1
  Fe  Fe50  1  0.83051254  0.49528489  0.83344434  1
  Cr  Cr51  1  0.83397740  0.83339908  0.49807240  1
  Cr  Cr52  1  0.66487955  0.66611803  0.66722109  1
  Cr  Cr53  1  0.83504454  0.83351753  0.83465095  1
" 