256,Ni22Fe34Cr43_7,-221.732253083218, 172.717432147862,Ni22Fe34Cr43,"# generated using pymatgen
 data_Cr4Fe3Ni2
_symmetry_space_group_name_H-M   'P 1'
_cell_length_a   7.50563387
_cell_length_b   7.50563387
_cell_length_c   10.61456922
_cell_angle_alpha   90.00000000
_cell_angle_beta   90.00000000
_cell_angle_gamma   90.00000000
_symmetry_Int_Tables_number   1
_chemical_formula_structural   Cr4Fe3Ni2
_chemical_formula_sum   'Cr24 Fe18 Ni12'
_cell_volume   597.96687240
_cell_formula_units_Z   6
loop_
 _symmetry_equiv_pos_site_id
 _symmetry_equiv_pos_as_xyz
  1  'x, y, z'
loop_
 _atom_site_type_symbol
 _atom_site_label
 _atom_site_symmetry_multiplicity
 _atom_site_fract_x
 _atom_site_fract_y
 _atom_site_fract_z
 _atom_site_occupancy
  Cr  Cr0  1  0.00116836  0.99434058  -0.00096310  1
  Ni  Ni1  1  0.16750492  0.16611662  0.16430366  1
  Cr  Cr2  1  -0.00215145  -0.00168865  0.32868242  1
  Cr  Cr3  1  0.99601645  0.33097301  0.99634462  1
  Cr  Cr4  1  0.16123853  0.49657697  0.16451242  1
  Fe  Fe5  1  0.99554826  0.32906759  0.33125248  1
  Ni  Ni6  1  0.99469435  0.66595345  0.99676521  1
  Fe  Fe7  1  0.16401263  0.83140150  0.16241259  1
  Cr  Cr8  1  0.99654431  0.66567067  0.33069683  1
  Ni  Ni9  1  0.32994217  0.99600711  -0.00228478  1
  Ni  Ni10  1  0.49612072  0.16231821  0.16644958  1
  Cr  Cr11  1  0.32910998  -0.00224303  0.32972505  1
  Cr  Cr12  1  0.33400951  0.32825202  -0.00073141  1
  Fe  Fe13  1  0.50096545  0.49390663  0.16627811  1
  Fe  Fe14  1  0.33272406  0.32806412  0.33117111  1
  Cr  Cr15  1  0.33356464  0.66534550  -0.00251842  1
  Cr  Cr16  1  0.50139425  0.83300162  0.16423157  1
  Cr  Cr17  1  0.33389433  0.66151183  0.33001098  1
  Cr  Cr18  1  0.66300328  0.99601632  0.99628925  1
  Cr  Cr19  1  0.82759652  0.16580266  0.16390762  1
  Ni  Ni20  1  0.66373104  0.00106727  0.33200892  1
  Cr  Cr21  1  0.66226281  0.33755024  0.99519303  1
  Ni  Ni22  1  0.82998540  0.50119883  0.16514941  1
  Fe  Fe23  1  0.66328736  0.33126170  0.33071871  1
  Fe  Fe24  1  0.66658581  0.66528912  0.99534644  1
  Fe  Fe25  1  0.83007640  0.82949733  0.16362114  1
  Fe  Fe26  1  0.66448710  0.66399771  0.32992939  1
  Fe  Fe27  1  0.16431777  0.16357702  0.49703254  1
  Cr  Cr28  1  0.99632903  0.99581333  0.66464674  1
  Fe  Fe29  1  0.16616138  0.16163139  0.83077756  1
  Cr  Cr30  1  0.16365534  0.49563532  0.49855426  1
  Cr  Cr31  1  0.99558334  0.32881007  0.66326531  1
  Cr  Cr32  1  0.16419239  0.49674357  0.82908652  1
  Cr  Cr33  1  0.16703378  0.82658946  0.50192138  1
  Fe  Fe34  1  0.99475712  0.66430397  0.66646928  1
  Fe  Fe35  1  0.16376612  0.83054695  0.83059169  1
  Fe  Fe36  1  0.49836438  0.16525578  0.49720330  1
  Fe  Fe37  1  0.33222088  -0.00024097  0.66586143  1
  Cr  Cr38  1  0.49613444  0.16028520  0.83006693  1
  Fe  Fe39  1  0.49867173  0.49528348  0.49685062  1
  Ni  Ni40  1  0.33179424  0.33076230  0.66187271  1
  Fe  Fe41  1  0.49801683  0.49953753  0.82957898  1
  Cr  Cr42  1  0.49818169  0.83380143  0.49920937  1
  Fe  Fe43  1  0.33311894  0.66339552  0.66660960  1
  Ni  Ni44  1  0.49593843  0.83160832  0.82862169  1
  Ni  Ni45  1  0.82710150  0.16660878  0.49559132  1
  Ni  Ni46  1  0.66406328  0.99659343  0.66311683  1
  Cr  Cr47  1  0.82903473  0.16302990  0.83081472  1
  Fe  Fe48  1  0.82867930  0.49667456  0.49539300  1
  Cr  Cr49  1  0.66285726  0.33166732  0.66468368  1
  Ni  Ni50  1  0.83398967  0.50314124  0.83114697  1
  Cr  Cr51  1  0.82761263  0.83340431  0.49638551  1
  Cr  Cr52  1  0.66406283  0.66287636  0.66606181  1
  Ni  Ni53  1  0.82823750  0.82760125  0.83127717  1
" 