5038,Ni22Cr78_2,-231.37022615715, 150.368023219244,Ni22Cr78,"# generated using pymatgen
 data_Cr11Ni43
_symmetry_space_group_name_H-M   'P 1'
_cell_length_a   7.47892193
_cell_length_b   7.47892193
_cell_length_c   10.57679282
_cell_angle_alpha   90.00000000
_cell_angle_beta   90.00000000
_cell_angle_gamma   90.00000000
_symmetry_Int_Tables_number   1
_chemical_formula_structural   Cr11Ni43
_chemical_formula_sum   'Cr11 Ni43'
_cell_volume   591.60521930
_cell_formula_units_Z   1
loop_
 _symmetry_equiv_pos_site_id
 _symmetry_equiv_pos_as_xyz
  1  'x, y, z'
loop_
 _atom_site_type_symbol
 _atom_site_label
 _atom_site_symmetry_multiplicity
 _atom_site_fract_x
 _atom_site_fract_y
 _atom_site_fract_z
 _atom_site_occupancy
  Ni  Ni0  1  0.99854277  0.00020736  0.00179100  1
  Ni  Ni1  1  0.16437284  0.16779129  0.16498950  1
  Ni  Ni2  1  0.99853374  -0.00000571  0.33308183  1
  Ni  Ni3  1  0.99787889  0.33357427  0.00136030  1
  Ni  Ni4  1  0.16598659  0.49820327  0.16625844  1
  Ni  Ni5  1  0.99895163  0.33292531  0.33240637  1
  Ni  Ni6  1  0.99726687  0.66383728  0.00027314  1
  Ni  Ni7  1  0.16496010  0.83162285  0.16608994  1
  Ni  Ni8  1  0.00021843  0.66469970  0.33332209  1
  Cr  Cr9  1  0.33425273  0.00030426  0.00022197  1
  Ni  Ni10  1  0.50046597  0.16813966  0.16495216  1
  Cr  Cr11  1  0.33277960  0.99873264  0.33228029  1
  Ni  Ni12  1  0.33316193  0.33119928  0.00153629  1
  Ni  Ni13  1  0.49920089  0.49820374  0.16622046  1
  Ni  Ni14  1  0.33168398  0.33351557  0.33120496  1
  Cr  Cr15  1  0.33316064  0.66610410  0.00177496  1
  Ni  Ni16  1  0.49987908  0.83127489  0.16605272  1
  Ni  Ni17  1  0.33168422  0.66537594  0.33135048  1
  Ni  Ni18  1  0.66481596  0.00020389  -0.00041600  1
  Ni  Ni19  1  0.83277841  0.16711605  0.16540158  1
  Ni  Ni20  1  0.66630490  -0.00000536  0.33332359  1
  Ni  Ni21  1  0.66657790  0.33247378  0.00049673  1
  Ni  Ni22  1  0.83243042  0.49761773  0.16477259  1
  Ni  Ni23  1  0.66698276  0.33183050  0.33131457  1
  Ni  Ni24  1  0.66718849  0.66494113  -0.00059273  1
  Cr  Cr25  1  0.83277760  0.83339502  0.16551044  1
  Ni  Ni26  1  0.66571544  0.66579377  0.33223063  1
  Ni  Ni27  1  0.16457455  0.16651517  0.50070236  1
  Ni  Ni28  1  -0.00001749  0.99914274  0.66275125  1
  Cr  Cr29  1  0.16658737  0.16673255  0.83192509  1
  Ni  Ni30  1  0.16432734  0.49927100  0.49961138  1
  Ni  Ni31  1  0.99853648  0.33381093  0.66385326  1
  Cr  Cr32  1  0.16430563  0.49815832  0.83149565  1
  Ni  Ni33  1  0.16439892  0.83183248  0.50052729  1
  Ni  Ni34  1  0.99871078  0.66466518  0.66402644  1
  Cr  Cr35  1  0.16506166  0.83273028  0.83125531  1
  Ni  Ni36  1  0.50005628  0.16500206  0.50091454  1
  Ni  Ni37  1  0.33449838  0.99896735  0.66512269  1
  Ni  Ni38  1  0.50004159  0.16520587  0.83175110  1
  Cr  Cr39  1  0.49854039  0.49901407  0.49866243  1
  Ni  Ni40  1  0.33230935  0.33034752  0.66487254  1
  Cr  Cr41  1  0.50097042  0.49815961  0.83171543  1
  Ni  Ni42  1  0.50023195  0.83334346  0.50073967  1
  Ni  Ni43  1  0.33231072  0.66830298  0.66448564  1
  Ni  Ni44  1  0.50131845  0.83399811  0.83082492  1
  Ni  Ni45  1  0.83298773  0.16507389  0.49926079  1
  Ni  Ni46  1  0.66313906  0.99914151  0.66471501  1
  Cr  Cr47  1  0.83141631  0.16655885  0.83320412  1
  Ni  Ni48  1  0.83449843  0.49944662  0.50006545  1
  Ni  Ni49  1  0.66677365  0.33162121  0.66580513  1
  Ni  Ni50  1  0.83200344  0.49968465  0.83278031  1
  Ni  Ni51  1  0.83298807  0.83309770  0.49964813  1
  Ni  Ni52  1  0.66659766  0.66685593  0.66597943  1
  Cr  Cr53  1  0.83141203  0.83137972  0.83322833  1
" 