6893,Ni22Fe34Cr43_2,-221.754408580352, 185.054179376272,Ni22Fe34Cr43,"# generated using pymatgen
 data_Cr4Fe3Ni2
_symmetry_space_group_name_H-M   'P 1'
_cell_length_a   7.49106929
_cell_length_b   7.49106929
_cell_length_c   10.59397179
_cell_angle_alpha   90.00000000
_cell_angle_beta   90.00000000
_cell_angle_gamma   90.00000000
_symmetry_Int_Tables_number   1
_chemical_formula_structural   Cr4Fe3Ni2
_chemical_formula_sum   'Cr24 Fe18 Ni12'
_cell_volume   594.49258257
_cell_formula_units_Z   6
loop_
 _symmetry_equiv_pos_site_id
 _symmetry_equiv_pos_as_xyz
  1  'x, y, z'
loop_
 _atom_site_type_symbol
 _atom_site_label
 _atom_site_symmetry_multiplicity
 _atom_site_fract_x
 _atom_site_fract_y
 _atom_site_fract_z
 _atom_site_occupancy
  Ni  Ni0  1  0.99836482  0.99628461  0.00039206  1
  Fe  Fe1  1  0.16455365  0.16409390  0.16420643  1
  Cr  Cr2  1  0.00000033  0.99341342  0.33071579  1
  Fe  Fe3  1  0.99657098  0.33057255  0.99806188  1
  Cr  Cr4  1  0.16617480  0.49486093  0.16512813  1
  Fe  Fe5  1  0.99742057  0.33267385  0.33035725  1
  Cr  Cr6  1  0.99553692  0.66576176  0.00028884  1
  Fe  Fe7  1  0.16590591  0.82918202  0.16485027  1
  Fe  Fe8  1  0.99813462  0.66504616  0.33006658  1
  Cr  Cr9  1  0.33114700  0.99425309  0.00153971  1
  Cr  Cr10  1  0.49942120  0.16496231  0.16923331  1
  Cr  Cr11  1  0.33153044  0.99460948  0.33006320  1
  Cr  Cr12  1  0.33706530  0.33375264  -0.00148237  1
  Ni  Ni13  1  0.49763940  0.50311068  0.16793308  1
  Fe  Fe14  1  0.33548363  0.33411019  0.33210285  1
  Fe  Fe15  1  0.33669392  0.66534386  -0.00023602  1
  Ni  Ni16  1  0.50129129  0.82752688  0.16512200  1
  Ni  Ni17  1  0.33147665  0.66396671  0.33104852  1
  Cr  Cr18  1  0.66418361  0.99749267  0.99672398  1
  Cr  Cr19  1  0.83322289  0.16429478  0.16493594  1
  Ni  Ni20  1  0.66448247  -0.00085957  0.33197913  1
  Cr  Cr21  1  0.66479385  0.33860384  0.99576456  1
  Fe  Fe22  1  0.82713948  0.50058561  0.16683695  1
  Ni  Ni23  1  0.66308456  0.33568865  0.33185850  1
  Fe  Fe24  1  0.66217694  0.66562110  -0.00093663  1
  Ni  Ni25  1  0.82880521  0.83135533  0.16690090  1
  Fe  Fe26  1  0.66269626  0.66643159  0.32849846  1
  Cr  Cr27  1  0.16689803  0.16986603  0.49630195  1
  Cr  Cr28  1  -0.00079010  0.99530505  0.66443255  1
  Cr  Cr29  1  0.16382231  0.16718289  0.83553918  1
  Cr  Cr30  1  0.16811239  0.49880878  0.50030341  1
  Cr  Cr31  1  0.99519364  0.33447990  0.66851131  1
  Cr  Cr32  1  0.16692988  0.49819599  0.82990477  1
  Fe  Fe33  1  0.16542076  0.82791278  0.49822498  1
  Ni  Ni34  1  0.99715654  0.66515932  0.66330049  1
  Cr  Cr35  1  0.16754081  0.82902877  0.83087434  1
  Fe  Fe36  1  0.49971288  0.16778271  0.49609431  1
  Cr  Cr37  1  0.33342838  -0.00111639  0.66416874  1
  Fe  Fe38  1  0.49857930  0.16507872  0.83056429  1
  Fe  Fe39  1  0.49851268  0.49746412  0.49650926  1
  Ni  Ni40  1  0.33794319  0.33324157  0.66380397  1
  Ni  Ni41  1  0.49851253  0.50296470  0.83001702  1
  Cr  Cr42  1  0.50108108  0.83013174  0.49865769  1
  Fe  Fe43  1  0.33422810  0.66290335  0.66474570  1
  Ni  Ni44  1  0.50030483  0.82854828  0.83157923  1
  Cr  Cr45  1  0.82860967  0.16358735  0.49757487  1
  Fe  Fe46  1  0.66285936  -0.00084280  0.66647330  1
  Fe  Fe47  1  0.83048110  0.16541877  0.83317077  1
  Cr  Cr48  1  0.83155990  0.50056862  0.49485943  1
  Cr  Cr49  1  0.66227316  0.33347669  0.66727368  1
  Ni  Ni50  1  0.83009763  0.49998585  0.83296856  1
  Cr  Cr51  1  0.82785559  0.83082474  0.49906861  1
  Fe  Fe52  1  0.66384406  0.66291383  0.66721989  1
  Cr  Cr53  1  0.82825444  0.83180843  0.82932323  1
" 