8038,Ni22Fe21Cr56_6,-217.372070843735, 173.54342914036,Ni22Fe21Cr56,"# generated using pymatgen
 data_Cr31Fe11Ni12
_symmetry_space_group_name_H-M   'P 1'
_cell_length_a   7.52879567
_cell_length_b   7.52879567
_cell_length_c   10.64732495
_cell_angle_alpha   90.00000000
_cell_angle_beta   90.00000000
_cell_angle_gamma   90.00000000
_symmetry_Int_Tables_number   1
_chemical_formula_structural   Cr31Fe11Ni12
_chemical_formula_sum   'Cr31 Fe11 Ni12'
_cell_volume   603.51981014
_cell_formula_units_Z   1
loop_
 _symmetry_equiv_pos_site_id
 _symmetry_equiv_pos_as_xyz
  1  'x, y, z'
loop_
 _atom_site_type_symbol
 _atom_site_label
 _atom_site_symmetry_multiplicity
 _atom_site_fract_x
 _atom_site_fract_y
 _atom_site_fract_z
 _atom_site_occupancy
  Cr  Cr0  1  0.99456803  -0.00313173  0.99420490  1
  Ni  Ni1  1  0.16103487  0.16230321  0.16533149  1
  Cr  Cr2  1  -0.00325931  -0.00012857  0.32690722  1
  Cr  Cr3  1  0.99488918  0.32404395  -0.00065294  1
  Cr  Cr4  1  0.16143083  0.49753537  0.16297941  1
  Ni  Ni5  1  0.99571258  0.32549912  0.32732127  1
  Fe  Fe6  1  -0.00191929  0.66522990  0.99423158  1
  Cr  Cr7  1  0.16520830  0.82704098  0.16367965  1
  Fe  Fe8  1  -0.00168367  0.66031198  0.32926542  1
  Cr  Cr9  1  0.32656058  0.99249408  -0.00302592  1
  Cr  Cr10  1  0.49744437  0.15796891  0.16182175  1
  Fe  Fe11  1  0.33058353  -0.00357021  0.32849622  1
  Cr  Cr12  1  0.32697978  0.32983974  -0.00243534  1
  Cr  Cr13  1  0.49497648  0.49833509  0.15937983  1
  Cr  Cr14  1  0.32779053  0.32955409  0.33054610  1
  Ni  Ni15  1  0.33114857  0.66678595  0.99484127  1
  Ni  Ni16  1  0.49524681  0.83063863  0.16344205  1
  Ni  Ni17  1  0.33132364  0.66466723  0.32842082  1
  Fe  Fe18  1  0.66259204  0.99455886  0.99503162  1
  Ni  Ni19  1  0.82871482  0.16183586  0.16116006  1
  Fe  Fe20  1  0.66040170  -0.00178987  0.32833113  1
  Fe  Fe21  1  0.66368844  0.32637147  -0.00367247  1
  Cr  Cr22  1  0.83124767  0.49562839  0.16300518  1
  Cr  Cr23  1  0.66331940  0.32925355  0.33045087  1
  Cr  Cr24  1  0.66021174  0.66535673  0.99380668  1
  Cr  Cr25  1  0.82642809  0.82965903  0.16473894  1
  Cr  Cr26  1  0.65834480  0.66277534  0.33252254  1
  Cr  Cr27  1  0.16542329  0.16184632  0.49829091  1
  Fe  Fe28  1  -0.00293409  0.99442159  0.66484830  1
  Cr  Cr29  1  0.16449446  0.16250333  0.82398645  1
  Cr  Cr30  1  0.16145971  0.49615029  0.49565232  1
  Fe  Fe31  1  -0.00273006  0.32831782  0.66237302  1
  Cr  Cr32  1  0.16207814  0.49683952  0.82957123  1
  Cr  Cr33  1  0.16218764  0.82949724  0.49630338  1
  Fe  Fe34  1  -0.00325928  0.66517860  0.66450926  1
  Fe  Fe35  1  0.16371451  0.82875649  0.82848791  1
  Ni  Ni36  1  0.49366451  0.16259257  0.49724273  1
  Ni  Ni37  1  0.32741694  -0.00373940  0.66249817  1
  Cr  Cr38  1  0.49579797  0.16058756  0.82885779  1
  Ni  Ni39  1  0.49290637  0.49358687  0.49677957  1
  Ni  Ni40  1  0.32837906  0.32746421  0.65979371  1
  Cr  Cr41  1  0.49442011  0.49406405  0.83117486  1
  Cr  Cr42  1  0.49412982  0.83428982  0.49260590  1
  Cr  Cr43  1  0.33214504  0.66297331  0.66406686  1
  Ni  Ni44  1  0.49677786  0.83172926  0.83077141  1
  Cr  Cr45  1  0.82864045  0.16174228  0.49683375  1
  Cr  Cr46  1  0.66367775  0.99378288  0.66364997  1
  Fe  Fe47  1  0.82810847  0.16057606  0.82963419  1
  Cr  Cr48  1  0.83274190  0.49688925  0.49538096  1
  Cr  Cr49  1  0.66064789  0.33098947  0.66100827  1
  Cr  Cr50  1  0.83141420  0.49633561  0.82992375  1
  Cr  Cr51  1  0.83163603  0.82897503  0.49458047  1
  Cr  Cr52  1  0.66172090  0.66290256  0.66101477  1
  Ni  Ni53  1  0.83091308  0.83023751  0.82858799  1
" 