157,Ni22Fe40Cr36_19,-223.280708553635, 179.98711285625,Ni22Fe40Cr36,"# generated using pymatgen
 data_Cr7Fe7Ni4
_symmetry_space_group_name_H-M   'P 1'
_cell_length_a   7.48364169
_cell_length_b   7.48364169
_cell_length_c   10.58346757
_cell_angle_alpha   90.00000000
_cell_angle_beta   90.00000000
_cell_angle_gamma   90.00000000
_symmetry_Int_Tables_number   1
_chemical_formula_structural   Cr7Fe7Ni4
_chemical_formula_sum   'Cr21 Fe21 Ni12'
_cell_volume   592.72596805
_cell_formula_units_Z   3
loop_
 _symmetry_equiv_pos_site_id
 _symmetry_equiv_pos_as_xyz
  1  'x, y, z'
loop_
 _atom_site_type_symbol
 _atom_site_label
 _atom_site_symmetry_multiplicity
 _atom_site_fract_x
 _atom_site_fract_y
 _atom_site_fract_z
 _atom_site_occupancy
  Ni  Ni0  1  0.99720947  0.99831638  0.00017907  1
  Cr  Cr1  1  0.16661323  0.16604291  0.16391428  1
  Fe  Fe2  1  -0.00061098  0.99456623  0.33278230  1
  Fe  Fe3  1  0.00151573  0.33413661  0.99741378  1
  Fe  Fe4  1  0.16587439  0.50391994  0.16399597  1
  Cr  Cr5  1  0.99844096  0.32920523  0.33199746  1
  Fe  Fe6  1  0.00055048  0.66676460  0.99884609  1
  Fe  Fe7  1  0.16382532  0.82863327  0.16520809  1
  Fe  Fe8  1  -0.00025947  0.66976997  0.33229817  1
  Cr  Cr9  1  0.33187940  0.99198808  -0.00007253  1
  Cr  Cr10  1  0.49789470  0.16444195  0.16388973  1
  Cr  Cr11  1  0.33031615  0.99418566  0.33188555  1
  Fe  Fe12  1  0.33099223  0.33549638  0.99740875  1
  Cr  Cr13  1  0.49842557  0.50000696  0.16801837  1
  Cr  Cr14  1  0.33023384  0.33470927  0.33253493  1
  Ni  Ni15  1  0.33219448  0.66457666  -0.00066952  1
  Ni  Ni16  1  0.50093608  0.82845493  0.16409937  1
  Ni  Ni17  1  0.33189423  0.66939127  0.33147663  1
  Fe  Fe18  1  0.66647889  0.99418519  -0.00038732  1
  Cr  Cr19  1  0.83273506  0.16279239  0.16395470  1
  Cr  Cr20  1  0.66752602  0.99653628  0.33031304  1
  Cr  Cr21  1  0.66896041  0.33412111  0.99715430  1
  Cr  Cr22  1  0.83408418  0.50426380  0.16591707  1
  Cr  Cr23  1  0.66773234  0.33360478  0.33526823  1
  Fe  Fe24  1  0.66407331  0.66871819  -0.00104199  1
  Ni  Ni25  1  0.83361621  0.82993446  0.16570886  1
  Ni  Ni26  1  0.66397052  0.66955522  0.33286083  1
  Ni  Ni27  1  0.16622264  0.16230208  0.50150566  1
  Fe  Fe28  1  0.99776573  0.99726557  0.66411620  1
  Cr  Cr29  1  0.16807545  0.16481046  0.83138199  1
  Cr  Cr30  1  0.16543135  0.50061160  0.49787311  1
  Cr  Cr31  1  0.99825015  0.33112037  0.66733319  1
  Ni  Ni32  1  0.16536791  0.49979385  0.83450857  1
  Ni  Ni33  1  0.16288643  0.83354786  0.49938621  1
  Fe  Fe34  1  0.99779197  0.66411619  0.66545276  1
  Cr  Cr35  1  0.16321438  0.83127169  0.83054510  1
  Cr  Cr36  1  0.49791520  0.16738139  0.49981455  1
  Fe  Fe37  1  0.33310147  -0.00109268  0.66357236  1
  Cr  Cr38  1  0.49956846  0.16439940  0.83227069  1
  Fe  Fe39  1  0.49759867  0.50246862  0.49987657  1
  Ni  Ni40  1  0.33289599  0.33407433  0.66657639  1
  Fe  Fe41  1  0.49788924  0.50058427  0.83160191  1
  Fe  Fe42  1  0.49855552  0.82965700  0.49833094  1
  Cr  Cr43  1  0.33210309  0.66772091  0.66579783  1
  Fe  Fe44  1  0.49859184  0.82938135  0.83319406  1
  Fe  Fe45  1  0.83480461  0.16282440  0.50090853  1
  Fe  Fe46  1  0.66530117  0.99851470  0.66475728  1
  Fe  Fe47  1  0.83365753  0.16403488  0.83291111  1
  Cr  Cr48  1  0.82911209  0.50434032  0.49887662  1
  Ni  Ni49  1  0.66615094  0.33328078  0.66570555  1
  Fe  Fe50  1  0.83241111  0.49952159  0.83098650  1
  Fe  Fe51  1  0.83304670  0.83338149  0.49977631  1
  Ni  Ni52  1  0.66420770  0.66617347  0.66635667  1
  Cr  Cr53  1  0.83111064  0.83032707  0.83175988  1
" 