95,Ni22Fe21Cr56_5,-217.06720026605, 174.77186652154,Ni22Fe21Cr56,"# generated using pymatgen
 data_Cr31Fe11Ni12
_symmetry_space_group_name_H-M   'P 1'
_cell_length_a   7.52668190
_cell_length_b   7.52668190
_cell_length_c   10.64433562
_cell_angle_alpha   90.00000000
_cell_angle_beta   90.00000000
_cell_angle_gamma   90.00000000
_symmetry_Int_Tables_number   1
_chemical_formula_structural   Cr31Fe11Ni12
_chemical_formula_sum   'Cr31 Fe11 Ni12'
_cell_volume   603.01162333
_cell_formula_units_Z   1
loop_
 _symmetry_equiv_pos_site_id
 _symmetry_equiv_pos_as_xyz
  1  'x, y, z'
loop_
 _atom_site_type_symbol
 _atom_site_label
 _atom_site_symmetry_multiplicity
 _atom_site_fract_x
 _atom_site_fract_y
 _atom_site_fract_z
 _atom_site_occupancy
  Cr  Cr0  1  -0.00287341  -0.00369127  0.99331061  1
  Fe  Fe1  1  0.16174781  0.16254179  0.16122346  1
  Fe  Fe2  1  0.99533945  0.99449708  0.33121257  1
  Cr  Cr3  1  -0.00331103  0.32780034  0.99415577  1
  Cr  Cr4  1  0.16447658  0.49825764  0.16014439  1
  Cr  Cr5  1  -0.00325023  0.32699794  0.32941117  1
  Fe  Fe6  1  0.99597480  0.66463647  0.99304672  1
  Cr  Cr7  1  0.16265831  0.82670260  0.16141987  1
  Cr  Cr8  1  0.99464294  0.66656300  0.33074274  1
  Cr  Cr9  1  0.32881078  -0.00169961  -0.00230203  1
  Fe  Fe10  1  0.49817398  0.16083748  0.16198448  1
  Cr  Cr11  1  0.32827490  0.99578736  0.32807367  1
  Fe  Fe12  1  0.33057125  0.32871441  0.99378859  1
  Cr  Cr13  1  0.49390964  0.49707975  0.16133887  1
  Cr  Cr14  1  0.33043989  0.32534253  0.32620965  1
  Ni  Ni15  1  0.33024650  0.66454080  0.99431051  1
  Fe  Fe16  1  0.49680708  0.82966730  0.16163143  1
  Cr  Cr17  1  0.33077134  0.66728947  0.33356157  1
  Ni  Ni18  1  0.66138309  0.99463638  -0.00221679  1
  Cr  Cr19  1  0.82657517  0.15965076  0.16631425  1
  Fe  Fe20  1  0.66117526  0.99456371  0.33082409  1
  Cr  Cr21  1  0.66282117  0.32947224  0.99322069  1
  Cr  Cr22  1  0.83046367  0.49635705  0.16314115  1
  Ni  Ni23  1  0.66171181  0.32692680  0.32864438  1
  Cr  Cr24  1  0.66435472  0.66325880  0.99295296  1
  Cr  Cr25  1  0.82824292  0.83227454  0.16105714  1
  Cr  Cr26  1  0.66270319  0.66427764  0.33172407  1
  Cr  Cr27  1  0.16055948  0.16199725  0.49877863  1
  Ni  Ni28  1  -0.00124603  0.99410700  0.66263095  1
  Ni  Ni29  1  0.16201371  0.16063299  0.82785604  1
  Cr  Cr30  1  0.16381795  0.49785171  0.49726565  1
  Ni  Ni31  1  -0.00294449  0.32815006  0.66515391  1
  Cr  Cr32  1  0.16473246  0.49862960  0.83093061  1
  Fe  Fe33  1  0.16220337  0.83188328  0.49874626  1
  Cr  Cr34  1  0.99336968  0.66421718  0.66356504  1
  Fe  Fe35  1  0.16337951  0.83074966  0.82866227  1
  Cr  Cr36  1  0.49847924  0.16001465  0.49794274  1
  Ni  Ni37  1  0.32682693  0.99198039  0.66279341  1
  Cr  Cr38  1  0.49642127  0.15930036  0.82812711  1
  Cr  Cr39  1  0.49346064  0.49704822  0.49786577  1
  Cr  Cr40  1  0.32859397  0.32643522  0.66611002  1
  Ni  Ni41  1  0.49405510  0.49928331  0.83036204  1
  Ni  Ni42  1  0.49637689  0.83261406  0.49752464  1
  Fe  Fe43  1  0.32906528  0.66671825  0.66364491  1
  Cr  Cr44  1  0.49515430  0.83086199  0.82937360  1
  Cr  Cr45  1  0.82900726  0.15950527  0.49762160  1
  Ni  Ni46  1  0.66271495  0.99093092  0.66089964  1
  Cr  Cr47  1  0.82948946  0.15776497  0.82429252  1
  Cr  Cr48  1  0.83062042  0.49342535  0.49446703  1
  Cr  Cr49  1  0.66477984  0.33282335  0.66502108  1
  Ni  Ni50  1  0.83163830  0.49765876  0.82992042  1
  Ni  Ni51  1  0.82849183  0.83428287  0.49662189  1
  Cr  Cr52  1  0.66268939  0.66308261  0.66291155  1
  Fe  Fe53  1  0.82948535  0.83084532  0.82806230  1
" 