6476,Ni22Fe34Cr43_0,-222.009159783423, 177.452701962918,Ni22Fe34Cr43,"# generated using pymatgen
 data_Cr4Fe3Ni2
_symmetry_space_group_name_H-M   'P 1'
_cell_length_a   7.49969061
_cell_length_b   7.49969061
_cell_length_c   10.60616417
_cell_angle_alpha   90.00000000
_cell_angle_beta   90.00000000
_cell_angle_gamma   90.00000000
_symmetry_Int_Tables_number   1
_chemical_formula_structural   Cr4Fe3Ni2
_chemical_formula_sum   'Cr24 Fe18 Ni12'
_cell_volume   596.54751366
_cell_formula_units_Z   6
loop_
 _symmetry_equiv_pos_site_id
 _symmetry_equiv_pos_as_xyz
  1  'x, y, z'
loop_
 _atom_site_type_symbol
 _atom_site_label
 _atom_site_symmetry_multiplicity
 _atom_site_fract_x
 _atom_site_fract_y
 _atom_site_fract_z
 _atom_site_occupancy
  Fe  Fe0  1  0.99777501  0.99439954  -0.00063886  1
  Cr  Cr1  1  0.16284041  0.16216886  0.16353388  1
  Fe  Fe2  1  0.99728398  0.99456517  0.32943685  1
  Cr  Cr3  1  0.99492757  0.33271515  0.99709236  1
  Fe  Fe4  1  0.15885137  0.50058607  0.16568388  1
  Cr  Cr5  1  0.99501586  0.33262585  0.33244994  1
  Ni  Ni6  1  0.99665283  0.66429262  0.00057026  1
  Fe  Fe7  1  0.16186260  0.82961442  0.16596592  1
  Ni  Ni8  1  0.99473620  0.66517466  0.32846302  1
  Cr  Cr9  1  0.33294325  0.99740911  0.99566090  1
  Ni  Ni10  1  0.50155258  0.16404355  0.16561432  1
  Cr  Cr11  1  0.33427366  0.99628396  0.33202301  1
  Cr  Cr12  1  0.33072374  0.32869779  0.00179093  1
  Cr  Cr13  1  0.49624010  0.49829875  0.16526672  1
  Cr  Cr14  1  0.33134802  0.33029792  0.32832905  1
  Cr  Cr15  1  0.33064731  0.66836238  0.00110386  1
  Fe  Fe16  1  0.50181579  0.83217750  0.16760767  1
  Fe  Fe17  1  0.33198983  0.66576526  0.33132112  1
  Cr  Cr18  1  0.66352591  0.99680956  0.00238478  1
  Ni  Ni19  1  0.82960489  0.16216371  0.16591431  1
  Fe  Fe20  1  0.66689242  0.99636946  0.32788767  1
  Fe  Fe21  1  0.66578332  0.33130089  0.00104788  1
  Ni  Ni22  1  0.82976775  0.50047249  0.16469351  1
  Fe  Fe23  1  0.66500941  0.33451181  0.32923969  1
  Cr  Cr24  1  0.66804535  0.66556153  0.99705483  1
  Ni  Ni25  1  0.83460720  0.83076940  0.16570467  1
  Ni  Ni26  1  0.66589982  0.66634382  0.33136150  1
  Cr  Cr27  1  0.16340368  0.16199934  0.50087548  1
  Cr  Cr28  1  0.00033181  -0.00201622  0.66498589  1
  Fe  Fe29  1  0.16407668  0.16315081  0.83062143  1
  Cr  Cr30  1  0.16708611  0.50150744  0.49474955  1
  Fe  Fe31  1  0.99451658  0.33222138  0.66448815  1
  Cr  Cr32  1  0.16582726  0.50101932  0.83314146  1
  Fe  Fe33  1  0.16694376  0.82985387  0.49726056  1
  Cr  Cr34  1  0.99480574  0.66071242  0.66367501  1
  Fe  Fe35  1  0.16621502  0.83082080  0.83048288  1
  Cr  Cr36  1  0.50042704  0.16628454  0.49749150  1
  Ni  Ni37  1  0.33453332  0.99521635  0.66629838  1
  Cr  Cr38  1  0.49938189  0.16576849  0.83063920  1
  Ni  Ni39  1  0.49886328  0.50217868  0.49734875  1
  Cr  Cr40  1  0.32849405  0.33043070  0.66380382  1
  Cr  Cr41  1  0.49791215  0.49994200  0.83094256  1
  Fe  Fe42  1  0.49853629  0.82929641  0.49905683  1
  Ni  Ni43  1  0.33400256  0.66802199  0.66173292  1
  Fe  Fe44  1  0.49813788  0.83093096  0.82751395  1
  Cr  Cr45  1  0.82924409  0.16119263  0.49670482  1
  Ni  Ni46  1  0.66150539  0.99505380  0.66304133  1
  Cr  Cr47  1  0.82980675  0.16199292  0.83034916  1
  Fe  Fe48  1  0.82685463  0.49849861  0.49569201  1
  Fe  Fe49  1  0.66465011  0.33400198  0.66283000  1
  Fe  Fe50  1  0.83002891  0.49725069  0.83128873  1
  Cr  Cr51  1  0.83130628  0.83087746  0.49488132  1
  Ni  Ni52  1  0.66289011  0.66405886  0.66353891  1
  Cr  Cr53  1  0.83208282  0.83043289  0.83248206  1
" 