7240,Ni22Fe21Cr56_16,-217.032426149518, 164.931697570879,Ni22Fe21Cr56,"# generated using pymatgen
 data_Cr31Fe11Ni12
_symmetry_space_group_name_H-M   'P 1'
_cell_length_a   7.53144920
_cell_length_b   7.53144920
_cell_length_c   10.65107761
_cell_angle_alpha   90.00000000
_cell_angle_beta   90.00000000
_cell_angle_gamma   90.00000000
_symmetry_Int_Tables_number   1
_chemical_formula_structural   Cr31Fe11Ni12
_chemical_formula_sum   'Cr31 Fe11 Ni12'
_cell_volume   604.15816808
_cell_formula_units_Z   1
loop_
 _symmetry_equiv_pos_site_id
 _symmetry_equiv_pos_as_xyz
  1  'x, y, z'
loop_
 _atom_site_type_symbol
 _atom_site_label
 _atom_site_symmetry_multiplicity
 _atom_site_fract_x
 _atom_site_fract_y
 _atom_site_fract_z
 _atom_site_occupancy
  Fe  Fe0  1  0.99409751  0.99506328  -0.00259711  1
  Cr  Cr1  1  0.16059068  0.16201650  0.16410466  1
  Fe  Fe2  1  0.99433087  -0.00236710  0.32988156  1
  Fe  Fe3  1  0.99502811  0.32711747  -0.00386268  1
  Cr  Cr4  1  0.16153956  0.49400797  0.16108251  1
  Fe  Fe5  1  0.99226915  0.32646266  0.33010542  1
  Cr  Cr6  1  -0.00309460  0.66373748  0.99530313  1
  Cr  Cr7  1  0.16192421  0.83136818  0.16461618  1
  Cr  Cr8  1  0.99460747  0.66544559  0.32930803  1
  Cr  Cr9  1  0.33288389  0.99457054  -0.00362101  1
  Ni  Ni10  1  0.49776749  0.16138508  0.16347809  1
  Fe  Fe11  1  0.32967228  -0.00410023  0.32950301  1
  Cr  Cr12  1  0.32933921  0.32972861  0.99458652  1
  Ni  Ni13  1  0.49759441  0.49463620  0.16511000  1
  Cr  Cr14  1  0.33111082  0.32679937  0.32850781  1
  Cr  Cr15  1  0.32835213  0.66290763  0.99533628  1
  Ni  Ni16  1  0.49797601  0.83101513  0.16211629  1
  Cr  Cr17  1  0.32872681  0.66409069  0.32657831  1
  Ni  Ni18  1  0.66454411  0.99566032  -0.00125621  1
  Ni  Ni19  1  0.82864383  0.16095111  0.16301853  1
  Cr  Cr20  1  0.66405734  -0.00240630  0.32540417  1
  Cr  Cr21  1  0.66178207  0.32456943  -0.00096408  1
  Cr  Cr22  1  0.82954576  0.49434380  0.16276246  1
  Ni  Ni23  1  0.66458747  0.32684078  0.32925420  1
  Cr  Cr24  1  0.66190549  0.66615407  -0.00189230  1
  Ni  Ni25  1  0.82807351  0.83286436  0.16216517  1
  Cr  Cr26  1  0.66401817  0.66247617  0.32850421  1
  Ni  Ni27  1  0.15810470  0.15931048  0.49386343  1
  Fe  Fe28  1  -0.00305327  0.99556085  0.66068492  1
  Cr  Cr29  1  0.16012126  0.16143588  0.82963410  1
  Cr  Cr30  1  0.16189831  0.49510605  0.49389612  1
  Cr  Cr31  1  -0.00422177  0.32834590  0.66189868  1
  Ni  Ni32  1  0.16057352  0.49676907  0.83002555  1
  Ni  Ni33  1  0.15972189  0.83296701  0.49487035  1
  Cr  Cr34  1  -0.00421026  0.66464257  0.66185932  1
  Ni  Ni35  1  0.16206357  0.82931540  0.82823141  1
  Cr  Cr36  1  0.49469547  0.16210760  0.49493014  1
  Cr  Cr37  1  0.32712809  0.99518171  0.66217488  1
  Cr  Cr38  1  0.49741342  0.15964184  0.82950904  1
  Fe  Fe39  1  0.49600594  0.49589093  0.49432754  1
  Cr  Cr40  1  0.32763156  0.32844357  0.66335814  1
  Cr  Cr41  1  0.49728941  0.49756751  0.82661571  1
  Cr  Cr42  1  0.49556463  0.82782223  0.49633654  1
  Cr  Cr43  1  0.32617096  0.66347320  0.66451471  1
  Ni  Ni44  1  0.49572682  0.82906159  0.82939648  1
  Fe  Fe45  1  0.83133538  0.16134298  0.49318916  1
  Cr  Cr46  1  0.66518592  0.99558325  0.66352340  1
  Cr  Cr47  1  0.82978378  0.16132313  0.83157934  1
  Fe  Fe48  1  0.82826927  0.49496666  0.49436889  1
  Cr  Cr49  1  0.66386704  0.32807837  0.65883193  1
  Cr  Cr50  1  0.82927926  0.49538338  0.82933130  1
  Fe  Fe51  1  0.83090077  0.83145555  0.49523303  1
  Fe  Fe52  1  0.66238211  0.66282273  0.66112105  1
  Cr  Cr53  1  0.82762086  0.83018415  0.82928404  1
" 