7326,Ni22Fe34Cr43_4,-222.270126887404, 171.57787328461,Ni22Fe34Cr43,"# generated using pymatgen
 data_Cr4Fe3Ni2
_symmetry_space_group_name_H-M   'P 1'
_cell_length_a   7.50906977
_cell_length_b   7.50906977
_cell_length_c   10.61942830
_cell_angle_alpha   90.00000000
_cell_angle_beta   90.00000000
_cell_angle_gamma   90.00000000
_symmetry_Int_Tables_number   1
_chemical_formula_structural   Cr4Fe3Ni2
_chemical_formula_sum   'Cr24 Fe18 Ni12'
_cell_volume   598.78845169
_cell_formula_units_Z   6
loop_
 _symmetry_equiv_pos_site_id
 _symmetry_equiv_pos_as_xyz
  1  'x, y, z'
loop_
 _atom_site_type_symbol
 _atom_site_label
 _atom_site_symmetry_multiplicity
 _atom_site_fract_x
 _atom_site_fract_y
 _atom_site_fract_z
 _atom_site_occupancy
  Fe  Fe0  1  -0.00239676  0.99457579  0.99578558  1
  Fe  Fe1  1  0.16471968  0.16147835  0.16422488  1
  Fe  Fe2  1  -0.00270100  0.99690378  0.33165049  1
  Cr  Cr3  1  -0.00003532  0.32795566  -0.00167335  1
  Cr  Cr4  1  0.16578282  0.49777187  0.16102218  1
  Cr  Cr5  1  -0.00152590  0.32938379  0.33184705  1
  Fe  Fe6  1  0.99515192  0.66774905  0.99682342  1
  Cr  Cr7  1  0.16268449  0.83184636  0.16531009  1
  Cr  Cr8  1  0.99532715  0.66291419  0.33104432  1
  Cr  Cr9  1  0.33201555  -0.00011595  0.99679280  1
  Fe  Fe10  1  0.49763142  0.16343574  0.16326828  1
  Fe  Fe11  1  0.33171230  -0.00222307  0.33284041  1
  Ni  Ni12  1  0.33100040  0.32704145  0.99568413  1
  Cr  Cr13  1  0.49760383  0.49639773  0.16131466  1
  Cr  Cr14  1  0.32979274  0.32708602  0.32842752  1
  Cr  Cr15  1  0.33366200  0.66493143  0.99520671  1
  Cr  Cr16  1  0.49942123  0.83094338  0.16653800  1
  Cr  Cr17  1  0.33228727  0.66464262  0.33297193  1
  Cr  Cr18  1  0.66314422  0.99425935  0.99545400  1
  Cr  Cr19  1  0.82855143  0.16059448  0.16468867  1
  Ni  Ni20  1  0.66174814  0.99679505  0.33010745  1
  Fe  Fe21  1  0.65955076  0.33002589  0.99547693  1
  Cr  Cr22  1  0.82793016  0.49887158  0.16367071  1
  Fe  Fe23  1  0.66218044  0.33133139  0.33191441  1
  Ni  Ni24  1  0.66576910  0.66639212  0.99582744  1
  Ni  Ni25  1  0.83000669  0.83221344  0.16348310  1
  Ni  Ni26  1  0.66388469  0.66697216  0.33180580  1
  Ni  Ni27  1  0.16641682  0.16127527  0.49806625  1
  Ni  Ni28  1  0.00034712  -0.00206474  0.66510577  1
  Fe  Fe29  1  0.16598689  0.16133426  0.82870360  1
  Cr  Cr30  1  0.16658944  0.49817849  0.49856582  1
  Cr  Cr31  1  -0.00163330  0.32899086  0.66142146  1
  Cr  Cr32  1  0.16705310  0.49762182  0.83141529  1
  Fe  Fe33  1  0.16595501  0.83502969  0.49892980  1
  Cr  Cr34  1  0.99719544  0.66604795  0.66379793  1
  Fe  Fe35  1  0.16445214  0.83325486  0.82913557  1
  Fe  Fe36  1  0.49570012  0.16159085  0.49761203  1
  Fe  Fe37  1  0.32987546  0.99546703  0.66408099  1
  Ni  Ni38  1  0.49404202  0.16547405  0.82952972  1
  Fe  Fe39  1  0.49864632  0.49695332  0.49728595  1
  Fe  Fe40  1  0.33284574  0.32876291  0.66442082  1
  Fe  Fe41  1  0.49814182  0.49685589  0.83111213  1
  Ni  Ni42  1  0.49507381  0.83130796  0.49632226  1
  Ni  Ni43  1  0.33312091  0.66503336  0.66387884  1
  Ni  Ni44  1  0.49570389  0.83079329  0.82974430  1
  Cr  Cr45  1  0.82908367  0.16311673  0.49799499  1
  Cr  Cr46  1  0.66158214  0.99566624  0.66663882  1
  Cr  Cr47  1  0.82999577  0.16241131  0.82917612  1
  Fe  Fe48  1  0.82643602  0.49754327  0.49650156  1
  Fe  Fe49  1  0.66010096  0.33094070  0.66382731  1
  Cr  Cr50  1  0.82956832  0.49689597  0.83150229  1
  Cr  Cr51  1  0.82887886  0.83355854  0.49572689  1
  Cr  Cr52  1  0.66134760  0.66554230  0.66387816  1
  Ni  Ni53  1  0.83149743  0.83114709  0.83302059  1
" 