8794,Ni22Fe40Cr36_7,-224.577746719973, 185.222171322701,Ni22Fe40Cr36,"# generated using pymatgen
 data_Cr7Fe7Ni4
_symmetry_space_group_name_H-M   'P 1'
_cell_length_a   7.49076488
_cell_length_b   7.49076488
_cell_length_c   10.59354129
_cell_angle_alpha   90.00000000
_cell_angle_beta   90.00000000
_cell_angle_gamma   90.00000000
_symmetry_Int_Tables_number   1
_chemical_formula_structural   Cr7Fe7Ni4
_chemical_formula_sum   'Cr21 Fe21 Ni12'
_cell_volume   594.42011136
_cell_formula_units_Z   3
loop_
 _symmetry_equiv_pos_site_id
 _symmetry_equiv_pos_as_xyz
  1  'x, y, z'
loop_
 _atom_site_type_symbol
 _atom_site_label
 _atom_site_symmetry_multiplicity
 _atom_site_fract_x
 _atom_site_fract_y
 _atom_site_fract_z
 _atom_site_occupancy
  Fe  Fe0  1  0.99703041  -0.00119224  -0.00066200  1
  Ni  Ni1  1  0.16665410  0.16311127  0.16310703  1
  Cr  Cr2  1  -0.00031292  0.99624076  0.33122357  1
  Ni  Ni3  1  -0.00020438  0.33105715  0.99707100  1
  Cr  Cr4  1  0.16589459  0.49856740  0.16327536  1
  Cr  Cr5  1  0.99784401  0.33300302  0.33404954  1
  Fe  Fe6  1  0.99753624  0.66461687  0.99751360  1
  Fe  Fe7  1  0.16393313  0.83262510  0.16582866  1
  Ni  Ni8  1  -0.00066156  0.66670900  0.33231685  1
  Cr  Cr9  1  0.33267606  0.00074096  0.00043878  1
  Ni  Ni10  1  0.49611914  0.16623161  0.16545392  1
  Fe  Fe11  1  0.33121270  0.99755967  0.33137532  1
  Fe  Fe12  1  0.33098357  0.33102783  -0.00026127  1
  Ni  Ni13  1  0.49778306  0.49670101  0.16594902  1
  Cr  Cr14  1  0.33331253  0.33080232  0.32781273  1
  Cr  Cr15  1  0.33163343  0.66325805  -0.00079501  1
  Cr  Cr16  1  0.49806414  0.83127358  0.16622597  1
  Fe  Fe17  1  0.32969851  0.66640655  0.33165719  1
  Fe  Fe18  1  0.66618475  -0.00094337  0.99777431  1
  Cr  Cr19  1  0.83267629  0.16401603  0.16413641  1
  Cr  Cr20  1  0.66370447  -0.00072122  0.33241427  1
  Cr  Cr21  1  0.66439422  0.33073392  -0.00057830  1
  Cr  Cr22  1  0.83054291  0.49983862  0.16669335  1
  Fe  Fe23  1  0.66446765  0.33157402  0.33191507  1
  Cr  Cr24  1  0.66625352  0.66705464  0.99815580  1
  Fe  Fe25  1  0.83381242  0.83179872  0.16492571  1
  Cr  Cr26  1  0.66590080  0.66455608  0.33083065  1
  Cr  Cr27  1  0.16644383  0.16318238  0.49932311  1
  Cr  Cr28  1  0.99795299  0.99686921  0.66394606  1
  Cr  Cr29  1  0.16558198  0.16628664  0.83296924  1
  Fe  Fe30  1  0.16369773  0.50190452  0.49907667  1
  Cr  Cr31  1  0.99778171  0.33495204  0.66455690  1
  Fe  Fe32  1  0.16292839  0.49809651  0.83159174  1
  Fe  Fe33  1  0.16521066  0.82917078  0.49884860  1
  Ni  Ni34  1  0.99714006  0.66380385  0.66462900  1
  Cr  Cr35  1  0.16432660  0.83132159  0.82998372  1
  Fe  Fe36  1  0.49911072  0.16438724  0.49951031  1
  Ni  Ni37  1  0.33458696  0.99826982  0.66334676  1
  Fe  Fe38  1  0.49894728  0.16517188  0.83060953  1
  Cr  Cr39  1  0.49988170  0.49845057  0.49892798  1
  Ni  Ni40  1  0.33325414  0.33113143  0.66684420  1
  Cr  Cr41  1  0.49887629  0.49808140  0.83014721  1
  Fe  Fe42  1  0.49739207  0.83249314  0.49949554  1
  Fe  Fe43  1  0.33162694  0.66524723  0.66474779  1
  Fe  Fe44  1  0.49978132  0.83249387  0.83022323  1
  Fe  Fe45  1  0.82911634  0.16590000  0.49853840  1
  Cr  Cr46  1  0.66315056  0.99767957  0.66651396  1
  Fe  Fe47  1  0.83070480  0.16649664  0.83305288  1
  Fe  Fe48  1  0.83243546  0.50019186  0.49996750  1
  Ni  Ni49  1  0.66412693  0.33257443  0.66400258  1
  Ni  Ni50  1  0.83234613  0.49954104  0.82975799  1
  Ni  Ni51  1  0.83307714  0.82921066  0.49929529  1
  Ni  Ni52  1  0.66668549  0.66513502  0.66560131  1
  Fe  Fe53  1  0.83121452  0.82982190  0.83115753  1
" 