2423,Ni22Fe78_16,-242.942427253517, 208.065102123973,Ni22Fe78,"# generated using pymatgen
 data_Fe11Ni43
_symmetry_space_group_name_H-M   'P 1'
_cell_length_a   7.42486663
_cell_length_b   7.42486663
_cell_length_c   10.50034709
_cell_angle_alpha   90.00000000
_cell_angle_beta   90.00000000
_cell_angle_gamma   90.00000000
_symmetry_Int_Tables_number   1
_chemical_formula_structural   Fe11Ni43
_chemical_formula_sum   'Fe11 Ni43'
_cell_volume   578.86990219
_cell_formula_units_Z   1
loop_
 _symmetry_equiv_pos_site_id
 _symmetry_equiv_pos_as_xyz
  1  'x, y, z'
loop_
 _atom_site_type_symbol
 _atom_site_label
 _atom_site_symmetry_multiplicity
 _atom_site_fract_x
 _atom_site_fract_y
 _atom_site_fract_z
 _atom_site_occupancy
  Ni  Ni0  1  1.00226529  1.00266418  0.00368989  1
  Ni  Ni1  1  0.16955440  0.17083476  0.17034668  1
  Fe  Fe2  1  0.00487083  0.00392818  0.33598486  1
  Ni  Ni3  1  1.00232498  0.33526413  0.00320350  1
  Ni  Ni4  1  0.16903737  0.50203380  0.17039276  1
  Ni  Ni5  1  1.00170470  0.33657726  0.33577102  1
  Ni  Ni6  1  1.00265605  0.67061611  0.00287589  1
  Fe  Fe7  1  0.16954106  0.83587050  0.16940694  1
  Ni  Ni8  1  1.00278146  0.67033397  0.33549194  1
  Fe  Fe9  1  0.33581631  0.00327117  1.00258744  1
  Ni  Ni10  1  0.50266159  0.16904368  0.16994517  1
  Ni  Ni11  1  0.33674608  1.00231834  0.33531046  1
  Ni  Ni12  1  0.33701009  0.33664502  0.00365638  1
  Ni  Ni13  1  0.50259535  0.50315071  0.17088310  1
  Ni  Ni14  1  0.33700398  0.33518040  0.33588306  1
  Ni  Ni15  1  0.33667535  0.66943814  0.00328222  1
  Ni  Ni16  1  0.50386392  0.83612458  0.17002411  1
  Ni  Ni17  1  0.33560091  0.67107034  0.33568643  1
  Fe  Fe18  1  0.67043670  1.00270180  1.00231449  1
  Ni  Ni19  1  0.83643886  0.16933775  0.17061117  1
  Fe  Fe20  1  0.66835084  0.00314956  0.33656496  1
  Ni  Ni21  1  0.66920218  0.33607274  0.00323889  1
  Ni  Ni22  1  0.83677864  0.50326825  0.16927968  1
  Ni  Ni23  1  0.66969538  0.33504065  0.33569373  1
  Ni  Ni24  1  0.66920390  0.66927425  0.00354502  1
  Ni  Ni25  1  0.83534488  0.83580256  0.17105742  1
  Fe  Fe26  1  0.66853057  0.66808670  0.33597877  1
  Ni  Ni27  1  0.16991809  0.16967233  0.50288386  1
  Ni  Ni28  1  0.00331998  1.00250312  0.66869923  1
  Ni  Ni29  1  0.16915580  0.16986591  0.83523857  1
  Fe  Fe30  1  0.17056455  0.50300206  0.50241072  1
  Ni  Ni31  1  1.00239381  0.33578432  0.66961315  1
  Ni  Ni32  1  0.16918108  0.50254823  0.83524189  1
  Ni  Ni33  1  0.16991942  0.83649476  0.50238612  1
  Ni  Ni34  1  0.00300424  0.67030298  0.66998487  1
  Ni  Ni35  1  0.16922608  0.83615195  0.83607067  1
  Ni  Ni36  1  0.50210997  0.16867103  0.50288209  1
  Ni  Ni37  1  0.33612462  1.00243694  0.67018512  1
  Ni  Ni38  1  0.50266163  0.16966529  0.83564642  1
  Fe  Fe39  1  0.50118834  0.50235756  0.50287109  1
  Ni  Ni40  1  0.33673179  0.33540746  0.66898323  1
  Ni  Ni41  1  0.50307027  0.50324831  0.83514849  1
  Ni  Ni42  1  0.50264391  0.83643995  0.50319028  1
  Ni  Ni43  1  0.33611175  0.67067581  0.66936281  1
  Ni  Ni44  1  0.50326795  0.83560161  0.83529682  1
  Fe  Fe45  1  0.83592169  0.16891621  0.50328454  1
  Ni  Ni46  1  0.66906573  0.00309455  0.66984273  1
  Ni  Ni47  1  0.83672720  0.16956952  0.83523633  1
  Fe  Fe48  1  0.83666768  0.50251123  0.50300291  1
  Ni  Ni49  1  0.66931185  0.33571655  0.66980803  1
  Ni  Ni50  1  0.83628636  0.50325038  0.83644970  1
  Fe  Fe51  1  0.83663973  0.83709659  0.50336144  1
  Ni  Ni52  1  0.66942040  0.66965420  0.66877416  1
  Ni  Ni53  1  0.83606258  0.83564974  0.83482691  1
" 