1860,Ni22Fe21Cr56_11,-216.973285147018, 168.98175417061,Ni22Fe21Cr56,"# generated using pymatgen
 data_Cr31Fe11Ni12
_symmetry_space_group_name_H-M   'P 1'
_cell_length_a   7.52868183
_cell_length_b   7.52868183
_cell_length_c   10.64716394
_cell_angle_alpha   90.00000000
_cell_angle_beta   90.00000000
_cell_angle_gamma   90.00000000
_symmetry_Int_Tables_number   1
_chemical_formula_structural   Cr31Fe11Ni12
_chemical_formula_sum   'Cr31 Fe11 Ni12'
_cell_volume   603.49243225
_cell_formula_units_Z   1
loop_
 _symmetry_equiv_pos_site_id
 _symmetry_equiv_pos_as_xyz
  1  'x, y, z'
loop_
 _atom_site_type_symbol
 _atom_site_label
 _atom_site_symmetry_multiplicity
 _atom_site_fract_x
 _atom_site_fract_y
 _atom_site_fract_z
 _atom_site_occupancy
  Ni  Ni0  1  0.99201416  -0.00296683  0.99482257  1
  Ni  Ni1  1  0.15609045  0.16275127  0.16206735  1
  Cr  Cr2  1  0.99393576  0.99587510  0.32892234  1
  Fe  Fe3  1  -0.00382952  0.32787429  0.99471310  1
  Cr  Cr4  1  0.15864835  0.49493550  0.16152774  1
  Fe  Fe5  1  0.99485531  0.32746645  0.32877719  1
  Ni  Ni6  1  0.99306000  0.66478285  0.99356550  1
  Cr  Cr7  1  0.16240924  0.82957993  0.16004765  1
  Cr  Cr8  1  0.99561860  0.66576193  0.33223663  1
  Cr  Cr9  1  0.32603465  -0.00080479  -0.00356213  1
  Fe  Fe10  1  0.49710113  0.16395342  0.16027996  1
  Cr  Cr11  1  0.32769542  -0.00155143  0.32593623  1
  Cr  Cr12  1  0.32957840  0.32865626  -0.00336503  1
  Cr  Cr13  1  0.49818221  0.49941467  0.16198730  1
  Cr  Cr14  1  0.32786509  0.32892273  0.32707025  1
  Cr  Cr15  1  0.32676611  0.66067328  0.99032478  1
  Cr  Cr16  1  0.49795828  0.82932938  0.15935215  1
  Cr  Cr17  1  0.32751589  0.66131648  0.33382599  1
  Fe  Fe18  1  0.66489205  -0.00353953  -0.00359982  1
  Ni  Ni19  1  0.83153964  0.16326001  0.15737818  1
  Cr  Cr20  1  0.66730569  -0.00278866  0.32438478  1
  Fe  Fe21  1  0.66537930  0.32718046  -0.00300711  1
  Cr  Cr22  1  0.83080142  0.49562458  0.16133473  1
  Cr  Cr23  1  0.66201939  0.32691807  0.32948291  1
  Ni  Ni24  1  0.66749200  0.66282122  -0.00315894  1
  Fe  Fe25  1  0.83195511  0.83053992  0.15873620  1
  Cr  Cr26  1  0.66573011  0.66499495  0.33240505  1
  Cr  Cr27  1  0.16121231  0.16169862  0.49632239  1
  Fe  Fe28  1  0.99561018  0.99377925  0.66359817  1
  Cr  Cr29  1  0.16013559  0.16080672  0.82717082  1
  Ni  Ni30  1  0.15959202  0.49416315  0.49621889  1
  Ni  Ni31  1  -0.00362462  0.32699138  0.66436160  1
  Ni  Ni32  1  0.15869912  0.49483300  0.83115389  1
  Ni  Ni33  1  0.16062496  0.82845966  0.49934699  1
  Cr  Cr34  1  -0.00320634  0.66222746  0.66314811  1
  Ni  Ni35  1  0.15905683  0.82976363  0.82958048  1
  Cr  Cr36  1  0.49603623  0.16121497  0.49907914  1
  Fe  Fe37  1  0.32706518  0.99422227  0.66380695  1
  Cr  Cr38  1  0.49963191  0.16073287  0.82744085  1
  Fe  Fe39  1  0.49419672  0.49570117  0.49699949  1
  Cr  Cr40  1  0.32859534  0.33114264  0.66371469  1
  Cr  Cr41  1  0.50100406  0.49647721  0.83025429  1
  Cr  Cr42  1  0.49511321  0.83272055  0.49750502  1
  Cr  Cr43  1  0.32583300  0.66090022  0.66474167  1
  Cr  Cr44  1  0.49532521  0.83082494  0.82960357  1
  Cr  Cr45  1  0.83014700  0.16262909  0.50093054  1
  Ni  Ni46  1  0.66737274  -0.00172448  0.66408979  1
  Fe  Fe47  1  0.83130450  0.16138323  0.82899086  1
  Cr  Cr48  1  0.83098892  0.49323245  0.49593050  1
  Fe  Fe49  1  0.66521924  0.32906624  0.66352763  1
  Cr  Cr50  1  0.83112082  0.49187948  0.83189516  1
  Ni  Ni51  1  0.83010780  0.83148324  0.49677356  1
  Cr  Cr52  1  0.66492915  0.66431491  0.65891513  1
  Cr  Cr53  1  0.82825681  0.82905672  0.83137641  1
" 