1480,Ni22Fe68Cr8_3,-231.384149540151, 186.595111511517,Ni22Fe68Cr8,"# generated using pymatgen
 data_Cr5Fe37Ni12
_symmetry_space_group_name_H-M   'P 1'
_cell_length_a   7.42270182
_cell_length_b   7.42270182
_cell_length_c   10.49728558
_cell_angle_alpha   90.00000000
_cell_angle_beta   90.00000000
_cell_angle_gamma   90.00000000
_symmetry_Int_Tables_number   1
_chemical_formula_structural   Cr5Fe37Ni12
_chemical_formula_sum   'Cr5 Fe37 Ni12'
_cell_volume   578.36371904
_cell_formula_units_Z   1
loop_
 _symmetry_equiv_pos_site_id
 _symmetry_equiv_pos_as_xyz
  1  'x, y, z'
loop_
 _atom_site_type_symbol
 _atom_site_label
 _atom_site_symmetry_multiplicity
 _atom_site_fract_x
 _atom_site_fract_y
 _atom_site_fract_z
 _atom_site_occupancy
  Fe  Fe0  1  1.00041731  1.00163689  1.00212973  1
  Cr  Cr1  1  0.16951103  0.17028620  0.17050523  1
  Cr  Cr2  1  1.00143050  0.00304828  0.33650367  1
  Fe  Fe3  1  1.00138078  0.33734569  1.00243817  1
  Fe  Fe4  1  0.16881317  0.50382385  0.16931716  1
  Ni  Ni5  1  1.00168661  0.33868786  0.33729233  1
  Fe  Fe6  1  1.00231921  0.66997783  0.00346985  1
  Fe  Fe7  1  0.16905367  0.83292124  0.16896583  1
  Ni  Ni8  1  1.00244198  0.66681995  0.33599566  1
  Cr  Cr9  1  0.33716871  1.00212407  0.00372148  1
  Fe  Fe10  1  0.50581206  0.17066628  0.17046798  1
  Fe  Fe11  1  0.33779114  0.00375677  0.33737128  1
  Fe  Fe12  1  0.33817044  0.33896662  1.00264376  1
  Ni  Ni13  1  0.50446164  0.50349998  0.16843067  1
  Fe  Fe14  1  0.33660071  0.33557151  0.33675318  1
  Ni  Ni15  1  0.33570339  0.66714188  0.00336910  1
  Fe  Fe16  1  0.50504028  0.83569245  0.16901107  1
  Cr  Cr17  1  0.33563845  0.66951341  0.33525620  1
  Ni  Ni18  1  0.67220581  0.00429054  0.00341948  1
  Fe  Fe19  1  0.83364526  0.17091247  0.16880239  1
  Ni  Ni20  1  0.66835362  0.00420295  0.33600581  1
  Fe  Fe21  1  0.66941296  0.33706365  1.00286805  1
  Ni  Ni22  1  0.83565628  0.50372900  0.17083964  1
  Fe  Fe23  1  0.67053057  0.33673774  0.33596836  1
  Ni  Ni24  1  0.66993714  0.66865111  0.00390872  1
  Fe  Fe25  1  0.83486569  0.83500263  0.16907443  1
  Fe  Fe26  1  0.67215327  0.66934441  0.33549978  1
  Fe  Fe27  1  0.17040278  0.17038295  0.50345413  1
  Fe  Fe28  1  0.00383339  1.00274951  0.66980403  1
  Fe  Fe29  1  0.16838871  0.17041952  0.83554651  1
  Fe  Fe30  1  0.16874635  0.50251637  0.50338905  1
  Fe  Fe31  1  0.00341290  0.33624006  0.66969529  1
  Fe  Fe32  1  0.16935570  0.50308987  0.83625426  1
  Fe  Fe33  1  0.16995609  0.83606154  0.50465822  1
  Fe  Fe34  1  0.00372037  0.66997157  0.66930298  1
  Fe  Fe35  1  0.16743333  0.83544963  0.83533312  1
  Fe  Fe36  1  0.50293968  0.16905328  0.50293939  1
  Ni  Ni37  1  0.33562704  0.00299453  0.66812245  1
  Fe  Fe38  1  0.50457602  0.17159779  0.83555300  1
  Fe  Fe39  1  0.50332006  0.50256893  0.50357628  1
  Fe  Fe40  1  0.33640313  0.33626603  0.66956600  1
  Fe  Fe41  1  0.50357387  0.50187780  0.83694324  1
  Fe  Fe42  1  0.50343555  0.83733991  0.50414365  1
  Ni  Ni43  1  0.33556760  0.66941767  0.66980944  1
  Cr  Cr44  1  0.50306975  0.83512296  0.83559013  1
  Fe  Fe45  1  0.83561540  0.17026842  0.50363145  1
  Fe  Fe46  1  0.66961261  0.00349971  0.66909855  1
  Ni  Ni47  1  0.83723998  0.17017566  0.83685677  1
  Fe  Fe48  1  0.83689379  0.50301289  0.50250288  1
  Fe  Fe49  1  0.66914647  0.33637810  0.67012609  1
  Ni  Ni50  1  0.83647194  0.50222371  0.83592696  1
  Fe  Fe51  1  0.83556488  0.83568108  0.50310377  1
  Fe  Fe52  1  0.66958629  0.66908276  0.66956560  1
  Fe  Fe53  1  0.83721198  0.83644983  0.83678509  1
" 