8010,Ni22Fe21Cr56_0,-216.925558578285, 166.867453869378,Ni22Fe21Cr56,"# generated using pymatgen
 data_Cr31Fe11Ni12
_symmetry_space_group_name_H-M   'P 1'
_cell_length_a   7.53039957
_cell_length_b   7.53039957
_cell_length_c   10.64959320
_cell_angle_alpha   90.00000000
_cell_angle_beta   90.00000000
_cell_angle_gamma   90.00000000
_symmetry_Int_Tables_number   1
_chemical_formula_structural   Cr31Fe11Ni12
_chemical_formula_sum   'Cr31 Fe11 Ni12'
_cell_volume   603.90560506
_cell_formula_units_Z   1
loop_
 _symmetry_equiv_pos_site_id
 _symmetry_equiv_pos_as_xyz
  1  'x, y, z'
loop_
 _atom_site_type_symbol
 _atom_site_label
 _atom_site_symmetry_multiplicity
 _atom_site_fract_x
 _atom_site_fract_y
 _atom_site_fract_z
 _atom_site_occupancy
  Cr  Cr0  1  0.99129765  0.99264462  0.99226566  1
  Cr  Cr1  1  0.16303740  0.16172147  0.16272903  1
  Cr  Cr2  1  0.99508191  0.99502972  0.33033647  1
  Cr  Cr3  1  0.99491665  0.33194845  -0.00070872  1
  Ni  Ni4  1  0.16399149  0.49906499  0.16190022  1
  Cr  Cr5  1  -0.00307757  0.33173104  0.32817435  1
  Fe  Fe6  1  0.99539082  0.66444824  -0.00400128  1
  Cr  Cr7  1  0.16270203  0.82796165  0.16124297  1
  Cr  Cr8  1  0.99576918  0.66060125  0.32662961  1
  Cr  Cr9  1  0.33331720  0.99338262  0.99203588  1
  Cr  Cr10  1  0.49572347  0.16154586  0.16323715  1
  Ni  Ni11  1  0.32760557  0.99499322  0.33045270  1
  Cr  Cr12  1  0.33102819  0.33247962  0.99489056  1
  Ni  Ni13  1  0.49478101  0.49845318  0.16046637  1
  Cr  Cr14  1  0.32766267  0.33107104  0.32896819  1
  Ni  Ni15  1  0.32986215  0.66199224  0.99498614  1
  Cr  Cr16  1  0.49551292  0.82839437  0.16336294  1
  Fe  Fe17  1  0.32876034  0.66088143  0.32651139  1
  Ni  Ni18  1  0.66470352  0.99259191  0.99426280  1
  Fe  Fe19  1  0.82858403  0.16013303  0.16045675  1
  Cr  Cr20  1  0.66272640  0.99399174  0.32640091  1
  Cr  Cr21  1  0.66154370  0.32752118  -0.00357095  1
  Fe  Fe22  1  0.82862405  0.49876045  0.16046382  1
  Cr  Cr23  1  0.66306579  0.33104116  0.32632647  1
  Fe  Fe24  1  0.66153189  0.66513806  -0.00353636  1
  Ni  Ni25  1  0.82818935  0.82688445  0.15896898  1
  Cr  Cr26  1  0.66355389  0.66232126  0.32725107  1
  Ni  Ni27  1  0.16316184  0.16170059  0.49562551  1
  Fe  Fe28  1  0.99558379  -0.00378199  0.66535079  1
  Cr  Cr29  1  0.16112681  0.16089915  0.82932855  1
  Fe  Fe30  1  0.16377910  0.49570230  0.49543727  1
  Cr  Cr31  1  -0.00363557  0.32858850  0.66065723  1
  Cr  Cr32  1  0.16332756  0.49913608  0.83120756  1
  Cr  Cr33  1  0.16453903  0.83009255  0.49486855  1
  Cr  Cr34  1  -0.00301703  0.66579104  0.66286607  1
  Ni  Ni35  1  0.16201212  0.82608185  0.82949898  1
  Cr  Cr36  1  0.49499582  0.16245878  0.49365495  1
  Cr  Cr37  1  0.32923427  0.99436405  0.66485514  1
  Ni  Ni38  1  0.50078995  0.16289465  0.82922512  1
  Cr  Cr39  1  0.49680977  0.49746896  0.49870440  1
  Cr  Cr40  1  0.33100942  0.32965260  0.66387870  1
  Fe  Fe41  1  0.49730684  0.49774707  0.82941317  1
  Cr  Cr42  1  0.49403691  0.82699798  0.49289481  1
  Fe  Fe43  1  0.33105239  0.66301152  0.66561658  1
  Fe  Fe44  1  0.49740821  0.82800856  0.83111656  1
  Cr  Cr45  1  0.82980308  0.16361773  0.49801645  1
  Cr  Cr46  1  0.66244415  0.99462745  0.66544660  1
  Ni  Ni47  1  0.82390812  0.16019151  0.82855702  1
  Cr  Cr48  1  0.82689562  0.49557031  0.49860417  1
  Ni  Ni49  1  0.66104130  0.32943166  0.66587465  1
  Cr  Cr50  1  0.82638140  0.49639699  0.82874975  1
  Cr  Cr51  1  0.82875424  0.82825136  0.49789790  1
  Fe  Fe52  1  0.66019946  0.66216907  0.66529778  1
  Ni  Ni53  1  0.82801932  0.82905507  0.82970624  1
" 