1756,Ni22Fe40Cr36_13,-223.75350623456, 180.760940427072,Ni22Fe40Cr36,"# generated using pymatgen
 data_Cr7Fe7Ni4
_symmetry_space_group_name_H-M   'P 1'
_cell_length_a   7.48826352
_cell_length_b   7.48826352
_cell_length_c   10.59000384
_cell_angle_alpha   90.00000000
_cell_angle_beta   90.00000000
_cell_angle_gamma   90.00000000
_symmetry_Int_Tables_number   1
_chemical_formula_structural   Cr7Fe7Ni4
_chemical_formula_sum   'Cr21 Fe21 Ni12'
_cell_volume   593.82483468
_cell_formula_units_Z   3
loop_
 _symmetry_equiv_pos_site_id
 _symmetry_equiv_pos_as_xyz
  1  'x, y, z'
loop_
 _atom_site_type_symbol
 _atom_site_label
 _atom_site_symmetry_multiplicity
 _atom_site_fract_x
 _atom_site_fract_y
 _atom_site_fract_z
 _atom_site_occupancy
  Cr  Cr0  1  0.99529000  0.00093543  0.99447375  1
  Fe  Fe1  1  0.16727028  0.16551325  0.16473495  1
  Ni  Ni2  1  -0.00135125  -0.00095882  0.33582796  1
  Ni  Ni3  1  0.00132204  0.33624174  0.00094814  1
  Fe  Fe4  1  0.16440889  0.49802071  0.16429334  1
  Fe  Fe5  1  0.99843506  0.33135626  0.33086180  1
  Fe  Fe6  1  -0.00103909  0.66317418  -0.00047643  1
  Cr  Cr7  1  0.16536038  0.83495287  0.16644726  1
  Fe  Fe8  1  0.99683965  0.66680790  0.33278891  1
  Ni  Ni9  1  0.33287150  0.00111338  0.00177342  1
  Fe  Fe10  1  0.49765301  0.16370389  0.16462302  1
  Ni  Ni11  1  0.33239333  -0.00016782  0.33407813  1
  Ni  Ni12  1  0.32940467  0.33513868  -0.00023007  1
  Ni  Ni13  1  0.49894794  0.49749849  0.16419048  1
  Cr  Cr14  1  0.33191586  0.33118600  0.33090058  1
  Fe  Fe15  1  0.33044022  0.66172622  0.00082772  1
  Cr  Cr16  1  0.49834094  0.83204380  0.16273297  1
  Cr  Cr17  1  0.33291968  0.66540414  0.33224051  1
  Ni  Ni18  1  0.66518787  0.99688618  0.99683442  1
  Cr  Cr19  1  0.83438669  0.16557047  0.16621345  1
  Ni  Ni20  1  0.66466128  0.99800655  0.33288839  1
  Cr  Cr21  1  0.66667346  0.33002834  0.00000081  1
  Fe  Fe22  1  0.83186508  0.50025983  0.16719721  1
  Fe  Fe23  1  0.66485951  0.33154128  0.33023064  1
  Fe  Fe24  1  0.66617793  0.66324391  -0.00055492  1
  Cr  Cr25  1  0.83154670  0.83312841  0.16573004  1
  Fe  Fe26  1  0.66557301  0.66645260  0.33303255  1
  Fe  Fe27  1  0.16531631  0.16419094  0.49686435  1
  Fe  Fe28  1  0.99730222  0.99520087  0.66437150  1
  Cr  Cr29  1  0.16513645  0.16543919  0.83231966  1
  Cr  Cr30  1  0.16235240  0.49865679  0.50078166  1
  Cr  Cr31  1  -0.00117635  0.33152871  0.66687483  1
  Fe  Fe32  1  0.16471032  0.49748820  0.83400971  1
  Fe  Fe33  1  0.16225229  0.83320545  0.49618327  1
  Fe  Fe34  1  0.99429829  0.66821165  0.66365483  1
  Cr  Cr35  1  0.16478562  0.82977381  0.83280656  1
  Fe  Fe36  1  0.50045475  0.16453050  0.49667737  1
  Cr  Cr37  1  0.33197948  0.99823774  0.65911937  1
  Cr  Cr38  1  0.49915659  0.16640143  0.83260672  1
  Cr  Cr39  1  0.50309425  0.49841959  0.50211500  1
  Fe  Fe40  1  0.33327237  0.33058273  0.66456900  1
  Cr  Cr41  1  0.49714091  0.49911371  0.82891996  1
  Ni  Ni42  1  0.49908823  0.83318830  0.49572485  1
  Cr  Cr43  1  0.33162551  0.66598964  0.66441574  1
  Cr  Cr44  1  0.49742909  0.82991084  0.83817190  1
  Cr  Cr45  1  0.83249125  0.16660047  0.49801858  1
  Cr  Cr46  1  0.66705610  0.99638002  0.66777025  1
  Ni  Ni47  1  0.83371595  0.16548099  0.83240097  1
  Ni  Ni48  1  0.83188097  0.49904135  0.49503850  1
  Fe  Fe49  1  0.66693188  0.33231507  0.66465120  1
  Cr  Cr50  1  0.83164226  0.49818633  0.83145357  1
  Fe  Fe51  1  0.83022094  0.82900586  0.49640624  1
  Ni  Ni52  1  0.66852414  0.66648284  0.66269134  1
  Fe  Fe53  1  0.83046616  0.83113212  0.83227704  1
" 