6098,Ni22Fe68Cr8_19,-231.24694681893, 187.413611762028,Ni22Fe68Cr8,"# generated using pymatgen
 data_Cr5Fe37Ni12
_symmetry_space_group_name_H-M   'P 1'
_cell_length_a   7.42152471
_cell_length_b   7.42152471
_cell_length_c   10.49562089
_cell_angle_alpha   90.00000000
_cell_angle_beta   90.00000000
_cell_angle_gamma   90.00000000
_symmetry_Int_Tables_number   1
_chemical_formula_structural   Cr5Fe37Ni12
_chemical_formula_sum   'Cr5 Fe37 Ni12'
_cell_volume   578.08860711
_cell_formula_units_Z   1
loop_
 _symmetry_equiv_pos_site_id
 _symmetry_equiv_pos_as_xyz
  1  'x, y, z'
loop_
 _atom_site_type_symbol
 _atom_site_label
 _atom_site_symmetry_multiplicity
 _atom_site_fract_x
 _atom_site_fract_y
 _atom_site_fract_z
 _atom_site_occupancy
  Ni  Ni0  1  0.00452019  1.00055912  1.00288316  1
  Fe  Fe1  1  0.17081309  0.16919057  0.17060394  1
  Fe  Fe2  1  0.00462871  0.00450720  0.33666027  1
  Fe  Fe3  1  0.00446353  0.33653198  1.00275411  1
  Ni  Ni4  1  0.17152349  0.50446588  0.17054614  1
  Ni  Ni5  1  0.00607728  0.33752391  0.33651803  1
  Fe  Fe6  1  0.00566591  0.66968170  1.00257497  1
  Ni  Ni7  1  0.17088661  0.83676598  0.16854523  1
  Cr  Cr8  1  1.00276773  0.67096937  0.33592097  1
  Ni  Ni9  1  0.33563790  1.00263850  0.00338589  1
  Fe  Fe10  1  0.50028477  0.16772305  0.17075088  1
  Fe  Fe11  1  0.33494876  0.00307366  0.33599341  1
  Cr  Cr12  1  0.33641365  0.33561525  0.00406669  1
  Ni  Ni13  1  0.50255054  0.50476665  0.16945163  1
  Ni  Ni14  1  0.33526741  0.33564478  0.33642236  1
  Fe  Fe15  1  0.33500051  0.67138617  0.00330202  1
  Fe  Fe16  1  0.50227472  0.83614557  0.16968400  1
  Fe  Fe17  1  0.33726679  0.66928556  0.33615187  1
  Fe  Fe18  1  0.66832983  1.00245040  1.00259996  1
  Cr  Cr19  1  0.83680373  0.16866558  0.16938184  1
  Ni  Ni20  1  0.66803023  1.00034021  0.33717854  1
  Fe  Fe21  1  0.67025217  0.33619066  1.00182361  1
  Fe  Fe22  1  0.83743294  0.50466725  0.16778113  1
  Cr  Cr23  1  0.66819136  0.33684333  0.33636298  1
  Fe  Fe24  1  0.66887295  0.67059436  1.00287295  1
  Fe  Fe25  1  0.83583564  0.83473274  0.16843655  1
  Fe  Fe26  1  0.66754538  0.67027792  0.33662233  1
  Fe  Fe27  1  0.17000769  0.16931528  0.50288735  1
  Fe  Fe28  1  1.00216128  1.00267761  0.67045059  1
  Fe  Fe29  1  0.16881680  0.16904883  0.83622985  1
  Fe  Fe30  1  0.17035931  0.50298392  0.50392257  1
  Fe  Fe31  1  1.00190702  0.33772571  0.66930421  1
  Ni  Ni32  1  0.16964487  0.50441503  0.83482044  1
  Ni  Ni33  1  0.17036135  0.83648945  0.50511915  1
  Ni  Ni34  1  0.00426660  0.67124543  0.67077820  1
  Fe  Fe35  1  0.16990855  0.83649234  0.83656538  1
  Fe  Fe36  1  0.50125115  0.16814327  0.50400792  1
  Fe  Fe37  1  0.33651689  1.00245333  0.67062433  1
  Fe  Fe38  1  0.50270500  0.16899999  0.83535173  1
  Fe  Fe39  1  0.49989583  0.50297811  0.50264070  1
  Fe  Fe40  1  0.33626761  0.33767653  0.66973136  1
  Fe  Fe41  1  0.50277091  0.50314203  0.83673572  1
  Fe  Fe42  1  0.50109991  0.83760303  0.50209041  1
  Fe  Fe43  1  0.33521036  0.66915116  0.66978609  1
  Fe  Fe44  1  0.50135152  0.83666029  0.83727691  1
  Fe  Fe45  1  0.83765583  0.16870842  0.50295926  1
  Fe  Fe46  1  0.67062425  0.00445890  0.66903788  1
  Fe  Fe47  1  0.83744920  0.17029301  0.83700922  1
  Fe  Fe48  1  0.83917122  0.50171711  0.50435448  1
  Ni  Ni49  1  0.66818971  0.33525934  0.67013175  1
  Fe  Fe50  1  0.83801930  0.50215342  0.83639914  1
  Fe  Fe51  1  0.83797009  0.83851156  0.50299117  1
  Cr  Cr52  1  0.67144413  0.66971660  0.66779748  1
  Fe  Fe53  1  0.83830313  0.83635830  0.83733659  1
" 