5682,Ni22Fe68Cr8_2,-231.259742123049, 189.121495293522,Ni22Fe68Cr8,"# generated using pymatgen
 data_Cr5Fe37Ni12
_symmetry_space_group_name_H-M   'P 1'
_cell_length_a   7.41711614
_cell_length_b   7.41711614
_cell_length_c   10.48938624
_cell_angle_alpha   90.00000000
_cell_angle_beta   90.00000000
_cell_angle_gamma   90.00000000
_symmetry_Int_Tables_number   1
_chemical_formula_structural   Cr5Fe37Ni12
_chemical_formula_sum   'Cr5 Fe37 Ni12'
_cell_volume   577.05902314
_cell_formula_units_Z   1
loop_
 _symmetry_equiv_pos_site_id
 _symmetry_equiv_pos_as_xyz
  1  'x, y, z'
loop_
 _atom_site_type_symbol
 _atom_site_label
 _atom_site_symmetry_multiplicity
 _atom_site_fract_x
 _atom_site_fract_y
 _atom_site_fract_z
 _atom_site_occupancy
  Ni  Ni0  1  1.00197307  0.00483313  0.00395923  1
  Fe  Fe1  1  0.16881894  0.17015822  0.16995170  1
  Fe  Fe2  1  1.00235345  0.00386884  0.33517516  1
  Ni  Ni3  1  0.00382609  0.33468090  0.00375531  1
  Fe  Fe4  1  0.16909144  0.50338850  0.17015134  1
  Fe  Fe5  1  0.00534479  0.33544794  0.33603378  1
  Fe  Fe6  1  0.00463027  0.67104414  0.00337177  1
  Fe  Fe7  1  0.16888870  0.83655199  0.16991844  1
  Ni  Ni8  1  0.00408274  0.67088771  0.33542253  1
  Fe  Fe9  1  0.33591988  0.00345652  1.00305760  1
  Fe  Fe10  1  0.50430544  0.16840514  0.17004559  1
  Fe  Fe11  1  0.33702803  0.00425143  0.33604048  1
  Fe  Fe12  1  0.33517380  0.33584544  1.00282902  1
  Cr  Cr13  1  0.50197864  0.50272877  0.16987713  1
  Ni  Ni14  1  0.33565635  0.33676378  0.33779483  1
  Ni  Ni15  1  0.33662817  0.67023307  0.00382488  1
  Fe  Fe16  1  0.50428120  0.83825983  0.16975102  1
  Fe  Fe17  1  0.33615760  0.66936341  0.33634231  1
  Fe  Fe18  1  0.67100678  0.00392242  1.00299408  1
  Ni  Ni19  1  0.83727424  0.16809067  0.17061536  1
  Fe  Fe20  1  0.67071987  1.00316415  0.33695110  1
  Fe  Fe21  1  0.67075950  0.33438770  1.00154482  1
  Cr  Cr22  1  0.83801507  0.50320944  0.16937417  1
  Fe  Fe23  1  0.66929744  0.33457506  0.33718143  1
  Fe  Fe24  1  0.67061981  0.67179050  1.00157176  1
  Ni  Ni25  1  0.83816930  0.83860132  0.17033107  1
  Fe  Fe26  1  0.66967682  0.67235743  0.33810045  1
  Fe  Fe27  1  0.16973217  0.17163037  0.50309280  1
  Fe  Fe28  1  1.00128957  0.00339823  0.67122773  1
  Fe  Fe29  1  0.16956984  0.17006365  0.83705866  1
  Fe  Fe30  1  0.17031914  0.50141855  0.50197139  1
  Fe  Fe31  1  1.00315748  0.33593922  0.67159533  1
  Fe  Fe32  1  0.16928119  0.50155283  0.83797407  1
  Cr  Cr33  1  0.16868081  0.83757444  0.50291742  1
  Fe  Fe34  1  1.00057729  0.67076396  0.67061747  1
  Fe  Fe35  1  0.16944298  0.83847973  0.83783618  1
  Fe  Fe36  1  0.50363321  0.16956357  0.50379715  1
  Fe  Fe37  1  0.33878087  0.00548260  0.67099957  1
  Ni  Ni38  1  0.50315354  0.17059835  0.83701196  1
  Fe  Fe39  1  0.50283370  0.50326929  0.50227033  1
  Fe  Fe40  1  0.33796660  0.33490161  0.66952234  1
  Fe  Fe41  1  0.50464080  0.50214744  0.83770053  1
  Fe  Fe42  1  0.50690036  0.83726626  0.50316125  1
  Cr  Cr43  1  0.33836508  0.66850360  0.66905622  1
  Fe  Fe44  1  0.50472561  0.83813924  0.83718108  1
  Fe  Fe45  1  0.83673260  0.16755953  0.50364947  1
  Ni  Ni46  1  0.67114671  1.00300578  0.66946825  1
  Ni  Ni47  1  0.83602799  0.17052980  0.83624917  1
  Cr  Cr48  1  0.83593236  0.50450432  0.50312132  1
  Fe  Fe49  1  0.66897207  0.33562581  0.67137316  1
  Fe  Fe50  1  0.83617911  0.50227872  0.83657052  1
  Ni  Ni51  1  0.83583232  0.83719386  0.50389013  1
  Ni  Ni52  1  0.67027855  0.67225681  0.67027843  1
  Fe  Fe53  1  0.83593257  0.83784694  0.83620371  1
" 