1959,Ni22Fe34Cr43_3,-222.197918073454, 177.497480669507,Ni22Fe34Cr43,"# generated using pymatgen
 data_Cr4Fe3Ni2
_symmetry_space_group_name_H-M   'P 1'
_cell_length_a   7.50743989
_cell_length_b   7.50743989
_cell_length_c   10.61712331
_cell_angle_alpha   90.00000000
_cell_angle_beta   90.00000000
_cell_angle_gamma   90.00000000
_symmetry_Int_Tables_number   1
_chemical_formula_structural   Cr4Fe3Ni2
_chemical_formula_sum   'Cr24 Fe18 Ni12'
_cell_volume   598.39862702
_cell_formula_units_Z   6
loop_
 _symmetry_equiv_pos_site_id
 _symmetry_equiv_pos_as_xyz
  1  'x, y, z'
loop_
 _atom_site_type_symbol
 _atom_site_label
 _atom_site_symmetry_multiplicity
 _atom_site_fract_x
 _atom_site_fract_y
 _atom_site_fract_z
 _atom_site_occupancy
  Fe  Fe0  1  -0.00214241  -0.00133485  -0.00049976  1
  Ni  Ni1  1  0.16000362  0.16594105  0.16262531  1
  Fe  Fe2  1  0.99593925  -0.00140813  0.32920281  1
  Fe  Fe3  1  -0.00111037  0.33145014  0.00005473  1
  Ni  Ni4  1  0.16025809  0.49391341  0.16319675  1
  Ni  Ni5  1  -0.00228146  0.33265592  0.32725672  1
  Fe  Fe6  1  0.99698079  0.66184737  -0.00143221  1
  Cr  Cr7  1  0.16231846  0.83270083  0.16272010  1
  Fe  Fe8  1  0.99579323  0.66194005  0.33018767  1
  Ni  Ni9  1  0.32806201  -0.00015610  -0.00219637  1
  Cr  Cr10  1  0.49553597  0.16590279  0.16295406  1
  Cr  Cr11  1  0.32956608  -0.00018293  0.33004567  1
  Fe  Fe12  1  0.32815514  0.32913574  -0.00232655  1
  Cr  Cr13  1  0.49816847  0.49699627  0.16700951  1
  Fe  Fe14  1  0.32804058  0.33184681  0.33172263  1
  Cr  Cr15  1  0.32751750  0.66347663  0.99614020  1
  Cr  Cr16  1  0.49756677  0.82898460  0.16227874  1
  Cr  Cr17  1  0.32907585  0.66099829  0.33332144  1
  Cr  Cr18  1  0.66343843  -0.00171657  0.99677199  1
  Ni  Ni19  1  0.83538749  0.16560622  0.16463990  1
  Cr  Cr20  1  0.66610082  0.99706560  0.33131911  1
  Cr  Cr21  1  0.66805537  0.33061364  0.99681422  1
  Ni  Ni22  1  0.83357182  0.49601580  0.16458387  1
  Fe  Fe23  1  0.66523579  0.33179078  0.33060755  1
  Cr  Cr24  1  0.66816515  0.66308372  -0.00013504  1
  Fe  Fe25  1  0.83332659  0.83017102  0.16524729  1
  Fe  Fe26  1  0.66737385  0.66200995  0.33113694  1
  Cr  Cr27  1  0.16165704  0.16674384  0.49589749  1
  Fe  Fe28  1  0.99534539  -0.00145227  0.66305474  1
  Cr  Cr29  1  0.16316739  0.16527559  0.83287101  1
  Ni  Ni30  1  0.16603796  0.49562781  0.49937250  1
  Ni  Ni31  1  -0.00181920  0.33390808  0.66560862  1
  Fe  Fe32  1  0.16181765  0.49609146  0.82909908  1
  Cr  Cr33  1  0.16025197  0.82938011  0.49934642  1
  Fe  Fe34  1  -0.00141325  0.66065564  0.66313246  1
  Cr  Cr35  1  0.16330646  0.83008480  0.82985397  1
  Fe  Fe36  1  0.49791636  0.16850841  0.49843697  1
  Cr  Cr37  1  0.33244341  -0.00152698  0.66350051  1
  Fe  Fe38  1  0.49619749  0.16474794  0.82976699  1
  Ni  Ni39  1  0.49577140  0.49443665  0.49711528  1
  Ni  Ni40  1  0.33017873  0.33210442  0.66253300  1
  Cr  Cr41  1  0.49675563  0.49501109  0.82967413  1
  Cr  Cr42  1  0.49879566  0.82774094  0.49826920  1
  Fe  Fe43  1  0.32904988  0.65805460  0.66264393  1
  Cr  Cr44  1  0.49596672  0.83087362  0.83153473  1
  Cr  Cr45  1  0.83162534  0.16404390  0.49912465  1
  Fe  Fe46  1  0.66492411  0.00050377  0.66293394  1
  Cr  Cr47  1  0.83151785  0.16620090  0.82767372  1
  Cr  Cr48  1  0.83014749  0.49607811  0.49701071  1
  Ni  Ni49  1  0.66339186  0.32997899  0.66344425  1
  Fe  Fe50  1  0.83380755  0.49632754  0.82971957  1
  Ni  Ni51  1  0.83152915  0.83138564  0.49712570  1
  Cr  Cr52  1  0.66551804  0.66373278  0.66332249  1
  Cr  Cr53  1  0.83274096  0.83086645  0.82941857  1
" 