4554,Ni22Fe78_4,-242.771825111697, 209.163598858077,Ni22Fe78,"# generated using pymatgen
 data_Fe11Ni43
_symmetry_space_group_name_H-M   'P 1'
_cell_length_a   7.41883920
_cell_length_b   7.41883920
_cell_length_c   10.49182301
_cell_angle_alpha   90.00000000
_cell_angle_beta   90.00000000
_cell_angle_gamma   90.00000000
_symmetry_Int_Tables_number   1
_chemical_formula_structural   Fe11Ni43
_chemical_formula_sum   'Fe11 Ni43'
_cell_volume   577.46128377
_cell_formula_units_Z   1
loop_
 _symmetry_equiv_pos_site_id
 _symmetry_equiv_pos_as_xyz
  1  'x, y, z'
loop_
 _atom_site_type_symbol
 _atom_site_label
 _atom_site_symmetry_multiplicity
 _atom_site_fract_x
 _atom_site_fract_y
 _atom_site_fract_z
 _atom_site_occupancy
  Ni  Ni0  1  1.00255423  1.00287138  0.00374740  1
  Ni  Ni1  1  0.16955237  0.17014026  0.16959730  1
  Fe  Fe2  1  1.00254128  1.00311935  0.33690734  1
  Fe  Fe3  1  0.00364860  0.33670451  0.00430729  1
  Ni  Ni4  1  0.17073790  0.50261380  0.17075447  1
  Ni  Ni5  1  1.00216257  0.33753841  0.33697150  1
  Ni  Ni6  1  1.00293100  0.66977572  0.00356693  1
  Fe  Fe7  1  0.16971980  0.83580097  0.16972332  1
  Ni  Ni8  1  0.00334128  0.66849069  0.33616650  1
  Ni  Ni9  1  0.33676103  0.00405760  1.00248557  1
  Fe  Fe10  1  0.50370930  0.16985476  0.16991175  1
  Ni  Ni11  1  0.33727272  1.00316105  0.33660150  1
  Ni  Ni12  1  0.33671389  0.33678818  0.00374831  1
  Ni  Ni13  1  0.50257287  0.50441669  0.16958981  1
  Fe  Fe14  1  0.33703670  0.33710469  0.33651284  1
  Ni  Ni15  1  0.33607981  0.66890090  1.00315053  1
  Ni  Ni16  1  0.50345263  0.83577873  0.17033272  1
  Ni  Ni17  1  0.33578592  0.67024537  0.33622354  1
  Ni  Ni18  1  0.67043292  0.00350726  1.00314958  1
  Ni  Ni19  1  0.83764773  0.16925959  0.17055099  1
  Ni  Ni20  1  0.66942202  0.00434291  0.33666037  1
  Fe  Fe21  1  0.66966214  0.33683885  1.00285696  1
  Ni  Ni22  1  0.83643926  0.50351665  0.16990654  1
  Ni  Ni23  1  0.67117086  0.33605695  0.33596202  1
  Ni  Ni24  1  0.67073423  0.66983478  1.00286484  1
  Ni  Ni25  1  0.83584393  0.83696828  0.16990183  1
  Ni  Ni26  1  0.67061483  0.66935266  0.33711949  1
  Ni  Ni27  1  0.17043857  0.16865909  0.50398640  1
  Ni  Ni28  1  1.00259920  1.00243982  0.66939348  1
  Fe  Fe29  1  0.17049343  0.16947634  0.83671833  1
  Fe  Fe30  1  0.16931664  0.50331184  0.50324760  1
  Fe  Fe31  1  0.00325493  0.33598865  0.66932053  1
  Ni  Ni32  1  0.17064484  0.50409404  0.83601609  1
  Ni  Ni33  1  0.16955691  0.83747441  0.50244309  1
  Ni  Ni34  1  0.00381352  0.67015037  0.67001527  1
  Ni  Ni35  1  0.17023475  0.83625978  0.83756701  1
  Ni  Ni36  1  0.50259892  0.17078828  0.50244063  1
  Ni  Ni37  1  0.33671891  0.00371082  0.67065629  1
  Ni  Ni38  1  0.50327774  0.16976298  0.83712106  1
  Ni  Ni39  1  0.50345077  0.50265671  0.50323657  1
  Ni  Ni40  1  0.33768511  0.33680262  0.66908385  1
  Ni  Ni41  1  0.50235331  0.50314910  0.83691680  1
  Fe  Fe42  1  0.50337545  0.83750480  0.50271980  1
  Ni  Ni43  1  0.33514354  0.66923655  0.67036935  1
  Ni  Ni44  1  0.50239454  0.83683831  0.83571073  1
  Ni  Ni45  1  0.83671245  0.16959472  0.50297927  1
  Ni  Ni46  1  0.67043096  0.00498495  0.66993027  1
  Ni  Ni47  1  0.83616974  0.16934952  0.83621966  1
  Ni  Ni48  1  0.83554311  0.50353387  0.50293066  1
  Ni  Ni49  1  0.66951453  0.33558297  0.67021694  1
  Ni  Ni50  1  0.83674970  0.50321461  0.83691297  1
  Ni  Ni51  1  0.83767319  0.83661670  0.50323904  1
  Fe  Fe52  1  0.66964722  0.67004542  0.67017598  1
  Ni  Ni53  1  0.83711510  0.83718059  0.83660996  1
" 