5820,Ni22Fe78_5,-243.258028682122, 209.435295808789,Ni22Fe78,"# generated using pymatgen
 data_Fe11Ni43
_symmetry_space_group_name_H-M   'P 1'
_cell_length_a   7.42685060
_cell_length_b   7.42685060
_cell_length_c   10.50315284
_cell_angle_alpha   90.00000000
_cell_angle_beta   90.00000000
_cell_angle_gamma   90.00000000
_symmetry_Int_Tables_number   1
_chemical_formula_structural   Fe11Ni43
_chemical_formula_sum   'Fe11 Ni43'
_cell_volume   579.33405813
_cell_formula_units_Z   1
loop_
 _symmetry_equiv_pos_site_id
 _symmetry_equiv_pos_as_xyz
  1  'x, y, z'
loop_
 _atom_site_type_symbol
 _atom_site_label
 _atom_site_symmetry_multiplicity
 _atom_site_fract_x
 _atom_site_fract_y
 _atom_site_fract_z
 _atom_site_occupancy
  Ni  Ni0  1  1.00215405  1.00239831  1.00205248  1
  Ni  Ni1  1  0.16992994  0.16934059  0.16984543  1
  Ni  Ni2  1  1.00246139  0.00276034  0.33630441  1
  Ni  Ni3  1  1.00250147  0.33649034  1.00231585  1
  Ni  Ni4  1  0.16934392  0.50310046  0.16991545  1
  Ni  Ni5  1  0.00276535  0.33627855  0.33614083  1
  Ni  Ni6  1  0.00327242  0.66922660  1.00243013  1
  Ni  Ni7  1  0.16821659  0.83567806  0.16931831  1
  Ni  Ni8  1  0.00276351  0.66907818  0.33622447  1
  Ni  Ni9  1  0.33640493  0.00276959  1.00219586  1
  Ni  Ni10  1  0.50323090  0.16965355  0.16961662  1
  Ni  Ni11  1  0.33610265  0.00312413  0.33615833  1
  Ni  Ni12  1  0.33610182  0.33616282  1.00242940  1
  Fe  Fe13  1  0.50197825  0.50203900  0.16967714  1
  Ni  Ni14  1  0.33583844  0.33595180  0.33602784  1
  Ni  Ni15  1  0.33494990  0.66918817  1.00172527  1
  Fe  Fe16  1  0.50203332  0.83725013  0.16919630  1
  Ni  Ni17  1  0.33546690  0.66904167  0.33692304  1
  Ni  Ni18  1  0.66955726  0.00354353  1.00246353  1
  Ni  Ni19  1  0.83495706  0.16852377  0.16961666  1
  Ni  Ni20  1  0.66955068  0.00312594  0.33616283  1
  Ni  Ni21  1  0.66951759  0.33504107  1.00191992  1
  Fe  Fe22  1  0.83724831  0.50191350  0.16967655  1
  Ni  Ni23  1  0.66951925  0.33564751  0.33676615  1
  Fe  Fe24  1  0.66967451  0.66955939  1.00186183  1
  Ni  Ni25  1  0.83640062  0.83622399  0.16986200  1
  Ni  Ni26  1  0.66988329  0.66934365  0.33603450  1
  Ni  Ni27  1  0.17052950  0.16865610  0.50168298  1
  Fe  Fe28  1  0.00392372  1.00143513  0.66955633  1
  Ni  Ni29  1  0.17052364  0.16907872  0.83658667  1
  Ni  Ni30  1  0.16906851  0.50330036  0.50261192  1
  Fe  Fe31  1  0.00361328  0.33700799  0.66930853  1
  Ni  Ni32  1  0.16906664  0.50282488  0.83559019  1
  Ni  Ni33  1  0.16876424  0.83615892  0.50237956  1
  Ni  Ni34  1  1.00250985  0.66876383  0.66946492  1
  Ni  Ni35  1  0.16877201  0.83621242  0.83641885  1
  Ni  Ni36  1  0.50258838  0.16973202  0.50231509  1
  Ni  Ni37  1  0.33686023  0.00340308  0.66976645  1
  Ni  Ni38  1  0.50231949  0.16934087  0.83618649  1
  Ni  Ni39  1  0.50370009  0.50189010  0.50246309  1
  Ni  Ni40  1  0.33577027  0.33594136  0.66966179  1
  Ni  Ni41  1  0.50339285  0.50219533  0.83600658  1
  Fe  Fe42  1  0.50179503  0.83555646  0.50325078  1
  Ni  Ni43  1  0.33544407  0.66877164  0.66947110  1
  Ni  Ni44  1  0.50343159  0.83658599  0.83605518  1
  Fe  Fe45  1  0.83628374  0.17016295  0.50143958  1
  Ni  Ni46  1  0.66898731  1.00256486  0.66949694  1
  Fe  Fe47  1  0.83573952  0.16912982  0.83730200  1
  Ni  Ni48  1  0.83534747  0.50364923  0.50176913  1
  Fe  Fe49  1  0.66792312  0.33706992  0.66931302  1
  Ni  Ni50  1  0.83565655  0.50394385  0.83669955  1
  Fe  Fe51  1  0.83621801  0.83531323  0.50252470  1
  Ni  Ni52  1  0.67016222  0.66985335  0.67001348  1
  Ni  Ni53  1  0.83591886  0.83513746  0.83593847  1
" 