443,Ni22Fe68Cr8_8,-231.720266221736, 187.427758028945,Ni22Fe68Cr8,"# generated using pymatgen
 data_Cr5Fe37Ni12
_symmetry_space_group_name_H-M   'P 1'
_cell_length_a   7.42425377
_cell_length_b   7.42425377
_cell_length_c   10.49948037
_cell_angle_alpha   90.00000000
_cell_angle_beta   90.00000000
_cell_angle_gamma   90.00000000
_symmetry_Int_Tables_number   1
_chemical_formula_structural   Cr5Fe37Ni12
_chemical_formula_sum   'Cr5 Fe37 Ni12'
_cell_volume   578.72656966
_cell_formula_units_Z   1
loop_
 _symmetry_equiv_pos_site_id
 _symmetry_equiv_pos_as_xyz
  1  'x, y, z'
loop_
 _atom_site_type_symbol
 _atom_site_label
 _atom_site_symmetry_multiplicity
 _atom_site_fract_x
 _atom_site_fract_y
 _atom_site_fract_z
 _atom_site_occupancy
  Ni  Ni0  1  0.00435691  1.00183355  1.00241295  1
  Fe  Fe1  1  0.17055840  0.16839616  0.16931351  1
  Fe  Fe2  1  0.00518691  1.00191951  0.33625411  1
  Fe  Fe3  1  0.00433189  0.33629464  1.00272869  1
  Fe  Fe4  1  0.16958005  0.50380223  0.16998481  1
  Ni  Ni5  1  0.00440487  0.33696878  0.33702033  1
  Fe  Fe6  1  0.00355308  0.67113245  1.00253305  1
  Fe  Fe7  1  0.16990692  0.83644385  0.16855566  1
  Fe  Fe8  1  0.00356462  0.67009302  0.33561957  1
  Ni  Ni9  1  0.33501241  1.00204387  0.00372059  1
  Fe  Fe10  1  0.50039893  0.16978973  0.16977502  1
  Fe  Fe11  1  0.33483712  0.00295300  0.33576174  1
  Fe  Fe12  1  0.33594154  0.33548238  1.00238367  1
  Fe  Fe13  1  0.50318696  0.50422089  0.16951179  1
  Fe  Fe14  1  0.33605530  0.33626343  0.33703271  1
  Ni  Ni15  1  0.33535226  0.66942399  1.00216023  1
  Ni  Ni16  1  0.50094342  0.83435728  0.16921199  1
  Ni  Ni17  1  0.33549950  0.66882947  0.33717507  1
  Cr  Cr18  1  0.66898558  1.00224920  1.00229287  1
  Cr  Cr19  1  0.83781464  0.17084150  0.17017080  1
  Cr  Cr20  1  0.66914046  1.00258313  0.33651567  1
  Fe  Fe21  1  0.66837527  0.33790339  1.00167428  1
  Fe  Fe22  1  0.83587822  0.50486970  0.17003017  1
  Fe  Fe23  1  0.66795193  0.33788532  0.33688813  1
  Fe  Fe24  1  0.66917434  0.66949527  0.00349086  1
  Ni  Ni25  1  0.83750586  0.83305588  0.16949979  1
  Fe  Fe26  1  0.66898706  0.66887428  0.33489495  1
  Fe  Fe27  1  0.16972726  0.17024046  0.50274395  1
  Fe  Fe28  1  1.00251187  0.00486366  0.67028497  1
  Fe  Fe29  1  0.16962280  0.16881991  0.83659206  1
  Fe  Fe30  1  0.17237177  0.50148138  0.50182921  1
  Fe  Fe31  1  0.00306947  0.33375575  0.66973326  1
  Fe  Fe32  1  0.17070815  0.50270591  0.83683593  1
  Fe  Fe33  1  0.17077035  0.83692739  0.50244008  1
  Cr  Cr34  1  0.00500571  0.66986311  0.67023899  1
  Ni  Ni35  1  0.17058480  0.83720483  0.83779826  1
  Ni  Ni36  1  0.50194228  0.17029784  0.50341205  1
  Fe  Fe37  1  0.33707514  0.00375125  0.66995354  1
  Fe  Fe38  1  0.50179295  0.16990552  0.83441999  1
  Fe  Fe39  1  0.50119388  0.50219914  0.50318137  1
  Ni  Ni40  1  0.33681599  0.33699402  0.66895337  1
  Fe  Fe41  1  0.50222898  0.50313461  0.83595254  1
  Fe  Fe42  1  0.50236180  0.83576852  0.50303348  1
  Fe  Fe43  1  0.33825929  0.66922791  0.66976145  1
  Fe  Fe44  1  0.50140685  0.83560203  0.83624393  1
  Fe  Fe45  1  0.83623415  0.16907007  0.50366566  1
  Ni  Ni46  1  0.66989906  0.00391238  0.66952837  1
  Fe  Fe47  1  0.83723032  0.16964096  0.83540876  1
  Cr  Cr48  1  0.83512432  0.50154187  0.50132918  1
  Ni  Ni49  1  0.66802592  0.33351892  0.66968435  1
  Fe  Fe50  1  0.83570957  0.50231632  0.83648523  1
  Fe  Fe51  1  0.83551893  0.83841088  0.50269681  1
  Fe  Fe52  1  0.66715098  0.66978255  0.67025677  1
  Fe  Fe53  1  0.83680253  0.83668654  0.83655305  1
" 