1812,Ni22Fe21Cr56_18,-217.215344702993, 169.657072857224,Ni22Fe21Cr56,"# generated using pymatgen
 data_Cr31Fe11Ni12
_symmetry_space_group_name_H-M   'P 1'
_cell_length_a   7.53136903
_cell_length_b   7.53136903
_cell_length_c   10.65096423
_cell_angle_alpha   90.00000000
_cell_angle_beta   90.00000000
_cell_angle_gamma   90.00000000
_symmetry_Int_Tables_number   1
_chemical_formula_structural   Cr31Fe11Ni12
_chemical_formula_sum   'Cr31 Fe11 Ni12'
_cell_volume   604.13887526
_cell_formula_units_Z   1
loop_
 _symmetry_equiv_pos_site_id
 _symmetry_equiv_pos_as_xyz
  1  'x, y, z'
loop_
 _atom_site_type_symbol
 _atom_site_label
 _atom_site_symmetry_multiplicity
 _atom_site_fract_x
 _atom_site_fract_y
 _atom_site_fract_z
 _atom_site_occupancy
  Cr  Cr0  1  -0.00344778  -0.00194340  0.99508198  1
  Fe  Fe1  1  0.16212764  0.16072949  0.16358228  1
  Ni  Ni2  1  -0.00130278  -0.00258925  0.32850210  1
  Fe  Fe3  1  0.99549763  0.32718363  -0.00366612  1
  Cr  Cr4  1  0.16310821  0.49659124  0.16178477  1
  Cr  Cr5  1  0.99561533  0.32728955  0.32804323  1
  Fe  Fe6  1  0.99412057  0.66265131  0.99514481  1
  Cr  Cr7  1  0.16268518  0.82744088  0.16879106  1
  Fe  Fe8  1  0.99490658  0.65907918  0.33077037  1
  Cr  Cr9  1  0.33075793  0.99437121  0.99395688  1
  Cr  Cr10  1  0.49749690  0.16218381  0.16348864  1
  Fe  Fe11  1  0.32931638  -0.00208348  0.32912903  1
  Cr  Cr12  1  0.32734703  0.32832317  -0.00278725  1
  Ni  Ni13  1  0.49476214  0.49900709  0.16322997  1
  Cr  Cr14  1  0.32994192  0.33186679  0.32978382  1
  Cr  Cr15  1  0.33207684  0.66352984  -0.00241534  1
  Ni  Ni16  1  0.49516993  0.82797824  0.16208196  1
  Fe  Fe17  1  0.33108319  0.66082580  0.32961026  1
  Ni  Ni18  1  0.66316136  0.99284767  -0.00208314  1
  Ni  Ni19  1  0.83199136  0.16106257  0.16175836  1
  Cr  Cr20  1  0.66307619  -0.00391895  0.32624436  1
  Cr  Cr21  1  0.66305679  0.33003173  0.00038287  1
  Cr  Cr22  1  0.83057916  0.49546057  0.15988714  1
  Cr  Cr23  1  0.66150042  0.33149873  0.33001041  1
  Fe  Fe24  1  0.66079951  0.66455124  -0.00235508  1
  Cr  Cr25  1  0.83031934  0.83069151  0.16331798  1
  Cr  Cr26  1  0.65933190  0.65997789  0.32872541  1
  Ni  Ni27  1  0.16343132  0.16504930  0.49423964  1
  Cr  Cr28  1  -0.00234797  -0.00287329  0.66230482  1
  Ni  Ni29  1  0.16168084  0.16700058  0.82925135  1
  Ni  Ni30  1  0.16559085  0.49366002  0.49463101  1
  Cr  Cr31  1  -0.00327873  0.32945043  0.66271208  1
  Cr  Cr32  1  0.16205789  0.49373352  0.83111253  1
  Cr  Cr33  1  0.16160487  0.82835579  0.49027974  1
  Cr  Cr34  1  0.99379691  0.65976430  0.66021879  1
  Cr  Cr35  1  0.16261450  0.82740594  0.82855331  1
  Fe  Fe36  1  0.49216235  0.16524202  0.49737736  1
  Cr  Cr37  1  0.32688968  -0.00246226  0.66442051  1
  Cr  Cr38  1  0.49607163  0.16464222  0.82491843  1
  Ni  Ni39  1  0.49396720  0.49376967  0.49755761  1
  Ni  Ni40  1  0.32913775  0.33035284  0.65918285  1
  Cr  Cr41  1  0.49681494  0.49441390  0.82817385  1
  Cr  Cr42  1  0.49495006  0.82923451  0.49542890  1
  Cr  Cr43  1  0.32947609  0.66138658  0.66201558  1
  Ni  Ni44  1  0.50076878  0.82696533  0.83119404  1
  Cr  Cr45  1  0.82662131  0.16162845  0.49505226  1
  Cr  Cr46  1  0.66122832  0.99448530  0.66284713  1
  Cr  Cr47  1  0.82593128  0.16447405  0.83057151  1
  Fe  Fe48  1  0.82933250  0.49505891  0.49584630  1
  Ni  Ni49  1  0.66097915  0.33438213  0.65767033  1
  Fe  Fe50  1  0.82689046  0.49497815  0.82965189  1
  Cr  Cr51  1  0.83023464  0.82905022  0.49382020  1
  Fe  Fe52  1  0.66104353  0.65893951  0.66103521  1
  Cr  Cr53  1  0.82667831  0.82668114  0.82933936  1
" 