2550,Ni22Fe34Cr43_16,-222.065819108011, 181.992791177528,Ni22Fe34Cr43,"# generated using pymatgen
 data_Cr4Fe3Ni2
_symmetry_space_group_name_H-M   'P 1'
_cell_length_a   7.49712570
_cell_length_b   7.49712570
_cell_length_c   10.60253684
_cell_angle_alpha   90.00000000
_cell_angle_beta   90.00000000
_cell_angle_gamma   90.00000000
_symmetry_Int_Tables_number   1
_chemical_formula_structural   Cr4Fe3Ni2
_chemical_formula_sum   'Cr24 Fe18 Ni12'
_cell_volume   595.93566207
_cell_formula_units_Z   6
loop_
 _symmetry_equiv_pos_site_id
 _symmetry_equiv_pos_as_xyz
  1  'x, y, z'
loop_
 _atom_site_type_symbol
 _atom_site_label
 _atom_site_symmetry_multiplicity
 _atom_site_fract_x
 _atom_site_fract_y
 _atom_site_fract_z
 _atom_site_occupancy
  Ni  Ni0  1  0.00004054  -0.00047529  -0.00200000  1
  Cr  Cr1  1  0.16525293  0.16497976  0.16655867  1
  Ni  Ni2  1  -0.00085073  0.99691668  0.32742398  1
  Fe  Fe3  1  0.00060492  0.33186884  0.99756579  1
  Ni  Ni4  1  0.16726371  0.49664535  0.16225017  1
  Cr  Cr5  1  -0.00169092  0.33196871  0.33123004  1
  Cr  Cr6  1  -0.00016211  0.66936256  0.99721629  1
  Fe  Fe7  1  0.16491152  0.83164491  0.16280976  1
  Cr  Cr8  1  -0.00107740  0.66736312  0.32784509  1
  Fe  Fe9  1  0.32767605  0.99534551  0.99764611  1
  Ni  Ni10  1  0.49512243  0.16620511  0.16195792  1
  Fe  Fe11  1  0.33268672  0.99781505  0.32947696  1
  Fe  Fe12  1  0.32809490  0.33050798  -0.00055006  1
  Fe  Fe13  1  0.49566442  0.49643557  0.16032061  1
  Ni  Ni14  1  0.33297379  0.33181134  0.32955967  1
  Ni  Ni15  1  0.32906898  0.66200707  0.99737965  1
  Cr  Cr16  1  0.49788474  0.83031498  0.16197404  1
  Cr  Cr17  1  0.33136322  0.66156176  0.33076956  1
  Cr  Cr18  1  0.66889300  0.99794357  -0.00192026  1
  Fe  Fe19  1  0.83214721  0.16382905  0.16327949  1
  Cr  Cr20  1  0.66639297  -0.00192954  0.33016042  1
  Fe  Fe21  1  0.66493200  0.33174727  0.00013241  1
  Cr  Cr22  1  0.83187049  0.49996143  0.16183528  1
  Cr  Cr23  1  0.66076517  0.33158335  0.33124636  1
  Ni  Ni24  1  0.66499778  0.66469016  0.99777588  1
  Ni  Ni25  1  0.83219770  0.83242543  0.16316951  1
  Cr  Cr26  1  0.66354915  0.66394422  0.33277341  1
  Cr  Cr27  1  0.16460086  0.16386292  0.49634709  1
  Fe  Fe28  1  -0.00043762  0.99694680  0.66778018  1
  Ni  Ni29  1  0.16280326  0.16581212  0.83199191  1
  Cr  Cr30  1  0.16211389  0.49752498  0.49831553  1
  Fe  Fe31  1  -0.00187549  0.33338301  0.66690898  1
  Fe  Fe32  1  0.16312783  0.49782537  0.83302304  1
  Cr  Cr33  1  0.16617013  0.83304559  0.49705950  1
  Fe  Fe34  1  -0.00065103  0.66356432  0.66747400  1
  Fe  Fe35  1  0.16427031  0.83455524  0.83144196  1
  Cr  Cr36  1  0.49507199  0.16029776  0.49819188  1
  Fe  Fe37  1  0.32964733  0.99629009  0.66661202  1
  Cr  Cr38  1  0.49467584  0.16351825  0.83408062  1
  Fe  Fe39  1  0.49658800  0.49887523  0.49844958  1
  Cr  Cr40  1  0.32939285  0.33186081  0.66557087  1
  Cr  Cr41  1  0.49782348  0.49886492  0.83733259  1
  Ni  Ni42  1  0.49631619  0.83088173  0.50097502  1
  Fe  Fe43  1  0.32986813  0.66533824  0.66606866  1
  Cr  Cr44  1  0.49864147  0.83028694  0.83156352  1
  Cr  Cr45  1  0.83483505  0.16496304  0.49838408  1
  Fe  Fe46  1  0.66509441  0.99714048  0.66570130  1
  Cr  Cr47  1  0.83327769  0.16565672  0.83212254  1
  Ni  Ni48  1  0.83256685  0.49873264  0.50069874  1
  Cr  Cr49  1  0.66385183  0.33105337  0.66345120  1
  Fe  Fe50  1  0.83255429  0.49939683  0.83210823  1
  Cr  Cr51  1  0.83233742  0.83116751  0.49798327  1
  Cr  Cr52  1  0.66507866  0.66478178  0.66332167  1
  Ni  Ni53  1  0.83336057  0.82957674  0.83083266  1
" 