6780,Ni22Fe68Cr8_11,-231.648420162011, 189.476488736522,Ni22Fe68Cr8,"# generated using pymatgen
 data_Cr5Fe37Ni12
_symmetry_space_group_name_H-M   'P 1'
_cell_length_a   7.41826052
_cell_length_b   7.41826052
_cell_length_c   10.49100464
_cell_angle_alpha   90.00000000
_cell_angle_beta   90.00000000
_cell_angle_gamma   90.00000000
_symmetry_Int_Tables_number   1
_chemical_formula_structural   Cr5Fe37Ni12
_chemical_formula_sum   'Cr5 Fe37 Ni12'
_cell_volume   577.32616649
_cell_formula_units_Z   1
loop_
 _symmetry_equiv_pos_site_id
 _symmetry_equiv_pos_as_xyz
  1  'x, y, z'
loop_
 _atom_site_type_symbol
 _atom_site_label
 _atom_site_symmetry_multiplicity
 _atom_site_fract_x
 _atom_site_fract_y
 _atom_site_fract_z
 _atom_site_occupancy
  Fe  Fe0  1  0.00368396  0.00396177  1.00231830  1
  Fe  Fe1  1  0.16975571  0.17128496  0.17044645  1
  Ni  Ni2  1  1.00183871  0.00375648  0.33668327  1
  Fe  Fe3  1  0.00514080  0.33546578  1.00256374  1
  Fe  Fe4  1  0.17144203  0.50165824  0.17041802  1
  Fe  Fe5  1  0.00430850  0.33463126  0.33745534  1
  Fe  Fe6  1  1.00294163  0.67043801  1.00130542  1
  Cr  Cr7  1  0.16943815  0.83751671  0.17134255  1
  Fe  Fe8  1  1.00327280  0.67141016  0.33868197  1
  Fe  Fe9  1  0.33590682  0.00419584  1.00271872  1
  Fe  Fe10  1  0.50167112  0.16947538  0.17156203  1
  Ni  Ni11  1  0.33737892  0.00409094  0.33733171  1
  Fe  Fe12  1  0.33577437  0.33657024  1.00244629  1
  Fe  Fe13  1  0.50084792  0.50433083  0.17008596  1
  Fe  Fe14  1  0.33638199  0.33543566  0.33727058  1
  Fe  Fe15  1  0.33774678  0.66910347  1.00216826  1
  Fe  Fe16  1  0.50421009  0.83605553  0.17132042  1
  Fe  Fe17  1  0.33718134  0.67037081  0.33750861  1
  Cr  Cr18  1  0.67055344  1.00131738  0.00334816  1
  Fe  Fe19  1  0.83843862  0.16792492  0.17149346  1
  Ni  Ni20  1  0.67064680  1.00259156  0.33586436  1
  Cr  Cr21  1  0.66901263  0.33677581  1.00052895  1
  Cr  Cr22  1  0.83668042  0.50407283  0.17090188  1
  Fe  Fe23  1  0.66917438  0.33438430  0.33693773  1
  Fe  Fe24  1  0.66917490  0.67055778  1.00205382  1
  Fe  Fe25  1  0.83576784  0.83774102  0.17125150  1
  Fe  Fe26  1  0.66941201  0.67245077  0.33762913  1
  Fe  Fe27  1  0.16971115  0.16987872  0.50283013  1
  Fe  Fe28  1  1.00252486  1.00302074  0.67009728  1
  Fe  Fe29  1  0.17019792  0.16968023  0.83659047  1
  Ni  Ni30  1  0.17046613  0.50376375  0.50227750  1
  Fe  Fe31  1  1.00312301  0.33641202  0.66984148  1
  Fe  Fe32  1  0.17015182  0.50307004  0.83594590  1
  Fe  Fe33  1  0.16947887  0.83646827  0.50299123  1
  Fe  Fe34  1  0.00489718  0.67043581  0.66987594  1
  Ni  Ni35  1  0.16902469  0.83635811  0.83556994  1
  Fe  Fe36  1  0.50325294  0.16947341  0.50374426  1
  Fe  Fe37  1  0.33732979  0.00363134  0.67003708  1
  Ni  Ni38  1  0.50270227  0.17154772  0.83455057  1
  Fe  Fe39  1  0.50225042  0.50282758  0.50322514  1
  Ni  Ni40  1  0.33574940  0.33716207  0.67075700  1
  Ni  Ni41  1  0.50178457  0.50161541  0.83714578  1
  Fe  Fe42  1  0.50279615  0.83756530  0.50199128  1
  Fe  Fe43  1  0.33525966  0.66952445  0.67018892  1
  Fe  Fe44  1  0.50245514  0.83735467  0.83656210  1
  Fe  Fe45  1  0.83689975  0.16933533  0.50340344  1
  Ni  Ni46  1  0.67054141  0.00430966  0.67037938  1
  Ni  Ni47  1  0.83665925  0.16949148  0.83482378  1
  Fe  Fe48  1  0.83800142  0.50306557  0.50212003  1
  Fe  Fe49  1  0.66909901  0.33434811  0.67102553  1
  Fe  Fe50  1  0.83767596  0.50329525  0.83710133  1
  Ni  Ni51  1  0.83778678  0.83793858  0.50077507  1
  Cr  Cr52  1  0.67046618  0.67114889  0.67176296  1
  Ni  Ni53  1  0.83950033  0.83727783  0.83831861  1
" 