2053,Ni22Cr78_8,-231.428673263751, 153.2440272683,Ni22Cr78,"# generated using pymatgen
 data_Cr11Ni43
_symmetry_space_group_name_H-M   'P 1'
_cell_length_a   7.47988691
_cell_length_b   7.47988691
_cell_length_c   10.57815751
_cell_angle_alpha   90.00000000
_cell_angle_beta   90.00000000
_cell_angle_gamma   90.00000000
_symmetry_Int_Tables_number   1
_chemical_formula_structural   Cr11Ni43
_chemical_formula_sum   'Cr11 Ni43'
_cell_volume   591.83424684
_cell_formula_units_Z   1
loop_
 _symmetry_equiv_pos_site_id
 _symmetry_equiv_pos_as_xyz
  1  'x, y, z'
loop_
 _atom_site_type_symbol
 _atom_site_label
 _atom_site_symmetry_multiplicity
 _atom_site_fract_x
 _atom_site_fract_y
 _atom_site_fract_z
 _atom_site_occupancy
  Cr  Cr0  1  0.00062651  0.99810786  0.99833789  1
  Cr  Cr1  1  0.16808234  0.16640776  0.16697171  1
  Ni  Ni2  1  0.99839018  0.99771786  0.33406946  1
  Ni  Ni3  1  0.00015371  0.33546794  0.99609550  1
  Ni  Ni4  1  0.16665489  0.50034460  0.16464815  1
  Ni  Ni5  1  0.00078621  0.33205829  0.33403623  1
  Ni  Ni6  1  0.00118667  0.66385367  -0.00069106  1
  Ni  Ni7  1  0.16609063  0.83082552  0.16513132  1
  Ni  Ni8  1  0.99901896  0.66764886  0.33179310  1
  Ni  Ni9  1  0.33270058  -0.00085696  0.99891503  1
  Ni  Ni10  1  0.49808840  0.16625604  0.16616252  1
  Ni  Ni11  1  0.33328524  0.00052059  0.33282737  1
  Ni  Ni12  1  0.33270253  0.33297837  -0.00026508  1
  Ni  Ni13  1  0.49872479  0.49890108  0.16484986  1
  Ni  Ni14  1  0.33328508  0.33164732  0.33278954  1
  Ni  Ni15  1  0.33062887  0.66530447  0.00062113  1
  Ni  Ni16  1  0.49928687  0.83226733  0.16533303  1
  Cr  Cr17  1  0.33224556  0.66477025  0.33283457  1
  Cr  Cr18  1  0.66409781  0.00017478  0.00017532  1
  Cr  Cr19  1  0.83157909  0.16617639  0.16777993  1
  Ni  Ni20  1  0.66575012  0.99875752  0.33303156  1
  Ni  Ni21  1  0.66456932  0.33339583  0.99794009  1
  Cr  Cr22  1  0.83244777  0.50065375  0.16532014  1
  Ni  Ni23  1  0.66335456  0.33101868  0.33299662  1
  Ni  Ni24  1  0.66560961  0.66385047  0.00115599  1
  Ni  Ni25  1  0.83204807  0.83018520  0.16773422  1
  Ni  Ni26  1  0.66615912  0.66764848  0.33202097  1
  Ni  Ni27  1  0.16513857  0.16486423  0.49814556  1
  Ni  Ni28  1  -0.00057647  -0.00047598  0.66502496  1
  Ni  Ni29  1  0.16532456  0.16585049  0.83278828  1
  Ni  Ni30  1  0.16586641  0.49897978  0.49897583  1
  Ni  Ni31  1  0.99798025  0.33167062  0.66729577  1
  Ni  Ni32  1  0.16251488  0.49938433  0.83380095  1
  Ni  Ni33  1  0.16530396  0.83358147  0.50033825  1
  Ni  Ni34  1  0.00078460  0.66623073  0.66632347  1
  Ni  Ni35  1  0.16651747  0.83219111  0.83195723  1
  Ni  Ni36  1  0.49971135  0.16486365  0.49810727  1
  Ni  Ni37  1  0.33189163  0.99776095  0.66568294  1
  Ni  Ni38  1  0.49912480  0.16585501  0.83315387  1
  Ni  Ni39  1  0.49931038  0.49930719  0.49893869  1
  Cr  Cr40  1  0.33189898  0.33248389  0.66441743  1
  Cr  Cr41  1  0.50064656  0.49906581  0.83314598  1
  Ni  Ni42  1  0.49987348  0.83325445  0.50030007  1
  Ni  Ni43  1  0.33085246  0.66767363  0.66445451  1
  Cr  Cr44  1  0.49649179  0.83314997  0.83131110  1
  Ni  Ni45  1  0.83257544  0.16430014  0.49940842  1
  Ni  Ni46  1  0.66610946  0.00056425  0.66421468  1
  Ni  Ni47  1  0.83297585  0.16986078  0.83071318  1
  Cr  Cr48  1  0.83224832  0.49914158  0.49935166  1
  Ni  Ni49  1  0.66755080  0.33063284  0.66648858  1
  Ni  Ni50  1  0.83441912  0.49674067  0.83299554  1
  Ni  Ni51  1  0.83224827  0.83398342  0.49854765  1
  Ni  Ni52  1  0.66578724  0.66622818  0.66424601  1
  Cr  Cr53  1  0.83353064  0.83042909  0.83091130  1
" 