2597,Ni22Fe78_8,-243.042256989541, 207.925025151144,Ni22Fe78,"# generated using pymatgen
 data_Fe11Ni43
_symmetry_space_group_name_H-M   'P 1'
_cell_length_a   7.42498803
_cell_length_b   7.42498803
_cell_length_c   10.50051877
_cell_angle_alpha   90.00000000
_cell_angle_beta   90.00000000
_cell_angle_gamma   90.00000000
_symmetry_Int_Tables_number   1
_chemical_formula_structural   Fe11Ni43
_chemical_formula_sum   'Fe11 Ni43'
_cell_volume   578.89829604
_cell_formula_units_Z   1
loop_
 _symmetry_equiv_pos_site_id
 _symmetry_equiv_pos_as_xyz
  1  'x, y, z'
loop_
 _atom_site_type_symbol
 _atom_site_label
 _atom_site_symmetry_multiplicity
 _atom_site_fract_x
 _atom_site_fract_y
 _atom_site_fract_z
 _atom_site_occupancy
  Ni  Ni0  1  1.00254013  1.00179372  1.00273246  1
  Ni  Ni1  1  0.17039551  0.16856404  0.16924334  1
  Ni  Ni2  1  1.00242169  1.00037789  0.33681700  1
  Ni  Ni3  1  1.00161814  0.33704927  0.00429904  1
  Fe  Fe4  1  0.16807984  0.50219130  0.16945730  1
  Fe  Fe5  1  0.00318683  0.33390385  0.33583995  1
  Ni  Ni6  1  0.00360125  0.66959233  1.00231581  1
  Ni  Ni7  1  0.16886787  0.83647237  0.17075959  1
  Ni  Ni8  1  0.00304342  0.66921703  0.33661931  1
  Ni  Ni9  1  0.33640011  1.00218771  0.00299438  1
  Ni  Ni10  1  0.50217390  0.17046582  0.16969817  1
  Ni  Ni11  1  0.33668824  0.00364515  0.33604841  1
  Ni  Ni12  1  0.33690898  0.33642457  1.00238636  1
  Fe  Fe13  1  0.50334470  0.50163736  0.16909468  1
  Ni  Ni14  1  0.33753324  0.33623751  0.33574613  1
  Ni  Ni15  1  0.33425768  0.66999382  0.00352997  1
  Fe  Fe16  1  0.50336822  0.83836972  0.16915310  1
  Fe  Fe17  1  0.33651230  0.67014829  0.33651514  1
  Ni  Ni18  1  0.66965260  0.00429453  0.00348361  1
  Ni  Ni19  1  0.83604010  0.16931761  0.17062343  1
  Ni  Ni20  1  0.66951963  0.00407306  0.33579493  1
  Ni  Ni21  1  0.66987412  0.33514230  1.00228392  1
  Ni  Ni22  1  0.83509284  0.50395475  0.17073112  1
  Ni  Ni23  1  0.66835268  0.33587021  0.33700108  1
  Fe  Fe24  1  0.66973439  0.66904048  1.00171346  1
  Ni  Ni25  1  0.83659889  0.83502246  0.16882797  1
  Fe  Fe26  1  0.66989760  0.67034808  0.33702377  1
  Ni  Ni27  1  0.17028715  0.17046591  0.50236135  1
  Fe  Fe28  1  1.00273937  0.00338974  0.66969581  1
  Ni  Ni29  1  0.16962847  0.17008449  0.83701488  1
  Ni  Ni30  1  0.16979869  0.50156675  0.50158875  1
  Ni  Ni31  1  0.00300622  0.33799632  0.66877571  1
  Ni  Ni32  1  0.16954273  0.50245340  0.83691831  1
  Fe  Fe33  1  0.17115925  0.83624359  0.50261637  1
  Ni  Ni34  1  0.00323698  0.66897758  0.66950366  1
  Ni  Ni35  1  0.16961205  0.83605732  0.83477905  1
  Ni  Ni36  1  0.50126451  0.16975478  0.50305899  1
  Ni  Ni37  1  0.33757661  1.00261738  0.66919149  1
  Ni  Ni38  1  0.50244057  0.16954514  0.83574361  1
  Ni  Ni39  1  0.50204442  0.50257993  0.50307764  1
  Ni  Ni40  1  0.33599917  0.33638047  0.67013016  1
  Ni  Ni41  1  0.50255584  0.50307817  0.83562318  1
  Ni  Ni42  1  0.50494866  0.83642671  0.50193897  1
  Ni  Ni43  1  0.33553332  0.66949475  0.66840731  1
  Ni  Ni44  1  0.50294609  0.83584250  0.83652790  1
  Fe  Fe45  1  0.83497840  0.16921555  0.50280506  1
  Ni  Ni46  1  0.66858593  1.00279787  0.66928328  1
  Ni  Ni47  1  0.83645270  0.16973547  0.83613129  1
  Fe  Fe48  1  0.83547332  0.50278623  0.50299993  1
  Ni  Ni49  1  0.66913206  0.33569587  0.66938747  1
  Ni  Ni50  1  0.83631072  0.50298779  0.83539994  1
  Ni  Ni51  1  0.83610911  0.83564165  0.50289508  1
  Ni  Ni52  1  0.66991870  0.66992421  0.66953359  1
  Ni  Ni53  1  0.83595821  0.83586941  0.83682198  1
" 