758,Ni22Fe78_2,-243.054660630653, 210.185122283078,Ni22Fe78,"# generated using pymatgen
 data_Fe11Ni43
_symmetry_space_group_name_H-M   'P 1'
_cell_length_a   7.42146695
_cell_length_b   7.42146695
_cell_length_c   10.49553921
_cell_angle_alpha   90.00000000
_cell_angle_beta   90.00000000
_cell_angle_gamma   90.00000000
_symmetry_Int_Tables_number   1
_chemical_formula_structural   Fe11Ni43
_chemical_formula_sum   'Fe11 Ni43'
_cell_volume   578.07511095
_cell_formula_units_Z   1
loop_
 _symmetry_equiv_pos_site_id
 _symmetry_equiv_pos_as_xyz
  1  'x, y, z'
loop_
 _atom_site_type_symbol
 _atom_site_label
 _atom_site_symmetry_multiplicity
 _atom_site_fract_x
 _atom_site_fract_y
 _atom_site_fract_z
 _atom_site_occupancy
  Ni  Ni0  1  0.00458908  1.00240531  0.00377644  1
  Ni  Ni1  1  0.16906478  0.16969859  0.16967413  1
  Fe  Fe2  1  1.00215917  1.00237722  0.33591107  1
  Fe  Fe3  1  0.00390658  0.33653457  0.00349018  1
  Ni  Ni4  1  0.17033897  0.50340218  0.16902310  1
  Ni  Ni5  1  1.00218656  0.33729195  0.33576836  1
  Ni  Ni6  1  1.00296802  0.67062211  0.00364746  1
  Ni  Ni7  1  0.17037458  0.83611397  0.16977219  1
  Ni  Ni8  1  0.00316342  0.66885249  0.33596801  1
  Ni  Ni9  1  0.33495369  0.00367021  1.00306227  1
  Fe  Fe10  1  0.50299875  0.16973864  0.16981087  1
  Ni  Ni11  1  0.33675824  1.00243434  0.33605186  1
  Ni  Ni12  1  0.33725544  0.33556510  0.00397869  1
  Ni  Ni13  1  0.50303343  0.50395891  0.17045269  1
  Fe  Fe14  1  0.33661106  0.33731587  0.33613094  1
  Ni  Ni15  1  0.33595744  0.66997944  1.00293004  1
  Ni  Ni16  1  0.50295383  0.83551648  0.16915906  1
  Ni  Ni17  1  0.33577942  0.67115542  0.33626397  1
  Fe  Fe18  1  0.66960445  1.00278920  0.00334980  1
  Ni  Ni19  1  0.83643509  0.16977701  0.16983734  1
  Ni  Ni20  1  0.66860246  0.00340915  0.33583796  1
  Ni  Ni21  1  0.66902813  0.33718469  0.00314370  1
  Ni  Ni22  1  0.83584412  0.50264822  0.16924192  1
  Ni  Ni23  1  0.67090680  0.33630721  0.33675539  1
  Ni  Ni24  1  0.67028841  0.66831966  0.00394796  1
  Ni  Ni25  1  0.83588050  0.83678498  0.16998978  1
  Ni  Ni26  1  0.67027219  0.66949771  0.33609691  1
  Fe  Fe27  1  0.16932049  0.16918140  0.50361949  1
  Ni  Ni28  1  0.00401469  1.00282159  0.66863423  1
  Ni  Ni29  1  0.16946133  0.16945639  0.83541793  1
  Ni  Ni30  1  0.16916570  0.50411960  0.50335545  1
  Ni  Ni31  1  0.00331319  0.33665032  0.67069680  1
  Ni  Ni32  1  0.17073551  0.50390439  0.83683704  1
  Ni  Ni33  1  0.17019294  0.83510134  0.50300039  1
  Ni  Ni34  1  1.00243832  0.66973802  0.66959703  1
  Ni  Ni35  1  0.16973051  0.83585183  0.83643594  1
  Ni  Ni36  1  0.50458755  0.16899128  0.50314152  1
  Ni  Ni37  1  0.33606005  0.00413325  0.67009992  1
  Ni  Ni38  1  0.50414881  0.17048917  0.83696867  1
  Fe  Fe39  1  0.50425744  0.50363127  0.50314109  1
  Ni  Ni40  1  0.33641403  0.33498664  0.66921184  1
  Ni  Ni41  1  0.50257236  0.50256810  0.83548497  1
  Ni  Ni42  1  0.50293591  0.83740043  0.50392076  1
  Fe  Fe43  1  0.33577555  0.66966596  0.66973713  1
  Fe  Fe44  1  0.50195676  0.83695994  0.83640691  1
  Ni  Ni45  1  0.83478510  0.17001849  0.50347148  1
  Ni  Ni46  1  0.66913563  0.00325710  0.67020087  1
  Ni  Ni47  1  0.83560326  0.16948361  0.83590371  1
  Ni  Ni48  1  0.83708619  0.50246815  0.50360341  1
  Ni  Ni49  1  0.66948806  0.33656893  0.66931455  1
  Fe  Fe50  1  0.83653956  0.50230606  0.83605563  1
  Ni  Ni51  1  0.83608005  0.83672462  0.50320338  1
  Ni  Ni52  1  0.67079854  0.66938767  0.66916790  1
  Fe  Fe53  1  0.83731459  0.83661056  0.83612665  1
" 