263,Ni22Fe78_18,-242.979212298088, 208.586033985117,Ni22Fe78,"# generated using pymatgen
 data_Fe11Ni43
_symmetry_space_group_name_H-M   'P 1'
_cell_length_a   7.42479662
_cell_length_b   7.42479662
_cell_length_c   10.50024808
_cell_angle_alpha   90.00000000
_cell_angle_beta   90.00000000
_cell_angle_gamma   90.00000000
_symmetry_Int_Tables_number   1
_chemical_formula_structural   Fe11Ni43
_chemical_formula_sum   'Fe11 Ni43'
_cell_volume   578.85352685
_cell_formula_units_Z   1
loop_
 _symmetry_equiv_pos_site_id
 _symmetry_equiv_pos_as_xyz
  1  'x, y, z'
loop_
 _atom_site_type_symbol
 _atom_site_label
 _atom_site_symmetry_multiplicity
 _atom_site_fract_x
 _atom_site_fract_y
 _atom_site_fract_z
 _atom_site_occupancy
  Ni  Ni0  1  1.00194957  1.00095579  1.00218472  1
  Ni  Ni1  1  0.16976417  0.17150372  0.16850089  1
  Ni  Ni2  1  1.00275944  1.00280911  0.33720631  1
  Fe  Fe3  1  0.00363570  0.33530286  0.00333692  1
  Ni  Ni4  1  0.17010455  0.50275627  0.16970861  1
  Ni  Ni5  1  1.00269148  0.33589749  0.33589213  1
  Ni  Ni6  1  0.00314215  0.67024731  0.00403384  1
  Fe  Fe7  1  0.17024604  0.83744671  0.17002565  1
  Ni  Ni8  1  0.00294045  0.66988304  0.33581613  1
  Ni  Ni9  1  0.33603904  0.00297132  1.00275570  1
  Ni  Ni10  1  0.50268963  0.16914494  0.16974280  1
  Ni  Ni11  1  0.33586855  0.00321490  0.33546885  1
  Ni  Ni12  1  0.33791942  0.33642359  1.00236892  1
  Ni  Ni13  1  0.50027701  0.50336028  0.16920522  1
  Ni  Ni14  1  0.33627787  0.33595044  0.33636523  1
  Ni  Ni15  1  0.33366344  0.66923947  1.00184682  1
  Ni  Ni16  1  0.50388601  0.83628226  0.16857427  1
  Ni  Ni17  1  0.33561135  0.66955561  0.33665766  1
  Ni  Ni18  1  0.67024421  0.00478286  1.00262723  1
  Ni  Ni19  1  0.83634490  0.16753421  0.16918697  1
  Ni  Ni20  1  0.66994744  0.00331165  0.33629858  1
  Ni  Ni21  1  0.66943147  0.33532676  0.00323339  1
  Fe  Fe22  1  0.83488985  0.50178217  0.16996650  1
  Ni  Ni23  1  0.66944709  0.33540284  0.33637942  1
  Fe  Fe24  1  0.66887181  0.67073808  0.00318952  1
  Ni  Ni25  1  0.83528617  0.83666402  0.16966640  1
  Ni  Ni26  1  0.66999114  0.66952406  0.33589286  1
  Ni  Ni27  1  0.17057493  0.17055517  0.50361436  1
  Fe  Fe28  1  1.00237733  1.00227307  0.66866190  1
  Fe  Fe29  1  0.16851297  0.17010177  0.83661719  1
  Ni  Ni30  1  0.16936991  0.50279618  0.50269175  1
  Fe  Fe31  1  1.00236703  0.33743829  0.66886053  1
  Ni  Ni32  1  0.16983671  0.50313027  0.83594871  1
  Ni  Ni33  1  0.17025025  0.83528052  0.50253793  1
  Ni  Ni34  1  1.00281734  0.66974524  0.66896821  1
  Fe  Fe35  1  0.16808100  0.83622248  0.83562307  1
  Ni  Ni36  1  0.50243325  0.16806508  0.50190594  1
  Ni  Ni37  1  0.33628871  0.00346512  0.67015148  1
  Ni  Ni38  1  0.50245727  0.16836890  0.83691140  1
  Fe  Fe39  1  0.50344182  0.50314289  0.50245058  1
  Ni  Ni40  1  0.33736793  0.33588973  0.66975411  1
  Fe  Fe41  1  0.50465456  0.50159334  0.83644960  1
  Ni  Ni42  1  0.50321986  0.83684227  0.50365057  1
  Ni  Ni43  1  0.33488175  0.66901545  0.66961144  1
  Fe  Fe44  1  0.50351783  0.83617035  0.83576553  1
  Ni  Ni45  1  0.83550935  0.16950463  0.50325788  1
  Ni  Ni46  1  0.66943498  0.00398025  0.66942867  1
  Ni  Ni47  1  0.83455360  0.16919127  0.83579701  1
  Ni  Ni48  1  0.83776024  0.50355426  0.50236253  1
  Ni  Ni49  1  0.66954619  0.33572091  0.66914228  1
  Ni  Ni50  1  0.83881130  0.50339174  0.83792269  1
  Ni  Ni51  1  0.83503666  0.83556177  0.50331528  1
  Ni  Ni52  1  0.67114085  0.66855318  0.67044444  1
  Ni  Ni53  1  0.83548060  0.83607828  0.83566753  1
" 