649,Ni22Fe40Cr36_6,-223.700420658415, 185.445632072139,Ni22Fe40Cr36,"# generated using pymatgen
 data_Cr7Fe7Ni4
_symmetry_space_group_name_H-M   'P 1'
_cell_length_a   7.48146718
_cell_length_b   7.48146718
_cell_length_c   10.58039235
_cell_angle_alpha   90.00000000
_cell_angle_beta   90.00000000
_cell_angle_gamma   90.00000000
_symmetry_Int_Tables_number   1
_chemical_formula_structural   Cr7Fe7Ni4
_chemical_formula_sum   'Cr21 Fe21 Ni12'
_cell_volume   592.20943581
_cell_formula_units_Z   3
loop_
 _symmetry_equiv_pos_site_id
 _symmetry_equiv_pos_as_xyz
  1  'x, y, z'
loop_
 _atom_site_type_symbol
 _atom_site_label
 _atom_site_symmetry_multiplicity
 _atom_site_fract_x
 _atom_site_fract_y
 _atom_site_fract_z
 _atom_site_occupancy
  Ni  Ni0  1  -0.00077356  0.00335182  0.00168096  1
  Fe  Fe1  1  0.16400323  0.16506355  0.16268566  1
  Cr  Cr2  1  0.00049755  0.00059949  0.32931664  1
  Ni  Ni3  1  0.99871730  0.33044892  0.99766781  1
  Cr  Cr4  1  0.16702464  0.49703607  0.16436072  1
  Cr  Cr5  1  0.99789011  0.33096575  0.33396478  1
  Cr  Cr6  1  0.99892354  0.66453149  0.99790777  1
  Cr  Cr7  1  0.16419036  0.83532887  0.16481057  1
  Fe  Fe8  1  0.99816099  0.66539761  0.33305788  1
  Ni  Ni9  1  0.33268979  0.99837181  0.00032014  1
  Cr  Cr10  1  0.49726351  0.16834418  0.16641430  1
  Fe  Fe11  1  0.33309118  0.00056600  0.33413126  1
  Fe  Fe12  1  0.33164863  0.33242783  0.99795147  1
  Fe  Fe13  1  0.50016474  0.50006879  0.16343661  1
  Cr  Cr14  1  0.33211565  0.33148966  0.33310370  1
  Fe  Fe15  1  0.33475610  0.66560004  0.99664243  1
  Fe  Fe16  1  0.49937763  0.83134439  0.16296073  1
  Cr  Cr17  1  0.33242912  0.66797285  0.33242767  1
  Cr  Cr18  1  0.66629755  0.99777884  0.99687280  1
  Fe  Fe19  1  0.83382067  0.16568210  0.16373319  1
  Cr  Cr20  1  0.66489801  0.00030434  0.33424689  1
  Fe  Fe21  1  0.66641422  0.33283758  0.99784081  1
  Cr  Cr22  1  0.82976032  0.49939796  0.16670029  1
  Ni  Ni23  1  0.66665553  0.33175668  0.33251930  1
  Fe  Fe24  1  0.66339410  0.66530631  0.99876431  1
  Ni  Ni25  1  0.83222336  0.83292087  0.16471190  1
  Cr  Cr26  1  0.66444655  0.66521556  0.32952474  1
  Ni  Ni27  1  0.16795377  0.16645444  0.49804765  1
  Cr  Cr28  1  0.99758881  0.00246140  0.66635399  1
  Cr  Cr29  1  0.16661282  0.16775474  0.83636568  1
  Fe  Fe30  1  0.16457017  0.49897797  0.50210032  1
  Fe  Fe31  1  0.00096790  0.33436866  0.66550437  1
  Ni  Ni32  1  0.16760979  0.49671596  0.82980410  1
  Fe  Fe33  1  0.16801529  0.83207908  0.49935053  1
  Fe  Fe34  1  0.00117793  0.66256944  0.66561036  1
  Cr  Cr35  1  0.16625447  0.83146636  0.83280031  1
  Ni  Ni36  1  0.49812813  0.16540629  0.49972208  1
  Cr  Cr37  1  0.33565163  0.99780756  0.66325720  1
  Fe  Fe38  1  0.49882935  0.16549681  0.83258648  1
  Cr  Cr39  1  0.49945117  0.49579123  0.49748566  1
  Fe  Fe40  1  0.33187851  0.33353562  0.66552052  1
  Ni  Ni41  1  0.49731668  0.49824000  0.83602240  1
  Fe  Fe42  1  0.49682717  0.83483614  0.50104208  1
  Ni  Ni43  1  0.33084653  0.66331510  0.66715830  1
  Ni  Ni44  1  0.49959031  0.83112587  0.83259551  1
  Fe  Fe45  1  0.83079481  0.16761206  0.49980151  1
  Ni  Ni46  1  0.66418976  0.00089527  0.66578252  1
  Fe  Fe47  1  0.83171955  0.16799936  0.83359163  1
  Fe  Fe48  1  0.83416616  0.49606862  0.49857460  1
  Cr  Cr49  1  0.66691655  0.32973975  0.66670180  1
  Fe  Fe50  1  0.83314685  0.49704639  0.83362721  1
  Cr  Cr51  1  0.83348866  0.83021056  0.49993195  1
  Cr  Cr52  1  0.66238790  0.66643427  0.66841796  1
  Cr  Cr53  1  0.83179945  0.83344267  0.83244893  1
" 