752,Ni22Fe40Cr36_3,-223.509942437596, 185.944624696828,Ni22Fe40Cr36,"# generated using pymatgen
 data_Cr7Fe7Ni4
_symmetry_space_group_name_H-M   'P 1'
_cell_length_a   7.47851592
_cell_length_b   7.47851592
_cell_length_c   10.57621864
_cell_angle_alpha   90.00000000
_cell_angle_beta   90.00000000
_cell_angle_gamma   90.00000000
_symmetry_Int_Tables_number   1
_chemical_formula_structural   Cr7Fe7Ni4
_chemical_formula_sum   'Cr21 Fe21 Ni12'
_cell_volume   591.50887483
_cell_formula_units_Z   3
loop_
 _symmetry_equiv_pos_site_id
 _symmetry_equiv_pos_as_xyz
  1  'x, y, z'
loop_
 _atom_site_type_symbol
 _atom_site_label
 _atom_site_symmetry_multiplicity
 _atom_site_fract_x
 _atom_site_fract_y
 _atom_site_fract_z
 _atom_site_occupancy
  Fe  Fe0  1  0.99883448  0.99918821  0.99671983  1
  Fe  Fe1  1  0.16296976  0.16489495  0.16857010  1
  Ni  Ni2  1  -0.00023994  0.00089807  0.33335983  1
  Cr  Cr3  1  0.00014173  0.32876097  0.99479885  1
  Cr  Cr4  1  0.16529082  0.49981124  0.17043577  1
  Ni  Ni5  1  0.00043413  0.32980603  0.33480705  1
  Cr  Cr6  1  0.99900947  0.66826165  0.99693300  1
  Fe  Fe7  1  0.16505047  0.83475640  0.16760306  1
  Fe  Fe8  1  0.00099933  0.66830457  0.33500092  1
  Cr  Cr9  1  0.33150081  0.99860974  0.99820266  1
  Cr  Cr10  1  0.49968555  0.16610609  0.16785453  1
  Cr  Cr11  1  0.33347227  0.99876291  0.33307306  1
  Cr  Cr12  1  0.33147642  0.33128742  0.00055741  1
  Fe  Fe13  1  0.50053277  0.49894331  0.16693927  1
  Fe  Fe14  1  0.33216537  0.33290796  0.33582162  1
  Cr  Cr15  1  0.33530192  0.66789357  0.00064264  1
  Fe  Fe16  1  0.49988159  0.83228612  0.16642230  1
  Fe  Fe17  1  0.33075232  0.66557203  0.33531959  1
  Fe  Fe18  1  0.66713028  0.99858867  0.99658943  1
  Cr  Cr19  1  0.83296711  0.16526986  0.16545356  1
  Fe  Fe20  1  0.66857402  0.00087849  0.33624370  1
  Ni  Ni21  1  0.66551890  0.33141954  -0.00051258  1
  Cr  Cr22  1  0.83327342  0.49760600  0.16443833  1
  Fe  Fe23  1  0.66604838  0.33034643  0.33414738  1
  Fe  Fe24  1  0.66489788  0.66804761  0.99884729  1
  Cr  Cr25  1  0.83496794  0.83490700  0.16621918  1
  Cr  Cr26  1  0.66355253  0.66721857  0.33158320  1
  Ni  Ni27  1  0.16586305  0.16419023  0.49750206  1
  Cr  Cr28  1  0.99771575  0.00002945  0.66595687  1
  Fe  Fe29  1  0.16481120  0.16200839  0.83139458  1
  Fe  Fe30  1  0.16873764  0.50018990  0.49678592  1
  Cr  Cr31  1  -0.00059102  0.33026701  0.66823500  1
  Fe  Fe32  1  0.16699546  0.50263410  0.83160420  1
  Ni  Ni33  1  0.16541947  0.83362117  0.49733755  1
  Cr  Cr34  1  -0.00029090  0.66729003  0.66410426  1
  Ni  Ni35  1  0.16726420  0.83352879  0.83124196  1
  Fe  Fe36  1  0.49968223  0.16671831  0.49995680  1
  Fe  Fe37  1  0.33013702  0.99637009  0.66533939  1
  Cr  Cr38  1  0.50029256  0.16433218  0.82831009  1
  Ni  Ni39  1  0.49934755  0.49793295  0.49808379  1
  Cr  Cr40  1  0.33005467  0.33235507  0.66381857  1
  Cr  Cr41  1  0.49934968  0.49952937  0.83225518  1
  Cr  Cr42  1  0.49740724  0.83266835  0.50384249  1
  Ni  Ni43  1  0.33361466  0.66615773  0.66536469  1
  Fe  Fe44  1  0.50165300  0.83342091  0.82931767  1
  Fe  Fe45  1  0.83250328  0.16371200  0.49814595  1
  Ni  Ni46  1  0.66692627  0.99851910  0.66471288  1
  Ni  Ni47  1  0.82989951  0.16250283  0.83366453  1
  Cr  Cr48  1  0.83195568  0.49890598  0.49918428  1
  Fe  Fe49  1  0.66632185  0.33210825  0.66457799  1
  Cr  Cr50  1  0.82962885  0.49948219  0.83293983  1
  Fe  Fe51  1  0.83274955  0.83472377  0.49887476  1
  Ni  Ni52  1  0.66428632  0.66867951  0.66767017  1
  Ni  Ni53  1  0.83267098  0.83538440  0.83230304  1
" 