8213,Ni22Cr78_18,-231.609257896048, 156.745558446339,Ni22Cr78,"# generated using pymatgen
 data_Cr11Ni43
_symmetry_space_group_name_H-M   'P 1'
_cell_length_a   7.47639147
_cell_length_b   7.47639147
_cell_length_c   10.57321422
_cell_angle_alpha   90.00000000
_cell_angle_beta   90.00000000
_cell_angle_gamma   90.00000000
_symmetry_Int_Tables_number   1
_chemical_formula_structural   Cr11Ni43
_chemical_formula_sum   'Cr11 Ni43'
_cell_volume   591.00492241
_cell_formula_units_Z   1
loop_
 _symmetry_equiv_pos_site_id
 _symmetry_equiv_pos_as_xyz
  1  'x, y, z'
loop_
 _atom_site_type_symbol
 _atom_site_label
 _atom_site_symmetry_multiplicity
 _atom_site_fract_x
 _atom_site_fract_y
 _atom_site_fract_z
 _atom_site_occupancy
  Ni  Ni0  1  0.99795188  -0.00045438  0.99855822  1
  Cr  Cr1  1  0.16326396  0.16655509  0.16770734  1
  Ni  Ni2  1  0.99811859  0.99720581  0.33279157  1
  Ni  Ni3  1  0.99658807  0.33205490  0.99798435  1
  Ni  Ni4  1  0.16412265  0.50000200  0.16683971  1
  Ni  Ni5  1  0.99555261  0.33405398  0.33150811  1
  Cr  Cr6  1  0.00004814  0.66520588  0.99875071  1
  Ni  Ni7  1  0.16547037  0.83315045  0.16606588  1
  Ni  Ni8  1  0.99704661  0.66714944  0.33228644  1
  Ni  Ni9  1  0.33265851  0.99858856  -0.00039700  1
  Ni  Ni10  1  0.50082467  0.16587552  0.16595646  1
  Ni  Ni11  1  0.33149484  0.99877507  0.33077533  1
  Cr  Cr12  1  0.33401183  0.33533917  0.99832572  1
  Ni  Ni13  1  0.50229989  0.49968562  0.16600527  1
  Ni  Ni14  1  0.33546690  0.33367391  0.33074513  1
  Ni  Ni15  1  0.33342445  0.66647803  0.00019241  1
  Ni  Ni16  1  0.50027201  0.83252787  0.16355761  1
  Cr  Cr17  1  0.33388387  0.66564763  0.32987950  1
  Ni  Ni18  1  0.66755933  0.00073669  -0.00004475  1
  Ni  Ni19  1  0.83178607  0.16721063  0.16511808  1
  Cr  Cr20  1  0.66792918  0.99926263  0.33214183  1
  Ni  Ni21  1  0.66727455  0.33264876  -0.00049654  1
  Ni  Ni22  1  0.83192427  0.49863361  0.16686126  1
  Ni  Ni23  1  0.66688126  0.33489697  0.33194191  1
  Ni  Ni24  1  0.66594993  0.66456366  0.00080821  1
  Ni  Ni25  1  0.83231469  0.83210161  0.16569512  1
  Ni  Ni26  1  0.66896201  0.66333824  0.33192436  1
  Cr  Cr27  1  0.16510637  0.16651176  0.49696044  1
  Cr  Cr28  1  0.99720658  0.99860159  0.66662998  1
  Ni  Ni29  1  0.16555614  0.16643296  0.83276151  1
  Cr  Cr30  1  0.16411572  0.49883411  0.49975402  1
  Ni  Ni31  1  0.99719268  0.33421780  0.66837719  1
  Ni  Ni32  1  0.16520118  0.49920733  0.83098351  1
  Ni  Ni33  1  0.16440807  0.83233956  0.49916949  1
  Ni  Ni34  1  0.99833975  0.66544073  0.66651676  1
  Ni  Ni35  1  0.16663190  0.83252471  0.83257103  1
  Cr  Cr36  1  0.49919459  0.16836215  0.50064575  1
  Ni  Ni37  1  0.33184147  -0.00028956  0.66796328  1
  Ni  Ni38  1  0.50071881  0.16631548  0.83184883  1
  Ni  Ni39  1  0.50241243  0.49885941  0.50044405  1
  Ni  Ni40  1  0.33409087  0.33402904  0.66872442  1
  Ni  Ni41  1  0.50121972  0.49919185  0.83142853  1
  Cr  Cr42  1  0.49980417  0.83047103  0.50279131  1
  Ni  Ni43  1  0.33154073  0.66423887  0.66758271  1
  Cr  Cr44  1  0.50160523  0.83186131  0.83314699  1
  Ni  Ni45  1  0.83292013  0.16866848  0.49916053  1
  Ni  Ni46  1  0.66774087  0.00087263  0.66704356  1
  Ni  Ni47  1  0.83172829  0.16744549  0.83413537  1
  Ni  Ni48  1  0.83128281  0.49941016  0.49927784  1
  Ni  Ni49  1  0.66697143  0.33353339  0.66673288  1
  Ni  Ni50  1  0.83165480  0.49862494  0.83192797  1
  Ni  Ni51  1  0.83379324  0.83006295  0.49964768  1
  Ni  Ni52  1  0.66859215  0.66359275  0.66571204  1
  Ni  Ni53  1  0.83230463  0.83198763  0.83283595  1
" 