1412,Ni22Fe40Cr36_9,-223.443363830829, 176.841855445145,Ni22Fe40Cr36,"# generated using pymatgen
 data_Cr7Fe7Ni4
_symmetry_space_group_name_H-M   'P 1'
_cell_length_a   7.48565915
_cell_length_b   7.48565915
_cell_length_c   10.58632069
_cell_angle_alpha   90.00000000
_cell_angle_beta   90.00000000
_cell_angle_gamma   90.00000000
_symmetry_Int_Tables_number   1
_chemical_formula_structural   Cr7Fe7Ni4
_chemical_formula_sum   'Cr21 Fe21 Ni12'
_cell_volume   593.20546280
_cell_formula_units_Z   3
loop_
 _symmetry_equiv_pos_site_id
 _symmetry_equiv_pos_as_xyz
  1  'x, y, z'
loop_
 _atom_site_type_symbol
 _atom_site_label
 _atom_site_symmetry_multiplicity
 _atom_site_fract_x
 _atom_site_fract_y
 _atom_site_fract_z
 _atom_site_occupancy
  Ni  Ni0  1  0.00081033  0.99868228  0.00003132  1
  Fe  Fe1  1  0.16381518  0.16549982  0.16601571  1
  Ni  Ni2  1  0.00005833  0.99580005  0.33107597  1
  Ni  Ni3  1  0.00082618  0.33184307  0.00189271  1
  Ni  Ni4  1  0.16402962  0.50340954  0.16601591  1
  Fe  Fe5  1  0.00097747  0.33252825  0.33045157  1
  Fe  Fe6  1  -0.00122354  0.66514870  0.00231243  1
  Fe  Fe7  1  0.16472882  0.83257329  0.16539162  1
  Fe  Fe8  1  0.00042798  0.66542855  0.33039766  1
  Fe  Fe9  1  0.33061174  -0.00006090  -0.00105214  1
  Cr  Cr10  1  0.49719027  0.16345046  0.16742393  1
  Ni  Ni11  1  0.32877158  0.99512661  0.33040860  1
  Cr  Cr12  1  0.32941768  0.33316194  -0.00034003  1
  Ni  Ni13  1  0.49789357  0.50245442  0.16512789  1
  Cr  Cr14  1  0.32732922  0.33438885  0.33209690  1
  Fe  Fe15  1  0.33152122  0.66723657  0.00141170  1
  Fe  Fe16  1  0.49756763  0.82893949  0.16641260  1
  Fe  Fe17  1  0.33046094  0.66698292  0.33087999  1
  Cr  Cr18  1  0.66577898  0.99555996  0.99733251  1
  Cr  Cr19  1  0.83344687  0.16393359  0.16597200  1
  Fe  Fe20  1  0.66527346  0.99451992  0.33172123  1
  Cr  Cr21  1  0.66665769  0.33242908  0.99870118  1
  Ni  Ni22  1  0.83463080  0.50173998  0.16498747  1
  Cr  Cr23  1  0.66683415  0.33632176  0.32922194  1
  Fe  Fe24  1  0.66643946  0.66579162  0.00123316  1
  Fe  Fe25  1  0.83410007  0.82982964  0.16571924  1
  Fe  Fe26  1  0.66541986  0.66904840  0.33022583  1
  Fe  Fe27  1  0.16526232  0.16435468  0.49781816  1
  Ni  Ni28  1  0.00096501  0.00003280  0.66531551  1
  Fe  Fe29  1  0.16461796  0.16484122  0.83321971  1
  Ni  Ni30  1  0.16423417  0.50149542  0.49833283  1
  Cr  Cr31  1  0.00102605  0.33043424  0.66443426  1
  Cr  Cr32  1  0.16387392  0.50224720  0.83122720  1
  Cr  Cr33  1  0.16404203  0.83326976  0.49941233  1
  Fe  Fe34  1  0.99867030  0.66776826  0.66385702  1
  Cr  Cr35  1  0.16490039  0.83282001  0.83397548  1
  Cr  Cr36  1  0.49764467  0.16317202  0.49825504  1
  Ni  Ni37  1  0.33014541  -0.00096861  0.66726029  1
  Ni  Ni38  1  0.49724049  0.16294370  0.82991156  1
  Cr  Cr39  1  0.49771198  0.49630565  0.49950023  1
  Fe  Fe40  1  0.33125730  0.32779873  0.66536958  1
  Cr  Cr41  1  0.49805807  0.49642342  0.83179726  1
  Fe  Fe42  1  0.49743424  0.83259574  0.49594679  1
  Cr  Cr43  1  0.33216686  0.66619601  0.66410470  1
  Fe  Fe44  1  0.49672843  0.83222752  0.83305211  1
  Cr  Cr45  1  0.83119291  0.16342350  0.49690431  1
  Cr  Cr46  1  0.66631672  0.99729820  0.66569615  1
  Fe  Fe47  1  0.83506795  0.16537549  0.83280190  1
  Cr  Cr48  1  0.83382318  0.49959674  0.49841603  1
  Ni  Ni49  1  0.66619651  0.33105885  0.66829461  1
  Cr  Cr50  1  0.83433080  0.49916692  0.83328010  1
  Fe  Fe51  1  0.83333458  0.83222349  0.49700844  1
  Cr  Cr52  1  0.66529824  0.66724741  0.66488211  1
  Cr  Cr53  1  0.83753402  0.83175386  0.83172751  1
" 