4547,Ni22Cr78_14,-231.468073373821, 148.90199407064,Ni22Cr78,"# generated using pymatgen
 data_Cr11Ni43
_symmetry_space_group_name_H-M   'P 1'
_cell_length_a   7.47858317
_cell_length_b   7.47858317
_cell_length_c   10.57631375
_cell_angle_alpha   90.00000000
_cell_angle_beta   90.00000000
_cell_angle_gamma   90.00000000
_symmetry_Int_Tables_number   1
_chemical_formula_structural   Cr11Ni43
_chemical_formula_sum   'Cr11 Ni43'
_cell_volume   591.52483259
_cell_formula_units_Z   1
loop_
 _symmetry_equiv_pos_site_id
 _symmetry_equiv_pos_as_xyz
  1  'x, y, z'
loop_
 _atom_site_type_symbol
 _atom_site_label
 _atom_site_symmetry_multiplicity
 _atom_site_fract_x
 _atom_site_fract_y
 _atom_site_fract_z
 _atom_site_occupancy
  Ni  Ni0  1  0.00000583  0.00050175  0.00185639  1
  Ni  Ni1  1  0.16513785  0.16756924  0.16638311  1
  Ni  Ni2  1  0.00049780  0.00048524  0.33139356  1
  Ni  Ni3  1  0.99886132  0.33282969  0.00112259  1
  Ni  Ni4  1  0.16515894  0.49805474  0.16756127  1
  Ni  Ni5  1  0.00097199  0.33272285  0.33340763  1
  Ni  Ni6  1  0.99703348  0.66446791  0.00193301  1
  Ni  Ni7  1  0.16368144  0.83228640  0.16851660  1
  Ni  Ni8  1  0.00030770  0.66445164  0.33182874  1
  Cr  Cr9  1  0.32980459  0.00065532  0.00156125  1
  Ni  Ni10  1  0.49822660  0.16765488  0.16751191  1
  Ni  Ni11  1  0.33204091  0.99917022  0.33261700  1
  Ni  Ni12  1  0.33222885  0.33309168  0.00135023  1
  Ni  Ni13  1  0.49894229  0.49860074  0.16587707  1
  Ni  Ni14  1  0.33116509  0.33274972  0.33249676  1
  Cr  Cr15  1  0.33328413  0.66492437  0.00175454  1
  Ni  Ni16  1  0.50025165  0.83111540  0.17015579  1
  Ni  Ni17  1  0.33214582  0.66571371  0.33305876  1
  Cr  Cr18  1  0.66636572  0.99886487  0.00401829  1
  Ni  Ni19  1  0.83440963  0.16637475  0.16671712  1
  Ni  Ni20  1  0.66515551  0.99907919  0.33173560  1
  Ni  Ni21  1  0.66650565  0.33616304  0.00090047  1
  Ni  Ni22  1  0.83380707  0.49984166  0.16525185  1
  Cr  Cr23  1  0.66755137  0.33318522  0.33411145  1
  Ni  Ni24  1  0.66771455  0.66135396  0.00111390  1
  Ni  Ni25  1  0.83372798  0.83137916  0.16712376  1
  Ni  Ni26  1  0.66513536  0.66574827  0.33143940  1
  Ni  Ni27  1  0.16604214  0.16684749  0.49910793  1
  Ni  Ni28  1  0.00128308  0.00135440  0.66406705  1
  Ni  Ni29  1  0.16477041  0.16768537  0.83203931  1
  Ni  Ni30  1  0.16602189  0.49873201  0.49809947  1
  Ni  Ni31  1  0.99917733  0.33289017  0.66345958  1
  Cr  Cr32  1  0.16557137  0.49641947  0.83243650  1
  Ni  Ni33  1  0.16712817  0.83215381  0.49892639  1
  Ni  Ni34  1  -0.00059733  0.66363209  0.66396938  1
  Cr  Cr35  1  0.16372914  0.83381354  0.82991049  1
  Ni  Ni36  1  0.49805702  0.16571838  0.49959456  1
  Ni  Ni37  1  0.33094253  0.00046995  0.66282077  1
  Cr  Cr38  1  0.49681751  0.17002977  0.83115766  1
  Ni  Ni39  1  0.49787474  0.49960766  0.49999811  1
  Ni  Ni40  1  0.33219932  0.33288388  0.66404280  1
  Ni  Ni41  1  0.50131535  0.49808171  0.83205030  1
  Ni  Ni42  1  0.49778888  0.83227297  0.49876325  1
  Ni  Ni43  1  0.33300541  0.66447346  0.66266919  1
  Cr  Cr44  1  0.50042183  0.83028036  0.82823123  1
  Ni  Ni45  1  0.83377850  0.16675112  0.49971474  1
  Ni  Ni46  1  0.66526905  0.00056658  0.66193786  1
  Cr  Cr47  1  0.83432862  0.16804973  0.83148404  1
  Ni  Ni48  1  0.83400718  0.49858329  0.50012026  1
  Ni  Ni49  1  0.66617307  0.33483746  0.66383926  1
  Ni  Ni50  1  0.83154869  0.49887451  0.83258279  1
  Cr  Cr51  1  0.83283410  0.83223841  0.49793459  1
  Ni  Ni52  1  0.66543885  0.66210121  0.66474439  1
  Cr  Cr53  1  0.83330708  0.82996864  0.83185311  1
" 