8202,Ni22Cr78_4,-231.608051947576, 156.308511730026,Ni22Cr78,"# generated using pymatgen
 data_Cr11Ni43
_symmetry_space_group_name_H-M   'P 1'
_cell_length_a   7.47402065
_cell_length_b   7.47402065
_cell_length_c   10.56986138
_cell_angle_alpha   90.00000000
_cell_angle_beta   90.00000000
_cell_angle_gamma   90.00000000
_symmetry_Int_Tables_number   1
_chemical_formula_structural   Cr11Ni43
_chemical_formula_sum   'Cr11 Ni43'
_cell_volume   590.44286510
_cell_formula_units_Z   1
loop_
 _symmetry_equiv_pos_site_id
 _symmetry_equiv_pos_as_xyz
  1  'x, y, z'
loop_
 _atom_site_type_symbol
 _atom_site_label
 _atom_site_symmetry_multiplicity
 _atom_site_fract_x
 _atom_site_fract_y
 _atom_site_fract_z
 _atom_site_occupancy
  Ni  Ni0  1  0.99772868  -0.00006266  -0.00022460  1
  Cr  Cr1  1  0.16508137  0.16623321  0.16617677  1
  Ni  Ni2  1  0.99863870  0.99886262  0.33378227  1
  Ni  Ni3  1  0.99945697  0.33221891  0.99727475  1
  Ni  Ni4  1  0.16601528  0.49993453  0.16681367  1
  Ni  Ni5  1  0.99871504  0.33139781  0.33428772  1
  Ni  Ni6  1  0.99808486  0.66644139  0.00021576  1
  Ni  Ni7  1  0.16343068  0.83226712  0.16766672  1
  Ni  Ni8  1  0.00120630  0.66831887  0.33216429  1
  Ni  Ni9  1  0.33241673  0.00122817  0.99754239  1
  Cr  Cr10  1  0.50209428  0.16741059  0.16625584  1
  Ni  Ni11  1  0.33060664  0.99767961  0.33463854  1
  Ni  Ni12  1  0.33292398  0.33298820  0.99774892  1
  Ni  Ni13  1  0.49830310  0.49793309  0.16662943  1
  Ni  Ni14  1  0.33253636  0.33469993  0.33255552  1
  Cr  Cr15  1  0.33237017  0.66470398  0.00045488  1
  Cr  Cr16  1  0.50039678  0.83462627  0.16573568  1
  Ni  Ni17  1  0.33124237  0.66632598  0.33292901  1
  Ni  Ni18  1  0.66855871  0.00011302  0.99773042  1
  Ni  Ni19  1  0.83314293  0.16471873  0.16657806  1
  Ni  Ni20  1  0.66949373  0.00024321  0.33370959  1
  Ni  Ni21  1  0.66616836  0.33242966  0.99849370  1
  Cr  Cr22  1  0.83391249  0.49823244  0.16524579  1
  Ni  Ni23  1  0.66726195  0.33198291  0.33346007  1
  Ni  Ni24  1  0.66752746  0.66608373  0.99695601  1
  Ni  Ni25  1  0.83543261  0.83498872  0.16477798  1
  Cr  Cr26  1  0.66601972  0.66653212  0.33504030  1
  Ni  Ni27  1  0.16459533  0.16465614  0.50032644  1
  Ni  Ni28  1  0.99852971  0.00224486  0.66501640  1
  Ni  Ni29  1  0.16603471  0.16771980  0.83214199  1
  Cr  Cr30  1  0.16620750  0.49827701  0.49937782  1
  Ni  Ni31  1  0.00012747  0.32954948  0.66724203  1
  Ni  Ni32  1  0.16564277  0.49637122  0.83331368  1
  Ni  Ni33  1  0.16695204  0.83506710  0.49802766  1
  Cr  Cr34  1  0.99700528  0.66621141  0.66634178  1
  Cr  Cr35  1  0.16546492  0.83447088  0.83254886  1
  Cr  Cr36  1  0.49826035  0.16517806  0.49788582  1
  Ni  Ni37  1  0.33264873  -0.00017639  0.66627305  1
  Ni  Ni38  1  0.49894050  0.16506196  0.83428259  1
  Ni  Ni39  1  0.49931924  0.50101027  0.49919172  1
  Ni  Ni40  1  0.33175170  0.33261667  0.66851600  1
  Ni  Ni41  1  0.49995700  0.49955090  0.83284736  1
  Ni  Ni42  1  0.49887250  0.83256301  0.50111035  1
  Ni  Ni43  1  0.33615843  0.66620164  0.66560764  1
  Ni  Ni44  1  0.50214993  0.83399774  0.83137612  1
  Ni  Ni45  1  0.83519264  0.16527202  0.49801787  1
  Ni  Ni46  1  0.66747780  0.99757732  0.66700955  1
  Ni  Ni47  1  0.83368830  0.16534777  0.83396043  1
  Ni  Ni48  1  0.83255103  0.49893232  0.49894079  1
  Cr  Cr49  1  0.66793284  0.33331373  0.66631545  1
  Ni  Ni50  1  0.83298384  0.49958894  0.83425997  1
  Ni  Ni51  1  0.83287931  0.83446256  0.49971495  1
  Ni  Ni52  1  0.66442747  0.66771497  0.66644861  1
  Ni  Ni53  1  0.83029219  0.83349621  0.83407537  1
" 