7698,Ni22Fe21Cr56_10,-216.898566073456, 164.019839264683,Ni22Fe21Cr56,"# generated using pymatgen
 data_Cr31Fe11Ni12
_symmetry_space_group_name_H-M   'P 1'
_cell_length_a   7.53095988
_cell_length_b   7.53095988
_cell_length_c   10.65038560
_cell_angle_alpha   90.00000000
_cell_angle_beta   90.00000000
_cell_angle_gamma   90.00000000
_symmetry_Int_Tables_number   1
_chemical_formula_structural   Cr31Fe11Ni12
_chemical_formula_sum   'Cr31 Fe11 Ni12'
_cell_volume   604.04041885
_cell_formula_units_Z   1
loop_
 _symmetry_equiv_pos_site_id
 _symmetry_equiv_pos_as_xyz
  1  'x, y, z'
loop_
 _atom_site_type_symbol
 _atom_site_label
 _atom_site_symmetry_multiplicity
 _atom_site_fract_x
 _atom_site_fract_y
 _atom_site_fract_z
 _atom_site_occupancy
  Fe  Fe0  1  0.99226290  -0.00405495  0.99470739  1
  Cr  Cr1  1  0.16145659  0.16197777  0.15886867  1
  Cr  Cr2  1  -0.00377175  0.99521494  0.32955411  1
  Ni  Ni3  1  0.99559707  0.32514448  0.99263064  1
  Cr  Cr4  1  0.16372034  0.49575219  0.16231861  1
  Cr  Cr5  1  -0.00157227  0.32889635  0.32984561  1
  Cr  Cr6  1  0.99370774  0.66239482  0.99437574  1
  Cr  Cr7  1  0.16223513  0.82964366  0.16111040  1
  Cr  Cr8  1  -0.00393299  0.66272268  0.33027666  1
  Fe  Fe9  1  0.33182469  0.99537301  0.99427264  1
  Cr  Cr10  1  0.49773145  0.16148572  0.16156146  1
  Cr  Cr11  1  0.32873793  0.99517157  0.32868508  1
  Cr  Cr12  1  0.32919686  0.32842759  0.99546553  1
  Ni  Ni13  1  0.49728161  0.49941538  0.16464159  1
  Cr  Cr14  1  0.32870024  0.33098398  0.33070593  1
  Cr  Cr15  1  0.33342613  0.66373222  -0.00062887  1
  Fe  Fe16  1  0.49999084  0.82891750  0.16218061  1
  Fe  Fe17  1  0.33156809  0.66199476  0.32968836  1
  Ni  Ni18  1  0.66187262  0.99321053  0.99503129  1
  Cr  Cr19  1  0.82763187  0.15981691  0.16321931  1
  Ni  Ni20  1  0.66073381  0.99052685  0.32745041  1
  Cr  Cr21  1  0.66248209  0.33009988  0.99328075  1
  Cr  Cr22  1  0.82755406  0.49659891  0.15928443  1
  Cr  Cr23  1  0.65994033  0.33143057  0.32991652  1
  Ni  Ni24  1  0.66079545  0.66695270  -0.00378335  1
  Ni  Ni25  1  0.82505882  0.82976013  0.16197149  1
  Ni  Ni26  1  0.65937969  0.66479476  0.32649803  1
  Ni  Ni27  1  0.16550571  0.16487022  0.49840525  1
  Cr  Cr28  1  -0.00359732  -0.00286455  0.66085492  1
  Fe  Fe29  1  0.16238613  0.16103274  0.82951686  1
  Ni  Ni30  1  0.16624476  0.49573890  0.49797330  1
  Cr  Cr31  1  0.99553140  0.32800095  0.66257122  1
  Cr  Cr32  1  0.16208590  0.49619493  0.82842546  1
  Cr  Cr33  1  0.16436240  0.82706813  0.49865810  1
  Fe  Fe34  1  -0.00312709  0.66133962  0.66225258  1
  Cr  Cr35  1  0.16575286  0.82885353  0.82737489  1
  Cr  Cr36  1  0.49565797  0.16221471  0.49707934  1
  Fe  Fe37  1  0.33021883  -0.00392212  0.66354008  1
  Fe  Fe38  1  0.49559370  0.15892122  0.83013295  1
  Fe  Fe39  1  0.49355630  0.49803996  0.49596466  1
  Fe  Fe40  1  0.32864391  0.32965760  0.66163113  1
  Cr  Cr41  1  0.49429160  0.49739103  0.82834058  1
  Cr  Cr42  1  0.49625622  0.82851251  0.49514214  1
  Ni  Ni43  1  0.32946908  0.66170950  0.66066885  1
  Ni  Ni44  1  0.49462664  0.83080606  0.83084441  1
  Cr  Cr45  1  0.82693893  0.16108277  0.49178746  1
  Cr  Cr46  1  0.66176394  -0.00395315  0.66368300  1
  Ni  Ni47  1  0.82925849  0.16208010  0.83181880  1
  Cr  Cr48  1  0.82867343  0.49753950  0.49740373  1
  Cr  Cr49  1  0.66186355  0.32806787  0.66457867  1
  Fe  Fe50  1  0.82890386  0.49532019  0.83052392  1
  Cr  Cr51  1  0.82729460  0.82849375  0.49481472  1
  Cr  Cr52  1  0.66062051  0.66294373  0.66488479  1
  Cr  Cr53  1  0.82847604  0.82933711  0.82886084  1
" 