4610,Ni22Fe34Cr43_14,-222.182630383976, 177.745396114222,Ni22Fe34Cr43,"# generated using pymatgen
 data_Cr4Fe3Ni2
_symmetry_space_group_name_H-M   'P 1'
_cell_length_a   7.50188651
_cell_length_b   7.50188651
_cell_length_c   10.60926965
_cell_angle_alpha   90.00000000
_cell_angle_beta   90.00000000
_cell_angle_gamma   90.00000000
_symmetry_Int_Tables_number   1
_chemical_formula_structural   Cr4Fe3Ni2
_chemical_formula_sum   'Cr24 Fe18 Ni12'
_cell_volume   597.07167345
_cell_formula_units_Z   6
loop_
 _symmetry_equiv_pos_site_id
 _symmetry_equiv_pos_as_xyz
  1  'x, y, z'
loop_
 _atom_site_type_symbol
 _atom_site_label
 _atom_site_symmetry_multiplicity
 _atom_site_fract_x
 _atom_site_fract_y
 _atom_site_fract_z
 _atom_site_occupancy
  Cr  Cr0  1  0.99647349  0.99333841  0.99729640  1
  Cr  Cr1  1  0.16289539  0.16213817  0.16592505  1
  Ni  Ni2  1  0.99733530  0.99611672  0.33277147  1
  Fe  Fe3  1  0.99662324  0.33202586  0.99634786  1
  Cr  Cr4  1  0.16386333  0.49906311  0.16312124  1
  Ni  Ni5  1  -0.00084362  0.32770318  0.33210227  1
  Cr  Cr6  1  -0.00029413  0.66547625  0.99490261  1
  Fe  Fe7  1  0.16542056  0.83197890  0.16484489  1
  Cr  Cr8  1  0.99693680  0.66773160  0.32959961  1
  Ni  Ni9  1  0.33313751  0.99336758  -0.00205339  1
  Fe  Fe10  1  0.49893296  0.16084550  0.16228503  1
  Fe  Fe11  1  0.32902148  -0.00211938  0.32944905  1
  Cr  Cr12  1  0.33268344  0.33145892  0.99692000  1
  Cr  Cr13  1  0.49764822  0.50229582  0.16447115  1
  Cr  Cr14  1  0.33167027  0.33085837  0.33523544  1
  Ni  Ni15  1  0.32919749  0.66872045  -0.00228412  1
  Fe  Fe16  1  0.49722524  0.83381617  0.16300819  1
  Fe  Fe17  1  0.33192129  0.66563370  0.33024033  1
  Ni  Ni18  1  0.66186296  0.99762376  -0.00042133  1
  Cr  Cr19  1  0.83127520  0.16388483  0.16246393  1
  Fe  Fe20  1  0.66638194  0.99565746  0.32890918  1
  Ni  Ni21  1  0.66465503  0.32907112  0.99711272  1
  Cr  Cr22  1  0.83155737  0.49617964  0.16305156  1
  Cr  Cr23  1  0.66199296  0.33015626  0.33111924  1
  Cr  Cr24  1  0.66560339  0.66639482  0.99565997  1
  Ni  Ni25  1  0.82818990  0.83393475  0.16670613  1
  Fe  Fe26  1  0.66462265  0.66674761  0.33046320  1
  Ni  Ni27  1  0.16249120  0.16224329  0.49868116  1
  Fe  Fe28  1  -0.00137192  0.99692885  0.66364597  1
  Cr  Cr29  1  0.16380339  0.16277566  0.82842525  1
  Cr  Cr30  1  0.16425015  0.49571897  0.49752132  1
  Fe  Fe31  1  0.99715469  0.33192844  0.66431100  1
  Fe  Fe32  1  0.16299741  0.49866606  0.83090425  1
  Cr  Cr33  1  0.16445277  0.83525142  0.49691908  1
  Fe  Fe34  1  0.99409290  0.66447584  0.66688034  1
  Fe  Fe35  1  0.16669687  0.83005097  0.83075497  1
  Cr  Cr36  1  0.49552904  0.16341521  0.50006588  1
  Fe  Fe37  1  0.33039853  -0.00199652  0.66566564  1
  Cr  Cr38  1  0.49819747  0.16055377  0.83306278  1
  Ni  Ni39  1  0.49945953  0.50028834  0.49911554  1
  Fe  Fe40  1  0.33184868  0.32991810  0.66278233  1
  Cr  Cr41  1  0.50026355  0.50009071  0.82992545  1
  Cr  Cr42  1  0.49888572  0.82787921  0.49513658  1
  Cr  Cr43  1  0.32985077  0.66310674  0.66615780  1
  Ni  Ni44  1  0.49529324  0.83085022  0.83390431  1
  Cr  Cr45  1  0.83556359  0.16357642  0.49654283  1
  Cr  Cr46  1  0.66636129  0.99632748  0.66577465  1
  Cr  Cr47  1  0.83082482  0.16749660  0.83405072  1
  Cr  Cr48  1  0.82847882  0.49886998  0.49777912  1
  Ni  Ni49  1  0.66421175  0.33346908  0.66418374  1
  Ni  Ni50  1  0.83308033  0.49766720  0.83013082  1
  Fe  Fe51  1  0.83125802  0.83150525  0.49655175  1
  Fe  Fe52  1  0.66581070  0.66330813  0.66588470  1
  Fe  Fe53  1  0.82873855  0.83014650  0.83060584  1
" 