3422,Ni22Fe68Cr8_14,-231.275306485978, 187.070412100404,Ni22Fe68Cr8,"# generated using pymatgen
 data_Cr5Fe37Ni12
_symmetry_space_group_name_H-M   'P 1'
_cell_length_a   7.41800622
_cell_length_b   7.41800622
_cell_length_c   10.49064500
_cell_angle_alpha   90.00000000
_cell_angle_beta   90.00000000
_cell_angle_gamma   90.00000000
_symmetry_Int_Tables_number   1
_chemical_formula_structural   Cr5Fe37Ni12
_chemical_formula_sum   'Cr5 Fe37 Ni12'
_cell_volume   577.26679530
_cell_formula_units_Z   1
loop_
 _symmetry_equiv_pos_site_id
 _symmetry_equiv_pos_as_xyz
  1  'x, y, z'
loop_
 _atom_site_type_symbol
 _atom_site_label
 _atom_site_symmetry_multiplicity
 _atom_site_fract_x
 _atom_site_fract_y
 _atom_site_fract_z
 _atom_site_occupancy
  Fe  Fe0  1  1.00323352  0.00457652  1.00322995  1
  Fe  Fe1  1  0.16755911  0.16865895  0.17088711  1
  Ni  Ni2  1  0.00420704  1.00268397  0.33782266  1
  Ni  Ni3  1  1.00269051  0.33593207  0.00338850  1
  Fe  Fe4  1  0.16785579  0.50488168  0.17098811  1
  Fe  Fe5  1  1.00249047  0.33427479  0.33532770  1
  Fe  Fe6  1  1.00285174  0.66680754  1.00167900  1
  Fe  Fe7  1  0.16880432  0.83605958  0.17042493  1
  Fe  Fe8  1  0.00396086  0.66984727  0.33767885  1
  Fe  Fe9  1  0.33459485  1.00283583  1.00264869  1
  Fe  Fe10  1  0.50570929  0.17113044  0.17062930  1
  Fe  Fe11  1  0.33651106  0.00519327  0.33786057  1
  Cr  Cr12  1  0.33594926  0.33762190  0.00410594  1
  Fe  Fe13  1  0.50588508  0.50396764  0.17057611  1
  Fe  Fe14  1  0.33673493  0.33510003  0.33622218  1
  Fe  Fe15  1  0.33572877  0.66930010  1.00212612  1
  Cr  Cr16  1  0.50174057  0.83892649  0.16873736  1
  Fe  Fe17  1  0.33639553  0.67000006  0.33776165  1
  Fe  Fe18  1  0.67207836  0.00516240  1.00321439  1
  Fe  Fe19  1  0.83656042  0.17026406  0.17095218  1
  Ni  Ni20  1  0.67065106  0.00494237  0.33832991  1
  Ni  Ni21  1  0.67148301  0.33838664  0.00434723  1
  Ni  Ni22  1  0.83756225  0.50158175  0.16930830  1
  Ni  Ni23  1  0.66833879  0.33605571  0.33476060  1
  Ni  Ni24  1  0.66955084  0.66920593  1.00158194  1
  Cr  Cr25  1  0.83744264  0.83448814  0.17060414  1
  Fe  Fe26  1  0.66968935  0.66956009  0.33611308  1
  Fe  Fe27  1  0.16888092  0.17046642  0.50343381  1
  Fe  Fe28  1  0.00364370  1.00272706  0.66923369  1
  Fe  Fe29  1  0.16720244  0.16893722  0.83605730  1
  Fe  Fe30  1  0.17088060  0.50397097  0.50409506  1
  Ni  Ni31  1  0.00362593  0.33651692  0.67040632  1
  Fe  Fe32  1  0.16855127  0.50360266  0.83543617  1
  Ni  Ni33  1  0.17066250  0.83729854  0.50211026  1
  Ni  Ni34  1  0.00498485  0.67195761  0.67035594  1
  Ni  Ni35  1  0.16984871  0.83657035  0.83849420  1
  Fe  Fe36  1  0.50385236  0.17054145  0.50376261  1
  Fe  Fe37  1  0.33421871  1.00218570  0.66944177  1
  Cr  Cr38  1  0.50415983  0.17056475  0.83661065  1
  Fe  Fe39  1  0.50171730  0.50294951  0.50323503  1
  Fe  Fe40  1  0.33532160  0.33811405  0.66936848  1
  Fe  Fe41  1  0.50417077  0.50588231  0.83587141  1
  Fe  Fe42  1  0.50349840  0.83633582  0.50277897  1
  Fe  Fe43  1  0.33530606  0.66990486  0.66982559  1
  Fe  Fe44  1  0.50261154  0.83525652  0.83721912  1
  Fe  Fe45  1  0.83704989  0.16905847  0.50332152  1
  Fe  Fe46  1  0.67241429  1.00279403  0.66829140  1
  Fe  Fe47  1  0.83915495  0.17059141  0.83646153  1
  Cr  Cr48  1  0.83682871  0.50188530  0.50276515  1
  Ni  Ni49  1  0.66982501  0.33635437  0.67060150  1
  Fe  Fe50  1  0.83743803  0.50254177  0.83661078  1
  Fe  Fe51  1  0.83806673  0.83780082  0.50294904  1
  Fe  Fe52  1  0.67121267  0.66948293  0.67152121  1
  Fe  Fe53  1  0.83711327  0.83676342  0.83693543  1
" 