1445,Ni22Cr78_1,-231.673456525757, 155.779788929488,Ni22Cr78,"# generated using pymatgen
 data_Cr11Ni43
_symmetry_space_group_name_H-M   'P 1'
_cell_length_a   7.47541203
_cell_length_b   7.47541203
_cell_length_c   10.57182907
_cell_angle_alpha   90.00000000
_cell_angle_beta   90.00000000
_cell_angle_gamma   90.00000000
_symmetry_Int_Tables_number   1
_chemical_formula_structural   Cr11Ni43
_chemical_formula_sum   'Cr11 Ni43'
_cell_volume   590.77267922
_cell_formula_units_Z   1
loop_
 _symmetry_equiv_pos_site_id
 _symmetry_equiv_pos_as_xyz
  1  'x, y, z'
loop_
 _atom_site_type_symbol
 _atom_site_label
 _atom_site_symmetry_multiplicity
 _atom_site_fract_x
 _atom_site_fract_y
 _atom_site_fract_z
 _atom_site_occupancy
  Ni  Ni0  1  0.99836598  0.00336041  0.99890877  1
  Ni  Ni1  1  0.16752651  0.16685891  0.16539631  1
  Ni  Ni2  1  -0.00014513  0.00153904  0.33364408  1
  Ni  Ni3  1  -0.00038611  0.33197677  0.99934879  1
  Ni  Ni4  1  0.16531298  0.49690518  0.16502430  1
  Cr  Cr5  1  -0.00038721  0.33073448  0.33260667  1
  Ni  Ni6  1  0.99846586  0.66291646  0.99844987  1
  Cr  Cr7  1  0.16523036  0.83474934  0.16616084  1
  Ni  Ni8  1  0.99707542  0.66408041  0.33375030  1
  Ni  Ni9  1  0.33453604  0.00307393  -0.00025269  1
  Ni  Ni10  1  0.49875071  0.16799352  0.16529375  1
  Ni  Ni11  1  0.33319854  0.00312605  0.33260548  1
  Ni  Ni12  1  0.33210618  0.33095350  -0.00047744  1
  Ni  Ni13  1  0.50072819  0.49566863  0.16713851  1
  Ni  Ni14  1  0.33347677  0.33088833  0.33284520  1
  Cr  Cr15  1  0.33362899  0.66392473  0.99857283  1
  Ni  Ni16  1  0.49954779  0.83486834  0.16609406  1
  Cr  Cr17  1  0.33483328  0.66401992  0.33257513  1
  Ni  Ni18  1  0.66554309  0.00206962  0.99819447  1
  Ni  Ni19  1  0.83206984  0.16815050  0.16418601  1
  Cr  Cr20  1  0.66610822  0.00151779  0.33363864  1
  Ni  Ni21  1  0.66661631  0.33083308  -0.00023957  1
  Ni  Ni22  1  0.83209216  0.49766083  0.16619146  1
  Ni  Ni23  1  0.66521444  0.33382604  0.33264720  1
  Cr  Cr24  1  0.66571492  0.66585527  0.99834878  1
  Cr  Cr25  1  0.83358743  0.83240817  0.16615888  1
  Ni  Ni26  1  0.66665271  0.66429634  0.33362559  1
  Ni  Ni27  1  0.16752803  0.16683224  0.50017726  1
  Ni  Ni28  1  0.99738007  0.00226475  0.66570662  1
  Ni  Ni29  1  0.16650071  0.16776853  0.83274678  1
  Ni  Ni30  1  0.16527757  0.49691463  0.50055448  1
  Ni  Ni31  1  -0.00051805  0.33197377  0.66632897  1
  Ni  Ni32  1  0.16420931  0.49572227  0.83274388  1
  Cr  Cr33  1  0.16425546  0.83465076  0.49922268  1
  Ni  Ni34  1  0.99756675  0.66396357  0.66617896  1
  Cr  Cr35  1  0.16397110  0.83508498  0.83298023  1
  Ni  Ni36  1  0.49880816  0.16791388  0.50026274  1
  Ni  Ni37  1  0.33460072  0.00300380  0.66593843  1
  Ni  Ni38  1  0.49961273  0.16701541  0.83274308  1
  Ni  Ni39  1  0.50077248  0.49569713  0.49845345  1
  Ni  Ni40  1  0.33209299  0.33094073  0.66596184  1
  Ni  Ni41  1  0.49997356  0.49419408  0.83276089  1
  Ni  Ni42  1  0.50100462  0.83484027  0.49926992  1
  Cr  Cr43  1  0.33365834  0.66395619  0.66716482  1
  Ni  Ni44  1  0.50093312  0.83724346  0.83295644  1
  Ni  Ni45  1  0.83208260  0.16667137  0.50119729  1
  Ni  Ni46  1  0.66654372  0.00112309  0.66652804  1
  Ni  Ni47  1  0.83222134  0.16664884  0.83292490  1
  Ni  Ni48  1  0.83208491  0.49908621  0.49920407  1
  Ni  Ni49  1  0.66674627  0.33088323  0.66592016  1
  Ni  Ni50  1  0.83401225  0.49715345  0.83293590  1
  Ni  Ni51  1  0.83305320  0.83254459  0.49962532  1
  Cr  Cr52  1  0.66659376  0.66692338  0.66633014  1
  Ni  Ni53  1  0.83335905  0.83451885  0.83253556  1
" 