8303,Ni22Fe34Cr43_18,-221.789234995426, 176.106718103612,Ni22Fe34Cr43,"# generated using pymatgen
 data_Cr4Fe3Ni2
_symmetry_space_group_name_H-M   'P 1'
_cell_length_a   7.49944079
_cell_length_b   7.49944079
_cell_length_c   10.60581088
_cell_angle_alpha   90.00000000
_cell_angle_beta   90.00000000
_cell_angle_gamma   90.00000000
_symmetry_Int_Tables_number   1
_chemical_formula_structural   Cr4Fe3Ni2
_chemical_formula_sum   'Cr24 Fe18 Ni12'
_cell_volume   596.48790218
_cell_formula_units_Z   6
loop_
 _symmetry_equiv_pos_site_id
 _symmetry_equiv_pos_as_xyz
  1  'x, y, z'
loop_
 _atom_site_type_symbol
 _atom_site_label
 _atom_site_symmetry_multiplicity
 _atom_site_fract_x
 _atom_site_fract_y
 _atom_site_fract_z
 _atom_site_occupancy
  Cr  Cr0  1  0.99666273  0.99658469  0.99756050  1
  Cr  Cr1  1  0.16456790  0.16633828  0.16666617  1
  Ni  Ni2  1  0.99285903  0.99572993  0.33393385  1
  Cr  Cr3  1  0.99598444  0.33324369  -0.00054552  1
  Ni  Ni4  1  0.16383654  0.50112254  0.16618647  1
  Cr  Cr5  1  0.99500999  0.33001397  0.32795016  1
  Ni  Ni6  1  0.99591193  0.66444665  0.99452366  1
  Fe  Fe7  1  0.15879098  0.83081019  0.16533080  1
  Ni  Ni8  1  0.99701654  0.66722428  0.33049671  1
  Cr  Cr9  1  0.33377896  0.99653249  -0.00097858  1
  Ni  Ni10  1  0.50127842  0.16264065  0.16342342  1
  Cr  Cr11  1  0.33163635  0.99551879  0.32795000  1
  Cr  Cr12  1  0.33231723  0.33289321  -0.00157859  1
  Cr  Cr13  1  0.50047693  0.49757519  0.16748727  1
  Ni  Ni14  1  0.33592468  0.33087224  0.33035559  1
  Cr  Cr15  1  0.32930293  0.66465218  0.00200397  1
  Fe  Fe16  1  0.50131508  0.83184832  0.16346289  1
  Cr  Cr17  1  0.33194320  0.66380994  0.32750848  1
  Fe  Fe18  1  0.66591166  0.99661205  -0.00113218  1
  Ni  Ni19  1  0.82617398  0.16142399  0.16649317  1
  Fe  Fe20  1  0.66551834  -0.00044099  0.33107379  1
  Fe  Fe21  1  0.66396242  0.33119764  -0.00095884  1
  Cr  Cr22  1  0.83265030  0.50089802  0.16164906  1
  Fe  Fe23  1  0.66432213  0.32881936  0.33080178  1
  Ni  Ni24  1  0.66466438  0.66390340  0.99545842  1
  Cr  Cr25  1  0.82898153  0.83001420  0.16411761  1
  Fe  Fe26  1  0.66687957  0.66531154  0.33073067  1
  Cr  Cr27  1  0.16554888  0.16345522  0.49923338  1
  Cr  Cr28  1  0.99736165  0.99475261  0.66182944  1
  Cr  Cr29  1  0.16791382  0.16503946  0.82732952  1
  Cr  Cr30  1  0.16379706  0.49634501  0.49515517  1
  Cr  Cr31  1  0.99281063  0.33289393  0.66568261  1
  Ni  Ni32  1  0.16396938  0.49990407  0.83140268  1
  Fe  Fe33  1  0.16367835  0.82944950  0.49733356  1
  Ni  Ni34  1  0.99693311  0.66410192  0.66686652  1
  Fe  Fe35  1  0.16221815  0.82919707  0.83049769  1
  Cr  Cr36  1  0.49555292  0.16483804  0.50006123  1
  Ni  Ni37  1  0.33396401  0.99608419  0.66597371  1
  Fe  Fe38  1  0.49893139  0.16662470  0.83069400  1
  Fe  Fe39  1  0.49836866  0.49649070  0.49654485  1
  Fe  Fe40  1  0.33194583  0.33358905  0.66581467  1
  Fe  Fe41  1  0.49985317  0.49764171  0.83190731  1
  Cr  Cr42  1  0.50274841  0.82920344  0.49605902  1
  Cr  Cr43  1  0.33213981  0.66466465  0.66456978  1
  Cr  Cr44  1  0.50088421  0.83222054  0.83395194  1
  Fe  Fe45  1  0.82941874  0.16521302  0.49540864  1
  Cr  Cr46  1  0.66654625  -0.00091720  0.66396407  1
  Cr  Cr47  1  0.82938829  0.16345198  0.83403780  1
  Cr  Cr48  1  0.82909205  0.50276487  0.49747970  1
  Fe  Fe49  1  0.66173104  0.33449809  0.66549817  1
  Fe  Fe50  1  0.83024553  0.50074539  0.83220237  1
  Fe  Fe51  1  0.83404741  0.83024088  0.49705164  1
  Fe  Fe52  1  0.66653985  0.66440740  0.66644719  1
  Ni  Ni53  1  0.83006908  0.82687914  0.83040848  1
" 