2681,Ni22Fe40Cr36_8,-223.862855844101, 180.223804165962,Ni22Fe40Cr36,"# generated using pymatgen
 data_Cr7Fe7Ni4
_symmetry_space_group_name_H-M   'P 1'
_cell_length_a   7.48862660
_cell_length_b   7.48862660
_cell_length_c   10.59051730
_cell_angle_alpha   90.00000000
_cell_angle_beta   90.00000000
_cell_angle_gamma   90.00000000
_symmetry_Int_Tables_number   1
_chemical_formula_structural   Cr7Fe7Ni4
_chemical_formula_sum   'Cr21 Fe21 Ni12'
_cell_volume   593.91121529
_cell_formula_units_Z   3
loop_
 _symmetry_equiv_pos_site_id
 _symmetry_equiv_pos_as_xyz
  1  'x, y, z'
loop_
 _atom_site_type_symbol
 _atom_site_label
 _atom_site_symmetry_multiplicity
 _atom_site_fract_x
 _atom_site_fract_y
 _atom_site_fract_z
 _atom_site_occupancy
  Ni  Ni0  1  -0.00006176  -0.00050412  0.99737506  1
  Ni  Ni1  1  0.16777913  0.16291707  0.16258650  1
  Ni  Ni2  1  0.00083480  -0.00100661  0.33405567  1
  Fe  Fe3  1  0.00270113  0.32890503  0.99632041  1
  Cr  Cr4  1  0.16539080  0.49186941  0.16426504  1
  Cr  Cr5  1  0.99814503  0.32713233  0.33300008  1
  Cr  Cr6  1  0.00059258  0.66813959  -0.00066754  1
  Fe  Fe7  1  0.16459529  0.83900859  0.16612449  1
  Cr  Cr8  1  0.00159992  0.67114172  0.32986782  1
  Fe  Fe9  1  0.32764324  0.00111373  0.00042217  1
  Fe  Fe10  1  0.49632107  0.16535169  0.16529390  1
  Ni  Ni11  1  0.32999973  0.00024992  0.33169727  1
  Ni  Ni12  1  0.33329246  0.33093885  -0.00114405  1
  Fe  Fe13  1  0.49935065  0.49645801  0.16389967  1
  Cr  Cr14  1  0.33664489  0.32929992  0.33134014  1
  Cr  Cr15  1  0.33017688  0.66362288  0.99833379  1
  Cr  Cr16  1  0.49985054  0.83518443  0.16346074  1
  Cr  Cr17  1  0.33081010  0.66714589  0.33211463  1
  Fe  Fe18  1  0.66589332  -0.00063957  0.99805101  1
  Cr  Cr19  1  0.83444342  0.16334643  0.16577387  1
  Fe  Fe20  1  0.66342408  0.00203715  0.33359578  1
  Cr  Cr21  1  0.66307742  0.33152138  0.99732095  1
  Cr  Cr22  1  0.83187343  0.49910262  0.16513653  1
  Fe  Fe23  1  0.66353881  0.32938127  0.33325340  1
  Fe  Fe24  1  0.66382073  0.66346582  0.99712541  1
  Cr  Cr25  1  0.82904212  0.83327876  0.16640679  1
  Fe  Fe26  1  0.66265793  0.66432078  0.33189027  1
  Ni  Ni27  1  0.16754022  0.16297742  0.50057810  1
  Fe  Fe28  1  0.00252898  0.00008868  0.66476578  1
  Fe  Fe29  1  0.16497107  0.16688190  0.83245252  1
  Cr  Cr30  1  0.16509399  0.49622086  0.50168721  1
  Fe  Fe31  1  0.00090688  0.33064220  0.66660706  1
  Ni  Ni32  1  0.16466659  0.49432806  0.83027881  1
  Ni  Ni33  1  0.16533648  0.83638157  0.50008694  1
  Ni  Ni34  1  0.00183701  0.66754408  0.66687989  1
  Fe  Fe35  1  0.16561905  0.83195261  0.82944262  1
  Ni  Ni36  1  0.49577875  0.16456990  0.49600327  1
  Fe  Fe37  1  0.32809168  0.00095381  0.66281190  1
  Cr  Cr38  1  0.49325304  0.16353363  0.83467800  1
  Fe  Fe39  1  0.49713885  0.49708835  0.50056277  1
  Ni  Ni40  1  0.33257943  0.33210704  0.66534223  1
  Ni  Ni41  1  0.49532670  0.49866907  0.83081808  1
  Cr  Cr42  1  0.49748086  0.83317250  0.50123804  1
  Fe  Fe43  1  0.32994248  0.66327744  0.66679595  1
  Cr  Cr44  1  0.49847290  0.83208117  0.83102926  1
  Fe  Fe45  1  0.83394809  0.16328210  0.49730602  1
  Cr  Cr46  1  0.66728255  0.00290823  0.66450575  1
  Fe  Fe47  1  0.83552015  0.16716768  0.83331084  1
  Cr  Cr48  1  0.83264980  0.49914494  0.49833935  1
  Cr  Cr49  1  0.66288804  0.33033941  0.66363017  1
  Fe  Fe50  1  0.83269244  0.49826799  0.83032723  1
  Cr  Cr51  1  0.83204287  0.83162552  0.49660340  1
  Fe  Fe52  1  0.66487337  0.66214845  0.66648194  1
  Cr  Cr53  1  0.83029764  0.83206007  0.83273475  1
" 