8439,Ni22Fe40Cr36_0,-223.4809304101, 182.789578999651,Ni22Fe40Cr36,"# generated using pymatgen
 data_Cr7Fe7Ni4
_symmetry_space_group_name_H-M   'P 1'
_cell_length_a   7.48344072
_cell_length_b   7.48344072
_cell_length_c   10.58318336
_cell_angle_alpha   90.00000000
_cell_angle_beta   90.00000000
_cell_angle_gamma   90.00000000
_symmetry_Int_Tables_number   1
_chemical_formula_structural   Cr7Fe7Ni4
_chemical_formula_sum   'Cr21 Fe21 Ni12'
_cell_volume   592.67821797
_cell_formula_units_Z   3
loop_
 _symmetry_equiv_pos_site_id
 _symmetry_equiv_pos_as_xyz
  1  'x, y, z'
loop_
 _atom_site_type_symbol
 _atom_site_label
 _atom_site_symmetry_multiplicity
 _atom_site_fract_x
 _atom_site_fract_y
 _atom_site_fract_z
 _atom_site_occupancy
  Ni  Ni0  1  -0.00056985  -0.00056736  0.00074610  1
  Ni  Ni1  1  0.16512702  0.16113499  0.16629461  1
  Fe  Fe2  1  0.99883954  0.99816497  0.32795186  1
  Cr  Cr3  1  -0.00019238  0.33038129  0.00442642  1
  Fe  Fe4  1  0.16513209  0.49845355  0.16593949  1
  Ni  Ni5  1  0.99879553  0.33074563  0.32949862  1
  Cr  Cr6  1  -0.00076779  0.66548107  0.00227604  1
  Ni  Ni7  1  0.16638404  0.83490966  0.16413509  1
  Cr  Cr8  1  0.99853588  0.66301714  0.33157494  1
  Fe  Fe9  1  0.33076104  0.99760473  -0.00050036  1
  Cr  Cr10  1  0.49978546  0.16470005  0.16746863  1
  Fe  Fe11  1  0.33090565  0.99656121  0.33074726  1
  Cr  Cr12  1  0.33215047  0.33226508  0.99821339  1
  Fe  Fe13  1  0.49888895  0.49983770  0.16559851  1
  Cr  Cr14  1  0.32688249  0.33177223  0.33192478  1
  Fe  Fe15  1  0.33219532  0.66946309  0.00031315  1
  Fe  Fe16  1  0.49935898  0.83373387  0.16575099  1
  Cr  Cr17  1  0.33236262  0.66631699  0.33003097  1
  Ni  Ni18  1  0.66446207  0.99887673  0.99882819  1
  Fe  Fe19  1  0.83302405  0.16233792  0.16703540  1
  Ni  Ni20  1  0.66556162  0.99647854  0.33125716  1
  Fe  Fe21  1  0.66666599  0.33135879  -0.00041060  1
  Ni  Ni22  1  0.82876550  0.49838817  0.16890588  1
  Fe  Fe23  1  0.66846641  0.33497407  0.33051039  1
  Cr  Cr24  1  0.66436825  0.66652830  0.00031786  1
  Fe  Fe25  1  0.83212262  0.83578571  0.16594825  1
  Ni  Ni26  1  0.66601353  0.66925736  0.33061444  1
  Cr  Cr27  1  0.16453718  0.16447015  0.49805768  1
  Fe  Fe28  1  0.00018838  0.99882135  0.66678787  1
  Fe  Fe29  1  0.16640662  0.16293329  0.83340482  1
  Fe  Fe30  1  0.16264893  0.49901968  0.50043384  1
  Fe  Fe31  1  0.99889312  0.33203117  0.66342256  1
  Cr  Cr32  1  0.16597871  0.50017171  0.83102348  1
  Fe  Fe33  1  0.16673465  0.83297098  0.49720589  1
  Fe  Fe34  1  -0.00029327  0.66607832  0.66321847  1
  Fe  Fe35  1  0.16695019  0.83417648  0.83528642  1
  Cr  Cr36  1  0.49958950  0.16497012  0.49654208  1
  Cr  Cr37  1  0.33359849  0.99889675  0.66640478  1
  Fe  Fe38  1  0.49989091  0.16665928  0.83405013  1
  Cr  Cr39  1  0.50041735  0.49839075  0.49697459  1
  Fe  Fe40  1  0.33579044  0.33190521  0.66751658  1
  Ni  Ni41  1  0.49777542  0.49891180  0.83374462  1
  Ni  Ni42  1  0.49802963  0.83230033  0.49346305  1
  Cr  Cr43  1  0.33275894  0.66798094  0.66482546  1
  Ni  Ni44  1  0.49577249  0.83251130  0.83667407  1
  Cr  Cr45  1  0.83242167  0.16566629  0.49531483  1
  Cr  Cr46  1  0.66302835  -0.00109177  0.66686929  1
  Cr  Cr47  1  0.83394921  0.16510589  0.83431918  1
  Fe  Fe48  1  0.83214280  0.49678822  0.49741504  1
  Ni  Ni49  1  0.66610470  0.33220064  0.66696834  1
  Cr  Cr50  1  0.83132327  0.49840996  0.82941496  1
  Cr  Cr51  1  0.83324127  0.83215516  0.49824813  1
  Cr  Cr52  1  0.66394626  0.66742135  0.66442932  1
  Cr  Cr53  1  0.83500387  0.83303739  0.83344126  1
" 