2149,Ni22Fe68Cr8_0,-231.193979671693, 187.415122011622,Ni22Fe68Cr8,"# generated using pymatgen
 data_Cr5Fe37Ni12
_symmetry_space_group_name_H-M   'P 1'
_cell_length_a   7.41844758
_cell_length_b   7.41844758
_cell_length_c   10.49126918
_cell_angle_alpha   90.00000000
_cell_angle_beta   90.00000000
_cell_angle_gamma   90.00000000
_symmetry_Int_Tables_number   1
_chemical_formula_structural   Cr5Fe37Ni12
_chemical_formula_sum   'Cr5 Fe37 Ni12'
_cell_volume   577.36984153
_cell_formula_units_Z   1
loop_
 _symmetry_equiv_pos_site_id
 _symmetry_equiv_pos_as_xyz
  1  'x, y, z'
loop_
 _atom_site_type_symbol
 _atom_site_label
 _atom_site_symmetry_multiplicity
 _atom_site_fract_x
 _atom_site_fract_y
 _atom_site_fract_z
 _atom_site_occupancy
  Cr  Cr0  1  1.00301582  0.00405366  0.00348140  1
  Fe  Fe1  1  0.17057879  0.17150661  0.17130074  1
  Fe  Fe2  1  1.00255528  0.00486149  0.33640817  1
  Fe  Fe3  1  1.00281505  0.33867113  0.00374047  1
  Fe  Fe4  1  0.16852926  0.50295418  0.17052976  1
  Ni  Ni5  1  1.00172851  0.33490166  0.33545269  1
  Fe  Fe6  1  1.00281877  0.66807583  1.00321091  1
  Fe  Fe7  1  0.17115977  0.83536815  0.17100022  1
  Fe  Fe8  1  1.00161693  0.66881753  0.33468400  1
  Fe  Fe9  1  0.33853749  0.00373463  1.00280786  1
  Ni  Ni10  1  0.50301578  0.16793550  0.17023498  1
  Fe  Fe11  1  0.33730381  0.00483337  0.33620413  1
  Fe  Fe12  1  0.33614346  0.33509131  1.00195033  1
  Cr  Cr13  1  0.50420876  0.50202507  0.16981109  1
  Fe  Fe14  1  0.33660450  0.33519650  0.33702790  1
  Fe  Fe15  1  0.33549516  0.67099234  1.00319710  1
  Fe  Fe16  1  0.50343436  0.83779924  0.17016698  1
  Ni  Ni17  1  0.33784602  0.67113657  0.33594763  1
  Fe  Fe18  1  0.66794597  0.00373691  0.00333746  1
  Fe  Fe19  1  0.83520746  0.17172726  0.17165931  1
  Fe  Fe20  1  0.66996562  0.00416395  0.33648568  1
  Fe  Fe21  1  0.67087655  0.33561563  1.00306704  1
  Ni  Ni22  1  0.83867659  0.50381940  0.17049188  1
  Ni  Ni23  1  0.67166598  0.33628694  0.33757641  1
  Fe  Fe24  1  0.67152041  0.67046624  1.00195028  1
  Fe  Fe25  1  0.83523217  0.83575226  0.17051814  1
  Fe  Fe26  1  0.67092071  0.66951797  0.33763758  1
  Ni  Ni27  1  0.17060954  0.17020034  0.50265268  1
  Cr  Cr28  1  0.00351513  0.00488113  0.67024451  1
  Fe  Fe29  1  0.17186391  0.17189514  0.83564047  1
  Cr  Cr30  1  0.16977750  0.50223166  0.50333233  1
  Fe  Fe31  1  1.00284473  0.33715972  0.66999166  1
  Fe  Fe32  1  0.17015614  0.50260305  0.83631049  1
  Cr  Cr33  1  0.17098724  0.83720416  0.50316170  1
  Fe  Fe34  1  1.00197384  0.66832848  0.67193405  1
  Fe  Fe35  1  0.17158556  0.83533154  0.83635378  1
  Fe  Fe36  1  0.50266731  0.17010941  0.50356355  1
  Ni  Ni37  1  0.33740984  0.00483635  0.67106382  1
  Ni  Ni38  1  0.50287211  0.16892286  0.83629455  1
  Fe  Fe39  1  0.50450603  0.50272198  0.50308303  1
  Ni  Ni40  1  0.33735333  0.33539367  0.66999125  1
  Fe  Fe41  1  0.50371990  0.50287038  0.83625554  1
  Fe  Fe42  1  0.50434875  0.83699884  0.50350938  1
  Fe  Fe43  1  0.33836994  0.67019095  0.67089810  1
  Fe  Fe44  1  0.50378433  0.83655975  0.83614917  1
  Ni  Ni45  1  0.83536949  0.17081937  0.50272004  1
  Fe  Fe46  1  0.66750646  0.00358400  0.67000385  1
  Fe  Fe47  1  0.83472669  0.17182527  0.83627197  1
  Fe  Fe48  1  0.83555815  0.50231676  0.50304860  1
  Fe  Fe49  1  0.66937789  0.33627365  0.66980770  1
  Ni  Ni50  1  0.83744875  0.50395942  0.83614778  1
  Fe  Fe51  1  0.83481620  0.83649710  0.50289278  1
  Ni  Ni52  1  0.66985788  0.66927303  0.66926573  1
  Fe  Fe53  1  0.83445789  0.83485410  0.83641481  1
" 