6648,Ni22Fe78_0,-243.062312426104, 210.393859300445,Ni22Fe78,"# generated using pymatgen
 data_Fe11Ni43
_symmetry_space_group_name_H-M   'P 1'
_cell_length_a   7.42344717
_cell_length_b   7.42344717
_cell_length_c   10.49833967
_cell_angle_alpha   90.00000000
_cell_angle_beta   90.00000000
_cell_angle_gamma   90.00000000
_symmetry_Int_Tables_number   1
_chemical_formula_structural   Fe11Ni43
_chemical_formula_sum   'Fe11 Ni43'
_cell_volume   578.53796567
_cell_formula_units_Z   1
loop_
 _symmetry_equiv_pos_site_id
 _symmetry_equiv_pos_as_xyz
  1  'x, y, z'
loop_
 _atom_site_type_symbol
 _atom_site_label
 _atom_site_symmetry_multiplicity
 _atom_site_fract_x
 _atom_site_fract_y
 _atom_site_fract_z
 _atom_site_occupancy
  Ni  Ni0  1  0.00359984  0.00299403  0.00433889  1
  Ni  Ni1  1  0.16937033  0.16941051  0.17018383  1
  Ni  Ni2  1  0.00337444  1.00205066  0.33643020  1
  Ni  Ni3  1  1.00248958  0.33568277  0.00333686  1
  Fe  Fe4  1  0.17004875  0.50362153  0.17007527  1
  Ni  Ni5  1  1.00154010  0.33731106  0.33645933  1
  Fe  Fe6  1  0.00318128  0.66919750  1.00273524  1
  Ni  Ni7  1  0.16988104  0.83876048  0.16961172  1
  Ni  Ni8  1  0.00352775  0.66956053  0.33587752  1
  Ni  Ni9  1  0.33482901  1.00245720  1.00258557  1
  Ni  Ni10  1  0.50056380  0.17033643  0.16880620  1
  Ni  Ni11  1  0.33644334  1.00194534  0.33654166  1
  Ni  Ni12  1  0.33628743  0.33680127  0.00358233  1
  Ni  Ni13  1  0.50431766  0.50257412  0.17042833  1
  Fe  Fe14  1  0.33526818  0.33463238  0.33641096  1
  Ni  Ni15  1  0.33710367  0.66996517  0.00355165  1
  Ni  Ni16  1  0.50248770  0.83600562  0.16915900  1
  Fe  Fe17  1  0.33596111  0.67033547  0.33644426  1
  Fe  Fe18  1  0.66886112  1.00291783  0.00301272  1
  Fe  Fe19  1  0.83544891  0.16902695  0.17015918  1
  Ni  Ni20  1  0.66886856  0.00373586  0.33516829  1
  Ni  Ni21  1  0.66988999  0.33781393  0.00330103  1
  Ni  Ni22  1  0.83520553  0.50252890  0.16953278  1
  Ni  Ni23  1  0.66951266  0.33682746  0.33598903  1
  Ni  Ni24  1  0.66928428  0.66851692  0.00353498  1
  Ni  Ni25  1  0.83659442  0.83512936  0.16896263  1
  Fe  Fe26  1  0.67146481  0.67091297  0.33608346  1
  Ni  Ni27  1  0.16898243  0.16926496  0.50297368  1
  Ni  Ni28  1  1.00280328  1.00183131  0.66826490  1
  Ni  Ni29  1  0.16933153  0.16930936  0.83589019  1
  Ni  Ni30  1  0.16978496  0.50208530  0.50321668  1
  Fe  Fe31  1  1.00283196  0.33578152  0.66940368  1
  Fe  Fe32  1  0.16961038  0.50368137  0.83581726  1
  Ni  Ni33  1  0.16996910  0.83703718  0.50303620  1
  Ni  Ni34  1  0.00294257  0.67051517  0.67023949  1
  Ni  Ni35  1  0.17013820  0.83885359  0.83618645  1
  Fe  Fe36  1  0.50371989  0.16898251  0.50238515  1
  Ni  Ni37  1  0.33612700  0.00298119  0.66949208  1
  Fe  Fe38  1  0.50356897  0.16913539  0.83694871  1
  Ni  Ni39  1  0.50347971  0.50337266  0.50194022  1
  Ni  Ni40  1  0.33789852  0.33627113  0.66933013  1
  Ni  Ni41  1  0.50359824  0.50343190  0.83643086  1
  Ni  Ni42  1  0.50300649  0.83529731  0.50296595  1
  Ni  Ni43  1  0.33598332  0.66955478  0.66911589  1
  Ni  Ni44  1  0.50252493  0.83393175  0.83645467  1
  Ni  Ni45  1  0.83761787  0.16984610  0.50210686  1
  Ni  Ni46  1  0.67017113  0.00342252  0.67032243  1
  Ni  Ni47  1  0.83865117  0.17012428  0.83729671  1
  Ni  Ni48  1  0.83564988  0.50249417  0.50360025  1
  Ni  Ni49  1  0.66901397  0.33615310  0.66949333  1
  Ni  Ni50  1  0.83396774  0.50234687  0.83545062  1
  Ni  Ni51  1  0.83598755  0.83657212  0.50303258  1
  Ni  Ni52  1  0.66976253  0.66905658  0.66837267  1
  Ni  Ni53  1  0.83605162  0.83619385  0.83650963  1
" 