9016,Ni22Fe40Cr36_4,-223.813968282042, 178.205559453531,Ni22Fe40Cr36,"# generated using pymatgen
 data_Cr7Fe7Ni4
_symmetry_space_group_name_H-M   'P 1'
_cell_length_a   7.49237110
_cell_length_b   7.49237110
_cell_length_c   10.59581282
_cell_angle_alpha   90.00000000
_cell_angle_beta   90.00000000
_cell_angle_gamma   90.00000000
_symmetry_Int_Tables_number   1
_chemical_formula_structural   Cr7Fe7Ni4
_chemical_formula_sum   'Cr21 Fe21 Ni12'
_cell_volume   594.80257223
_cell_formula_units_Z   3
loop_
 _symmetry_equiv_pos_site_id
 _symmetry_equiv_pos_as_xyz
  1  'x, y, z'
loop_
 _atom_site_type_symbol
 _atom_site_label
 _atom_site_symmetry_multiplicity
 _atom_site_fract_x
 _atom_site_fract_y
 _atom_site_fract_z
 _atom_site_occupancy
  Cr  Cr0  1  0.99516957  0.99800121  0.99554113  1
  Cr  Cr1  1  0.15904283  0.16582543  0.16369149  1
  Fe  Fe2  1  0.99759199  0.99315838  0.33024309  1
  Fe  Fe3  1  0.99383661  0.33108102  0.99584702  1
  Fe  Fe4  1  0.16369780  0.49985801  0.16647505  1
  Fe  Fe5  1  0.99797176  0.33607289  0.33122825  1
  Cr  Cr6  1  0.99392142  0.66398523  -0.00115646  1
  Fe  Fe7  1  0.16494343  0.82967477  0.16675495  1
  Ni  Ni8  1  0.99825778  0.66476979  0.33234639  1
  Cr  Cr9  1  0.33258676  0.00047364  0.99780790  1
  Fe  Fe10  1  0.50055935  0.16539737  0.16601844  1
  Cr  Cr11  1  0.33476408  0.99816238  0.32947344  1
  Cr  Cr12  1  0.33268200  0.32972506  0.99528920  1
  Cr  Cr13  1  0.50213030  0.50034334  0.16379703  1
  Cr  Cr14  1  0.33058765  0.33451458  0.33461602  1
  Cr  Cr15  1  0.33255279  0.66468766  0.00151501  1
  Ni  Ni16  1  0.50157285  0.83000236  0.16533544  1
  Ni  Ni17  1  0.32796480  0.66544330  0.33149661  1
  Cr  Cr18  1  0.66496302  -0.00163294  -0.00135490  1
  Fe  Fe19  1  0.82732898  0.16623886  0.16701855  1
  Fe  Fe20  1  0.66776519  0.99584765  0.33073237  1
  Fe  Fe21  1  0.66779583  0.33324794  0.99520940  1
  Fe  Fe22  1  0.83309675  0.49795332  0.16554885  1
  Fe  Fe23  1  0.66637689  0.33304803  0.33061400  1
  Ni  Ni24  1  0.66852679  0.66377529  0.99592634  1
  Fe  Fe25  1  0.83104050  0.83028171  0.16571850  1
  Cr  Cr26  1  0.66734565  0.66771317  0.33418226  1
  Cr  Cr27  1  0.16171850  0.16655131  0.50119294  1
  Fe  Fe28  1  0.99411339  0.00182550  0.66708891  1
  Ni  Ni29  1  0.16103504  0.16756936  0.82887740  1
  Fe  Fe30  1  0.16275099  0.50118899  0.50077403  1
  Ni  Ni31  1  -0.00135606  0.33300546  0.66636680  1
  Cr  Cr32  1  0.16524868  0.49729532  0.83141906  1
  Cr  Cr33  1  0.16417532  0.83291473  0.50205973  1
  Fe  Fe34  1  0.99500291  0.66467059  0.66529977  1
  Cr  Cr35  1  0.16321914  0.83554251  0.82920943  1
  Cr  Cr36  1  0.50138560  0.16591829  0.49828823  1
  Fe  Fe37  1  0.33350787  0.00377715  0.66724231  1
  Fe  Fe38  1  0.49891287  0.16402032  0.82701757  1
  Cr  Cr39  1  0.49807095  0.49879524  0.50136904  1
  Ni  Ni40  1  0.33080712  0.33259735  0.66615118  1
  Ni  Ni41  1  0.50322341  0.49472911  0.83044024  1
  Cr  Cr42  1  0.49961973  0.83007423  0.50219164  1
  Fe  Fe43  1  0.33200359  0.66090190  0.66605488  1
  Cr  Cr44  1  0.50011593  0.82630665  0.82938639  1
  Cr  Cr45  1  0.83354307  0.16405196  0.49439291  1
  Ni  Ni46  1  0.66861156  0.99609808  0.66352577  1
  Fe  Fe47  1  0.82990974  0.16572917  0.82837111  1
  Cr  Cr48  1  0.83121376  0.49637357  0.50028085  1
  Ni  Ni49  1  0.66475736  0.32833095  0.66719180  1
  Fe  Fe50  1  0.83066853  0.49788841  0.82935094  1
  Ni  Ni51  1  0.83437638  0.83158346  0.49959498  1
  Fe  Fe52  1  0.66861963  0.66187271  0.66718431  1
  Ni  Ni53  1  0.82941424  0.83148084  0.82850504  1
" 