4690,Ni22Fe68Cr8_13,-231.311170948625, 188.399326215266,Ni22Fe68Cr8,"# generated using pymatgen
 data_Cr5Fe37Ni12
_symmetry_space_group_name_H-M   'P 1'
_cell_length_a   7.41739497
_cell_length_b   7.41739497
_cell_length_c   10.48978057
_cell_angle_alpha   90.00000000
_cell_angle_beta   90.00000000
_cell_angle_gamma   90.00000000
_symmetry_Int_Tables_number   1
_chemical_formula_structural   Cr5Fe37Ni12
_chemical_formula_sum   'Cr5 Fe37 Ni12'
_cell_volume   577.12410565
_cell_formula_units_Z   1
loop_
 _symmetry_equiv_pos_site_id
 _symmetry_equiv_pos_as_xyz
  1  'x, y, z'
loop_
 _atom_site_type_symbol
 _atom_site_label
 _atom_site_symmetry_multiplicity
 _atom_site_fract_x
 _atom_site_fract_y
 _atom_site_fract_z
 _atom_site_occupancy
  Fe  Fe0  1  1.00306991  0.00350552  0.00366374  1
  Ni  Ni1  1  0.17023643  0.17077331  0.16907621  1
  Fe  Fe2  1  0.00432932  0.00424271  0.33543912  1
  Ni  Ni3  1  0.00395365  0.33669972  0.00520941  1
  Fe  Fe4  1  0.16934753  0.50391918  0.16919715  1
  Fe  Fe5  1  1.00208908  0.33699396  0.33609238  1
  Fe  Fe6  1  0.00353195  0.67182714  0.00399407  1
  Fe  Fe7  1  0.16902729  0.83762353  0.17020079  1
  Fe  Fe8  1  0.00403336  0.66879995  0.33571483  1
  Ni  Ni9  1  0.33684369  0.00342193  1.00294364  1
  Ni  Ni10  1  0.50235689  0.17104290  0.16942267  1
  Fe  Fe11  1  0.33650408  1.00285254  0.33733310  1
  Fe  Fe12  1  0.33664513  0.33524998  0.00394767  1
  Fe  Fe13  1  0.50416156  0.50209122  0.16982247  1
  Cr  Cr14  1  0.33757415  0.33742794  0.33626342  1
  Fe  Fe15  1  0.33590328  0.66947524  1.00279449  1
  Cr  Cr16  1  0.50446246  0.83777331  0.17080780  1
  Ni  Ni17  1  0.33523087  0.67129498  0.33740941  1
  Ni  Ni18  1  0.67072606  0.00397906  1.00255466  1
  Fe  Fe19  1  0.83622575  0.16970203  0.16992511  1
  Fe  Fe20  1  0.66920546  0.00480411  0.33649565  1
  Fe  Fe21  1  0.66880359  0.33479610  0.00492700  1
  Fe  Fe22  1  0.83653765  0.50242376  0.16992538  1
  Ni  Ni23  1  0.67239136  0.33620970  0.33624684  1
  Fe  Fe24  1  0.67061024  0.67100402  1.00318614  1
  Ni  Ni25  1  0.83774405  0.83546191  0.16950078  1
  Fe  Fe26  1  0.66935252  0.66810159  0.33676925  1
  Fe  Fe27  1  0.16966258  0.16827971  0.50403124  1
  Fe  Fe28  1  0.00406395  0.00367534  0.67094026  1
  Fe  Fe29  1  0.16951906  0.16960573  0.83733570  1
  Fe  Fe30  1  0.16888022  0.50442587  0.50319975  1
  Fe  Fe31  1  0.00447399  0.33510020  0.66967309  1
  Fe  Fe32  1  0.16991669  0.50287511  0.83765080  1
  Fe  Fe33  1  0.17194956  0.83734476  0.50250238  1
  Fe  Fe34  1  1.00304214  0.67126575  0.67032566  1
  Fe  Fe35  1  0.16909428  0.83756135  0.83733155  1
  Fe  Fe36  1  0.50469210  0.16826054  0.50399891  1
  Ni  Ni37  1  0.33754297  0.00382872  0.66878909  1
  Fe  Fe38  1  0.50408634  0.16870367  0.83711377  1
  Fe  Fe39  1  0.50515575  0.50414191  0.50278727  1
  Fe  Fe40  1  0.33711393  0.33415145  0.66990097  1
  Fe  Fe41  1  0.50306274  0.50315208  0.83743110  1
  Ni  Ni42  1  0.50273205  0.83760695  0.50277317  1
  Cr  Cr43  1  0.33637092  0.67099487  0.66998013  1
  Fe  Fe44  1  0.50478802  0.83818553  0.83700799  1
  Fe  Fe45  1  0.83569285  0.17132621  0.50341704  1
  Ni  Ni46  1  0.66960472  0.00443396  0.67092981  1
  Fe  Fe47  1  0.83644083  0.16790064  0.83670427  1
  Fe  Fe48  1  0.83600518  0.50182520  0.50331481  1
  Fe  Fe49  1  0.66845500  0.33518163  0.66854176  1
  Cr  Cr50  1  0.83690221  0.50501344  0.83564430  1
  Cr  Cr51  1  0.83490680  0.83553663  0.50417114  1
  Fe  Fe52  1  0.66956342  0.67150324  0.67008500  1
  Ni  Ni53  1  0.83612458  0.83736238  0.83629601  1
" 