2188,Ni22Fe78_9,-243.127991898033, 209.82486519885,Ni22Fe78,"# generated using pymatgen
 data_Fe11Ni43
_symmetry_space_group_name_H-M   'P 1'
_cell_length_a   7.42759305
_cell_length_b   7.42759305
_cell_length_c   10.50420282
_cell_angle_alpha   90.00000000
_cell_angle_beta   90.00000000
_cell_angle_gamma   90.00000000
_symmetry_Int_Tables_number   1
_chemical_formula_structural   Fe11Ni43
_chemical_formula_sum   'Fe11 Ni43'
_cell_volume   579.50781984
_cell_formula_units_Z   1
loop_
 _symmetry_equiv_pos_site_id
 _symmetry_equiv_pos_as_xyz
  1  'x, y, z'
loop_
 _atom_site_type_symbol
 _atom_site_label
 _atom_site_symmetry_multiplicity
 _atom_site_fract_x
 _atom_site_fract_y
 _atom_site_fract_z
 _atom_site_occupancy
  Fe  Fe0  1  1.00258080  0.00267059  0.00307949  1
  Ni  Ni1  1  0.16971515  0.16990784  0.16951053  1
  Ni  Ni2  1  0.00286926  1.00244570  0.33621975  1
  Ni  Ni3  1  0.00406939  0.33577627  1.00246605  1
  Ni  Ni4  1  0.16889901  0.50228301  0.16972662  1
  Ni  Ni5  1  0.00345895  0.33625832  0.33628292  1
  Fe  Fe6  1  0.00277382  0.66882120  1.00265331  1
  Ni  Ni7  1  0.17001642  0.83577534  0.16974356  1
  Ni  Ni8  1  1.00145207  0.66926382  0.33554244  1
  Fe  Fe9  1  0.33654995  1.00253976  1.00259303  1
  Ni  Ni10  1  0.50271634  0.16870715  0.16995743  1
  Ni  Ni11  1  0.33613747  0.00352376  0.33514661  1
  Ni  Ni12  1  0.33426893  0.33596770  1.00213416  1
  Fe  Fe13  1  0.50259405  0.50265822  0.16926151  1
  Ni  Ni14  1  0.33521024  0.33484281  0.33598834  1
  Ni  Ni15  1  0.33680493  0.66898641  1.00184042  1
  Ni  Ni16  1  0.50279225  0.83660106  0.16943250  1
  Fe  Fe17  1  0.33574290  0.66962919  0.33569278  1
  Ni  Ni18  1  0.66929190  1.00100677  1.00224959  1
  Ni  Ni19  1  0.83553618  0.16982292  0.16957179  1
  Ni  Ni20  1  0.66896039  1.00151881  0.33646102  1
  Fe  Fe21  1  0.66908681  0.33616400  0.00282948  1
  Ni  Ni22  1  0.83636081  0.50235964  0.16974140  1
  Ni  Ni23  1  0.66929685  0.33625897  0.33569479  1
  Ni  Ni24  1  0.66910189  0.67123067  1.00242853  1
  Ni  Ni25  1  0.83516081  0.83578503  0.16980489  1
  Ni  Ni26  1  0.67037485  0.67019041  0.33573334  1
  Ni  Ni27  1  0.16888377  0.16964811  0.50221235  1
  Fe  Fe28  1  0.00321509  0.00265818  0.66890236  1
  Ni  Ni29  1  0.16959590  0.16978754  0.83624608  1
  Ni  Ni30  1  0.16958129  0.50207344  0.50260616  1
  Ni  Ni31  1  0.00385691  0.33670816  0.66921852  1
  Ni  Ni32  1  0.16956116  0.50233585  0.83563477  1
  Ni  Ni33  1  0.16992042  0.83624518  0.50227408  1
  Ni  Ni34  1  1.00102314  0.66859953  0.67025324  1
  Ni  Ni35  1  0.16989621  0.83584168  0.83595109  1
  Fe  Fe36  1  0.50203508  0.16931966  0.50215862  1
  Ni  Ni37  1  0.33640792  0.00373650  0.67035457  1
  Ni  Ni38  1  0.50252536  0.16937634  0.83554200  1
  Ni  Ni39  1  0.50269904  0.50322915  0.50205778  1
  Ni  Ni40  1  0.33469830  0.33451088  0.66984449  1
  Ni  Ni41  1  0.50256294  0.50275163  0.83653644  1
  Ni  Ni42  1  0.50269197  0.83542141  0.50251040  1
  Fe  Fe43  1  0.33550954  0.66889645  0.66986833  1
  Ni  Ni44  1  0.50264265  0.83584064  0.83602464  1
  Ni  Ni45  1  0.83651092  0.16965840  0.50213351  1
  Fe  Fe46  1  0.66955846  1.00245409  0.66975325  1
  Ni  Ni47  1  0.83584836  0.16971121  0.83626303  1
  Ni  Ni48  1  0.83568595  0.50219314  0.50250633  1
  Fe  Fe49  1  0.66956978  0.33674108  0.66908937  1
  Ni  Ni50  1  0.83584299  0.50245322  0.83572084  1
  Ni  Ni51  1  0.83535540  0.83611863  0.50217522  1
  Ni  Ni52  1  0.67048881  0.67031032  0.66980594  1
  Ni  Ni53  1  0.83543128  0.83580523  0.83599135  1
" 