2499,Ni22Fe40Cr36_10,-223.649528579556, 183.847539231645,Ni22Fe40Cr36,"# generated using pymatgen
 data_Cr7Fe7Ni4
_symmetry_space_group_name_H-M   'P 1'
_cell_length_a   7.48157281
_cell_length_b   7.48157281
_cell_length_c   10.58054173
_cell_angle_alpha   90.00000000
_cell_angle_beta   90.00000000
_cell_angle_gamma   90.00000000
_symmetry_Int_Tables_number   1
_chemical_formula_structural   Cr7Fe7Ni4
_chemical_formula_sum   'Cr21 Fe21 Ni12'
_cell_volume   592.23452026
_cell_formula_units_Z   3
loop_
 _symmetry_equiv_pos_site_id
 _symmetry_equiv_pos_as_xyz
  1  'x, y, z'
loop_
 _atom_site_type_symbol
 _atom_site_label
 _atom_site_symmetry_multiplicity
 _atom_site_fract_x
 _atom_site_fract_y
 _atom_site_fract_z
 _atom_site_occupancy
  Ni  Ni0  1  0.99363000  0.00099775  0.00296922  1
  Fe  Fe1  1  0.16176607  0.16388767  0.16286621  1
  Fe  Fe2  1  0.00055506  0.99688117  0.32988290  1
  Ni  Ni3  1  0.99589523  0.32871973  0.99871348  1
  Cr  Cr4  1  0.16667292  0.49714235  0.16126688  1
  Cr  Cr5  1  0.99735934  0.32928980  0.33204341  1
  Cr  Cr6  1  0.99894952  0.66752246  0.99787271  1
  Fe  Fe7  1  0.16508052  0.83544413  0.16267793  1
  Fe  Fe8  1  0.99850269  0.66674167  0.33015597  1
  Fe  Fe9  1  0.33134735  0.00054201  0.00031821  1
  Cr  Cr10  1  0.49637013  0.16820615  0.16565034  1
  Fe  Fe11  1  0.32987672  0.00021407  0.33192083  1
  Ni  Ni12  1  0.33544720  0.33409649  0.99842614  1
  Fe  Fe13  1  0.50095870  0.50080007  0.16287179  1
  Cr  Cr14  1  0.33036533  0.33251943  0.33286517  1
  Ni  Ni15  1  0.33732246  0.66656415  0.99783857  1
  Fe  Fe16  1  0.50191761  0.83244293  0.16251172  1
  Cr  Cr17  1  0.33315133  0.66925868  0.32884558  1
  Fe  Fe18  1  0.66553448  0.00175627  -0.00005678  1
  Ni  Ni19  1  0.83086828  0.16281903  0.16451823  1
  Cr  Cr20  1  0.66706570  0.99693503  0.33404546  1
  Ni  Ni21  1  0.66545930  0.33063261  0.99856132  1
  Cr  Cr22  1  0.82959163  0.49698330  0.16600414  1
  Fe  Fe23  1  0.66606244  0.33083397  0.33180777  1
  Fe  Fe24  1  0.66640925  0.66421294  0.99822066  1
  Ni  Ni25  1  0.83173144  0.83216919  0.16561430  1
  Fe  Fe26  1  0.66817143  0.66470340  0.33114302  1
  Ni  Ni27  1  0.16467307  0.16564300  0.49630525  1
  Ni  Ni28  1  0.99808463  0.00076363  0.66452414  1
  Cr  Cr29  1  0.16482320  0.16538669  0.83913735  1
  Fe  Fe30  1  0.16358056  0.50016349  0.49880751  1
  Cr  Cr31  1  -0.00003404  0.33090099  0.66827119  1
  Fe  Fe32  1  0.16653069  0.49774273  0.83689163  1
  Cr  Cr33  1  0.16391801  0.83253764  0.50061681  1
  Fe  Fe34  1  0.00025283  0.66231662  0.66840109  1
  Cr  Cr35  1  0.16551321  0.83308888  0.83080826  1
  Fe  Fe36  1  0.49854040  0.16515931  0.49781853  1
  Cr  Cr37  1  0.33330521  0.00267081  0.66372056  1
  Ni  Ni38  1  0.50085789  0.16843927  0.83260262  1
  Cr  Cr39  1  0.50068638  0.49824387  0.49589666  1
  Cr  Cr40  1  0.33158018  0.33448561  0.66636510  1
  Fe  Fe41  1  0.50061607  0.49699068  0.83597204  1
  Cr  Cr42  1  0.49919902  0.83229257  0.50142871  1
  Fe  Fe43  1  0.33007442  0.66372333  0.66762528  1
  Cr  Cr44  1  0.49905140  0.83611623  0.83257868  1
  Fe  Fe45  1  0.83452482  0.16358519  0.49907344  1
  Fe  Fe46  1  0.66805032  0.00309369  0.66598343  1
  Ni  Ni47  1  0.82971717  0.16752203  0.83428821  1
  Fe  Fe48  1  0.83557893  0.49775190  0.49873865  1
  Cr  Cr49  1  0.66679661  0.33030799  0.66458584  1
  Ni  Ni50  1  0.83271554  0.49663108  0.83459596  1
  Cr  Cr51  1  0.83436569  0.82888867  0.50231149  1
  Cr  Cr52  1  0.66528260  0.66406907  0.66942890  1
  Cr  Cr53  1  0.83323358  0.83674906  0.83124802  1
" 