6073,Ni22Fe68Cr8_5,-231.296482173871, 188.280383465483,Ni22Fe68Cr8,"# generated using pymatgen
 data_Cr5Fe37Ni12
_symmetry_space_group_name_H-M   'P 1'
_cell_length_a   7.41781994
_cell_length_b   7.41781994
_cell_length_c   10.49038157
_cell_angle_alpha   90.00000000
_cell_angle_beta   90.00000000
_cell_angle_gamma   90.00000000
_symmetry_Int_Tables_number   1
_chemical_formula_structural   Cr5Fe37Ni12
_chemical_formula_sum   'Cr5 Fe37 Ni12'
_cell_volume   577.22330807
_cell_formula_units_Z   1
loop_
 _symmetry_equiv_pos_site_id
 _symmetry_equiv_pos_as_xyz
  1  'x, y, z'
loop_
 _atom_site_type_symbol
 _atom_site_label
 _atom_site_symmetry_multiplicity
 _atom_site_fract_x
 _atom_site_fract_y
 _atom_site_fract_z
 _atom_site_occupancy
  Fe  Fe0  1  1.00163300  1.00320749  1.00328578  1
  Fe  Fe1  1  0.16983041  0.17226010  0.16946720  1
  Fe  Fe2  1  1.00311937  1.00319725  0.33623817  1
  Fe  Fe3  1  1.00167372  0.33541799  0.00514066  1
  Ni  Ni4  1  0.16890543  0.50457586  0.16872934  1
  Ni  Ni5  1  1.00237143  0.33513184  0.33728000  1
  Fe  Fe6  1  1.00267553  0.67217565  0.00440213  1
  Fe  Fe7  1  0.16853284  0.83803067  0.16839196  1
  Fe  Fe8  1  1.00314082  0.66839502  0.33662775  1
  Ni  Ni9  1  0.33490004  0.00364686  0.00376271  1
  Ni  Ni10  1  0.50392224  0.16771215  0.16961296  1
  Fe  Fe11  1  0.33508347  0.00520306  0.33367887  1
  Fe  Fe12  1  0.33816324  0.33614091  0.00430513  1
  Fe  Fe13  1  0.50522763  0.50094313  0.16846853  1
  Fe  Fe14  1  0.33451568  0.33651094  0.33594760  1
  Fe  Fe15  1  0.33808760  0.67178154  0.00484463  1
  Fe  Fe16  1  0.50492660  0.83605601  0.16800191  1
  Cr  Cr17  1  0.33819320  0.67108585  0.33512498  1
  Fe  Fe18  1  0.66928564  1.00282616  0.00368172  1
  Fe  Fe19  1  0.83712501  0.17153837  0.17051419  1
  Fe  Fe20  1  0.67169317  1.00283414  0.33476735  1
  Fe  Fe21  1  0.67022484  0.33523969  0.00379117  1
  Ni  Ni22  1  0.83923811  0.50429086  0.16954535  1
  Fe  Fe23  1  0.67097963  0.33682438  0.33495418  1
  Ni  Ni24  1  0.67059075  0.66853907  0.00354756  1
  Fe  Fe25  1  0.83633473  0.83588432  0.16956452  1
  Fe  Fe26  1  0.67307296  0.66892774  0.33555428  1
  Fe  Fe27  1  0.16759101  0.17127978  0.50329408  1
  Fe  Fe28  1  1.00161391  0.00435663  0.67038183  1
  Fe  Fe29  1  0.16852552  0.16950018  0.83720214  1
  Ni  Ni30  1  0.16879299  0.50443830  0.50352380  1
  Fe  Fe31  1  0.00353939  0.33742417  0.66855528  1
  Cr  Cr32  1  0.16870231  0.50448114  0.83858127  1
  Fe  Fe33  1  0.16813489  0.83947590  0.50341895  1
  Ni  Ni34  1  1.00148337  0.67179152  0.66867955  1
  Fe  Fe35  1  0.16777414  0.84024287  0.83779052  1
  Cr  Cr36  1  0.50331479  0.16742315  0.50312035  1
  Fe  Fe37  1  0.33604613  1.00299957  0.67231567  1
  Fe  Fe38  1  0.50119705  0.16944837  0.83827079  1
  Fe  Fe39  1  0.50430349  0.50247182  0.50301940  1
  Ni  Ni40  1  0.33525500  0.33476518  0.66963593  1
  Fe  Fe41  1  0.50572942  0.50303448  0.83809382  1
  Fe  Fe42  1  0.50590587  0.83577295  0.50264052  1
  Cr  Cr43  1  0.33842017  0.67062072  0.67026808  1
  Fe  Fe44  1  0.50549171  0.83714371  0.83876881  1
  Ni  Ni45  1  0.83636698  0.16786581  0.50194882  1
  Fe  Fe46  1  0.67125166  1.00091082  0.67143245  1
  Ni  Ni47  1  0.83514347  0.16796892  0.83821784  1
  Fe  Fe48  1  0.83759783  0.50294564  0.50161935  1
  Cr  Cr49  1  0.67176354  0.33761248  0.67178747  1
  Fe  Fe50  1  0.83604707  0.50456709  0.83867476  1
  Fe  Fe51  1  0.83693501  0.83637432  0.50310215  1
  Ni  Ni52  1  0.67219680  0.67081798  0.66892574  1
  Fe  Fe53  1  0.83661235  0.83507242  0.83668295  1
" 