6254,Ni22Fe68Cr8_15,-231.271758759489, 186.328132414588,Ni22Fe68Cr8,"# generated using pymatgen
 data_Cr5Fe37Ni12
_symmetry_space_group_name_H-M   'P 1'
_cell_length_a   7.41906715
_cell_length_b   7.41906715
_cell_length_c   10.49214538
_cell_angle_alpha   90.00000000
_cell_angle_beta   90.00000000
_cell_angle_gamma   90.00000000
_symmetry_Int_Tables_number   1
_chemical_formula_structural   Cr5Fe37Ni12
_chemical_formula_sum   'Cr5 Fe37 Ni12'
_cell_volume   577.51451396
_cell_formula_units_Z   1
loop_
 _symmetry_equiv_pos_site_id
 _symmetry_equiv_pos_as_xyz
  1  'x, y, z'
loop_
 _atom_site_type_symbol
 _atom_site_label
 _atom_site_symmetry_multiplicity
 _atom_site_fract_x
 _atom_site_fract_y
 _atom_site_fract_z
 _atom_site_occupancy
  Fe  Fe0  1  0.00421071  1.00233548  0.00466102  1
  Ni  Ni1  1  0.16956902  0.16919360  0.16834519  1
  Fe  Fe2  1  0.00518654  0.00338363  0.33614270  1
  Ni  Ni3  1  1.00290004  0.33804270  0.00384109  1
  Fe  Fe4  1  0.17066494  0.50270792  0.17043633  1
  Fe  Fe5  1  0.00464100  0.33695788  0.33580984  1
  Ni  Ni6  1  1.00100765  0.66878450  0.00455091  1
  Fe  Fe7  1  0.17135132  0.83626001  0.16999459  1
  Fe  Fe8  1  0.00629348  0.66935845  0.33634330  1
  Ni  Ni9  1  0.33668494  1.00307049  0.00347984  1
  Fe  Fe10  1  0.50165129  0.16996465  0.16970514  1
  Ni  Ni11  1  0.33630877  0.00426527  0.33706046  1
  Fe  Fe12  1  0.33551055  0.33622667  0.00577974  1
  Ni  Ni13  1  0.50183195  0.50325650  0.16911845  1
  Ni  Ni14  1  0.33563239  0.33568986  0.33598033  1
  Fe  Fe15  1  0.33656417  0.67133583  0.00521577  1
  Fe  Fe16  1  0.50048119  0.83776429  0.16979603  1
  Ni  Ni17  1  0.33664348  0.66986564  0.33688465  1
  Ni  Ni18  1  0.66870282  1.00101068  0.00518150  1
  Fe  Fe19  1  0.83628047  0.17049567  0.16893165  1
  Fe  Fe20  1  0.66804393  0.00492839  0.33602718  1
  Fe  Fe21  1  0.67067577  0.33798872  0.00566461  1
  Fe  Fe22  1  0.83792742  0.50142712  0.16955524  1
  Fe  Fe23  1  0.66792317  0.33582109  0.33650726  1
  Fe  Fe24  1  0.66994473  0.66986161  0.00429380  1
  Fe  Fe25  1  0.83760515  0.83761277  0.16870630  1
  Cr  Cr26  1  0.67171126  0.66894107  0.33543280  1
  Fe  Fe27  1  0.16888477  0.17262021  0.50108759  1
  Fe  Fe28  1  1.00310203  1.00292201  0.66856349  1
  Fe  Fe29  1  0.16945043  0.16975358  0.83878460  1
  Ni  Ni30  1  0.17005092  0.50379172  0.50146733  1
  Fe  Fe31  1  0.00482415  0.33665748  0.66834387  1
  Cr  Cr32  1  0.17097975  0.50357157  0.83772846  1
  Fe  Fe33  1  0.16868044  0.83462632  0.50163609  1
  Fe  Fe34  1  0.00371455  0.66996467  0.66925338  1
  Fe  Fe35  1  0.16860216  0.83775464  0.83848626  1
  Fe  Fe36  1  0.50348809  0.17242224  0.50240109  1
  Cr  Cr37  1  0.33513877  0.00440530  0.66927351  1
  Cr  Cr38  1  0.50362101  0.17095515  0.83946474  1
  Fe  Fe39  1  0.50168244  0.50205230  0.50257930  1
  Ni  Ni40  1  0.33570980  0.33697175  0.66891658  1
  Fe  Fe41  1  0.50507404  0.50440885  0.83685501  1
  Fe  Fe42  1  0.50278197  0.83535260  0.50241398  1
  Fe  Fe43  1  0.33724993  0.66823887  0.66785202  1
  Fe  Fe44  1  0.50401018  0.83438921  0.83797650  1
  Fe  Fe45  1  0.83719526  0.17106532  0.50334136  1
  Fe  Fe46  1  0.67058409  1.00203786  0.66882468  1
  Cr  Cr47  1  0.83737673  0.16906675  0.83711554  1
  Ni  Ni48  1  0.83877676  0.50270708  0.50405005  1
  Fe  Fe49  1  0.66884052  0.33816467  0.66801323  1
  Fe  Fe50  1  0.83507394  0.50453626  0.83636654  1
  Fe  Fe51  1  0.83831871  0.83601998  0.50403671  1
  Fe  Fe52  1  0.66905207  0.66918917  0.66900707  1
  Fe  Fe53  1  0.83640229  0.83441789  0.83732921  1
" 