2778,Ni22Cr78_6,-231.548932110908, 152.802613651117,Ni22Cr78,"# generated using pymatgen
 data_Cr11Ni43
_symmetry_space_group_name_H-M   'P 1'
_cell_length_a   7.47805810
_cell_length_b   7.47805810
_cell_length_c   10.57557118
_cell_angle_alpha   90.00000000
_cell_angle_beta   90.00000000
_cell_angle_gamma   90.00000000
_symmetry_Int_Tables_number   1
_chemical_formula_structural   Cr11Ni43
_chemical_formula_sum   'Cr11 Ni43'
_cell_volume   591.40024808
_cell_formula_units_Z   1
loop_
 _symmetry_equiv_pos_site_id
 _symmetry_equiv_pos_as_xyz
  1  'x, y, z'
loop_
 _atom_site_type_symbol
 _atom_site_label
 _atom_site_symmetry_multiplicity
 _atom_site_fract_x
 _atom_site_fract_y
 _atom_site_fract_z
 _atom_site_occupancy
  Ni  Ni0  1  0.99863253  -0.00003255  0.99825660  1
  Ni  Ni1  1  0.16283954  0.16652429  0.16668457  1
  Ni  Ni2  1  0.00150134  0.00121238  0.33283811  1
  Ni  Ni3  1  0.99661589  0.33169045  0.00071331  1
  Ni  Ni4  1  0.16423425  0.49899487  0.16712656  1
  Ni  Ni5  1  0.00139775  0.33269788  0.33194980  1
  Ni  Ni6  1  0.99779430  0.66593010  0.99904043  1
  Cr  Cr7  1  0.16531691  0.83202512  0.16652226  1
  Ni  Ni8  1  -0.00017201  0.66378838  0.33285456  1
  Ni  Ni9  1  0.33076881  0.99677763  0.99820924  1
  Cr  Cr10  1  0.49800995  0.16462693  0.16497764  1
  Ni  Ni11  1  0.32929076  0.00024761  0.33355249  1
  Cr  Cr12  1  0.32897836  0.33470791  0.00151523  1
  Ni  Ni13  1  0.49936511  0.50224519  0.16584272  1
  Ni  Ni14  1  0.32947392  0.33388844  0.33337426  1
  Ni  Ni15  1  0.33387102  0.66751981  0.99902750  1
  Ni  Ni16  1  0.49975474  0.82997165  0.16500625  1
  Ni  Ni17  1  0.33192338  0.66370047  0.33246884  1
  Ni  Ni18  1  0.66828986  0.99711756  -0.00067693  1
  Ni  Ni19  1  0.83594728  0.16610557  0.16389866  1
  Cr  Cr20  1  0.66807597  0.99859448  0.33204087  1
  Ni  Ni21  1  0.66917992  0.33487603  0.99872872  1
  Ni  Ni22  1  0.83406716  0.50013292  0.16502850  1
  Cr  Cr23  1  0.66718207  0.33447884  0.33409686  1
  Ni  Ni24  1  0.66628683  0.66597343  -0.00033837  1
  Ni  Ni25  1  0.83252893  0.83135387  0.16544120  1
  Ni  Ni26  1  0.66609443  0.66366202  0.33030243  1
  Ni  Ni27  1  0.16561339  0.16633177  0.49909391  1
  Ni  Ni28  1  0.00241354  0.00023198  0.66684915  1
  Ni  Ni29  1  0.16313041  0.16377988  0.83220912  1
  Ni  Ni30  1  0.16535349  0.49928072  0.49888083  1
  Ni  Ni31  1  0.99901672  0.33174390  0.66516298  1
  Cr  Cr32  1  0.16391956  0.49973102  0.83211306  1
  Ni  Ni33  1  0.16589658  0.83222383  0.49982598  1
  Ni  Ni34  1  0.00139562  0.66575801  0.66593343  1
  Ni  Ni35  1  0.16540304  0.83352523  0.83181518  1
  Ni  Ni36  1  0.49625180  0.16885453  0.50049491  1
  Ni  Ni37  1  0.32860600  -0.00070450  0.66613203  1
  Cr  Cr38  1  0.49893399  0.16736861  0.83234816  1
  Ni  Ni39  1  0.49737385  0.49749406  0.49955688  1
  Ni  Ni40  1  0.33156960  0.33301793  0.66369316  1
  Ni  Ni41  1  0.50063893  0.50085439  0.83246335  1
  Cr  Cr42  1  0.49521884  0.83200881  0.49721283  1
  Ni  Ni43  1  0.33068816  0.66567608  0.66631262  1
  Ni  Ni44  1  0.49738539  0.83151497  0.83516487  1
  Ni  Ni45  1  0.83598547  0.16884119  0.50045399  1
  Cr  Cr46  1  0.66819761  0.00077567  0.66601609  1
  Ni  Ni47  1  0.83505515  0.16717319  0.83341744  1
  Ni  Ni48  1  0.83506524  0.49727707  0.49948041  1
  Ni  Ni49  1  0.66720212  0.33388878  0.66499162  1
  Ni  Ni50  1  0.83239960  0.49836195  0.83314968  1
  Cr  Cr51  1  0.83862984  0.83052166  0.49715313  1
  Cr  Cr52  1  0.66655445  0.66363355  0.66714293  1
  Ni  Ni53  1  0.83509858  0.83227038  0.83469589  1
" 