4208,Ni22Cr78_5,-231.610177163087, 154.144724849678,Ni22Cr78,"# generated using pymatgen
 data_Cr11Ni43
_symmetry_space_group_name_H-M   'P 1'
_cell_length_a   7.47464801
_cell_length_b   7.47464801
_cell_length_c   10.57074859
_cell_angle_alpha   90.00000000
_cell_angle_beta   90.00000000
_cell_angle_gamma   90.00000000
_symmetry_Int_Tables_number   1
_chemical_formula_structural   Cr11Ni43
_chemical_formula_sum   'Cr11 Ni43'
_cell_volume   590.59155957
_cell_formula_units_Z   1
loop_
 _symmetry_equiv_pos_site_id
 _symmetry_equiv_pos_as_xyz
  1  'x, y, z'
loop_
 _atom_site_type_symbol
 _atom_site_label
 _atom_site_symmetry_multiplicity
 _atom_site_fract_x
 _atom_site_fract_y
 _atom_site_fract_z
 _atom_site_occupancy
  Ni  Ni0  1  0.00348511  0.99775899  0.00197080  1
  Ni  Ni1  1  0.16847205  0.16394239  0.16599920  1
  Ni  Ni2  1  0.00136596  0.99791203  0.33237239  1
  Cr  Cr3  1  0.00032761  0.33247734  0.00089059  1
  Ni  Ni4  1  0.16823696  0.50177731  0.16636328  1
  Cr  Cr5  1  0.00038474  0.33262705  0.33348821  1
  Ni  Ni6  1  -0.00048867  0.66767665  0.00111325  1
  Ni  Ni7  1  0.16590141  0.83272771  0.16569021  1
  Ni  Ni8  1  -0.00050767  0.66772374  0.33301585  1
  Ni  Ni9  1  0.33101991  0.99933950  0.99867247  1
  Ni  Ni10  1  0.49758100  0.16832419  0.16573495  1
  Ni  Ni11  1  0.33010896  0.99829987  0.33205575  1
  Ni  Ni12  1  0.33536926  0.33196779  0.00068429  1
  Ni  Ni13  1  0.49947172  0.49918703  0.16617380  1
  Ni  Ni14  1  0.33321658  0.33407077  0.33138296  1
  Ni  Ni15  1  0.33411492  0.66715122  -0.00016201  1
  Ni  Ni16  1  0.49737517  0.83093700  0.16615769  1
  Ni  Ni17  1  0.33315121  0.66609035  0.33346664  1
  Cr  Cr18  1  0.66402069  0.99846552  0.00103880  1
  Ni  Ni19  1  0.83254373  0.16611273  0.16637382  1
  Cr  Cr20  1  0.66744090  0.99730134  0.33216709  1
  Ni  Ni21  1  0.66350248  0.33582812  -0.00001267  1
  Ni  Ni22  1  0.83081706  0.50164215  0.16547132  1
  Ni  Ni23  1  0.66554792  0.33578848  0.33181340  1
  Ni  Ni24  1  0.66491762  0.66348112  0.00047204  1
  Ni  Ni25  1  0.83517294  0.83074434  0.16618384  1
  Ni  Ni26  1  0.66583448  0.66455350  0.33259919  1
  Ni  Ni27  1  0.16537698  0.16505048  0.49872388  1
  Cr  Cr28  1  0.00173391  -0.00020193  0.66426473  1
  Ni  Ni29  1  0.16940836  0.16332579  0.83381417  1
  Ni  Ni30  1  0.16600572  0.50193713  0.49963839  1
  Ni  Ni31  1  0.99778564  0.33453146  0.66424774  1
  Cr  Cr32  1  0.16533431  0.50247577  0.83282377  1
  Ni  Ni33  1  0.16692136  0.83148576  0.49898832  1
  Ni  Ni34  1  0.00099708  0.66415116  0.66446865  1
  Ni  Ni35  1  0.16923833  0.83348445  0.83379020  1
  Cr  Cr36  1  0.49968719  0.16625786  0.49913172  1
  Ni  Ni37  1  0.33369241  0.99678132  0.66765493  1
  Ni  Ni38  1  0.49773967  0.16629556  0.83283281  1
  Ni  Ni39  1  0.49947577  0.50112738  0.49735804  1
  Cr  Cr40  1  0.33167501  0.33362865  0.66635999  1
  Ni  Ni41  1  0.50103373  0.49920682  0.83496033  1
  Ni  Ni42  1  0.49726100  0.83120120  0.50003322  1
  Ni  Ni43  1  0.33212559  0.66900637  0.66522842  1
  Ni  Ni44  1  0.49545808  0.83302346  0.83222600  1
  Ni  Ni45  1  0.83338535  0.16716475  0.50078422  1
  Ni  Ni46  1  0.66333784  0.00003144  0.66514007  1
  Cr  Cr47  1  0.83151161  0.16860540  0.83121985  1
  Ni  Ni48  1  0.83301890  0.49958833  0.50037569  1
  Ni  Ni49  1  0.66794079  0.33333385  0.66649928  1
  Ni  Ni50  1  0.83086609  0.49942649  0.83262752  1
  Ni  Ni51  1  0.83418269  0.83175405  0.49829810  1
  Cr  Cr52  1  0.66413854  0.66610982  0.66540576  1
  Cr  Cr53  1  0.83482975  0.82985471  0.83447282  1
" 