7384,Ni23Fe50Cr25_4,-227.004618554739, 177.838791425011,Ni23Fe50Cr25,"# generated using pymatgen
 data_Cr5Fe9Ni4
_symmetry_space_group_name_H-M   'P 1'
_cell_length_a   7.46586531
_cell_length_b   7.46586531
_cell_length_c   10.55832798
_cell_angle_alpha   90.00000000
_cell_angle_beta   90.00000000
_cell_angle_gamma   90.00000000
_symmetry_Int_Tables_number   1
_chemical_formula_structural   Cr5Fe9Ni4
_chemical_formula_sum   'Cr15 Fe27 Ni12'
_cell_volume   588.51217326
_cell_formula_units_Z   3
loop_
 _symmetry_equiv_pos_site_id
 _symmetry_equiv_pos_as_xyz
  1  'x, y, z'
loop_
 _atom_site_type_symbol
 _atom_site_label
 _atom_site_symmetry_multiplicity
 _atom_site_fract_x
 _atom_site_fract_y
 _atom_site_fract_z
 _atom_site_occupancy
  Ni  Ni0  1  0.99925354  0.00341588  0.99964562  1
  Fe  Fe1  1  0.16710658  0.17032665  0.16568216  1
  Fe  Fe2  1  1.00007360  0.00263111  0.33470384  1
  Ni  Ni3  1  0.00384634  0.33178425  0.99970456  1
  Ni  Ni4  1  0.16959893  0.50001364  0.16622285  1
  Ni  Ni5  1  0.99938800  0.33488142  0.33381966  1
  Cr  Cr6  1  0.00342228  0.66578501  0.00032386  1
  Cr  Cr7  1  0.16925781  0.83812041  0.16691715  1
  Cr  Cr8  1  0.00222906  0.66674587  0.33528215  1
  Fe  Fe9  1  0.33369852  0.00319407  0.00089007  1
  Ni  Ni10  1  0.49896520  0.16622706  0.16683274  1
  Fe  Fe11  1  0.33600481  0.99967575  0.33288539  1
  Fe  Fe12  1  0.33413353  0.33216136  0.00174524  1
  Ni  Ni13  1  0.49979401  0.49912545  0.16572579  1
  Cr  Cr14  1  0.33503890  0.33428836  0.33086799  1
  Fe  Fe15  1  0.33625302  0.66619454  0.00134961  1
  Fe  Fe16  1  0.50046566  0.83285213  0.16659520  1
  Fe  Fe17  1  0.33584021  0.66647495  0.33282895  1
  Ni  Ni18  1  0.66283539  0.00026097  0.99991387  1
  Cr  Cr19  1  0.83341688  0.16761841  0.16716920  1
  Fe  Fe20  1  0.66477140  0.00139901  0.33376715  1
  Fe  Fe21  1  0.66441342  0.33001512  0.00091565  1
  Cr  Cr22  1  0.83113285  0.49808375  0.16600358  1
  Ni  Ni23  1  0.66504519  0.33206581  0.33366535  1
  Fe  Fe24  1  0.66306580  0.66775206  0.00095066  1
  Cr  Cr25  1  0.83210327  0.83409066  0.16652942  1
  Fe  Fe26  1  0.66430998  0.66386623  0.33407764  1
  Cr  Cr27  1  0.16947299  0.16545532  0.49829886  1
  Cr  Cr28  1  0.99646887  0.00053643  0.66683068  1
  Ni  Ni29  1  0.17042837  0.16752447  0.83557459  1
  Fe  Fe30  1  0.16793173  0.50086378  0.49873909  1
  Cr  Cr31  1  0.00110569  0.33439291  0.66702532  1
  Fe  Fe32  1  0.16988312  0.49788010  0.83514311  1
  Ni  Ni33  1  0.16997258  0.83444049  0.50007521  1
  Cr  Cr34  1  0.00257990  0.66550256  0.66463870  1
  Cr  Cr35  1  0.17015448  0.83667463  0.83300917  1
  Fe  Fe36  1  0.50203128  0.16484533  0.49842963  1
  Fe  Fe37  1  0.33496808  0.00172725  0.66634620  1
  Fe  Fe38  1  0.49988961  0.16470829  0.83490701  1
  Fe  Fe39  1  0.49903053  0.50090285  0.49923087  1
  Fe  Fe40  1  0.33408655  0.33250332  0.66777970  1
  Fe  Fe41  1  0.49626676  0.50034721  0.83482124  1
  Fe  Fe42  1  0.50006901  0.83326557  0.49991681  1
  Fe  Fe43  1  0.33676322  0.66664961  0.66541528  1
  Fe  Fe44  1  0.49999192  0.83427225  0.83320453  1
  Fe  Fe45  1  0.83217993  0.16662560  0.49725916  1
  Ni  Ni46  1  0.66128882  0.99905859  0.66590101  1
  Fe  Fe47  1  0.83359862  0.16517920  0.83652410  1
  Ni  Ni48  1  0.82946938  0.49925807  0.49788531  1
  Cr  Cr49  1  0.66368111  0.32944927  0.66642679  1
  Cr  Cr50  1  0.82948524  0.49854629  0.83718374  1
  Fe  Fe51  1  0.83152079  0.83415263  0.49921242  1
  Fe  Fe52  1  0.66578770  0.66701438  0.66487446  1
  Cr  Cr53  1  0.83070524  0.83344939  0.83460742  1
" 