8314,Ni23Fe77_14,-243.086821139734, 209.461921855211,Ni23Fe77,"# generated using pymatgen
 data_Fe2Ni7
_symmetry_space_group_name_H-M   'P 1'
_cell_length_a   7.42207757
_cell_length_b   7.42207757
_cell_length_c   10.49640277
_cell_angle_alpha   90.00000000
_cell_angle_beta   90.00000000
_cell_angle_gamma   90.00000000
_symmetry_Int_Tables_number   1
_chemical_formula_structural   Fe2Ni7
_chemical_formula_sum   'Fe12 Ni42'
_cell_volume   578.21781105
_cell_formula_units_Z   6
loop_
 _symmetry_equiv_pos_site_id
 _symmetry_equiv_pos_as_xyz
  1  'x, y, z'
loop_
 _atom_site_type_symbol
 _atom_site_label
 _atom_site_symmetry_multiplicity
 _atom_site_fract_x
 _atom_site_fract_y
 _atom_site_fract_z
 _atom_site_occupancy
  Ni  Ni0  1  1.00294160  1.00258003  0.00339089  1
  Ni  Ni1  1  0.17054051  0.16963760  0.17009065  1
  Fe  Fe2  1  0.00303007  1.00255282  0.33661047  1
  Fe  Fe3  1  0.00344706  0.33636136  0.00344202  1
  Ni  Ni4  1  0.16999391  0.50321707  0.17011978  1
  Ni  Ni5  1  0.00308611  0.33696724  0.33606829  1
  Ni  Ni6  1  1.00293866  0.67014373  1.00242587  1
  Ni  Ni7  1  0.16878848  0.83623271  0.16954765  1
  Ni  Ni8  1  1.00278610  0.66903082  0.33681519  1
  Ni  Ni9  1  0.33564146  0.00375514  1.00226597  1
  Ni  Ni10  1  0.50267318  0.17054683  0.16987933  1
  Ni  Ni11  1  0.33660949  0.00345069  0.33667446  1
  Ni  Ni12  1  0.33647641  0.33636199  0.00320858  1
  Ni  Ni13  1  0.50317995  0.50226995  0.16994872  1
  Ni  Ni14  1  0.33585892  0.33615500  0.33630416  1
  Ni  Ni15  1  0.33564293  0.66897251  1.00300770  1
  Ni  Ni16  1  0.50347705  0.83627159  0.17011082  1
  Ni  Ni17  1  0.33579546  0.66948269  0.33623628  1
  Ni  Ni18  1  0.67050444  0.00341340  1.00260796  1
  Fe  Fe19  1  0.83594769  0.16982067  0.16975972  1
  Ni  Ni20  1  0.66969362  0.00314985  0.33642947  1
  Ni  Ni21  1  0.66933269  0.33636547  1.00269811  1
  Ni  Ni22  1  0.83591447  0.50402313  0.16990880  1
  Ni  Ni23  1  0.67014270  0.33615729  0.33687303  1
  Ni  Ni24  1  0.67050705  0.66931016  0.00326783  1
  Ni  Ni25  1  0.83682314  0.83572720  0.17015068  1
  Ni  Ni26  1  0.67050667  0.66978264  0.33607059  1
  Fe  Fe27  1  0.17004668  0.16928275  0.50309216  1
  Ni  Ni28  1  1.00254473  0.00345422  0.66933397  1
  Ni  Ni29  1  0.16998933  0.16939366  0.83554668  1
  Fe  Fe30  1  0.17004591  0.50296310  0.50261879  1
  Fe  Fe31  1  0.00349926  0.33535129  0.66963121  1
  Ni  Ni32  1  0.17114296  0.50368484  0.83617804  1
  Ni  Ni33  1  0.16828347  0.83591170  0.50291781  1
  Fe  Fe34  1  0.00380531  0.67148504  0.66987170  1
  Ni  Ni35  1  0.16824130  0.83601215  0.83662355  1
  Ni  Ni36  1  0.50378078  0.17147129  0.50318856  1
  Ni  Ni37  1  0.33570213  0.00380917  0.67014814  1
  Ni  Ni38  1  0.50338461  0.17114712  0.83602101  1
  Ni  Ni39  1  0.50266766  0.50170705  0.50244763  1
  Ni  Ni40  1  0.33579110  0.33645438  0.66957409  1
  Ni  Ni41  1  0.50227633  0.50197338  0.83669207  1
  Fe  Fe42  1  0.50356900  0.83683957  0.50261817  1
  Ni  Ni43  1  0.33651858  0.66882601  0.66984514  1
  Fe  Fe44  1  0.50261607  0.83677524  0.83671383  1
  Ni  Ni45  1  0.83531125  0.16864220  0.50260865  1
  Ni  Ni46  1  0.67084114  1.00272822  0.67005184  1
  Ni  Ni47  1  0.83571209  0.16824506  0.83660115  1
  Fe  Fe48  1  0.83571011  0.50320586  0.50171897  1
  Fe  Fe49  1  0.66820669  0.33541372  0.66963510  1
  Fe  Fe50  1  0.83642865  0.50296378  0.83731160  1
  Ni  Ni51  1  0.83780498  0.83702503  0.50284964  1
  Ni  Ni52  1  0.66996751  0.66996645  0.66975075  1
  Ni  Ni53  1  0.83742434  0.83711992  0.83608852  1
" 