4904,Ni23Fe35Cr40_5,-222.423028356886, 173.383102276395,Ni23Fe35Cr40,"# generated using pymatgen
 data_Cr23Fe19Ni12
_symmetry_space_group_name_H-M   'P 1'
_cell_length_a   7.50094698
_cell_length_b   7.50094698
_cell_length_c   10.60794095
_cell_angle_alpha   90.00000000
_cell_angle_beta   90.00000000
_cell_angle_gamma   90.00000000
_symmetry_Int_Tables_number   1
_chemical_formula_structural   Cr23Fe19Ni12
_chemical_formula_sum   'Cr23 Fe19 Ni12'
_cell_volume   596.84737106
_cell_formula_units_Z   1
loop_
 _symmetry_equiv_pos_site_id
 _symmetry_equiv_pos_as_xyz
  1  'x, y, z'
loop_
 _atom_site_type_symbol
 _atom_site_label
 _atom_site_symmetry_multiplicity
 _atom_site_fract_x
 _atom_site_fract_y
 _atom_site_fract_z
 _atom_site_occupancy
  Cr  Cr0  1  0.99648035  0.00141984  0.99736017  1
  Fe  Fe1  1  0.16343155  0.16614153  0.16371823  1
  Cr  Cr2  1  0.99555864  -0.00187521  0.33079917  1
  Ni  Ni3  1  0.99650113  0.32887312  -0.00138715  1
  Ni  Ni4  1  0.16078302  0.49643750  0.16541341  1
  Fe  Fe5  1  0.99763945  0.33376985  0.32984840  1
  Cr  Cr6  1  -0.00205237  0.66234623  -0.00125354  1
  Cr  Cr7  1  0.16507159  0.83215073  0.16557838  1
  Ni  Ni8  1  0.99687019  0.66302686  0.33102535  1
  Ni  Ni9  1  0.33270802  -0.00206195  0.99759253  1
  Cr  Cr10  1  0.49725384  0.16322857  0.16343995  1
  Fe  Fe11  1  0.33238899  0.99677903  0.33051320  1
  Cr  Cr12  1  0.32891989  0.33217039  0.99735810  1
  Fe  Fe13  1  0.49967614  0.49982542  0.16352068  1
  Cr  Cr14  1  0.32912374  0.33231227  0.33140554  1
  Cr  Cr15  1  0.33317318  0.66451025  0.99762607  1
  Fe  Fe16  1  0.49915112  0.82967381  0.16295766  1
  Cr  Cr17  1  0.33052241  0.66300597  0.32988220  1
  Fe  Fe18  1  0.66312798  0.99728613  -0.00211192  1
  Fe  Fe19  1  0.83286812  0.16667265  0.16309578  1
  Cr  Cr20  1  0.66552706  0.99672462  0.33337219  1
  Ni  Ni21  1  0.66736816  0.33055525  -0.00092133  1
  Fe  Fe22  1  0.83139343  0.49816578  0.16395049  1
  Cr  Cr23  1  0.66538630  0.33033569  0.33155320  1
  Ni  Ni24  1  0.66260819  0.66501525  -0.00047228  1
  Fe  Fe25  1  0.82897759  0.82838292  0.16476904  1
  Ni  Ni26  1  0.66585654  0.66639669  0.33032612  1
  Cr  Cr27  1  0.16542984  0.16423653  0.49772876  1
  Fe  Fe28  1  0.99672564  -0.00205708  0.66398832  1
  Fe  Fe29  1  0.16380800  0.16497774  0.83065475  1
  Ni  Ni30  1  0.16179425  0.49767288  0.49883426  1
  Fe  Fe31  1  -0.00112500  0.33179311  0.66472608  1
  Fe  Fe32  1  0.16304336  0.49608084  0.82990319  1
  Cr  Cr33  1  0.16313983  0.83073570  0.49771140  1
  Ni  Ni34  1  -0.00127446  0.66381644  0.66297120  1
  Cr  Cr35  1  0.16551618  0.83311384  0.82992579  1
  Fe  Fe36  1  0.49732478  0.16334691  0.49822825  1
  Fe  Fe37  1  0.33166373  0.99747558  0.66538390  1
  Cr  Cr38  1  0.49660951  0.16291412  0.83173993  1
  Cr  Cr39  1  0.49924621  0.49763370  0.49825409  1
  Fe  Fe40  1  0.32864477  0.33139239  0.66390434  1
  Cr  Cr41  1  0.50024903  0.49847451  0.83219365  1
  Fe  Fe42  1  0.49955254  0.83148553  0.49825994  1
  Cr  Cr43  1  0.33026264  0.66282588  0.66571997  1
  Ni  Ni44  1  0.49773803  0.83259582  0.83292276  1
  Ni  Ni45  1  0.83102645  0.16382522  0.49855069  1
  Cr  Cr46  1  0.66587395  0.99715210  0.66240034  1
  Fe  Fe47  1  0.83218870  0.16523326  0.83185307  1
  Cr  Cr48  1  0.83265196  0.49992430  0.49714001  1
  Cr  Cr49  1  0.66445868  0.32887288  0.66290750  1
  Cr  Cr50  1  0.83106401  0.49723209  0.83134440  1
  Fe  Fe51  1  0.83112145  0.82921478  0.49838487  1
  Ni  Ni52  1  0.66498286  0.66726249  0.66336950  1
  Cr  Cr53  1  0.82994649  0.82947691  0.83001707  1
" 