1109,Ni23Fe74Cr2_16,-232.262174582569, 186.67321162989,Ni23Fe74Cr2,"# generated using pymatgen
 data_Cr(Fe10Ni3)2
_symmetry_space_group_name_H-M   'P 1'
_cell_length_a   7.40556009
_cell_length_b   7.40556009
_cell_length_c   10.47304352
_cell_angle_alpha   90.00000000
_cell_angle_beta   90.00000000
_cell_angle_gamma   90.00000000
_symmetry_Int_Tables_number   1
_chemical_formula_structural   Cr(Fe10Ni3)2
_chemical_formula_sum   'Cr2 Fe40 Ni12'
_cell_volume   574.36600757
_cell_formula_units_Z   2
loop_
 _symmetry_equiv_pos_site_id
 _symmetry_equiv_pos_as_xyz
  1  'x, y, z'
loop_
 _atom_site_type_symbol
 _atom_site_label
 _atom_site_symmetry_multiplicity
 _atom_site_fract_x
 _atom_site_fract_y
 _atom_site_fract_z
 _atom_site_occupancy
  Ni  Ni0  1  1.00285055  0.00517736  1.00318026  1
  Fe  Fe1  1  0.17174093  0.17264272  0.17057686  1
  Fe  Fe2  1  1.00198195  0.00632421  0.33713647  1
  Fe  Fe3  1  1.00407827  0.33661412  0.00422193  1
  Fe  Fe4  1  0.17211552  0.50225163  0.17080163  1
  Ni  Ni5  1  0.00541560  0.33840420  0.33723830  1
  Fe  Fe6  1  1.00318271  0.67098337  1.00269149  1
  Cr  Cr7  1  0.17032463  0.83807276  0.17061585  1
  Fe  Fe8  1  1.00194474  0.66907496  0.33770428  1
  Fe  Fe9  1  0.33850026  0.00523867  1.00249948  1
  Ni  Ni10  1  0.50561467  0.17144629  0.17151597  1
  Fe  Fe11  1  0.33953669  0.00636075  0.33774684  1
  Fe  Fe12  1  0.33775485  0.33633824  1.00395174  1
  Ni  Ni13  1  0.50558578  0.50316160  0.17104547  1
  Fe  Fe14  1  0.33784337  0.33706226  0.33702858  1
  Fe  Fe15  1  0.33826645  0.67087727  1.00344410  1
  Ni  Ni16  1  0.50565239  0.83784190  0.17148621  1
  Fe  Fe17  1  0.33957691  0.66903197  0.33702918  1
  Ni  Ni18  1  0.67080773  1.00358707  1.00374185  1
  Fe  Fe19  1  0.83625220  0.17014973  0.17096923  1
  Ni  Ni20  1  0.67007506  1.00287894  0.33769109  1
  Fe  Fe21  1  0.67062642  0.33637617  0.00430258  1
  Fe  Fe22  1  0.83648785  0.50413486  0.17119108  1
  Fe  Fe23  1  0.67089896  0.33709572  0.33718053  1
  Fe  Fe24  1  0.67100257  0.67172435  0.00471242  1
  Fe  Fe25  1  0.83399168  0.83816849  0.17062358  1
  Fe  Fe26  1  0.67093231  0.67076809  0.33717797  1
  Fe  Fe27  1  0.17067223  0.17256627  0.50454101  1
  Fe  Fe28  1  0.00428176  0.00485942  0.67254984  1
  Ni  Ni29  1  0.17110410  0.16974931  0.83712254  1
  Fe  Fe30  1  0.17044655  0.50225057  0.50423853  1
  Fe  Fe31  1  0.00506337  0.33713581  0.67052595  1
  Ni  Ni32  1  0.16990374  0.50541967  0.83703389  1
  Cr  Cr33  1  0.17037891  0.83778005  0.50421048  1
  Fe  Fe34  1  0.00416993  0.67045976  0.67205520  1
  Ni  Ni35  1  0.16990148  0.83728576  0.83712282  1
  Fe  Fe36  1  0.50401264  0.17007473  0.50430146  1
  Ni  Ni37  1  0.33850218  0.00483571  0.67239359  1
  Ni  Ni38  1  0.50482382  0.17099603  0.83726026  1
  Fe  Fe39  1  0.50401056  0.50451131  0.50373230  1
  Fe  Fe40  1  0.33737049  0.33680083  0.67147449  1
  Fe  Fe41  1  0.50270550  0.50369156  0.83783511  1
  Fe  Fe42  1  0.50589404  0.83786608  0.50362573  1
  Fe  Fe43  1  0.33788371  0.67042097  0.67198234  1
  Fe  Fe44  1  0.50263699  0.83832377  0.83776001  1
  Fe  Fe45  1  0.83777298  0.17067850  0.50354647  1
  Fe  Fe46  1  0.67006324  0.00434670  0.67079323  1
  Fe  Fe47  1  0.83854185  0.17044368  0.83793690  1
  Fe  Fe48  1  0.83800022  0.50413433  0.50400067  1
  Fe  Fe49  1  0.67002215  0.33690956  0.67097320  1
  Fe  Fe50  1  0.83850205  0.50365155  0.83726173  1
  Fe  Fe51  1  0.83550756  0.83764037  0.50389307  1
  Fe  Fe52  1  0.67039612  0.67119918  0.67056580  1
  Fe  Fe53  1  0.83856865  0.83835874  0.83793631  1
" 