8757,Ni23Fe43Cr33_1,-224.747732661203, 187.481273878744,Ni23Fe43Cr33,"# generated using pymatgen
 data_Cr19Fe23Ni12
_symmetry_space_group_name_H-M   'P 1'
_cell_length_a   7.47121126
_cell_length_b   7.47121126
_cell_length_c   10.56588829
_cell_angle_alpha   90.00000000
_cell_angle_beta   90.00000000
_cell_angle_gamma   90.00000000
_symmetry_Int_Tables_number   1
_chemical_formula_structural   Cr19Fe23Ni12
_chemical_formula_sum   'Cr19 Fe23 Ni12'
_cell_volume   589.77729461
_cell_formula_units_Z   1
loop_
 _symmetry_equiv_pos_site_id
 _symmetry_equiv_pos_as_xyz
  1  'x, y, z'
loop_
 _atom_site_type_symbol
 _atom_site_label
 _atom_site_symmetry_multiplicity
 _atom_site_fract_x
 _atom_site_fract_y
 _atom_site_fract_z
 _atom_site_occupancy
  Ni  Ni0  1  0.00035883  0.00037277  0.00028153  1
  Fe  Fe1  1  0.16571210  0.16358966  0.16644106  1
  Fe  Fe2  1  0.99839203  0.99864814  0.33466320  1
  Fe  Fe3  1  0.00207063  0.32928600  0.99846981  1
  Fe  Fe4  1  0.16534601  0.50180633  0.16682897  1
  Cr  Cr5  1  0.99743912  0.33255896  0.33344403  1
  Fe  Fe6  1  0.00234421  0.66842132  -0.00005217  1
  Ni  Ni7  1  0.16530823  0.83279212  0.16727801  1
  Fe  Fe8  1  0.99817864  0.66789141  0.33560978  1
  Ni  Ni9  1  0.33080145  0.99889237  0.00088453  1
  Fe  Fe10  1  0.50002533  0.16686136  0.16666144  1
  Cr  Cr11  1  0.33173194  0.99927611  0.33172839  1
  Cr  Cr12  1  0.33247074  0.33365361  0.00150726  1
  Fe  Fe13  1  0.50027777  0.49921066  0.16936081  1
  Fe  Fe14  1  0.33425987  0.33261955  0.33400387  1
  Cr  Cr15  1  0.33410451  0.66722518  0.99734491  1
  Cr  Cr16  1  0.50110851  0.83492373  0.16339896  1
  Cr  Cr17  1  0.33132604  0.66705869  0.33477192  1
  Ni  Ni18  1  0.66746947  0.00057339  0.99845447  1
  Cr  Cr19  1  0.83239184  0.16597647  0.16549451  1
  Fe  Fe20  1  0.66820838  0.00103086  0.33411234  1
  Cr  Cr21  1  0.66808847  0.33324099  0.99843963  1
  Cr  Cr22  1  0.83328702  0.50134811  0.16494294  1
  Ni  Ni23  1  0.66614590  0.33270237  0.33510812  1
  Fe  Fe24  1  0.66528887  0.66863240  0.99782354  1
  Cr  Cr25  1  0.83419287  0.83223803  0.16587800  1
  Fe  Fe26  1  0.66759598  0.66501824  0.33548004  1
  Ni  Ni27  1  0.16619130  0.16810437  0.49931680  1
  Fe  Fe28  1  0.99568689  0.99892309  0.66402869  1
  Fe  Fe29  1  0.16394355  0.16491098  0.83447612  1
  Fe  Fe30  1  0.16354374  0.50080211  0.49997174  1
  Cr  Cr31  1  0.99711639  0.33081672  0.66818673  1
  Fe  Fe32  1  0.16523817  0.49943702  0.83266074  1
  Fe  Fe33  1  0.16209444  0.83539869  0.49961850  1
  Ni  Ni34  1  0.99763726  0.66686053  0.66261921  1
  Cr  Cr35  1  0.16489764  0.83402649  0.83102424  1
  Fe  Fe36  1  0.50201855  0.16691863  0.49914235  1
  Cr  Cr37  1  0.33097519  0.99925243  0.66671368  1
  Cr  Cr38  1  0.49963160  0.16392274  0.83164798  1
  Fe  Fe39  1  0.50313409  0.49807280  0.49949809  1
  Cr  Cr40  1  0.33371604  0.33386481  0.66488625  1
  Fe  Fe41  1  0.50323657  0.50034388  0.83084493  1
  Cr  Cr42  1  0.50303729  0.83354408  0.50275962  1
  Cr  Cr43  1  0.33308050  0.66667269  0.66722283  1
  Ni  Ni44  1  0.50065760  0.83347815  0.83389828  1
  Fe  Fe45  1  0.83156904  0.16345074  0.50009317  1
  Fe  Fe46  1  0.67031683  0.99916616  0.66704270  1
  Ni  Ni47  1  0.83393662  0.16652932  0.83225137  1
  Fe  Fe48  1  0.83129534  0.50065381  0.50036703  1
  Ni  Ni49  1  0.66857602  0.33268752  0.66402016  1
  Cr  Cr50  1  0.83538103  0.50032770  0.83398275  1
  Ni  Ni51  1  0.83361475  0.83157704  0.49915083  1
  Ni  Ni52  1  0.66821093  0.66553440  0.66699049  1
  Cr  Cr53  1  0.83229096  0.83382737  0.83417793  1
" 