4090,Ni23Fe74Cr2_14,-232.431055859389, 190.136155703328,Ni23Fe74Cr2,"# generated using pymatgen
 data_Cr(Fe10Ni3)2
_symmetry_space_group_name_H-M   'P 1'
_cell_length_a   7.40562504
_cell_length_b   7.40562504
_cell_length_c   10.47313537
_cell_angle_alpha   90.00000000
_cell_angle_beta   90.00000000
_cell_angle_gamma   90.00000000
_symmetry_Int_Tables_number   1
_chemical_formula_structural   Cr(Fe10Ni3)2
_chemical_formula_sum   'Cr2 Fe40 Ni12'
_cell_volume   574.38111897
_cell_formula_units_Z   2
loop_
 _symmetry_equiv_pos_site_id
 _symmetry_equiv_pos_as_xyz
  1  'x, y, z'
loop_
 _atom_site_type_symbol
 _atom_site_label
 _atom_site_symmetry_multiplicity
 _atom_site_fract_x
 _atom_site_fract_y
 _atom_site_fract_z
 _atom_site_occupancy
  Fe  Fe0  1  0.00489757  1.00311659  0.00520221  1
  Fe  Fe1  1  0.16950079  0.17268677  0.16987750  1
  Ni  Ni2  1  1.00244357  0.00415652  0.33723702  1
  Ni  Ni3  1  0.00487752  0.33798807  0.00520137  1
  Fe  Fe4  1  0.17069199  0.50423083  0.17114366  1
  Fe  Fe5  1  0.00475944  0.33791325  0.33669600  1
  Fe  Fe6  1  1.00351641  0.67036533  0.00445552  1
  Fe  Fe7  1  0.16989737  0.83551922  0.17023926  1
  Ni  Ni8  1  0.00459038  0.67076470  0.33679776  1
  Fe  Fe9  1  0.33718172  1.00409643  1.00402901  1
  Fe  Fe10  1  0.50550121  0.17258145  0.16994892  1
  Cr  Cr11  1  0.33728773  1.00280446  0.33826714  1
  Fe  Fe12  1  0.33774764  0.33791231  0.00444541  1
  Ni  Ni13  1  0.50424754  0.50403221  0.17141065  1
  Fe  Fe14  1  0.33673371  0.33967054  0.33725716  1
  Fe  Fe15  1  0.33751593  0.67043131  1.00403522  1
  Fe  Fe16  1  0.50546686  0.83525758  0.16983245  1
  Ni  Ni17  1  0.33716005  0.66926993  0.33657842  1
  Fe  Fe18  1  0.67036134  1.00334817  0.00445554  1
  Fe  Fe19  1  0.83743970  0.17178870  0.17056433  1
  Fe  Fe20  1  0.67315086  1.00295089  0.33833483  1
  Fe  Fe21  1  0.67042834  0.33929271  0.00501527  1
  Ni  Ni22  1  0.83668939  0.50375991  0.17083296  1
  Fe  Fe23  1  0.67094584  0.33820684  0.33751717  1
  Ni  Ni24  1  0.67061163  0.67069035  1.00330525  1
  Fe  Fe25  1  0.83707305  0.83645127  0.17159504  1
  Fe  Fe26  1  0.67139123  0.67128418  0.33655198  1
  Fe  Fe27  1  0.16915993  0.17101280  0.50464649  1
  Fe  Fe28  1  0.00456717  1.00286360  0.66946478  1
  Fe  Fe29  1  0.17218024  0.17058542  0.83792252  1
  Fe  Fe30  1  0.17065795  0.50531316  0.50396175  1
  Fe  Fe31  1  0.00453213  0.33831849  0.67061231  1
  Fe  Fe32  1  0.17060394  0.50439017  0.83733264  1
  Fe  Fe33  1  0.16952862  0.83611452  0.50494402  1
  Fe  Fe34  1  1.00359136  0.67126181  0.67036206  1
  Ni  Ni35  1  0.17133290  0.83732191  0.83687530  1
  Fe  Fe36  1  0.50609303  0.17116643  0.50560523  1
  Fe  Fe37  1  0.33825861  1.00413141  0.67107666  1
  Fe  Fe38  1  0.50244162  0.17018448  0.83688843  1
  Fe  Fe39  1  0.50422982  0.50479116  0.50392624  1
  Fe  Fe40  1  0.33856015  0.33731283  0.67073986  1
  Fe  Fe41  1  0.50394976  0.50472077  0.83766704  1
  Fe  Fe42  1  0.50520351  0.83648092  0.50527987  1
  Ni  Ni43  1  0.33697243  0.67138164  0.67090300  1
  Fe  Fe44  1  0.50398584  0.83753718  0.83732579  1
  Fe  Fe45  1  0.83718578  0.17004097  0.50469338  1
  Ni  Ni46  1  0.66996567  0.00447740  0.66983599  1
  Cr  Cr47  1  0.83688240  0.17112490  0.83733620  1
  Fe  Fe48  1  0.83755327  0.50442248  0.50376313  1
  Ni  Ni49  1  0.67056363  0.33719176  0.67104759  1
  Fe  Fe50  1  0.83788681  0.50593103  0.83833609  1
  Ni  Ni51  1  0.83783968  0.83836722  0.50439229  1
  Fe  Fe52  1  0.67061915  0.67096289  0.67118189  1
  Fe  Fe53  1  0.83748490  0.83596127  0.83699155  1
" 