8853,Ni23Fe77_8,-242.953514274568, 210.965489920361,Ni23Fe77,"# generated using pymatgen
 data_Fe2Ni7
_symmetry_space_group_name_H-M   'P 1'
_cell_length_a   7.41971642
_cell_length_b   7.41971642
_cell_length_c   10.49306358
_cell_angle_alpha   90.00000000
_cell_angle_beta   90.00000000
_cell_angle_gamma   90.00000000
_symmetry_Int_Tables_number   1
_chemical_formula_structural   Fe2Ni7
_chemical_formula_sum   'Fe12 Ni42'
_cell_volume   577.66614790
_cell_formula_units_Z   6
loop_
 _symmetry_equiv_pos_site_id
 _symmetry_equiv_pos_as_xyz
  1  'x, y, z'
loop_
 _atom_site_type_symbol
 _atom_site_label
 _atom_site_symmetry_multiplicity
 _atom_site_fract_x
 _atom_site_fract_y
 _atom_site_fract_z
 _atom_site_occupancy
  Ni  Ni0  1  0.00450035  0.00335816  1.00306563  1
  Ni  Ni1  1  0.16921754  0.17056989  0.17107825  1
  Ni  Ni2  1  0.00335982  1.00295921  0.33645002  1
  Ni  Ni3  1  1.00205226  0.33639192  1.00308398  1
  Ni  Ni4  1  0.16866477  0.50360009  0.17034853  1
  Ni  Ni5  1  1.00268489  0.33695706  0.33654224  1
  Ni  Ni6  1  0.00328329  0.66982220  1.00302265  1
  Fe  Fe7  1  0.16992576  0.83712035  0.16999881  1
  Ni  Ni8  1  0.00398268  0.66965482  0.33584624  1
  Ni  Ni9  1  0.33609076  1.00242501  0.00327701  1
  Ni  Ni10  1  0.50399828  0.16845581  0.17011637  1
  Ni  Ni11  1  0.33698567  1.00292899  0.33657303  1
  Fe  Fe12  1  0.33565523  0.33692450  1.00286108  1
  Fe  Fe13  1  0.50339483  0.50219993  0.16985783  1
  Ni  Ni14  1  0.33729007  0.33661486  0.33561251  1
  Ni  Ni15  1  0.33695631  0.67110257  1.00242310  1
  Ni  Ni16  1  0.50325182  0.83698087  0.17063235  1
  Ni  Ni17  1  0.33602185  0.67002660  0.33678027  1
  Fe  Fe18  1  0.67012278  1.00277826  1.00306857  1
  Ni  Ni19  1  0.83635238  0.17029269  0.17009133  1
  Ni  Ni20  1  0.66922523  0.00422538  0.33591954  1
  Ni  Ni21  1  0.67025954  0.33725716  1.00279450  1
  Ni  Ni22  1  0.83792746  0.50284539  0.17036897  1
  Ni  Ni23  1  0.66959674  0.33599413  0.33677807  1
  Ni  Ni24  1  0.66932925  0.66865792  0.00359628  1
  Fe  Fe25  1  0.83698197  0.83691447  0.16939821  1
  Fe  Fe26  1  0.66952954  0.66973625  0.33618967  1
  Fe  Fe27  1  0.17045845  0.17031936  0.50318433  1
  Ni  Ni28  1  0.00389273  1.00275023  0.67005583  1
  Ni  Ni29  1  0.16892132  0.17011948  0.83558171  1
  Ni  Ni30  1  0.17022761  0.50494961  0.50295516  1
  Ni  Ni31  1  0.00324354  0.33692219  0.66994634  1
  Ni  Ni32  1  0.17012255  0.50399559  0.83626194  1
  Ni  Ni33  1  0.16932345  0.83491782  0.50272279  1
  Ni  Ni34  1  1.00275060  0.66989614  0.67070486  1
  Ni  Ni35  1  0.16926180  0.83545413  0.83712103  1
  Ni  Ni36  1  0.50519812  0.17025663  0.50298751  1
  Ni  Ni37  1  0.33671651  0.00365069  0.66971844  1
  Ni  Ni38  1  0.50436087  0.16981630  0.83646460  1
  Ni  Ni39  1  0.50237583  0.50278223  0.50207643  1
  Ni  Ni40  1  0.33710261  0.33575371  0.67051909  1
  Ni  Ni41  1  0.50251656  0.50366118  0.83709208  1
  Fe  Fe42  1  0.50266767  0.83698082  0.50297727  1
  Fe  Fe43  1  0.33625961  0.66945509  0.66997667  1
  Ni  Ni44  1  0.50368835  0.83608964  0.83527644  1
  Ni  Ni45  1  0.83535150  0.16934820  0.50272996  1
  Ni  Ni46  1  0.66896036  1.00316197  0.67096476  1
  Ni  Ni47  1  0.83628598  0.16895004  0.83674831  1
  Fe  Fe48  1  0.83671642  0.50254257  0.50284859  1
  Ni  Ni49  1  0.66922362  0.33689403  0.66999645  1
  Fe  Fe50  1  0.83638101  0.50332677  0.83718943  1
  Fe  Fe51  1  0.83684506  0.83664146  0.50404640  1
  Ni  Ni52  1  0.67012340  0.66951152  0.66974484  1
  Ni  Ni53  1  0.83661941  0.83729413  0.83656971  1
" 