7456,Ni23Fe60Cr16_18,-229.371151946398, 186.81562769375,Ni23Fe60Cr16,"# generated using pymatgen
 data_Cr5(Fe8Ni3)2
_symmetry_space_group_name_H-M   'P 1'
_cell_length_a   7.44317816
_cell_length_b   7.44317816
_cell_length_c   10.52624350
_cell_angle_alpha   90.00000000
_cell_angle_beta   90.00000000
_cell_angle_gamma   90.00000000
_symmetry_Int_Tables_number   1
_chemical_formula_structural   Cr5(Fe8Ni3)2
_chemical_formula_sum   'Cr10 Fe32 Ni12'
_cell_volume   583.16337445
_cell_formula_units_Z   2
loop_
 _symmetry_equiv_pos_site_id
 _symmetry_equiv_pos_as_xyz
  1  'x, y, z'
loop_
 _atom_site_type_symbol
 _atom_site_label
 _atom_site_symmetry_multiplicity
 _atom_site_fract_x
 _atom_site_fract_y
 _atom_site_fract_z
 _atom_site_occupancy
  Fe  Fe0  1  1.00104263  0.00267306  0.99998483  1
  Fe  Fe1  1  0.16845146  0.16934683  0.16627367  1
  Fe  Fe2  1  0.99898562  0.00220610  0.33520251  1
  Fe  Fe3  1  1.00128698  0.33614216  1.00139519  1
  Fe  Fe4  1  0.16829241  0.50051971  0.16616498  1
  Cr  Cr5  1  0.00192870  0.33373147  0.33362547  1
  Fe  Fe6  1  1.00088528  0.66602615  1.00095479  1
  Cr  Cr7  1  0.16858905  0.83559081  0.16745189  1
  Fe  Fe8  1  0.99751702  0.66738537  0.33294285  1
  Fe  Fe9  1  0.33683346  0.00278979  0.99994627  1
  Fe  Fe10  1  0.50115571  0.16788847  0.16669386  1
  Fe  Fe11  1  0.33574058  0.00635405  0.33426582  1
  Ni  Ni12  1  0.33414200  0.33381315  0.00187178  1
  Fe  Fe13  1  0.50083349  0.50274855  0.16567339  1
  Fe  Fe14  1  0.33538345  0.33229191  0.33254948  1
  Fe  Fe15  1  0.33657049  0.66647815  0.99983167  1
  Fe  Fe16  1  0.50424417  0.83434973  0.16822700  1
  Fe  Fe17  1  0.33612591  0.66594445  0.33265670  1
  Fe  Fe18  1  0.66695317  0.00216658  1.00105120  1
  Fe  Fe19  1  0.83513370  0.16696589  0.16596059  1
  Fe  Fe20  1  0.66996144  0.00281060  0.33387302  1
  Fe  Fe21  1  0.66675029  0.33613213  1.00155392  1
  Ni  Ni22  1  0.83451111  0.50147110  0.16581605  1
  Cr  Cr23  1  0.66849172  0.33618783  0.33322568  1
  Ni  Ni24  1  0.66843048  0.66859822  0.00231222  1
  Fe  Fe25  1  0.83334267  0.83471462  0.16721775  1
  Fe  Fe26  1  0.67071191  0.66901607  0.33186465  1
  Ni  Ni27  1  0.16871570  0.16898987  0.49995578  1
  Cr  Cr28  1  1.00153722  0.00406229  0.66851677  1
  Ni  Ni29  1  0.16729138  0.17047261  0.83775411  1
  Cr  Cr30  1  0.16915038  0.50197384  0.50275441  1
  Fe  Fe31  1  0.00166182  0.33534424  0.66984585  1
  Ni  Ni32  1  0.16839412  0.50237706  0.83630956  1
  Cr  Cr33  1  0.16806080  0.83309473  0.50094621  1
  Fe  Fe34  1  0.00241381  0.66753718  0.67137395  1
  Fe  Fe35  1  0.16846002  0.83506550  0.83704041  1
  Ni  Ni36  1  0.50302827  0.16849869  0.50209188  1
  Cr  Cr37  1  0.33469634  0.00382823  0.67078644  1
  Ni  Ni38  1  0.50359080  0.16995519  0.83579525  1
  Cr  Cr39  1  0.50013600  0.49996684  0.50210351  1
  Fe  Fe40  1  0.33444521  0.33441253  0.67176278  1
  Ni  Ni41  1  0.50163145  0.50068211  0.83713519  1
  Cr  Cr42  1  0.50145616  0.83552105  0.50019422  1
  Ni  Ni43  1  0.33586883  0.66750706  0.67231965  1
  Fe  Fe44  1  0.50194700  0.83503122  0.83723131  1
  Ni  Ni45  1  0.83330567  0.16759969  0.50228187  1
  Fe  Fe46  1  0.66826804  0.00355227  0.66963516  1
  Ni  Ni47  1  0.83373756  0.16794269  0.83690473  1
  Fe  Fe48  1  0.83570789  0.50034527  0.50151308  1
  Fe  Fe49  1  0.66821397  0.33170556  0.66972201  1
  Fe  Fe50  1  0.83457824  0.49824413  0.83760682  1
  Fe  Fe51  1  0.83455795  0.83618035  0.49986022  1
  Cr  Cr52  1  0.66898385  0.66709420  0.66905707  1
  Fe  Fe53  1  0.83445267  0.83525865  0.83750052  1
" 