7338,Ni23Fe19Cr57_12,-216.270781060071, 166.022670471324,Ni23Fe19Cr57,"# generated using pymatgen
 data_Cr16Fe5Ni6
_symmetry_space_group_name_H-M   'P 1'
_cell_length_a   7.53830079
_cell_length_b   7.53830079
_cell_length_c   10.66076722
_cell_angle_alpha   90.00000000
_cell_angle_beta   90.00000000
_cell_angle_gamma   90.00000000
_symmetry_Int_Tables_number   1
_chemical_formula_structural   Cr16Fe5Ni6
_chemical_formula_sum   'Cr32 Fe10 Ni12'
_cell_volume   605.80853243
_cell_formula_units_Z   2
loop_
 _symmetry_equiv_pos_site_id
 _symmetry_equiv_pos_as_xyz
  1  'x, y, z'
loop_
 _atom_site_type_symbol
 _atom_site_label
 _atom_site_symmetry_multiplicity
 _atom_site_fract_x
 _atom_site_fract_y
 _atom_site_fract_z
 _atom_site_occupancy
  Ni  Ni0  1  0.99393449  -0.00329639  -0.00317194  1
  Ni  Ni1  1  0.15814161  0.16544715  0.16123448  1
  Cr  Cr2  1  0.99404730  -0.00233030  0.32751780  1
  Fe  Fe3  1  0.99387041  0.32908255  -0.00146260  1
  Ni  Ni4  1  0.15878714  0.49241136  0.16069654  1
  Cr  Cr5  1  0.99363750  0.32997613  0.32724688  1
  Fe  Fe6  1  0.99339777  0.66097113  -0.00320039  1
  Cr  Cr7  1  0.15692048  0.82816473  0.16298100  1
  Ni  Ni8  1  0.99253615  0.65610825  0.32770954  1
  Cr  Cr9  1  0.32895523  0.99398046  -0.00364642  1
  Fe  Fe10  1  0.49623150  0.16480596  0.16139096  1
  Cr  Cr11  1  0.32897918  -0.00346222  0.32579947  1
  Cr  Cr12  1  0.32615764  0.33114932  -0.00282403  1
  Cr  Cr13  1  0.49957075  0.49437508  0.16298257  1
  Fe  Fe14  1  0.32786661  0.32916222  0.32545133  1
  Cr  Cr15  1  0.32810589  0.66083563  0.99471379  1
  Cr  Cr16  1  0.49924840  0.82392081  0.16184353  1
  Cr  Cr17  1  0.32625643  0.65949406  0.32533181  1
  Cr  Cr18  1  0.66365200  0.99513277  0.99422553  1
  Ni  Ni19  1  0.82952155  0.16594091  0.15904575  1
  Cr  Cr20  1  0.66309457  -0.00183181  0.32623787  1
  Ni  Ni21  1  0.66558338  0.33111495  -0.00111699  1
  Fe  Fe22  1  0.82980576  0.49541062  0.16101585  1
  Ni  Ni23  1  0.66414208  0.33131850  0.32596000  1
  Ni  Ni24  1  0.66442674  0.66042811  0.99276338  1
  Cr  Cr25  1  0.82882461  0.82593725  0.16125498  1
  Ni  Ni26  1  0.66622395  0.65654964  0.32976111  1
  Cr  Cr27  1  0.16426297  0.16257384  0.49766745  1
  Cr  Cr28  1  0.99143600  0.99476787  0.66128724  1
  Cr  Cr29  1  0.16111659  0.16379194  0.82727687  1
  Cr  Cr30  1  0.16223167  0.49564270  0.49567445  1
  Cr  Cr31  1  0.99501997  0.33264181  0.66231222  1
  Fe  Fe32  1  0.16037186  0.49609274  0.82970176  1
  Cr  Cr33  1  0.15958174  0.82808589  0.49321224  1
  Fe  Fe34  1  0.99310521  0.66110733  0.66259662  1
  Cr  Cr35  1  0.15744364  0.82983332  0.82969580  1
  Cr  Cr36  1  0.49365177  0.16590209  0.49486714  1
  Fe  Fe37  1  0.32968539  -0.00464675  0.66321379  1
  Cr  Cr38  1  0.49436097  0.16503048  0.82794427  1
  Cr  Cr39  1  0.49778169  0.49434776  0.49340040  1
  Ni  Ni40  1  0.32727230  0.33288853  0.66219832  1
  Cr  Cr41  1  0.49714650  0.49364715  0.82928681  1
  Cr  Cr42  1  0.49626385  0.82613829  0.49476638  1
  Cr  Cr43  1  0.32865154  0.66194209  0.66568858  1
  Ni  Ni44  1  0.49834867  0.82525581  0.82807386  1
  Cr  Cr45  1  0.82790206  0.16401987  0.49461240  1
  Cr  Cr46  1  0.66237799  0.99223656  0.66494947  1
  Cr  Cr47  1  0.83071210  0.16214770  0.83284326  1
  Fe  Fe48  1  0.82843489  0.49590647  0.49342270  1
  Cr  Cr49  1  0.66430945  0.32985274  0.66082712  1
  Cr  Cr50  1  0.82907515  0.49591758  0.83171904  1
  Cr  Cr51  1  0.82920240  0.82334158  0.49393228  1
  Fe  Fe52  1  0.66408478  0.66114842  0.66355312  1
  Ni  Ni53  1  0.82904157  0.82438114  0.83032645  1
" 