4095,Ni23Fe50Cr25_5,-227.508797359522, 180.47657922015,Ni23Fe50Cr25,"# generated using pymatgen
 data_Cr5Fe9Ni4
_symmetry_space_group_name_H-M   'P 1'
_cell_length_a   7.46888977
_cell_length_b   7.46888977
_cell_length_c   10.56260521
_cell_angle_alpha   90.00000000
_cell_angle_beta   90.00000000
_cell_angle_gamma   90.00000000
_symmetry_Int_Tables_number   1
_chemical_formula_structural   Cr5Fe9Ni4
_chemical_formula_sum   'Cr15 Fe27 Ni12'
_cell_volume   589.22768975
_cell_formula_units_Z   3
loop_
 _symmetry_equiv_pos_site_id
 _symmetry_equiv_pos_as_xyz
  1  'x, y, z'
loop_
 _atom_site_type_symbol
 _atom_site_label
 _atom_site_symmetry_multiplicity
 _atom_site_fract_x
 _atom_site_fract_y
 _atom_site_fract_z
 _atom_site_occupancy
  Fe  Fe0  1  0.00328288  -0.00000478  0.99941124  1
  Ni  Ni1  1  0.16763525  0.16826614  0.16611980  1
  Cr  Cr2  1  0.00225057  0.00180381  0.33522310  1
  Fe  Fe3  1  0.00245894  0.33541158  0.99890028  1
  Fe  Fe4  1  0.16947084  0.49719957  0.16699404  1
  Fe  Fe5  1  0.00153730  0.33472675  0.33411989  1
  Fe  Fe6  1  0.00052763  0.66454259  0.99899825  1
  Cr  Cr7  1  0.16825738  0.83517880  0.16681656  1
  Cr  Cr8  1  0.00032867  0.66376462  0.33284647  1
  Fe  Fe9  1  0.33437889  0.00166563  0.99969386  1
  Fe  Fe10  1  0.49668104  0.16771391  0.16602568  1
  Fe  Fe11  1  0.33441979  0.00069799  0.33340334  1
  Fe  Fe12  1  0.33316473  0.33130536  0.00117423  1
  Ni  Ni13  1  0.49992805  0.49976437  0.16970280  1
  Fe  Fe14  1  0.33376393  0.33354017  0.33318913  1
  Cr  Cr15  1  0.33276527  0.66564426  0.99798832  1
  Ni  Ni16  1  0.49865836  0.83044423  0.16829924  1
  Ni  Ni17  1  0.33545431  0.66481604  0.33466629  1
  Fe  Fe18  1  0.66259074  0.00032573  0.00186396  1
  Cr  Cr19  1  0.83589140  0.16791239  0.16567135  1
  Cr  Cr20  1  0.66268613  0.00059457  0.33164687  1
  Fe  Fe21  1  0.66448954  0.33414585  0.00169062  1
  Fe  Fe22  1  0.83285038  0.49892542  0.16734228  1
  Ni  Ni23  1  0.66386330  0.33521081  0.33316520  1
  Cr  Cr24  1  0.66579435  0.66620771  0.00413196  1
  Fe  Fe25  1  0.83229492  0.83276468  0.16586349  1
  Fe  Fe26  1  0.66316702  0.66333872  0.33293605  1
  Ni  Ni27  1  0.17146864  0.16629835  0.49779651  1
  Cr  Cr28  1  0.00359373  0.00092693  0.66505219  1
  Ni  Ni29  1  0.16902555  0.16499882  0.83548561  1
  Fe  Fe30  1  0.16882711  0.49825886  0.49857299  1
  Cr  Cr31  1  0.00207819  0.33463167  0.66522302  1
  Fe  Fe32  1  0.16461818  0.49843497  0.83441042  1
  Fe  Fe33  1  0.17176910  0.83139721  0.49995997  1
  Cr  Cr34  1  0.00056695  0.66397931  0.66834781  1
  Ni  Ni35  1  0.16939373  0.83549008  0.83300378  1
  Fe  Fe36  1  0.49852941  0.16977420  0.50035264  1
  Fe  Fe37  1  0.33414965  0.00010668  0.66683060  1
  Fe  Fe38  1  0.49799590  0.16488908  0.83315003  1
  Ni  Ni39  1  0.49936854  0.50111579  0.49921639  1
  Fe  Fe40  1  0.33336388  0.33205670  0.66510805  1
  Cr  Cr41  1  0.50059494  0.49923473  0.83032450  1
  Fe  Fe42  1  0.49722209  0.83139761  0.49973966  1
  Fe  Fe43  1  0.33386243  0.66754552  0.66508800  1
  Fe  Fe44  1  0.49892931  0.83572206  0.83208155  1
  Cr  Cr45  1  0.83354739  0.16961519  0.50086748  1
  Fe  Fe46  1  0.66228282  0.99878896  0.66627091  1
  Cr  Cr47  1  0.83228617  0.16834569  0.83279190  1
  Ni  Ni48  1  0.82774117  0.49947159  0.49847276  1
  Fe  Fe49  1  0.66504695  0.33631764  0.66430468  1
  Ni  Ni50  1  0.83048116  0.49913010  0.83395661  1
  Cr  Cr51  1  0.83143108  0.83108097  0.49972225  1
  Ni  Ni52  1  0.66337321  0.66566997  0.66455059  1
  Cr  Cr53  1  0.83320167  0.83275502  0.83477538  1
" 