2821,Ni23Fe60Cr16_10,-229.397690439485, 181.052600765612,Ni23Fe60Cr16,"# generated using pymatgen
 data_Cr5(Fe8Ni3)2
_symmetry_space_group_name_H-M   'P 1'
_cell_length_a   7.44275661
_cell_length_b   7.44275661
_cell_length_c   10.52564734
_cell_angle_alpha   90.00000000
_cell_angle_beta   90.00000000
_cell_angle_gamma   90.00000000
_symmetry_Int_Tables_number   1
_chemical_formula_structural   Cr5(Fe8Ni3)2
_chemical_formula_sum   'Cr10 Fe32 Ni12'
_cell_volume   583.06429791
_cell_formula_units_Z   2
loop_
 _symmetry_equiv_pos_site_id
 _symmetry_equiv_pos_as_xyz
  1  'x, y, z'
loop_
 _atom_site_type_symbol
 _atom_site_label
 _atom_site_symmetry_multiplicity
 _atom_site_fract_x
 _atom_site_fract_y
 _atom_site_fract_z
 _atom_site_occupancy
  Fe  Fe0  1  0.00208355  0.00171517  0.00397951  1
  Fe  Fe1  1  0.16647732  0.16910585  0.16913200  1
  Fe  Fe2  1  0.00247839  0.00241664  0.33408882  1
  Ni  Ni3  1  1.00053585  0.33576103  0.00247707  1
  Ni  Ni4  1  0.16784019  0.50307429  0.16847932  1
  Ni  Ni5  1  0.00346232  0.33544303  0.33416647  1
  Fe  Fe6  1  0.00437042  0.66576681  0.00201145  1
  Fe  Fe7  1  0.16774275  0.83503146  0.16816302  1
  Fe  Fe8  1  0.00280940  0.66639908  0.33499866  1
  Fe  Fe9  1  0.33469784  0.99893741  0.00284945  1
  Fe  Fe10  1  0.50203451  0.16846958  0.16970488  1
  Fe  Fe11  1  0.33508171  0.00284830  0.33583635  1
  Cr  Cr12  1  0.33350943  0.33679964  0.00240324  1
  Fe  Fe13  1  0.50128769  0.50085308  0.17013824  1
  Ni  Ni14  1  0.33392697  0.33472394  0.33622692  1
  Fe  Fe15  1  0.33225623  0.66877349  1.00105828  1
  Fe  Fe16  1  0.50088019  0.83558838  0.16951968  1
  Fe  Fe17  1  0.33400519  0.66669587  0.33579233  1
  Fe  Fe18  1  0.66806363  0.00326654  0.00421209  1
  Ni  Ni19  1  0.83399083  0.16784575  0.16644411  1
  Fe  Fe20  1  0.66729623  0.00227539  0.33464167  1
  Fe  Fe21  1  0.67090569  0.33504455  0.00251989  1
  Fe  Fe22  1  0.83687035  0.49961272  0.16841888  1
  Fe  Fe23  1  0.66761625  0.33499588  0.33470375  1
  Cr  Cr24  1  0.66762885  0.66714421  1.00089115  1
  Fe  Fe25  1  0.83625903  0.83575736  0.16888265  1
  Fe  Fe26  1  0.66808389  0.66758881  0.33493492  1
  Fe  Fe27  1  0.17094089  0.17043339  0.49961132  1
  Cr  Cr28  1  0.00330333  1.00087245  0.66628944  1
  Cr  Cr29  1  0.16750697  0.17062865  0.83456457  1
  Ni  Ni30  1  0.16841603  0.50235717  0.50227288  1
  Fe  Fe31  1  0.00259441  0.33993395  0.66794260  1
  Ni  Ni32  1  0.16738861  0.50517819  0.83423738  1
  Fe  Fe33  1  0.16965340  0.83325276  0.50046636  1
  Fe  Fe34  1  0.00274921  0.66503118  0.66783030  1
  Fe  Fe35  1  0.16954813  0.83113197  0.83622950  1
  Ni  Ni36  1  0.50102493  0.16812814  0.49980433  1
  Cr  Cr37  1  0.33452852  1.00017637  0.66662598  1
  Cr  Cr38  1  0.50361356  0.16798358  0.83539475  1
  Fe  Fe39  1  0.50090088  0.50117062  0.50195064  1
  Fe  Fe40  1  0.33541078  0.33833769  0.66606239  1
  Fe  Fe41  1  0.50194274  0.50292542  0.83289064  1
  Ni  Ni42  1  0.50169051  0.83435813  0.50060614  1
  Ni  Ni43  1  0.33525513  0.66654601  0.66975388  1
  Fe  Fe44  1  0.49886539  0.83154920  0.83500154  1
  Cr  Cr45  1  0.83382921  0.16953755  0.50215477  1
  Cr  Cr46  1  0.66708987  1.00018205  0.66735559  1
  Cr  Cr47  1  0.83382297  0.17129959  0.83684118  1
  Fe  Fe48  1  0.83436122  0.50261207  0.50224590  1
  Ni  Ni49  1  0.66795153  0.33970469  0.66868762  1
  Ni  Ni50  1  0.83726651  0.50135318  0.83401176  1
  Fe  Fe51  1  0.83434523  0.83190963  0.50014618  1
  Fe  Fe52  1  0.66694869  0.66597210  0.66775734  1
  Cr  Cr53  1  0.83497678  0.83362022  0.83471039  1
" 