724,Ni23Fe50Cr25_16,-227.198245860218, 183.826091925132,Ni23Fe50Cr25,"# generated using pymatgen
 data_Cr5Fe9Ni4
_symmetry_space_group_name_H-M   'P 1'
_cell_length_a   7.46562648
_cell_length_b   7.46562648
_cell_length_c   10.55799021
_cell_angle_alpha   90.00000000
_cell_angle_beta   90.00000000
_cell_angle_gamma   90.00000000
_symmetry_Int_Tables_number   1
_chemical_formula_structural   Cr5Fe9Ni4
_chemical_formula_sum   'Cr15 Fe27 Ni12'
_cell_volume   588.45569415
_cell_formula_units_Z   3
loop_
 _symmetry_equiv_pos_site_id
 _symmetry_equiv_pos_as_xyz
  1  'x, y, z'
loop_
 _atom_site_type_symbol
 _atom_site_label
 _atom_site_symmetry_multiplicity
 _atom_site_fract_x
 _atom_site_fract_y
 _atom_site_fract_z
 _atom_site_occupancy
  Fe  Fe0  1  0.00052503  0.99944731  0.00261042  1
  Fe  Fe1  1  0.16557849  0.16518253  0.16619685  1
  Cr  Cr2  1  0.00180114  0.00056040  0.33312334  1
  Fe  Fe3  1  0.00017182  0.33580827  0.00087419  1
  Fe  Fe4  1  0.16644626  0.49936574  0.16554720  1
  Ni  Ni5  1  0.99855593  0.33497379  0.33379291  1
  Cr  Cr6  1  0.99940925  0.66628404  0.00227173  1
  Ni  Ni7  1  0.16841603  0.83334809  0.16475115  1
  Cr  Cr8  1  0.99768475  0.66508558  0.33196154  1
  Fe  Fe9  1  0.33324614  0.99874573  0.00035696  1
  Cr  Cr10  1  0.49966818  0.16730138  0.16766215  1
  Ni  Ni11  1  0.33344304  0.99937687  0.33514821  1
  Fe  Fe12  1  0.33363868  0.33645691  0.99922844  1
  Fe  Fe13  1  0.50164288  0.50053115  0.16813952  1
  Cr  Cr14  1  0.33026259  0.33035432  0.33297797  1
  Fe  Fe15  1  0.33238050  0.66545365  0.99928847  1
  Cr  Cr16  1  0.49983734  0.83367767  0.16971145  1
  Fe  Fe17  1  0.33082057  0.66742031  0.33307741  1
  Fe  Fe18  1  0.66694394  0.00080220  0.99877937  1
  Cr  Cr19  1  0.83331409  0.16787582  0.16571665  1
  Fe  Fe20  1  0.66796668  0.00206084  0.33644010  1
  Fe  Fe21  1  0.66705040  0.33409246  0.99953376  1
  Ni  Ni22  1  0.83307577  0.49858037  0.16804789  1
  Ni  Ni23  1  0.66868633  0.33534651  0.33501370  1
  Cr  Cr24  1  0.66769402  0.66535832  0.00151359  1
  Ni  Ni25  1  0.83374058  0.83284164  0.16817671  1
  Fe  Fe26  1  0.66835776  0.66551608  0.33313649  1
  Ni  Ni27  1  0.16464795  0.16577500  0.49840764  1
  Fe  Fe28  1  0.00036921  0.00095529  0.66404656  1
  Cr  Cr29  1  0.16469251  0.16695319  0.83602673  1
  Fe  Fe30  1  0.16336054  0.49778475  0.50129482  1
  Fe  Fe31  1  0.99859135  0.33361449  0.66494555  1
  Ni  Ni32  1  0.16663328  0.50192628  0.83200126  1
  Fe  Fe33  1  0.16731007  0.83309763  0.49927010  1
  Fe  Fe34  1  0.00319772  0.66571609  0.66596939  1
  Fe  Fe35  1  0.16936757  0.83217552  0.83427384  1
  Ni  Ni36  1  0.50125398  0.16573515  0.49739013  1
  Cr  Cr37  1  0.33349822  0.00167864  0.66507545  1
  Ni  Ni38  1  0.50193515  0.16789558  0.83570577  1
  Cr  Cr39  1  0.50055500  0.50123672  0.49772235  1
  Cr  Cr40  1  0.33402038  0.33131389  0.66499098  1
  Fe  Fe41  1  0.49832816  0.49833177  0.83401508  1
  Fe  Fe42  1  0.50021359  0.83484279  0.49683423  1
  Fe  Fe43  1  0.33164770  0.66735736  0.66767408  1
  Fe  Fe44  1  0.49629390  0.83389805  0.83513530  1
  Ni  Ni45  1  0.83426140  0.16948586  0.50100623  1
  Cr  Cr46  1  0.66539296  0.00253305  0.66556335  1
  Fe  Fe47  1  0.83301197  0.17044418  0.83380933  1
  Ni  Ni48  1  0.83489630  0.49893016  0.50097202  1
  Fe  Fe49  1  0.66786083  0.33166811  0.66575900  1
  Fe  Fe50  1  0.83559710  0.49487550  0.83289187  1
  Fe  Fe51  1  0.83320264  0.83434365  0.49977507  1
  Cr  Cr52  1  0.66832083  0.66533969  0.66774592  1
  Cr  Cr53  1  0.83632114  0.83538328  0.83375942  1
" 