6558,Ni23Fe60Cr16_16,-229.531893233623, 187.737590107332,Ni23Fe60Cr16,"# generated using pymatgen
 data_Cr5(Fe8Ni3)2
_symmetry_space_group_name_H-M   'P 1'
_cell_length_a   7.44033036
_cell_length_b   7.44033036
_cell_length_c   10.52221610
_cell_angle_alpha   90.00000000
_cell_angle_beta   90.00000000
_cell_angle_gamma   90.00000000
_symmetry_Int_Tables_number   1
_chemical_formula_structural   Cr5(Fe8Ni3)2
_chemical_formula_sum   'Cr10 Fe32 Ni12'
_cell_volume   582.49426624
_cell_formula_units_Z   2
loop_
 _symmetry_equiv_pos_site_id
 _symmetry_equiv_pos_as_xyz
  1  'x, y, z'
loop_
 _atom_site_type_symbol
 _atom_site_label
 _atom_site_symmetry_multiplicity
 _atom_site_fract_x
 _atom_site_fract_y
 _atom_site_fract_z
 _atom_site_occupancy
  Fe  Fe0  1  0.00187436  1.00095272  1.00136822  1
  Fe  Fe1  1  0.16532412  0.16895255  0.16724147  1
  Fe  Fe2  1  1.00094456  0.99964500  0.33465166  1
  Fe  Fe3  1  0.00236482  0.33658824  0.00220988  1
  Ni  Ni4  1  0.16711222  0.50321934  0.16905310  1
  Fe  Fe5  1  0.99924852  0.33626189  0.33373834  1
  Ni  Ni6  1  0.00243264  0.66781051  0.99999323  1
  Fe  Fe7  1  0.16536057  0.83307285  0.16676168  1
  Ni  Ni8  1  0.00238421  0.66776156  0.33584422  1
  Fe  Fe9  1  0.33317428  1.00166017  0.00202493  1
  Fe  Fe10  1  0.50324002  0.16812948  0.16509922  1
  Cr  Cr11  1  0.33499933  0.99976558  0.33294491  1
  Fe  Fe12  1  0.33158293  0.33492217  1.00158165  1
  Cr  Cr13  1  0.50147908  0.50246072  0.16638607  1
  Cr  Cr14  1  0.33490158  0.33617199  0.33434966  1
  Ni  Ni15  1  0.33157188  0.66853342  0.00347345  1
  Fe  Fe16  1  0.50231457  0.83559981  0.16531712  1
  Fe  Fe17  1  0.33300132  0.66888933  0.33577914  1
  Fe  Fe18  1  0.66992405  0.00218407  0.00328095  1
  Ni  Ni19  1  0.83650651  0.16754769  0.16949468  1
  Cr  Cr20  1  0.66929914  0.00258895  0.33481961  1
  Fe  Fe21  1  0.67131770  0.33381522  1.00153649  1
  Fe  Fe22  1  0.83879016  0.50213707  0.16679269  1
  Fe  Fe23  1  0.67168188  0.33621445  0.33506326  1
  Fe  Fe24  1  0.67157610  0.66936190  0.00255173  1
  Ni  Ni25  1  0.83782887  0.83607026  0.16688129  1
  Cr  Cr26  1  0.66996660  0.66866086  0.33475290  1
  Cr  Cr27  1  0.16491699  0.16708745  0.50252914  1
  Ni  Ni28  1  0.99941277  0.00192950  0.66946700  1
  Fe  Fe29  1  0.16850841  0.16876467  0.83426436  1
  Fe  Fe30  1  0.16682863  0.50232205  0.50099416  1
  Fe  Fe31  1  1.00096060  0.33628129  0.67013345  1
  Ni  Ni32  1  0.16666104  0.50234155  0.83487437  1
  Fe  Fe33  1  0.16621284  0.83384267  0.50243078  1
  Fe  Fe34  1  1.00025081  0.66904045  0.66961760  1
  Ni  Ni35  1  0.16636420  0.83565796  0.83541991  1
  Cr  Cr36  1  0.50299338  0.16991302  0.50369294  1
  Fe  Fe37  1  0.33299007  0.00211405  0.67010279  1
  Ni  Ni38  1  0.50209192  0.16811775  0.83526699  1
  Ni  Ni39  1  0.50331113  0.50240658  0.50236335  1
  Fe  Fe40  1  0.33353884  0.33417875  0.66949739  1
  Cr  Cr41  1  0.50214407  0.50102245  0.83638225  1
  Fe  Fe42  1  0.50203207  0.83436046  0.50316453  1
  Cr  Cr43  1  0.33345179  0.66672119  0.66647738  1
  Cr  Cr44  1  0.50204750  0.83562009  0.83608749  1
  Fe  Fe45  1  0.83574828  0.16983593  0.50243768  1
  Fe  Fe46  1  0.67055396  1.00167641  0.66891045  1
  Fe  Fe47  1  0.83549537  0.16881158  0.83562470  1
  Fe  Fe48  1  0.83611585  0.50045887  0.50325492  1
  Fe  Fe49  1  0.67096200  0.33551641  0.66955444  1
  Ni  Ni50  1  0.83688103  0.50213174  0.83594491  1
  Fe  Fe51  1  0.83726898  0.83517151  0.50254088  1
  Fe  Fe52  1  0.67210334  0.66832009  0.66717612  1
  Fe  Fe53  1  0.83690558  0.83433118  0.83575192  1
" 