2035,Ni23Fe74Cr2_2,-232.405035341177, 185.692587682666,Ni23Fe74Cr2,"# generated using pymatgen
 data_Cr(Fe10Ni3)2
_symmetry_space_group_name_H-M   'P 1'
_cell_length_a   7.40656632
_cell_length_b   7.40656632
_cell_length_c   10.47446654
_cell_angle_alpha   90.00000000
_cell_angle_beta   90.00000000
_cell_angle_gamma   90.00000000
_symmetry_Int_Tables_number   1
_chemical_formula_structural   Cr(Fe10Ni3)2
_chemical_formula_sum   'Cr2 Fe40 Ni12'
_cell_volume   574.60016412
_cell_formula_units_Z   2
loop_
 _symmetry_equiv_pos_site_id
 _symmetry_equiv_pos_as_xyz
  1  'x, y, z'
loop_
 _atom_site_type_symbol
 _atom_site_label
 _atom_site_symmetry_multiplicity
 _atom_site_fract_x
 _atom_site_fract_y
 _atom_site_fract_z
 _atom_site_occupancy
  Cr  Cr0  1  0.00470821  0.00476147  1.00355143  1
  Ni  Ni1  1  0.17082830  0.17066986  0.17101804  1
  Fe  Fe2  1  1.00383115  0.00433143  0.33678830  1
  Fe  Fe3  1  0.00469287  0.33802938  0.00430009  1
  Fe  Fe4  1  0.17059734  0.50363291  0.17158305  1
  Fe  Fe5  1  1.00386671  0.33800072  0.33763670  1
  Fe  Fe6  1  0.00453606  0.66953672  0.00430036  1
  Fe  Fe7  1  0.17190396  0.83682181  0.17183229  1
  Ni  Ni8  1  0.00527108  0.67073297  0.33710644  1
  Ni  Ni9  1  0.33793068  1.00326071  0.00471357  1
  Fe  Fe10  1  0.50409032  0.17113998  0.17025419  1
  Fe  Fe11  1  0.33698096  1.00367790  0.33644908  1
  Fe  Fe12  1  0.33619259  0.33761843  0.00525396  1
  Ni  Ni13  1  0.50370983  0.50504686  0.16991357  1
  Fe  Fe14  1  0.33739003  0.33910471  0.33742065  1
  Fe  Fe15  1  0.33762294  0.67121901  0.00466905  1
  Fe  Fe16  1  0.50351405  0.83821150  0.17044979  1
  Ni  Ni17  1  0.33611493  0.67042800  0.33738477  1
  Fe  Fe18  1  0.66968472  1.00325084  0.00447582  1
  Ni  Ni19  1  0.83733478  0.17069493  0.17034419  1
  Fe  Fe20  1  0.67143764  1.00392859  0.33799611  1
  Fe  Fe21  1  0.67136283  0.33773173  0.00602282  1
  Fe  Fe22  1  0.83748682  0.50305708  0.17142770  1
  Ni  Ni23  1  0.67089371  0.33693501  0.33813299  1
  Fe  Fe24  1  0.67008956  0.67126446  1.00405755  1
  Fe  Fe25  1  0.83683052  0.83674480  0.17167244  1
  Fe  Fe26  1  0.67033448  0.66950377  0.33750722  1
  Fe  Fe27  1  0.17037013  0.17231017  0.50382170  1
  Fe  Fe28  1  1.00327134  0.00444363  0.67092592  1
  Fe  Fe29  1  0.17024163  0.17142315  0.83743454  1
  Ni  Ni30  1  0.17139012  0.50513876  0.50365027  1
  Fe  Fe31  1  1.00338546  0.33690622  0.67031119  1
  Fe  Fe32  1  0.17078670  0.50393282  0.83683774  1
  Fe  Fe33  1  0.17021731  0.83574340  0.50358708  1
  Fe  Fe34  1  1.00355246  0.67089893  0.66999340  1
  Fe  Fe35  1  0.17213789  0.83689382  0.83682382  1
  Fe  Fe36  1  0.50514838  0.17223166  0.50462647  1
  Fe  Fe37  1  0.33695791  1.00316998  0.67071732  1
  Cr  Cr38  1  0.50440124  0.16991555  0.83872821  1
  Ni  Ni39  1  0.50366351  0.50482326  0.50537954  1
  Fe  Fe40  1  0.33695747  0.33829173  0.66957933  1
  Fe  Fe41  1  0.50408350  0.50590490  0.83757465  1
  Fe  Fe42  1  0.50453361  0.83658490  0.50435134  1
  Fe  Fe43  1  0.33806222  0.67078784  0.66983661  1
  Fe  Fe44  1  0.50408414  0.83626925  0.83744855  1
  Ni  Ni45  1  0.83725035  0.17022091  0.50513248  1
  Ni  Ni46  1  0.67209976  1.00391958  0.67055405  1
  Fe  Fe47  1  0.83800527  0.17142326  0.83617909  1
  Ni  Ni48  1  0.83719479  0.50382602  0.50374301  1
  Fe  Fe49  1  0.67190628  0.33800814  0.66864294  1
  Fe  Fe50  1  0.83737849  0.50400861  0.83707836  1
  Fe  Fe51  1  0.83749796  0.83634794  0.50431561  1
  Fe  Fe52  1  0.67063467  0.67090146  0.67068496  1
  Fe  Fe53  1  0.83602964  0.83681789  0.83625895  1
" 