7883,Ni23Fe50Cr25_18,-227.311368733731, 188.814240872744,Ni23Fe50Cr25,"# generated using pymatgen
 data_Cr5Fe9Ni4
_symmetry_space_group_name_H-M   'P 1'
_cell_length_a   7.46248230
_cell_length_b   7.46248230
_cell_length_c   10.55354368
_cell_angle_alpha   90.00000000
_cell_angle_beta   90.00000000
_cell_angle_gamma   90.00000000
_symmetry_Int_Tables_number   1
_chemical_formula_structural   Cr5Fe9Ni4
_chemical_formula_sum   'Cr15 Fe27 Ni12'
_cell_volume   587.71251612
_cell_formula_units_Z   3
loop_
 _symmetry_equiv_pos_site_id
 _symmetry_equiv_pos_as_xyz
  1  'x, y, z'
loop_
 _atom_site_type_symbol
 _atom_site_label
 _atom_site_symmetry_multiplicity
 _atom_site_fract_x
 _atom_site_fract_y
 _atom_site_fract_z
 _atom_site_occupancy
  Fe  Fe0  1  0.00220993  0.99743619  1.00014092  1
  Fe  Fe1  1  0.16693756  0.16594403  0.16727205  1
  Ni  Ni2  1  1.00000909  0.00230509  0.33524079  1
  Cr  Cr3  1  0.99969026  0.33512560  0.00122275  1
  Cr  Cr4  1  0.16611648  0.50113270  0.16811830  1
  Ni  Ni5  1  0.99976447  0.33167068  0.33454638  1
  Ni  Ni6  1  0.00087432  0.66746890  0.99825275  1
  Fe  Fe7  1  0.16626274  0.83406422  0.16677290  1
  Fe  Fe8  1  0.00039394  0.66740055  0.33323007  1
  Fe  Fe9  1  0.33185563  0.00103858  0.00168529  1
  Fe  Fe10  1  0.50011868  0.16858857  0.16622653  1
  Cr  Cr11  1  0.33313509  0.99862931  0.33254114  1
  Fe  Fe12  1  0.33662748  0.33344616  0.00042641  1
  Ni  Ni13  1  0.50219345  0.50001785  0.16752838  1
  Cr  Cr14  1  0.33148892  0.33537006  0.33392889  1
  Cr  Cr15  1  0.33277004  0.66667530  0.00180222  1
  Fe  Fe16  1  0.49986788  0.83234918  0.16836186  1
  Fe  Fe17  1  0.33453905  0.66703481  0.33425347  1
  Cr  Cr18  1  0.66594242  0.00163578  1.00028770  1
  Cr  Cr19  1  0.83446540  0.16826553  0.16982291  1
  Fe  Fe20  1  0.66886665  1.00004480  0.33450824  1
  Fe  Fe21  1  0.66506037  0.33570687  0.99999591  1
  Ni  Ni22  1  0.83157956  0.50078180  0.16766071  1
  Fe  Fe23  1  0.66849352  0.33479412  0.33284388  1
  Cr  Cr24  1  0.66809601  0.66481704  0.99965710  1
  Cr  Cr25  1  0.83557179  0.83188435  0.16832027  1
  Ni  Ni26  1  0.66477475  0.66730956  0.33333825  1
  Ni  Ni27  1  0.16328156  0.16566455  0.50129644  1
  Fe  Fe28  1  0.00057947  1.00025832  0.66526954  1
  Cr  Cr29  1  0.16791952  0.16552105  0.83334008  1
  Fe  Fe30  1  0.16663962  0.49831783  0.50023816  1
  Ni  Ni31  1  0.00126771  0.33250262  0.66597846  1
  Fe  Fe32  1  0.16648065  0.50108670  0.83323440  1
  Fe  Fe33  1  0.16556859  0.83464660  0.50000702  1
  Fe  Fe34  1  0.99898493  0.66722511  0.66838461  1
  Fe  Fe35  1  0.16475241  0.83284681  0.83413378  1
  Cr  Cr36  1  0.50056278  0.16811598  0.50247391  1
  Fe  Fe37  1  0.33146933  0.00116118  0.66600046  1
  Fe  Fe38  1  0.50024521  0.16989013  0.83369411  1
  Ni  Ni39  1  0.50044682  0.50300312  0.50045220  1
  Fe  Fe40  1  0.33403262  0.33433181  0.66661403  1
  Ni  Ni41  1  0.50196863  0.49756481  0.83293614  1
  Fe  Fe42  1  0.50168979  0.83147194  0.49988578  1
  Cr  Cr43  1  0.33457573  0.66555230  0.66462557  1
  Cr  Cr44  1  0.49996826  0.83321218  0.83280560  1
  Ni  Ni45  1  0.83765787  0.16552540  0.49950434  1
  Cr  Cr46  1  0.66825925  0.99943756  0.66559742  1
  Fe  Fe47  1  0.83260236  0.16816779  0.83239458  1
  Cr  Cr48  1  0.83271630  0.50013531  0.49882728  1
  Fe  Fe49  1  0.66706751  0.33592389  0.66808248  1
  Fe  Fe50  1  0.83342845  0.50067153  0.83252546  1
  Fe  Fe51  1  0.83365772  0.83475861  0.49926461  1
  Ni  Ni52  1  0.66664943  0.66650698  0.66771188  1
  Fe  Fe53  1  0.83633972  0.83208002  0.83325333  1
" 