467,Ni23Fe60Cr16_15,-229.289247232549, 185.404150679118,Ni23Fe60Cr16,"# generated using pymatgen
 data_Cr5(Fe8Ni3)2
_symmetry_space_group_name_H-M   'P 1'
_cell_length_a   7.44200345
_cell_length_b   7.44200345
_cell_length_c   10.52458221
_cell_angle_alpha   90.00000000
_cell_angle_beta   90.00000000
_cell_angle_gamma   90.00000000
_symmetry_Int_Tables_number   1
_chemical_formula_structural   Cr5(Fe8Ni3)2
_chemical_formula_sum   'Cr10 Fe32 Ni12'
_cell_volume   582.88730811
_cell_formula_units_Z   2
loop_
 _symmetry_equiv_pos_site_id
 _symmetry_equiv_pos_as_xyz
  1  'x, y, z'
loop_
 _atom_site_type_symbol
 _atom_site_label
 _atom_site_symmetry_multiplicity
 _atom_site_fract_x
 _atom_site_fract_y
 _atom_site_fract_z
 _atom_site_occupancy
  Ni  Ni0  1  0.00238099  1.00020540  0.00195101  1
  Fe  Fe1  1  0.16895088  0.17022150  0.16892173  1
  Fe  Fe2  1  0.00373771  1.00011351  0.33506806  1
  Fe  Fe3  1  0.00369205  0.33636590  0.00272752  1
  Fe  Fe4  1  0.16703946  0.50104076  0.16818988  1
  Fe  Fe5  1  0.00344573  0.33688230  0.33477403  1
  Fe  Fe6  1  0.00330265  0.66806330  0.00325361  1
  Fe  Fe7  1  0.16703045  0.83377963  0.16847832  1
  Fe  Fe8  1  0.00182496  0.66805210  0.33544149  1
  Cr  Cr9  1  0.33273403  0.00236871  0.00294836  1
  Fe  Fe10  1  0.50122490  0.16908493  0.16898436  1
  Fe  Fe11  1  0.33405429  0.00287821  0.33495098  1
  Ni  Ni12  1  0.33555273  0.33589614  0.99923383  1
  Cr  Cr13  1  0.50107817  0.50250387  0.16693309  1
  Ni  Ni14  1  0.33487429  0.33325492  0.33720994  1
  Ni  Ni15  1  0.33376941  0.66659434  1.00166166  1
  Fe  Fe16  1  0.50331457  0.83475288  0.16853820  1
  Fe  Fe17  1  0.33317374  0.66806895  0.33534978  1
  Fe  Fe18  1  0.66782559  0.00176827  0.00324020  1
  Cr  Cr19  1  0.83537290  0.16980220  0.16645746  1
  Fe  Fe20  1  0.66725587  1.00126428  0.33467229  1
  Ni  Ni21  1  0.66714918  0.33650385  0.00235478  1
  Ni  Ni22  1  0.83598726  0.50169945  0.16840752  1
  Fe  Fe23  1  0.66727704  0.33600449  0.33519720  1
  Ni  Ni24  1  0.66950977  0.66655255  0.00306891  1
  Fe  Fe25  1  0.83470308  0.83283798  0.16817061  1
  Fe  Fe26  1  0.67004716  0.66778101  0.33449610  1
  Fe  Fe27  1  0.16999068  0.16706817  0.50158022  1
  Fe  Fe28  1  0.00517503  0.99965834  0.66787013  1
  Fe  Fe29  1  0.16903680  0.16801252  0.83454502  1
  Fe  Fe30  1  0.16841342  0.50275107  0.50164212  1
  Fe  Fe31  1  0.00637256  0.33582127  0.66755327  1
  Fe  Fe32  1  0.17065333  0.50270585  0.83521383  1
  Ni  Ni33  1  0.16790967  0.83462901  0.50227986  1
  Fe  Fe34  1  0.00437944  0.66956744  0.66636128  1
  Ni  Ni35  1  0.16983475  0.83419612  0.83393362  1
  Fe  Fe36  1  0.49895161  0.16798026  0.50086581  1
  Ni  Ni37  1  0.33190833  0.00209230  0.66754944  1
  Fe  Fe38  1  0.49983884  0.16964651  0.83519653  1
  Fe  Fe39  1  0.50055009  0.50186667  0.50076266  1
  Fe  Fe40  1  0.33361657  0.33491395  0.66827475  1
  Fe  Fe41  1  0.49896475  0.50180404  0.83686235  1
  Cr  Cr42  1  0.50016137  0.83408237  0.50214995  1
  Ni  Ni43  1  0.33251789  0.66857209  0.66832491  1
  Cr  Cr44  1  0.49946961  0.83304863  0.83456880  1
  Cr  Cr45  1  0.83628611  0.16779510  0.50144446  1
  Fe  Fe46  1  0.66667611  1.00021428  0.66713789  1
  Cr  Cr47  1  0.83602671  0.16785082  0.83714488  1
  Fe  Fe48  1  0.83608061  0.50524639  0.50058835  1
  Cr  Cr49  1  0.66628839  0.33641809  0.66698029  1
  Cr  Cr50  1  0.83527111  0.50084840  0.83719482  1
  Ni  Ni51  1  0.83658279  0.83424233  0.50233746  1
  Fe  Fe52  1  0.66759322  0.66913664  0.66695605  1
  Cr  Cr53  1  0.83600292  0.83635150  0.83486196  1
" 