6054,Ni23Fe35Cr40_0,-222.366224777852, 176.351864407446,Ni23Fe35Cr40,"# generated using pymatgen
 data_Cr23Fe19Ni12
_symmetry_space_group_name_H-M   'P 1'
_cell_length_a   7.49422788
_cell_length_b   7.49422788
_cell_length_c   10.59843871
_cell_angle_alpha   90.00000000
_cell_angle_beta   90.00000000
_cell_angle_gamma   90.00000000
_symmetry_Int_Tables_number   1
_chemical_formula_structural   Cr23Fe19Ni12
_chemical_formula_sum   'Cr23 Fe19 Ni12'
_cell_volume   595.24489812
_cell_formula_units_Z   1
loop_
 _symmetry_equiv_pos_site_id
 _symmetry_equiv_pos_as_xyz
  1  'x, y, z'
loop_
 _atom_site_type_symbol
 _atom_site_label
 _atom_site_symmetry_multiplicity
 _atom_site_fract_x
 _atom_site_fract_y
 _atom_site_fract_z
 _atom_site_occupancy
  Ni  Ni0  1  -0.00024087  -0.00172543  0.99786698  1
  Fe  Fe1  1  0.16670066  0.16403440  0.16464106  1
  Cr  Cr2  1  -0.00123807  0.99711506  0.33103257  1
  Cr  Cr3  1  0.99751592  0.32958662  0.99770775  1
  Fe  Fe4  1  0.16568523  0.49879731  0.16562578  1
  Cr  Cr5  1  0.00053527  0.33253641  0.33136303  1
  Cr  Cr6  1  -0.00016497  0.66583382  -0.00033470  1
  Fe  Fe7  1  0.16255510  0.83161003  0.16416124  1
  Fe  Fe8  1  0.99785755  0.66664685  0.33255577  1
  Cr  Cr9  1  0.32782827  0.99727237  -0.00086275  1
  Fe  Fe10  1  0.49635486  0.16550645  0.16543698  1
  Fe  Fe11  1  0.33125803  0.00058693  0.33296206  1
  Fe  Fe12  1  0.33071173  0.33133741  -0.00114296  1
  Cr  Cr13  1  0.49699667  0.49661551  0.16242044  1
  Fe  Fe14  1  0.33078802  0.32930978  0.33280338  1
  Fe  Fe15  1  0.33021373  0.66412682  0.99771924  1
  Cr  Cr16  1  0.49922527  0.83248282  0.16474307  1
  Cr  Cr17  1  0.33010533  0.66469467  0.33332829  1
  Cr  Cr18  1  0.66781899  -0.00032286  -0.00167826  1
  Cr  Cr19  1  0.83177579  0.16330269  0.16311763  1
  Cr  Cr20  1  0.66405255  0.99788402  0.33405191  1
  Fe  Fe21  1  0.66539235  0.33266568  0.99570129  1
  Cr  Cr22  1  0.83216105  0.50155039  0.16595730  1
  Cr  Cr23  1  0.66344236  0.33084196  0.33271614  1
  Fe  Fe24  1  0.66618366  0.66353600  0.99737410  1
  Ni  Ni25  1  0.83372456  0.83087110  0.16518424  1
  Fe  Fe26  1  0.66639380  0.66692067  0.33303773  1
  Fe  Fe27  1  0.16570413  0.16626767  0.49855490  1
  Cr  Cr28  1  -0.00142734  -0.00066641  0.66680717  1
  Fe  Fe29  1  0.16169821  0.16405336  0.83151022  1
  Ni  Ni30  1  0.16498007  0.49614048  0.49800757  1
  Ni  Ni31  1  0.99705426  0.33216573  0.66496706  1
  Cr  Cr32  1  0.16428307  0.49771092  0.82970736  1
  Fe  Fe33  1  0.16372178  0.82983596  0.49876205  1
  Ni  Ni34  1  0.00019910  0.66258063  0.66287929  1
  Ni  Ni35  1  0.16406103  0.83135370  0.83244190  1
  Ni  Ni36  1  0.49475224  0.16554049  0.49672539  1
  Cr  Cr37  1  0.33070434  0.99676597  0.66283647  1
  Cr  Cr38  1  0.49765602  0.16721871  0.83192952  1
  Fe  Fe39  1  0.49729446  0.49711142  0.49851046  1
  Fe  Fe40  1  0.33117983  0.33168093  0.66228256  1
  Fe  Fe41  1  0.50077694  0.49678177  0.83306671  1
  Ni  Ni42  1  0.49820148  0.83409033  0.49614410  1
  Cr  Cr43  1  0.33062378  0.66453117  0.66533618  1
  Cr  Cr44  1  0.49612362  0.83051114  0.83304271  1
  Fe  Fe45  1  0.83112194  0.16538046  0.50049549  1
  Cr  Cr46  1  0.66500148  0.00075005  0.66176775  1
  Ni  Ni47  1  0.83267052  0.16914854  0.83068181  1
  Cr  Cr48  1  0.83507643  0.49943792  0.49885296  1
  Ni  Ni49  1  0.66564354  0.33163360  0.66579642  1
  Ni  Ni50  1  0.83141139  0.49473417  0.83062954  1
  Ni  Ni51  1  0.83198555  0.83013691  0.49658141  1
  Cr  Cr52  1  0.66373205  0.66270232  0.66415840  1
  Cr  Cr53  1  0.83421289  0.83086025  0.83211098  1
" 