540,Ni23Fe50Cr25_8,-226.774747769259, 181.868895224238,Ni23Fe50Cr25,"# generated using pymatgen
 data_Cr5Fe9Ni4
_symmetry_space_group_name_H-M   'P 1'
_cell_length_a   7.46143329
_cell_length_b   7.46143329
_cell_length_c   10.55206015
_cell_angle_alpha   90.00000000
_cell_angle_beta   90.00000000
_cell_angle_gamma   90.00000000
_symmetry_Int_Tables_number   1
_chemical_formula_structural   Cr5Fe9Ni4
_chemical_formula_sum   'Cr15 Fe27 Ni12'
_cell_volume   587.46470429
_cell_formula_units_Z   3
loop_
 _symmetry_equiv_pos_site_id
 _symmetry_equiv_pos_as_xyz
  1  'x, y, z'
loop_
 _atom_site_type_symbol
 _atom_site_label
 _atom_site_symmetry_multiplicity
 _atom_site_fract_x
 _atom_site_fract_y
 _atom_site_fract_z
 _atom_site_occupancy
  Fe  Fe0  1  0.00244200  0.99759080  0.00069996  1
  Fe  Fe1  1  0.16614748  0.16859602  0.16653368  1
  Fe  Fe2  1  0.00188047  0.00102484  0.33559970  1
  Ni  Ni3  1  0.00200155  0.33640788  0.00198465  1
  Ni  Ni4  1  0.16744542  0.50071424  0.16680029  1
  Fe  Fe5  1  0.00103908  0.33222965  0.33275165  1
  Ni  Ni6  1  0.00237726  0.66345010  1.00000906  1
  Fe  Fe7  1  0.16845772  0.83238223  0.16595425  1
  Cr  Cr8  1  0.00132167  0.66427649  0.33309178  1
  Fe  Fe9  1  0.33213429  0.99661165  0.00128180  1
  Cr  Cr10  1  0.49949001  0.16669219  0.16617101  1
  Ni  Ni11  1  0.33243908  0.00068985  0.33198339  1
  Fe  Fe12  1  0.33197097  0.33740540  0.00102229  1
  Cr  Cr13  1  0.50009851  0.50153406  0.16924147  1
  Fe  Fe14  1  0.32943878  0.33247347  0.33289158  1
  Ni  Ni15  1  0.33256579  0.66787405  0.00053426  1
  Fe  Fe16  1  0.49991246  0.83301957  0.16705595  1
  Fe  Fe17  1  0.33204721  0.66969017  0.33145778  1
  Ni  Ni18  1  0.66375100  0.99897035  0.99981423  1
  Cr  Cr19  1  0.83430788  0.16647148  0.16529426  1
  Ni  Ni20  1  0.66626383  0.00103394  0.33535334  1
  Fe  Fe21  1  0.66818332  0.33769960  0.99996438  1
  Ni  Ni22  1  0.83524203  0.50112447  0.16530476  1
  Fe  Fe23  1  0.67067000  0.33378905  0.33423945  1
  Ni  Ni24  1  0.66629116  0.66701133  0.00064522  1
  Cr  Cr25  1  0.83413319  0.83279518  0.16626469  1
  Fe  Fe26  1  0.66837849  0.66778349  0.33323920  1
  Fe  Fe27  1  0.16622851  0.16716569  0.50041315  1
  Ni  Ni28  1  0.00376046  1.00020105  0.66372491  1
  Cr  Cr29  1  0.16652110  0.16705666  0.83495754  1
  Fe  Fe30  1  0.16664285  0.49949339  0.50036341  1
  Fe  Fe31  1  0.00194709  0.33399074  0.66614073  1
  Fe  Fe32  1  0.16651197  0.50160056  0.83528286  1
  Fe  Fe33  1  0.16702734  0.83396237  0.50047435  1
  Fe  Fe34  1  0.00265103  0.66724160  0.66614143  1
  Fe  Fe35  1  0.16795969  0.83269930  0.83354754  1
  Cr  Cr36  1  0.49720908  0.16754533  0.50040396  1
  Ni  Ni37  1  0.33031347  0.99922941  0.66760805  1
  Cr  Cr38  1  0.49806628  0.16779766  0.83490963  1
  Cr  Cr39  1  0.49809950  0.50072722  0.49780844  1
  Fe  Fe40  1  0.33085532  0.33420716  0.66703035  1
  Fe  Fe41  1  0.49855492  0.50246067  0.83589730  1
  Cr  Cr42  1  0.49819450  0.83310866  0.49879021  1
  Fe  Fe43  1  0.33116909  0.66820498  0.66903178  1
  Fe  Fe44  1  0.49781195  0.83297760  0.83531078  1
  Fe  Fe45  1  0.83603322  0.16765460  0.49886882  1
  Cr  Cr46  1  0.66672016  1.00023974  0.66619993  1
  Cr  Cr47  1  0.83629631  0.16593849  0.83603070  1
  Ni  Ni48  1  0.83623096  0.50041787  0.50001441  1
  Cr  Cr49  1  0.66863975  0.33489651  0.66827311  1
  Fe  Fe50  1  0.83609378  0.49994144  0.83617422  1
  Fe  Fe51  1  0.83554454  0.83377524  0.49940773  1
  Cr  Cr52  1  0.66760118  0.66607025  0.66774212  1
  Cr  Cr53  1  0.83720132  0.83237030  0.83458449  1
" 