221,Ni23Fe74Cr2_18,-232.701394893856, 185.739096486333,Ni23Fe74Cr2,"# generated using pymatgen
 data_Cr(Fe10Ni3)2
_symmetry_space_group_name_H-M   'P 1'
_cell_length_a   7.40642001
_cell_length_b   7.40642001
_cell_length_c   10.47425963
_cell_angle_alpha   90.00000000
_cell_angle_beta   90.00000000
_cell_angle_gamma   90.00000000
_symmetry_Int_Tables_number   1
_chemical_formula_structural   Cr(Fe10Ni3)2
_chemical_formula_sum   'Cr2 Fe40 Ni12'
_cell_volume   574.56611253
_cell_formula_units_Z   2
loop_
 _symmetry_equiv_pos_site_id
 _symmetry_equiv_pos_as_xyz
  1  'x, y, z'
loop_
 _atom_site_type_symbol
 _atom_site_label
 _atom_site_symmetry_multiplicity
 _atom_site_fract_x
 _atom_site_fract_y
 _atom_site_fract_z
 _atom_site_occupancy
  Fe  Fe0  1  0.00443999  1.00391933  1.00366527  1
  Fe  Fe1  1  0.17035069  0.17087143  0.17121534  1
  Ni  Ni2  1  1.00379667  0.00521418  0.33651232  1
  Fe  Fe3  1  1.00290505  0.33684751  0.00588637  1
  Fe  Fe4  1  0.17055050  0.50422167  0.17062656  1
  Ni  Ni5  1  0.00444885  0.33597878  0.33791821  1
  Fe  Fe6  1  1.00318355  0.67151466  0.00431789  1
  Fe  Fe7  1  0.17062769  0.83718460  0.17021097  1
  Fe  Fe8  1  1.00310098  0.67068653  0.33771857  1
  Fe  Fe9  1  0.33754709  1.00371224  0.00411012  1
  Fe  Fe10  1  0.50446982  0.17071819  0.17037664  1
  Fe  Fe11  1  0.33717790  1.00395550  0.33682683  1
  Fe  Fe12  1  0.33840241  0.33637720  0.00468740  1
  Fe  Fe13  1  0.50479720  0.50491029  0.17142414  1
  Fe  Fe14  1  0.33710401  0.33759173  0.33789902  1
  Fe  Fe15  1  0.33832914  0.67219524  0.00435790  1
  Ni  Ni16  1  0.50364789  0.83778954  0.17098703  1
  Fe  Fe17  1  0.33741803  0.67073527  0.33790717  1
  Fe  Fe18  1  0.67029044  1.00399451  0.00426407  1
  Fe  Fe19  1  0.83746149  0.17079635  0.17162310  1
  Fe  Fe20  1  0.67194639  1.00387617  0.33758909  1
  Fe  Fe21  1  0.67097564  0.33763024  1.00403709  1
  Ni  Ni22  1  0.83806618  0.50330589  0.17117890  1
  Fe  Fe23  1  0.67199485  0.33763809  0.33770678  1
  Fe  Fe24  1  0.67076510  0.67065334  0.00531991  1
  Fe  Fe25  1  0.83677319  0.83685186  0.17170537  1
  Ni  Ni26  1  0.66980056  0.67071897  0.33716816  1
  Fe  Fe27  1  0.16863875  0.16971485  0.50275485  1
  Ni  Ni28  1  1.00355287  1.00347807  0.67177722  1
  Fe  Fe29  1  0.16969203  0.16735559  0.83831286  1
  Fe  Fe30  1  0.16927483  0.50508549  0.50373906  1
  Fe  Fe31  1  1.00168763  0.33681840  0.66924395  1
  Cr  Cr32  1  0.16984458  0.50607805  0.83771198  1
  Fe  Fe33  1  0.16980838  0.83748766  0.50539827  1
  Ni  Ni34  1  1.00313555  0.67317465  0.66942028  1
  Ni  Ni35  1  0.17135553  0.83893335  0.83699264  1
  Fe  Fe36  1  0.50601417  0.16996935  0.50334429  1
  Fe  Fe37  1  0.33613534  1.00105320  0.67134127  1
  Fe  Fe38  1  0.50424421  0.16963596  0.83855612  1
  Ni  Ni39  1  0.50394702  0.50499996  0.50314581  1
  Cr  Cr40  1  0.33854104  0.33742786  0.66985156  1
  Fe  Fe41  1  0.50594568  0.50561379  0.83747666  1
  Fe  Fe42  1  0.50516009  0.83690654  0.50343409  1
  Ni  Ni43  1  0.33871611  0.67257922  0.67024499  1
  Fe  Fe44  1  0.50303602  0.83703172  0.83798904  1
  Ni  Ni45  1  0.83800007  0.17021702  0.50408240  1
  Fe  Fe46  1  0.67150900  1.00342267  0.67042377  1
  Fe  Fe47  1  0.83834494  0.17025414  0.83669825  1
  Fe  Fe48  1  0.83705455  0.50423403  0.50330080  1
  Fe  Fe49  1  0.67293454  0.33791303  0.67053460  1
  Fe  Fe50  1  0.83639886  0.50475870  0.83806101  1
  Ni  Ni51  1  0.83798260  0.83875956  0.50375746  1
  Fe  Fe52  1  0.67099000  0.67095109  0.66976897  1
  Fe  Fe53  1  0.83870137  0.83727379  0.83641466  1
" 