8136,Ni23Fe35Cr40_4,-222.175930956592, 175.709240033711,Ni23Fe35Cr40,"# generated using pymatgen
 data_Cr23Fe19Ni12
_symmetry_space_group_name_H-M   'P 1'
_cell_length_a   7.49919968
_cell_length_b   7.49919968
_cell_length_c   10.60546989
_cell_angle_alpha   90.00000000
_cell_angle_beta   90.00000000
_cell_angle_gamma   90.00000000
_symmetry_Int_Tables_number   1
_chemical_formula_structural   Cr23Fe19Ni12
_chemical_formula_sum   'Cr23 Fe19 Ni12'
_cell_volume   596.43037130
_cell_formula_units_Z   1
loop_
 _symmetry_equiv_pos_site_id
 _symmetry_equiv_pos_as_xyz
  1  'x, y, z'
loop_
 _atom_site_type_symbol
 _atom_site_label
 _atom_site_symmetry_multiplicity
 _atom_site_fract_x
 _atom_site_fract_y
 _atom_site_fract_z
 _atom_site_occupancy
  Fe  Fe0  1  -0.00171855  0.99776720  0.00062303  1
  Ni  Ni1  1  0.16506385  0.16341132  0.16669979  1
  Fe  Fe2  1  -0.00170681  0.00169552  0.33083959  1
  Cr  Cr3  1  0.99745782  0.33121590  0.00070595  1
  Fe  Fe4  1  0.16253655  0.49950995  0.16504276  1
  Cr  Cr5  1  -0.00000197  0.33203590  0.33105205  1
  Ni  Ni6  1  0.99752877  0.66471057  0.00002814  1
  Ni  Ni7  1  0.16215191  0.83381099  0.16550802  1
  Fe  Fe8  1  -0.00201708  0.66380686  0.32881582  1
  Fe  Fe9  1  0.32945700  -0.00034039  0.00026586  1
  Fe  Fe10  1  0.49826855  0.16340775  0.16654011  1
  Ni  Ni11  1  0.33022001  -0.00173186  0.32924473  1
  Cr  Cr12  1  0.33044904  0.32941729  0.00315339  1
  Fe  Fe13  1  0.49896643  0.49368868  0.16547375  1
  Fe  Fe14  1  0.33505174  0.32788832  0.33060321  1
  Cr  Cr15  1  0.33070486  0.66649028  0.00145696  1
  Cr  Cr16  1  0.49733936  0.83248281  0.16622834  1
  Cr  Cr17  1  0.32978257  0.66200753  0.32859748  1
  Cr  Cr18  1  0.66155377  0.99760027  0.99531111  1
  Fe  Fe19  1  0.83048560  0.16355935  0.16641538  1
  Ni  Ni20  1  0.66292735  0.00102632  0.33267512  1
  Ni  Ni21  1  0.66521815  0.32889430  0.00184261  1
  Fe  Fe22  1  0.83188909  0.49699600  0.16446962  1
  Ni  Ni23  1  0.66663298  0.32848708  0.32933768  1
  Cr  Cr24  1  0.66508614  0.66258277  0.99711396  1
  Cr  Cr25  1  0.83265712  0.83325025  0.16779813  1
  Cr  Cr26  1  0.66383468  0.66187372  0.32992309  1
  Fe  Fe27  1  0.16641904  0.16383535  0.49498055  1
  Cr  Cr28  1  0.99674498  0.00056944  0.66258318  1
  Cr  Cr29  1  0.16796532  0.16583516  0.83176951  1
  Fe  Fe30  1  0.16540305  0.49727355  0.49811444  1
  Cr  Cr31  1  -0.00213197  0.33101287  0.66160298  1
  Cr  Cr32  1  0.16537082  0.49864912  0.82874242  1
  Cr  Cr33  1  0.16394558  0.82988684  0.49533246  1
  Fe  Fe34  1  0.99758405  0.66381088  0.66366952  1
  Cr  Cr35  1  0.16202818  0.83050352  0.83311720  1
  Fe  Fe36  1  0.49911832  0.16580493  0.49612774  1
  Cr  Cr37  1  0.33260512  -0.00143196  0.66592816  1
  Ni  Ni38  1  0.49988552  0.16808856  0.83098385  1
  Fe  Fe39  1  0.49919011  0.49472140  0.49767699  1
  Ni  Ni40  1  0.33235047  0.33165002  0.65877403  1
  Cr  Cr41  1  0.49767042  0.49306871  0.83053945  1
  Cr  Cr42  1  0.49684925  0.83069424  0.49648754  1
  Ni  Ni43  1  0.33071789  0.66254553  0.66322062  1
  Fe  Fe44  1  0.49464219  0.83178157  0.83129418  1
  Ni  Ni45  1  0.82881847  0.16834181  0.49428056  1
  Cr  Cr46  1  0.66477227  -0.00088577  0.66513444  1
  Cr  Cr47  1  0.82993521  0.16694478  0.83351821  1
  Fe  Fe48  1  0.82943146  0.49750927  0.49681920  1
  Ni  Ni49  1  0.66486184  0.33197406  0.66243554  1
  Fe  Fe50  1  0.83137131  0.49687861  0.83229963  1
  Cr  Cr51  1  0.83225020  0.83348810  0.49361992  1
  Cr  Cr52  1  0.66399650  0.66556533  0.66682617  1
  Fe  Fe53  1  0.83262569  0.83057958  0.83259603  1
" 