6069,Ni23Fe43Cr33_7,-224.922073671433, 190.298700001477,Ni23Fe43Cr33,"# generated using pymatgen
 data_Cr19Fe23Ni12
_symmetry_space_group_name_H-M   'P 1'
_cell_length_a   7.46977780
_cell_length_b   7.46977780
_cell_length_c   10.56386108
_cell_angle_alpha   90.00000000
_cell_angle_beta   90.00000000
_cell_angle_gamma   90.00000000
_symmetry_Int_Tables_number   1
_chemical_formula_structural   Cr19Fe23Ni12
_chemical_formula_sum   'Cr19 Fe23 Ni12'
_cell_volume   589.43788785
_cell_formula_units_Z   1
loop_
 _symmetry_equiv_pos_site_id
 _symmetry_equiv_pos_as_xyz
  1  'x, y, z'
loop_
 _atom_site_type_symbol
 _atom_site_label
 _atom_site_symmetry_multiplicity
 _atom_site_fract_x
 _atom_site_fract_y
 _atom_site_fract_z
 _atom_site_occupancy
  Fe  Fe0  1  0.00101882  0.99859903  0.99736521  1
  Cr  Cr1  1  0.16430922  0.16554981  0.16520107  1
  Fe  Fe2  1  0.99864016  0.99870685  0.33344978  1
  Fe  Fe3  1  0.00109509  0.33401051  0.00038577  1
  Fe  Fe4  1  0.16300751  0.50047760  0.16639503  1
  Ni  Ni5  1  0.00066007  0.33666521  0.33167213  1
  Ni  Ni6  1  0.99904375  0.66736055  0.00080550  1
  Fe  Fe7  1  0.16181932  0.83153656  0.16599877  1
  Fe  Fe8  1  0.99917000  0.66721058  0.33150271  1
  Fe  Fe9  1  0.33002313  0.00138805  0.99778137  1
  Fe  Fe10  1  0.50002700  0.16650808  0.16712511  1
  Cr  Cr11  1  0.33167007  0.99551491  0.33340856  1
  Ni  Ni12  1  0.33276863  0.33111066  -0.00003461  1
  Cr  Cr13  1  0.49803907  0.49939688  0.16671513  1
  Fe  Fe14  1  0.33063467  0.33191693  0.33116132  1
  Cr  Cr15  1  0.32773179  0.66985578  0.00110525  1
  Cr  Cr16  1  0.50225521  0.83352184  0.16480926  1
  Fe  Fe17  1  0.32994855  0.66639128  0.33210372  1
  Cr  Cr18  1  0.66609307  0.00072335  0.99956410  1
  Fe  Fe19  1  0.83427020  0.16516303  0.16822871  1
  Ni  Ni20  1  0.66698357  0.99771294  0.33221017  1
  Cr  Cr21  1  0.66999705  0.33204696  0.99956288  1
  Ni  Ni22  1  0.83599056  0.50166306  0.16388781  1
  Cr  Cr23  1  0.67202016  0.33271154  0.33241117  1
  Fe  Fe24  1  0.67010516  0.66599904  0.99938240  1
  Fe  Fe25  1  0.83725851  0.83397296  0.16594127  1
  Cr  Cr26  1  0.66912021  0.66695334  0.33304342  1
  Ni  Ni27  1  0.16511164  0.16506434  0.49995190  1
  Ni  Ni28  1  0.00121733  0.99718580  0.66676706  1
  Ni  Ni29  1  0.16526321  0.16455566  0.83450483  1
  Cr  Cr30  1  0.16652437  0.49786613  0.49881733  1
  Cr  Cr31  1  0.99920022  0.33328271  0.66816702  1
  Cr  Cr32  1  0.16736400  0.49873701  0.83465296  1
  Fe  Fe33  1  0.16215880  0.83277433  0.50096658  1
  Fe  Fe34  1  0.99805031  0.67088028  0.66799856  1
  Ni  Ni35  1  0.16180041  0.83564070  0.83437021  1
  Cr  Cr36  1  0.49729586  0.16764577  0.49725253  1
  Cr  Cr37  1  0.32976807  0.99709040  0.66887895  1
  Fe  Fe38  1  0.49658219  0.16539315  0.83414511  1
  Cr  Cr39  1  0.49847934  0.50175226  0.50145948  1
  Fe  Fe40  1  0.33138433  0.32907269  0.66827324  1
  Cr  Cr41  1  0.50134100  0.50163644  0.83172512  1
  Fe  Fe42  1  0.50094316  0.83261525  0.49941057  1
  Fe  Fe43  1  0.33051242  0.66904276  0.66764758  1
  Fe  Fe44  1  0.49840157  0.83304851  0.83437499  1
  Cr  Cr45  1  0.83805203  0.16282505  0.49716956  1
  Cr  Cr46  1  0.66733553  0.99912894  0.66583623  1
  Fe  Fe47  1  0.83832740  0.16292608  0.83348158  1
  Ni  Ni48  1  0.83502267  0.50506315  0.50140662  1
  Cr  Cr49  1  0.67046082  0.33407891  0.66739116  1
  Fe  Fe50  1  0.83669784  0.50440214  0.83507590  1
  Ni  Ni51  1  0.83469783  0.83252239  0.49835697  1
  Fe  Fe52  1  0.67092891  0.66997534  0.66619943  1
  Ni  Ni53  1  0.83350971  0.83325804  0.83466705  1
" 