750,Ni23Fe19Cr57_11,-216.334069667803, 166.171788691671,Ni23Fe19Cr57,"# generated using pymatgen
 data_Cr16Fe5Ni6
_symmetry_space_group_name_H-M   'P 1'
_cell_length_a   7.53086757
_cell_length_b   7.53086757
_cell_length_c   10.65025506
_cell_angle_alpha   90.00000000
_cell_angle_beta   90.00000000
_cell_angle_gamma   90.00000000
_symmetry_Int_Tables_number   1
_chemical_formula_structural   Cr16Fe5Ni6
_chemical_formula_sum   'Cr32 Fe10 Ni12'
_cell_volume   604.01820780
_cell_formula_units_Z   2
loop_
 _symmetry_equiv_pos_site_id
 _symmetry_equiv_pos_as_xyz
  1  'x, y, z'
loop_
 _atom_site_type_symbol
 _atom_site_label
 _atom_site_symmetry_multiplicity
 _atom_site_fract_x
 _atom_site_fract_y
 _atom_site_fract_z
 _atom_site_occupancy
  Cr  Cr0  1  -0.00154460  0.99414337  0.99325521  1
  Cr  Cr1  1  0.16223170  0.16052520  0.16259807  1
  Ni  Ni2  1  -0.00202646  0.99309762  0.33052017  1
  Cr  Cr3  1  0.99479270  0.32714244  0.99471743  1
  Cr  Cr4  1  0.16079006  0.49893696  0.16217587  1
  Cr  Cr5  1  -0.00366026  0.32786474  0.32933191  1
  Fe  Fe6  1  -0.00336289  0.66529918  0.99536382  1
  Ni  Ni7  1  0.16055488  0.83123348  0.16330299  1
  Ni  Ni8  1  -0.00113752  0.66562577  0.32839775  1
  Ni  Ni9  1  0.32767998  0.99401003  -0.00401821  1
  Fe  Fe10  1  0.49676902  0.16113831  0.15955737  1
  Cr  Cr11  1  0.32644308  0.99523835  0.32718390  1
  Cr  Cr12  1  0.32904046  0.32524325  0.99546682  1
  Cr  Cr13  1  0.49538477  0.49609448  0.16116279  1
  Cr  Cr14  1  0.32987401  0.32910974  0.33022972  1
  Cr  Cr15  1  0.32623492  0.66630501  0.99474689  1
  Cr  Cr16  1  0.49417977  0.83117485  0.16093331  1
  Cr  Cr17  1  0.32732281  0.66264785  0.33216311  1
  Fe  Fe18  1  0.66233049  -0.00195469  -0.00423155  1
  Fe  Fe19  1  0.82951600  0.16055741  0.16136144  1
  Cr  Cr20  1  0.66330550  -0.00228810  0.32728869  1
  Ni  Ni21  1  0.66329192  0.32774787  -0.00205872  1
  Cr  Cr22  1  0.83083656  0.49661462  0.16118025  1
  Cr  Cr23  1  0.66143106  0.32874890  0.32790606  1
  Fe  Fe24  1  0.66315220  0.66315033  0.99521423  1
  Cr  Cr25  1  0.83099208  0.82904493  0.16269352  1
  Cr  Cr26  1  0.66228318  0.66093029  0.33157551  1
  Fe  Fe27  1  0.16198977  0.16367527  0.49727799  1
  Fe  Fe28  1  -0.00316625  -0.00306341  0.66325870  1
  Ni  Ni29  1  0.16196279  0.15984389  0.82635883  1
  Ni  Ni30  1  0.16337402  0.49569921  0.49727311  1
  Ni  Ni31  1  0.00084271  0.32827234  0.66203823  1
  Cr  Cr32  1  0.16251786  0.49378446  0.82905787  1
  Fe  Fe33  1  0.16073908  0.82808387  0.49563984  1
  Cr  Cr34  1  -0.00276678  0.66428219  0.66453775  1
  Ni  Ni35  1  0.16192233  0.83138023  0.82940435  1
  Cr  Cr36  1  0.49460340  0.16111512  0.49703469  1
  Cr  Cr37  1  0.32616741  0.99495722  0.66343622  1
  Cr  Cr38  1  0.49408891  0.16152496  0.83052345  1
  Ni  Ni39  1  0.48990669  0.49505433  0.49830203  1
  Ni  Ni40  1  0.32461486  0.32891711  0.66129116  1
  Cr  Cr41  1  0.49450799  0.49558674  0.82788032  1
  Cr  Cr42  1  0.49498738  0.82977963  0.49731654  1
  Fe  Fe43  1  0.32702300  0.66077052  0.66167228  1
  Cr  Cr44  1  0.49624371  0.83039173  0.82929814  1
  Cr  Cr45  1  0.83255411  0.15987792  0.49707336  1
  Ni  Ni46  1  0.66372879  0.99423254  0.66462433  1
  Cr  Cr47  1  0.82982200  0.16221145  0.82625397  1
  Cr  Cr48  1  0.83316575  0.49600485  0.49457882  1
  Cr  Cr49  1  0.66218098  0.32985383  0.66051361  1
  Cr  Cr50  1  0.82991997  0.49612280  0.83173694  1
  Cr  Cr51  1  0.83090858  0.83185955  0.49590892  1
  Cr  Cr52  1  0.66213482  0.66328179  0.66190606  1
  Fe  Fe53  1  0.83051051  0.83030749  0.82897400  1
" 