2095,Ni23Fe43Cr33_13,-225.17072250747, 184.1339494596,Ni23Fe43Cr33,"# generated using pymatgen
 data_Cr19Fe23Ni12
_symmetry_space_group_name_H-M   'P 1'
_cell_length_a   7.47797813
_cell_length_b   7.47797813
_cell_length_c   10.57545810
_cell_angle_alpha   90.00000000
_cell_angle_beta   90.00000000
_cell_angle_gamma   90.00000000
_symmetry_Int_Tables_number   1
_chemical_formula_structural   Cr19Fe23Ni12
_chemical_formula_sum   'Cr19 Fe23 Ni12'
_cell_volume   591.38127699
_cell_formula_units_Z   1
loop_
 _symmetry_equiv_pos_site_id
 _symmetry_equiv_pos_as_xyz
  1  'x, y, z'
loop_
 _atom_site_type_symbol
 _atom_site_label
 _atom_site_symmetry_multiplicity
 _atom_site_fract_x
 _atom_site_fract_y
 _atom_site_fract_z
 _atom_site_occupancy
  Fe  Fe0  1  0.99862953  0.00314377  0.00206912  1
  Fe  Fe1  1  0.16711576  0.16778486  0.16509575  1
  Ni  Ni2  1  0.99821827  0.99613373  0.32895986  1
  Fe  Fe3  1  0.99901232  0.33247373  0.00068415  1
  Fe  Fe4  1  0.16784633  0.49811102  0.16391377  1
  Cr  Cr5  1  0.00181712  0.33294521  0.32942239  1
  Ni  Ni6  1  0.00006021  0.66559482  0.00083948  1
  Cr  Cr7  1  0.16828001  0.83393719  0.16403672  1
  Fe  Fe8  1  0.00129149  0.66526544  0.33029269  1
  Fe  Fe9  1  0.33492598  0.00385482  -0.00014074  1
  Fe  Fe10  1  0.49836381  0.16756111  0.16307021  1
  Fe  Fe11  1  0.33336099  0.00196002  0.33109012  1
  Ni  Ni12  1  0.33332633  0.33331681  0.00035498  1
  Ni  Ni13  1  0.49686512  0.49989931  0.16422325  1
  Ni  Ni14  1  0.33383384  0.33422100  0.32938363  1
  Fe  Fe15  1  0.33386590  0.66244908  0.00045111  1
  Fe  Fe16  1  0.50169752  0.83255967  0.16458908  1
  Fe  Fe17  1  0.33261794  0.66486143  0.33038740  1
  Ni  Ni18  1  0.66577508  0.00059441  0.00317909  1
  Ni  Ni19  1  0.83221353  0.16302161  0.16492803  1
  Fe  Fe20  1  0.66463095  -0.00052556  0.32858509  1
  Ni  Ni21  1  0.66295377  0.33022027  0.99878011  1
  Cr  Cr22  1  0.82988615  0.49763432  0.16468746  1
  Cr  Cr23  1  0.66233680  0.33006437  0.32986550  1
  Fe  Fe24  1  0.66470331  0.66306303  0.00177928  1
  Fe  Fe25  1  0.83174229  0.83255747  0.16453054  1
  Fe  Fe26  1  0.66351095  0.66648244  0.32958672  1
  Cr  Cr27  1  0.16582973  0.16579558  0.49748715  1
  Cr  Cr28  1  0.00077789  0.99723291  0.66767424  1
  Ni  Ni29  1  0.16781871  0.16986573  0.83700510  1
  Ni  Ni30  1  0.16840119  0.50028401  0.49465380  1
  Fe  Fe31  1  0.00347863  0.33399774  0.66798251  1
  Ni  Ni32  1  0.16546491  0.49812777  0.83753599  1
  Fe  Fe33  1  0.16679630  0.83092035  0.49452173  1
  Cr  Cr34  1  0.00027048  0.66384798  0.66530857  1
  Cr  Cr35  1  0.16715356  0.83473126  0.83710442  1
  Fe  Fe36  1  0.49792994  0.16663964  0.49746144  1
  Cr  Cr37  1  0.33334180  -0.00021266  0.66611769  1
  Ni  Ni38  1  0.49905058  0.16698087  0.83500249  1
  Cr  Cr39  1  0.49923912  0.50011334  0.49894088  1
  Cr  Cr40  1  0.33328487  0.33275422  0.66791567  1
  Fe  Fe41  1  0.49875225  0.49604278  0.83666345  1
  Fe  Fe42  1  0.49667025  0.83281899  0.49588091  1
  Cr  Cr43  1  0.33045118  0.66472356  0.66674066  1
  Cr  Cr44  1  0.49911798  0.83075271  0.83696406  1
  Cr  Cr45  1  0.83215734  0.16682090  0.50023960  1
  Cr  Cr46  1  0.66327303  0.00007475  0.66417195  1
  Cr  Cr47  1  0.83350232  0.16795679  0.83261880  1
  Cr  Cr48  1  0.83254777  0.49842259  0.50134043  1
  Fe  Fe49  1  0.66511457  0.33485448  0.66967904  1
  Fe  Fe50  1  0.83337348  0.49845245  0.83582609  1
  Cr  Cr51  1  0.83143575  0.83242163  0.49509551  1
  Fe  Fe52  1  0.66479301  0.66550874  0.66772861  1
  Cr  Cr53  1  0.83162630  0.83141973  0.83822865  1
" 