4673,Ni23Fe35Cr40_12,-222.599109060857, 181.273113618739,Ni23Fe35Cr40,"# generated using pymatgen
 data_Cr23Fe19Ni12
_symmetry_space_group_name_H-M   'P 1'
_cell_length_a   7.49676999
_cell_length_b   7.49676999
_cell_length_c   10.60203379
_cell_angle_alpha   90.00000000
_cell_angle_beta   90.00000000
_cell_angle_gamma   90.00000000
_symmetry_Int_Tables_number   1
_chemical_formula_structural   Cr23Fe19Ni12
_chemical_formula_sum   'Cr23 Fe19 Ni12'
_cell_volume   595.85084073
_cell_formula_units_Z   1
loop_
 _symmetry_equiv_pos_site_id
 _symmetry_equiv_pos_as_xyz
  1  'x, y, z'
loop_
 _atom_site_type_symbol
 _atom_site_label
 _atom_site_symmetry_multiplicity
 _atom_site_fract_x
 _atom_site_fract_y
 _atom_site_fract_z
 _atom_site_occupancy
  Fe  Fe0  1  -0.00087362  0.99320636  0.99469545  1
  Cr  Cr1  1  0.16187986  0.16238834  0.16254243  1
  Fe  Fe2  1  0.99788857  0.99730228  0.33376246  1
  Cr  Cr3  1  0.99676578  0.33583615  0.99594511  1
  Fe  Fe4  1  0.16134106  0.50219854  0.16364423  1
  Cr  Cr5  1  0.99731315  0.33241404  0.33466989  1
  Fe  Fe6  1  0.00139236  0.66611852  0.99547392  1
  Fe  Fe7  1  0.16554311  0.82621645  0.16350816  1
  Fe  Fe8  1  -0.00060985  0.66490717  0.33248737  1
  Cr  Cr9  1  0.33338403  0.99405147  -0.00162747  1
  Cr  Cr10  1  0.49999779  0.16677580  0.16139194  1
  Cr  Cr11  1  0.33008374  0.99590342  0.32902859  1
  Cr  Cr12  1  0.32739433  0.33365462  0.99699046  1
  Cr  Cr13  1  0.49719997  0.49883591  0.16672209  1
  Cr  Cr14  1  0.32714947  0.32983083  0.33235744  1
  Ni  Ni15  1  0.33168132  0.66649521  0.99761931  1
  Fe  Fe16  1  0.49951745  0.82773090  0.16385078  1
  Fe  Fe17  1  0.33062223  0.66425674  0.33108617  1
  Fe  Fe18  1  0.66541109  0.99571705  0.99548154  1
  Cr  Cr19  1  0.83034089  0.16519807  0.16197125  1
  Cr  Cr20  1  0.66374485  0.99407298  0.32931821  1
  Fe  Fe21  1  0.66425565  0.33614098  0.99633669  1
  Ni  Ni22  1  0.83198242  0.50032520  0.16625572  1
  Fe  Fe23  1  0.66596522  0.33231942  0.33339060  1
  Cr  Cr24  1  0.66680850  0.66749083  0.99454521  1
  Cr  Cr25  1  0.83634181  0.82985923  0.16434293  1
  Ni  Ni26  1  0.66654564  0.66239132  0.33110191  1
  Fe  Fe27  1  0.16327036  0.15965895  0.50049275  1
  Ni  Ni28  1  -0.00136597  0.99693184  0.66386772  1
  Cr  Cr29  1  0.16356004  0.16256158  0.82858382  1
  Fe  Fe30  1  0.16535875  0.50250616  0.49905343  1
  Cr  Cr31  1  0.99714973  0.33288537  0.66312191  1
  Ni  Ni32  1  0.16683231  0.50339753  0.83314055  1
  Fe  Fe33  1  0.16453077  0.83215806  0.50059288  1
  Cr  Cr34  1  0.99652139  0.66393305  0.66815643  1
  Ni  Ni35  1  0.16524420  0.82685898  0.83035163  1
  Cr  Cr36  1  0.50069865  0.16507622  0.50144811  1
  Ni  Ni37  1  0.33068790  0.99551801  0.66556408  1
  Cr  Cr38  1  0.50002188  0.16646284  0.83049968  1
  Fe  Fe39  1  0.50017783  0.49776755  0.49722690  1
  Cr  Cr40  1  0.32944716  0.33319323  0.66475962  1
  Fe  Fe41  1  0.49639292  0.50124542  0.83153422  1
  Cr  Cr42  1  0.49613660  0.82746109  0.49962800  1
  Fe  Fe43  1  0.33068334  0.66646875  0.66776615  1
  Ni  Ni44  1  0.49687198  0.83063371  0.83047782  1
  Ni  Ni45  1  0.83226258  0.16508186  0.49983664  1
  Ni  Ni46  1  0.66472922  0.99767943  0.66736361  1
  Cr  Cr47  1  0.82968382  0.16274166  0.83086045  1
  Fe  Fe48  1  0.82771651  0.49792685  0.49679783  1
  Ni  Ni49  1  0.66577370  0.33404779  0.66404902  1
  Fe  Fe50  1  0.83140536  0.49919028  0.83230165  1
  Cr  Cr51  1  0.83304840  0.83248648  0.49912205  1
  Cr  Cr52  1  0.66405843  0.66539423  0.66835095  1
  Ni  Ni53  1  0.83298864  0.83204858  0.83111304  1
" 