56,Ni23Fe35Cr40_3,-222.668266397649, 179.25513204529,Ni23Fe35Cr40,"# generated using pymatgen
 data_Cr23Fe19Ni12
_symmetry_space_group_name_H-M   'P 1'
_cell_length_a   7.49820972
_cell_length_b   7.49820972
_cell_length_c   10.60406987
_cell_angle_alpha   90.00000000
_cell_angle_beta   90.00000000
_cell_angle_gamma   90.00000000
_symmetry_Int_Tables_number   1
_chemical_formula_structural   Cr23Fe19Ni12
_chemical_formula_sum   'Cr23 Fe19 Ni12'
_cell_volume   596.19420008
_cell_formula_units_Z   1
loop_
 _symmetry_equiv_pos_site_id
 _symmetry_equiv_pos_as_xyz
  1  'x, y, z'
loop_
 _atom_site_type_symbol
 _atom_site_label
 _atom_site_symmetry_multiplicity
 _atom_site_fract_x
 _atom_site_fract_y
 _atom_site_fract_z
 _atom_site_occupancy
  Cr  Cr0  1  0.99568277  -0.00160388  0.99645325  1
  Cr  Cr1  1  0.16587324  0.16279438  0.16449471  1
  Ni  Ni2  1  0.99715810  0.99656460  0.33585452  1
  Fe  Fe3  1  0.99614672  0.33493688  -0.00169327  1
  Ni  Ni4  1  0.16075056  0.49697089  0.16336594  1
  Cr  Cr5  1  -0.00157581  0.33097184  0.33094830  1
  Ni  Ni6  1  -0.00205579  0.66143964  0.00096055  1
  Cr  Cr7  1  0.16488193  0.83451751  0.16553073  1
  Fe  Fe8  1  0.99720540  0.66444147  0.33114107  1
  Fe  Fe9  1  0.33276118  0.00018280  0.99579023  1
  Fe  Fe10  1  0.49866777  0.16709086  0.16473913  1
  Fe  Fe11  1  0.32982985  -0.00097370  0.33462515  1
  Cr  Cr12  1  0.33101704  0.33240877  0.99678550  1
  Fe  Fe13  1  0.50097573  0.49647372  0.16453469  1
  Cr  Cr14  1  0.33338772  0.33272834  0.33254278  1
  Cr  Cr15  1  0.32884957  0.66162370  -0.00151785  1
  Cr  Cr16  1  0.49671288  0.83295091  0.16222489  1
  Cr  Cr17  1  0.32831453  0.66208365  0.33030602  1
  Cr  Cr18  1  0.66583930  0.00046785  0.99432842  1
  Cr  Cr19  1  0.83284540  0.16935560  0.16370988  1
  Cr  Cr20  1  0.66806911  0.00069564  0.33387237  1
  Ni  Ni21  1  0.66351363  0.33132110  0.00092671  1
  Ni  Ni22  1  0.82956794  0.49721919  0.16396845  1
  Fe  Fe23  1  0.66613097  0.33153840  0.33072679  1
  Ni  Ni24  1  0.66610074  0.66122315  0.00032154  1
  Cr  Cr25  1  0.83197242  0.82810313  0.16562270  1
  Fe  Fe26  1  0.66620212  0.66329705  0.33057816  1
  Fe  Fe27  1  0.16394398  0.16280891  0.49898641  1
  Ni  Ni28  1  0.99717969  -0.00077830  0.66220727  1
  Fe  Fe29  1  0.16393005  0.16605245  0.82871901  1
  Fe  Fe30  1  0.16230719  0.49683000  0.49871923  1
  Fe  Fe31  1  -0.00057474  0.32959975  0.66377735  1
  Fe  Fe32  1  0.16106975  0.49748355  0.83105472  1
  Fe  Fe33  1  0.16095899  0.83367107  0.49902127  1
  Ni  Ni34  1  -0.00062938  0.66505217  0.66172430  1
  Cr  Cr35  1  0.16428895  0.83422409  0.83214788  1
  Fe  Fe36  1  0.49852141  0.16367432  0.49935746  1
  Ni  Ni37  1  0.33003663  0.00182924  0.66366488  1
  Fe  Fe38  1  0.49731775  0.16452857  0.82989670  1
  Cr  Cr39  1  0.50015736  0.49744775  0.49929227  1
  Fe  Fe40  1  0.32792095  0.32761928  0.66444524  1
  Cr  Cr41  1  0.50190781  0.49807988  0.82933952  1
  Cr  Cr42  1  0.49665271  0.83170124  0.50146353  1
  Cr  Cr43  1  0.32758744  0.66112286  0.66516722  1
  Cr  Cr44  1  0.49808639  0.83171122  0.82963493  1
  Ni  Ni45  1  0.83461855  0.16364157  0.49981628  1
  Ni  Ni46  1  0.66635670  0.00001618  0.66403907  1
  Fe  Fe47  1  0.83200139  0.16495351  0.82899649  1
  Cr  Cr48  1  0.83132424  0.49772477  0.49774898  1
  Cr  Cr49  1  0.66429848  0.32685326  0.66349930  1
  Cr  Cr50  1  0.83203096  0.49621203  0.83249919  1
  Fe  Fe51  1  0.83297910  0.83266667  0.50062155  1
  Ni  Ni52  1  0.66746587  0.66648316  0.66306729  1
  Cr  Cr53  1  0.83122638  0.82775693  0.82774098  1
" 