5013,Ni23Fe50Cr25_13,-226.775836905575, 185.352819573694,Ni23Fe50Cr25,"# generated using pymatgen
 data_Cr5Fe9Ni4
_symmetry_space_group_name_H-M   'P 1'
_cell_length_a   7.45932993
_cell_length_b   7.45932993
_cell_length_c   10.54908556
_cell_angle_alpha   90.00000000
_cell_angle_beta   90.00000000
_cell_angle_gamma   90.00000000
_symmetry_Int_Tables_number   1
_chemical_formula_structural   Cr5Fe9Ni4
_chemical_formula_sum   'Cr15 Fe27 Ni12'
_cell_volume   586.96803077
_cell_formula_units_Z   3
loop_
 _symmetry_equiv_pos_site_id
 _symmetry_equiv_pos_as_xyz
  1  'x, y, z'
loop_
 _atom_site_type_symbol
 _atom_site_label
 _atom_site_symmetry_multiplicity
 _atom_site_fract_x
 _atom_site_fract_y
 _atom_site_fract_z
 _atom_site_occupancy
  Cr  Cr0  1  0.99887171  0.99951756  0.99942765  1
  Fe  Fe1  1  0.16725429  0.16988050  0.16755434  1
  Fe  Fe2  1  0.99860824  0.99969959  0.33576647  1
  Fe  Fe3  1  0.99930022  0.33232290  0.99871091  1
  Fe  Fe4  1  0.16851241  0.49730369  0.16878927  1
  Fe  Fe5  1  0.00117936  0.33321916  0.33503982  1
  Cr  Cr6  1  0.99764115  0.66747804  0.99974380  1
  Cr  Cr7  1  0.16705594  0.83313918  0.16900128  1
  Fe  Fe8  1  0.99839821  0.66783513  0.33466048  1
  Cr  Cr9  1  0.33497296  0.00222579  0.99748095  1
  Ni  Ni10  1  0.50076196  0.16892992  0.16684090  1
  Cr  Cr11  1  0.33368071  0.00247923  0.33542341  1
  Fe  Fe12  1  0.33623276  0.33312077  0.00063971  1
  Fe  Fe13  1  0.50139385  0.49818368  0.16761884  1
  Fe  Fe14  1  0.33448066  0.33447458  0.33254636  1
  Cr  Cr15  1  0.33524302  0.66483165  1.00040061  1
  Cr  Cr16  1  0.50360995  0.83483540  0.16674187  1
  Ni  Ni17  1  0.33331160  0.66470965  0.33370392  1
  Ni  Ni18  1  0.66785732  0.00271778  0.99973972  1
  Cr  Cr19  1  0.83268058  0.16663377  0.16703848  1
  Fe  Fe20  1  0.66830665  0.00100474  0.33456132  1
  Ni  Ni21  1  0.66566260  0.33467373  0.99857964  1
  Cr  Cr22  1  0.83446077  0.49962961  0.16599562  1
  Fe  Fe23  1  0.66580658  0.33368650  0.33386220  1
  Fe  Fe24  1  0.66773986  0.66837033  0.99783152  1
  Ni  Ni25  1  0.83233145  0.83430498  0.16868323  1
  Fe  Fe26  1  0.66875911  0.66688489  0.33470431  1
  Fe  Fe27  1  0.16632384  0.16721301  0.50097210  1
  Cr  Cr28  1  0.99951831  0.99947636  0.66713321  1
  Fe  Fe29  1  0.16692219  0.16786502  0.83266143  1
  Cr  Cr30  1  0.16580467  0.50144635  0.50149182  1
  Fe  Fe31  1  0.99736518  0.33180695  0.66712217  1
  Cr  Cr32  1  0.16560324  0.49917913  0.83267125  1
  Fe  Fe33  1  0.16585175  0.83263524  0.50028036  1
  Fe  Fe34  1  0.99745776  0.66756569  0.66764096  1
  Fe  Fe35  1  0.16801663  0.83331632  0.83181426  1
  Fe  Fe36  1  0.50347289  0.16803739  0.50065030  1
  Ni  Ni37  1  0.33442806  0.00112173  0.66794452  1
  Fe  Fe38  1  0.50493125  0.16794410  0.83372067  1
  Cr  Cr39  1  0.50221426  0.50218801  0.50097934  1
  Cr  Cr40  1  0.33773615  0.33280309  0.66760075  1
  Ni  Ni41  1  0.50242936  0.50253464  0.83413303  1
  Cr  Cr42  1  0.49948903  0.83565152  0.50161479  1
  Fe  Fe43  1  0.33473999  0.67015801  0.66898085  1
  Ni  Ni44  1  0.50121940  0.83603982  0.83239743  1
  Fe  Fe45  1  0.83194577  0.16827468  0.50071748  1
  Ni  Ni46  1  0.66736519  0.00195939  0.66739479  1
  Ni  Ni47  1  0.83346362  0.16781670  0.83390536  1
  Ni  Ni48  1  0.83473290  0.49832737  0.50247129  1
  Fe  Fe49  1  0.66940498  0.33236887  0.66882661  1
  Ni  Ni50  1  0.83278844  0.49726788  0.83195493  1
  Fe  Fe51  1  0.83348353  0.83161228  0.49936624  1
  Fe  Fe52  1  0.66847801  0.66789093  0.66888875  1
  Fe  Fe53  1  0.82863478  0.83334191  0.83351380  1
" 