7697,Ni23Fe43Cr33_16,-225.085491563332, 182.123252430845,Ni23Fe43Cr33,"# generated using pymatgen
 data_Cr19Fe23Ni12
_symmetry_space_group_name_H-M   'P 1'
_cell_length_a   7.48440707
_cell_length_b   7.48440707
_cell_length_c   10.58454998
_cell_angle_alpha   90.00000000
_cell_angle_beta   90.00000000
_cell_angle_gamma   90.00000000
_symmetry_Int_Tables_number   1
_chemical_formula_structural   Cr19Fe23Ni12
_chemical_formula_sum   'Cr19 Fe23 Ni12'
_cell_volume   592.90784789
_cell_formula_units_Z   1
loop_
 _symmetry_equiv_pos_site_id
 _symmetry_equiv_pos_as_xyz
  1  'x, y, z'
loop_
 _atom_site_type_symbol
 _atom_site_label
 _atom_site_symmetry_multiplicity
 _atom_site_fract_x
 _atom_site_fract_y
 _atom_site_fract_z
 _atom_site_occupancy
  Fe  Fe0  1  -0.00115086  0.00139629  0.99691915  1
  Fe  Fe1  1  0.16761589  0.16438637  0.16388728  1
  Fe  Fe2  1  0.99764943  -0.00061255  0.33315819  1
  Fe  Fe3  1  0.00017461  0.32907098  0.99802827  1
  Cr  Cr4  1  0.16661373  0.49791675  0.16567196  1
  Cr  Cr5  1  0.99790067  0.33265158  0.33195255  1
  Cr  Cr6  1  0.99771220  0.66322528  0.99674736  1
  Cr  Cr7  1  0.16714515  0.83317696  0.16698052  1
  Ni  Ni8  1  0.99862509  0.66421323  0.33178891  1
  Ni  Ni9  1  0.33493835  0.00240292  -0.00042139  1
  Fe  Fe10  1  0.49787229  0.16550928  0.16325363  1
  Cr  Cr11  1  0.33359141  -0.00059271  0.33047976  1
  Fe  Fe12  1  0.33351752  0.33072981  0.99684785  1
  Fe  Fe13  1  0.50092891  0.49938869  0.16524074  1
  Fe  Fe14  1  0.33522728  0.33388744  0.33095265  1
  Fe  Fe15  1  0.33563678  0.66528178  0.99836898  1
  Ni  Ni16  1  0.49864356  0.83117602  0.16350109  1
  Fe  Fe17  1  0.33582624  0.66427052  0.33215920  1
  Ni  Ni18  1  0.66227445  0.00004388  0.99730799  1
  Cr  Cr19  1  0.83111355  0.16696837  0.16513753  1
  Cr  Cr20  1  0.66325823  -0.00054847  0.33380895  1
  Fe  Fe21  1  0.66282849  0.33090067  0.99878177  1
  Fe  Fe22  1  0.82903552  0.49980713  0.16633683  1
  Ni  Ni23  1  0.66353545  0.33486678  0.33189423  1
  Fe  Fe24  1  0.66192969  0.66628594  -0.00080902  1
  Cr  Cr25  1  0.83062973  0.83165015  0.16531144  1
  Fe  Fe26  1  0.66322582  0.66371888  0.33159933  1
  Cr  Cr27  1  0.16343566  0.16536847  0.49938650  1
  Ni  Ni28  1  0.99694376  0.00246278  0.66662208  1
  Fe  Fe29  1  0.16726598  0.16741788  0.83203931  1
  Cr  Cr30  1  0.16792052  0.49964897  0.49999196  1
  Fe  Fe31  1  0.99795904  0.32847617  0.66677892  1
  Ni  Ni32  1  0.16785657  0.49581402  0.83165540  1
  Cr  Cr33  1  0.16722425  0.83141048  0.49766763  1
  Cr  Cr34  1  0.00026533  0.66458123  0.66724930  1
  Cr  Cr35  1  0.16625006  0.83265743  0.83186218  1
  Cr  Cr36  1  0.50206645  0.16651919  0.50069087  1
  Fe  Fe37  1  0.33365973  -0.00083827  0.66647320  1
  Ni  Ni38  1  0.50016564  0.16674856  0.83289855  1
  Fe  Fe39  1  0.49897247  0.49934586  0.49842433  1
  Fe  Fe40  1  0.33322383  0.33225020  0.66878938  1
  Ni  Ni41  1  0.49626472  0.49535493  0.83271441  1
  Ni  Ni42  1  0.49801121  0.83057372  0.49968045  1
  Fe  Fe43  1  0.33402988  0.66496064  0.66608427  1
  Cr  Cr44  1  0.49919484  0.83421368  0.83297643  1
  Ni  Ni45  1  0.83091608  0.16601844  0.50139818  1
  Ni  Ni46  1  0.66569964  0.00186789  0.66621850  1
  Fe  Fe47  1  0.83076578  0.16379159  0.83135713  1
  Cr  Cr48  1  0.83060232  0.49519698  0.49589687  1
  Fe  Fe49  1  0.66538998  0.32898312  0.66617297  1
  Cr  Cr50  1  0.83159591  0.49575958  0.83417129  1
  Cr  Cr51  1  0.83174835  0.83523760  0.49764277  1
  Cr  Cr52  1  0.66314233  0.66638675  0.66523194  1
  Fe  Fe53  1  0.83050621  0.83599591  0.83241512  1
" 