5094,Ni23Fe77_11,-243.182922533298, 210.824883152911,Ni23Fe77,"# generated using pymatgen
 data_Fe2Ni7
_symmetry_space_group_name_H-M   'P 1'
_cell_length_a   7.42195460
_cell_length_b   7.42195460
_cell_length_c   10.49622886
_cell_angle_alpha   90.00000000
_cell_angle_beta   90.00000000
_cell_angle_gamma   90.00000000
_symmetry_Int_Tables_number   1
_chemical_formula_structural   Fe2Ni7
_chemical_formula_sum   'Fe12 Ni42'
_cell_volume   578.18907140
_cell_formula_units_Z   6
loop_
 _symmetry_equiv_pos_site_id
 _symmetry_equiv_pos_as_xyz
  1  'x, y, z'
loop_
 _atom_site_type_symbol
 _atom_site_label
 _atom_site_symmetry_multiplicity
 _atom_site_fract_x
 _atom_site_fract_y
 _atom_site_fract_z
 _atom_site_occupancy
  Fe  Fe0  1  1.00273768  0.00471705  1.00274035  1
  Ni  Ni1  1  0.17009930  0.17076473  0.16960349  1
  Ni  Ni2  1  1.00300819  1.00210131  0.33609153  1
  Ni  Ni3  1  0.00316737  0.33776640  0.00309836  1
  Ni  Ni4  1  0.16952868  0.50128145  0.17028004  1
  Ni  Ni5  1  0.00333605  0.33770530  0.33627787  1
  Fe  Fe6  1  1.00274024  0.66899634  0.00333605  1
  Fe  Fe7  1  0.17019038  0.83630406  0.17059801  1
  Ni  Ni8  1  1.00215464  0.66930728  0.33643934  1
  Ni  Ni9  1  0.33770902  1.00298776  1.00242093  1
  Ni  Ni10  1  0.50197387  0.16931653  0.16978582  1
  Ni  Ni11  1  0.33691431  0.00322126  0.33655180  1
  Ni  Ni12  1  0.33622209  0.33632645  1.00279419  1
  Ni  Ni13  1  0.50282830  0.50300646  0.16960825  1
  Ni  Ni14  1  0.33627661  0.33627428  0.33591484  1
  Fe  Fe15  1  0.33738626  0.66868370  1.00243452  1
  Ni  Ni16  1  0.50455287  0.83678782  0.16967562  1
  Fe  Fe17  1  0.33673594  0.66946591  0.33708628  1
  Ni  Ni18  1  0.66863944  1.00259104  0.00337139  1
  Fe  Fe19  1  0.83558864  0.17048853  0.16981891  1
  Ni  Ni20  1  0.66919044  1.00203848  0.33594447  1
  Ni  Ni21  1  0.66972114  0.33632523  1.00288437  1
  Ni  Ni22  1  0.83675684  0.50386112  0.16949280  1
  Ni  Ni23  1  0.66949868  0.33713328  0.33608845  1
  Fe  Fe24  1  0.66898858  0.66953004  0.00381763  1
  Ni  Ni25  1  0.83530944  0.83621879  0.17033800  1
  Ni  Ni26  1  0.67062214  0.66994418  0.33624837  1
  Ni  Ni27  1  0.16879187  0.17000788  0.50335052  1
  Ni  Ni28  1  1.00234289  1.00240717  0.67025325  1
  Ni  Ni29  1  0.16934490  0.17092101  0.83615942  1
  Ni  Ni30  1  0.16988314  0.50213486  0.50270423  1
  Ni  Ni31  1  0.00352360  0.33751251  0.66973887  1
  Ni  Ni32  1  0.17043249  0.50158604  0.83613142  1
  Ni  Ni33  1  0.16957301  0.83697059  0.50307762  1
  Ni  Ni34  1  0.00319553  0.66919245  0.66985308  1
  Fe  Fe35  1  0.17042501  0.83696263  0.83517577  1
  Fe  Fe36  1  0.50286063  0.16946729  0.50273729  1
  Ni  Ni37  1  0.33733604  1.00267536  0.67013789  1
  Ni  Ni38  1  0.50258575  0.16943115  0.83607552  1
  Ni  Ni39  1  0.50264087  0.50386205  0.50264353  1
  Ni  Ni40  1  0.33588150  0.33697447  0.67040299  1
  Ni  Ni41  1  0.50173160  0.50331031  0.83686091  1
  Ni  Ni42  1  0.50358798  0.83588022  0.50297576  1
  Ni  Ni43  1  0.33593904  0.66946417  0.66973665  1
  Ni  Ni44  1  0.50431416  0.83636905  0.83646245  1
  Ni  Ni45  1  0.83768217  0.16906151  0.50236142  1
  Ni  Ni46  1  0.66943693  1.00234694  0.66979663  1
  Ni  Ni47  1  0.83718321  0.16834061  0.83707618  1
  Ni  Ni48  1  0.83658846  0.50308073  0.50343224  1
  Fe  Fe49  1  0.66970467  0.33594769  0.66977060  1
  Fe  Fe50  1  0.83643039  0.50208113  0.83655774  1
  Ni  Ni51  1  0.83595241  0.83697042  0.50294586  1
  Fe  Fe52  1  0.66933872  0.67048212  0.66905123  1
  Ni  Ni53  1  0.83545778  0.83745673  0.83583109  1
" 