135,Ni23Fe77_16,-243.260914623363, 213.829169456111,Ni23Fe77,"# generated using pymatgen
 data_Fe2Ni7
_symmetry_space_group_name_H-M   'P 1'
_cell_length_a   7.42121873
_cell_length_b   7.42121873
_cell_length_c   10.49518818
_cell_angle_alpha   90.00000000
_cell_angle_beta   90.00000000
_cell_angle_gamma   90.00000000
_symmetry_Int_Tables_number   1
_chemical_formula_structural   Fe2Ni7
_chemical_formula_sum   'Fe12 Ni42'
_cell_volume   578.01711002
_cell_formula_units_Z   6
loop_
 _symmetry_equiv_pos_site_id
 _symmetry_equiv_pos_as_xyz
  1  'x, y, z'
loop_
 _atom_site_type_symbol
 _atom_site_label
 _atom_site_symmetry_multiplicity
 _atom_site_fract_x
 _atom_site_fract_y
 _atom_site_fract_z
 _atom_site_occupancy
  Fe  Fe0  1  1.00211709  0.00357425  0.00357166  1
  Ni  Ni1  1  0.16975112  0.17012186  0.17003109  1
  Ni  Ni2  1  1.00256404  0.00323828  0.33605723  1
  Ni  Ni3  1  0.00407568  0.33716542  1.00307876  1
  Ni  Ni4  1  0.17024007  0.50284400  0.17000146  1
  Ni  Ni5  1  0.00401389  0.33654840  0.33567811  1
  Ni  Ni6  1  1.00263160  0.66922542  0.00353042  1
  Ni  Ni7  1  0.17054682  0.83629667  0.17043906  1
  Ni  Ni8  1  1.00256705  0.66947651  0.33591712  1
  Fe  Fe9  1  0.33641831  0.00356822  1.00295963  1
  Fe  Fe10  1  0.50296073  0.16975207  0.16962861  1
  Ni  Ni11  1  0.33710323  0.00351110  0.33580256  1
  Ni  Ni12  1  0.33539946  0.33571787  1.00284141  1
  Ni  Ni13  1  0.50271980  0.50370414  0.17030530  1
  Ni  Ni14  1  0.33531269  0.33593206  0.33629767  1
  Fe  Fe15  1  0.33648672  0.66878132  0.00363472  1
  Ni  Ni16  1  0.50278203  0.83580698  0.16990807  1
  Ni  Ni17  1  0.33648613  0.66981991  0.33574667  1
  Ni  Ni18  1  0.66947757  1.00256455  0.00314952  1
  Ni  Ni19  1  0.83679482  0.17005956  0.16999792  1
  Ni  Ni20  1  0.66959379  1.00206544  0.33614732  1
  Ni  Ni21  1  0.66978767  0.33572096  0.00336536  1
  Ni  Ni22  1  0.83630414  0.50290819  0.16996627  1
  Fe  Fe23  1  0.67023886  0.33642212  0.33654783  1
  Ni  Ni24  1  0.67092613  0.67097742  1.00290295  1
  Ni  Ni25  1  0.83593400  0.83629677  0.17040486  1
  Ni  Ni26  1  0.67021013  0.67126992  0.33608700  1
  Fe  Fe27  1  0.16957080  0.16957201  0.50271972  1
  Fe  Fe28  1  1.00273103  1.00302238  0.66981511  1
  Ni  Ni29  1  0.17088533  0.17027748  0.83561666  1
  Fe  Fe30  1  0.16927215  0.50302497  0.50315242  1
  Ni  Ni31  1  0.00339916  0.33704291  0.67050438  1
  Ni  Ni32  1  0.16968587  0.50320866  0.83623573  1
  Fe  Fe33  1  0.16957290  0.83666601  0.50290850  1
  Ni  Ni34  1  1.00277880  0.66907182  0.66981593  1
  Ni  Ni35  1  0.17002599  0.83577597  0.83589864  1
  Ni  Ni36  1  0.50274968  0.16903898  0.50253251  1
  Ni  Ni37  1  0.33744578  0.00349534  0.66999934  1
  Ni  Ni38  1  0.50281459  0.16990894  0.83635639  1
  Fe  Fe39  1  0.50430332  0.50333125  0.50284566  1
  Ni  Ni40  1  0.33565915  0.33552838  0.67012157  1
  Fe  Fe41  1  0.50320402  0.50229660  0.83672790  1
  Ni  Ni42  1  0.50277670  0.83703909  0.50355026  1
  Ni  Ni43  1  0.33593171  0.67023961  0.67030876  1
  Fe  Fe44  1  0.50350886  0.83703468  0.83587359  1
  Ni  Ni45  1  0.83577160  0.17020877  0.50364444  1
  Ni  Ni46  1  0.66903790  1.00287562  0.66996470  1
  Ni  Ni47  1  0.83556189  0.17025080  0.83562329  1
  Ni  Ni48  1  0.83694360  0.50318123  0.50305720  1
  Ni  Ni49  1  0.67020490  0.33552837  0.67008959  1
  Ni  Ni50  1  0.83676494  0.50323475  0.83624140  1
  Ni  Ni51  1  0.83573917  0.83587365  0.50299661  1
  Ni  Ni52  1  0.67055371  0.67085955  0.67027495  1
  Ni  Ni53  1  0.83639831  0.83577816  0.83586152  1
" 