1993,Ni23Fe35Cr40_10,-222.850894730209, 183.49935366045,Ni23Fe35Cr40,"# generated using pymatgen
 data_Cr23Fe19Ni12
_symmetry_space_group_name_H-M   'P 1'
_cell_length_a   7.49412441
_cell_length_b   7.49412441
_cell_length_c   10.59829238
_cell_angle_alpha   90.00000000
_cell_angle_beta   90.00000000
_cell_angle_gamma   90.00000000
_symmetry_Int_Tables_number   1
_chemical_formula_structural   Cr23Fe19Ni12
_chemical_formula_sum   'Cr23 Fe19 Ni12'
_cell_volume   595.22024352
_cell_formula_units_Z   1
loop_
 _symmetry_equiv_pos_site_id
 _symmetry_equiv_pos_as_xyz
  1  'x, y, z'
loop_
 _atom_site_type_symbol
 _atom_site_label
 _atom_site_symmetry_multiplicity
 _atom_site_fract_x
 _atom_site_fract_y
 _atom_site_fract_z
 _atom_site_occupancy
  Ni  Ni0  1  0.99660716  0.99669165  -0.00090272  1
  Cr  Cr1  1  0.15942268  0.16633495  0.16587856  1
  Fe  Fe2  1  0.99700738  -0.00151098  0.33071536  1
  Fe  Fe3  1  0.99720396  0.33053739  -0.00168074  1
  Fe  Fe4  1  0.16534676  0.49791348  0.16629245  1
  Ni  Ni5  1  0.99782333  0.33368965  0.32905505  1
  Fe  Fe6  1  0.99563399  0.66512256  0.99779083  1
  Cr  Cr7  1  0.16493371  0.82926330  0.16552736  1
  Fe  Fe8  1  -0.00129493  0.66393571  0.33181168  1
  Cr  Cr9  1  0.33031796  -0.00064786  0.99669927  1
  Cr  Cr10  1  0.50112507  0.16631374  0.16693752  1
  Cr  Cr11  1  0.33138860  -0.00156023  0.33234127  1
  Cr  Cr12  1  0.33026803  0.33150263  0.99751798  1
  Ni  Ni13  1  0.49761832  0.50187793  0.16669392  1
  Ni  Ni14  1  0.33152441  0.33416585  0.33104597  1
  Fe  Fe15  1  0.33261630  0.66481914  0.00024587  1
  Ni  Ni16  1  0.49867212  0.82569532  0.16415675  1
  Fe  Fe17  1  0.33195716  0.66261726  0.33131156  1
  Cr  Cr18  1  0.66664409  0.99544739  -0.00125566  1
  Ni  Ni19  1  0.83426173  0.16589677  0.16636756  1
  Cr  Cr20  1  0.66569832  0.99722587  0.33057155  1
  Cr  Cr21  1  0.66555918  0.33431153  -0.00041249  1
  Fe  Fe22  1  0.83189675  0.49746217  0.16471757  1
  Fe  Fe23  1  0.66472547  0.33257487  0.33078589  1
  Fe  Fe24  1  0.66632404  0.66532906  -0.00063171  1
  Fe  Fe25  1  0.83116993  0.83189406  0.16337957  1
  Cr  Cr26  1  0.66595726  0.66391405  0.33083887  1
  Cr  Cr27  1  0.16349037  0.16491350  0.49763047  1
  Cr  Cr28  1  -0.00025013  0.99727579  0.66513022  1
  Ni  Ni29  1  0.16323506  0.16483919  0.83094382  1
  Cr  Cr30  1  0.16557594  0.49962228  0.49721146  1
  Ni  Ni31  1  0.99745519  0.33234093  0.66743566  1
  Cr  Cr32  1  0.16333281  0.49727797  0.83203505  1
  Fe  Fe33  1  0.16607460  0.83113791  0.49834732  1
  Cr  Cr34  1  0.99597331  0.66386719  0.66412291  1
  Cr  Cr35  1  0.16560857  0.83220885  0.83097980  1
  Fe  Fe36  1  0.49729986  0.16497951  0.49802578  1
  Ni  Ni37  1  0.33338330  0.99779647  0.66490151  1
  Fe  Fe38  1  0.49694567  0.16337719  0.83012007  1
  Fe  Fe39  1  0.49746454  0.49789303  0.49661966  1
  Cr  Cr40  1  0.33095374  0.32860378  0.66665237  1
  Cr  Cr41  1  0.49858691  0.50081643  0.83186958  1
  Fe  Fe42  1  0.49622030  0.83173125  0.49967133  1
  Ni  Ni43  1  0.33280451  0.66807768  0.66209087  1
  Cr  Cr44  1  0.49863711  0.83101951  0.83116049  1
  Cr  Cr45  1  0.83128389  0.16602684  0.49675792  1
  Fe  Fe46  1  0.66280946  0.99727183  0.66451029  1
  Cr  Cr47  1  0.83383469  0.16506185  0.83105210  1
  Fe  Fe48  1  0.83257247  0.49718641  0.49758256  1
  Cr  Cr49  1  0.66551885  0.33246693  0.66386964  1
  Ni  Ni50  1  0.83276161  0.49860208  0.83195812  1
  Fe  Fe51  1  0.83240123  0.83103510  0.49805653  1
  Cr  Cr52  1  0.66720417  0.66532024  0.66472493  1
  Ni  Ni53  1  0.83086027  0.83088008  0.83318754  1
" 