484,Ni23Fe74Cr2_13,-232.109127390681, 184.593221274084,Ni23Fe74Cr2,"# generated using pymatgen
 data_Cr(Fe10Ni3)2
_symmetry_space_group_name_H-M   'P 1'
_cell_length_a   7.40354278
_cell_length_b   7.40354278
_cell_length_c   10.47019061
_cell_angle_alpha   90.00000000
_cell_angle_beta   90.00000000
_cell_angle_gamma   90.00000000
_symmetry_Int_Tables_number   1
_chemical_formula_structural   Cr(Fe10Ni3)2
_chemical_formula_sum   'Cr2 Fe40 Ni12'
_cell_volume   573.89675507
_cell_formula_units_Z   2
loop_
 _symmetry_equiv_pos_site_id
 _symmetry_equiv_pos_as_xyz
  1  'x, y, z'
loop_
 _atom_site_type_symbol
 _atom_site_label
 _atom_site_symmetry_multiplicity
 _atom_site_fract_x
 _atom_site_fract_y
 _atom_site_fract_z
 _atom_site_occupancy
  Fe  Fe0  1  1.00242052  1.00407648  0.00497716  1
  Fe  Fe1  1  0.16974658  0.17157390  0.17265060  1
  Ni  Ni2  1  0.00472348  0.00431578  0.33734603  1
  Fe  Fe3  1  1.00412227  0.33620472  1.00365815  1
  Fe  Fe4  1  0.17116183  0.50424896  0.17105687  1
  Fe  Fe5  1  1.00354965  0.33745148  0.33863012  1
  Fe  Fe6  1  1.00399207  0.67253045  1.00426529  1
  Ni  Ni7  1  0.17001043  0.83672827  0.17133240  1
  Fe  Fe8  1  0.00445462  0.67115068  0.33748042  1
  Cr  Cr9  1  0.33788176  1.00373275  0.00599801  1
  Fe  Fe10  1  0.50501325  0.17155402  0.17278145  1
  Fe  Fe11  1  0.33804440  1.00385339  0.33779822  1
  Fe  Fe12  1  0.33842955  0.33843053  0.00508660  1
  Fe  Fe13  1  0.50358487  0.50470829  0.17204610  1
  Ni  Ni14  1  0.33724014  0.33726943  0.33797153  1
  Fe  Fe15  1  0.33834945  0.66996452  0.00483182  1
  Fe  Fe16  1  0.50551910  0.83634677  0.17219872  1
  Fe  Fe17  1  0.33754403  0.67132943  0.33716718  1
  Ni  Ni18  1  0.67095670  1.00375956  0.00459406  1
  Fe  Fe19  1  0.83817861  0.16984357  0.17163678  1
  Fe  Fe20  1  0.67093220  0.00472430  0.33716604  1
  Fe  Fe21  1  0.67044974  0.33635329  1.00375055  1
  Fe  Fe22  1  0.83801835  0.50503779  0.17108305  1
  Fe  Fe23  1  0.67095023  0.33718179  0.33877333  1
  Fe  Fe24  1  0.67055434  0.67210212  0.00495569  1
  Fe  Fe25  1  0.83794759  0.83785077  0.17082786  1
  Ni  Ni26  1  0.67145037  0.67106955  0.33784269  1
  Ni  Ni27  1  0.17183894  0.17035553  0.50262250  1
  Fe  Fe28  1  0.00436865  1.00394370  0.67006674  1
  Ni  Ni29  1  0.17200271  0.17132308  0.83784050  1
  Fe  Fe30  1  0.17234167  0.50352327  0.50286085  1
  Cr  Cr31  1  1.00356679  0.33705425  0.66909398  1
  Fe  Fe32  1  0.17101134  0.50529796  0.83874404  1
  Fe  Fe33  1  0.17092412  0.83981953  0.50340193  1
  Fe  Fe34  1  1.00382178  0.67288169  0.67113108  1
  Fe  Fe35  1  0.16970601  0.83794263  0.83710106  1
  Ni  Ni36  1  0.50454054  0.17139068  0.50468163  1
  Ni  Ni37  1  0.33686100  1.00363380  0.67023670  1
  Fe  Fe38  1  0.50554433  0.17044103  0.83589422  1
  Fe  Fe39  1  0.50461895  0.50269684  0.50346832  1
  Fe  Fe40  1  0.33898844  0.33581990  0.67005830  1
  Fe  Fe41  1  0.50463277  0.50415193  0.83746460  1
  Fe  Fe42  1  0.50466432  0.83949248  0.50416828  1
  Fe  Fe43  1  0.33789667  0.67012955  0.67081998  1
  Fe  Fe44  1  0.50506531  0.83798647  0.83657675  1
  Ni  Ni45  1  0.83641232  0.16988827  0.50374571  1
  Fe  Fe46  1  0.67109408  0.00577408  0.67159302  1
  Fe  Fe47  1  0.83699207  0.16929178  0.83779632  1
  Fe  Fe48  1  0.83572816  0.50382746  0.50297708  1
  Ni  Ni49  1  0.67120343  0.33895728  0.67087744  1
  Fe  Fe50  1  0.83705188  0.50478563  0.83838385  1
  Fe  Fe51  1  0.83742506  0.83960805  0.50401743  1
  Fe  Fe52  1  0.67104161  0.67118843  0.67020036  1
  Ni  Ni53  1  0.83702680  0.83699804  0.83786649  1
" 