6761,Ni23Fe77_12,-243.278549076692, 212.340665586334,Ni23Fe77,"# generated using pymatgen
 data_Fe2Ni7
_symmetry_space_group_name_H-M   'P 1'
_cell_length_a   7.42125313
_cell_length_b   7.42125313
_cell_length_c   10.49523683
_cell_angle_alpha   90.00000000
_cell_angle_beta   90.00000000
_cell_angle_gamma   90.00000000
_symmetry_Int_Tables_number   1
_chemical_formula_structural   Fe2Ni7
_chemical_formula_sum   'Fe12 Ni42'
_cell_volume   578.02514757
_cell_formula_units_Z   6
loop_
 _symmetry_equiv_pos_site_id
 _symmetry_equiv_pos_as_xyz
  1  'x, y, z'
loop_
 _atom_site_type_symbol
 _atom_site_label
 _atom_site_symmetry_multiplicity
 _atom_site_fract_x
 _atom_site_fract_y
 _atom_site_fract_z
 _atom_site_occupancy
  Fe  Fe0  1  0.00342644  0.00354657  1.00308336  1
  Ni  Ni1  1  0.16818789  0.16878040  0.16915807  1
  Ni  Ni2  1  0.00394095  0.00346799  0.33621447  1
  Ni  Ni3  1  1.00243009  0.33665485  1.00278825  1
  Fe  Fe4  1  0.16939580  0.50337828  0.16946110  1
  Ni  Ni5  1  1.00142435  0.33595198  0.33704309  1
  Ni  Ni6  1  0.00308963  0.66934389  1.00294643  1
  Ni  Ni7  1  0.17069569  0.83712178  0.16998490  1
  Ni  Ni8  1  1.00281127  0.66983596  0.33717937  1
  Ni  Ni9  1  0.33691541  1.00257336  1.00239439  1
  Fe  Fe10  1  0.50308403  0.16969003  0.16923001  1
  Ni  Ni11  1  0.33582849  1.00202336  0.33701303  1
  Ni  Ni12  1  0.33645330  0.33592109  1.00293849  1
  Ni  Ni13  1  0.50415094  0.50474355  0.16965415  1
  Fe  Fe14  1  0.33588870  0.33688545  0.33694001  1
  Ni  Ni15  1  0.33647902  0.67076166  1.00305644  1
  Ni  Ni16  1  0.50220795  0.83494324  0.16942487  1
  Ni  Ni17  1  0.33698024  0.67125988  0.33641990  1
  Ni  Ni18  1  0.66895437  0.00323171  0.00312521  1
  Ni  Ni19  1  0.83774177  0.17072348  0.17004762  1
  Fe  Fe20  1  0.67027874  1.00249543  0.33647270  1
  Ni  Ni21  1  0.67037240  0.33621809  1.00278871  1
  Ni  Ni22  1  0.83556368  0.50223570  0.16954417  1
  Ni  Ni23  1  0.67090889  0.33710344  0.33651783  1
  Ni  Ni24  1  0.66968769  0.66980586  1.00290484  1
  Fe  Fe25  1  0.83647811  0.83589105  0.17021999  1
  Ni  Ni26  1  0.66946449  0.66874298  0.33665682  1
  Ni  Ni27  1  0.16894579  0.17013304  0.50347616  1
  Ni  Ni28  1  0.00364709  0.00370529  0.66995690  1
  Ni  Ni29  1  0.16872683  0.16966813  0.83662085  1
  Ni  Ni30  1  0.16957582  0.50260956  0.50228478  1
  Ni  Ni31  1  1.00200077  0.33550677  0.66942622  1
  Ni  Ni32  1  0.17011759  0.50331220  0.83747775  1
  Fe  Fe33  1  0.16992400  0.83665282  0.50279392  1
  Fe  Fe34  1  0.00425003  0.66911021  0.66958135  1
  Ni  Ni35  1  0.17043870  0.83627494  0.83621478  1
  Ni  Ni36  1  0.50297341  0.16940092  0.50267349  1
  Ni  Ni37  1  0.33585977  1.00229733  0.66984820  1
  Ni  Ni38  1  0.50357898  0.16966425  0.83718260  1
  Ni  Ni39  1  0.50300300  0.50400092  0.50308261  1
  Ni  Ni40  1  0.33691617  0.33632715  0.66931651  1
  Ni  Ni41  1  0.50278337  0.50391064  0.83651730  1
  Ni  Ni42  1  0.50341157  0.83585505  0.50305565  1
  Ni  Ni43  1  0.33694480  0.67063197  0.66977926  1
  Ni  Ni44  1  0.50246417  0.83568201  0.83677509  1
  Ni  Ni45  1  0.83733626  0.16972316  0.50278721  1
  Fe  Fe46  1  0.66917472  0.00418794  0.67004798  1
  Ni  Ni47  1  0.83694997  0.16998607  0.83642237  1
  Ni  Ni48  1  0.83667698  0.50304759  0.50323635  1
  Ni  Ni49  1  0.67033895  0.33659324  0.66995101  1
  Fe  Fe50  1  0.83647868  0.50221889  0.83700428  1
  Ni  Ni51  1  0.83594637  0.83648429  0.50237044  1
  Fe  Fe52  1  0.66882700  0.66941173  0.66916582  1
  Fe  Fe53  1  0.83647832  0.83688224  0.83635238  1
" 