5288,Ni23Fe50Cr25_11,-227.121301925991, 182.622874834245,Ni23Fe50Cr25,"# generated using pymatgen
 data_Cr5Fe9Ni4
_symmetry_space_group_name_H-M   'P 1'
_cell_length_a   7.46392476
_cell_length_b   7.46392476
_cell_length_c   10.55558362
_cell_angle_alpha   90.00000000
_cell_angle_beta   90.00000000
_cell_angle_gamma   90.00000000
_symmetry_Int_Tables_number   1
_chemical_formula_structural   Cr5Fe9Ni4
_chemical_formula_sum   'Cr15 Fe27 Ni12'
_cell_volume   588.05338808
_cell_formula_units_Z   3
loop_
 _symmetry_equiv_pos_site_id
 _symmetry_equiv_pos_as_xyz
  1  'x, y, z'
loop_
 _atom_site_type_symbol
 _atom_site_label
 _atom_site_symmetry_multiplicity
 _atom_site_fract_x
 _atom_site_fract_y
 _atom_site_fract_z
 _atom_site_occupancy
  Ni  Ni0  1  0.00040961  0.99910221  0.00197879  1
  Fe  Fe1  1  0.16509883  0.16510066  0.16885637  1
  Fe  Fe2  1  0.00035212  0.00124627  0.33472738  1
  Fe  Fe3  1  0.99739173  0.33456483  0.99897334  1
  Cr  Cr4  1  0.16708491  0.49884759  0.16856235  1
  Fe  Fe5  1  0.00063442  0.33014287  0.33471006  1
  Fe  Fe6  1  0.99954354  0.66786497  0.00085923  1
  Fe  Fe7  1  0.16509103  0.83638140  0.16802118  1
  Cr  Cr8  1  0.99799469  0.66848619  0.33452944  1
  Cr  Cr9  1  0.33238767  0.99859818  0.99951673  1
  Cr  Cr10  1  0.49839340  0.16553755  0.16747575  1
  Ni  Ni11  1  0.33269302  0.99895355  0.33395136  1
  Cr  Cr12  1  0.33590202  0.33392660  0.99976844  1
  Fe  Fe13  1  0.50385351  0.50173485  0.16804806  1
  Fe  Fe14  1  0.33268374  0.32956882  0.33458262  1
  Cr  Cr15  1  0.33523166  0.66803176  0.99943112  1
  Fe  Fe16  1  0.50176279  0.83111798  0.16893506  1
  Fe  Fe17  1  0.33533070  0.67050682  0.33223203  1
  Cr  Cr18  1  0.66590738  0.99928839  0.99940435  1
  Cr  Cr19  1  0.83473437  0.16580711  0.16537706  1
  Fe  Fe20  1  0.66612677  0.99811169  0.33573331  1
  Fe  Fe21  1  0.66842283  0.33518377  0.99783893  1
  Ni  Ni22  1  0.83371771  0.50258161  0.16394761  1
  Cr  Cr23  1  0.66921749  0.33354301  0.33476796  1
  Ni  Ni24  1  0.66825190  0.66401630  0.00211517  1
  Fe  Fe25  1  0.83336510  0.83202822  0.16648292  1
  Fe  Fe26  1  0.66574116  0.67070068  0.33147779  1
  Ni  Ni27  1  0.16871760  0.16496136  0.49726910  1
  Fe  Fe28  1  0.99971327  0.00134970  0.66576318  1
  Cr  Cr29  1  0.16649111  0.16666271  0.83489523  1
  Cr  Cr30  1  0.16969471  0.50009140  0.50034621  1
  Cr  Cr31  1  0.99786089  0.33153981  0.66479808  1
  Fe  Fe32  1  0.16615689  0.50067508  0.83142924  1
  Fe  Fe33  1  0.16704448  0.83723580  0.50105830  1
  Fe  Fe34  1  0.00086328  0.66847873  0.66650023  1
  Fe  Fe35  1  0.16619776  0.83420726  0.83170152  1
  Ni  Ni36  1  0.49928184  0.16522198  0.50167471  1
  Fe  Fe37  1  0.33447002  0.00260265  0.66548938  1
  Ni  Ni38  1  0.50108429  0.16798004  0.83112361  1
  Cr  Cr39  1  0.49874577  0.50075644  0.49909227  1
  Ni  Ni40  1  0.33540227  0.33234813  0.66571020  1
  Fe  Fe41  1  0.50306830  0.49942150  0.83155942  1
  Fe  Fe42  1  0.50063376  0.83631509  0.50003156  1
  Fe  Fe43  1  0.33418467  0.66672666  0.66929476  1
  Fe  Fe44  1  0.50127466  0.83432454  0.83145082  1
  Ni  Ni45  1  0.83258884  0.16205932  0.50105988  1
  Fe  Fe46  1  0.66675426  0.00321129  0.66653560  1
  Ni  Ni47  1  0.83174566  0.16642755  0.83451945  1
  Cr  Cr48  1  0.83202713  0.50229477  0.50157028  1
  Ni  Ni49  1  0.66549592  0.33157199  0.66867583  1
  Fe  Fe50  1  0.83165567  0.49799480  0.83472140  1
  Ni  Ni51  1  0.83236731  0.83607225  0.50063745  1
  Fe  Fe52  1  0.66591802  0.66648911  0.66790962  1
  Cr  Cr53  1  0.83453410  0.83330274  0.83417486  1
" 