8995,Ni23Fe50Cr25_1,-226.645370569665, 181.010104368566,Ni23Fe50Cr25,"# generated using pymatgen
 data_Cr5Fe9Ni4
_symmetry_space_group_name_H-M   'P 1'
_cell_length_a   7.46070744
_cell_length_b   7.46070744
_cell_length_c   10.55103365
_cell_angle_alpha   90.00000000
_cell_angle_beta   90.00000000
_cell_angle_gamma   90.00000000
_symmetry_Int_Tables_number   1
_chemical_formula_structural   Cr5Fe9Ni4
_chemical_formula_sum   'Cr15 Fe27 Ni12'
_cell_volume   587.29327637
_cell_formula_units_Z   3
loop_
 _symmetry_equiv_pos_site_id
 _symmetry_equiv_pos_as_xyz
  1  'x, y, z'
loop_
 _atom_site_type_symbol
 _atom_site_label
 _atom_site_symmetry_multiplicity
 _atom_site_fract_x
 _atom_site_fract_y
 _atom_site_fract_z
 _atom_site_occupancy
  Fe  Fe0  1  0.99965539  0.99799331  1.00031215  1
  Fe  Fe1  1  0.16337681  0.16563307  0.16739067  1
  Fe  Fe2  1  0.00233342  0.00128554  0.33256108  1
  Fe  Fe3  1  0.00113084  0.33379422  0.99874286  1
  Cr  Cr4  1  0.16754123  0.50223650  0.16609082  1
  Ni  Ni5  1  1.00035085  0.33067300  0.33511797  1
  Fe  Fe6  1  0.00187629  0.66946221  0.99845149  1
  Ni  Ni7  1  0.16572075  0.83413213  0.16878593  1
  Fe  Fe8  1  0.00336503  0.66731880  0.33353059  1
  Cr  Cr9  1  0.33139028  0.99888654  1.00034284  1
  Cr  Cr10  1  0.50074825  0.16682787  0.16602131  1
  Fe  Fe11  1  0.33285323  0.99884500  0.33495174  1
  Fe  Fe12  1  0.33355158  0.33537682  0.99934909  1
  Fe  Fe13  1  0.49949581  0.50481669  0.16549255  1
  Cr  Cr14  1  0.33192023  0.33394689  0.33308580  1
  Ni  Ni15  1  0.33421064  0.66796966  1.00029457  1
  Fe  Fe16  1  0.49987564  0.83035791  0.16804100  1
  Ni  Ni17  1  0.33394929  0.67143170  0.33370874  1
  Fe  Fe18  1  0.66797002  0.99871136  0.99902799  1
  Fe  Fe19  1  0.83738147  0.16488199  0.16666095  1
  Fe  Fe20  1  0.66580759  0.99964065  0.33443099  1
  Fe  Fe21  1  0.66664967  0.33361614  0.99951007  1
  Cr  Cr22  1  0.83370238  0.50150595  0.16672334  1
  Cr  Cr23  1  0.66858575  0.33286248  0.33431011  1
  Ni  Ni24  1  0.66687788  0.66781449  0.00130056  1
  Fe  Fe25  1  0.83404120  0.83513445  0.16694343  1
  Fe  Fe26  1  0.66487948  0.66915181  0.33236955  1
  Fe  Fe27  1  0.16767592  0.16706348  0.50071518  1
  Cr  Cr28  1  0.00322439  0.00226550  0.66834768  1
  Fe  Fe29  1  0.16853209  0.16880457  0.83322346  1
  Fe  Fe30  1  0.16799409  0.50029337  0.50033511  1
  Ni  Ni31  1  0.00302986  0.33337118  0.66718498  1
  Ni  Ni32  1  0.16557995  0.50090780  0.83363306  1
  Fe  Fe33  1  0.17146734  0.83399059  0.49926498  1
  Cr  Cr34  1  0.00273275  0.66531396  0.66900825  1
  Ni  Ni35  1  0.16657554  0.83254224  0.83367214  1
  Ni  Ni36  1  0.49802646  0.16365054  0.50151905  1
  Ni  Ni37  1  0.33372462  1.00007704  0.66637106  1
  Ni  Ni38  1  0.50054794  0.16612020  0.83325616  1
  Cr  Cr39  1  0.49805791  0.50083304  0.50029708  1
  Fe  Fe40  1  0.33083627  0.33107831  0.66741203  1
  Cr  Cr41  1  0.49830186  0.49878685  0.83542492  1
  Ni  Ni42  1  0.49740505  0.83705762  0.49933390  1
  Fe  Fe43  1  0.33164704  0.66924457  0.66746730  1
  Fe  Fe44  1  0.49747762  0.83391126  0.83438216  1
  Fe  Fe45  1  0.83449278  0.16659084  0.49926224  1
  Cr  Cr46  1  0.66410126  0.00070077  0.66842886  1
  Fe  Fe47  1  0.83550899  0.16845354  0.83577894  1
  Cr  Cr48  1  0.83766782  0.49985023  0.50002131  1
  Cr  Cr49  1  0.66913043  0.33215702  0.66665623  1
  Fe  Fe50  1  0.83609949  0.49949736  0.83607117  1
  Cr  Cr51  1  0.83458322  0.83439543  0.49719152  1
  Cr  Cr52  1  0.66556845  0.66835668  0.66834898  1
  Fe  Fe53  1  0.83371464  0.83332365  0.83678886  1
" 