4052,Ni23Fe43Cr33_5,-225.411470192906, 188.349457931328,Ni23Fe43Cr33,"# generated using pymatgen
 data_Cr19Fe23Ni12
_symmetry_space_group_name_H-M   'P 1'
_cell_length_a   7.48166290
_cell_length_b   7.48166290
_cell_length_c   10.58066914
_cell_angle_alpha   90.00000000
_cell_angle_beta   90.00000000
_cell_angle_gamma   90.00000000
_symmetry_Int_Tables_number   1
_chemical_formula_structural   Cr19Fe23Ni12
_chemical_formula_sum   'Cr19 Fe23 Ni12'
_cell_volume   592.25591506
_cell_formula_units_Z   1
loop_
 _symmetry_equiv_pos_site_id
 _symmetry_equiv_pos_as_xyz
  1  'x, y, z'
loop_
 _atom_site_type_symbol
 _atom_site_label
 _atom_site_symmetry_multiplicity
 _atom_site_fract_x
 _atom_site_fract_y
 _atom_site_fract_z
 _atom_site_occupancy
  Cr  Cr0  1  0.00100535  0.99900160  0.00229815  1
  Ni  Ni1  1  0.16695822  0.16497027  0.16721695  1
  Ni  Ni2  1  0.99856783  -0.00002027  0.33187515  1
  Cr  Cr3  1  0.99597168  0.32988387  0.00220155  1
  Cr  Cr4  1  0.16602877  0.49797924  0.16507255  1
  Fe  Fe5  1  0.99856936  0.33023070  0.33168221  1
  Cr  Cr6  1  0.99889837  0.66825837  -0.00070796  1
  Fe  Fe7  1  0.16601411  0.83487445  0.16767864  1
  Cr  Cr8  1  -0.00024635  0.66812281  0.33243083  1
  Ni  Ni9  1  0.33158065  0.99899793  -0.00066431  1
  Cr  Cr10  1  0.49767302  0.16490485  0.16571958  1
  Fe  Fe11  1  0.32687301  0.99821037  0.33283998  1
  Fe  Fe12  1  0.33424905  0.33092273  0.99897514  1
  Fe  Fe13  1  0.50056237  0.49875821  0.16754730  1
  Cr  Cr14  1  0.33199081  0.33330943  0.33593047  1
  Fe  Fe15  1  0.33257234  0.66799026  0.99813804  1
  Cr  Cr16  1  0.49915353  0.83326393  0.16834604  1
  Fe  Fe17  1  0.33070929  0.66666552  0.33527789  1
  Cr  Cr18  1  0.66665838  0.00049209  0.99702326  1
  Fe  Fe19  1  0.83287086  0.16540840  0.16903934  1
  Fe  Fe20  1  0.67043984  -0.00055988  0.33289137  1
  Fe  Fe21  1  0.66403501  0.33171658  0.99804605  1
  Ni  Ni22  1  0.83112527  0.49901700  0.16580700  1
  Fe  Fe23  1  0.66852749  0.33280824  0.33224742  1
  Cr  Cr24  1  0.66469204  0.66332142  0.99821955  1
  Ni  Ni25  1  0.83134759  0.83161012  0.16815756  1
  Fe  Fe26  1  0.66673048  0.66480991  0.33238518  1
  Fe  Fe27  1  0.16311211  0.16382178  0.49912794  1
  Fe  Fe28  1  -0.00091190  0.99881353  0.66273506  1
  Cr  Cr29  1  0.16848841  0.16631017  0.83101636  1
  Ni  Ni30  1  0.16487976  0.49730406  0.50100407  1
  Fe  Fe31  1  -0.00005467  0.33023319  0.66454403  1
  Cr  Cr32  1  0.16346358  0.49921025  0.83107207  1
  Ni  Ni33  1  0.16377250  0.83325115  0.49937151  1
  Fe  Fe34  1  -0.00000915  0.66842784  0.66352215  1
  Fe  Fe35  1  0.16848840  0.83476516  0.83098989  1
  Cr  Cr36  1  0.49911553  0.16342975  0.49933847  1
  Ni  Ni37  1  0.33119592  -0.00034237  0.66501138  1
  Ni  Ni38  1  0.49831965  0.16458975  0.83249553  1
  Ni  Ni39  1  0.49835823  0.49815944  0.49667690  1
  Fe  Fe40  1  0.33344668  0.33095587  0.66360384  1
  Fe  Fe41  1  0.49733216  0.49669222  0.83271006  1
  Cr  Cr42  1  0.50185737  0.83483712  0.49685096  1
  Cr  Cr43  1  0.33215068  0.66560189  0.66308411  1
  Fe  Fe44  1  0.49543942  0.83579099  0.83142370  1
  Fe  Fe45  1  0.83424503  0.16367486  0.49876505  1
  Ni  Ni46  1  0.66582618  0.00067258  0.66593447  1
  Fe  Fe47  1  0.83265023  0.16625207  0.83095531  1
  Cr  Cr48  1  0.83473306  0.50001353  0.49942770  1
  Cr  Cr49  1  0.66462317  0.33140710  0.66717958  1
  Fe  Fe50  1  0.83187268  0.49580561  0.83248736  1
  Ni  Ni51  1  0.83371906  0.83491446  0.49900685  1
  Cr  Cr52  1  0.66448381  0.66572082  0.66486342  1
  Cr  Cr53  1  0.83309970  0.83199505  0.82838327  1
" 