2150,Ni23Fe74Cr2_0,-232.447116767251, 183.918546873722,Ni23Fe74Cr2,"# generated using pymatgen
 data_Cr(Fe10Ni3)2
_symmetry_space_group_name_H-M   'P 1'
_cell_length_a   7.40967785
_cell_length_b   7.40967785
_cell_length_c   10.47886691
_cell_angle_alpha   90.00000000
_cell_angle_beta   90.00000000
_cell_angle_gamma   90.00000000
_symmetry_Int_Tables_number   1
_chemical_formula_structural   Cr(Fe10Ni3)2
_chemical_formula_sum   'Cr2 Fe40 Ni12'
_cell_volume   575.32464400
_cell_formula_units_Z   2
loop_
 _symmetry_equiv_pos_site_id
 _symmetry_equiv_pos_as_xyz
  1  'x, y, z'
loop_
 _atom_site_type_symbol
 _atom_site_label
 _atom_site_symmetry_multiplicity
 _atom_site_fract_x
 _atom_site_fract_y
 _atom_site_fract_z
 _atom_site_occupancy
  Ni  Ni0  1  0.00453639  0.00457673  0.00423257  1
  Ni  Ni1  1  0.16987999  0.17144104  0.16943213  1
  Fe  Fe2  1  0.00450575  1.00359237  0.33690144  1
  Fe  Fe3  1  0.00446477  0.33577541  0.00436020  1
  Ni  Ni4  1  0.17184107  0.50358899  0.17117173  1
  Fe  Fe5  1  0.00525321  0.33700751  0.33671394  1
  Fe  Fe6  1  0.00436025  0.67147372  0.00431990  1
  Fe  Fe7  1  0.17004421  0.83811642  0.17052084  1
  Fe  Fe8  1  0.00655467  0.67101697  0.33674766  1
  Ni  Ni9  1  0.33595834  0.00419801  1.00341002  1
  Fe  Fe10  1  0.50348680  0.17001652  0.17052568  1
  Ni  Ni11  1  0.33530848  0.00485733  0.33664670  1
  Fe  Fe12  1  0.33619581  0.33634556  0.00420735  1
  Fe  Fe13  1  0.50293534  0.50273952  0.17044591  1
  Fe  Fe14  1  0.33696539  0.33756627  0.33738825  1
  Fe  Fe15  1  0.33655051  0.67115255  0.00444269  1
  Fe  Fe16  1  0.50222068  0.83885462  0.17011790  1
  Ni  Ni17  1  0.33537464  0.66981566  0.33615241  1
  Fe  Fe18  1  0.67127234  0.00401314  0.00407032  1
  Ni  Ni19  1  0.83773865  0.16898950  0.17091921  1
  Fe  Fe20  1  0.67089365  0.00583584  0.33583924  1
  Fe  Fe21  1  0.67095515  0.33570472  1.00367933  1
  Fe  Fe22  1  0.83910204  0.50246016  0.16965138  1
  Fe  Fe23  1  0.66939186  0.33551068  0.33738741  1
  Fe  Fe24  1  0.67070284  0.67189519  0.00418754  1
  Ni  Ni25  1  0.83679414  0.83910710  0.16940382  1
  Cr  Cr26  1  0.67086028  0.66840462  0.33600876  1
  Ni  Ni27  1  0.16959923  0.17083806  0.50448211  1
  Ni  Ni28  1  0.00399618  0.00416086  0.67014042  1
  Fe  Fe29  1  0.16987092  0.16972646  0.83729702  1
  Fe  Fe30  1  0.17148334  0.50395433  0.50315114  1
  Fe  Fe31  1  0.00387329  0.33622071  0.67054092  1
  Fe  Fe32  1  0.17001542  0.50350151  0.83772810  1
  Fe  Fe33  1  0.16961178  0.83739117  0.50382648  1
  Fe  Fe34  1  1.00376393  0.67106428  0.67054634  1
  Fe  Fe35  1  0.16987755  0.83838632  0.83726220  1
  Fe  Fe36  1  0.50316595  0.17261061  0.50367078  1
  Fe  Fe37  1  0.33558455  0.00500055  0.67117443  1
  Fe  Fe38  1  0.50419445  0.17033431  0.83741530  1
  Ni  Ni39  1  0.50266395  0.50279502  0.50504409  1
  Fe  Fe40  1  0.33671016  0.33682934  0.67001959  1
  Fe  Fe41  1  0.50454221  0.50338488  0.83649962  1
  Cr  Cr42  1  0.50323742  0.83663611  0.50468834  1
  Fe  Fe43  1  0.33614808  0.66978326  0.67070372  1
  Fe  Fe44  1  0.50406977  0.83789469  0.83722486  1
  Fe  Fe45  1  0.83708751  0.17073992  0.50430757  1
  Fe  Fe46  1  0.67230676  0.00488803  0.67170599  1
  Ni  Ni47  1  0.83780815  0.16984576  0.83710304  1
  Fe  Fe48  1  0.83774934  0.50269072  0.50490320  1
  Fe  Fe49  1  0.67102814  0.33678694  0.67055020  1
  Fe  Fe50  1  0.83705642  0.50337659  0.83705741  1
  Fe  Fe51  1  0.84008852  0.83817738  0.50462453  1
  Fe  Fe52  1  0.67170141  0.66993570  0.67095630  1
  Fe  Fe53  1  0.83766704  0.83803908  0.83754069  1
" 