7068,Ni23Fe77_13,-243.051623420903, 211.168550372439,Ni23Fe77,"# generated using pymatgen
 data_Fe2Ni7
_symmetry_space_group_name_H-M   'P 1'
_cell_length_a   7.42443993
_cell_length_b   7.42443993
_cell_length_c   10.49974364
_cell_angle_alpha   90.00000000
_cell_angle_beta   90.00000000
_cell_angle_gamma   90.00000000
_symmetry_Int_Tables_number   1
_chemical_formula_structural   Fe2Ni7
_chemical_formula_sum   'Fe12 Ni42'
_cell_volume   578.77010484
_cell_formula_units_Z   6
loop_
 _symmetry_equiv_pos_site_id
 _symmetry_equiv_pos_as_xyz
  1  'x, y, z'
loop_
 _atom_site_type_symbol
 _atom_site_label
 _atom_site_symmetry_multiplicity
 _atom_site_fract_x
 _atom_site_fract_y
 _atom_site_fract_z
 _atom_site_occupancy
  Ni  Ni0  1  1.00101579  0.00289623  1.00285573  1
  Ni  Ni1  1  0.16933750  0.16886812  0.16967562  1
  Ni  Ni2  1  1.00075311  0.00355218  0.33612166  1
  Ni  Ni3  1  0.00596213  0.33617604  0.00287590  1
  Ni  Ni4  1  0.16888596  0.50332536  0.17006810  1
  Ni  Ni5  1  0.00400635  0.33595859  0.33604828  1
  Ni  Ni6  1  1.00102335  0.66953023  0.00328880  1
  Ni  Ni7  1  0.16928472  0.83616478  0.16932449  1
  Ni  Ni8  1  0.00421618  0.66916923  0.33618611  1
  Fe  Fe9  1  0.33511880  0.00310716  1.00201184  1
  Ni  Ni10  1  0.50330185  0.16852045  0.17002449  1
  Fe  Fe11  1  0.33405645  1.00154848  0.33697154  1
  Ni  Ni12  1  0.33644448  0.33614176  0.00361653  1
  Ni  Ni13  1  0.50340403  0.50285419  0.16935965  1
  Fe  Fe14  1  0.33549803  0.33595638  0.33640386  1
  Fe  Fe15  1  0.33471422  0.66970917  0.00405288  1
  Ni  Ni16  1  0.50245516  0.83701396  0.17009165  1
  Ni  Ni17  1  0.33762257  0.66779402  0.33645696  1
  Ni  Ni18  1  0.66906377  1.00120599  1.00207954  1
  Ni  Ni19  1  0.83593278  0.16964761  0.16874611  1
  Ni  Ni20  1  0.66866110  1.00273927  0.33703398  1
  Fe  Fe21  1  0.67146545  0.33587326  0.00320386  1
  Ni  Ni22  1  0.83700270  0.50254010  0.16950337  1
  Fe  Fe23  1  0.67109529  0.33628334  0.33635062  1
  Ni  Ni24  1  0.66895704  0.67126508  0.00437680  1
  Ni  Ni25  1  0.83621941  0.83639949  0.17043251  1
  Fe  Fe26  1  0.67079872  0.66971739  0.33617123  1
  Ni  Ni27  1  0.16869225  0.16910495  0.50289778  1
  Ni  Ni28  1  0.00360891  0.00317313  0.66955842  1
  Ni  Ni29  1  0.16976249  0.16978055  0.83579458  1
  Ni  Ni30  1  0.16849717  0.50332390  0.50293710  1
  Ni  Ni31  1  0.00497487  0.33613300  0.66968986  1
  Ni  Ni32  1  0.16868995  0.50342931  0.83552300  1
  Ni  Ni33  1  0.16982426  0.83606486  0.50327845  1
  Ni  Ni34  1  1.00034654  0.66930714  0.66898615  1
  Ni  Ni35  1  0.16947642  0.83553402  0.83601650  1
  Ni  Ni36  1  0.50357875  0.16903593  0.50239836  1
  Ni  Ni37  1  0.33704728  0.00477370  0.66927150  1
  Ni  Ni38  1  0.50313836  0.16910459  0.83597050  1
  Ni  Ni39  1  0.50350506  0.50311401  0.50348496  1
  Ni  Ni40  1  0.33661034  0.33553691  0.66810925  1
  Fe  Fe41  1  0.50274032  0.50299945  0.83621606  1
  Ni  Ni42  1  0.50211015  0.83646861  0.50291179  1
  Fe  Fe43  1  0.33403847  0.67020494  0.66848888  1
  Ni  Ni44  1  0.50245646  0.83607941  0.83576643  1
  Ni  Ni45  1  0.83661534  0.17077284  0.50364092  1
  Fe  Fe46  1  0.67021379  0.00329188  0.66969275  1
  Ni  Ni47  1  0.83637855  0.17036071  0.83630406  1
  Ni  Ni48  1  0.83703183  0.50198727  0.50258388  1
  Fe  Fe49  1  0.67096902  0.33623472  0.66915112  1
  Ni  Ni50  1  0.83671208  0.50304609  0.83662712  1
  Fe  Fe51  1  0.83697656  0.83651396  0.50262759  1
  Ni  Ni52  1  0.66876303  0.67026732  0.66837284  1
  Ni  Ni53  1  0.83589354  0.83534765  0.83531676  1
" 