2940,Ni23Fe60Cr16_14,-229.319546947807, 188.905880781316,Ni23Fe60Cr16,"# generated using pymatgen
 data_Cr5(Fe8Ni3)2
_symmetry_space_group_name_H-M   'P 1'
_cell_length_a   7.43892556
_cell_length_b   7.43892556
_cell_length_c   10.52022941
_cell_angle_alpha   90.00000000
_cell_angle_beta   90.00000000
_cell_angle_gamma   90.00000000
_symmetry_Int_Tables_number   1
_chemical_formula_structural   Cr5(Fe8Ni3)2
_chemical_formula_sum   'Cr10 Fe32 Ni12'
_cell_volume   582.16438867
_cell_formula_units_Z   2
loop_
 _symmetry_equiv_pos_site_id
 _symmetry_equiv_pos_as_xyz
  1  'x, y, z'
loop_
 _atom_site_type_symbol
 _atom_site_label
 _atom_site_symmetry_multiplicity
 _atom_site_fract_x
 _atom_site_fract_y
 _atom_site_fract_z
 _atom_site_occupancy
  Ni  Ni0  1  0.99896622  0.00239916  1.00104190  1
  Fe  Fe1  1  0.16621372  0.16974691  0.16892587  1
  Fe  Fe2  1  1.00049006  0.00218825  0.33444908  1
  Fe  Fe3  1  0.00407361  0.33442927  1.00131167  1
  Fe  Fe4  1  0.16751731  0.50169636  0.16778412  1
  Ni  Ni5  1  1.00043177  0.33437195  0.33373621  1
  Fe  Fe6  1  1.00161346  0.66937325  1.00042668  1
  Cr  Cr7  1  0.16789590  0.83474758  0.17062063  1
  Fe  Fe8  1  0.00236639  0.66865976  0.33561837  1
  Cr  Cr9  1  0.33567194  0.00259951  1.00140507  1
  Fe  Fe10  1  0.50329017  0.16589716  0.16855599  1
  Fe  Fe11  1  0.33641533  1.00079795  0.33540778  1
  Fe  Fe12  1  0.33359998  0.33559421  1.00073296  1
  Cr  Cr13  1  0.50004218  0.50276090  0.16681727  1
  Cr  Cr14  1  0.33503600  0.33528828  0.33329538  1
  Ni  Ni15  1  0.33427858  0.66569132  0.00224752  1
  Fe  Fe16  1  0.50383234  0.83628931  0.16849790  1
  Fe  Fe17  1  0.33435551  0.67022951  0.33615527  1
  Ni  Ni18  1  0.67156643  1.00119593  0.00394815  1
  Fe  Fe19  1  0.83616548  0.16584198  0.16908659  1
  Fe  Fe20  1  0.66876446  0.00331769  0.33519965  1
  Cr  Cr21  1  0.66836840  0.33387221  1.00062537  1
  Cr  Cr22  1  0.83792304  0.50199210  0.16873453  1
  Fe  Fe23  1  0.67033333  0.33277288  0.33637530  1
  Fe  Fe24  1  0.66933966  0.67137002  1.00138112  1
  Ni  Ni25  1  0.83470674  0.83818690  0.16711948  1
  Cr  Cr26  1  0.66821569  0.67022941  0.33659867  1
  Cr  Cr27  1  0.16775502  0.16677728  0.50299098  1
  Fe  Fe28  1  1.00130053  1.00071962  0.66957291  1
  Fe  Fe29  1  0.16823782  0.17031212  0.83467708  1
  Cr  Cr30  1  0.16732277  0.50345970  0.50073116  1
  Fe  Fe31  1  1.00062478  0.33578380  0.66972061  1
  Ni  Ni32  1  0.16801785  0.50122538  0.83696876  1
  Fe  Fe33  1  0.16945644  0.83495640  0.50194679  1
  Fe  Fe34  1  1.00125166  0.66916592  0.66962757  1
  Fe  Fe35  1  0.16736651  0.83326533  0.83496531  1
  Fe  Fe36  1  0.50394536  0.16723392  0.50316932  1
  Fe  Fe37  1  0.33621854  1.00144387  0.66843595  1
  Ni  Ni38  1  0.50165566  0.16947792  0.83341301  1
  Fe  Fe39  1  0.50270440  0.50259423  0.50354858  1
  Fe  Fe40  1  0.33722828  0.33540275  0.67046450  1
  Ni  Ni41  1  0.50089359  0.50091134  0.83399336  1
  Ni  Ni42  1  0.50156320  0.83625408  0.50113805  1
  Ni  Ni43  1  0.33497660  0.66795010  0.66733202  1
  Cr  Cr44  1  0.50307967  0.83522031  0.83684328  1
  Fe  Fe45  1  0.83369824  0.16831148  0.50178353  1
  Ni  Ni46  1  0.66942026  0.00314017  0.66769648  1
  Fe  Fe47  1  0.83495469  0.16846150  0.83479742  1
  Fe  Fe48  1  0.83458384  0.50116107  0.50236876  1
  Fe  Fe49  1  0.66781312  0.33545272  0.66942185  1
  Ni  Ni50  1  0.83675864  0.50238303  0.83426301  1
  Fe  Fe51  1  0.83540586  0.83620044  0.50225242  1
  Fe  Fe52  1  0.66853541  0.66814815  0.66779186  1
  Fe  Fe53  1  0.83582817  0.83511819  0.83605745  1
" 