5824,Ni23Fe50Cr25_9,-226.838801358073, 184.97637789354,Ni23Fe50Cr25,"# generated using pymatgen
 data_Cr5Fe9Ni4
_symmetry_space_group_name_H-M   'P 1'
_cell_length_a   7.46242579
_cell_length_b   7.46242579
_cell_length_c   10.55346376
_cell_angle_alpha   90.00000000
_cell_angle_beta   90.00000000
_cell_angle_gamma   90.00000000
_symmetry_Int_Tables_number   1
_chemical_formula_structural   Cr5Fe9Ni4
_chemical_formula_sum   'Cr15 Fe27 Ni12'
_cell_volume   587.69916459
_cell_formula_units_Z   3
loop_
 _symmetry_equiv_pos_site_id
 _symmetry_equiv_pos_as_xyz
  1  'x, y, z'
loop_
 _atom_site_type_symbol
 _atom_site_label
 _atom_site_symmetry_multiplicity
 _atom_site_fract_x
 _atom_site_fract_y
 _atom_site_fract_z
 _atom_site_occupancy
  Fe  Fe0  1  0.99923153  0.99937121  0.99824535  1
  Cr  Cr1  1  0.16945000  0.16620471  0.16475372  1
  Fe  Fe2  1  0.99837750  0.00045541  0.33329218  1
  Cr  Cr3  1  0.99961176  0.33277141  1.00023515  1
  Cr  Cr4  1  0.16856759  0.50007043  0.16679421  1
  Cr  Cr5  1  0.99866894  0.33399108  0.33389295  1
  Fe  Fe6  1  0.99937557  0.66758062  0.99915146  1
  Cr  Cr7  1  0.16835156  0.83464797  0.16632958  1
  Fe  Fe8  1  0.99995673  0.66737493  0.33357900  1
  Fe  Fe9  1  0.33634666  0.00048520  0.99840359  1
  Fe  Fe10  1  0.50048353  0.16843409  0.16695903  1
  Fe  Fe11  1  0.33670979  0.00154571  0.33315499  1
  Ni  Ni12  1  0.33568075  0.33387643  0.99936538  1
  Ni  Ni13  1  0.50263431  0.50050414  0.16530888  1
  Fe  Fe14  1  0.33828269  0.33498976  0.33289823  1
  Fe  Fe15  1  0.33740785  0.66552644  0.99869538  1
  Ni  Ni16  1  0.50137215  0.83312039  0.16800704  1
  Fe  Fe17  1  0.33643212  0.66427516  0.33393810  1
  Cr  Cr18  1  0.66579219  0.99986963  0.00033087  1
  Fe  Fe19  1  0.83029549  0.16693625  0.16746101  1
  Fe  Fe20  1  0.66617343  0.00292097  0.33163167  1
  Ni  Ni21  1  0.66429686  0.33434730  0.00159487  1
  Fe  Fe22  1  0.83024728  0.50174561  0.16660036  1
  Ni  Ni23  1  0.66484860  0.33321754  0.33217729  1
  Ni  Ni24  1  0.66538199  0.66758827  0.00183785  1
  Fe  Fe25  1  0.83226573  0.83185337  0.16778155  1
  Fe  Fe26  1  0.66513325  0.66410268  0.33132512  1
  Cr  Cr27  1  0.16866502  0.16796924  0.50004610  1
  Cr  Cr28  1  0.99914468  0.00187946  0.66858590  1
  Fe  Fe29  1  0.16974002  0.16834223  0.83505768  1
  Fe  Fe30  1  0.17166596  0.50130618  0.50052775  1
  Fe  Fe31  1  0.00223719  0.33395772  0.66815027  1
  Ni  Ni32  1  0.16805451  0.49964101  0.83300461  1
  Fe  Fe33  1  0.16929233  0.83183008  0.49805230  1
  Cr  Cr34  1  0.00418014  0.66725875  0.66641397  1
  Fe  Fe35  1  0.16952563  0.83189073  0.83602133  1
  Ni  Ni36  1  0.50094391  0.16875061  0.49911241  1
  Cr  Cr37  1  0.33490868  0.99903266  0.66840313  1
  Ni  Ni38  1  0.50025429  0.16748810  0.83421789  1
  Ni  Ni39  1  0.49945457  0.49807326  0.50107286  1
  Fe  Fe40  1  0.33520603  0.33556212  0.66852129  1
  Fe  Fe41  1  0.49789054  0.49954418  0.83559928  1
  Cr  Cr42  1  0.50108216  0.83419371  0.49936128  1
  Ni  Ni43  1  0.33398585  0.66508858  0.66751743  1
  Ni  Ni44  1  0.49987785  0.83373572  0.83448536  1
  Fe  Fe45  1  0.82848340  0.16746579  0.50016889  1
  Fe  Fe46  1  0.66526264  0.00237622  0.66884987  1
  Fe  Fe47  1  0.83072165  0.16763123  0.83379800  1
  Cr  Cr48  1  0.83207230  0.49982192  0.50067951  1
  Fe  Fe49  1  0.66368572  0.33080618  0.66689215  1
  Cr  Cr50  1  0.83188195  0.50001135  0.83502146  1
  Cr  Cr51  1  0.83229672  0.83449099  0.49923424  1
  Cr  Cr52  1  0.66241039  0.66702758  0.66915097  1
  Fe  Fe53  1  0.83242237  0.83374003  0.83503159  1
" 