5470,Ni23Fe74Cr2_15,-232.542338947559, 187.66658306611,Ni23Fe74Cr2,"# generated using pymatgen
 data_Cr(Fe10Ni3)2
_symmetry_space_group_name_H-M   'P 1'
_cell_length_a   7.40583166
_cell_length_b   7.40583166
_cell_length_c   10.47342757
_cell_angle_alpha   90.00000000
_cell_angle_beta   90.00000000
_cell_angle_gamma   90.00000000
_symmetry_Int_Tables_number   1
_chemical_formula_structural   Cr(Fe10Ni3)2
_chemical_formula_sum   'Cr2 Fe40 Ni12'
_cell_volume   574.42919599
_cell_formula_units_Z   2
loop_
 _symmetry_equiv_pos_site_id
 _symmetry_equiv_pos_as_xyz
  1  'x, y, z'
loop_
 _atom_site_type_symbol
 _atom_site_label
 _atom_site_symmetry_multiplicity
 _atom_site_fract_x
 _atom_site_fract_y
 _atom_site_fract_z
 _atom_site_occupancy
  Ni  Ni0  1  0.00437115  0.00457243  1.00296180  1
  Fe  Fe1  1  0.16920673  0.17043177  0.17114241  1
  Ni  Ni2  1  1.00327170  1.00382711  0.33687082  1
  Fe  Fe3  1  1.00276145  0.33665870  0.00458363  1
  Fe  Fe4  1  0.17003202  0.50446439  0.17068606  1
  Fe  Fe5  1  1.00256350  0.33863748  0.33693645  1
  Fe  Fe6  1  1.00276105  0.67217172  0.00450478  1
  Fe  Fe7  1  0.16924141  0.83750534  0.17012521  1
  Fe  Fe8  1  1.00312297  0.67120245  0.33738488  1
  Fe  Fe9  1  0.33703267  0.00428696  1.00354188  1
  Fe  Fe10  1  0.50506010  0.17102640  0.17016309  1
  Fe  Fe11  1  0.33870915  1.00264056  0.33689405  1
  Fe  Fe12  1  0.33822954  0.33559003  0.00501024  1
  Fe  Fe13  1  0.50526371  0.50489445  0.17108077  1
  Fe  Fe14  1  0.33835365  0.33819967  0.33642222  1
  Fe  Fe15  1  0.33752035  0.67252359  0.00426203  1
  Fe  Fe16  1  0.50545243  0.83647703  0.17171294  1
  Fe  Fe17  1  0.33770811  0.67155916  0.33833550  1
  Fe  Fe18  1  0.67104957  0.00428327  1.00405599  1
  Fe  Fe19  1  0.83813293  0.17023861  0.17091025  1
  Fe  Fe20  1  0.67112502  1.00320037  0.33765232  1
  Fe  Fe21  1  0.67140473  0.33714606  1.00378090  1
  Ni  Ni22  1  0.83799164  0.50494199  0.17102888  1
  Fe  Fe23  1  0.67148272  0.33763735  0.33718321  1
  Fe  Fe24  1  0.67211597  0.67096709  0.00516662  1
  Ni  Ni25  1  0.83737237  0.83645518  0.17109141  1
  Ni  Ni26  1  0.66985134  0.67040573  0.33754092  1
  Cr  Cr27  1  0.17100319  0.17110960  0.50609654  1
  Fe  Fe28  1  1.00410340  1.00248053  0.67188605  1
  Fe  Fe29  1  0.17028603  0.16906967  0.83739521  1
  Fe  Fe30  1  0.17130827  0.50651105  0.50514582  1
  Ni  Ni31  1  1.00211464  0.33727734  0.67135742  1
  Cr  Cr32  1  0.16870535  0.50464895  0.83687391  1
  Fe  Fe33  1  0.17119384  0.83549950  0.50499598  1
  Ni  Ni34  1  0.00432216  0.67120821  0.66950554  1
  Ni  Ni35  1  0.17089605  0.83937552  0.83658775  1
  Fe  Fe36  1  0.50591408  0.17031882  0.50465127  1
  Fe  Fe37  1  0.33768582  1.00252558  0.67196215  1
  Ni  Ni38  1  0.50370361  0.17008590  0.83633087  1
  Fe  Fe39  1  0.50372486  0.50494376  0.50393128  1
  Fe  Fe40  1  0.33849601  0.33815041  0.67096815  1
  Fe  Fe41  1  0.50554674  0.50433554  0.83738509  1
  Ni  Ni42  1  0.50444399  0.83751605  0.50397737  1
  Ni  Ni43  1  0.33842333  0.67174593  0.66957830  1
  Fe  Fe44  1  0.50364000  0.83696055  0.83663325  1
  Fe  Fe45  1  0.83572181  0.17020101  0.50413123  1
  Fe  Fe46  1  0.67060949  1.00379983  0.67068716  1
  Fe  Fe47  1  0.83815824  0.17097994  0.83735554  1
  Fe  Fe48  1  0.83736284  0.50451594  0.50447605  1
  Fe  Fe49  1  0.67134582  0.33842383  0.67143266  1
  Ni  Ni50  1  0.83646807  0.50426451  0.83736976  1
  Fe  Fe51  1  0.83729050  0.83768005  0.50313883  1
  Fe  Fe52  1  0.67139731  0.67017496  0.67015898  1
  Fe  Fe53  1  0.83812624  0.83743171  0.83813821  1
" 