4269,Ni23Fe19Cr57_15,-215.996231641918, 162.977893033251,Ni23Fe19Cr57,"# generated using pymatgen
 data_Cr16Fe5Ni6
_symmetry_space_group_name_H-M   'P 1'
_cell_length_a   7.53047138
_cell_length_b   7.53047138
_cell_length_c   10.64969476
_cell_angle_alpha   90.00000000
_cell_angle_beta   90.00000000
_cell_angle_gamma   90.00000000
_symmetry_Int_Tables_number   1
_chemical_formula_structural   Cr16Fe5Ni6
_chemical_formula_sum   'Cr32 Fe10 Ni12'
_cell_volume   603.92288249
_cell_formula_units_Z   2
loop_
 _symmetry_equiv_pos_site_id
 _symmetry_equiv_pos_as_xyz
  1  'x, y, z'
loop_
 _atom_site_type_symbol
 _atom_site_label
 _atom_site_symmetry_multiplicity
 _atom_site_fract_x
 _atom_site_fract_y
 _atom_site_fract_z
 _atom_site_occupancy
  Cr  Cr0  1  -0.00374653  -0.00403320  -0.00389241  1
  Cr  Cr1  1  0.16293036  0.16434821  0.16333627  1
  Fe  Fe2  1  -0.00413109  0.99520570  0.33260924  1
  Ni  Ni3  1  0.99206213  0.33295313  0.99574083  1
  Cr  Cr4  1  0.16196410  0.49459538  0.15932734  1
  Cr  Cr5  1  0.99533810  0.32904011  0.33222126  1
  Fe  Fe6  1  0.99223724  0.65962201  0.99563536  1
  Cr  Cr7  1  0.16225980  0.82939108  0.16390237  1
  Cr  Cr8  1  -0.00404452  0.66212303  0.32962336  1
  Cr  Cr9  1  0.33150567  0.99525060  0.99467577  1
  Cr  Cr10  1  0.49471398  0.16379441  0.16219549  1
  Fe  Fe11  1  0.32875858  0.99560743  0.32966503  1
  Ni  Ni12  1  0.33043136  0.32977146  0.99564467  1
  Cr  Cr13  1  0.49528678  0.49500883  0.16413195  1
  Fe  Fe14  1  0.32794735  0.33045484  0.33117352  1
  Cr  Cr15  1  0.33243148  0.66536291  0.99455490  1
  Ni  Ni16  1  0.49657925  0.82767022  0.16155417  1
  Cr  Cr17  1  0.32911992  0.66362533  0.33260628  1
  Cr  Cr18  1  0.65934518  0.99430646  0.99378129  1
  Cr  Cr19  1  0.82947249  0.16322262  0.16263827  1
  Cr  Cr20  1  0.66254284  0.99476953  0.32932541  1
  Ni  Ni21  1  0.66330792  0.33313173  0.99516850  1
  Fe  Fe22  1  0.82856485  0.49502185  0.15987653  1
  Cr  Cr23  1  0.66336914  0.32994833  0.33054890  1
  Ni  Ni24  1  0.66311747  0.65936098  -0.00351350  1
  Cr  Cr25  1  0.82835794  0.82703633  0.16197496  1
  Cr  Cr26  1  0.66173501  0.66232156  0.32744307  1
  Ni  Ni27  1  0.16292067  0.16350972  0.49184192  1
  Cr  Cr28  1  -0.00321096  -0.00258419  0.65795882  1
  Cr  Cr29  1  0.16285790  0.16560325  0.83305206  1
  Ni  Ni30  1  0.16537462  0.49558322  0.49618411  1
  Cr  Cr31  1  0.99575366  0.32852574  0.66086131  1
  Cr  Cr32  1  0.16056348  0.49510505  0.83137424  1
  Fe  Fe33  1  0.16174676  0.83133999  0.49560086  1
  Cr  Cr34  1  -0.00355569  0.66154286  0.66103260  1
  Cr  Cr35  1  0.16187663  0.82578020  0.82867772  1
  Cr  Cr36  1  0.49585583  0.16243517  0.49505904  1
  Cr  Cr37  1  0.33017467  0.99545057  0.66763758  1
  Ni  Ni38  1  0.49813544  0.16349193  0.83114057  1
  Fe  Fe39  1  0.49518072  0.49614127  0.49707149  1
  Cr  Cr40  1  0.32759031  0.32817171  0.66060783  1
  Cr  Cr41  1  0.49558225  0.49589541  0.82612022  1
  Cr  Cr42  1  0.49817112  0.82753915  0.49882356  1
  Fe  Fe43  1  0.33001905  0.66162629  0.66135960  1
  Ni  Ni44  1  0.50010614  0.82716112  0.82749860  1
  Ni  Ni45  1  0.83097163  0.15876037  0.49546806  1
  Fe  Fe46  1  0.66289433  0.99526091  0.66233975  1
  Cr  Cr47  1  0.82771803  0.16305057  0.82811850  1
  Cr  Cr48  1  0.82771045  0.49828365  0.49702162  1
  Cr  Cr49  1  0.66304639  0.32834759  0.66131601  1
  Fe  Fe50  1  0.82606046  0.49646702  0.82996407  1
  Ni  Ni51  1  0.82895107  0.83057686  0.49624233  1
  Ni  Ni52  1  0.66131370  0.66435726  0.66136123  1
  Cr  Cr53  1  0.82733287  0.82626476  0.82691578  1
" 