7440,Ni23Fe35Cr40_8,-222.292657990502, 179.4569651872,Ni23Fe35Cr40,"# generated using pymatgen
 data_Cr23Fe19Ni12
_symmetry_space_group_name_H-M   'P 1'
_cell_length_a   7.49421596
_cell_length_b   7.49421596
_cell_length_c   10.59842185
_cell_angle_alpha   90.00000000
_cell_angle_beta   90.00000000
_cell_angle_gamma   90.00000000
_symmetry_Int_Tables_number   1
_chemical_formula_structural   Cr23Fe19Ni12
_chemical_formula_sum   'Cr23 Fe19 Ni12'
_cell_volume   595.24205833
_cell_formula_units_Z   1
loop_
 _symmetry_equiv_pos_site_id
 _symmetry_equiv_pos_as_xyz
  1  'x, y, z'
loop_
 _atom_site_type_symbol
 _atom_site_label
 _atom_site_symmetry_multiplicity
 _atom_site_fract_x
 _atom_site_fract_y
 _atom_site_fract_z
 _atom_site_occupancy
  Fe  Fe0  1  0.00023437  0.99807734  -0.00025785  1
  Fe  Fe1  1  0.16446002  0.16603835  0.16638564  1
  Cr  Cr2  1  -0.00095204  -0.00170321  0.33018193  1
  Ni  Ni3  1  -0.00101091  0.33240465  0.00221930  1
  Fe  Fe4  1  0.16581934  0.49814296  0.16895152  1
  Ni  Ni5  1  0.00091095  0.33063051  0.33063242  1
  Cr  Cr6  1  0.00374616  0.66422252  0.00058167  1
  Fe  Fe7  1  0.16754905  0.83106597  0.16806001  1
  Fe  Fe8  1  0.00210248  0.66211143  0.33049285  1
  Cr  Cr9  1  0.33115360  0.99472197  0.00124661  1
  Cr  Cr10  1  0.49415249  0.16450462  0.16678112  1
  Fe  Fe11  1  0.33173875  0.99794299  0.33159161  1
  Cr  Cr12  1  0.32921592  0.33491296  0.00072263  1
  Fe  Fe13  1  0.49767183  0.50050283  0.16758117  1
  Ni  Ni14  1  0.33001554  0.33384754  0.33213126  1
  Cr  Cr15  1  0.33274263  0.66551336  0.99728133  1
  Ni  Ni16  1  0.49708722  0.82938728  0.16687938  1
  Ni  Ni17  1  0.33185189  0.66599230  0.33014772  1
  Ni  Ni18  1  0.66407044  0.99490826  0.00034804  1
  Cr  Cr19  1  0.83144023  0.16415927  0.16249136  1
  Fe  Fe20  1  0.66155806  0.99641907  0.33124489  1
  Cr  Cr21  1  0.66412909  0.33210103  -0.00111487  1
  Fe  Fe22  1  0.83175147  0.49762982  0.16768454  1
  Cr  Cr23  1  0.66478516  0.32987961  0.33402577  1
  Fe  Fe24  1  0.66301724  0.66433365  0.00015002  1
  Cr  Cr25  1  0.83045491  0.82760094  0.16547720  1
  Ni  Ni26  1  0.66087955  0.66501463  0.32927700  1
  Fe  Fe27  1  0.16618539  0.16502328  0.49695657  1
  Ni  Ni28  1  0.00099705  0.99754358  0.66413588  1
  Cr  Cr29  1  0.16596680  0.16475076  0.83243553  1
  Fe  Fe30  1  0.16774006  0.49985125  0.49470242  1
  Cr  Cr31  1  -0.00081256  0.33011857  0.66249127  1
  Fe  Fe32  1  0.16478111  0.49663954  0.83135820  1
  Ni  Ni33  1  0.16811647  0.83333170  0.49581628  1
  Cr  Cr34  1  0.00267400  0.66748267  0.66307892  1
  Ni  Ni35  1  0.16634370  0.83320869  0.83104800  1
  Fe  Fe36  1  0.49224987  0.16393476  0.49617528  1
  Fe  Fe37  1  0.32920792  -0.00122888  0.66243380  1
  Cr  Cr38  1  0.49505047  0.16621699  0.83043329  1
  Fe  Fe39  1  0.49411694  0.50152425  0.49631520  1
  Ni  Ni40  1  0.33072909  0.33352076  0.66195698  1
  Ni  Ni41  1  0.49433603  0.49822467  0.83163675  1
  Fe  Fe42  1  0.49638294  0.82980963  0.49434067  1
  Cr  Cr43  1  0.33086623  0.66644524  0.66793563  1
  Fe  Fe44  1  0.49890511  0.83343217  0.83341471  1
  Fe  Fe45  1  0.83548412  0.16272594  0.49616814  1
  Cr  Cr46  1  0.66534458  -0.00131591  0.66055170  1
  Cr  Cr47  1  0.83244580  0.16362078  0.83356541  1
  Cr  Cr48  1  0.83267454  0.50017524  0.49437893  1
  Cr  Cr49  1  0.66244427  0.33126431  0.66069540  1
  Cr  Cr50  1  0.83100893  0.49955205  0.83331099  1
  Cr  Cr51  1  0.83301063  0.82901994  0.49505500  1
  Cr  Cr52  1  0.66144635  0.66513141  0.66697176  1
  Cr  Cr53  1  0.83384715  0.83175239  0.83356149  1
" 