2379,Ni23Fe35Cr40_11,-222.28538288223, 175.104877978755,Ni23Fe35Cr40,"# generated using pymatgen
 data_Cr23Fe19Ni12
_symmetry_space_group_name_H-M   'P 1'
_cell_length_a   7.49547414
_cell_length_b   7.49547414
_cell_length_c   10.60020118
_cell_angle_alpha   90.00000000
_cell_angle_beta   90.00000000
_cell_angle_gamma   90.00000000
_symmetry_Int_Tables_number   1
_chemical_formula_structural   Cr23Fe19Ni12
_chemical_formula_sum   'Cr23 Fe19 Ni12'
_cell_volume   595.54190814
_cell_formula_units_Z   1
loop_
 _symmetry_equiv_pos_site_id
 _symmetry_equiv_pos_as_xyz
  1  'x, y, z'
loop_
 _atom_site_type_symbol
 _atom_site_label
 _atom_site_symmetry_multiplicity
 _atom_site_fract_x
 _atom_site_fract_y
 _atom_site_fract_z
 _atom_site_occupancy
  Cr  Cr0  1  -0.00186265  0.99528259  -0.00100178  1
  Cr  Cr1  1  0.16677857  0.16624962  0.16534986  1
  Fe  Fe2  1  0.99709158  0.99600956  0.32882559  1
  Cr  Cr3  1  -0.00129247  0.33290425  -0.00014036  1
  Fe  Fe4  1  0.16805873  0.50332216  0.16401531  1
  Cr  Cr5  1  0.00000054  0.33281837  0.33024721  1
  Ni  Ni6  1  0.00034756  0.66630048  0.00056104  1
  Ni  Ni7  1  0.16617963  0.83078046  0.16729567  1
  Fe  Fe8  1  -0.00020680  0.66738545  0.32921432  1
  Cr  Cr9  1  0.33435150  0.99763494  0.00095661  1
  Fe  Fe10  1  0.49937560  0.16424971  0.16588150  1
  Fe  Fe11  1  0.33286068  -0.00188649  0.32896700  1
  Fe  Fe12  1  0.33314708  0.33522755  -0.00039256  1
  Ni  Ni13  1  0.49621579  0.49807946  0.16365406  1
  Ni  Ni14  1  0.33023808  0.33313711  0.32979372  1
  Ni  Ni15  1  0.33217980  0.66501404  0.00057773  1
  Ni  Ni16  1  0.49727138  0.83031843  0.16557301  1
  Fe  Fe17  1  0.33098879  0.66281136  0.32865513  1
  Fe  Fe18  1  0.66469408  0.99645610  0.00149486  1
  Fe  Fe19  1  0.82816324  0.16204181  0.16422346  1
  Ni  Ni20  1  0.66482848  0.99634415  0.32720990  1
  Ni  Ni21  1  0.66033020  0.32985463  0.00004646  1
  Cr  Cr22  1  0.83156328  0.49823596  0.16361189  1
  Cr  Cr23  1  0.66224627  0.33129161  0.33037686  1
  Fe  Fe24  1  0.66330448  0.66529833  0.00116798  1
  Ni  Ni25  1  0.83136229  0.83095397  0.16328626  1
  Cr  Cr26  1  0.66378392  0.66630493  0.32915138  1
  Fe  Fe27  1  0.16597344  0.16297578  0.49520420  1
  Fe  Fe28  1  0.99806482  0.99737125  0.66494674  1
  Cr  Cr29  1  0.16656989  0.16670487  0.83194512  1
  Fe  Fe30  1  0.16889196  0.50040082  0.49682497  1
  Cr  Cr31  1  -0.00003604  0.33195016  0.66335544  1
  Ni  Ni32  1  0.16803713  0.50069465  0.83483841  1
  Fe  Fe33  1  0.16423736  0.83105472  0.49501238  1
  Cr  Cr34  1  -0.00003890  0.66508688  0.66580127  1
  Cr  Cr35  1  0.16727780  0.82863928  0.83194633  1
  Cr  Cr36  1  0.49732353  0.16401399  0.49672169  1
  Cr  Cr37  1  0.32980580  0.99715060  0.66428000  1
  Fe  Fe38  1  0.49932408  0.16754239  0.83277757  1
  Fe  Fe39  1  0.49504117  0.49747922  0.49648410  1
  Cr  Cr40  1  0.33292210  0.33391106  0.66638914  1
  Fe  Fe41  1  0.49592239  0.49732929  0.83482628  1
  Cr  Cr42  1  0.49477755  0.83022709  0.49546734  1
  Ni  Ni43  1  0.33107776  0.66384587  0.66279849  1
  Cr  Cr44  1  0.49912986  0.83041365  0.83242177  1
  Cr  Cr45  1  0.83148467  0.16408347  0.49763054  1
  Fe  Fe46  1  0.66332374  0.99802305  0.66490208  1
  Cr  Cr47  1  0.82900077  0.16443279  0.83026513  1
  Cr  Cr48  1  0.83073806  0.49809040  0.49742658  1
  Ni  Ni49  1  0.66229552  0.33088318  0.66448322  1
  Cr  Cr50  1  0.83038414  0.49833191  0.83416671  1
  Cr  Cr51  1  0.83091650  0.83224037  0.49872037  1
  Cr  Cr52  1  0.66134502  0.66227061  0.66556849  1
  Fe  Fe53  1  0.83181296  0.83003481  0.83379623  1
" 