7794,Ni23Fe50Cr25_17,-227.0575244458, 184.167472022894,Ni23Fe50Cr25,"# generated using pymatgen
 data_Cr5Fe9Ni4
_symmetry_space_group_name_H-M   'P 1'
_cell_length_a   7.45939290
_cell_length_b   7.45939290
_cell_length_c   10.54917460
_cell_angle_alpha   90.00000000
_cell_angle_beta   90.00000000
_cell_angle_gamma   90.00000000
_symmetry_Int_Tables_number   1
_chemical_formula_structural   Cr5Fe9Ni4
_chemical_formula_sum   'Cr15 Fe27 Ni12'
_cell_volume   586.98289460
_cell_formula_units_Z   3
loop_
 _symmetry_equiv_pos_site_id
 _symmetry_equiv_pos_as_xyz
  1  'x, y, z'
loop_
 _atom_site_type_symbol
 _atom_site_label
 _atom_site_symmetry_multiplicity
 _atom_site_fract_x
 _atom_site_fract_y
 _atom_site_fract_z
 _atom_site_occupancy
  Fe  Fe0  1  0.99877848  0.00059389  0.00241950  1
  Ni  Ni1  1  0.16637115  0.16728444  0.16642154  1
  Cr  Cr2  1  0.99894667  0.00114042  0.33285546  1
  Fe  Fe3  1  1.00035816  0.33198490  0.00230214  1
  Cr  Cr4  1  0.16733824  0.49815917  0.16802170  1
  Ni  Ni5  1  0.99883080  0.33286422  0.33297218  1
  Cr  Cr6  1  0.00259587  0.66845437  1.00040687  1
  Fe  Fe7  1  0.16641751  0.83621774  0.16787838  1
  Fe  Fe8  1  0.99933395  0.66687889  0.33448767  1
  Cr  Cr9  1  0.33386747  0.99919265  0.00099599  1
  Fe  Fe10  1  0.49998432  0.16707834  0.16737623  1
  Fe  Fe11  1  0.33441016  0.00355603  0.33208521  1
  Fe  Fe12  1  0.33549303  0.33470777  0.99977845  1
  Fe  Fe13  1  0.50195900  0.49911098  0.16605361  1
  Fe  Fe14  1  0.33258983  0.33098912  0.33455050  1
  Fe  Fe15  1  0.33686578  0.66666283  0.99972150  1
  Fe  Fe16  1  0.50246645  0.83537550  0.16740916  1
  Cr  Cr17  1  0.33275873  0.66852776  0.33297200  1
  Ni  Ni18  1  0.66676671  0.00125293  0.00149948  1
  Ni  Ni19  1  0.83401635  0.16638056  0.16430938  1
  Fe  Fe20  1  0.66757502  0.00142778  0.33195236  1
  Fe  Fe21  1  0.66574113  0.33278858  0.00260400  1
  Fe  Fe22  1  0.83344339  0.49895369  0.16705817  1
  Cr  Cr23  1  0.66799861  0.33047222  0.33395625  1
  Fe  Fe24  1  0.66482308  0.66944943  0.00147699  1
  Fe  Fe25  1  0.83269636  0.83497815  0.16622692  1
  Fe  Fe26  1  0.67002754  0.66851078  0.33127236  1
  Cr  Cr27  1  0.16797689  0.16709103  0.50031985  1
  Ni  Ni28  1  0.99809707  0.99667604  0.66788144  1
  Cr  Cr29  1  0.16638805  0.16741545  0.83445557  1
  Ni  Ni30  1  0.16660580  0.50195802  0.49970402  1
  Cr  Cr31  1  0.00155400  0.33483140  0.66520590  1
  Ni  Ni32  1  0.16840078  0.50108206  0.83426262  1
  Ni  Ni33  1  0.16688022  0.83364991  0.50110110  1
  Ni  Ni34  1  0.00104519  0.67063751  0.66528846  1
  Fe  Fe35  1  0.16466291  0.83390257  0.83241519  1
  Ni  Ni36  1  0.50168834  0.16463771  0.50155655  1
  Fe  Fe37  1  0.33230509  0.00111265  0.66764802  1
  Fe  Fe38  1  0.50093147  0.16844484  0.83275247  1
  Cr  Cr39  1  0.49967441  0.50063544  0.50128963  1
  Ni  Ni40  1  0.33739722  0.33370857  0.66694399  1
  Fe  Fe41  1  0.49989818  0.49834600  0.83463964  1
  Cr  Cr42  1  0.50158997  0.83602476  0.49982949  1
  Cr  Cr43  1  0.33151389  0.66608024  0.67015031  1
  Fe  Fe44  1  0.50286951  0.83433861  0.83449412  1
  Ni  Ni45  1  0.83216847  0.16467709  0.50167722  1
  Fe  Fe46  1  0.66739742  0.00105388  0.66786220  1
  Cr  Cr47  1  0.83333808  0.16534599  0.83504475  1
  Cr  Cr48  1  0.83502811  0.50218814  0.49975579  1
  Fe  Fe49  1  0.66637853  0.33157305  0.66652936  1
  Cr  Cr50  1  0.83364586  0.50078671  0.83431193  1
  Fe  Fe51  1  0.83522914  0.83573143  0.50165580  1
  Fe  Fe52  1  0.66871105  0.66876526  0.66849358  1
  Fe  Fe53  1  0.83387755  0.83401948  0.83337395  1
" 