6267,Ni23Fe60Cr16_9,-229.540030546813, 184.152683936129,Ni23Fe60Cr16,"# generated using pymatgen
 data_Cr5(Fe8Ni3)2
_symmetry_space_group_name_H-M   'P 1'
_cell_length_a   7.44281247
_cell_length_b   7.44281247
_cell_length_c   10.52572633
_cell_angle_alpha   90.00000000
_cell_angle_beta   90.00000000
_cell_angle_gamma   90.00000000
_symmetry_Int_Tables_number   1
_chemical_formula_structural   Cr5(Fe8Ni3)2
_chemical_formula_sum   'Cr10 Fe32 Ni12'
_cell_volume   583.07742506
_cell_formula_units_Z   2
loop_
 _symmetry_equiv_pos_site_id
 _symmetry_equiv_pos_as_xyz
  1  'x, y, z'
loop_
 _atom_site_type_symbol
 _atom_site_label
 _atom_site_symmetry_multiplicity
 _atom_site_fract_x
 _atom_site_fract_y
 _atom_site_fract_z
 _atom_site_occupancy
  Cr  Cr0  1  1.00125779  0.99926382  1.00075423  1
  Fe  Fe1  1  0.17132398  0.16986747  0.16936267  1
  Cr  Cr2  1  0.00283457  1.00038167  0.33364761  1
  Cr  Cr3  1  0.00229380  0.33690000  1.00134927  1
  Fe  Fe4  1  0.16869070  0.50170419  0.16885548  1
  Fe  Fe5  1  0.00330862  0.33750362  0.33452425  1
  Fe  Fe6  1  1.00141632  0.66825939  0.00197669  1
  Fe  Fe7  1  0.16852070  0.83331120  0.16946778  1
  Fe  Fe8  1  1.00058588  0.66606902  0.33391454  1
  Cr  Cr9  1  0.33573018  0.00299001  0.00163633  1
  Ni  Ni10  1  0.50005542  0.16994970  0.16830768  1
  Ni  Ni11  1  0.33655613  0.00351112  0.33438322  1
  Ni  Ni12  1  0.33617824  0.33532315  0.00245716  1
  Fe  Fe13  1  0.50261739  0.50059825  0.16872821  1
  Ni  Ni14  1  0.33608893  0.33376976  0.33507409  1
  Fe  Fe15  1  0.33389760  0.66702353  0.00210632  1
  Fe  Fe16  1  0.50318842  0.83482731  0.16908139  1
  Fe  Fe17  1  0.33611776  0.66704436  0.33469187  1
  Fe  Fe18  1  0.66754713  1.00123611  1.00108278  1
  Cr  Cr19  1  0.83209146  0.16832929  0.16856583  1
  Fe  Fe20  1  0.66449627  1.00129771  0.33496620  1
  Fe  Fe21  1  0.66630734  0.33464954  0.00264957  1
  Ni  Ni22  1  0.83465257  0.50458440  0.16901602  1
  Ni  Ni23  1  0.66598171  0.33809398  0.33510796  1
  Fe  Fe24  1  0.66956973  0.66900008  0.00248476  1
  Ni  Ni25  1  0.83488703  0.83171514  0.16831540  1
  Fe  Fe26  1  0.66818295  0.66795891  0.33499049  1
  Fe  Fe27  1  0.16998300  0.17028267  0.50097203  1
  Fe  Fe28  1  1.00013457  1.00150288  0.67008109  1
  Ni  Ni29  1  0.16743299  0.16872541  0.83398731  1
  Fe  Fe30  1  0.16827390  0.50058995  0.50079388  1
  Fe  Fe31  1  1.00147440  0.33516699  0.66959784  1
  Fe  Fe32  1  0.16674543  0.50269839  0.83522992  1
  Cr  Cr33  1  0.16763015  0.83374557  0.50224968  1
  Fe  Fe34  1  1.00069142  0.66821027  0.66900049  1
  Fe  Fe35  1  0.16731612  0.83325785  0.83403574  1
  Ni  Ni36  1  0.50159077  0.17036521  0.50022203  1
  Cr  Cr37  1  0.33562140  0.00191515  0.66864118  1
  Fe  Fe38  1  0.50340349  0.16735102  0.83601585  1
  Ni  Ni39  1  0.50119318  0.50096845  0.50020719  1
  Cr  Cr40  1  0.33448693  0.33435825  0.66693885  1
  Cr  Cr41  1  0.50077341  0.50119630  0.83715499  1
  Fe  Fe42  1  0.50399831  0.83468712  0.50085345  1
  Fe  Fe43  1  0.33525488  0.66796226  0.66809571  1
  Fe  Fe44  1  0.50295671  0.83540938  0.83494779  1
  Cr  Cr45  1  0.83373804  0.16781699  0.50221967  1
  Fe  Fe46  1  0.66917401  1.00072782  0.66883260  1
  Fe  Fe47  1  0.83404977  0.16791728  0.83346358  1
  Fe  Fe48  1  0.83382114  0.50284879  0.50090850  1
  Fe  Fe49  1  0.66892274  0.33484870  0.66721651  1
  Fe  Fe50  1  0.83619459  0.50225364  0.83477515  1
  Ni  Ni51  1  0.83409599  0.83335335  0.50209876  1
  Fe  Fe52  1  0.66893356  0.66931089  0.66741326  1
  Ni  Ni53  1  0.83564738  0.83528356  0.83446604  1
" 