7889,Ni23Fe43Cr33_12,-225.20944850301, 181.357127634011,Ni23Fe43Cr33,"# generated using pymatgen
 data_Cr19Fe23Ni12
_symmetry_space_group_name_H-M   'P 1'
_cell_length_a   7.47974858
_cell_length_b   7.47974858
_cell_length_c   10.57796188
_cell_angle_alpha   90.00000000
_cell_angle_beta   90.00000000
_cell_angle_gamma   90.00000000
_symmetry_Int_Tables_number   1
_chemical_formula_structural   Cr19Fe23Ni12
_chemical_formula_sum   'Cr19 Fe23 Ni12'
_cell_volume   591.80141194
_cell_formula_units_Z   1
loop_
 _symmetry_equiv_pos_site_id
 _symmetry_equiv_pos_as_xyz
  1  'x, y, z'
loop_
 _atom_site_type_symbol
 _atom_site_label
 _atom_site_symmetry_multiplicity
 _atom_site_fract_x
 _atom_site_fract_y
 _atom_site_fract_z
 _atom_site_occupancy
  Fe  Fe0  1  0.99615606  0.99808391  0.99881245  1
  Cr  Cr1  1  0.16663835  0.16593007  0.16438133  1
  Ni  Ni2  1  0.99839812  0.99816834  0.33333510  1
  Fe  Fe3  1  0.99863240  0.33358356  -0.00079176  1
  Fe  Fe4  1  0.16488874  0.49943309  0.17012123  1
  Fe  Fe5  1  0.99867918  0.33061592  0.33415691  1
  Cr  Cr6  1  -0.00046229  0.66862166  0.00325872  1
  Fe  Fe7  1  0.16459914  0.83409086  0.16852073  1
  Ni  Ni8  1  0.00172159  0.66881653  0.33040162  1
  Fe  Fe9  1  0.33512398  0.99740573  0.99886755  1
  Cr  Cr10  1  0.49918104  0.16251172  0.16719839  1
  Cr  Cr11  1  0.33088027  0.99718823  0.33581446  1
  Cr  Cr12  1  0.33460954  0.33413931  0.99877551  1
  Cr  Cr13  1  0.49951047  0.49852132  0.17165170  1
  Fe  Fe14  1  0.33243474  0.33194934  0.33570250  1
  Cr  Cr15  1  0.33187044  0.66834683  0.00242573  1
  Fe  Fe16  1  0.50235884  0.83228216  0.16920046  1
  Ni  Ni17  1  0.33055245  0.66540121  0.33237481  1
  Fe  Fe18  1  0.66588977  0.99572482  0.99730967  1
  Cr  Cr19  1  0.83165647  0.16300754  0.16668214  1
  Ni  Ni20  1  0.66674889  0.00058449  0.33357531  1
  Cr  Cr21  1  0.66663957  0.32936235  0.99432374  1
  Cr  Cr22  1  0.83189515  0.50045633  0.17166267  1
  Ni  Ni23  1  0.66435206  0.33025990  0.33634638  1
  Cr  Cr24  1  0.66552226  0.66652156  0.99704028  1
  Ni  Ni25  1  0.83184904  0.83309708  0.16895967  1
  Ni  Ni26  1  0.66426652  0.66718042  0.33346868  1
  Fe  Fe27  1  0.16264219  0.16350444  0.50047911  1
  Ni  Ni28  1  0.99889051  0.99763107  0.66448952  1
  Cr  Cr29  1  0.16754829  0.16468088  0.83207181  1
  Cr  Cr30  1  0.16577089  0.49869511  0.49930526  1
  Fe  Fe31  1  0.99787126  0.32933610  0.66373567  1
  Cr  Cr32  1  0.16586819  0.49875998  0.83010567  1
  Fe  Fe33  1  0.16444026  0.83145135  0.50007326  1
  Ni  Ni34  1  0.00145406  0.66862884  0.66527628  1
  Cr  Cr35  1  0.16541875  0.83374561  0.82893958  1
  Fe  Fe36  1  0.50104563  0.16438508  0.49982147  1
  Fe  Fe37  1  0.33426315  -0.00073514  0.66213350  1
  Ni  Ni38  1  0.49856671  0.16196709  0.83149504  1
  Fe  Fe39  1  0.49906895  0.50101428  0.49670503  1
  Fe  Fe40  1  0.33256976  0.32923876  0.66437744  1
  Fe  Fe41  1  0.49772998  0.50103506  0.82915163  1
  Fe  Fe42  1  0.49966773  0.83104939  0.49876789  1
  Fe  Fe43  1  0.33530507  0.66806829  0.66279114  1
  Fe  Fe44  1  0.49980448  0.83436386  0.82964218  1
  Fe  Fe45  1  0.83268514  0.16527723  0.49833533  1
  Ni  Ni46  1  0.66608597  0.00079058  0.66698694  1
  Fe  Fe47  1  0.83352015  0.16169265  0.83085742  1
  Cr  Cr48  1  0.83217516  0.50348442  0.49653054  1
  Cr  Cr49  1  0.66398729  0.33214372  0.66624422  1
  Cr  Cr50  1  0.83464620  0.50313104  0.82878722  1
  Cr  Cr51  1  0.83159093  0.83430024  0.49825264  1
  Fe  Fe52  1  0.66626062  0.67070292  0.66525730  1
  Ni  Ni53  1  0.83068263  0.83452559  0.82996366  1
" 