8860,Ni23Fe60Cr16_6,-229.89279896994, 189.14390988545,Ni23Fe60Cr16,"# generated using pymatgen
 data_Cr5(Fe8Ni3)2
_symmetry_space_group_name_H-M   'P 1'
_cell_length_a   7.44442094
_cell_length_b   7.44442094
_cell_length_c   10.52800106
_cell_angle_alpha   90.00000000
_cell_angle_beta   90.00000000
_cell_angle_gamma   90.00000000
_symmetry_Int_Tables_number   1
_chemical_formula_structural   Cr5(Fe8Ni3)2
_chemical_formula_sum   'Cr10 Fe32 Ni12'
_cell_volume   583.45553443
_cell_formula_units_Z   2
loop_
 _symmetry_equiv_pos_site_id
 _symmetry_equiv_pos_as_xyz
  1  'x, y, z'
loop_
 _atom_site_type_symbol
 _atom_site_label
 _atom_site_symmetry_multiplicity
 _atom_site_fract_x
 _atom_site_fract_y
 _atom_site_fract_z
 _atom_site_occupancy
  Fe  Fe0  1  1.00032314  0.00275221  1.00083700  1
  Fe  Fe1  1  0.16743035  0.16770809  0.16849088  1
  Fe  Fe2  1  0.00412230  0.00227141  0.33383345  1
  Ni  Ni3  1  0.99997595  0.33553408  0.00299295  1
  Fe  Fe4  1  0.16751645  0.50271556  0.16700383  1
  Fe  Fe5  1  1.00052058  0.33611597  0.33423615  1
  Ni  Ni6  1  1.00094720  0.66706855  1.00134800  1
  Fe  Fe7  1  0.16939644  0.83413077  0.16901231  1
  Ni  Ni8  1  1.00099757  0.66560969  0.33466110  1
  Cr  Cr9  1  0.33620906  0.00206180  0.00259912  1
  Ni  Ni10  1  0.50225332  0.16918986  0.16748291  1
  Fe  Fe11  1  0.33473381  1.00042284  0.33453034  1
  Fe  Fe12  1  0.33551076  0.33549121  0.00216268  1
  Fe  Fe13  1  0.50290276  0.50240776  0.16755437  1
  Cr  Cr14  1  0.33449813  0.33248580  0.33523766  1
  Fe  Fe15  1  0.33518188  0.66675348  0.00248415  1
  Ni  Ni16  1  0.50041993  0.83367786  0.16891761  1
  Fe  Fe17  1  0.33603309  0.66928354  0.33380454  1
  Fe  Fe18  1  0.66905020  0.00308035  1.00132089  1
  Fe  Fe19  1  0.83446720  0.17022381  0.16705367  1
  Cr  Cr20  1  0.66428891  1.00123495  0.33368402  1
  Ni  Ni21  1  0.66851352  0.33458116  0.00182289  1
  Fe  Fe22  1  0.83413935  0.50044461  0.16795770  1
  Fe  Fe23  1  0.66881132  0.33741045  0.33377635  1
  Fe  Fe24  1  0.66811353  0.66692853  0.00163031  1
  Cr  Cr25  1  0.83558888  0.83403530  0.16758975  1
  Ni  Ni26  1  0.66830975  0.66663820  0.33514272  1
  Ni  Ni27  1  0.16991541  0.16797150  0.50126239  1
  Fe  Fe28  1  0.00323687  1.00069713  0.66988587  1
  Fe  Fe29  1  0.16807277  0.16610714  0.83494794  1
  Fe  Fe30  1  0.16705609  0.50164662  0.50102612  1
  Cr  Cr31  1  1.00111373  0.33618492  0.66679199  1
  Cr  Cr32  1  0.16852294  0.50319687  0.83636924  1
  Cr  Cr33  1  0.16853997  0.83428571  0.50124326  1
  Ni  Ni34  1  0.99946897  0.66875058  0.66854971  1
  Fe  Fe35  1  0.16771087  0.83569552  0.83364296  1
  Ni  Ni36  1  0.50037022  0.16879104  0.50260542  1
  Ni  Ni37  1  0.33700101  0.00181191  0.66711355  1
  Ni  Ni38  1  0.50371159  0.16842020  0.83447236  1
  Fe  Fe39  1  0.50286301  0.50218848  0.50125880  1
  Cr  Cr40  1  0.33611774  0.33152997  0.66808342  1
  Fe  Fe41  1  0.50382976  0.50132031  0.83574857  1
  Fe  Fe42  1  0.50051271  0.83541508  0.50167464  1
  Fe  Fe43  1  0.33544544  0.66990365  0.66827324  1
  Fe  Fe44  1  0.50165463  0.83484770  0.83431854  1
  Cr  Cr45  1  0.83421733  0.16917379  0.50090097  1
  Fe  Fe46  1  0.66620997  0.00187208  0.66939877  1
  Fe  Fe47  1  0.83375732  0.16828226  0.83601098  1
  Fe  Fe48  1  0.83463861  0.50220147  0.50054895  1
  Fe  Fe49  1  0.66689682  0.33497429  0.66937186  1
  Fe  Fe50  1  0.83290966  0.50168438  0.83605270  1
  Cr  Cr51  1  0.83525434  0.83254694  0.50236801  1
  Fe  Fe52  1  0.66758714  0.66771232  0.66826504  1
  Fe  Fe53  1  0.83519384  0.83459446  0.83471150  1
" 