2342,Ni23Fe43Cr33_3,-224.800809620703, 171.891490424902,Ni23Fe43Cr33,"# generated using pymatgen
 data_Cr19Fe23Ni12
_symmetry_space_group_name_H-M   'P 1'
_cell_length_a   7.48110610
_cell_length_b   7.48110610
_cell_length_c   10.57988171
_cell_angle_alpha   90.00000000
_cell_angle_beta   90.00000000
_cell_angle_gamma   90.00000000
_symmetry_Int_Tables_number   1
_chemical_formula_structural   Cr19Fe23Ni12
_chemical_formula_sum   'Cr19 Fe23 Ni12'
_cell_volume   592.12369541
_cell_formula_units_Z   1
loop_
 _symmetry_equiv_pos_site_id
 _symmetry_equiv_pos_as_xyz
  1  'x, y, z'
loop_
 _atom_site_type_symbol
 _atom_site_label
 _atom_site_symmetry_multiplicity
 _atom_site_fract_x
 _atom_site_fract_y
 _atom_site_fract_z
 _atom_site_occupancy
  Cr  Cr0  1  0.00008909  -0.00081483  0.99812701  1
  Cr  Cr1  1  0.16894232  0.16710370  0.16531269  1
  Cr  Cr2  1  0.00045836  0.00029410  0.33332306  1
  Ni  Ni3  1  0.00369673  0.33349819  0.99800194  1
  Ni  Ni4  1  0.16675079  0.50000834  0.16336477  1
  Ni  Ni5  1  0.00124275  0.33337716  0.33523835  1
  Ni  Ni6  1  0.00453433  0.66400074  0.99903362  1
  Ni  Ni7  1  0.17033703  0.83002642  0.16465953  1
  Cr  Cr8  1  0.00278401  0.66333693  0.33084562  1
  Fe  Fe9  1  0.33178408  0.99805672  0.99837739  1
  Ni  Ni10  1  0.49640823  0.16564914  0.16467778  1
  Fe  Fe11  1  0.33164708  0.99592149  0.33197176  1
  Ni  Ni12  1  0.33145354  0.33314858  0.99668898  1
  Cr  Cr13  1  0.49676611  0.49562244  0.16463147  1
  Cr  Cr14  1  0.32983461  0.33507432  0.33333711  1
  Ni  Ni15  1  0.33007054  0.66443311  0.99895385  1
  Fe  Fe16  1  0.49378222  0.83296250  0.16585531  1
  Fe  Fe17  1  0.33062067  0.66731832  0.33198018  1
  Cr  Cr18  1  0.66295023  0.00012522  0.99811950  1
  Cr  Cr19  1  0.83112058  0.16968194  0.16514458  1
  Cr  Cr20  1  0.66419877  0.99854828  0.33118540  1
  Fe  Fe21  1  0.66370411  0.33219748  0.99682335  1
  Cr  Cr22  1  0.83530156  0.49746475  0.16455596  1
  Fe  Fe23  1  0.66787994  0.33250857  0.33399366  1
  Cr  Cr24  1  0.66250357  0.66761112  0.99845624  1
  Cr  Cr25  1  0.83546242  0.83006604  0.16377847  1
  Cr  Cr26  1  0.66246207  0.66587177  0.33404640  1
  Fe  Fe27  1  0.16476954  0.16516598  0.50095037  1
  Fe  Fe28  1  0.00138356  0.00088982  0.66565613  1
  Fe  Fe29  1  0.16639054  0.16710920  0.83194971  1
  Fe  Fe30  1  0.16574074  0.49905739  0.50035500  1
  Fe  Fe31  1  0.00013100  0.33252924  0.66508312  1
  Fe  Fe32  1  0.16785282  0.49889827  0.83374798  1
  Fe  Fe33  1  0.16840019  0.83330346  0.50001477  1
  Fe  Fe34  1  0.00080778  0.66393822  0.66582332  1
  Fe  Fe35  1  0.16882698  0.83121522  0.83301863  1
  Cr  Cr36  1  0.49691809  0.16510167  0.49717655  1
  Fe  Fe37  1  0.33228260  0.99834788  0.66658047  1
  Ni  Ni38  1  0.49447630  0.16671021  0.83399542  1
  Fe  Fe39  1  0.49842408  0.50105379  0.50022119  1
  Fe  Fe40  1  0.33150735  0.33317557  0.66737184  1
  Fe  Fe41  1  0.49648896  0.49944261  0.83245566  1
  Ni  Ni42  1  0.49459807  0.83057998  0.50006217  1
  Fe  Fe43  1  0.33316941  0.66548017  0.66625433  1
  Fe  Fe44  1  0.49560972  0.83130888  0.83081526  1
  Ni  Ni45  1  0.83471089  0.16865530  0.50008757  1
  Cr  Cr46  1  0.66540048  0.99891061  0.66733699  1
  Fe  Fe47  1  0.83312145  0.16761006  0.83214455  1
  Fe  Fe48  1  0.83241715  0.49792046  0.49986238  1
  Cr  Cr49  1  0.66399700  0.33323943  0.66593602  1
  Cr  Cr50  1  0.83415620  0.50014515  0.83424825  1
  Cr  Cr51  1  0.83288922  0.83128166  0.50180034  1
  Ni  Ni52  1  0.66282073  0.66520718  0.66489857  1
  Cr  Cr53  1  0.83518500  0.82989162  0.83093102  1
" 