7074,Ni23Fe50Cr25_15,-227.007929257993, 188.265547355617,Ni23Fe50Cr25,"# generated using pymatgen
 data_Cr5Fe9Ni4
_symmetry_space_group_name_H-M   'P 1'
_cell_length_a   7.46303012
_cell_length_b   7.46303012
_cell_length_c   10.55431842
_cell_angle_alpha   90.00000000
_cell_angle_beta   90.00000000
_cell_angle_gamma   90.00000000
_symmetry_Int_Tables_number   1
_chemical_formula_structural   Cr5Fe9Ni4
_chemical_formula_sum   'Cr15 Fe27 Ni12'
_cell_volume   587.84195836
_cell_formula_units_Z   3
loop_
 _symmetry_equiv_pos_site_id
 _symmetry_equiv_pos_as_xyz
  1  'x, y, z'
loop_
 _atom_site_type_symbol
 _atom_site_label
 _atom_site_symmetry_multiplicity
 _atom_site_fract_x
 _atom_site_fract_y
 _atom_site_fract_z
 _atom_site_occupancy
  Cr  Cr0  1  0.00049812  0.00051631  0.00129178  1
  Ni  Ni1  1  0.16792206  0.16706931  0.16817539  1
  Fe  Fe2  1  0.00208470  0.00167070  0.33360080  1
  Fe  Fe3  1  0.00288969  0.33454655  0.00098057  1
  Ni  Ni4  1  0.16667662  0.49833464  0.16601927  1
  Fe  Fe5  1  0.00149434  0.33114668  0.33402433  1
  Fe  Fe6  1  0.00282154  0.66664381  0.00032271  1
  Fe  Fe7  1  0.16719817  0.83415385  0.16718014  1
  Cr  Cr8  1  0.00076928  0.66786212  0.33370692  1
  Fe  Fe9  1  0.33441318  0.99962142  0.00139559  1
  Fe  Fe10  1  0.49932648  0.16647945  0.16679817  1
  Ni  Ni11  1  0.33151465  0.00279937  0.33330637  1
  Fe  Fe12  1  0.33171155  0.33420537  1.00008168  1
  Cr  Cr13  1  0.49889692  0.49865992  0.16652634  1
  Fe  Fe14  1  0.33290824  0.33107175  0.33397972  1
  Fe  Fe15  1  0.33177138  0.66698002  0.99866655  1
  Fe  Fe16  1  0.49855974  0.83618015  0.16550619  1
  Cr  Cr17  1  0.33332385  0.66732433  0.33367163  1
  Fe  Fe18  1  0.66586814  0.99956073  0.00153259  1
  Fe  Fe19  1  0.83414519  0.16735197  0.16695208  1
  Cr  Cr20  1  0.66729093  0.00087687  0.33182250  1
  Fe  Fe21  1  0.66620644  0.33191047  0.00099460  1
  Cr  Cr22  1  0.83531294  0.49921328  0.16643899  1
  Ni  Ni23  1  0.66709369  0.33182567  0.33509000  1
  Cr  Cr24  1  0.66570602  0.66883730  0.00048111  1
  Ni  Ni25  1  0.83391733  0.83585049  0.16636599  1
  Cr  Cr26  1  0.66671232  0.66685679  0.33450961  1
  Ni  Ni27  1  0.16769740  0.16500245  0.49817086  1
  Cr  Cr28  1  0.00104068  0.99917744  0.66639324  1
  Fe  Fe29  1  0.16893446  0.16768354  0.83488164  1
  Fe  Fe30  1  0.16682269  0.50098567  0.50095240  1
  Cr  Cr31  1  0.00174281  0.33369813  0.66664801  1
  Ni  Ni32  1  0.16794976  0.50290473  0.83465805  1
  Ni  Ni33  1  0.16769777  0.83495264  0.50096068  1
  Ni  Ni34  1  0.00201649  0.66835107  0.66767565  1
  Fe  Fe35  1  0.16906569  0.83086501  0.83241138  1
  Fe  Fe36  1  0.49932058  0.16645643  0.49977097  1
  Fe  Fe37  1  0.33341701  0.99713640  0.66547571  1
  Cr  Cr38  1  0.50035897  0.16561964  0.83356320  1
  Fe  Fe39  1  0.49947724  0.49897861  0.50055572  1
  Cr  Cr40  1  0.33358141  0.33471318  0.66680035  1
  Ni  Ni41  1  0.49778719  0.50175436  0.83361858  1
  Fe  Fe42  1  0.49731719  0.83537382  0.50195329  1
  Ni  Ni43  1  0.33330675  0.66770214  0.66816775  1
  Ni  Ni44  1  0.49826850  0.83380237  0.83309278  1
  Fe  Fe45  1  0.83365922  0.16746263  0.49965653  1
  Fe  Fe46  1  0.66557686  0.99925107  0.66603790  1
  Cr  Cr47  1  0.83233458  0.16697027  0.83393581  1
  Fe  Fe48  1  0.83450887  0.49897988  0.50023247  1
  Fe  Fe49  1  0.66624246  0.33412949  0.66489449  1
  Cr  Cr50  1  0.83507383  0.50055886  0.83421392  1
  Fe  Fe51  1  0.83566069  0.83436479  0.50069375  1
  Cr  Cr52  1  0.66553302  0.66756752  0.66581768  1
  Fe  Fe53  1  0.83310896  0.83254311  0.83388017  1
" 