5631,Ni23Fe74Cr2_12,-232.689213784003, 184.888463035372,Ni23Fe74Cr2,"# generated using pymatgen
 data_Cr(Fe10Ni3)2
_symmetry_space_group_name_H-M   'P 1'
_cell_length_a   7.40916640
_cell_length_b   7.40916640
_cell_length_c   10.47814361
_cell_angle_alpha   90.00000000
_cell_angle_beta   90.00000000
_cell_angle_gamma   90.00000000
_symmetry_Int_Tables_number   1
_chemical_formula_structural   Cr(Fe10Ni3)2
_chemical_formula_sum   'Cr2 Fe40 Ni12'
_cell_volume   575.20551775
_cell_formula_units_Z   2
loop_
 _symmetry_equiv_pos_site_id
 _symmetry_equiv_pos_as_xyz
  1  'x, y, z'
loop_
 _atom_site_type_symbol
 _atom_site_label
 _atom_site_symmetry_multiplicity
 _atom_site_fract_x
 _atom_site_fract_y
 _atom_site_fract_z
 _atom_site_occupancy
  Fe  Fe0  1  1.00380564  1.00341796  1.00329282  1
  Fe  Fe1  1  0.17015353  0.17193662  0.17005228  1
  Fe  Fe2  1  1.00157004  0.00473021  0.33693022  1
  Fe  Fe3  1  0.00418113  0.33794036  0.00456387  1
  Ni  Ni4  1  0.17000272  0.50453822  0.17126671  1
  Ni  Ni5  1  1.00364549  0.33859197  0.33718566  1
  Ni  Ni6  1  1.00372600  0.67029180  1.00376179  1
  Fe  Fe7  1  0.16983799  0.83608590  0.16987334  1
  Ni  Ni8  1  1.00252151  0.66852330  0.33672368  1
  Fe  Fe9  1  0.33713127  1.00366736  1.00386077  1
  Ni  Ni10  1  0.50506212  0.17094853  0.16958581  1
  Cr  Cr11  1  0.33845138  0.00481026  0.33631327  1
  Fe  Fe12  1  0.33678946  0.33772582  0.00442288  1
  Fe  Fe13  1  0.50339252  0.50335545  0.17085353  1
  Fe  Fe14  1  0.33642450  0.33941014  0.33679497  1
  Fe  Fe15  1  0.33653979  0.67032548  0.00414691  1
  Fe  Fe16  1  0.50419109  0.83664207  0.17022484  1
  Fe  Fe17  1  0.33727505  0.66764513  0.33662442  1
  Fe  Fe18  1  0.67078298  1.00366579  0.00440539  1
  Fe  Fe19  1  0.83734864  0.17113828  0.17074545  1
  Fe  Fe20  1  0.67256714  1.00387875  0.33687507  1
  Fe  Fe21  1  0.67074810  0.33735069  1.00360027  1
  Fe  Fe22  1  0.83790349  0.50366987  0.17115880  1
  Fe  Fe23  1  0.67110203  0.33757280  0.33783199  1
  Fe  Fe24  1  0.67099567  0.67070093  1.00332629  1
  Fe  Fe25  1  0.83768981  0.83691003  0.17043229  1
  Fe  Fe26  1  0.67103839  0.67026349  0.33847421  1
  Fe  Fe27  1  0.17005692  0.17295538  0.50500232  1
  Ni  Ni28  1  0.00490920  0.00452941  0.67077814  1
  Fe  Fe29  1  0.17057235  0.17000050  0.83666337  1
  Fe  Fe30  1  0.17062802  0.50283685  0.50275260  1
  Fe  Fe31  1  1.00330030  0.33684262  0.66995047  1
  Fe  Fe32  1  0.17036108  0.50414658  0.83825851  1
  Cr  Cr33  1  0.16999927  0.83658753  0.50474145  1
  Fe  Fe34  1  1.00251372  0.67008112  0.67131645  1
  Fe  Fe35  1  0.17029645  0.83757170  0.83690622  1
  Fe  Fe36  1  0.50485657  0.17159225  0.50457431  1
  Ni  Ni37  1  0.33737898  0.00482550  0.67196750  1
  Fe  Fe38  1  0.50384676  0.17064304  0.83752812  1
  Ni  Ni39  1  0.50477037  0.50393201  0.50350591  1
  Fe  Fe40  1  0.33784286  0.33694061  0.67049898  1
  Fe  Fe41  1  0.50439216  0.50383990  0.83637136  1
  Ni  Ni42  1  0.50569630  0.83656188  0.50509176  1
  Fe  Fe43  1  0.33896584  0.67032236  0.67095036  1
  Fe  Fe44  1  0.50381525  0.83723608  0.83640718  1
  Fe  Fe45  1  0.83680834  0.17105103  0.50408944  1
  Fe  Fe46  1  0.67033867  1.00367250  0.67043825  1
  Fe  Fe47  1  0.83730013  0.17057766  0.83688240  1
  Ni  Ni48  1  0.83685704  0.50317047  0.50414304  1
  Ni  Ni49  1  0.67030037  0.33863411  0.67045358  1
  Fe  Fe50  1  0.83696483  0.50411538  0.83664653  1
  Fe  Fe51  1  0.83507321  0.83612053  0.50402588  1
  Ni  Ni52  1  0.67059690  0.66937735  0.67039629  1
  Fe  Fe53  1  0.83760753  0.83702539  0.83725896  1
" 