5656,Ni23Fe50Cr25_19,-226.672864653701, 180.91060255136,Ni23Fe50Cr25,"# generated using pymatgen
 data_Cr5Fe9Ni4
_symmetry_space_group_name_H-M   'P 1'
_cell_length_a   7.45889427
_cell_length_b   7.45889427
_cell_length_c   10.54846944
_cell_angle_alpha   90.00000000
_cell_angle_beta   90.00000000
_cell_angle_gamma   90.00000000
_symmetry_Int_Tables_number   1
_chemical_formula_structural   Cr5Fe9Ni4
_chemical_formula_sum   'Cr15 Fe27 Ni12'
_cell_volume   586.86519154
_cell_formula_units_Z   3
loop_
 _symmetry_equiv_pos_site_id
 _symmetry_equiv_pos_as_xyz
  1  'x, y, z'
loop_
 _atom_site_type_symbol
 _atom_site_label
 _atom_site_symmetry_multiplicity
 _atom_site_fract_x
 _atom_site_fract_y
 _atom_site_fract_z
 _atom_site_occupancy
  Cr  Cr0  1  1.00047107  0.99965115  0.00200830  1
  Fe  Fe1  1  0.16844494  0.16899728  0.16959489  1
  Fe  Fe2  1  0.00085037  0.00117933  0.33211077  1
  Cr  Cr3  1  0.99983474  0.33466953  0.00179287  1
  Ni  Ni4  1  0.16673619  0.50066471  0.17105214  1
  Ni  Ni5  1  0.00248208  0.33266930  0.33386601  1
  Cr  Cr6  1  1.00008014  0.66720887  0.00225388  1
  Fe  Fe7  1  0.16796881  0.83210547  0.17072538  1
  Fe  Fe8  1  0.00177432  0.66575946  0.33261439  1
  Cr  Cr9  1  0.33448999  0.00055352  0.00141729  1
  Fe  Fe10  1  0.50174791  0.16813037  0.16799224  1
  Fe  Fe11  1  0.33539764  0.00205596  0.33276015  1
  Fe  Fe12  1  0.33500047  0.33322118  0.00139990  1
  Cr  Cr13  1  0.49997791  0.50059068  0.16680783  1
  Ni  Ni14  1  0.33094375  0.33245140  0.33442411  1
  Cr  Cr15  1  0.33382206  0.66828675  1.00000305  1
  Ni  Ni16  1  0.49960260  0.83685634  0.16911844  1
  Ni  Ni17  1  0.33308519  0.66706028  0.33350470  1
  Fe  Fe18  1  0.66615923  0.00107482  0.00275108  1
  Fe  Fe19  1  0.83143701  0.16812740  0.16960260  1
  Ni  Ni20  1  0.66671705  0.00153148  0.33333439  1
  Ni  Ni21  1  0.66676822  0.33233738  0.00075444  1
  Ni  Ni22  1  0.83516349  0.49814894  0.16908472  1
  Fe  Fe23  1  0.66633470  0.33200052  0.33194655  1
  Cr  Cr24  1  0.66785288  0.66675867  0.99812778  1
  Fe  Fe25  1  0.83270957  0.83369740  0.16911675  1
  Cr  Cr26  1  0.66708012  0.66954219  0.33450013  1
  Fe  Fe27  1  0.16849007  0.16943622  0.50045350  1
  Fe  Fe28  1  0.00097689  0.99756248  0.66687820  1
  Cr  Cr29  1  0.16856676  0.16614792  0.83157140  1
  Fe  Fe30  1  0.16734617  0.50004735  0.50014093  1
  Fe  Fe31  1  0.00160618  0.33632328  0.66618406  1
  Cr  Cr32  1  0.16781435  0.50176916  0.83274612  1
  Cr  Cr33  1  0.16863227  0.83335215  0.49903058  1
  Ni  Ni34  1  1.00004796  0.66763725  0.66717776  1
  Fe  Fe35  1  0.16678098  0.83411229  0.83051348  1
  Fe  Fe36  1  0.49912412  0.16565406  0.50043349  1
  Fe  Fe37  1  0.33596365  0.99919017  0.66734305  1
  Ni  Ni38  1  0.50160833  0.16606046  0.83394282  1
  Cr  Cr39  1  0.49875905  0.50123004  0.50001259  1
  Fe  Fe40  1  0.33474434  0.33389415  0.66574000  1
  Fe  Fe41  1  0.50195201  0.49679815  0.83207755  1
  Fe  Fe42  1  0.50107661  0.83594649  0.50009223  1
  Ni  Ni43  1  0.33487839  0.66824775  0.66774798  1
  Fe  Fe44  1  0.50131520  0.83500795  0.83186480  1
  Cr  Cr45  1  0.83374727  0.16664867  0.50083104  1
  Fe  Fe46  1  0.66469414  0.99788282  0.66630543  1
  Cr  Cr47  1  0.83208272  0.16735757  0.83368563  1
  Cr  Cr48  1  0.83509127  0.50023686  0.49990640  1
  Fe  Fe49  1  0.66514126  0.33551509  0.66921856  1
  Ni  Ni50  1  0.83218807  0.50123971  0.83188428  1
  Fe  Fe51  1  0.83333617  0.83467572  0.50161950  1
  Fe  Fe52  1  0.66694280  0.66845567  0.66845819  1
  Fe  Fe53  1  0.83367427  0.83375397  0.83098943  1
" 