1990,Ni23Fe77_17,-242.988995209906, 212.694579953294,Ni23Fe77,"# generated using pymatgen
 data_Fe2Ni7
_symmetry_space_group_name_H-M   'P 1'
_cell_length_a   7.42052669
_cell_length_b   7.42052669
_cell_length_c   10.49420948
_cell_angle_alpha   90.00000000
_cell_angle_beta   90.00000000
_cell_angle_gamma   90.00000000
_symmetry_Int_Tables_number   1
_chemical_formula_structural   Fe2Ni7
_chemical_formula_sum   'Fe12 Ni42'
_cell_volume   577.85542044
_cell_formula_units_Z   6
loop_
 _symmetry_equiv_pos_site_id
 _symmetry_equiv_pos_as_xyz
  1  'x, y, z'
loop_
 _atom_site_type_symbol
 _atom_site_label
 _atom_site_symmetry_multiplicity
 _atom_site_fract_x
 _atom_site_fract_y
 _atom_site_fract_z
 _atom_site_occupancy
  Ni  Ni0  1  1.00254520  1.00247680  1.00303121  1
  Ni  Ni1  1  0.16894577  0.16927140  0.16952722  1
  Ni  Ni2  1  0.00403290  1.00303203  0.33667063  1
  Ni  Ni3  1  1.00188748  0.33692556  1.00297375  1
  Fe  Fe4  1  0.17006199  0.50450252  0.16985979  1
  Ni  Ni5  1  1.00156107  0.33646957  0.33676145  1
  Ni  Ni6  1  0.00373112  0.67000470  0.00373730  1
  Ni  Ni7  1  0.16931553  0.83769073  0.16930507  1
  Ni  Ni8  1  0.00344479  0.66990529  0.33662823  1
  Ni  Ni9  1  0.33737980  1.00214821  1.00277720  1
  Fe  Fe10  1  0.50261533  0.16876008  0.16915300  1
  Ni  Ni11  1  0.33622934  1.00178264  0.33662334  1
  Ni  Ni12  1  0.33774608  0.33696015  0.00356453  1
  Ni  Ni13  1  0.50336748  0.50363096  0.16953774  1
  Fe  Fe14  1  0.33594475  0.33698699  0.33684590  1
  Ni  Ni15  1  0.33623042  0.67029633  0.00343787  1
  Ni  Ni16  1  0.50296548  0.83524540  0.16920701  1
  Ni  Ni17  1  0.33684779  0.67111955  0.33662473  1
  Ni  Ni18  1  0.66947803  0.00399185  0.00382841  1
  Fe  Fe19  1  0.83671907  0.16902464  0.16954384  1
  Fe  Fe20  1  0.67013279  1.00221784  0.33665867  1
  Ni  Ni21  1  0.66977010  0.33577486  1.00283539  1
  Fe  Fe22  1  0.83672800  0.50390959  0.17019457  1
  Ni  Ni23  1  0.67035563  0.33708719  0.33676215  1
  Fe  Fe24  1  0.66954640  0.67005715  0.00353262  1
  Ni  Ni25  1  0.83712499  0.83646513  0.16984330  1
  Ni  Ni26  1  0.66911221  0.66864818  0.33667185  1
  Ni  Ni27  1  0.16894817  0.16947182  0.50360542  1
  Ni  Ni28  1  1.00254392  1.00274963  0.66970143  1
  Fe  Fe29  1  0.16980370  0.16987089  0.83667566  1
  Ni  Ni30  1  0.16927948  0.50313183  0.50256115  1
  Ni  Ni31  1  1.00184517  0.33696070  0.66967103  1
  Fe  Fe32  1  0.16973645  0.50327021  0.83601879  1
  Ni  Ni33  1  0.17019788  0.83680095  0.50283633  1
  Ni  Ni34  1  0.00376254  0.66969308  0.66903546  1
  Fe  Fe35  1  0.16973385  0.83626287  0.83646995  1
  Ni  Ni36  1  0.50303194  0.16983834  0.50276412  1
  Ni  Ni37  1  0.33742249  1.00238340  0.67000147  1
  Ni  Ni38  1  0.50294838  0.17006484  0.83716208  1
  Ni  Ni39  1  0.50336835  0.50343265  0.50359675  1
  Ni  Ni40  1  0.33774960  0.33695540  0.66903232  1
  Ni  Ni41  1  0.50320686  0.50300049  0.83627021  1
  Ni  Ni42  1  0.50208292  0.83613166  0.50293622  1
  Ni  Ni43  1  0.33619869  0.67006510  0.66933614  1
  Ni  Ni44  1  0.50288622  0.83633888  0.83726193  1
  Ni  Ni45  1  0.83742315  0.17075641  0.50306749  1
  Ni  Ni46  1  0.66943799  0.00430317  0.66894861  1
  Ni  Ni47  1  0.83717993  0.17005845  0.83716163  1
  Ni  Ni48  1  0.83675452  0.50218320  0.50300696  1
  Ni  Ni49  1  0.66980998  0.33573602  0.66980967  1
  Ni  Ni50  1  0.83658717  0.50267434  0.83716088  1
  Fe  Fe51  1  0.83704995  0.83646655  0.50306280  1
  Fe  Fe52  1  0.66954586  0.66961115  0.66960690  1
  Ni  Ni53  1  0.83691428  0.83667158  0.83637079  1
" 