3349,Ni23Fe60Cr16_1,-229.501395128294, 189.267442813751,Ni23Fe60Cr16,"# generated using pymatgen
 data_Cr5(Fe8Ni3)2
_symmetry_space_group_name_H-M   'P 1'
_cell_length_a   7.43840790
_cell_length_b   7.43840790
_cell_length_c   10.51949733
_cell_angle_alpha   90.00000000
_cell_angle_beta   90.00000000
_cell_angle_gamma   90.00000000
_symmetry_Int_Tables_number   1
_chemical_formula_structural   Cr5(Fe8Ni3)2
_chemical_formula_sum   'Cr10 Fe32 Ni12'
_cell_volume   582.04286156
_cell_formula_units_Z   2
loop_
 _symmetry_equiv_pos_site_id
 _symmetry_equiv_pos_as_xyz
  1  'x, y, z'
loop_
 _atom_site_type_symbol
 _atom_site_label
 _atom_site_symmetry_multiplicity
 _atom_site_fract_x
 _atom_site_fract_y
 _atom_site_fract_z
 _atom_site_occupancy
  Fe  Fe0  1  0.00733789  0.99925842  0.00277207  1
  Ni  Ni1  1  0.17170034  0.16570633  0.16873858  1
  Ni  Ni2  1  0.99945829  1.00007240  0.33546388  1
  Cr  Cr3  1  0.00562461  0.33531445  1.00190270  1
  Ni  Ni4  1  0.17029789  0.50399321  0.16975426  1
  Fe  Fe5  1  0.00593248  0.33111142  0.33466696  1
  Fe  Fe6  1  0.00515080  0.67194486  1.00176649  1
  Fe  Fe7  1  0.16992135  0.83550649  0.16888842  1
  Fe  Fe8  1  0.00583156  0.67025892  0.33591216  1
  Ni  Ni9  1  0.33633399  1.00119185  0.00492675  1
  Ni  Ni10  1  0.49855320  0.16835910  0.17058846  1
  Fe  Fe11  1  0.33341382  0.00326254  0.33514895  1
  Ni  Ni12  1  0.33446593  0.33651194  0.00462482  1
  Ni  Ni13  1  0.50040590  0.50236027  0.16671969  1
  Ni  Ni14  1  0.33529693  0.33682128  0.33216538  1
  Ni  Ni15  1  0.33481398  0.66795517  1.00166063  1
  Fe  Fe16  1  0.49851619  0.83430436  0.16960204  1
  Fe  Fe17  1  0.33463472  0.66957022  0.33343783  1
  Cr  Cr18  1  0.67023170  0.99971370  0.00529994  1
  Cr  Cr19  1  0.83600325  0.16834000  0.16836687  1
  Fe  Fe20  1  0.66721332  0.00310947  0.33625045  1
  Fe  Fe21  1  0.66359690  0.33580163  0.00326147  1
  Cr  Cr22  1  0.83467785  0.50423932  0.17122515  1
  Fe  Fe23  1  0.66575182  0.33179106  0.33492477  1
  Fe  Fe24  1  0.66470249  0.66866793  0.00263382  1
  Fe  Fe25  1  0.83708361  0.83450919  0.17094639  1
  Fe  Fe26  1  0.66543955  0.67168395  0.33384565  1
  Fe  Fe27  1  0.16862800  0.16796070  0.49879724  1
  Fe  Fe28  1  0.00436685  0.00269875  0.66675226  1
  Fe  Fe29  1  0.16861206  0.16485833  0.83712393  1
  Fe  Fe30  1  0.16844501  0.50071117  0.49815048  1
  Fe  Fe31  1  1.00115038  0.33034474  0.66914656  1
  Fe  Fe32  1  0.17074990  0.50352617  0.83733068  1
  Fe  Fe33  1  0.16969902  0.83719065  0.50062489  1
  Cr  Cr34  1  0.00315165  0.66724338  0.66679965  1
  Fe  Fe35  1  0.17181786  0.83784441  0.83557109  1
  Fe  Fe36  1  0.50247755  0.16787956  0.50057465  1
  Ni  Ni37  1  0.33716745  0.00280380  0.66557436  1
  Cr  Cr38  1  0.50037278  0.16711080  0.83646767  1
  Cr  Cr39  1  0.50126633  0.50446397  0.50348930  1
  Cr  Cr40  1  0.33130125  0.33683948  0.66900133  1
  Fe  Fe41  1  0.49912292  0.50361803  0.83693745  1
  Fe  Fe42  1  0.50221000  0.83837333  0.50168412  1
  Fe  Fe43  1  0.33610150  0.67392336  0.67007590  1
  Fe  Fe44  1  0.50064371  0.83497130  0.83466496  1
  Ni  Ni45  1  0.83691318  0.16697014  0.50339600  1
  Ni  Ni46  1  0.66989376  1.00026884  0.66585926  1
  Fe  Fe47  1  0.83639469  0.16509700  0.83365660  1
  Cr  Cr48  1  0.83498980  0.49933631  0.49842651  1
  Fe  Fe49  1  0.66865608  0.33106597  0.66816465  1
  Cr  Cr50  1  0.83185950  0.50101455  0.83614739  1
  Fe  Fe51  1  0.83408135  0.83689571  0.50007164  1
  Fe  Fe52  1  0.66613698  0.67192984  0.66924822  1
  Fe  Fe53  1  0.83535678  0.83765697  0.83472531  1
" 