2836,Ni23Fe43Cr33_8,-224.99721538422, 184.846206186517,Ni23Fe43Cr33,"# generated using pymatgen
 data_Cr19Fe23Ni12
_symmetry_space_group_name_H-M   'P 1'
_cell_length_a   7.47995618
_cell_length_b   7.47995618
_cell_length_c   10.57825548
_cell_angle_alpha   90.00000000
_cell_angle_beta   90.00000000
_cell_angle_gamma   90.00000000
_symmetry_Int_Tables_number   1
_chemical_formula_structural   Cr19Fe23Ni12
_chemical_formula_sum   'Cr19 Fe23 Ni12'
_cell_volume   591.85069067
_cell_formula_units_Z   1
loop_
 _symmetry_equiv_pos_site_id
 _symmetry_equiv_pos_as_xyz
  1  'x, y, z'
loop_
 _atom_site_type_symbol
 _atom_site_label
 _atom_site_symmetry_multiplicity
 _atom_site_fract_x
 _atom_site_fract_y
 _atom_site_fract_z
 _atom_site_occupancy
  Cr  Cr0  1  -0.00009971  -0.00035989  0.99903416  1
  Fe  Fe1  1  0.17084948  0.16674999  0.16678835  1
  Cr  Cr2  1  0.99912680  0.00200895  0.33249900  1
  Cr  Cr3  1  0.99819660  0.33248974  0.00020135  1
  Cr  Cr4  1  0.16704669  0.49946678  0.16799989  1
  Fe  Fe5  1  0.99796399  0.33301405  0.33337255  1
  Fe  Fe6  1  0.99889925  0.66429999  0.99868960  1
  Cr  Cr7  1  0.16552455  0.83307597  0.16333808  1
  Ni  Ni8  1  -0.00010977  0.66424821  0.33068425  1
  Fe  Fe9  1  0.33542559  -0.00030989  0.99912810  1
  Ni  Ni10  1  0.49982591  0.16584099  0.16433142  1
  Fe  Fe11  1  0.33604472  0.00055872  0.33346042  1
  Ni  Ni12  1  0.33428686  0.33205686  0.00171234  1
  Fe  Fe13  1  0.49609675  0.49730793  0.16475472  1
  Fe  Fe14  1  0.33194733  0.32912567  0.33239140  1
  Fe  Fe15  1  0.33277723  0.66633002  0.99798448  1
  Fe  Fe16  1  0.49702643  0.83591687  0.16810615  1
  Fe  Fe17  1  0.33260224  0.66786247  0.33338542  1
  Cr  Cr18  1  0.66546060  0.99823483  0.99884356  1
  Fe  Fe19  1  0.83137452  0.16501146  0.16722026  1
  Ni  Ni20  1  0.66301933  0.00117225  0.33350380  1
  Fe  Fe21  1  0.66495654  0.33044149  0.00146536  1
  Fe  Fe22  1  0.83321248  0.49860723  0.16687857  1
  Cr  Cr23  1  0.66338429  0.33147405  0.32952104  1
  Cr  Cr24  1  0.66515930  0.66369392  0.00270897  1
  Fe  Fe25  1  0.83118759  0.83384197  0.16798871  1
  Cr  Cr26  1  0.66369766  0.66732975  0.33024052  1
  Ni  Ni27  1  0.16727762  0.16964520  0.49569331  1
  Cr  Cr28  1  0.00022009  0.00168262  0.66536971  1
  Cr  Cr29  1  0.16970743  0.16643533  0.83565003  1
  Fe  Fe30  1  0.16587672  0.49768803  0.49953181  1
  Fe  Fe31  1  0.00309772  0.33212735  0.66462152  1
  Cr  Cr32  1  0.16799156  0.50007786  0.83061295  1
  Cr  Cr33  1  0.16580100  0.82971270  0.49892406  1
  Ni  Ni34  1  0.00039005  0.66410851  0.66788911  1
  Ni  Ni35  1  0.16643072  0.83039537  0.83526737  1
  Ni  Ni36  1  0.49923771  0.16542429  0.49954118  1
  Cr  Cr37  1  0.33229036  -0.00050067  0.66601040  1
  Fe  Fe38  1  0.49958565  0.16550319  0.83257052  1
  Cr  Cr39  1  0.49682261  0.49880966  0.49871955  1
  Ni  Ni40  1  0.33395380  0.33231342  0.66269629  1
  Cr  Cr41  1  0.50000979  0.49416886  0.83338622  1
  Ni  Ni42  1  0.49857300  0.83447766  0.49922268  1
  Ni  Ni43  1  0.33265354  0.66461993  0.66555001  1
  Fe  Fe44  1  0.49625807  0.83096027  0.83123660  1
  Ni  Ni45  1  0.83092296  0.16748346  0.49970710  1
  Fe  Fe46  1  0.66318842  0.00048026  0.66389759  1
  Fe  Fe47  1  0.83011379  0.16885863  0.82999457  1
  Cr  Cr48  1  0.83414523  0.49965300  0.50201787  1
  Fe  Fe49  1  0.66515766  0.32999362  0.66523346  1
  Fe  Fe50  1  0.83317511  0.49792959  0.83006167  1
  Cr  Cr51  1  0.83031405  0.83328619  0.49821939  1
  Fe  Fe52  1  0.66215756  0.66660716  0.66603602  1
  Cr  Cr53  1  0.83316913  0.83197274  0.82951121  1
" 