939,Ni23Fe77_7,-243.205646747375, 212.3503873636,Ni23Fe77,"# generated using pymatgen
 data_Fe2Ni7
_symmetry_space_group_name_H-M   'P 1'
_cell_length_a   7.41943133
_cell_length_b   7.41943133
_cell_length_c   10.49266041
_cell_angle_alpha   90.00000000
_cell_angle_beta   90.00000000
_cell_angle_gamma   90.00000000
_symmetry_Int_Tables_number   1
_chemical_formula_structural   Fe2Ni7
_chemical_formula_sum   'Fe12 Ni42'
_cell_volume   577.59956406
_cell_formula_units_Z   6
loop_
 _symmetry_equiv_pos_site_id
 _symmetry_equiv_pos_as_xyz
  1  'x, y, z'
loop_
 _atom_site_type_symbol
 _atom_site_label
 _atom_site_symmetry_multiplicity
 _atom_site_fract_x
 _atom_site_fract_y
 _atom_site_fract_z
 _atom_site_occupancy
  Ni  Ni0  1  1.00318093  1.00292058  1.00282537  1
  Ni  Ni1  1  0.17078840  0.17057691  0.17006185  1
  Ni  Ni2  1  1.00295053  0.00360492  0.33651458  1
  Ni  Ni3  1  0.00321546  0.33719620  1.00288106  1
  Ni  Ni4  1  0.17041626  0.50261017  0.17051063  1
  Ni  Ni5  1  0.00387089  0.33680623  0.33620292  1
  Ni  Ni6  1  1.00284036  0.66950975  1.00257207  1
  Ni  Ni7  1  0.16951278  0.83643981  0.17025924  1
  Ni  Ni8  1  1.00261280  0.66921526  0.33752152  1
  Ni  Ni9  1  0.33744225  0.00384477  0.00335923  1
  Ni  Ni10  1  0.50288066  0.17020513  0.17034878  1
  Ni  Ni11  1  0.33723105  0.00363477  0.33626710  1
  Ni  Ni12  1  0.33707118  0.33593739  1.00239829  1
  Ni  Ni13  1  0.50286929  0.50260352  0.16983452  1
  Ni  Ni14  1  0.33601301  0.33647629  0.33691854  1
  Fe  Fe15  1  0.33576190  0.66999859  0.00347188  1
  Ni  Ni16  1  0.50413631  0.83681839  0.17043165  1
  Ni  Ni17  1  0.33723728  0.66951582  0.33636720  1
  Ni  Ni18  1  0.66900516  0.00347786  1.00234414  1
  Fe  Fe19  1  0.83666310  0.16909183  0.16961262  1
  Ni  Ni20  1  0.66944354  1.00237620  0.33694760  1
  Ni  Ni21  1  0.66934275  0.33627413  0.00324845  1
  Fe  Fe22  1  0.83692715  0.50379740  0.16980559  1
  Fe  Fe23  1  0.66974109  0.33654084  0.33615160  1
  Fe  Fe24  1  0.67045980  0.67032704  0.00320912  1
  Ni  Ni25  1  0.83597683  0.83644811  0.17017445  1
  Ni  Ni26  1  0.66977674  0.67043353  0.33614042  1
  Ni  Ni27  1  0.17009568  0.17024233  0.50310846  1
  Ni  Ni28  1  0.00368080  0.00393701  0.67028428  1
  Ni  Ni29  1  0.17047115  0.17053363  0.83645462  1
  Ni  Ni30  1  0.16976873  0.50318082  0.50285408  1
  Ni  Ni31  1  1.00276586  0.33651493  0.67053630  1
  Ni  Ni32  1  0.16921101  0.50294865  0.83626299  1
  Ni  Ni33  1  0.16979894  0.83620609  0.50279982  1
  Ni  Ni34  1  1.00244798  0.66917441  0.66952764  1
  Ni  Ni35  1  0.17013440  0.83614660  0.83656995  1
  Fe  Fe36  1  0.50276142  0.16942986  0.50269804  1
  Ni  Ni37  1  0.33651020  1.00304473  0.67000533  1
  Ni  Ni38  1  0.50330838  0.16931758  0.83652331  1
  Fe  Fe39  1  0.50309421  0.50398525  0.50242563  1
  Fe  Fe40  1  0.33486194  0.33688308  0.67006272  1
  Fe  Fe41  1  0.50334585  0.50321278  0.83693278  1
  Fe  Fe42  1  0.50301833  0.83621092  0.50309203  1
  Ni  Ni43  1  0.33736243  0.67044149  0.67021022  1
  Ni  Ni44  1  0.50363883  0.83737431  0.83675905  1
  Ni  Ni45  1  0.83631478  0.16991123  0.50287663  1
  Fe  Fe46  1  0.67078158  1.00216563  0.67039033  1
  Ni  Ni47  1  0.83584794  0.17023731  0.83671926  1
  Ni  Ni48  1  0.83660688  0.50354012  0.50257008  1
  Fe  Fe49  1  0.67109530  0.33687102  0.67065752  1
  Ni  Ni50  1  0.83706981  0.50327547  0.83658015  1
  Ni  Ni51  1  0.83624608  0.83617202  0.50352688  1
  Ni  Ni52  1  0.66981698  0.66952935  0.67054395  1
  Ni  Ni53  1  0.83585709  0.83611200  0.83592759  1
" 