83,Ni23Fe19Cr57_7,-216.056937405979, 165.613214206389,Ni23Fe19Cr57,"# generated using pymatgen
 data_Cr16Fe5Ni6
_symmetry_space_group_name_H-M   'P 1'
_cell_length_a   7.53478269
_cell_length_b   7.53478269
_cell_length_c   10.65579187
_cell_angle_alpha   90.00000000
_cell_angle_beta   90.00000000
_cell_angle_gamma   90.00000000
_symmetry_Int_Tables_number   1
_chemical_formula_structural   Cr16Fe5Ni6
_chemical_formula_sum   'Cr32 Fe10 Ni12'
_cell_volume   604.96074027
_cell_formula_units_Z   2
loop_
 _symmetry_equiv_pos_site_id
 _symmetry_equiv_pos_as_xyz
  1  'x, y, z'
loop_
 _atom_site_type_symbol
 _atom_site_label
 _atom_site_symmetry_multiplicity
 _atom_site_fract_x
 _atom_site_fract_y
 _atom_site_fract_z
 _atom_site_occupancy
  Ni  Ni0  1  -0.00247657  -0.00112327  -0.00431125  1
  Ni  Ni1  1  0.16135212  0.15895323  0.15702130  1
  Ni  Ni2  1  0.99500664  0.00023882  0.32507046  1
  Ni  Ni3  1  -0.00364712  0.32331590  0.99442034  1
  Cr  Cr4  1  0.16237134  0.49563580  0.15894066  1
  Cr  Cr5  1  -0.00165850  0.32771569  0.32885382  1
  Cr  Cr6  1  0.99136695  0.66261932  0.99471395  1
  Cr  Cr7  1  0.16164549  0.82995273  0.16391668  1
  Cr  Cr8  1  0.99297229  0.66012063  0.33222198  1
  Ni  Ni9  1  0.33024552  0.99530422  0.99528345  1
  Cr  Cr10  1  0.50024439  0.16340406  0.16278230  1
  Cr  Cr11  1  0.32637953  0.00022324  0.32602441  1
  Cr  Cr12  1  0.32849186  0.32534475  -0.00326355  1
  Ni  Ni13  1  0.49796437  0.49381702  0.15978823  1
  Cr  Cr14  1  0.32991250  0.32908537  0.32940008  1
  Fe  Fe15  1  0.32843140  0.66411936  -0.00272134  1
  Fe  Fe16  1  0.49447054  0.82859154  0.15993895  1
  Cr  Cr17  1  0.33209503  0.65902478  0.32744632  1
  Fe  Fe18  1  0.66300531  -0.00374892  0.99536834  1
  Fe  Fe19  1  0.83219240  0.16316430  0.16079422  1
  Cr  Cr20  1  0.66153206  -0.00419258  0.32778422  1
  Fe  Fe21  1  0.66299062  0.32577333  -0.00282654  1
  Cr  Cr22  1  0.82756198  0.49073021  0.16024436  1
  Ni  Ni23  1  0.66217984  0.33179453  0.32770752  1
  Cr  Cr24  1  0.65966897  0.66321071  0.99505232  1
  Cr  Cr25  1  0.83067438  0.83208737  0.16296794  1
  Cr  Cr26  1  0.66159468  0.65898486  0.32967445  1
  Cr  Cr27  1  0.16170772  0.16159581  0.49722230  1
  Cr  Cr28  1  0.99483795  -0.00375021  0.66449272  1
  Fe  Fe29  1  0.16245963  0.16337866  0.83108702  1
  Ni  Ni30  1  0.16353448  0.49419139  0.50018929  1
  Fe  Fe31  1  0.99497442  0.32761161  0.66187839  1
  Cr  Cr32  1  0.16217102  0.49548992  0.82813489  1
  Cr  Cr33  1  0.16196991  0.82746518  0.49115187  1
  Cr  Cr34  1  0.99258667  0.66044084  0.66045714  1
  Cr  Cr35  1  0.16364222  0.82801395  0.83065289  1
  Cr  Cr36  1  0.49819874  0.16385451  0.49762021  1
  Cr  Cr37  1  0.32866696  0.00020532  0.66411433  1
  Cr  Cr38  1  0.49690740  0.16256799  0.82693493  1
  Ni  Ni39  1  0.49484335  0.49419517  0.49621050  1
  Ni  Ni40  1  0.32592576  0.33218024  0.66145654  1
  Cr  Cr41  1  0.49280809  0.49502543  0.83002396  1
  Cr  Cr42  1  0.49403308  0.83101286  0.49728561  1
  Fe  Fe43  1  0.32989183  0.66166097  0.66070385  1
  Fe  Fe44  1  0.49554700  0.82997261  0.82976046  1
  Cr  Cr45  1  0.82641407  0.16212086  0.49315105  1
  Ni  Ni46  1  0.66266460  0.99356974  0.66672602  1
  Cr  Cr47  1  0.82783066  0.16144364  0.83134945  1
  Ni  Ni48  1  0.82834087  0.49229427  0.49542937  1
  Cr  Cr49  1  0.66080786  0.33100339  0.65989670  1
  Cr  Cr50  1  0.82928188  0.49110067  0.83068837  1
  Cr  Cr51  1  0.82944118  0.83238556  0.49518779  1
  Cr  Cr52  1  0.66341083  0.66359830  0.66242826  1
  Fe  Fe53  1  0.82781318  0.83050370  0.83075185  1
" 