8153,Ni23Fe74Cr2_4,-232.744988838193, 189.553270148672,Ni23Fe74Cr2,"# generated using pymatgen
 data_Cr(Fe10Ni3)2
_symmetry_space_group_name_H-M   'P 1'
_cell_length_a   7.40906449
_cell_length_b   7.40906449
_cell_length_c   10.47799949
_cell_angle_alpha   90.00000000
_cell_angle_beta   90.00000000
_cell_angle_gamma   90.00000000
_symmetry_Int_Tables_number   1
_chemical_formula_structural   Cr(Fe10Ni3)2
_chemical_formula_sum   'Cr2 Fe40 Ni12'
_cell_volume   575.18178338
_cell_formula_units_Z   2
loop_
 _symmetry_equiv_pos_site_id
 _symmetry_equiv_pos_as_xyz
  1  'x, y, z'
loop_
 _atom_site_type_symbol
 _atom_site_label
 _atom_site_symmetry_multiplicity
 _atom_site_fract_x
 _atom_site_fract_y
 _atom_site_fract_z
 _atom_site_occupancy
  Fe  Fe0  1  0.00422755  0.00539440  0.00437839  1
  Fe  Fe1  1  0.17098671  0.16929461  0.17061930  1
  Fe  Fe2  1  0.00426463  0.00533473  0.33627607  1
  Fe  Fe3  1  0.00393785  0.33659569  1.00335952  1
  Fe  Fe4  1  0.17219796  0.50442992  0.17119960  1
  Fe  Fe5  1  1.00339646  0.33720759  0.33780413  1
  Cr  Cr6  1  0.00581134  0.67097665  0.00398717  1
  Ni  Ni7  1  0.17188313  0.83785808  0.17176075  1
  Fe  Fe8  1  0.00474545  0.66919826  0.33616453  1
  Fe  Fe9  1  0.33778081  1.00348436  0.00430087  1
  Fe  Fe10  1  0.50388825  0.17000292  0.16999132  1
  Fe  Fe11  1  0.33769075  0.00391470  0.33657756  1
  Fe  Fe12  1  0.33744067  0.33787432  1.00328052  1
  Fe  Fe13  1  0.50372149  0.50476365  0.17096437  1
  Fe  Fe14  1  0.33766031  0.33772650  0.33795357  1
  Ni  Ni15  1  0.33749911  0.67109375  1.00385044  1
  Ni  Ni16  1  0.50364278  0.83728343  0.17048096  1
  Fe  Fe17  1  0.33772900  0.67009756  0.33673635  1
  Fe  Fe18  1  0.66973266  1.00366097  1.00332358  1
  Fe  Fe19  1  0.83686475  0.16993524  0.17124121  1
  Fe  Fe20  1  0.66978267  0.00526419  0.33697097  1
  Ni  Ni21  1  0.67036888  0.33613741  1.00313334  1
  Fe  Fe22  1  0.83582253  0.50362118  0.17088357  1
  Ni  Ni23  1  0.67094379  0.33675005  0.33892636  1
  Fe  Fe24  1  0.66845842  0.67008813  0.00398592  1
  Fe  Fe25  1  0.83653379  0.83818107  0.17173651  1
  Fe  Fe26  1  0.66926431  0.66922725  0.33635324  1
  Fe  Fe27  1  0.17031443  0.17135632  0.50383878  1
  Fe  Fe28  1  0.00398217  0.00490934  0.67108598  1
  Fe  Fe29  1  0.17052249  0.17157425  0.83728096  1
  Ni  Ni30  1  0.17179281  0.50378312  0.50333350  1
  Fe  Fe31  1  1.00352401  0.33725052  0.67057140  1
  Ni  Ni32  1  0.17063737  0.50340194  0.83727569  1
  Fe  Fe33  1  0.17222798  0.83676097  0.50332409  1
  Fe  Fe34  1  0.00451044  0.66958409  0.67196730  1
  Fe  Fe35  1  0.17157672  0.83739043  0.83717761  1
  Fe  Fe36  1  0.50458224  0.17143085  0.50450080  1
  Fe  Fe37  1  0.33804398  0.00412227  0.67086330  1
  Ni  Ni38  1  0.50441860  0.16982357  0.83747296  1
  Ni  Ni39  1  0.50252112  0.50341624  0.50433333  1
  Fe  Fe40  1  0.33761037  0.33714113  0.67050676  1
  Fe  Fe41  1  0.50391098  0.50337970  0.83732578  1
  Fe  Fe42  1  0.50242774  0.83692817  0.50371512  1
  Fe  Fe43  1  0.33740722  0.67047393  0.67070157  1
  Fe  Fe44  1  0.50394586  0.83674393  0.83768440  1
  Ni  Ni45  1  0.83670494  0.17125089  0.50434785  1
  Ni  Ni46  1  0.66975134  0.00564629  0.67095913  1
  Fe  Fe47  1  0.83682545  0.17154028  0.83673481  1
  Fe  Fe48  1  0.83700634  0.50147199  0.50403816  1
  Fe  Fe49  1  0.67060393  0.33661580  0.67054405  1
  Ni  Ni50  1  0.83741892  0.50329717  0.83528669  1
  Cr  Cr51  1  0.83671824  0.83872707  0.50309502  1
  Fe  Fe52  1  0.66981896  0.67001709  0.67139397  1
  Fe  Fe53  1  0.83622046  0.83786725  0.83570208  1
" 