3521,Ni23Fe60Cr16_13,-228.803415270577, 183.929134857784,Ni23Fe60Cr16,"# generated using pymatgen
 data_Cr5(Fe8Ni3)2
_symmetry_space_group_name_H-M   'P 1'
_cell_length_a   7.43954650
_cell_length_b   7.43954650
_cell_length_c   10.52110756
_cell_angle_alpha   90.00000000
_cell_angle_beta   90.00000000
_cell_angle_gamma   90.00000000
_symmetry_Int_Tables_number   1
_chemical_formula_structural   Cr5(Fe8Ni3)2
_chemical_formula_sum   'Cr10 Fe32 Ni12'
_cell_volume   582.31018383
_cell_formula_units_Z   2
loop_
 _symmetry_equiv_pos_site_id
 _symmetry_equiv_pos_as_xyz
  1  'x, y, z'
loop_
 _atom_site_type_symbol
 _atom_site_label
 _atom_site_symmetry_multiplicity
 _atom_site_fract_x
 _atom_site_fract_y
 _atom_site_fract_z
 _atom_site_occupancy
  Fe  Fe0  1  0.00517393  0.99999257  1.00089673  1
  Fe  Fe1  1  0.17192354  0.16729367  0.16897247  1
  Fe  Fe2  1  0.00513864  1.00156919  0.33500267  1
  Cr  Cr3  1  1.00183237  0.33749686  0.00295915  1
  Ni  Ni4  1  0.16924316  0.50271683  0.16968340  1
  Fe  Fe5  1  0.00305855  0.33725782  0.33508251  1
  Ni  Ni6  1  1.00049821  0.66912127  0.00322548  1
  Ni  Ni7  1  0.16800535  0.83414074  0.16779829  1
  Ni  Ni8  1  0.00192162  0.66647489  0.33458297  1
  Ni  Ni9  1  0.33473410  0.00324297  1.00098526  1
  Fe  Fe10  1  0.49887056  0.16833005  0.16858336  1
  Ni  Ni11  1  0.33473593  0.00297414  0.33608858  1
  Ni  Ni12  1  0.33688412  0.33093180  0.00262271  1
  Cr  Cr13  1  0.49941478  0.50001925  0.16741756  1
  Fe  Fe14  1  0.33425416  0.33460914  0.33567086  1
  Fe  Fe15  1  0.33341644  0.66940701  1.00131392  1
  Cr  Cr16  1  0.50065207  0.83590235  0.16786957  1
  Fe  Fe17  1  0.33306372  0.66876162  0.33622775  1
  Fe  Fe18  1  0.66666219  0.00301916  1.00022796  1
  Cr  Cr19  1  0.83378287  0.16759435  0.16953350  1
  Fe  Fe20  1  0.66617849  0.00275823  0.33606019  1
  Fe  Fe21  1  0.66653414  0.33572094  1.00089395  1
  Fe  Fe22  1  0.83684299  0.50399027  0.16986512  1
  Ni  Ni23  1  0.66857665  0.33640424  0.33566923  1
  Ni  Ni24  1  0.67068169  0.66696497  1.00051520  1
  Cr  Cr25  1  0.83701336  0.83546387  0.16894811  1
  Fe  Fe26  1  0.66883262  0.66668723  0.33660303  1
  Fe  Fe27  1  0.16913894  0.16960267  0.50129342  1
  Fe  Fe28  1  0.00338524  0.00297120  0.66965310  1
  Fe  Fe29  1  0.16920328  0.16655011  0.83528075  1
  Fe  Fe30  1  0.16750679  0.50178551  0.50164211  1
  Fe  Fe31  1  0.00224398  0.33515250  0.66837136  1
  Cr  Cr32  1  0.17181135  0.50308140  0.83446129  1
  Fe  Fe33  1  0.16843790  0.83415568  0.50053009  1
  Fe  Fe34  1  0.00335567  0.66742802  0.66771479  1
  Ni  Ni35  1  0.16881459  0.83558967  0.83653714  1
  Fe  Fe36  1  0.50156802  0.16986741  0.50074976  1
  Cr  Cr37  1  0.33485967  0.00222185  0.66859879  1
  Fe  Fe38  1  0.50116096  0.16903399  0.83621140  1
  Fe  Fe39  1  0.50290911  0.50123106  0.50185026  1
  Ni  Ni40  1  0.33592559  0.33445102  0.66688730  1
  Fe  Fe41  1  0.50273708  0.50222607  0.83557581  1
  Fe  Fe42  1  0.50171164  0.83444679  0.50065464  1
  Fe  Fe43  1  0.33569636  0.66754488  0.66799941  1
  Fe  Fe44  1  0.50054709  0.83427708  0.83660489  1
  Cr  Cr45  1  0.83502846  0.16864265  0.50268882  1
  Fe  Fe46  1  0.66728793  0.00317464  0.66926035  1
  Fe  Fe47  1  0.83518019  0.16873747  0.83429090  1
  Ni  Ni48  1  0.83491579  0.50143773  0.50150162  1
  Fe  Fe49  1  0.66740714  0.33597323  0.66835826  1
  Fe  Fe50  1  0.83342646  0.50235195  0.83443560  1
  Cr  Cr51  1  0.83496217  0.83557279  0.50084267  1
  Fe  Fe52  1  0.66649824  0.66640193  0.66875891  1
  Cr  Cr53  1  0.83616259  0.83705378  0.83575551  1
" 