2814,Ni23Fe43Cr33_4,-224.952203659462, 185.360052903598,Ni23Fe43Cr33,"# generated using pymatgen
 data_Cr19Fe23Ni12
_symmetry_space_group_name_H-M   'P 1'
_cell_length_a   7.47816383
_cell_length_b   7.47816383
_cell_length_c   10.57572071
_cell_angle_alpha   90.00000000
_cell_angle_beta   90.00000000
_cell_angle_gamma   90.00000000
_symmetry_Int_Tables_number   1
_chemical_formula_structural   Cr19Fe23Ni12
_chemical_formula_sum   'Cr19 Fe23 Ni12'
_cell_volume   591.42533331
_cell_formula_units_Z   1
loop_
 _symmetry_equiv_pos_site_id
 _symmetry_equiv_pos_as_xyz
  1  'x, y, z'
loop_
 _atom_site_type_symbol
 _atom_site_label
 _atom_site_symmetry_multiplicity
 _atom_site_fract_x
 _atom_site_fract_y
 _atom_site_fract_z
 _atom_site_occupancy
  Fe  Fe0  1  0.99757009  0.99808252  0.99853613  1
  Cr  Cr1  1  0.16566106  0.16507429  0.16700428  1
  Cr  Cr2  1  0.99671056  -0.00051059  0.33532155  1
  Fe  Fe3  1  0.99706535  0.33426517  0.99884243  1
  Fe  Fe4  1  0.16285481  0.49833263  0.16581816  1
  Fe  Fe5  1  0.99712155  0.33369714  0.33226976  1
  Fe  Fe6  1  0.99779973  0.66537401  0.99852198  1
  Cr  Cr7  1  0.16540233  0.83433903  0.16470781  1
  Cr  Cr8  1  -0.00034879  0.66577033  0.33194049  1
  Fe  Fe9  1  0.33386577  0.99905637  0.99572310  1
  Cr  Cr10  1  0.49938289  0.16575619  0.16529453  1
  Ni  Ni11  1  0.33226142  -0.00051568  0.33369686  1
  Cr  Cr12  1  0.33096763  0.33335820  0.99913018  1
  Fe  Fe13  1  0.50143735  0.49740676  0.16666641  1
  Fe  Fe14  1  0.33359687  0.33324955  0.33296228  1
  Cr  Cr15  1  0.33084884  0.66353630  -0.00063439  1
  Cr  Cr16  1  0.49860500  0.83486319  0.16555284  1
  Cr  Cr17  1  0.33264074  0.66305796  0.33388265  1
  Ni  Ni18  1  0.66881181  -0.00027445  0.99925560  1
  Fe  Fe19  1  0.83215382  0.16631585  0.16408996  1
  Cr  Cr20  1  0.66849526  0.99924079  0.33455921  1
  Fe  Fe21  1  0.66756619  0.33209177  0.00084403  1
  Ni  Ni22  1  0.83341784  0.49657783  0.16296071  1
  Ni  Ni23  1  0.66645047  0.33318233  0.33053942  1
  Cr  Cr24  1  0.66764986  0.66692760  0.00129366  1
  Ni  Ni25  1  0.83401314  0.83066244  0.16317730  1
  Cr  Cr26  1  0.66545793  0.66549221  0.33171737  1
  Cr  Cr27  1  0.16660550  0.16588780  0.49886104  1
  Cr  Cr28  1  -0.00051777  0.99866635  0.66337819  1
  Fe  Fe29  1  0.16764974  0.16667396  0.83118213  1
  Fe  Fe30  1  0.16747266  0.50035167  0.50232274  1
  Ni  Ni31  1  0.00250597  0.33536072  0.66679128  1
  Fe  Fe32  1  0.16300049  0.49864047  0.83026115  1
  Ni  Ni33  1  0.16909997  0.83183648  0.50145146  1
  Ni  Ni34  1  -0.00068295  0.66439922  0.66796041  1
  Fe  Fe35  1  0.16570395  0.83242202  0.83135968  1
  Cr  Cr36  1  0.49809755  0.16674146  0.50006523  1
  Ni  Ni37  1  0.33285618  -0.00029989  0.66916472  1
  Fe  Fe38  1  0.49774104  0.16418003  0.83236484  1
  Fe  Fe39  1  0.49772788  0.49995719  0.50168919  1
  Ni  Ni40  1  0.33054400  0.33365877  0.66628195  1
  Cr  Cr41  1  0.50289691  0.49889188  0.82818025  1
  Ni  Ni42  1  0.49548712  0.83151738  0.50183352  1
  Fe  Fe43  1  0.33105405  0.66720081  0.66473198  1
  Fe  Fe44  1  0.49964330  0.83473754  0.83160244  1
  Fe  Fe45  1  0.83244429  0.16792767  0.49988413  1
  Cr  Cr46  1  0.66539405  0.99698936  0.66385346  1
  Cr  Cr47  1  0.83233764  0.16982192  0.83297011  1
  Cr  Cr48  1  0.83218358  0.49766017  0.50404294  1
  Fe  Fe49  1  0.66624138  0.33359738  0.66523864  1
  Fe  Fe50  1  0.83516012  0.50106153  0.83098405  1
  Fe  Fe51  1  0.83277221  0.83055370  0.50089204  1
  Ni  Ni52  1  0.66631475  0.66674664  0.66547096  1
  Fe  Fe53  1  0.83267163  0.83027279  0.83337194  1
" 