6243,Ni23Fe77_18,-242.941261563028, 212.2702916283,Ni23Fe77,"# generated using pymatgen
 data_Fe2Ni7
_symmetry_space_group_name_H-M   'P 1'
_cell_length_a   7.42043479
_cell_length_b   7.42043479
_cell_length_c   10.49407952
_cell_angle_alpha   90.00000000
_cell_angle_beta   90.00000000
_cell_angle_gamma   90.00000000
_symmetry_Int_Tables_number   1
_chemical_formula_structural   Fe2Ni7
_chemical_formula_sum   'Fe12 Ni42'
_cell_volume   577.83395284
_cell_formula_units_Z   6
loop_
 _symmetry_equiv_pos_site_id
 _symmetry_equiv_pos_as_xyz
  1  'x, y, z'
loop_
 _atom_site_type_symbol
 _atom_site_label
 _atom_site_symmetry_multiplicity
 _atom_site_fract_x
 _atom_site_fract_y
 _atom_site_fract_z
 _atom_site_occupancy
  Ni  Ni0  1  1.00298159  1.00247878  0.00323750  1
  Ni  Ni1  1  0.16910747  0.16916539  0.17002104  1
  Fe  Fe2  1  0.00445768  0.00338389  0.33615377  1
  Ni  Ni3  1  1.00295236  0.33736040  0.00326711  1
  Fe  Fe4  1  0.16999720  0.50188826  0.17012220  1
  Ni  Ni5  1  0.00332997  0.33717784  0.33605834  1
  Ni  Ni6  1  1.00259677  0.66958167  0.00342741  1
  Fe  Fe7  1  0.17024125  0.83697036  0.16987399  1
  Ni  Ni8  1  1.00218902  0.66884969  0.33672828  1
  Ni  Ni9  1  0.33733053  0.00362368  0.00326883  1
  Ni  Ni10  1  0.50266480  0.16914230  0.16952548  1
  Ni  Ni11  1  0.33743581  0.00365067  0.33637793  1
  Ni  Ni12  1  0.33669024  0.33554032  0.00334256  1
  Ni  Ni13  1  0.50419424  0.50405841  0.16990950  1
  Ni  Ni14  1  0.33593352  0.33535940  0.33670025  1
  Fe  Fe15  1  0.33653647  0.66987337  1.00264376  1
  Ni  Ni16  1  0.50269342  0.83622281  0.16951606  1
  Ni  Ni17  1  0.33681845  0.67041093  0.33650748  1
  Ni  Ni18  1  0.66910790  0.00326926  0.00359143  1
  Ni  Ni19  1  0.83765205  0.17066898  0.16910254  1
  Fe  Fe20  1  0.66888087  1.00301109  0.33640595  1
  Ni  Ni21  1  0.66978037  0.33592510  0.00362320  1
  Ni  Ni22  1  0.83618484  0.50259544  0.16948598  1
  Fe  Fe23  1  0.66943906  0.33760717  0.33633867  1
  Fe  Fe24  1  0.67005726  0.66955787  1.00302622  1
  Fe  Fe25  1  0.83565359  0.83672713  0.16899045  1
  Ni  Ni26  1  0.67041418  0.67035473  0.33644687  1
  Ni  Ni27  1  0.16926749  0.16926849  0.50301603  1
  Fe  Fe28  1  0.00357380  0.00320783  0.67031026  1
  Ni  Ni29  1  0.16932217  0.16938934  0.83638658  1
  Ni  Ni30  1  0.16920954  0.50335950  0.50303835  1
  Ni  Ni31  1  1.00311454  0.33766170  0.67009771  1
  Ni  Ni32  1  0.16926474  0.50247950  0.83679356  1
  Ni  Ni33  1  0.17076985  0.83679473  0.50335922  1
  Ni  Ni34  1  1.00279524  0.66894793  0.66927069  1
  Ni  Ni35  1  0.16993595  0.83755408  0.83682371  1
  Ni  Ni36  1  0.50310178  0.16920409  0.50297537  1
  Ni  Ni37  1  0.33758760  1.00310720  0.66977646  1
  Fe  Fe38  1  0.50264296  0.16974247  0.83654106  1
  Ni  Ni39  1  0.50377593  0.50404269  0.50304599  1
  Ni  Ni40  1  0.33608894  0.33584336  0.66938017  1
  Ni  Ni41  1  0.50393990  0.50393768  0.83646427  1
  Ni  Ni42  1  0.50228085  0.83617725  0.50336379  1
  Ni  Ni43  1  0.33611690  0.67047223  0.66946266  1
  Ni  Ni44  1  0.50329680  0.83612540  0.83654083  1
  Ni  Ni45  1  0.83705529  0.17076547  0.50329435  1
  Ni  Ni46  1  0.66869243  1.00278522  0.66955384  1
  Fe  Fe47  1  0.83665440  0.16992595  0.83679213  1
  Ni  Ni48  1  0.83643600  0.50253792  0.50336473  1
  Ni  Ni49  1  0.67021815  0.33619329  0.66920364  1
  Ni  Ni50  1  0.83621816  0.50332689  0.83657144  1
  Fe  Fe51  1  0.83622444  0.83579463  0.50382620  1
  Ni  Ni52  1  0.67051047  0.67044334  0.67005815  1
  Ni  Ni53  1  0.83619018  0.83606236  0.83660146  1
" 