5685,Ni23Fe35Cr40_19,-222.579785030285, 185.380783256822,Ni23Fe35Cr40,"# generated using pymatgen
 data_Cr23Fe19Ni12
_symmetry_space_group_name_H-M   'P 1'
_cell_length_a   7.48717851
_cell_length_b   7.48717851
_cell_length_c   10.58846939
_cell_angle_alpha   90.00000000
_cell_angle_beta   90.00000000
_cell_angle_gamma   90.00000000
_symmetry_Int_Tables_number   1
_chemical_formula_structural   Cr23Fe19Ni12
_chemical_formula_sum   'Cr23 Fe19 Ni12'
_cell_volume   593.56674389
_cell_formula_units_Z   1
loop_
 _symmetry_equiv_pos_site_id
 _symmetry_equiv_pos_as_xyz
  1  'x, y, z'
loop_
 _atom_site_type_symbol
 _atom_site_label
 _atom_site_symmetry_multiplicity
 _atom_site_fract_x
 _atom_site_fract_y
 _atom_site_fract_z
 _atom_site_occupancy
  Fe  Fe0  1  -0.00056399  0.99405374  0.99864356  1
  Cr  Cr1  1  0.16222862  0.16632346  0.16282121  1
  Ni  Ni2  1  0.99630586  0.99679756  0.33491219  1
  Fe  Fe3  1  0.00001953  0.33453838  0.99653703  1
  Ni  Ni4  1  0.16577456  0.49780154  0.16712219  1
  Fe  Fe5  1  0.00018711  0.32937612  0.33430878  1
  Ni  Ni6  1  -0.00022676  0.66209313  0.99849969  1
  Fe  Fe7  1  0.16264354  0.82718490  0.16474641  1
  Cr  Cr8  1  0.00080582  0.66495636  0.33409891  1
  Cr  Cr9  1  0.33240798  0.99711201  -0.00065314  1
  Fe  Fe10  1  0.49994630  0.16758798  0.16574067  1
  Cr  Cr11  1  0.33140318  -0.00085393  0.32917012  1
  Cr  Cr12  1  0.33369832  0.33226456  0.99700234  1
  Cr  Cr13  1  0.49752131  0.50303157  0.16579544  1
  Cr  Cr14  1  0.33179256  0.33378277  0.33492647  1
  Ni  Ni15  1  0.32811918  0.66372916  -0.00106846  1
  Cr  Cr16  1  0.49700343  0.83141731  0.16685611  1
  Ni  Ni17  1  0.32799815  0.66461348  0.33311434  1
  Cr  Cr18  1  0.66461078  0.00062547  -0.00095270  1
  Cr  Cr19  1  0.83374270  0.16589355  0.16584575  1
  Ni  Ni20  1  0.66720488  0.00118872  0.33473481  1
  Fe  Fe21  1  0.66614118  0.33484757  0.99687299  1
  Cr  Cr22  1  0.83520023  0.49754973  0.16358504  1
  Cr  Cr23  1  0.66399740  0.33024459  0.33282420  1
  Cr  Cr24  1  0.66655144  0.66597382  0.99386944  1
  Cr  Cr25  1  0.83053119  0.83218429  0.16833565  1
  Fe  Fe26  1  0.66323878  0.66785199  0.33411716  1
  Cr  Cr27  1  0.16597780  0.16508938  0.50229197  1
  Fe  Fe28  1  0.00192215  0.99674441  0.66320880  1
  Fe  Fe29  1  0.16640967  0.16427676  0.82880318  1
  Fe  Fe30  1  0.16846995  0.50247881  0.50160745  1
  Cr  Cr31  1  0.99797173  0.33467554  0.66422968  1
  Cr  Cr32  1  0.16498843  0.49854572  0.82971716  1
  Fe  Fe33  1  0.16530965  0.83110954  0.50144739  1
  Ni  Ni34  1  0.99623240  0.66630391  0.66406283  1
  Cr  Cr35  1  0.16817994  0.83219833  0.83096031  1
  Fe  Fe36  1  0.50064025  0.16469429  0.50203523  1
  Ni  Ni37  1  0.33474845  -0.00132391  0.66616126  1
  Cr  Cr38  1  0.49838382  0.16470794  0.82885700  1
  Fe  Fe39  1  0.49579844  0.49917604  0.50055651  1
  Ni  Ni40  1  0.33531173  0.33239965  0.66412409  1
  Fe  Fe41  1  0.49858062  0.50135096  0.82934267  1
  Cr  Cr42  1  0.49780327  0.83044460  0.49890740  1
  Ni  Ni43  1  0.33148900  0.66537982  0.66551163  1
  Ni  Ni44  1  0.49702739  0.83046871  0.82987772  1
  Fe  Fe45  1  0.83056174  0.16212755  0.49952565  1
  Fe  Fe46  1  0.66453182  0.99720572  0.66383548  1
  Cr  Cr47  1  0.83563863  0.16707882  0.83142098  1
  Cr  Cr48  1  0.83070513  0.49944604  0.49769316  1
  Fe  Fe49  1  0.66340775  0.33484711  0.66475400  1
  Ni  Ni50  1  0.83131578  0.49773692  0.83202731  1
  Fe  Fe51  1  0.83263098  0.83445863  0.50022269  1
  Fe  Fe52  1  0.66259962  0.66290397  0.66658916  1
  Cr  Cr53  1  0.83248524  0.83070957  0.82782777  1
" 