3485,Ni23Fe19Cr57_3,-216.233514920277, 166.891215004276,Ni23Fe19Cr57,"# generated using pymatgen
 data_Cr16Fe5Ni6
_symmetry_space_group_name_H-M   'P 1'
_cell_length_a   7.53787444
_cell_length_b   7.53787444
_cell_length_c   10.66016426
_cell_angle_alpha   90.00000000
_cell_angle_beta   90.00000000
_cell_angle_gamma   90.00000000
_symmetry_Int_Tables_number   1
_chemical_formula_structural   Cr16Fe5Ni6
_chemical_formula_sum   'Cr32 Fe10 Ni12'
_cell_volume   605.70574747
_cell_formula_units_Z   2
loop_
 _symmetry_equiv_pos_site_id
 _symmetry_equiv_pos_as_xyz
  1  'x, y, z'
loop_
 _atom_site_type_symbol
 _atom_site_label
 _atom_site_symmetry_multiplicity
 _atom_site_fract_x
 _atom_site_fract_y
 _atom_site_fract_z
 _atom_site_occupancy
  Fe  Fe0  1  0.99334269  0.99430491  0.99415156  1
  Cr  Cr1  1  0.16013998  0.16060254  0.16026877  1
  Fe  Fe2  1  -0.00367190  -0.00442104  0.32971805  1
  Cr  Cr3  1  0.99276440  0.33196834  -0.00454621  1
  Cr  Cr4  1  0.16264070  0.49697743  0.16075685  1
  Cr  Cr5  1  0.99350853  0.32997512  0.32945499  1
  Fe  Fe6  1  0.99195484  0.66379431  0.99386914  1
  Cr  Cr7  1  0.15809412  0.82874456  0.16180128  1
  Ni  Ni8  1  0.99436581  0.66255250  0.32749190  1
  Cr  Cr9  1  0.33087942  0.99221978  0.99425776  1
  Cr  Cr10  1  0.49577127  0.16420777  0.16048508  1
  Cr  Cr11  1  0.32952675  0.99307878  0.33129879  1
  Fe  Fe12  1  0.32925947  0.32905021  0.99486041  1
  Cr  Cr13  1  0.49627180  0.49604962  0.16273956  1
  Cr  Cr14  1  0.32774870  0.32732113  0.32796087  1
  Cr  Cr15  1  0.32812410  0.66474426  0.99351409  1
  Cr  Cr16  1  0.49773003  0.82535849  0.16293232  1
  Cr  Cr17  1  0.32674582  0.66577934  0.33210526  1
  Cr  Cr18  1  0.66209973  0.99371156  0.99481295  1
  Ni  Ni19  1  0.83011464  0.16144656  0.16293085  1
  Cr  Cr20  1  0.66043951  -0.00357467  0.32762097  1
  Cr  Cr21  1  0.66598463  0.32878835  -0.00467717  1
  Fe  Fe22  1  0.82817729  0.49617952  0.16366183  1
  Ni  Ni23  1  0.66604920  0.32859738  0.32648105  1
  Fe  Fe24  1  0.66372776  0.66218073  0.99273982  1
  Cr  Cr25  1  0.82987066  0.82836380  0.16298945  1
  Fe  Fe26  1  0.66264221  0.66076931  0.32974187  1
  Ni  Ni27  1  0.16125134  0.15677549  0.49641725  1
  Fe  Fe28  1  -0.00272216  0.99209277  0.66171934  1
  Cr  Cr29  1  0.16158549  0.15977898  0.82874544  1
  Cr  Cr30  1  0.16264272  0.49746404  0.49526852  1
  Cr  Cr31  1  0.99332703  0.32951768  0.66073795  1
  Cr  Cr32  1  0.16356110  0.49631037  0.82983486  1
  Ni  Ni33  1  0.16132618  0.83067658  0.49713904  1
  Cr  Cr34  1  -0.00389567  0.66189895  0.66403251  1
  Fe  Fe35  1  0.16265523  0.82974954  0.82668002  1
  Cr  Cr36  1  0.49597210  0.16332409  0.49727834  1
  Ni  Ni37  1  0.32737777  0.98974117  0.66141617  1
  Cr  Cr38  1  0.49418999  0.16261024  0.82778879  1
  Cr  Cr39  1  0.49724420  0.49710028  0.49705080  1
  Cr  Cr40  1  0.32630915  0.32805241  0.66103173  1
  Cr  Cr41  1  0.49532427  0.49642582  0.82627272  1
  Ni  Ni42  1  0.49488685  0.82662628  0.49819379  1
  Ni  Ni43  1  0.32953675  0.66896025  0.66175402  1
  Ni  Ni44  1  0.49717250  0.82589544  0.82646366  1
  Cr  Cr45  1  0.82943128  0.16008489  0.49635330  1
  Cr  Cr46  1  0.65906523  0.99260646  0.66326291  1
  Cr  Cr47  1  0.82989073  0.15826189  0.82560124  1
  Cr  Cr48  1  0.82546051  0.49722231  0.49553168  1
  Ni  Ni49  1  0.66408593  0.33068214  0.66299111  1
  Fe  Fe50  1  0.82631479  0.49778276  0.82758456  1
  Cr  Cr51  1  0.82960470  0.82790824  0.49377322  1
  Ni  Ni52  1  0.66116930  0.66398533  0.66400932  1
  Ni  Ni53  1  0.82923508  0.82599955  0.82995020  1
" 