6268,Ni23Fe77_1,-243.396729102634, 213.098141151689,Ni23Fe77,"# generated using pymatgen
 data_Fe2Ni7
_symmetry_space_group_name_H-M   'P 1'
_cell_length_a   7.42145335
_cell_length_b   7.42145335
_cell_length_c   10.49551998
_cell_angle_alpha   90.00000000
_cell_angle_beta   90.00000000
_cell_angle_gamma   90.00000000
_symmetry_Int_Tables_number   1
_chemical_formula_structural   Fe2Ni7
_chemical_formula_sum   'Fe12 Ni42'
_cell_volume   578.07193205
_cell_formula_units_Z   6
loop_
 _symmetry_equiv_pos_site_id
 _symmetry_equiv_pos_as_xyz
  1  'x, y, z'
loop_
 _atom_site_type_symbol
 _atom_site_label
 _atom_site_symmetry_multiplicity
 _atom_site_fract_x
 _atom_site_fract_y
 _atom_site_fract_z
 _atom_site_occupancy
  Ni  Ni0  1  0.00443034  1.00301084  1.00239256  1
  Fe  Fe1  1  0.17029273  0.17065075  0.16973839  1
  Ni  Ni2  1  0.00392986  1.00283208  0.33742449  1
  Ni  Ni3  1  0.00325595  0.33665604  0.00310777  1
  Ni  Ni4  1  0.16918782  0.50363428  0.16963475  1
  Ni  Ni5  1  0.00358749  0.33704663  0.33640144  1
  Ni  Ni6  1  1.00263856  0.66955096  1.00189415  1
  Ni  Ni7  1  0.16918052  0.83670882  0.16970669  1
  Ni  Ni8  1  1.00216915  0.66933877  0.33734569  1
  Ni  Ni9  1  0.33573184  0.00307788  1.00239365  1
  Ni  Ni10  1  0.50344123  0.17005531  0.17029301  1
  Ni  Ni11  1  0.33624812  0.00365892  0.33705377  1
  Ni  Ni12  1  0.33659316  0.33627606  1.00227342  1
  Ni  Ni13  1  0.50380908  0.50164274  0.16939808  1
  Ni  Ni14  1  0.33628176  0.33590792  0.33686420  1
  Ni  Ni15  1  0.33714142  0.66986106  1.00272773  1
  Fe  Fe16  1  0.50258339  0.83549080  0.16980145  1
  Fe  Fe17  1  0.33609786  0.66949768  0.33622353  1
  Fe  Fe18  1  0.66925448  0.00320421  1.00258919  1
  Fe  Fe19  1  0.83658656  0.17095558  0.17053642  1
  Ni  Ni20  1  0.66903701  1.00224311  0.33686773  1
  Ni  Ni21  1  0.66936850  0.33806647  1.00223335  1
  Ni  Ni22  1  0.83621767  0.50282636  0.17004766  1
  Ni  Ni23  1  0.66934735  0.33766432  0.33755344  1
  Ni  Ni24  1  0.66943429  0.66868905  1.00276942  1
  Fe  Fe25  1  0.83664668  0.83518615  0.16997975  1
  Ni  Ni26  1  0.67017207  0.66930366  0.33670811  1
  Ni  Ni27  1  0.16902873  0.16909296  0.50189469  1
  Ni  Ni28  1  0.00393292  0.00381957  0.66939719  1
  Ni  Ni29  1  0.17032980  0.16915247  0.83758195  1
  Ni  Ni30  1  0.16951792  0.50254928  0.50239207  1
  Ni  Ni31  1  0.00363032  0.33633575  0.66970595  1
  Ni  Ni32  1  0.16918932  0.50264648  0.83718721  1
  Ni  Ni33  1  0.16955165  0.83757559  0.50310805  1
  Fe  Fe34  1  1.00257968  0.67071516  0.66973518  1
  Ni  Ni35  1  0.16922258  0.83741911  0.83639951  1
  Fe  Fe36  1  0.50300536  0.16918817  0.50245970  1
  Ni  Ni37  1  0.33624795  1.00298171  0.66976846  1
  Ni  Ni38  1  0.50260525  0.16946031  0.83615372  1
  Ni  Ni39  1  0.50375118  0.50313712  0.50239358  1
  Fe  Fe40  1  0.33616292  0.33567321  0.66998022  1
  Ni  Ni41  1  0.50380734  0.50240141  0.83742334  1
  Ni  Ni42  1  0.50344322  0.83671154  0.50223344  1
  Fe  Fe43  1  0.33646981  0.67071228  0.67016573  1
  Ni  Ni44  1  0.50346402  0.83735190  0.83755486  1
  Ni  Ni45  1  0.83680462  0.16939697  0.50272793  1
  Ni  Ni46  1  0.66903433  1.00148527  0.66995260  1
  Fe  Fe47  1  0.83695732  0.16974133  0.83585405  1
  Ni  Ni48  1  0.83594563  0.50261408  0.50239406  1
  Fe  Fe49  1  0.67022675  0.33585251  0.66980126  1
  Ni  Ni50  1  0.83621868  0.50350759  0.83677437  1
  Ni  Ni51  1  0.83621821  0.83720374  0.50227409  1
  Ni  Ni52  1  0.66933839  0.66989818  0.66973843  1
  Ni  Ni53  1  0.83652775  0.83621642  0.83686506  1
" 