9,Ni23Fe77_10,-242.748897883427, 209.791685743484,Ni23Fe77,"# generated using pymatgen
 data_Fe2Ni7
_symmetry_space_group_name_H-M   'P 1'
_cell_length_a   7.41871283
_cell_length_b   7.41871283
_cell_length_c   10.49164430
_cell_angle_alpha   90.00000000
_cell_angle_beta   90.00000000
_cell_angle_gamma   90.00000000
_symmetry_Int_Tables_number   1
_chemical_formula_structural   Fe2Ni7
_chemical_formula_sum   'Fe12 Ni42'
_cell_volume   577.43177557
_cell_formula_units_Z   6
loop_
 _symmetry_equiv_pos_site_id
 _symmetry_equiv_pos_as_xyz
  1  'x, y, z'
loop_
 _atom_site_type_symbol
 _atom_site_label
 _atom_site_symmetry_multiplicity
 _atom_site_fract_x
 _atom_site_fract_y
 _atom_site_fract_z
 _atom_site_occupancy
  Ni  Ni0  1  1.00282682  0.00355028  1.00219386  1
  Ni  Ni1  1  0.16862895  0.16842436  0.16989382  1
  Ni  Ni2  1  1.00214400  0.00367822  0.33779799  1
  Fe  Fe3  1  1.00303888  0.33636781  1.00295174  1
  Fe  Fe4  1  0.17052247  0.50355486  0.17027212  1
  Ni  Ni5  1  0.00437329  0.33567193  0.33576367  1
  Ni  Ni6  1  1.00305633  0.67045166  0.00387154  1
  Ni  Ni7  1  0.17085573  0.83798893  0.16961044  1
  Ni  Ni8  1  1.00265657  0.67051078  0.33692160  1
  Ni  Ni9  1  0.33647566  0.00418552  0.00360862  1
  Fe  Fe10  1  0.50285601  0.17061250  0.16942439  1
  Fe  Fe11  1  0.33455075  1.00186748  0.33677953  1
  Ni  Ni12  1  0.33741486  0.33669128  1.00304903  1
  Ni  Ni13  1  0.50491249  0.50497350  0.16994255  1
  Ni  Ni14  1  0.33694281  0.33640406  0.33711065  1
  Ni  Ni15  1  0.33705297  0.66892742  1.00323043  1
  Ni  Ni16  1  0.50214569  0.83566941  0.16976937  1
  Ni  Ni17  1  0.33745936  0.66834610  0.33695145  1
  Ni  Ni18  1  0.67047413  0.00401484  0.00388622  1
  Ni  Ni19  1  0.83829949  0.17102408  0.16982932  1
  Fe  Fe20  1  0.66990735  1.00270923  0.33625498  1
  Ni  Ni21  1  0.66893908  0.33639688  1.00285705  1
  Ni  Ni22  1  0.83601557  0.50260237  0.16908769  1
  Fe  Fe23  1  0.67091018  0.33869192  0.33584798  1
  Ni  Ni24  1  0.66975804  0.66952199  1.00286966  1
  Fe  Fe25  1  0.83716661  0.83651352  0.16913321  1
  Ni  Ni26  1  0.66975099  0.67060449  0.33674135  1
  Ni  Ni27  1  0.16956966  0.16922772  0.50318210  1
  Ni  Ni28  1  1.00295552  0.00438280  0.67002395  1
  Ni  Ni29  1  0.16962063  0.16949903  0.83663093  1
  Ni  Ni30  1  0.16870370  0.50315769  0.50170480  1
  Ni  Ni31  1  0.00371134  0.33639034  0.66997611  1
  Ni  Ni32  1  0.16926687  0.50264473  0.83739112  1
  Ni  Ni33  1  0.17047421  0.83715031  0.50407307  1
  Ni  Ni34  1  1.00321539  0.66889860  0.66917079  1
  Fe  Fe35  1  0.16989164  0.83618656  0.83634928  1
  Ni  Ni36  1  0.50287617  0.16929915  0.50195817  1
  Ni  Ni37  1  0.33734275  0.00384354  0.66976740  1
  Ni  Ni38  1  0.50292529  0.16860282  0.83770829  1
  Ni  Ni39  1  0.50475244  0.50372835  0.50381176  1
  Fe  Fe40  1  0.33592308  0.33653615  0.66964903  1
  Ni  Ni41  1  0.50359357  0.50436584  0.83610535  1
  Ni  Ni42  1  0.50267561  0.83656364  0.50300984  1
  Ni  Ni43  1  0.33707361  0.66932992  0.66953393  1
  Ni  Ni44  1  0.50357527  0.83680161  0.83707191  1
  Fe  Fe45  1  0.83681799  0.17060779  0.50342021  1
  Ni  Ni46  1  0.66938114  0.00350079  0.66990529  1
  Ni  Ni47  1  0.83720356  0.16967764  0.83634113  1
  Ni  Ni48  1  0.83657834  0.50283568  0.50335819  1
  Fe  Fe49  1  0.67010207  0.33648186  0.67105781  1
  Ni  Ni50  1  0.83684428  0.50372100  0.83713876  1
  Fe  Fe51  1  0.83658678  0.83570908  0.50454083  1
  Ni  Ni52  1  0.66944849  0.67037896  0.67038030  1
  Ni  Ni53  1  0.83566733  0.83643479  0.83700118  1
" 