3696,Ni23Fe19Cr57_1,-216.798679361995, 172.195918926666,Ni23Fe19Cr57,"# generated using pymatgen
 data_Cr16Fe5Ni6
_symmetry_space_group_name_H-M   'P 1'
_cell_length_a   7.53538191
_cell_length_b   7.53538191
_cell_length_c   10.65663929
_cell_angle_alpha   90.00000000
_cell_angle_beta   90.00000000
_cell_angle_gamma   90.00000000
_symmetry_Int_Tables_number   1
_chemical_formula_structural   Cr16Fe5Ni6
_chemical_formula_sum   'Cr32 Fe10 Ni12'
_cell_volume   605.10508473
_cell_formula_units_Z   2
loop_
 _symmetry_equiv_pos_site_id
 _symmetry_equiv_pos_as_xyz
  1  'x, y, z'
loop_
 _atom_site_type_symbol
 _atom_site_label
 _atom_site_symmetry_multiplicity
 _atom_site_fract_x
 _atom_site_fract_y
 _atom_site_fract_z
 _atom_site_occupancy
  Fe  Fe0  1  -0.00420161  0.99440940  0.99504245  1
  Ni  Ni1  1  0.15954394  0.16453697  0.15975555  1
  Cr  Cr2  1  -0.00221655  0.99334194  0.32952431  1
  Fe  Fe3  1  -0.00314470  0.32988746  0.99474573  1
  Cr  Cr4  1  0.16183071  0.49480332  0.15964878  1
  Fe  Fe5  1  -0.00345502  0.32897565  0.32796263  1
  Fe  Fe6  1  -0.00437883  0.66266745  0.99312373  1
  Cr  Cr7  1  0.16103907  0.82796152  0.15915305  1
  Cr  Cr8  1  -0.00297163  0.66193102  0.33275414  1
  Cr  Cr9  1  0.32877286  0.99338443  -0.00365078  1
  Cr  Cr10  1  0.49577865  0.16242477  0.16269437  1
  Cr  Cr11  1  0.32601932  0.99403069  0.32707448  1
  Fe  Fe12  1  0.33024088  0.32976312  -0.00305876  1
  Ni  Ni13  1  0.49636658  0.49683829  0.16126438  1
  Cr  Cr14  1  0.33052598  0.33145037  0.32683370  1
  Ni  Ni15  1  0.32696589  0.66055894  0.99464635  1
  Cr  Cr16  1  0.49716164  0.82439197  0.16065656  1
  Cr  Cr17  1  0.32767547  0.66110747  0.32883242  1
  Ni  Ni18  1  0.66284091  0.99496871  0.99347530  1
  Cr  Cr19  1  0.83075951  0.16240910  0.16261879  1
  Cr  Cr20  1  0.66258835  -0.00434641  0.33066520  1
  Cr  Cr21  1  0.66331674  0.33102730  0.99334845  1
  Cr  Cr22  1  0.82830538  0.49743937  0.16172689  1
  Ni  Ni23  1  0.66211806  0.33355301  0.32856349  1
  Fe  Fe24  1  0.65886748  0.66287975  0.99360463  1
  Cr  Cr25  1  0.82696877  0.82689850  0.16159299  1
  Fe  Fe26  1  0.66016200  0.65918336  0.32939850  1
  Cr  Cr27  1  0.16258511  0.16388034  0.49557453  1
  Cr  Cr28  1  -0.00326733  0.99176639  0.66183357  1
  Cr  Cr29  1  0.16315327  0.16348295  0.82976956  1
  Fe  Fe30  1  0.16575365  0.49734461  0.49812734  1
  Cr  Cr31  1  0.99314490  0.33288899  0.66262497  1
  Cr  Cr32  1  0.16156387  0.49744949  0.82736713  1
  Ni  Ni33  1  0.16086009  0.82506907  0.49867926  1
  Ni  Ni34  1  -0.00031038  0.66146775  0.66265459  1
  Ni  Ni35  1  0.16323203  0.82591857  0.82958190  1
  Cr  Cr36  1  0.49510222  0.16497166  0.49801041  1
  Cr  Cr37  1  0.32750953  0.99055718  0.66314172  1
  Cr  Cr38  1  0.49374071  0.16074183  0.82572192  1
  Ni  Ni39  1  0.49536014  0.49746386  0.49518272  1
  Fe  Fe40  1  0.32774048  0.33348090  0.66041019  1
  Cr  Cr41  1  0.49215237  0.49778130  0.82833111  1
  Cr  Cr42  1  0.49407417  0.82603864  0.49537040  1
  Ni  Ni43  1  0.32663802  0.66185143  0.66150718  1
  Ni  Ni44  1  0.49265869  0.82613029  0.83076731  1
  Cr  Cr45  1  0.82868255  0.16274064  0.49404502  1
  Cr  Cr46  1  0.66231484  0.99420655  0.66390130  1
  Cr  Cr47  1  0.83030769  0.16272309  0.82978294  1
  Cr  Cr48  1  0.82954167  0.49642085  0.49420939  1
  Cr  Cr49  1  0.66215178  0.33149113  0.66427604  1
  Ni  Ni50  1  0.83104702  0.49911026  0.83140426  1
  Fe  Fe51  1  0.82946339  0.82655977  0.49712548  1
  Cr  Cr52  1  0.66301920  0.66046765  0.66373741  1
  Cr  Cr53  1  0.82945209  0.82666893  0.83001665  1
" 