1528,Ni23Fe19Cr57_2,-216.066088455197, 163.823929109334,Ni23Fe19Cr57,"# generated using pymatgen
 data_Cr16Fe5Ni6
_symmetry_space_group_name_H-M   'P 1'
_cell_length_a   7.53718661
_cell_length_b   7.53718661
_cell_length_c   10.65919153
_cell_angle_alpha   90.00000000
_cell_angle_beta   90.00000000
_cell_angle_gamma   90.00000000
_symmetry_Int_Tables_number   1
_chemical_formula_structural   Cr16Fe5Ni6
_chemical_formula_sum   'Cr32 Fe10 Ni12'
_cell_volume   605.53995230
_cell_formula_units_Z   2
loop_
 _symmetry_equiv_pos_site_id
 _symmetry_equiv_pos_as_xyz
  1  'x, y, z'
loop_
 _atom_site_type_symbol
 _atom_site_label
 _atom_site_symmetry_multiplicity
 _atom_site_fract_x
 _atom_site_fract_y
 _atom_site_fract_z
 _atom_site_occupancy
  Cr  Cr0  1  0.99437957  0.99471356  -0.00459348  1
  Cr  Cr1  1  0.16148132  0.16386032  0.16101251  1
  Fe  Fe2  1  0.99293926  0.99521641  0.33128902  1
  Fe  Fe3  1  -0.00189842  0.33098568  -0.00444209  1
  Ni  Ni4  1  0.16370376  0.49535851  0.15837527  1
  Cr  Cr5  1  -0.00382627  0.32901710  0.32770461  1
  Cr  Cr6  1  -0.00189809  0.66207887  0.99421314  1
  Cr  Cr7  1  0.16412619  0.82829288  0.16411148  1
  Cr  Cr8  1  -0.00265511  0.66341224  0.32983608  1
  Cr  Cr9  1  0.32828528  0.99458173  -0.00456826  1
  Cr  Cr10  1  0.49615555  0.16154064  0.16133313  1
  Cr  Cr11  1  0.33075023  -0.00364507  0.33094139  1
  Fe  Fe12  1  0.32844659  0.33180736  0.99468003  1
  Ni  Ni13  1  0.49485927  0.49725913  0.15848318  1
  Cr  Cr14  1  0.33122010  0.33127038  0.32721090  1
  Ni  Ni15  1  0.32912927  0.65411075  0.99509595  1
  Cr  Cr16  1  0.49628048  0.82634130  0.16181520  1
  Cr  Cr17  1  0.32968197  0.65888074  0.32884351  1
  Cr  Cr18  1  0.66362385  -0.00273746  0.99304093  1
  Cr  Cr19  1  0.82838217  0.16290322  0.16311562  1
  Ni  Ni20  1  0.66346903  0.99461183  0.33243496  1
  Fe  Fe21  1  0.65909840  0.33214365  -0.00462830  1
  Cr  Cr22  1  0.82668042  0.49608248  0.16253512  1
  Cr  Cr23  1  0.65811281  0.32755306  0.33110634  1
  Fe  Fe24  1  0.65982762  0.66032013  0.99520184  1
  Cr  Cr25  1  0.82558275  0.82815010  0.16424015  1
  Ni  Ni26  1  0.66001564  0.66334526  0.32956751  1
  Cr  Cr27  1  0.16260336  0.16213683  0.49821231  1
  Cr  Cr28  1  0.99289593  0.99313295  0.66157865  1
  Cr  Cr29  1  0.16303352  0.16518221  0.82653642  1
  Cr  Cr30  1  0.16194241  0.49376650  0.49807580  1
  Fe  Fe31  1  -0.00383642  0.32831214  0.66174758  1
  Ni  Ni32  1  0.16235843  0.49379099  0.82897166  1
  Fe  Fe33  1  0.16494600  0.83014027  0.49607497  1
  Cr  Cr34  1  -0.00441536  0.66285448  0.66272984  1
  Cr  Cr35  1  0.16661017  0.82852827  0.82709361  1
  Ni  Ni36  1  0.49580345  0.15920674  0.49722233  1
  Ni  Ni37  1  0.32942389  -0.00292527  0.65966250  1
  Cr  Cr38  1  0.49302155  0.16195652  0.82731992  1
  Ni  Ni39  1  0.49565701  0.49773703  0.49630271  1
  Ni  Ni40  1  0.32992808  0.32931852  0.66262037  1
  Fe  Fe41  1  0.49171982  0.49372622  0.82933018  1
  Ni  Ni42  1  0.49658806  0.82952552  0.49460547  1
  Cr  Cr43  1  0.32898701  0.66041495  0.66075068  1
  Cr  Cr44  1  0.49531361  0.82646497  0.83009223  1
  Ni  Ni45  1  0.82812551  0.15866465  0.49415526  1
  Cr  Cr46  1  0.66172638  -0.00433941  0.66169979  1
  Cr  Cr47  1  0.82965443  0.16610342  0.82900880  1
  Cr  Cr48  1  0.82758597  0.49501564  0.49478304  1
  Cr  Cr49  1  0.65887204  0.32752841  0.65849054  1
  Cr  Cr50  1  0.82818032  0.49515077  0.82881414  1
  Fe  Fe51  1  0.82507530  0.82946131  0.49310583  1
  Cr  Cr52  1  0.66187738  0.66270584  0.66242453  1
  Fe  Fe53  1  0.82911382  0.82773010  0.82938048  1
" 