6024,Ni23Fe19Cr57_6,-216.279941984908, 160.856546807066,Ni23Fe19Cr57,"# generated using pymatgen
 data_Cr16Fe5Ni6
_symmetry_space_group_name_H-M   'P 1'
_cell_length_a   7.53421397
_cell_length_b   7.53421397
_cell_length_c   10.65498757
_cell_angle_alpha   90.00000000
_cell_angle_beta   90.00000000
_cell_angle_gamma   90.00000000
_symmetry_Int_Tables_number   1
_chemical_formula_structural   Cr16Fe5Ni6
_chemical_formula_sum   'Cr32 Fe10 Ni12'
_cell_volume   604.82376450
_cell_formula_units_Z   2
loop_
 _symmetry_equiv_pos_site_id
 _symmetry_equiv_pos_as_xyz
  1  'x, y, z'
loop_
 _atom_site_type_symbol
 _atom_site_label
 _atom_site_symmetry_multiplicity
 _atom_site_fract_x
 _atom_site_fract_y
 _atom_site_fract_z
 _atom_site_occupancy
  Cr  Cr0  1  -0.00392760  -0.00422305  0.99504434  1
  Cr  Cr1  1  0.16452912  0.16120356  0.16151369  1
  Cr  Cr2  1  0.99551625  0.99315248  0.32810693  1
  Cr  Cr3  1  0.99056303  0.32935496  0.99467911  1
  Cr  Cr4  1  0.16019532  0.49790680  0.16088087  1
  Cr  Cr5  1  0.99221964  0.33148545  0.32852300  1
  Cr  Cr6  1  -0.00374990  0.66198838  -0.00203310  1
  Ni  Ni7  1  0.16571258  0.82437946  0.16091459  1
  Ni  Ni8  1  0.99139766  0.66088606  0.32952952  1
  Ni  Ni9  1  0.33274481  0.99055201  -0.00204887  1
  Cr  Cr10  1  0.49654600  0.16316793  0.16281257  1
  Cr  Cr11  1  0.32944784  0.99308942  0.32536469  1
  Cr  Cr12  1  0.33230560  0.33205952  0.99337257  1
  Fe  Fe13  1  0.49707018  0.49812408  0.16211370  1
  Cr  Cr14  1  0.33040475  0.33048976  0.33316823  1
  Ni  Ni15  1  0.33597374  0.66533175  -0.00399000  1
  Ni  Ni16  1  0.49555966  0.82552781  0.15992802  1
  Cr  Cr17  1  0.33099773  0.66254446  0.32711121  1
  Cr  Cr18  1  0.66087424  -0.00399279  0.99302257  1
  Cr  Cr19  1  0.82508116  0.16617337  0.15987015  1
  Cr  Cr20  1  0.66119233  0.99343073  0.32901188  1
  Ni  Ni21  1  0.66113181  0.33333544  -0.00352501  1
  Ni  Ni22  1  0.82268215  0.49775971  0.16468111  1
  Fe  Fe23  1  0.66178275  0.33346893  0.32886597  1
  Fe  Fe24  1  0.65965018  0.66165123  -0.00420574  1
  Cr  Cr25  1  0.82754778  0.82516102  0.16397387  1
  Fe  Fe26  1  0.66307021  0.66031881  0.33055417  1
  Fe  Fe27  1  0.16107675  0.16086388  0.49608046  1
  Fe  Fe28  1  0.99275896  0.99427526  0.66224622  1
  Cr  Cr29  1  0.16255819  0.16224839  0.82755950  1
  Cr  Cr30  1  0.16313869  0.49482048  0.49757840  1
  Cr  Cr31  1  0.99484431  0.32666772  0.66330848  1
  Cr  Cr32  1  0.16592843  0.49690391  0.82884726  1
  Cr  Cr33  1  0.15883976  0.82720648  0.49401313  1
  Cr  Cr34  1  0.99258733  0.66170619  0.66028649  1
  Cr  Cr35  1  0.16464878  0.82747443  0.83193322  1
  Cr  Cr36  1  0.49499495  0.16438207  0.49498276  1
  Cr  Cr37  1  0.32960794  0.99458999  0.66092534  1
  Cr  Cr38  1  0.49683118  0.16145067  0.82862378  1
  Ni  Ni39  1  0.49859191  0.49584703  0.49674568  1
  Fe  Fe40  1  0.33111239  0.33036484  0.66128391  1
  Fe  Fe41  1  0.49918287  0.49856451  0.82918618  1
  Cr  Cr42  1  0.49959566  0.82788706  0.49637753  1
  Cr  Cr43  1  0.33373308  0.66145575  0.66434028  1
  Ni  Ni44  1  0.49715874  0.82695070  0.82936523  1
  Cr  Cr45  1  0.82704073  0.15938697  0.49603410  1
  Fe  Fe46  1  0.66332899  0.99340941  0.66289058  1
  Ni  Ni47  1  0.82542827  0.16326750  0.82868247  1
  Fe  Fe48  1  0.82564728  0.49829243  0.49408930  1
  Cr  Cr49  1  0.66224167  0.33173872  0.66282949  1
  Cr  Cr50  1  0.82777967  0.49664039  0.83097616  1
  Ni  Ni51  1  0.82782539  0.82608862  0.49689075  1
  Ni  Ni52  1  0.66107807  0.66314420  0.66083660  1
  Cr  Cr53  1  0.82522013  0.82934427  0.82514580  1
" 