2610,Ni23Fe50Cr25_12,-226.997394720937, 182.415547366588,Ni23Fe50Cr25,"# generated using pymatgen
 data_Cr5Fe9Ni4
_symmetry_space_group_name_H-M   'P 1'
_cell_length_a   7.46651161
_cell_length_b   7.46651161
_cell_length_c   10.55924199
_cell_angle_alpha   90.00000000
_cell_angle_beta   90.00000000
_cell_angle_gamma   90.00000000
_symmetry_Int_Tables_number   1
_chemical_formula_structural   Cr5Fe9Ni4
_chemical_formula_sum   'Cr15 Fe27 Ni12'
_cell_volume   588.66502372
_cell_formula_units_Z   3
loop_
 _symmetry_equiv_pos_site_id
 _symmetry_equiv_pos_as_xyz
  1  'x, y, z'
loop_
 _atom_site_type_symbol
 _atom_site_label
 _atom_site_symmetry_multiplicity
 _atom_site_fract_x
 _atom_site_fract_y
 _atom_site_fract_z
 _atom_site_occupancy
  Ni  Ni0  1  0.99929532  0.00457164  0.00057179  1
  Fe  Fe1  1  0.16647795  0.16938853  0.16616412  1
  Cr  Cr2  1  0.99937435  0.00136864  0.33175423  1
  Fe  Fe3  1  0.99912565  0.33293401  0.00085568  1
  Fe  Fe4  1  0.16978659  0.49854671  0.16769947  1
  Fe  Fe5  1  0.00214937  0.33823500  0.33272776  1
  Cr  Cr6  1  0.00285370  0.66686691  0.00231283  1
  Fe  Fe7  1  0.16822585  0.83232666  0.16659608  1
  Fe  Fe8  1  0.99986305  0.66554434  0.33352943  1
  Cr  Cr9  1  0.33079154  0.99810748  0.99966465  1
  Ni  Ni10  1  0.49850077  0.16954397  0.16705277  1
  Cr  Cr11  1  0.33303940  0.99837765  0.33405702  1
  Fe  Fe12  1  0.33508281  0.33292256  0.00013301  1
  Fe  Fe13  1  0.50090305  0.49986884  0.16739910  1
  Fe  Fe14  1  0.33465322  0.33555629  0.33357663  1
  Ni  Ni15  1  0.33611415  0.66293859  0.00233581  1
  Cr  Cr16  1  0.50375544  0.83285587  0.16684621  1
  Ni  Ni17  1  0.33253517  0.66469006  0.33246975  1
  Ni  Ni18  1  0.66723443  0.00408538  0.00226879  1
  Fe  Fe19  1  0.83140979  0.16790219  0.16526708  1
  Fe  Fe20  1  0.66504566  0.99736556  0.33578741  1
  Fe  Fe21  1  0.66555267  0.33288382  0.00013924  1
  Fe  Fe22  1  0.83044811  0.49848399  0.16719448  1
  Cr  Cr23  1  0.66805382  0.33083566  0.33558008  1
  Ni  Ni24  1  0.66501868  0.66194551  0.99931318  1
  Cr  Cr25  1  0.83141025  0.83231366  0.16566702  1
  Ni  Ni26  1  0.66543695  0.66265050  0.33606088  1
  Cr  Cr27  1  0.16901831  0.17309726  0.50244417  1
  Ni  Ni28  1  0.00024769  0.99871455  0.66655642  1
  Fe  Fe29  1  0.16639094  0.16505674  0.83123859  1
  Fe  Fe30  1  0.16867231  0.50441609  0.50041043  1
  Cr  Cr31  1  0.99628150  0.33266753  0.66671286  1
  Cr  Cr32  1  0.16783928  0.49649832  0.83170009  1
  Fe  Fe33  1  0.16642214  0.83336000  0.50185920  1
  Fe  Fe34  1  0.99933614  0.66651600  0.66422087  1
  Cr  Cr35  1  0.16610161  0.83182341  0.83037229  1
  Ni  Ni36  1  0.49900609  0.16862660  0.50009260  1
  Fe  Fe37  1  0.33387541  0.00233384  0.66532200  1
  Fe  Fe38  1  0.49913271  0.16827275  0.83385147  1
  Fe  Fe39  1  0.49757538  0.50137634  0.49980460  1
  Ni  Ni40  1  0.33494896  0.33651334  0.66656261  1
  Fe  Fe41  1  0.49917841  0.50152819  0.83377781  1
  Fe  Fe42  1  0.49957416  0.83112324  0.49894204  1
  Ni  Ni43  1  0.33490444  0.66696529  0.66434771  1
  Cr  Cr44  1  0.50253632  0.83273583  0.83332697  1
  Fe  Fe45  1  0.83405545  0.16397021  0.49898204  1
  Cr  Cr46  1  0.66779003  0.00219405  0.66207535  1
  Fe  Fe47  1  0.83403568  0.16563564  0.83573995  1
  Fe  Fe48  1  0.83380524  0.50036621  0.49880706  1
  Cr  Cr49  1  0.66524957  0.33587211  0.66774836  1
  Fe  Fe50  1  0.83157961  0.50041220  0.83547517  1
  Ni  Ni51  1  0.83330260  0.82924496  0.49927526  1
  Fe  Fe52  1  0.66720753  0.66630757  0.66437611  1
  Cr  Cr53  1  0.83173298  0.83319996  0.83489174  1
" 