8339,Ni23Fe35Cr40_1,-222.18992370284, 173.062235767667,Ni23Fe35Cr40,"# generated using pymatgen
 data_Cr23Fe19Ni12
_symmetry_space_group_name_H-M   'P 1'
_cell_length_a   7.49825433
_cell_length_b   7.49825433
_cell_length_c   10.60413296
_cell_angle_alpha   90.00000000
_cell_angle_beta   90.00000000
_cell_angle_gamma   90.00000000
_symmetry_Int_Tables_number   1
_chemical_formula_structural   Cr23Fe19Ni12
_chemical_formula_sum   'Cr23 Fe19 Ni12'
_cell_volume   596.20484086
_cell_formula_units_Z   1
loop_
 _symmetry_equiv_pos_site_id
 _symmetry_equiv_pos_as_xyz
  1  'x, y, z'
loop_
 _atom_site_type_symbol
 _atom_site_label
 _atom_site_symmetry_multiplicity
 _atom_site_fract_x
 _atom_site_fract_y
 _atom_site_fract_z
 _atom_site_occupancy
  Cr  Cr0  1  0.00009956  0.99643793  -0.00076361  1
  Ni  Ni1  1  0.16332043  0.16585089  0.16466225  1
  Cr  Cr2  1  -0.00173817  0.99585785  0.33183506  1
  Fe  Fe3  1  0.99638565  0.33380334  0.00049753  1
  Ni  Ni4  1  0.16267443  0.49746830  0.16387732  1
  Fe  Fe5  1  0.99626846  0.33415034  0.32903760  1
  Ni  Ni6  1  0.99770454  0.66268021  -0.00179143  1
  Ni  Ni7  1  0.16209606  0.83063716  0.16439562  1
  Fe  Fe8  1  0.99666513  0.66205272  0.32874321  1
  Cr  Cr9  1  0.33132555  0.99587336  0.00076246  1
  Fe  Fe10  1  0.49894014  0.16839672  0.16464203  1
  Cr  Cr11  1  0.33143310  0.99555404  0.32794012  1
  Cr  Cr12  1  0.33259286  0.33156050  -0.00100547  1
  Ni  Ni13  1  0.50082860  0.49777467  0.16480392  1
  Cr  Cr14  1  0.33119636  0.33266625  0.32957122  1
  Cr  Cr15  1  0.32984450  0.66593680  0.00101205  1
  Fe  Fe16  1  0.49901317  0.82655659  0.16458953  1
  Cr  Cr17  1  0.32997991  0.66512487  0.32795925  1
  Cr  Cr18  1  0.66167953  -0.00116131  -0.00033290  1
  Fe  Fe19  1  0.83293816  0.16884262  0.16436480  1
  Cr  Cr20  1  0.66392215  0.99739314  0.32973713  1
  Ni  Ni21  1  0.66612234  0.33377673  -0.00072311  1
  Ni  Ni22  1  0.82962797  0.49796875  0.16279445  1
  Fe  Fe23  1  0.66707800  0.33431762  0.32908491  1
  Ni  Ni24  1  0.66540558  0.66166538  0.99775423  1
  Cr  Cr25  1  0.83025960  0.82872752  0.16343759  1
  Fe  Fe26  1  0.66547176  0.66318119  0.33027125  1
  Cr  Cr27  1  0.16523374  0.16341866  0.50024223  1
  Fe  Fe28  1  0.99576214  0.99511163  0.66426449  1
  Cr  Cr29  1  0.16521894  0.16359996  0.82958713  1
  Cr  Cr30  1  0.16455364  0.49850345  0.49814831  1
  Cr  Cr31  1  0.99550533  0.33507879  0.66539948  1
  Cr  Cr32  1  0.16512003  0.50007967  0.83253498  1
  Fe  Fe33  1  0.16530411  0.82951391  0.49958903  1
  Fe  Fe34  1  0.99593928  0.66688474  0.66447074  1
  Ni  Ni35  1  0.16446349  0.83070856  0.82894751  1
  Cr  Cr36  1  0.49720333  0.16388087  0.49909962  1
  Fe  Fe37  1  0.33297301  0.99408062  0.66532494  1
  Fe  Fe38  1  0.49789594  0.16249621  0.83025780  1
  Cr  Cr39  1  0.49917126  0.50042802  0.49732043  1
  Fe  Fe40  1  0.33279381  0.33124057  0.66567129  1
  Cr  Cr41  1  0.49986876  0.49974408  0.83065692  1
  Ni  Ni42  1  0.49975449  0.82998800  0.49936152  1
  Fe  Fe43  1  0.33203035  0.66828106  0.66446704  1
  Fe  Fe44  1  0.49654116  0.83139396  0.82968095  1
  Cr  Cr45  1  0.83154126  0.16385843  0.49569978  1
  Ni  Ni46  1  0.66293030  0.99511992  0.66434319  1
  Cr  Cr47  1  0.83054079  0.16369597  0.83484857  1
  Ni  Ni48  1  0.83110152  0.50268402  0.49599496  1
  Cr  Cr49  1  0.66682635  0.33164004  0.66512234  1
  Fe  Fe50  1  0.83224990  0.49924162  0.83420807  1
  Fe  Fe51  1  0.82952942  0.82838789  0.49927460  1
  Fe  Fe52  1  0.66636566  0.66597712  0.66395490  1
  Cr  Cr53  1  0.83007630  0.82949772  0.83200183  1
" 