3583,Ni23Fe43Cr33_9,-225.402184912118, 189.518506909517,Ni23Fe43Cr33,"# generated using pymatgen
 data_Cr19Fe23Ni12
_symmetry_space_group_name_H-M   'P 1'
_cell_length_a   7.47838517
_cell_length_b   7.47838517
_cell_length_c   10.57603373
_cell_angle_alpha   90.00000000
_cell_angle_beta   90.00000000
_cell_angle_gamma   90.00000000
_symmetry_Int_Tables_number   1
_chemical_formula_structural   Cr19Fe23Ni12
_chemical_formula_sum   'Cr19 Fe23 Ni12'
_cell_volume   591.47785045
_cell_formula_units_Z   1
loop_
 _symmetry_equiv_pos_site_id
 _symmetry_equiv_pos_as_xyz
  1  'x, y, z'
loop_
 _atom_site_type_symbol
 _atom_site_label
 _atom_site_symmetry_multiplicity
 _atom_site_fract_x
 _atom_site_fract_y
 _atom_site_fract_z
 _atom_site_occupancy
  Fe  Fe0  1  0.99822804  -0.00048557  -0.00034290  1
  Cr  Cr1  1  0.16694551  0.16746461  0.16605247  1
  Fe  Fe2  1  0.99735653  0.99841412  0.33220245  1
  Cr  Cr3  1  0.99839920  0.32991863  0.99717957  1
  Ni  Ni4  1  0.16589453  0.49837118  0.16738993  1
  Ni  Ni5  1  0.99815858  0.33135151  0.33283794  1
  Cr  Cr6  1  0.00107517  0.66833226  0.00456560  1
  Fe  Fe7  1  0.16707898  0.83528598  0.16613597  1
  Fe  Fe8  1  0.99869012  0.66616905  0.33180389  1
  Fe  Fe9  1  0.33374387  -0.00024699  0.99867155  1
  Ni  Ni10  1  0.49858339  0.16253025  0.16719632  1
  Fe  Fe11  1  0.33507211  0.00134493  0.33225987  1
  Fe  Fe12  1  0.33545358  0.33074291  0.99743520  1
  Cr  Cr13  1  0.49758714  0.49814829  0.16204048  1
  Fe  Fe14  1  0.33288710  0.33251230  0.33277803  1
  Fe  Fe15  1  0.33514813  0.66720588  -0.00055968  1
  Ni  Ni16  1  0.49932312  0.83538601  0.16433668  1
  Cr  Cr17  1  0.33091532  0.66899026  0.33143679  1
  Cr  Cr18  1  0.66454810  0.00104870  0.00002346  1
  Ni  Ni19  1  0.83329285  0.16285682  0.16680030  1
  Fe  Fe20  1  0.66619492  0.99909652  0.33040035  1
  Fe  Fe21  1  0.66294715  0.33030494  0.99895805  1
  Cr  Cr22  1  0.83364129  0.49791332  0.16535218  1
  Cr  Cr23  1  0.66477546  0.32858155  0.33092777  1
  Fe  Fe24  1  0.66387372  0.66814944  0.99921925  1
  Ni  Ni25  1  0.83223841  0.83523468  0.16682744  1
  Cr  Cr26  1  0.66509601  0.66660457  0.33159593  1
  Cr  Cr27  1  0.16662456  0.16698132  0.50010138  1
  Cr  Cr28  1  0.99691839  0.00075605  0.67047118  1
  Fe  Fe29  1  0.17009454  0.16737548  0.83254834  1
  Cr  Cr30  1  0.16433335  0.49732560  0.49994542  1
  Ni  Ni31  1  0.99797709  0.33115881  0.66684971  1
  Cr  Cr32  1  0.16705435  0.49739513  0.83085380  1
  Fe  Fe33  1  0.16607034  0.83556781  0.49825164  1
  Cr  Cr34  1  0.99803317  0.66743627  0.66216037  1
  Cr  Cr35  1  0.16724046  0.83320242  0.83379771  1
  Ni  Ni36  1  0.50081744  0.16396988  0.49712153  1
  Cr  Cr37  1  0.33487490  -0.00016222  0.66759575  1
  Ni  Ni38  1  0.49913057  0.16552744  0.83295898  1
  Fe  Fe39  1  0.49795767  0.49705500  0.50030353  1
  Ni  Ni40  1  0.33561935  0.33146934  0.66622622  1
  Ni  Ni41  1  0.49954025  0.49981945  0.83212936  1
  Cr  Cr42  1  0.50201959  0.83498721  0.50198505  1
  Fe  Fe43  1  0.33558537  0.66297446  0.66630127  1
  Ni  Ni44  1  0.50124839  0.83229890  0.83186522  1
  Fe  Fe45  1  0.83266841  0.16475331  0.49792850  1
  Fe  Fe46  1  0.66647553  0.00109309  0.66794960  1
  Fe  Fe47  1  0.82954583  0.16537372  0.83358447  1
  Fe  Fe48  1  0.83090970  0.49631208  0.49848832  1
  Cr  Cr49  1  0.66451404  0.33042246  0.66513535  1
  Cr  Cr50  1  0.83066879  0.50051519  0.83328931  1
  Fe  Fe51  1  0.83346610  0.83600331  0.49723590  1
  Fe  Fe52  1  0.66427925  0.66587699  0.66632601  1
  Fe  Fe53  1  0.82825104  0.83235218  0.83413798  1
" 