1238,Ni23Fe43Cr33_19,-224.343461183853, 181.308859616184,Ni23Fe43Cr33,"# generated using pymatgen
 data_Cr19Fe23Ni12
_symmetry_space_group_name_H-M   'P 1'
_cell_length_a   7.47839274
_cell_length_b   7.47839274
_cell_length_c   10.57604443
_cell_angle_alpha   90.00000000
_cell_angle_beta   90.00000000
_cell_angle_gamma   90.00000000
_symmetry_Int_Tables_number   1
_chemical_formula_structural   Cr19Fe23Ni12
_chemical_formula_sum   'Cr19 Fe23 Ni12'
_cell_volume   591.47964623
_cell_formula_units_Z   1
loop_
 _symmetry_equiv_pos_site_id
 _symmetry_equiv_pos_as_xyz
  1  'x, y, z'
loop_
 _atom_site_type_symbol
 _atom_site_label
 _atom_site_symmetry_multiplicity
 _atom_site_fract_x
 _atom_site_fract_y
 _atom_site_fract_z
 _atom_site_occupancy
  Cr  Cr0  1  0.99689115  0.00129438  0.00252051  1
  Fe  Fe1  1  0.16264098  0.16813988  0.16580904  1
  Cr  Cr2  1  -0.00013371  -0.00074258  0.33172369  1
  Ni  Ni3  1  0.99701407  0.33235895  0.99895213  1
  Cr  Cr4  1  0.16466953  0.50057852  0.16550484  1
  Ni  Ni5  1  0.99855219  0.33339061  0.33220647  1
  Cr  Cr6  1  0.99667590  0.66448381  0.99659037  1
  Fe  Fe7  1  0.16792352  0.83038561  0.16640220  1
  Ni  Ni8  1  0.99898678  0.66530909  0.33428178  1
  Cr  Cr9  1  0.33348653  0.99843163  0.00166314  1
  Cr  Cr10  1  0.50177805  0.16623534  0.16564102  1
  Cr  Cr11  1  0.33163909  0.99857922  0.33339800  1
  Cr  Cr12  1  0.33293304  0.33509226  0.99814218  1
  Ni  Ni13  1  0.50065729  0.50342458  0.16674723  1
  Cr  Cr14  1  0.33297807  0.33260347  0.33191463  1
  Ni  Ni15  1  0.33707764  0.66597515  -0.00065755  1
  Fe  Fe16  1  0.49943728  0.82861161  0.16444692  1
  Fe  Fe17  1  0.33127948  0.66701449  0.33151111  1
  Fe  Fe18  1  0.66565806  0.99806625  0.99690308  1
  Ni  Ni19  1  0.83430959  0.16850440  0.16608219  1
  Cr  Cr20  1  0.66620526  0.99820301  0.33465375  1
  Cr  Cr21  1  0.66654186  0.33518727  0.99826527  1
  Fe  Fe22  1  0.83106872  0.49716964  0.16690774  1
  Fe  Fe23  1  0.66928251  0.33305602  0.33094396  1
  Ni  Ni24  1  0.66306927  0.66618470  0.99876338  1
  Cr  Cr25  1  0.83149527  0.83084283  0.16479317  1
  Fe  Fe26  1  0.66611215  0.66463421  0.33057623  1
  Fe  Fe27  1  0.16462537  0.16821469  0.49998703  1
  Cr  Cr28  1  0.99656404  0.99721284  0.66366504  1
  Cr  Cr29  1  0.16552885  0.16692854  0.83425660  1
  Fe  Fe30  1  0.16451194  0.50053657  0.49844382  1
  Fe  Fe31  1  0.99543666  0.33382738  0.66653545  1
  Fe  Fe32  1  0.16577734  0.50000368  0.83280123  1
  Fe  Fe33  1  0.16634330  0.82884261  0.49990560  1
  Fe  Fe34  1  0.99884329  0.66310070  0.66565270  1
  Cr  Cr35  1  0.16813153  0.83048681  0.83228298  1
  Fe  Fe36  1  0.50164625  0.16486925  0.50213188  1
  Fe  Fe37  1  0.33725320  0.99834735  0.66527085  1
  Ni  Ni38  1  0.50257521  0.16296225  0.82954875  1
  Cr  Cr39  1  0.50017632  0.49925734  0.49709146  1
  Cr  Cr40  1  0.33343407  0.33417463  0.66762034  1
  Fe  Fe41  1  0.50036989  0.50112653  0.83328443  1
  Fe  Fe42  1  0.49928869  0.83307828  0.50155090  1
  Fe  Fe43  1  0.33341509  0.66766069  0.66669069  1
  Ni  Ni44  1  0.50053715  0.83362839  0.83363633  1
  Fe  Fe45  1  0.83102740  0.16733680  0.49949679  1
  Ni  Ni46  1  0.66541641  0.00005756  0.66680385  1
  Fe  Fe47  1  0.82949600  0.16649235  0.83214769  1
  Cr  Cr48  1  0.83380512  0.49797217  0.49535281  1
  Ni  Ni49  1  0.66582763  0.33055658  0.66654657  1
  Ni  Ni50  1  0.83352225  0.49787706  0.83273983  1
  Fe  Fe51  1  0.83183238  0.83164042  0.49905220  1
  Cr  Cr52  1  0.66698960  0.66655046  0.66863054  1
  Fe  Fe53  1  0.82843497  0.83328330  0.83322671  1
" 