7056,Ni23Fe43Cr33_10,-224.886758148426, 185.568002701605,Ni23Fe43Cr33,"# generated using pymatgen
 data_Cr19Fe23Ni12
_symmetry_space_group_name_H-M   'P 1'
_cell_length_a   7.47616189
_cell_length_b   7.47616189
_cell_length_c   10.57288954
_cell_angle_alpha   90.00000000
_cell_angle_beta   90.00000000
_cell_angle_gamma   90.00000000
_symmetry_Int_Tables_number   1
_chemical_formula_structural   Cr19Fe23Ni12
_chemical_formula_sum   'Cr19 Fe23 Ni12'
_cell_volume   590.95047931
_cell_formula_units_Z   1
loop_
 _symmetry_equiv_pos_site_id
 _symmetry_equiv_pos_as_xyz
  1  'x, y, z'
loop_
 _atom_site_type_symbol
 _atom_site_label
 _atom_site_symmetry_multiplicity
 _atom_site_fract_x
 _atom_site_fract_y
 _atom_site_fract_z
 _atom_site_occupancy
  Fe  Fe0  1  0.99863268  0.00109348  0.00176269  1
  Fe  Fe1  1  0.16492566  0.16361657  0.16658991  1
  Fe  Fe2  1  0.99829764  0.99890173  0.32917713  1
  Ni  Ni3  1  0.99609587  0.33056227  0.00111323  1
  Cr  Cr4  1  0.16888765  0.49626132  0.16754649  1
  Fe  Fe5  1  0.99831736  0.32980638  0.32883613  1
  Cr  Cr6  1  0.99926566  0.66606404  0.00087576  1
  Fe  Fe7  1  0.16724637  0.83362890  0.16670120  1
  Cr  Cr8  1  0.99690675  0.66444031  0.33192000  1
  Cr  Cr9  1  0.33223174  0.00003315  0.99887261  1
  Ni  Ni10  1  0.49954377  0.16553598  0.16758266  1
  Ni  Ni11  1  0.33249084  0.00170225  0.33096477  1
  Fe  Fe12  1  0.33423963  0.33353946  0.00189006  1
  Fe  Fe13  1  0.50357381  0.50086801  0.16363388  1
  Fe  Fe14  1  0.33496629  0.33110053  0.32962899  1
  Ni  Ni15  1  0.33336052  0.66834558  0.00150332  1
  Ni  Ni16  1  0.50162557  0.83442963  0.16597332  1
  Fe  Fe17  1  0.33659882  0.66857376  0.32846964  1
  Fe  Fe18  1  0.66657963  0.00167958  0.00344930  1
  Fe  Fe19  1  0.83086508  0.16603739  0.16463204  1
  Fe  Fe20  1  0.66510694  0.99762357  0.32977306  1
  Ni  Ni21  1  0.66711311  0.33178640  0.00005079  1
  Ni  Ni22  1  0.83418058  0.49860851  0.16508070  1
  Cr  Cr23  1  0.66671269  0.33349201  0.33160511  1
  Fe  Fe24  1  0.66574483  0.66327546  0.00354064  1
  Ni  Ni25  1  0.83053033  0.83445445  0.16693430  1
  Ni  Ni26  1  0.66831751  0.66496030  0.32970054  1
  Cr  Cr27  1  0.16384880  0.16863861  0.49814569  1
  Fe  Fe28  1  0.99927444  0.99920413  0.66762412  1
  Fe  Fe29  1  0.16343355  0.16632429  0.83457392  1
  Cr  Cr30  1  0.16656185  0.49732356  0.49669818  1
  Fe  Fe31  1  0.99757420  0.33152884  0.66837120  1
  Cr  Cr32  1  0.16865560  0.49813670  0.83376840  1
  Cr  Cr33  1  0.16695447  0.83228253  0.49803850  1
  Cr  Cr34  1  0.99832885  0.66448588  0.66523044  1
  Ni  Ni35  1  0.16348342  0.83252312  0.83381386  1
  Fe  Fe36  1  0.49606134  0.16718657  0.49624577  1
  Cr  Cr37  1  0.33100027  0.00045729  0.66787112  1
  Cr  Cr38  1  0.50333151  0.16831463  0.83230007  1
  Cr  Cr39  1  0.49664083  0.50082694  0.49842371  1
  Fe  Fe40  1  0.33496857  0.33491876  0.66695534  1
  Ni  Ni41  1  0.49906565  0.49753581  0.83696208  1
  Cr  Cr42  1  0.50162178  0.83263806  0.49634548  1
  Ni  Ni43  1  0.33208177  0.66613235  0.66817292  1
  Cr  Cr44  1  0.50021928  0.82816441  0.83573238  1
  Cr  Cr45  1  0.83214393  0.16376897  0.49820866  1
  Cr  Cr46  1  0.66379886  0.00261254  0.66283849  1
  Fe  Fe47  1  0.83499199  0.16975625  0.83389717  1
  Fe  Fe48  1  0.83233739  0.49754235  0.49742380  1
  Fe  Fe49  1  0.66639093  0.33544572  0.66676120  1
  Fe  Fe50  1  0.83062539  0.49788569  0.83662918  1
  Fe  Fe51  1  0.83264517  0.83178966  0.49633619  1
  Cr  Cr52  1  0.66795611  0.66277698  0.66644716  1
  Cr  Cr53  1  0.83073067  0.83846233  0.83546067  1
" 