6694,Ni23Fe77_3,-242.799259463901, 211.116333089839,Ni23Fe77,"# generated using pymatgen
 data_Fe2Ni7
_symmetry_space_group_name_H-M   'P 1'
_cell_length_a   7.41963361
_cell_length_b   7.41963361
_cell_length_c   10.49294648
_cell_angle_alpha   90.00000000
_cell_angle_beta   90.00000000
_cell_angle_gamma   90.00000000
_symmetry_Int_Tables_number   1
_chemical_formula_structural   Fe2Ni7
_chemical_formula_sum   'Fe12 Ni42'
_cell_volume   577.64680674
_cell_formula_units_Z   6
loop_
 _symmetry_equiv_pos_site_id
 _symmetry_equiv_pos_as_xyz
  1  'x, y, z'
loop_
 _atom_site_type_symbol
 _atom_site_label
 _atom_site_symmetry_multiplicity
 _atom_site_fract_x
 _atom_site_fract_y
 _atom_site_fract_z
 _atom_site_occupancy
  Ni  Ni0  1  1.00169924  0.00372142  1.00298207  1
  Fe  Fe1  1  0.16931452  0.17088806  0.16973032  1
  Ni  Ni2  1  1.00237213  0.00346861  0.33638219  1
  Ni  Ni3  1  1.00316343  0.33691137  0.00331980  1
  Ni  Ni4  1  0.17024735  0.50359692  0.16952894  1
  Ni  Ni5  1  1.00302026  0.33684028  0.33620976  1
  Ni  Ni6  1  1.00283943  0.66895194  1.00251551  1
  Fe  Fe7  1  0.16944708  0.83592364  0.17014914  1
  Ni  Ni8  1  1.00268801  0.66927796  0.33714081  1
  Ni  Ni9  1  0.33759493  0.00346487  1.00267792  1
  Ni  Ni10  1  0.50270227  0.16998897  0.16946356  1
  Ni  Ni11  1  0.33704961  0.00321895  0.33666947  1
  Ni  Ni12  1  0.33618398  0.33723343  1.00301244  1
  Ni  Ni13  1  0.50216677  0.50244736  0.17063067  1
  Ni  Ni14  1  0.33639460  0.33708579  0.33659276  1
  Ni  Ni15  1  0.33678122  0.66888445  1.00303596  1
  Fe  Fe16  1  0.50392178  0.83622095  0.17051801  1
  Ni  Ni17  1  0.33698126  0.66928265  0.33669503  1
  Ni  Ni18  1  0.67029396  1.00312889  1.00293776  1
  Ni  Ni19  1  0.83599389  0.16886235  0.16998526  1
  Ni  Ni20  1  0.67016471  1.00288338  0.33690335  1
  Fe  Fe21  1  0.66973049  0.33604671  0.00367726  1
  Ni  Ni22  1  0.83717035  0.50420841  0.16949019  1
  Ni  Ni23  1  0.67016887  0.33677042  0.33677770  1
  Fe  Fe24  1  0.67039685  0.66986532  1.00300586  1
  Ni  Ni25  1  0.83714752  0.83651381  0.17007768  1
  Ni  Ni26  1  0.66991764  0.66993149  0.33599904  1
  Ni  Ni27  1  0.17154963  0.16982798  0.50254537  1
  Ni  Ni28  1  1.00219946  0.00439407  0.67021924  1
  Ni  Ni29  1  0.17093293  0.16934237  0.83706289  1
  Ni  Ni30  1  0.16931200  0.50313441  0.50356268  1
  Ni  Ni31  1  0.00362647  0.33603370  0.67005489  1
  Fe  Fe32  1  0.16967728  0.50192735  0.83689334  1
  Ni  Ni33  1  0.16982784  0.83662525  0.50311213  1
  Fe  Fe34  1  1.00307537  0.67034856  0.66938860  1
  Fe  Fe35  1  0.16968730  0.83724350  0.83647620  1
  Ni  Ni36  1  0.50175939  0.16898432  0.50342221  1
  Ni  Ni37  1  0.33701174  0.00331491  0.67023635  1
  Ni  Ni38  1  0.50179470  0.17011228  0.83670315  1
  Fe  Fe39  1  0.50241426  0.50410906  0.50308403  1
  Ni  Ni40  1  0.33556878  0.33710139  0.66998253  1
  Ni  Ni41  1  0.50289408  0.50269125  0.83622604  1
  Ni  Ni42  1  0.50323086  0.83772092  0.50306749  1
  Ni  Ni43  1  0.33784205  0.66916939  0.66985684  1
  Fe  Fe44  1  0.50398820  0.83712354  0.83574445  1
  Fe  Fe45  1  0.83737979  0.16914220  0.50295630  1
  Ni  Ni46  1  0.67037847  1.00212284  0.66974159  1
  Ni  Ni47  1  0.83685410  0.16898149  0.83625427  1
  Ni  Ni48  1  0.83737408  0.50460763  0.50270651  1
  Fe  Fe49  1  0.66931544  0.33617189  0.67004626  1
  Ni  Ni50  1  0.83634078  0.50441211  0.83738868  1
  Ni  Ni51  1  0.83652776  0.83548426  0.50303920  1
  Ni  Ni52  1  0.66930987  0.67060126  0.67019441  1
  Ni  Ni53  1  0.83711453  0.83619289  0.83646513  1
" 