653,Ni23Fe19Cr57_8,-216.423224162998, 167.486043029442,Ni23Fe19Cr57,"# generated using pymatgen
 data_Cr16Fe5Ni6
_symmetry_space_group_name_H-M   'P 1'
_cell_length_a   7.53444168
_cell_length_b   7.53444168
_cell_length_c   10.65530961
_cell_angle_alpha   90.00000000
_cell_angle_beta   90.00000000
_cell_angle_gamma   90.00000000
_symmetry_Int_Tables_number   1
_chemical_formula_structural   Cr16Fe5Ni6
_chemical_formula_sum   'Cr32 Fe10 Ni12'
_cell_volume   604.87860643
_cell_formula_units_Z   2
loop_
 _symmetry_equiv_pos_site_id
 _symmetry_equiv_pos_as_xyz
  1  'x, y, z'
loop_
 _atom_site_type_symbol
 _atom_site_label
 _atom_site_symmetry_multiplicity
 _atom_site_fract_x
 _atom_site_fract_y
 _atom_site_fract_z
 _atom_site_occupancy
  Fe  Fe0  1  -0.00404675  0.99493075  0.99486047  1
  Cr  Cr1  1  0.16197164  0.16014596  0.16110221  1
  Cr  Cr2  1  -0.00413601  0.99549465  0.33153224  1
  Ni  Ni3  1  0.99540218  0.32923718  -0.00445466  1
  Fe  Fe4  1  0.16341921  0.49654157  0.16269670  1
  Cr  Cr5  1  -0.00379500  0.32806734  0.33198339  1
  Cr  Cr6  1  -0.00348696  0.66304512  0.99528633  1
  Ni  Ni7  1  0.16288575  0.82684929  0.16454330  1
  Fe  Fe8  1  -0.00222021  0.66223578  0.32717678  1
  Cr  Cr9  1  0.32923372  -0.00436764  -0.00239119  1
  Ni  Ni10  1  0.49656269  0.16531640  0.16127765  1
  Fe  Fe11  1  0.32844515  -0.00354105  0.32771292  1
  Cr  Cr12  1  0.32943888  0.33024824  -0.00370033  1
  Ni  Ni13  1  0.49574566  0.49309723  0.16312587  1
  Cr  Cr14  1  0.33121010  0.32874219  0.32773656  1
  Cr  Cr15  1  0.32800448  0.66068801  -0.00444916  1
  Cr  Cr16  1  0.49201535  0.82998164  0.16351875  1
  Fe  Fe17  1  0.32859574  0.66083246  0.32694474  1
  Fe  Fe18  1  0.66262900  -0.00230013  -0.00423096  1
  Cr  Cr19  1  0.82757001  0.16473307  0.15861739  1
  Cr  Cr20  1  0.66182711  -0.00288292  0.32864403  1
  Ni  Ni21  1  0.66211752  0.32790925  -0.00035695  1
  Cr  Cr22  1  0.82929516  0.49300667  0.16312922  1
  Fe  Fe23  1  0.66041415  0.32817982  0.32881593  1
  Cr  Cr24  1  0.66218339  0.66318196  0.99540011  1
  Cr  Cr25  1  0.83192945  0.82901178  0.16029682  1
  Cr  Cr26  1  0.66112562  0.66004447  0.32837749  1
  Ni  Ni27  1  0.16103755  0.16142597  0.49488051  1
  Cr  Cr28  1  0.99395107  -0.00410514  0.66129829  1
  Cr  Cr29  1  0.16023941  0.16171228  0.83028156  1
  Cr  Cr30  1  0.16386301  0.49742536  0.49573816  1
  Cr  Cr31  1  -0.00322906  0.32734295  0.66003923  1
  Fe  Fe32  1  0.16167379  0.49650922  0.82927974  1
  Cr  Cr33  1  0.16510075  0.82914155  0.49209020  1
  Cr  Cr34  1  0.99452558  0.66332855  0.66478894  1
  Ni  Ni35  1  0.16113510  0.82754950  0.82920264  1
  Cr  Cr36  1  0.49679641  0.16263490  0.49622855  1
  Cr  Cr37  1  0.32771130  -0.00300704  0.66065721  1
  Cr  Cr38  1  0.49882609  0.16241656  0.83023974  1
  Ni  Ni39  1  0.49681055  0.49604905  0.49692496  1
  Cr  Cr40  1  0.32855102  0.32999409  0.66253131  1
  Cr  Cr41  1  0.49743949  0.49566709  0.82545232  1
  Cr  Cr42  1  0.49362850  0.82601845  0.49745595  1
  Fe  Fe43  1  0.33028509  0.66186011  0.66275200  1
  Cr  Cr44  1  0.49508036  0.82894683  0.82519866  1
  Ni  Ni45  1  0.82783871  0.16377957  0.49726752  1
  Ni  Ni46  1  0.66350858  0.99462839  0.66271568  1
  Cr  Cr47  1  0.82756719  0.16366250  0.83156325  1
  Cr  Cr48  1  0.82577389  0.49358894  0.49495214  1
  Ni  Ni49  1  0.66124664  0.32960219  0.65822695  1
  Cr  Cr50  1  0.82797319  0.49302559  0.82866585  1
  Cr  Cr51  1  0.82794334  0.82828254  0.49720172  1
  Ni  Ni52  1  0.66070154  0.66240082  0.66168262  1
  Fe  Fe53  1  0.82817428  0.83018051  0.82797908  1
" 