1608,Ni23Fe35Cr40_18,-222.008167562339, 177.077435812727,Ni23Fe35Cr40,"# generated using pymatgen
 data_Cr23Fe19Ni12
_symmetry_space_group_name_H-M   'P 1'
_cell_length_a   7.49027348
_cell_length_b   7.49027348
_cell_length_c   10.59284634
_cell_angle_alpha   90.00000000
_cell_angle_beta   90.00000000
_cell_angle_gamma   90.00000000
_symmetry_Int_Tables_number   1
_chemical_formula_structural   Cr23Fe19Ni12
_chemical_formula_sum   'Cr23 Fe19 Ni12'
_cell_volume   594.30313491
_cell_formula_units_Z   1
loop_
 _symmetry_equiv_pos_site_id
 _symmetry_equiv_pos_as_xyz
  1  'x, y, z'
loop_
 _atom_site_type_symbol
 _atom_site_label
 _atom_site_symmetry_multiplicity
 _atom_site_fract_x
 _atom_site_fract_y
 _atom_site_fract_z
 _atom_site_occupancy
  Cr  Cr0  1  0.99748615  0.00014890  0.99835669  1
  Fe  Fe1  1  0.16623306  0.16904486  0.16534269  1
  Fe  Fe2  1  -0.00123807  0.99653059  0.33385069  1
  Fe  Fe3  1  0.00154015  0.33261328  0.99834140  1
  Ni  Ni4  1  0.16906458  0.49701263  0.16395664  1
  Cr  Cr5  1  -0.00118469  0.33334941  0.32984762  1
  Cr  Cr6  1  0.00096487  0.66262128  0.99611075  1
  Cr  Cr7  1  0.16420422  0.83046409  0.16875455  1
  Ni  Ni8  1  -0.00053935  0.66502545  0.33483412  1
  Cr  Cr9  1  0.33378709  0.99789220  0.99648436  1
  Cr  Cr10  1  0.49774983  0.16764744  0.16551512  1
  Cr  Cr11  1  0.33083364  -0.00136905  0.33437632  1
  Fe  Fe12  1  0.33094723  0.33429640  -0.00002039  1
  Ni  Ni13  1  0.49251274  0.49671890  0.16651300  1
  Ni  Ni14  1  0.33225175  0.33280632  0.32948006  1
  Ni  Ni15  1  0.33072052  0.66225113  -0.00104557  1
  Cr  Cr16  1  0.49835712  0.82926758  0.16234746  1
  Fe  Fe17  1  0.32980628  0.66287142  0.33218684  1
  Ni  Ni18  1  0.66466228  -0.00028255  0.99288556  1
  Cr  Cr19  1  0.83311810  0.16303607  0.16324393  1
  Cr  Cr20  1  0.66457219  -0.00116494  0.33478014  1
  Cr  Cr21  1  0.66510988  0.33079394  -0.00001716  1
  Cr  Cr22  1  0.83180076  0.49864105  0.16626565  1
  Fe  Fe23  1  0.66321571  0.33231172  0.33246271  1
  Cr  Cr24  1  0.66270946  0.66658557  -0.00088960  1
  Cr  Cr25  1  0.83273655  0.83352433  0.16567778  1
  Cr  Cr26  1  0.66532827  0.66296690  0.33121997  1
  Cr  Cr27  1  0.16487060  0.16508880  0.49657947  1
  Cr  Cr28  1  0.99757774  0.99815093  0.66385756  1
  Cr  Cr29  1  0.16566084  0.16867835  0.83322154  1
  Cr  Cr30  1  0.16530974  0.50032952  0.50154700  1
  Ni  Ni31  1  0.99521098  0.33365811  0.66649250  1
  Fe  Fe32  1  0.16639393  0.49957711  0.83063040  1
  Ni  Ni33  1  0.16398095  0.83002608  0.49764236  1
  Fe  Fe34  1  -0.00040506  0.66582366  0.66477862  1
  Fe  Fe35  1  0.16639044  0.82813845  0.83043716  1
  Fe  Fe36  1  0.49903648  0.16511044  0.49936334  1
  Cr  Cr37  1  0.33467000  0.99615855  0.66462213  1
  Ni  Ni38  1  0.50007968  0.16424301  0.82990003  1
  Cr  Cr39  1  0.49874196  0.49736598  0.49791491  1
  Fe  Fe40  1  0.33138044  0.33220808  0.66544655  1
  Cr  Cr41  1  0.49517919  0.49832297  0.83113850  1
  Ni  Ni42  1  0.49903517  0.83123318  0.50118959  1
  Ni  Ni43  1  0.33199775  0.66650941  0.66534802  1
  Fe  Fe44  1  0.49961885  0.83229731  0.83092355  1
  Fe  Fe45  1  0.83026727  0.16583109  0.49947331  1
  Fe  Fe46  1  0.66494632  0.99803806  0.66597235  1
  Fe  Fe47  1  0.82889591  0.16412529  0.83099776  1
  Fe  Fe48  1  0.83288839  0.49948943  0.50006030  1
  Fe  Fe49  1  0.66528154  0.32960088  0.66495048  1
  Cr  Cr50  1  0.83380911  0.49910939  0.82902387  1
  Fe  Fe51  1  0.83286085  0.83017821  0.49911296  1
  Fe  Fe52  1  0.66552534  0.66768404  0.66437814  1
  Ni  Ni53  1  0.83032356  0.83369704  0.83041458  1
" 