8561,Ni23Fe74Cr2_8,-232.450029356432, 187.827952459776,Ni23Fe74Cr2,"# generated using pymatgen
 data_Cr(Fe10Ni3)2
_symmetry_space_group_name_H-M   'P 1'
_cell_length_a   7.40554467
_cell_length_b   7.40554467
_cell_length_c   10.47302170
_cell_angle_alpha   90.00000000
_cell_angle_beta   90.00000000
_cell_angle_gamma   90.00000000
_symmetry_Int_Tables_number   1
_chemical_formula_structural   Cr(Fe10Ni3)2
_chemical_formula_sum   'Cr2 Fe40 Ni12'
_cell_volume   574.36241794
_cell_formula_units_Z   2
loop_
 _symmetry_equiv_pos_site_id
 _symmetry_equiv_pos_as_xyz
  1  'x, y, z'
loop_
 _atom_site_type_symbol
 _atom_site_label
 _atom_site_symmetry_multiplicity
 _atom_site_fract_x
 _atom_site_fract_y
 _atom_site_fract_z
 _atom_site_occupancy
  Fe  Fe0  1  1.00343692  0.00434932  0.00430759  1
  Fe  Fe1  1  0.17007563  0.17269163  0.17091379  1
  Ni  Ni2  1  1.00279546  1.00390843  0.33642423  1
  Fe  Fe3  1  1.00358970  0.33707049  0.00460938  1
  Ni  Ni4  1  0.17243810  0.50457364  0.17151670  1
  Fe  Fe5  1  0.00432310  0.33685515  0.33733646  1
  Fe  Fe6  1  1.00403507  0.67103702  1.00412818  1
  Fe  Fe7  1  0.16970577  0.83634069  0.17001825  1
  Fe  Fe8  1  0.00470266  0.67076439  0.33718617  1
  Fe  Fe9  1  0.33723940  0.00477959  0.00499101  1
  Fe  Fe10  1  0.50489159  0.17265936  0.16964825  1
  Cr  Cr11  1  0.33585250  0.00622059  0.33719658  1
  Fe  Fe12  1  0.33793403  0.33749061  0.00460759  1
  Ni  Ni13  1  0.50266776  0.50554646  0.17039186  1
  Ni  Ni14  1  0.33747892  0.33920309  0.33699988  1
  Fe  Fe15  1  0.33705865  0.67019286  0.00540848  1
  Fe  Fe16  1  0.50552252  0.83611581  0.16962019  1
  Fe  Fe17  1  0.33752640  0.66880019  0.33688889  1
  Ni  Ni18  1  0.67196751  0.00456355  0.00556205  1
  Ni  Ni19  1  0.83770710  0.16960596  0.17120863  1
  Fe  Fe20  1  0.67291721  0.00449716  0.33684955  1
  Fe  Fe21  1  0.67093451  0.33689085  1.00393963  1
  Fe  Fe22  1  0.83726045  0.50406126  0.17090121  1
  Fe  Fe23  1  0.67094431  0.33708164  0.33774540  1
  Fe  Fe24  1  0.67136533  0.67034197  0.00563955  1
  Fe  Fe25  1  0.83722802  0.83713866  0.17097413  1
  Ni  Ni26  1  0.67148150  0.67004755  0.33677775  1
  Ni  Ni27  1  0.16869039  0.17179088  0.50497496  1
  Ni  Ni28  1  0.00446539  1.00300227  0.67171312  1
  Fe  Fe29  1  0.17117809  0.17053471  0.83646750  1
  Fe  Fe30  1  0.17088885  0.50275342  0.50370292  1
  Fe  Fe31  1  1.00407558  0.33664675  0.67051623  1
  Fe  Fe32  1  0.17126064  0.50428076  0.83789775  1
  Fe  Fe33  1  0.16891314  0.83818408  0.50517844  1
  Fe  Fe34  1  0.00422437  0.67024702  0.67114515  1
  Fe  Fe35  1  0.16883509  0.83763933  0.83725991  1
  Fe  Fe36  1  0.50462411  0.17238936  0.50547818  1
  Fe  Fe37  1  0.33645093  0.00602450  0.66968172  1
  Fe  Fe38  1  0.50430630  0.17273012  0.83733473  1
  Fe  Fe39  1  0.50419336  0.50275034  0.50373383  1
  Ni  Ni40  1  0.33869881  0.33764200  0.67137798  1
  Fe  Fe41  1  0.50415197  0.50201540  0.83738109  1
  Fe  Fe42  1  0.50529913  0.83732211  0.50497997  1
  Fe  Fe43  1  0.33663941  0.66962483  0.67015771  1
  Cr  Cr44  1  0.50438000  0.83725854  0.83712278  1
  Ni  Ni45  1  0.83843260  0.17019246  0.50455138  1
  Fe  Fe46  1  0.67175208  0.00617222  0.67042619  1
  Fe  Fe47  1  0.83697419  0.17030700  0.83740185  1
  Fe  Fe48  1  0.83737620  0.50342249  0.50437045  1
  Ni  Ni49  1  0.66921848  0.33826127  0.67143714  1
  Fe  Fe50  1  0.83704449  0.50435694  0.83718583  1
  Fe  Fe51  1  0.83824418  0.83861677  0.50392541  1
  Fe  Fe52  1  0.67159329  0.66944903  0.66948218  1
  Fe  Fe53  1  0.83924345  0.83779212  0.83755885  1
" 