4776,Ni23Fe35Cr40_17,-222.186440577999, 177.085381308466,Ni23Fe35Cr40,"# generated using pymatgen
 data_Cr23Fe19Ni12
_symmetry_space_group_name_H-M   'P 1'
_cell_length_a   7.49351758
_cell_length_b   7.49351758
_cell_length_c   10.59743420
_cell_angle_alpha   90.00000000
_cell_angle_beta   90.00000000
_cell_angle_gamma   90.00000000
_symmetry_Int_Tables_number   1
_chemical_formula_structural   Cr23Fe19Ni12
_chemical_formula_sum   'Cr23 Fe19 Ni12'
_cell_volume   595.07566426
_cell_formula_units_Z   1
loop_
 _symmetry_equiv_pos_site_id
 _symmetry_equiv_pos_as_xyz
  1  'x, y, z'
loop_
 _atom_site_type_symbol
 _atom_site_label
 _atom_site_symmetry_multiplicity
 _atom_site_fract_x
 _atom_site_fract_y
 _atom_site_fract_z
 _atom_site_occupancy
  Fe  Fe0  1  0.99660043  -0.00004279  0.99518153  1
  Cr  Cr1  1  0.16338655  0.16891042  0.16355728  1
  Cr  Cr2  1  -0.00000202  0.00022644  0.33201726  1
  Fe  Fe3  1  0.99798488  0.33241995  0.99480053  1
  Fe  Fe4  1  0.16686282  0.49646552  0.16219326  1
  Fe  Fe5  1  -0.00102575  0.33243751  0.33322164  1
  Fe  Fe6  1  -0.00064563  0.66197247  0.99605663  1
  Cr  Cr7  1  0.16514635  0.82942506  0.16186542  1
  Cr  Cr8  1  0.99736361  0.66149349  0.33370047  1
  Cr  Cr9  1  0.33262514  -0.00081686  0.99750707  1
  Cr  Cr10  1  0.50001285  0.16794671  0.16564464  1
  Cr  Cr11  1  0.33244881  0.00105448  0.33253900  1
  Ni  Ni12  1  0.33169178  0.33287262  0.99675432  1
  Fe  Fe13  1  0.49786298  0.49581118  0.16375327  1
  Ni  Ni14  1  0.33092168  0.33238699  0.33269946  1
  Fe  Fe15  1  0.33313859  0.66166655  0.99720468  1
  Ni  Ni16  1  0.49939977  0.82921387  0.16473380  1
  Cr  Cr17  1  0.33288079  0.66290684  0.32752430  1
  Fe  Fe18  1  0.66354538  0.00003394  0.99670449  1
  Cr  Cr19  1  0.83091944  0.16660891  0.16367496  1
  Ni  Ni20  1  0.66319942  -0.00111221  0.32963121  1
  Ni  Ni21  1  0.66444685  0.33222261  0.99549045  1
  Cr  Cr22  1  0.83141637  0.49482075  0.16544694  1
  Ni  Ni23  1  0.66347334  0.33294928  0.33231741  1
  Cr  Cr24  1  0.66439179  0.66347937  -0.00138235  1
  Cr  Cr25  1  0.83031166  0.83332953  0.16523483  1
  Ni  Ni26  1  0.66484409  0.66245836  0.33011357  1
  Ni  Ni27  1  0.16616545  0.17082629  0.49864771  1
  Cr  Cr28  1  -0.00150356  0.00010095  0.66683611  1
  Fe  Fe29  1  0.16497866  0.16919132  0.83266677  1
  Fe  Fe30  1  0.16614039  0.49546481  0.49822637  1
  Cr  Cr31  1  0.99752172  0.33240394  0.66444432  1
  Ni  Ni32  1  0.16700507  0.49816555  0.83317093  1
  Cr  Cr33  1  0.16588573  0.83125478  0.49954191  1
  Cr  Cr34  1  0.99664319  0.66167917  0.66521498  1
  Fe  Fe35  1  0.16417728  0.83025955  0.83363032  1
  Fe  Fe36  1  0.49907689  0.16580598  0.49764366  1
  Cr  Cr37  1  0.33312900  0.00291296  0.66465162  1
  Fe  Fe38  1  0.49917837  0.16869777  0.83257755  1
  Cr  Cr39  1  0.49841227  0.49582575  0.49857295  1
  Fe  Fe40  1  0.33234270  0.33170834  0.66673967  1
  Ni  Ni41  1  0.49675463  0.49633230  0.83285150  1
  Cr  Cr42  1  0.50043679  0.83095140  0.49722379  1
  Cr  Cr43  1  0.33153369  0.66372627  0.66803315  1
  Fe  Fe44  1  0.49932437  0.83171826  0.83232605  1
  Cr  Cr45  1  0.82867563  0.16560013  0.49617275  1
  Ni  Ni46  1  0.66358643  0.00065587  0.66855378  1
  Ni  Ni47  1  0.82999746  0.16403502  0.83384613  1
  Fe  Fe48  1  0.83016135  0.49625090  0.49647333  1
  Fe  Fe49  1  0.66394629  0.32895372  0.66787362  1
  Fe  Fe50  1  0.83162065  0.49480153  0.83347033  1
  Cr  Cr51  1  0.82868695  0.83234890  0.49753715  1
  Cr  Cr52  1  0.66646240  0.66183999  0.66667607  1
  Fe  Fe53  1  0.83108389  0.83197319  0.83283705  1
" 