8605,Ni23Fe19Cr57_10,-216.129252311914, 167.995904388484,Ni23Fe19Cr57,"# generated using pymatgen
 data_Cr16Fe5Ni6
_symmetry_space_group_name_H-M   'P 1'
_cell_length_a   7.53621471
_cell_length_b   7.53621471
_cell_length_c   10.65781705
_cell_angle_alpha   90.00000000
_cell_angle_beta   90.00000000
_cell_angle_gamma   90.00000000
_symmetry_Int_Tables_number   1
_chemical_formula_structural   Cr16Fe5Ni6
_chemical_formula_sum   'Cr32 Fe10 Ni12'
_cell_volume   605.30573260
_cell_formula_units_Z   2
loop_
 _symmetry_equiv_pos_site_id
 _symmetry_equiv_pos_as_xyz
  1  'x, y, z'
loop_
 _atom_site_type_symbol
 _atom_site_label
 _atom_site_symmetry_multiplicity
 _atom_site_fract_x
 _atom_site_fract_y
 _atom_site_fract_z
 _atom_site_occupancy
  Cr  Cr0  1  -0.00390273  0.99359111  0.99281382  1
  Cr  Cr1  1  0.16308544  0.16142671  0.16330084  1
  Cr  Cr2  1  0.99484183  -0.00439574  0.33245521  1
  Cr  Cr3  1  0.99407890  0.33087825  0.99292398  1
  Cr  Cr4  1  0.16038875  0.49527671  0.16239375  1
  Cr  Cr5  1  0.99522378  0.32930974  0.33277353  1
  Ni  Ni6  1  0.99424051  0.66038581  0.99305105  1
  Cr  Cr7  1  0.16236032  0.82907879  0.15984574  1
  Cr  Cr8  1  0.99410116  0.66138787  0.32979576  1
  Fe  Fe9  1  0.33067053  0.99439969  0.99479585  1
  Fe  Fe10  1  0.49547968  0.16134572  0.16158853  1
  Ni  Ni11  1  0.33007561  -0.00423381  0.32639266  1
  Cr  Cr12  1  0.33176784  0.32792167  0.99448763  1
  Fe  Fe13  1  0.49741733  0.49537472  0.15917960  1
  Cr  Cr14  1  0.32898630  0.32866249  0.32954643  1
  Cr  Cr15  1  0.32898966  0.66196692  0.99308461  1
  Fe  Fe16  1  0.49476676  0.82943887  0.16100904  1
  Cr  Cr17  1  0.32990363  0.66187121  0.32947040  1
  Cr  Cr18  1  0.65968711  -0.00329403  0.99420812  1
  Cr  Cr19  1  0.82865170  0.16462441  0.16138834  1
  Cr  Cr20  1  0.66186530  0.99437053  0.33074808  1
  Ni  Ni21  1  0.66047925  0.33120462  0.99359348  1
  Fe  Fe22  1  0.82806492  0.49545355  0.15961410  1
  Cr  Cr23  1  0.66208504  0.33032744  0.32702500  1
  Ni  Ni24  1  0.66216416  0.65879391  -0.00345028  1
  Cr  Cr25  1  0.82849532  0.82658569  0.16057792  1
  Cr  Cr26  1  0.66236499  0.66163517  0.32687312  1
  Ni  Ni27  1  0.16212816  0.16226180  0.49357651  1
  Cr  Cr28  1  0.99350950  -0.00416568  0.66146765  1
  Cr  Cr29  1  0.16051086  0.16215608  0.83037786  1
  Ni  Ni30  1  0.15977686  0.49430248  0.49636955  1
  Cr  Cr31  1  -0.00376901  0.32948447  0.66088325  1
  Ni  Ni32  1  0.16385902  0.49799569  0.82820706  1
  Cr  Cr33  1  0.16470764  0.82860993  0.49611730  1
  Cr  Cr34  1  -0.00253894  0.66095189  0.66279889  1
  Ni  Ni35  1  0.16256168  0.82520123  0.83058112  1
  Cr  Cr36  1  0.49501126  0.16132808  0.49666572  1
  Cr  Cr37  1  0.32826688  -0.00406326  0.66533124  1
  Fe  Fe38  1  0.49684207  0.16313723  0.82866554  1
  Cr  Cr39  1  0.49491739  0.49604176  0.49708521  1
  Cr  Cr40  1  0.32739339  0.33176950  0.66316124  1
  Ni  Ni41  1  0.49685769  0.49530667  0.82989537  1
  Cr  Cr42  1  0.49620958  0.82910343  0.49688367  1
  Fe  Fe43  1  0.32750890  0.66100006  0.66426761  1
  Cr  Cr44  1  0.49640576  0.82693878  0.82684266  1
  Fe  Fe45  1  0.82817796  0.16361141  0.49737832  1
  Ni  Ni46  1  0.66331782  -0.00370599  0.66162637  1
  Ni  Ni47  1  0.82451531  0.16401934  0.82780869  1
  Ni  Ni48  1  0.82906567  0.49500165  0.49469100  1
  Cr  Cr49  1  0.66257008  0.32829862  0.66501243  1
  Fe  Fe50  1  0.82821759  0.49625499  0.83001506  1
  Fe  Fe51  1  0.82882905  0.82754830  0.49690756  1
  Cr  Cr52  1  0.66277394  0.66169354  0.66126027  1
  Cr  Cr53  1  0.82823579  0.82872498  0.82883156  1
" 