6366,Ni23Fe35Cr40_16,-222.526954656998, 177.074510436267,Ni23Fe35Cr40,"# generated using pymatgen
 data_Cr23Fe19Ni12
_symmetry_space_group_name_H-M   'P 1'
_cell_length_a   7.50468778
_cell_length_b   7.50468778
_cell_length_c   10.61323124
_cell_angle_alpha   90.00000000
_cell_angle_beta   90.00000000
_cell_angle_gamma   90.00000000
_symmetry_Int_Tables_number   1
_chemical_formula_structural   Cr23Fe19Ni12
_chemical_formula_sum   'Cr23 Fe19 Ni12'
_cell_volume   597.74077743
_cell_formula_units_Z   1
loop_
 _symmetry_equiv_pos_site_id
 _symmetry_equiv_pos_as_xyz
  1  'x, y, z'
loop_
 _atom_site_type_symbol
 _atom_site_label
 _atom_site_symmetry_multiplicity
 _atom_site_fract_x
 _atom_site_fract_y
 _atom_site_fract_z
 _atom_site_occupancy
  Ni  Ni0  1  0.99681983  -0.00200296  0.99626722  1
  Ni  Ni1  1  0.16216292  0.16314046  0.16187538  1
  Cr  Cr2  1  0.99528367  0.99687403  0.33320911  1
  Ni  Ni3  1  0.99738107  0.32906438  0.99748771  1
  Fe  Fe4  1  0.16368569  0.49578062  0.16490170  1
  Cr  Cr5  1  -0.00192469  0.33053646  0.32842234  1
  Cr  Cr6  1  -0.00183003  0.66302320  0.99570153  1
  Cr  Cr7  1  0.16267693  0.83319645  0.16280936  1
  Fe  Fe8  1  0.99677374  0.66440193  0.33330924  1
  Ni  Ni9  1  0.33070169  -0.00235051  0.99575012  1
  Cr  Cr10  1  0.49530450  0.16192511  0.16466438  1
  Cr  Cr11  1  0.33244954  0.99746329  0.33219009  1
  Cr  Cr12  1  0.33006262  0.33123459  0.00125107  1
  Cr  Cr13  1  0.49988893  0.49942469  0.16612853  1
  Fe  Fe14  1  0.32996204  0.33049050  0.33232496  1
  Cr  Cr15  1  0.33349572  0.66445782  0.99418836  1
  Cr  Cr16  1  0.50222127  0.83076880  0.16122730  1
  Cr  Cr17  1  0.33121383  0.66285892  0.33194282  1
  Fe  Fe18  1  0.66428333  0.99655727  0.99362974  1
  Cr  Cr19  1  0.83158870  0.16196301  0.16049527  1
  Fe  Fe20  1  0.66404501  0.99598426  0.33388482  1
  Cr  Cr21  1  0.66413778  0.33118897  0.99359724  1
  Cr  Cr22  1  0.83015425  0.50166410  0.16364846  1
  Cr  Cr23  1  0.66240723  0.32904816  0.33482177  1
  Ni  Ni24  1  0.66496902  0.66646749  0.99507653  1
  Fe  Fe25  1  0.83037274  0.83207149  0.16276499  1
  Fe  Fe26  1  0.66562863  0.66673960  0.33368873  1
  Cr  Cr27  1  0.16631611  0.16505322  0.49981627  1
  Cr  Cr28  1  0.99731918  0.99614842  0.66254503  1
  Cr  Cr29  1  0.16485816  0.16222645  0.83145929  1
  Ni  Ni30  1  0.16355889  0.49767431  0.49679181  1
  Cr  Cr31  1  0.99163377  0.33141125  0.66527988  1
  Fe  Fe32  1  0.16603029  0.49456313  0.83025333  1
  Fe  Fe33  1  0.16856305  0.82939749  0.49805353  1
  Cr  Cr34  1  -0.00118428  0.66411237  0.66318397  1
  Fe  Fe35  1  0.16623112  0.83305947  0.83142683  1
  Ni  Ni36  1  0.49748253  0.16438867  0.49954456  1
  Ni  Ni37  1  0.33321487  0.99669417  0.66362057  1
  Ni  Ni38  1  0.49637701  0.16406644  0.82940455  1
  Ni  Ni39  1  0.49710006  0.49726788  0.49834457  1
  Fe  Fe40  1  0.33412986  0.33108960  0.66406626  1
  Ni  Ni41  1  0.50049007  0.49721057  0.82992322  1
  Ni  Ni42  1  0.50037385  0.83080136  0.49813407  1
  Cr  Cr43  1  0.33165364  0.66562939  0.66622113  1
  Fe  Fe44  1  0.49769422  0.83392709  0.83131051  1
  Fe  Fe45  1  0.82794974  0.16550318  0.49775527  1
  Cr  Cr46  1  0.66273312  0.00056116  0.66322743  1
  Fe  Fe47  1  0.82942526  0.16376769  0.83230854  1
  Fe  Fe48  1  0.82912752  0.49810024  0.49670316  1
  Fe  Fe49  1  0.65959298  0.33050127  0.66427765  1
  Fe  Fe50  1  0.82984007  0.49670943  0.83197314  1
  Fe  Fe51  1  0.82839877  0.82865654  0.49657403  1
  Cr  Cr52  1  0.66291774  0.66193293  0.66489405  1
  Fe  Fe53  1  0.82883648  0.83215415  0.83222858  1
" 