7989,Ni23Fe74Cr2_17,-232.692558244724, 183.437610853376,Ni23Fe74Cr2,"# generated using pymatgen
 data_Cr(Fe10Ni3)2
_symmetry_space_group_name_H-M   'P 1'
_cell_length_a   7.40683700
_cell_length_b   7.40683700
_cell_length_c   10.47484935
_cell_angle_alpha   90.00000000
_cell_angle_beta   90.00000000
_cell_angle_gamma   90.00000000
_symmetry_Int_Tables_number   1
_chemical_formula_structural   Cr(Fe10Ni3)2
_chemical_formula_sum   'Cr2 Fe40 Ni12'
_cell_volume   574.66316522
_cell_formula_units_Z   2
loop_
 _symmetry_equiv_pos_site_id
 _symmetry_equiv_pos_as_xyz
  1  'x, y, z'
loop_
 _atom_site_type_symbol
 _atom_site_label
 _atom_site_symmetry_multiplicity
 _atom_site_fract_x
 _atom_site_fract_y
 _atom_site_fract_z
 _atom_site_occupancy
  Ni  Ni0  1  0.00644668  0.00539697  0.00433691  1
  Fe  Fe1  1  0.17056662  0.17080981  0.17093460  1
  Fe  Fe2  1  0.00496912  1.00388062  0.33711196  1
  Ni  Ni3  1  1.00347732  0.33666673  1.00352414  1
  Fe  Fe4  1  0.17125660  0.50471124  0.17115102  1
  Fe  Fe5  1  0.00489473  0.33807028  0.33679128  1
  Fe  Fe6  1  0.00429299  0.66955500  0.00521220  1
  Fe  Fe7  1  0.17058892  0.83649801  0.17107327  1
  Fe  Fe8  1  0.00436590  0.67042448  0.33728178  1
  Ni  Ni9  1  0.33579781  1.00239432  0.00540441  1
  Fe  Fe10  1  0.50464360  0.17148396  0.16971778  1
  Fe  Fe11  1  0.33808516  1.00323343  0.33773586  1
  Fe  Fe12  1  0.33623425  0.33741790  0.00501790  1
  Fe  Fe13  1  0.50466357  0.50486396  0.17119127  1
  Fe  Fe14  1  0.33704955  0.33776052  0.33780771  1
  Fe  Fe15  1  0.33731706  0.67055246  0.00494448  1
  Ni  Ni16  1  0.50386865  0.83814755  0.16951877  1
  Ni  Ni17  1  0.33827838  0.67186890  0.33791021  1
  Fe  Fe18  1  0.67081881  0.00450414  0.00620488  1
  Fe  Fe19  1  0.83704480  0.17075791  0.17017797  1
  Fe  Fe20  1  0.66933836  1.00259515  0.33754255  1
  Ni  Ni21  1  0.67192633  0.33979861  0.00451950  1
  Ni  Ni22  1  0.83910669  0.50389422  0.17051464  1
  Fe  Fe23  1  0.67049067  0.33831421  0.33634326  1
  Ni  Ni24  1  0.66908910  0.66901664  0.00523028  1
  Fe  Fe25  1  0.83732684  0.83681670  0.16968367  1
  Fe  Fe26  1  0.66982816  0.67146824  0.33628031  1
  Ni  Ni27  1  0.17031065  0.17198183  0.50370376  1
  Fe  Fe28  1  0.00513903  0.00500031  0.67034633  1
  Fe  Fe29  1  0.16987499  0.16889677  0.83686133  1
  Fe  Fe30  1  0.17162502  0.50481769  0.50352364  1
  Fe  Fe31  1  0.00500394  0.33687284  0.67101382  1
  Fe  Fe32  1  0.17119342  0.50451993  0.83750949  1
  Fe  Fe33  1  0.17152072  0.83806695  0.50346504  1
  Fe  Fe34  1  0.00529433  0.67040289  0.67001908  1
  Fe  Fe35  1  0.17287499  0.83827276  0.83753954  1
  Fe  Fe36  1  0.50316940  0.17033395  0.50445926  1
  Ni  Ni37  1  0.33651849  1.00283774  0.66888168  1
  Cr  Cr38  1  0.50290902  0.16867508  0.83836791  1
  Fe  Fe39  1  0.50327951  0.50393359  0.50356805  1
  Fe  Fe40  1  0.33615985  0.33724468  0.66967692  1
  Fe  Fe41  1  0.50456335  0.50568665  0.83768443  1
  Ni  Ni42  1  0.50492140  0.83701322  0.50461187  1
  Fe  Fe43  1  0.33790327  0.67138713  0.66989899  1
  Ni  Ni44  1  0.50310876  0.83697733  0.83792959  1
  Fe  Fe45  1  0.83724880  0.17021593  0.50363833  1
  Fe  Fe46  1  0.66964935  1.00331988  0.66909065  1
  Fe  Fe47  1  0.83797771  0.17157998  0.83792564  1
  Fe  Fe48  1  0.83732714  0.50403732  0.50325394  1
  Fe  Fe49  1  0.67090897  0.33756450  0.67052306  1
  Fe  Fe50  1  0.83618977  0.50293487  0.83831552  1
  Fe  Fe51  1  0.83811111  0.83792590  0.50429057  1
  Fe  Fe52  1  0.66893356  0.67087374  0.67066359  1
  Cr  Cr53  1  0.83600131  0.83720913  0.83955994  1
" 