7081,Ni23Fe60Cr16_11,-229.494175991611, 188.857866937366,Ni23Fe60Cr16,"# generated using pymatgen
 data_Cr5(Fe8Ni3)2
_symmetry_space_group_name_H-M   'P 1'
_cell_length_a   7.44135291
_cell_length_b   7.44135291
_cell_length_c   10.52366221
_cell_angle_alpha   90.00000000
_cell_angle_beta   90.00000000
_cell_angle_gamma   90.00000000
_symmetry_Int_Tables_number   1
_chemical_formula_structural   Cr5(Fe8Ni3)2
_chemical_formula_sum   'Cr10 Fe32 Ni12'
_cell_volume   582.73446222
_cell_formula_units_Z   2
loop_
 _symmetry_equiv_pos_site_id
 _symmetry_equiv_pos_as_xyz
  1  'x, y, z'
loop_
 _atom_site_type_symbol
 _atom_site_label
 _atom_site_symmetry_multiplicity
 _atom_site_fract_x
 _atom_site_fract_y
 _atom_site_fract_z
 _atom_site_occupancy
  Ni  Ni0  1  1.00156136  1.00159508  1.00088331  1
  Fe  Fe1  1  0.16734286  0.16764651  0.16798292  1
  Fe  Fe2  1  1.00100437  0.00278459  0.33506669  1
  Fe  Fe3  1  0.00217743  0.33450052  1.00105102  1
  Fe  Fe4  1  0.16823097  0.50153250  0.16766298  1
  Fe  Fe5  1  1.00138386  0.33432252  0.33577912  1
  Fe  Fe6  1  0.00197484  0.66915954  1.00144516  1
  Fe  Fe7  1  0.16914923  0.83599784  0.16699087  1
  Cr  Cr8  1  1.00035842  0.66896323  0.33531382  1
  Fe  Fe9  1  0.33240311  1.00083930  0.00210118  1
  Cr  Cr10  1  0.50150505  0.16667103  0.16855613  1
  Fe  Fe11  1  0.33438940  1.00138710  0.33481992  1
  Fe  Fe12  1  0.33244781  0.33550036  1.00077609  1
  Cr  Cr13  1  0.50145628  0.50362491  0.16900682  1
  Ni  Ni14  1  0.33418831  0.33446434  0.33680513  1
  Fe  Fe15  1  0.33332691  0.66883873  1.00112959  1
  Ni  Ni16  1  0.50241115  0.83496807  0.16844585  1
  Fe  Fe17  1  0.33579302  0.66807755  0.33474705  1
  Fe  Fe18  1  0.67086754  1.00063831  0.00280335  1
  Fe  Fe19  1  0.83595099  0.16729146  0.16844224  1
  Fe  Fe20  1  0.66978110  1.00100038  0.33521573  1
  Fe  Fe21  1  0.67055443  0.33542766  1.00068803  1
  Fe  Fe22  1  0.83475307  0.50219513  0.16847627  1
  Fe  Fe23  1  0.66976158  0.33572983  0.33692237  1
  Fe  Fe24  1  0.66987866  0.66911660  0.00253908  1
  Ni  Ni25  1  0.83424938  0.83582182  0.16811641  1
  Ni  Ni26  1  0.66883134  0.66908253  0.33525663  1
  Fe  Fe27  1  0.16867424  0.16845014  0.50056798  1
  Cr  Cr28  1  0.00239544  1.00090512  0.66846650  1
  Ni  Ni29  1  0.16772299  0.16856934  0.83625409  1
  Fe  Fe30  1  0.16924965  0.50097374  0.50118558  1
  Cr  Cr31  1  0.00233209  0.33511260  0.66878377  1
  Ni  Ni32  1  0.16937087  0.50129063  0.83648755  1
  Fe  Fe33  1  0.16755723  0.83575535  0.50169389  1
  Cr  Cr34  1  1.00155270  0.66916202  0.66899730  1
  Ni  Ni35  1  0.16772421  0.83531939  0.83585640  1
  Fe  Fe36  1  0.50226031  0.17055851  0.50086571  1
  Fe  Fe37  1  0.33234824  0.00231234  0.66825699  1
  Cr  Cr38  1  0.50063745  0.17012311  0.83506541  1
  Fe  Fe39  1  0.50321993  0.50039768  0.50156117  1
  Fe  Fe40  1  0.33535384  0.33578359  0.66809828  1
  Ni  Ni41  1  0.50163978  0.50154544  0.83385791  1
  Cr  Cr42  1  0.50148544  0.83400461  0.50061076  1
  Fe  Fe43  1  0.33462665  0.66708068  0.66930608  1
  Cr  Cr44  1  0.50103793  0.83327144  0.83623280  1
  Ni  Ni45  1  0.83524091  0.16966470  0.49906323  1
  Cr  Cr46  1  0.66967606  0.00231190  0.66832305  1
  Fe  Fe47  1  0.83674295  0.16912677  0.83683568  1
  Ni  Ni48  1  0.83339573  0.50051444  0.50081858  1
  Fe  Fe49  1  0.66832741  0.33718617  0.66755053  1
  Fe  Fe50  1  0.83428391  0.50167686  0.83586160  1
  Ni  Ni51  1  0.83491581  0.83500396  0.50071787  1
  Fe  Fe52  1  0.66893826  0.66557540  0.66762509  1
  Fe  Fe53  1  0.83678741  0.83437657  0.83726240  1
" 