5813,Ni23Fe60Cr16_19,-229.724599380276, 185.701354150951,Ni23Fe60Cr16,"# generated using pymatgen
 data_Cr5(Fe8Ni3)2
_symmetry_space_group_name_H-M   'P 1'
_cell_length_a   7.45034475
_cell_length_b   7.45034475
_cell_length_c   10.53637859
_cell_angle_alpha   90.00000000
_cell_angle_beta   90.00000000
_cell_angle_gamma   90.00000000
_symmetry_Int_Tables_number   1
_chemical_formula_structural   Cr5(Fe8Ni3)2
_chemical_formula_sum   'Cr10 Fe32 Ni12'
_cell_volume   584.84947627
_cell_formula_units_Z   2
loop_
 _symmetry_equiv_pos_site_id
 _symmetry_equiv_pos_as_xyz
  1  'x, y, z'
loop_
 _atom_site_type_symbol
 _atom_site_label
 _atom_site_symmetry_multiplicity
 _atom_site_fract_x
 _atom_site_fract_y
 _atom_site_fract_z
 _atom_site_occupancy
  Fe  Fe0  1  0.99921977  0.00143567  0.00152040  1
  Cr  Cr1  1  0.16678278  0.16783945  0.16678836  1
  Ni  Ni2  1  1.00054870  0.00132135  0.33511495  1
  Fe  Fe3  1  1.00081624  0.33566090  1.00072258  1
  Fe  Fe4  1  0.16678850  0.50099936  0.16730641  1
  Fe  Fe5  1  0.00150381  0.33356262  0.33415967  1
  Fe  Fe6  1  0.99872062  0.66626660  0.00135421  1
  Cr  Cr7  1  0.16717316  0.83490759  0.16633740  1
  Fe  Fe8  1  0.00153872  0.66785919  0.33356799  1
  Fe  Fe9  1  0.33513282  0.00205812  1.00107090  1
  Fe  Fe10  1  0.50173386  0.16753478  0.16843856  1
  Fe  Fe11  1  0.33506112  1.00088870  0.33610903  1
  Fe  Fe12  1  0.33477634  0.33628739  0.99958125  1
  Ni  Ni13  1  0.50120454  0.50267487  0.16675857  1
  Fe  Fe14  1  0.33299175  0.33432069  0.33464404  1
  Fe  Fe15  1  0.33625519  0.66501670  0.00150315  1
  Fe  Fe16  1  0.50351833  0.83310106  0.16794511  1
  Fe  Fe17  1  0.33400996  0.66815773  0.33452564  1
  Cr  Cr18  1  0.66901397  1.00001591  0.00346807  1
  Ni  Ni19  1  0.83544266  0.16700960  0.16914212  1
  Fe  Fe20  1  0.66857080  1.00092041  0.33336949  1
  Cr  Cr21  1  0.66716110  0.33640721  1.00062921  1
  Ni  Ni22  1  0.83319755  0.50241392  0.16749550  1
  Cr  Cr23  1  0.66830859  0.33292111  0.33249495  1
  Ni  Ni24  1  0.66856827  0.66707996  0.00284187  1
  Ni  Ni25  1  0.83354980  0.83393869  0.16801057  1
  Fe  Fe26  1  0.66781224  0.66992468  0.33153443  1
  Fe  Fe27  1  0.16708729  0.16732839  0.50091891  1
  Fe  Fe28  1  1.00103483  0.00239434  0.66668330  1
  Fe  Fe29  1  0.16886338  0.17030002  0.83446446  1
  Fe  Fe30  1  0.16740324  0.50104921  0.50192307  1
  Fe  Fe31  1  0.00176975  0.33432006  0.66848340  1
  Ni  Ni32  1  0.16884638  0.49913105  0.83461866  1
  Ni  Ni33  1  0.16960064  0.83597553  0.50154626  1
  Fe  Fe34  1  0.00239692  0.66664865  0.66844057  1
  Cr  Cr35  1  0.16670255  0.83514389  0.83528830  1
  Fe  Fe36  1  0.50050406  0.16555620  0.50211498  1
  Fe  Fe37  1  0.33475317  0.00213866  0.66617827  1
  Fe  Fe38  1  0.49862084  0.17023518  0.83281210  1
  Cr  Cr39  1  0.50017129  0.50168394  0.50330863  1
  Ni  Ni40  1  0.33362401  0.33388496  0.66880882  1
  Ni  Ni41  1  0.50072195  0.50004049  0.83358553  1
  Fe  Fe42  1  0.50020161  0.83583622  0.50162357  1
  Fe  Fe43  1  0.33401652  0.66626797  0.66733552  1
  Cr  Cr44  1  0.50147543  0.83211551  0.83359699  1
  Ni  Ni45  1  0.83575952  0.16663764  0.50153373  1
  Fe  Fe46  1  0.66757900  0.00276635  0.66766429  1
  Fe  Fe47  1  0.83587984  0.16836741  0.83308134  1
  Cr  Cr48  1  0.83468862  0.49940996  0.50204274  1
  Fe  Fe49  1  0.66719899  0.33358773  0.66901634  1
  Fe  Fe50  1  0.83454940  0.50283552  0.83405147  1
  Cr  Cr51  1  0.83524040  0.83626409  0.50111376  1
  Ni  Ni52  1  0.66794833  0.66792741  0.66972321  1
  Fe  Fe53  1  0.83449190  0.83216040  0.83413843  1
" 