7709,Ni23Fe35Cr40_14,-222.341448939251, 177.13051760855,Ni23Fe35Cr40,"# generated using pymatgen
 data_Cr23Fe19Ni12
_symmetry_space_group_name_H-M   'P 1'
_cell_length_a   7.49615606
_cell_length_b   7.49615606
_cell_length_c   10.60116557
_cell_angle_alpha   90.00000000
_cell_angle_beta   90.00000000
_cell_angle_gamma   90.00000000
_symmetry_Int_Tables_number   1
_chemical_formula_structural   Cr23Fe19Ni12
_chemical_formula_sum   'Cr23 Fe19 Ni12'
_cell_volume   595.70446601
_cell_formula_units_Z   1
loop_
 _symmetry_equiv_pos_site_id
 _symmetry_equiv_pos_as_xyz
  1  'x, y, z'
loop_
 _atom_site_type_symbol
 _atom_site_label
 _atom_site_symmetry_multiplicity
 _atom_site_fract_x
 _atom_site_fract_y
 _atom_site_fract_z
 _atom_site_occupancy
  Cr  Cr0  1  0.99705968  -0.00028241  -0.00163530  1
  Cr  Cr1  1  0.16871839  0.16332347  0.16490404  1
  Fe  Fe2  1  0.00225041  0.99706838  0.33201921  1
  Cr  Cr3  1  0.99513696  0.33240118  -0.00186336  1
  Cr  Cr4  1  0.16738425  0.49907194  0.16118742  1
  Cr  Cr5  1  0.99765460  0.33096846  0.32991061  1
  Fe  Fe6  1  -0.00118531  0.66744139  -0.00052624  1
  Ni  Ni7  1  0.16774262  0.83150831  0.16756629  1
  Cr  Cr8  1  0.00062440  0.66313540  0.33168181  1
  Cr  Cr9  1  0.33495267  0.99437992  -0.00109224  1
  Fe  Fe10  1  0.49982363  0.16458055  0.16592068  1
  Fe  Fe11  1  0.33134492  0.99754381  0.33189576  1
  Fe  Fe12  1  0.33503008  0.33145752  0.99682951  1
  Cr  Cr13  1  0.49796873  0.49617217  0.16437640  1
  Ni  Ni14  1  0.33292288  0.33046281  0.33411929  1
  Ni  Ni15  1  0.33444129  0.66437820  0.99788426  1
  Fe  Fe16  1  0.49536812  0.83017919  0.16586181  1
  Ni  Ni17  1  0.33166524  0.66506345  0.33180967  1
  Cr  Cr18  1  0.66261289  0.99802711  0.99463538  1
  Fe  Fe19  1  0.82828370  0.16586479  0.16520474  1
  Fe  Fe20  1  0.66158721  -0.00010352  0.33033103  1
  Fe  Fe21  1  0.66129139  0.33141247  0.99639081  1
  Ni  Ni22  1  0.82766025  0.49730796  0.16270158  1
  Fe  Fe23  1  0.66146994  0.33063686  0.33066039  1
  Fe  Fe24  1  0.66290679  0.66500427  0.99718124  1
  Cr  Cr25  1  0.83153709  0.83091460  0.16531033  1
  Cr  Cr26  1  0.66172571  0.66392818  0.33019785  1
  Ni  Ni27  1  0.16894305  0.16503464  0.49678811  1
  Cr  Cr28  1  0.99765940  0.00092971  0.66597295  1
  Cr  Cr29  1  0.16840315  0.16724291  0.83239671  1
  Fe  Fe30  1  0.16873688  0.49801367  0.49772035  1
  Cr  Cr31  1  0.00083514  0.33289130  0.66456105  1
  Fe  Fe32  1  0.16799743  0.49912263  0.83245426  1
  Fe  Fe33  1  0.16627159  0.83176524  0.49782552  1
  Fe  Fe34  1  -0.00022097  0.66515278  0.66469448  1
  Cr  Cr35  1  0.16385762  0.82922025  0.83171661  1
  Fe  Fe36  1  0.49763585  0.16469682  0.49778485  1
  Cr  Cr37  1  0.33495194  0.99716448  0.66558257  1
  Ni  Ni38  1  0.49849480  0.16858433  0.83029804  1
  Fe  Fe39  1  0.49326307  0.49620616  0.49789184  1
  Fe  Fe40  1  0.33360098  0.33252705  0.66321558  1
  Ni  Ni41  1  0.49474430  0.49764807  0.83188614  1
  Cr  Cr42  1  0.49794883  0.83107420  0.49767407  1
  Ni  Ni43  1  0.33001066  0.66137579  0.66382094  1
  Fe  Fe44  1  0.49832086  0.82951892  0.83091123  1
  Cr  Cr45  1  0.83048609  0.16272260  0.49635977  1
  Ni  Ni46  1  0.66336449  -0.00119712  0.66824738  1
  Ni  Ni47  1  0.82788058  0.16389179  0.83127450  1
  Cr  Cr48  1  0.82827668  0.49960363  0.49729080  1
  Cr  Cr49  1  0.66398910  0.32997669  0.66425628  1
  Cr  Cr50  1  0.83028499  0.50116946  0.83330118  1
  Cr  Cr51  1  0.83137921  0.83237230  0.50115696  1
  Cr  Cr52  1  0.66005623  0.66534641  0.66687911  1
  Ni  Ni53  1  0.83000536  0.83125468  0.82973162  1
" 