2117,Ni23Fe77_0,-242.999908354193, 211.681899736911,Ni23Fe77,"# generated using pymatgen
 data_Fe2Ni7
_symmetry_space_group_name_H-M   'P 1'
_cell_length_a   7.41941490
_cell_length_b   7.41941490
_cell_length_c   10.49263717
_cell_angle_alpha   90.00000000
_cell_angle_beta   90.00000000
_cell_angle_gamma   90.00000000
_symmetry_Int_Tables_number   1
_chemical_formula_structural   Fe2Ni7
_chemical_formula_sum   'Fe12 Ni42'
_cell_volume   577.59572608
_cell_formula_units_Z   6
loop_
 _symmetry_equiv_pos_site_id
 _symmetry_equiv_pos_as_xyz
  1  'x, y, z'
loop_
 _atom_site_type_symbol
 _atom_site_label
 _atom_site_symmetry_multiplicity
 _atom_site_fract_x
 _atom_site_fract_y
 _atom_site_fract_z
 _atom_site_occupancy
  Ni  Ni0  1  1.00313624  1.00230968  1.00265365  1
  Ni  Ni1  1  0.17095133  0.17047930  0.16917688  1
  Ni  Ni2  1  0.00345991  1.00275124  0.33672936  1
  Ni  Ni3  1  1.00316996  0.33761033  1.00257625  1
  Ni  Ni4  1  0.16938858  0.50167402  0.17027144  1
  Ni  Ni5  1  1.00261550  0.33739156  0.33647831  1
  Ni  Ni6  1  0.00377414  0.66970939  0.00331250  1
  Fe  Fe7  1  0.17027429  0.83621603  0.17005921  1
  Ni  Ni8  1  0.00405634  0.66948793  0.33691330  1
  Ni  Ni9  1  0.33729886  0.00324600  1.00245754  1
  Ni  Ni10  1  0.50202565  0.16929015  0.17047044  1
  Ni  Ni11  1  0.33713947  1.00189886  0.33703469  1
  Ni  Ni12  1  0.33693700  0.33634234  0.00326726  1
  Ni  Ni13  1  0.50357472  0.50285394  0.16974855  1
  Fe  Fe14  1  0.33622053  0.33665829  0.33622553  1
  Fe  Fe15  1  0.33584959  0.66961853  0.00339548  1
  Ni  Ni16  1  0.50474129  0.83748485  0.16977651  1
  Ni  Ni17  1  0.33619029  0.67068951  0.33627992  1
  Ni  Ni18  1  0.66919403  0.00384747  0.00366887  1
  Fe  Fe19  1  0.83589823  0.17046136  0.16942721  1
  Ni  Ni20  1  0.66903223  0.00333925  0.33612088  1
  Ni  Ni21  1  0.66952031  0.33571109  1.00275815  1
  Ni  Ni22  1  0.83666735  0.50439181  0.16997717  1
  Ni  Ni23  1  0.67023237  0.33644373  0.33670020  1
  Fe  Fe24  1  0.67096447  0.66994381  0.00436225  1
  Ni  Ni25  1  0.83547417  0.83592378  0.17005610  1
  Ni  Ni26  1  0.66938506  0.66985029  0.33713409  1
  Ni  Ni27  1  0.17037027  0.17004860  0.50377689  1
  Fe  Fe28  1  0.00346585  0.00347139  0.67013416  1
  Ni  Ni29  1  0.17085359  0.17015073  0.83667233  1
  Ni  Ni30  1  0.16971656  0.50220993  0.50310219  1
  Ni  Ni31  1  0.00323380  0.33788400  0.67057743  1
  Ni  Ni32  1  0.16928969  0.50261091  0.83625580  1
  Ni  Ni33  1  0.16974806  0.83737606  0.50246137  1
  Ni  Ni34  1  0.00474837  0.66939092  0.66940287  1
  Ni  Ni35  1  0.16928160  0.83687277  0.83686816  1
  Fe  Fe36  1  0.50334543  0.16980862  0.50341259  1
  Fe  Fe37  1  0.33609635  0.00379170  0.66987696  1
  Ni  Ni38  1  0.50283764  0.16978216  0.83641172  1
  Ni  Ni39  1  0.50375399  0.50338416  0.50304681  1
  Ni  Ni40  1  0.33654418  0.33752789  0.66958290  1
  Fe  Fe41  1  0.50288731  0.50187318  0.83615303  1
  Ni  Ni42  1  0.50408595  0.83656452  0.50324733  1
  Ni  Ni43  1  0.33500395  0.66972161  0.67022911  1
  Fe  Fe44  1  0.50314577  0.83769065  0.83647254  1
  Fe  Fe45  1  0.83673566  0.17013096  0.50353891  1
  Ni  Ni46  1  0.66952019  0.00389511  0.66984414  1
  Ni  Ni47  1  0.83593793  0.16977583  0.83704630  1
  Ni  Ni48  1  0.83615971  0.50400503  0.50312020  1
  Ni  Ni49  1  0.66985308  0.33513849  0.67017277  1
  Ni  Ni50  1  0.83690119  0.50357711  0.83653543  1
  Ni  Ni51  1  0.83579596  0.83591347  0.50326831  1
  Fe  Fe52  1  0.67031867  0.66884459  0.66879038  1
  Ni  Ni53  1  0.83653760  0.83627532  0.83630790  1
" 