8289,Ni23Fe35Cr40_9,-222.882789392864, 180.091237567161,Ni23Fe35Cr40,"# generated using pymatgen
 data_Cr23Fe19Ni12
_symmetry_space_group_name_H-M   'P 1'
_cell_length_a   7.50217510
_cell_length_b   7.50217510
_cell_length_c   10.60967778
_cell_angle_alpha   90.00000000
_cell_angle_beta   90.00000000
_cell_angle_gamma   90.00000000
_symmetry_Int_Tables_number   1
_chemical_formula_structural   Cr23Fe19Ni12
_chemical_formula_sum   'Cr23 Fe19 Ni12'
_cell_volume   597.14058212
_cell_formula_units_Z   1
loop_
 _symmetry_equiv_pos_site_id
 _symmetry_equiv_pos_as_xyz
  1  'x, y, z'
loop_
 _atom_site_type_symbol
 _atom_site_label
 _atom_site_symmetry_multiplicity
 _atom_site_fract_x
 _atom_site_fract_y
 _atom_site_fract_z
 _atom_site_occupancy
  Cr  Cr0  1  -0.00131748  0.00017025  0.99711839  1
  Fe  Fe1  1  0.16469557  0.16756087  0.16642383  1
  Cr  Cr2  1  0.99539335  -0.00084501  0.32990056  1
  Cr  Cr3  1  0.99698856  0.33034200  0.99605000  1
  Cr  Cr4  1  0.16243253  0.49613315  0.16858194  1
  Ni  Ni5  1  0.99719980  0.33120079  0.33096397  1
  Cr  Cr6  1  0.99623726  0.66309546  0.99533764  1
  Cr  Cr7  1  0.16474475  0.82975167  0.16497573  1
  Ni  Ni8  1  0.99492865  0.66235575  0.33229169  1
  Cr  Cr9  1  0.32985263  -0.00099013  0.99713267  1
  Fe  Fe10  1  0.49826436  0.16916511  0.16513317  1
  Cr  Cr11  1  0.33308616  -0.00059249  0.33120094  1
  Fe  Fe12  1  0.33335160  0.33186106  -0.00167543  1
  Fe  Fe13  1  0.49963098  0.49407047  0.16366037  1
  Ni  Ni14  1  0.33268531  0.32979589  0.33279761  1
  Cr  Cr15  1  0.33435416  0.66273073  -0.00209119  1
  Fe  Fe16  1  0.50020779  0.82945076  0.16433204  1
  Cr  Cr17  1  0.33341581  0.66093407  0.33151887  1
  Cr  Cr18  1  0.66493838  -0.00192587  0.00279778  1
  Fe  Fe19  1  0.82967046  0.16889669  0.16587543  1
  Fe  Fe20  1  0.66423770  -0.00002766  0.32975577  1
  Ni  Ni21  1  0.66319673  0.33409345  -0.00201022  1
  Ni  Ni22  1  0.82836892  0.49509067  0.16388487  1
  Ni  Ni23  1  0.66289217  0.33063309  0.33012564  1
  Ni  Ni24  1  0.66312677  0.66003411  -0.00225404  1
  Fe  Fe25  1  0.83077253  0.82692546  0.16444906  1
  Cr  Cr26  1  0.66412192  0.66361158  0.33020565  1
  Ni  Ni27  1  0.16630988  0.16722223  0.49684853  1
  Cr  Cr28  1  0.99764768  -0.00119231  0.66550923  1
  Fe  Fe29  1  0.16733975  0.16499000  0.82947747  1
  Fe  Fe30  1  0.16378105  0.49469634  0.49576794  1
  Cr  Cr31  1  -0.00085765  0.33230634  0.66610055  1
  Fe  Fe32  1  0.16646549  0.49807902  0.83045834  1
  Cr  Cr33  1  0.16294671  0.82889912  0.49735413  1
  Ni  Ni34  1  -0.00141266  0.66256342  0.66511924  1
  Ni  Ni35  1  0.16473600  0.82976211  0.82926857  1
  Fe  Fe36  1  0.49677580  0.16745008  0.49835936  1
  Fe  Fe37  1  0.32929960  -0.00082610  0.66385677  1
  Cr  Cr38  1  0.49832443  0.16640639  0.82840279  1
  Fe  Fe39  1  0.49739428  0.49298824  0.49806364  1
  Fe  Fe40  1  0.33160444  0.33044840  0.66250216  1
  Ni  Ni41  1  0.49887160  0.49512085  0.83148458  1
  Cr  Cr42  1  0.49938013  0.83299018  0.49956966  1
  Cr  Cr43  1  0.33184536  0.66074170  0.66407838  1
  Cr  Cr44  1  0.49756883  0.83076712  0.83067126  1
  Cr  Cr45  1  0.82858899  0.16658504  0.49623024  1
  Ni  Ni46  1  0.66244321  -0.00106411  0.66102098  1
  Cr  Cr47  1  0.82731534  0.16723568  0.83131309  1
  Cr  Cr48  1  0.83190038  0.49783960  0.49788921  1
  Fe  Fe49  1  0.66274567  0.33375077  0.66398188  1
  Fe  Fe50  1  0.82730727  0.49892332  0.83080959  1
  Fe  Fe51  1  0.83156553  0.83074150  0.49922505  1
  Fe  Fe52  1  0.66585491  0.66260268  0.66509177  1
  Cr  Cr53  1  0.83035830  0.83002815  0.82864056  1
" 