2369,Ni23Fe50Cr25_14,-227.300903559099, 181.585263724433,Ni23Fe50Cr25,"# generated using pymatgen
 data_Cr5Fe9Ni4
_symmetry_space_group_name_H-M   'P 1'
_cell_length_a   7.46482706
_cell_length_b   7.46482706
_cell_length_c   10.55685967
_cell_angle_alpha   90.00000000
_cell_angle_beta   90.00000000
_cell_angle_gamma   90.00000000
_symmetry_Int_Tables_number   1
_chemical_formula_structural   Cr5Fe9Ni4
_chemical_formula_sum   'Cr15 Fe27 Ni12'
_cell_volume   588.26668059
_cell_formula_units_Z   3
loop_
 _symmetry_equiv_pos_site_id
 _symmetry_equiv_pos_as_xyz
  1  'x, y, z'
loop_
 _atom_site_type_symbol
 _atom_site_label
 _atom_site_symmetry_multiplicity
 _atom_site_fract_x
 _atom_site_fract_y
 _atom_site_fract_z
 _atom_site_occupancy
  Cr  Cr0  1  0.99952373  0.00310282  0.99980082  1
  Ni  Ni1  1  0.16743313  0.16526918  0.16717553  1
  Fe  Fe2  1  0.99769750  0.00116781  0.33024145  1
  Ni  Ni3  1  0.99971653  0.33380582  0.00118530  1
  Fe  Fe4  1  0.16549029  0.49662045  0.16343447  1
  Ni  Ni5  1  0.99822018  0.32997158  0.33050438  1
  Fe  Fe6  1  0.00031124  0.66491855  0.00078396  1
  Fe  Fe7  1  0.16770289  0.83399590  0.16473828  1
  Cr  Cr8  1  0.99972613  0.66349170  0.32759906  1
  Fe  Fe9  1  0.33516371  0.99967839  0.00102749  1
  Fe  Fe10  1  0.50189761  0.16605516  0.16608532  1
  Fe  Fe11  1  0.33558863  0.99985377  0.33202056  1
  Fe  Fe12  1  0.33342040  0.33503545  0.00033651  1
  Cr  Cr13  1  0.50133852  0.50064146  0.16600246  1
  Cr  Cr14  1  0.33335665  0.33252882  0.33437818  1
  Ni  Ni15  1  0.33513514  0.66790215  0.99904967  1
  Fe  Fe16  1  0.50117454  0.83682886  0.16535146  1
  Cr  Cr17  1  0.33482905  0.66879093  0.33437465  1
  Fe  Fe18  1  0.66534069  0.00092070  0.00173745  1
  Ni  Ni19  1  0.83414932  0.16752008  0.16710784  1
  Ni  Ni20  1  0.66585264  0.00228173  0.33316553  1
  Fe  Fe21  1  0.66793378  0.33440850  0.99940452  1
  Ni  Ni22  1  0.83237778  0.49888887  0.16330880  1
  Fe  Fe23  1  0.66930927  0.33115588  0.33215637  1
  Ni  Ni24  1  0.66474981  0.66752490  0.99965650  1
  Fe  Fe25  1  0.83106473  0.83498828  0.16481486  1
  Cr  Cr26  1  0.66589728  0.66920720  0.33315254  1
  Cr  Cr27  1  0.16444794  0.16558500  0.49831161  1
  Fe  Fe28  1  0.99814287  0.00108108  0.66851613  1
  Cr  Cr29  1  0.16828023  0.16745760  0.83442552  1
  Cr  Cr30  1  0.16796891  0.49938132  0.50089441  1
  Cr  Cr31  1  0.99831937  0.33333404  0.66873418  1
  Ni  Ni32  1  0.16927843  0.50018621  0.83623519  1
  Cr  Cr33  1  0.16602751  0.83486019  0.50125253  1
  Fe  Fe34  1  0.00149598  0.66641376  0.66934447  1
  Fe  Fe35  1  0.16846931  0.82967576  0.83411311  1
  Fe  Fe36  1  0.50328938  0.16544507  0.49991201  1
  Cr  Cr37  1  0.33605093  0.99916531  0.66800203  1
  Fe  Fe38  1  0.50221187  0.16876055  0.83513602  1
  Fe  Fe39  1  0.50142941  0.49955809  0.50314669  1
  Fe  Fe40  1  0.33629339  0.33483427  0.66808301  1
  Ni  Ni41  1  0.50023057  0.50010418  0.83308307  1
  Ni  Ni42  1  0.50140622  0.83375365  0.50143372  1
  Fe  Fe43  1  0.33507052  0.66475255  0.66901105  1
  Fe  Fe44  1  0.49900399  0.83145774  0.83458058  1
  Ni  Ni45  1  0.83160241  0.16620001  0.49946907  1
  Fe  Fe46  1  0.66713290  0.00298679  0.66606833  1
  Fe  Fe47  1  0.83028907  0.17017328  0.83464209  1
  Cr  Cr48  1  0.83145509  0.49861826  0.49951836  1
  Fe  Fe49  1  0.66421712  0.33192585  0.66798331  1
  Fe  Fe50  1  0.83300085  0.49973091  0.83635618  1
  Cr  Cr51  1  0.83305753  0.83602513  0.50040895  1
  Fe  Fe52  1  0.66390023  0.66599121  0.66810428  1
  Cr  Cr53  1  0.83155843  0.83401889  0.83267176  1
" 