5466,Ni23Fe77_19,-242.84696736685, 211.266032963794,Ni23Fe77,"# generated using pymatgen
 data_Fe2Ni7
_symmetry_space_group_name_H-M   'P 1'
_cell_length_a   7.41913785
_cell_length_b   7.41913785
_cell_length_c   10.49224538
_cell_angle_alpha   90.00000000
_cell_angle_beta   90.00000000
_cell_angle_gamma   90.00000000
_symmetry_Int_Tables_number   1
_chemical_formula_structural   Fe2Ni7
_chemical_formula_sum   'Fe12 Ni42'
_cell_volume   577.53102579
_cell_formula_units_Z   6
loop_
 _symmetry_equiv_pos_site_id
 _symmetry_equiv_pos_as_xyz
  1  'x, y, z'
loop_
 _atom_site_type_symbol
 _atom_site_label
 _atom_site_symmetry_multiplicity
 _atom_site_fract_x
 _atom_site_fract_y
 _atom_site_fract_z
 _atom_site_occupancy
  Ni  Ni0  1  1.00203071  1.00277639  0.00348538  1
  Ni  Ni1  1  0.17067698  0.16954536  0.17065471  1
  Fe  Fe2  1  0.00366582  1.00272137  0.33612858  1
  Fe  Fe3  1  0.00415826  0.33586287  0.00323386  1
  Ni  Ni4  1  0.17129208  0.50360437  0.17011568  1
  Ni  Ni5  1  0.00383597  0.33749064  0.33559848  1
  Ni  Ni6  1  1.00319060  0.66965982  0.00340807  1
  Ni  Ni7  1  0.16979090  0.83653189  0.17037996  1
  Ni  Ni8  1  1.00266609  0.66849200  0.33621882  1
  Ni  Ni9  1  0.33723702  0.00395648  0.00348601  1
  Ni  Ni10  1  0.50323287  0.17067217  0.17008653  1
  Ni  Ni11  1  0.33771950  0.00405397  0.33557176  1
  Ni  Ni12  1  0.33630709  0.33662109  1.00319405  1
  Ni  Ni13  1  0.50287362  0.50275338  0.17041268  1
  Ni  Ni14  1  0.33506911  0.33602343  0.33643738  1
  Ni  Ni15  1  0.33544743  0.66910952  0.00345623  1
  Fe  Fe16  1  0.50311589  0.83694168  0.16977040  1
  Ni  Ni17  1  0.33589306  0.66961016  0.33614415  1
  Ni  Ni18  1  0.67041923  0.00363787  1.00316404  1
  Ni  Ni19  1  0.83577690  0.16916415  0.17041157  1
  Ni  Ni20  1  0.66966516  1.00288324  0.33614179  1
  Fe  Fe21  1  0.66958210  0.33632050  1.00304159  1
  Ni  Ni22  1  0.83551421  0.50363560  0.17068110  1
  Fe  Fe23  1  0.66956803  0.33688538  0.33619460  1
  Fe  Fe24  1  0.66957189  0.67057840  1.00298286  1
  Ni  Ni25  1  0.83663340  0.83688573  0.17008575  1
  Ni  Ni26  1  0.67113184  0.67114516  0.33589961  1
  Ni  Ni27  1  0.17003528  0.17024512  0.50297412  1
  Fe  Fe28  1  1.00316376  0.00336266  0.67032862  1
  Ni  Ni29  1  0.16982218  0.16982586  0.83605822  1
  Ni  Ni30  1  0.17148583  0.50328688  0.50329536  1
  Ni  Ni31  1  1.00320558  0.33755607  0.67084662  1
  Ni  Ni32  1  0.17129270  0.50310769  0.83627542  1
  Ni  Ni33  1  0.17004426  0.83615257  0.50354192  1
  Ni  Ni34  1  1.00288359  0.66877591  0.67006014  1
  Ni  Ni35  1  0.17064481  0.83675043  0.83576610  1
  Fe  Fe36  1  0.50247791  0.16894825  0.50290711  1
  Ni  Ni37  1  0.33749970  0.00364349  0.67062951  1
  Fe  Fe38  1  0.50305055  0.16958631  0.83681587  1
  Fe  Fe39  1  0.50249536  0.50348008  0.50347759  1
  Ni  Ni40  1  0.33567645  0.33611795  0.67005602  1
  Ni  Ni41  1  0.50297332  0.50392305  0.83594565  1
  Fe  Fe42  1  0.50279354  0.83726026  0.50373125  1
  Ni  Ni43  1  0.33570811  0.66992422  0.67008692  1
  Ni  Ni44  1  0.50332228  0.83563081  0.83635098  1
  Ni  Ni45  1  0.83603340  0.16904375  0.50299752  1
  Ni  Ni46  1  0.66966179  0.00332198  0.67038132  1
  Ni  Ni47  1  0.83653294  0.16947919  0.83627555  1
  Fe  Fe48  1  0.83844860  0.50347528  0.50347583  1
  Ni  Ni49  1  0.67080745  0.33576380  0.66975793  1
  Ni  Ni50  1  0.83541674  0.50310236  0.83567944  1
  Ni  Ni51  1  0.83599680  0.83732484  0.50361810  1
  Ni  Ni52  1  0.67109891  0.67059970  0.67065264  1
  Ni  Ni53  1  0.83571737  0.83710384  0.83598359  1
" 