3507,Ni23Fe74Cr2_9,-232.44963137015, 184.308074421333,Ni23Fe74Cr2,"# generated using pymatgen
 data_Cr(Fe10Ni3)2
_symmetry_space_group_name_H-M   'P 1'
_cell_length_a   7.40925388
_cell_length_b   7.40925388
_cell_length_c   10.47826732
_cell_angle_alpha   90.00000000
_cell_angle_beta   90.00000000
_cell_angle_gamma   90.00000000
_symmetry_Int_Tables_number   1
_chemical_formula_structural   Cr(Fe10Ni3)2
_chemical_formula_sum   'Cr2 Fe40 Ni12'
_cell_volume   575.22589143
_cell_formula_units_Z   2
loop_
 _symmetry_equiv_pos_site_id
 _symmetry_equiv_pos_as_xyz
  1  'x, y, z'
loop_
 _atom_site_type_symbol
 _atom_site_label
 _atom_site_symmetry_multiplicity
 _atom_site_fract_x
 _atom_site_fract_y
 _atom_site_fract_z
 _atom_site_occupancy
  Fe  Fe0  1  0.00392737  1.00168873  1.00344167  1
  Cr  Cr1  1  0.17208762  0.16941964  0.17041196  1
  Ni  Ni2  1  1.00243696  1.00285816  0.33692474  1
  Fe  Fe3  1  1.00363882  0.33878678  1.00308410  1
  Fe  Fe4  1  0.17008396  0.50718214  0.17039859  1
  Fe  Fe5  1  1.00275711  0.33788036  0.33787543  1
  Fe  Fe6  1  0.00412551  0.67122048  1.00376009  1
  Ni  Ni7  1  0.16898301  0.83650254  0.17094683  1
  Fe  Fe8  1  1.00353037  0.67126461  0.33687851  1
  Ni  Ni9  1  0.33734295  1.00316750  1.00227821  1
  Fe  Fe10  1  0.50605522  0.17165625  0.16978472  1
  Fe  Fe11  1  0.33656471  1.00388201  0.33824678  1
  Fe  Fe12  1  0.33848856  0.33764788  1.00278787  1
  Fe  Fe13  1  0.50392527  0.50327377  0.17055391  1
  Fe  Fe14  1  0.33770825  0.33744314  0.33832556  1
  Ni  Ni15  1  0.33636847  0.66995610  1.00385279  1
  Cr  Cr16  1  0.50341664  0.83818393  0.17003087  1
  Fe  Fe17  1  0.33560102  0.67037492  0.33800005  1
  Fe  Fe18  1  0.67038611  0.00412377  1.00270628  1
  Fe  Fe19  1  0.83608029  0.16963602  0.17111945  1
  Fe  Fe20  1  0.67212773  0.00465536  0.33800043  1
  Fe  Fe21  1  0.66957261  0.33745477  1.00371448  1
  Ni  Ni22  1  0.83708850  0.50459615  0.17127743  1
  Fe  Fe23  1  0.67123643  0.33691760  0.33699095  1
  Fe  Fe24  1  0.67151879  0.67012023  1.00315979  1
  Ni  Ni25  1  0.83906721  0.83556133  0.17119970  1
  Fe  Fe26  1  0.67256720  0.67012509  0.33763157  1
  Fe  Fe27  1  0.16998102  0.17013948  0.50352138  1
  Ni  Ni28  1  1.00301193  0.00390829  0.67115514  1
  Fe  Fe29  1  0.16991023  0.17014716  0.83745698  1
  Fe  Fe30  1  0.17086999  0.50429215  0.50444772  1
  Fe  Fe31  1  0.00425971  0.33817199  0.67073948  1
  Fe  Fe32  1  0.17038822  0.50454001  0.83685498  1
  Fe  Fe33  1  0.17024987  0.83726804  0.50380820  1
  Ni  Ni34  1  0.00427944  0.67114179  0.67047806  1
  Fe  Fe35  1  0.17041799  0.83701107  0.83749231  1
  Fe  Fe36  1  0.50394355  0.17068433  0.50429011  1
  Fe  Fe37  1  0.33651968  1.00326489  0.67127203  1
  Ni  Ni38  1  0.50191734  0.17024616  0.83724567  1
  Fe  Fe39  1  0.50349892  0.50418891  0.50396262  1
  Fe  Fe40  1  0.33641712  0.33740442  0.67058656  1
  Fe  Fe41  1  0.50443872  0.50438888  0.83718494  1
  Fe  Fe42  1  0.50357283  0.83682529  0.50384684  1
  Ni  Ni43  1  0.33734264  0.66986324  0.67067869  1
  Fe  Fe44  1  0.50418882  0.83694364  0.83770272  1
  Fe  Fe45  1  0.83777203  0.17006679  0.50371776  1
  Fe  Fe46  1  0.67098742  1.00283588  0.67099384  1
  Fe  Fe47  1  0.83693506  0.17039488  0.83686327  1
  Fe  Fe48  1  0.83733334  0.50392249  0.50407900  1
  Fe  Fe49  1  0.67101970  0.33776271  0.67099273  1
  Ni  Ni50  1  0.83765268  0.50524673  0.83586335  1
  Fe  Fe51  1  0.83787600  0.83771233  0.50412379  1
  Fe  Fe52  1  0.67175517  0.67110029  0.67090910  1
  Ni  Ni53  1  0.83737953  0.83555454  0.83695566  1
" 