4134,Ni23Fe60Cr16_4,-229.318840573434, 182.898322031738,Ni23Fe60Cr16,"# generated using pymatgen
 data_Cr5(Fe8Ni3)2
_symmetry_space_group_name_H-M   'P 1'
_cell_length_a   7.43954825
_cell_length_b   7.43954825
_cell_length_c   10.52111004
_cell_angle_alpha   90.00000000
_cell_angle_beta   90.00000000
_cell_angle_gamma   90.00000000
_symmetry_Int_Tables_number   1
_chemical_formula_structural   Cr5(Fe8Ni3)2
_chemical_formula_sum   'Cr10 Fe32 Ni12'
_cell_volume   582.31059590
_cell_formula_units_Z   2
loop_
 _symmetry_equiv_pos_site_id
 _symmetry_equiv_pos_as_xyz
  1  'x, y, z'
loop_
 _atom_site_type_symbol
 _atom_site_label
 _atom_site_symmetry_multiplicity
 _atom_site_fract_x
 _atom_site_fract_y
 _atom_site_fract_z
 _atom_site_occupancy
  Cr  Cr0  1  0.00288603  0.99916889  1.00114472  1
  Cr  Cr1  1  0.16969924  0.16930895  0.16903615  1
  Fe  Fe2  1  1.00022954  0.99940565  0.33521109  1
  Fe  Fe3  1  1.00107626  0.33836982  0.00202800  1
  Fe  Fe4  1  0.16753710  0.50382980  0.16866434  1
  Ni  Ni5  1  0.00208440  0.33791914  0.33529215  1
  Ni  Ni6  1  0.00527226  0.66810492  0.00267284  1
  Ni  Ni7  1  0.16790911  0.83139491  0.16793747  1
  Ni  Ni8  1  1.00110588  0.66821486  0.33457329  1
  Fe  Fe9  1  0.33695778  1.00066623  0.00225390  1
  Ni  Ni10  1  0.50218505  0.17063743  0.16862803  1
  Cr  Cr11  1  0.33586261  1.00180380  0.33440525  1
  Fe  Fe12  1  0.33722980  0.33627147  1.00173538  1
  Fe  Fe13  1  0.50198679  0.50101109  0.16942546  1
  Fe  Fe14  1  0.33603417  0.33781672  0.33566838  1
  Fe  Fe15  1  0.33347341  0.66860529  0.00199969  1
  Fe  Fe16  1  0.50133173  0.83520439  0.16948594  1
  Fe  Fe17  1  0.33497662  0.66645577  0.33498800  1
  Cr  Cr18  1  0.66581532  0.00372316  0.00195495  1
  Cr  Cr19  1  0.83331547  0.16999156  0.16897515  1
  Fe  Fe20  1  0.66947064  1.00046332  0.33448456  1
  Ni  Ni21  1  0.66592268  0.33429600  1.00147491  1
  Fe  Fe22  1  0.83602170  0.50283829  0.16950632  1
  Ni  Ni23  1  0.66742346  0.33676013  0.33463185  1
  Cr  Cr24  1  0.66876975  0.66769125  0.00291910  1
  Ni  Ni25  1  0.83654166  0.83188961  0.17158647  1
  Ni  Ni26  1  0.66967262  0.66809873  0.33527815  1
  Fe  Fe27  1  0.16955854  0.16871504  0.50161289  1
  Fe  Fe28  1  1.00134703  0.99916075  0.66871054  1
  Cr  Cr29  1  0.16987852  0.16827267  0.83566705  1
  Fe  Fe30  1  0.16820954  0.50255792  0.50102994  1
  Cr  Cr31  1  0.00185374  0.33652803  0.66861806  1
  Fe  Fe32  1  0.17043635  0.50393837  0.83585029  1
  Fe  Fe33  1  0.16723715  0.83427827  0.50220201  1
  Ni  Ni34  1  0.00314252  0.67119767  0.66830077  1
  Fe  Fe35  1  0.16899944  0.83297674  0.83497208  1
  Fe  Fe36  1  0.50163305  0.16965874  0.50260652  1
  Fe  Fe37  1  0.33592310  1.00164885  0.66794752  1
  Ni  Ni38  1  0.50244881  0.16932499  0.83413688  1
  Fe  Fe39  1  0.50281824  0.50144236  0.50165693  1
  Fe  Fe40  1  0.33741282  0.33604144  0.66814138  1
  Fe  Fe41  1  0.50021971  0.49989717  0.83446441  1
  Fe  Fe42  1  0.50284671  0.83444381  0.50234516  1
  Fe  Fe43  1  0.33495416  0.66785377  0.66855506  1
  Fe  Fe44  1  0.50041277  0.83576797  0.83371352  1
  Cr  Cr45  1  0.83478935  0.16833156  0.50092599  1
  Fe  Fe46  1  0.66827506  1.00161814  0.66972974  1
  Fe  Fe47  1  0.83209960  0.16843645  0.83443873  1
  Fe  Fe48  1  0.83451614  0.50376262  0.50087721  1
  Ni  Ni49  1  0.66495761  0.33427275  0.66943398  1
  Cr  Cr50  1  0.83490956  0.50204017  0.83560001  1
  Fe  Fe51  1  0.83546334  0.83309454  0.50121257  1
  Fe  Fe52  1  0.66853118  0.66859798  0.66750650  1
  Fe  Fe53  1  0.83613696  0.83600218  0.83358487  1
" 