345,Ni23Fe50Cr25_2,-226.789921299853, 187.250116346568,Ni23Fe50Cr25,"# generated using pymatgen
 data_Cr5Fe9Ni4
_symmetry_space_group_name_H-M   'P 1'
_cell_length_a   7.45569756
_cell_length_b   7.45569756
_cell_length_c   10.54394861
_cell_angle_alpha   90.00000000
_cell_angle_beta   90.00000000
_cell_angle_gamma   90.00000000
_symmetry_Int_Tables_number   1
_chemical_formula_structural   Cr5Fe9Ni4
_chemical_formula_sum   'Cr15 Fe27 Ni12'
_cell_volume   586.11096444
_cell_formula_units_Z   3
loop_
 _symmetry_equiv_pos_site_id
 _symmetry_equiv_pos_as_xyz
  1  'x, y, z'
loop_
 _atom_site_type_symbol
 _atom_site_label
 _atom_site_symmetry_multiplicity
 _atom_site_fract_x
 _atom_site_fract_y
 _atom_site_fract_z
 _atom_site_occupancy
  Fe  Fe0  1  0.99870352  0.00105232  0.99831994  1
  Cr  Cr1  1  0.16646288  0.16770514  0.16976498  1
  Fe  Fe2  1  0.00115520  0.00265424  0.33618964  1
  Cr  Cr3  1  1.00074583  0.33335246  0.99962877  1
  Fe  Fe4  1  0.16818176  0.49916760  0.16776204  1
  Fe  Fe5  1  1.00011848  0.33292214  0.33538438  1
  Cr  Cr6  1  0.00264772  0.66572799  0.99989960  1
  Fe  Fe7  1  0.16854041  0.83625441  0.16777809  1
  Cr  Cr8  1  0.00197286  0.66379348  0.33507838  1
  Cr  Cr9  1  0.33329996  1.00013008  0.99855292  1
  Cr  Cr10  1  0.50180792  0.16952169  0.16805296  1
  Ni  Ni11  1  0.33359358  0.00175571  0.33790848  1
  Fe  Fe12  1  0.33494687  0.33782552  1.00052784  1
  Fe  Fe13  1  0.50088562  0.49862137  0.16732615  1
  Fe  Fe14  1  0.33559141  0.33541451  0.33655015  1
  Fe  Fe15  1  0.33357103  0.66517281  1.00056778  1
  Fe  Fe16  1  0.49996972  0.83733971  0.16723908  1
  Cr  Cr17  1  0.33456948  0.66907130  0.33167496  1
  Ni  Ni18  1  0.66850021  0.00254955  0.00079974  1
  Ni  Ni19  1  0.83378948  0.16734488  0.16743930  1
  Fe  Fe20  1  0.66611894  0.00260583  0.33487231  1
  Fe  Fe21  1  0.66815310  0.33403837  0.00141805  1
  Fe  Fe22  1  0.83349602  0.49630190  0.16833261  1
  Ni  Ni23  1  0.66960630  0.33277695  0.33470996  1
  Cr  Cr24  1  0.66605449  0.66632902  0.00201115  1
  Cr  Cr25  1  0.83554982  0.83725550  0.16788476  1
  Cr  Cr26  1  0.66570498  0.66446764  0.33525313  1
  Fe  Fe27  1  0.16745435  0.16880034  0.49996588  1
  Cr  Cr28  1  0.00294047  0.00385361  0.66998603  1
  Fe  Fe29  1  0.16885081  0.16905343  0.83367851  1
  Ni  Ni30  1  0.16945848  0.50056454  0.50191878  1
  Fe  Fe31  1  1.00017809  0.33637504  0.66674611  1
  Fe  Fe32  1  0.17053226  0.50100736  0.83143566  1
  Ni  Ni33  1  0.16839156  0.83333110  0.50110178  1
  Fe  Fe34  1  0.00229890  0.66643936  0.66761124  1
  Ni  Ni35  1  0.16507901  0.83237366  0.83409403  1
  Fe  Fe36  1  0.49954433  0.16889929  0.49923025  1
  Fe  Fe37  1  0.33306130  0.99880649  0.66603527  1
  Cr  Cr38  1  0.50162126  0.17178503  0.83368891  1
  Ni  Ni39  1  0.49962037  0.49873837  0.50170366  1
  Fe  Fe40  1  0.33435829  0.33575054  0.66664571  1
  Ni  Ni41  1  0.50051386  0.49940647  0.83454874  1
  Fe  Fe42  1  0.49796195  0.83229707  0.50232292  1
  Ni  Ni43  1  0.33380281  0.66612157  0.66751887  1
  Cr  Cr44  1  0.50026070  0.83152524  0.83221500  1
  Ni  Ni45  1  0.83358779  0.16912616  0.49832997  1
  Cr  Cr46  1  0.66587446  0.00205799  0.66548169  1
  Fe  Fe47  1  0.83350948  0.16786646  0.83471230  1
  Fe  Fe48  1  0.83460482  0.49804406  0.50238536  1
  Fe  Fe49  1  0.66766854  0.33630739  0.66527941  1
  Fe  Fe50  1  0.83228027  0.50104773  0.83150075  1
  Cr  Cr51  1  0.83524616  0.83391898  0.50180733  1
  Ni  Ni52  1  0.66575460  0.66347096  0.66653245  1
  Fe  Fe53  1  0.83291045  0.83298261  0.83369924  1
" 