5781,Ni23Fe43Cr33_18,-225.171276573166, 186.592651610321,Ni23Fe43Cr33,"# generated using pymatgen
 data_Cr19Fe23Ni12
_symmetry_space_group_name_H-M   'P 1'
_cell_length_a   7.47743535
_cell_length_b   7.47743535
_cell_length_c   10.57469048
_cell_angle_alpha   90.00000000
_cell_angle_beta   90.00000000
_cell_angle_gamma   90.00000000
_symmetry_Int_Tables_number   1
_chemical_formula_structural   Cr19Fe23Ni12
_chemical_formula_sum   'Cr19 Fe23 Ni12'
_cell_volume   591.25251013
_cell_formula_units_Z   1
loop_
 _symmetry_equiv_pos_site_id
 _symmetry_equiv_pos_as_xyz
  1  'x, y, z'
loop_
 _atom_site_type_symbol
 _atom_site_label
 _atom_site_symmetry_multiplicity
 _atom_site_fract_x
 _atom_site_fract_y
 _atom_site_fract_z
 _atom_site_occupancy
  Fe  Fe0  1  0.00314769  -0.00011357  0.00057852  1
  Fe  Fe1  1  0.16647079  0.16534358  0.16591199  1
  Fe  Fe2  1  0.00013583  -0.00027823  0.33269048  1
  Ni  Ni3  1  0.00265254  0.33379165  0.00026455  1
  Fe  Fe4  1  0.16579702  0.49961132  0.16678424  1
  Fe  Fe5  1  0.00224258  0.33260917  0.33342650  1
  Fe  Fe6  1  0.99781774  0.66403581  0.00235774  1
  Ni  Ni7  1  0.16400945  0.82996318  0.16439364  1
  Fe  Fe8  1  0.00171800  0.66557946  0.33003965  1
  Fe  Fe9  1  0.33102529  0.99792273  0.00144957  1
  Ni  Ni10  1  0.49978372  0.16855349  0.16891812  1
  Cr  Cr11  1  0.33233110  -0.00013727  0.33098532  1
  Cr  Cr12  1  0.32932409  0.33059928  0.00225179  1
  Ni  Ni13  1  0.49748947  0.50068579  0.16456190  1
  Fe  Fe14  1  0.33137658  0.33375624  0.33076676  1
  Fe  Fe15  1  0.33473997  0.66718213  0.00236149  1
  Fe  Fe16  1  0.49674360  0.83181946  0.16562928  1
  Ni  Ni17  1  0.32857545  0.66389769  0.32978408  1
  Cr  Cr18  1  0.66161210  0.99462371  0.00211352  1
  Cr  Cr19  1  0.83341636  0.16509595  0.16558730  1
  Ni  Ni20  1  0.66683895  0.00022805  0.33237767  1
  Cr  Cr21  1  0.66688038  0.33757142  0.99698178  1
  Fe  Fe22  1  0.83413491  0.50093552  0.16393167  1
  Cr  Cr23  1  0.66720439  0.33189846  0.33432870  1
  Ni  Ni24  1  0.66496943  0.66631149  0.00013677  1
  Fe  Fe25  1  0.83348594  0.83118061  0.16589582  1
  Cr  Cr26  1  0.66565683  0.66783626  0.32885727  1
  Ni  Ni27  1  0.16407338  0.16789501  0.49854151  1
  Ni  Ni28  1  0.00335126  0.00297006  0.66535700  1
  Ni  Ni29  1  0.16548951  0.16550714  0.83484189  1
  Fe  Fe30  1  0.16458979  0.49774180  0.49762008  1
  Cr  Cr31  1  0.00073680  0.33214985  0.66575531  1
  Cr  Cr32  1  0.16738566  0.50044859  0.83294447  1
  Cr  Cr33  1  0.16528170  0.83041711  0.50256508  1
  Fe  Fe34  1  0.99878171  0.66589549  0.66528749  1
  Cr  Cr35  1  0.16693421  0.83381108  0.83106187  1
  Fe  Fe36  1  0.49801372  0.16545674  0.49870912  1
  Fe  Fe37  1  0.32986685  0.00216620  0.66605448  1
  Cr  Cr38  1  0.49782452  0.16720075  0.82984540  1
  Cr  Cr39  1  0.49528197  0.49729220  0.50041807  1
  Fe  Fe40  1  0.33126226  0.32941234  0.66536146  1
  Fe  Fe41  1  0.49837537  0.50196498  0.83344788  1
  Cr  Cr42  1  0.49669143  0.83112185  0.49754035  1
  Fe  Fe43  1  0.33175472  0.66598383  0.66649371  1
  Ni  Ni44  1  0.49629988  0.82852536  0.83504856  1
  Ni  Ni45  1  0.83436545  0.16700218  0.49823240  1
  Cr  Cr46  1  0.66569646  0.99873723  0.66284580  1
  Cr  Cr47  1  0.83559869  0.16683045  0.83388431  1
  Fe  Fe48  1  0.83599698  0.49823115  0.49881577  1
  Fe  Fe49  1  0.66746468  0.33202812  0.66411471  1
  Fe  Fe50  1  0.83366857  0.50042797  0.83456903  1
  Cr  Cr51  1  0.83609742  0.83536558  0.49649244  1
  Cr  Cr52  1  0.66668591  0.66437175  0.66895639  1
  Cr  Cr53  1  0.83534220  0.83303310  0.83432061  1
" 