3672,Ni23Fe35Cr40_13,-222.408469409925, 183.879606155211,Ni23Fe35Cr40,"# generated using pymatgen
 data_Cr23Fe19Ni12
_symmetry_space_group_name_H-M   'P 1'
_cell_length_a   7.48915599
_cell_length_b   7.48915599
_cell_length_c   10.59126597
_cell_angle_alpha   90.00000000
_cell_angle_beta   90.00000000
_cell_angle_gamma   90.00000000
_symmetry_Int_Tables_number   1
_chemical_formula_structural   Cr23Fe19Ni12
_chemical_formula_sum   'Cr23 Fe19 Ni12'
_cell_volume   594.03717834
_cell_formula_units_Z   1
loop_
 _symmetry_equiv_pos_site_id
 _symmetry_equiv_pos_as_xyz
  1  'x, y, z'
loop_
 _atom_site_type_symbol
 _atom_site_label
 _atom_site_symmetry_multiplicity
 _atom_site_fract_x
 _atom_site_fract_y
 _atom_site_fract_z
 _atom_site_occupancy
  Cr  Cr0  1  0.99844699  -0.00068431  0.99663438  1
  Fe  Fe1  1  0.16482630  0.16268796  0.16748967  1
  Fe  Fe2  1  -0.00047576  0.99662581  0.33354148  1
  Cr  Cr3  1  -0.00079405  0.33075067  0.00013483  1
  Cr  Cr4  1  0.16756467  0.49898425  0.16601324  1
  Fe  Fe5  1  0.99827203  0.33253209  0.33207644  1
  Cr  Cr6  1  0.99644432  0.66524447  0.00065932  1
  Cr  Cr7  1  0.16608687  0.83041411  0.16651794  1
  Fe  Fe8  1  -0.00040975  0.66745182  0.33401153  1
  Cr  Cr9  1  0.33234158  0.00115839  0.00008355  1
  Fe  Fe10  1  0.49942505  0.16181954  0.16674962  1
  Ni  Ni11  1  0.33037260  0.99795490  0.33434739  1
  Fe  Fe12  1  0.33263630  0.33227080  0.99703040  1
  Cr  Cr13  1  0.49709405  0.49869521  0.16262181  1
  Cr  Cr14  1  0.33344350  0.32750709  0.32950079  1
  Ni  Ni15  1  0.33594254  0.66497541  0.99726665  1
  Fe  Fe16  1  0.49892575  0.83297735  0.16654317  1
  Ni  Ni17  1  0.33257404  0.66896293  0.33434021  1
  Fe  Fe18  1  0.66314180  0.99826240  -0.00045757  1
  Cr  Cr19  1  0.82923719  0.16291434  0.16733517  1
  Fe  Fe20  1  0.66083106  0.99771180  0.33328697  1
  Cr  Cr21  1  0.66334353  0.33284798  0.99599669  1
  Fe  Fe22  1  0.83169338  0.49942084  0.16830669  1
  Ni  Ni23  1  0.66675553  0.33118937  0.33370435  1
  Fe  Fe24  1  0.66441223  0.66779631  0.00090277  1
  Ni  Ni25  1  0.82906132  0.83516240  0.16627158  1
  Cr  Cr26  1  0.66730490  0.66403436  0.33226947  1
  Fe  Fe27  1  0.16569027  0.16443483  0.49908299  1
  Cr  Cr28  1  0.00055941  0.99619821  0.66628614  1
  Cr  Cr29  1  0.16634027  0.16674854  0.83050062  1
  Cr  Cr30  1  0.16638801  0.49978033  0.49935646  1
  Fe  Fe31  1  -0.00047063  0.33264355  0.66328931  1
  Cr  Cr32  1  0.16830066  0.50067283  0.82970050  1
  Ni  Ni33  1  0.16666453  0.83355577  0.49907994  1
  Ni  Ni34  1  0.99646075  0.66409906  0.66031424  1
  Cr  Cr35  1  0.16704210  0.82881707  0.82861607  1
  Fe  Fe36  1  0.49610480  0.16357706  0.49849196  1
  Ni  Ni37  1  0.33245650  0.00259800  0.66140925  1
  Ni  Ni38  1  0.49945330  0.16713513  0.83099564  1
  Cr  Cr39  1  0.49745412  0.49489712  0.50158517  1
  Ni  Ni40  1  0.33426418  0.32876117  0.66764905  1
  Fe  Fe41  1  0.49691813  0.49785047  0.83040864  1
  Fe  Fe42  1  0.49737628  0.83282259  0.49740309  1
  Fe  Fe43  1  0.33151375  0.66859495  0.66280380  1
  Cr  Cr44  1  0.49704525  0.83234489  0.83293278  1
  Cr  Cr45  1  0.82903707  0.16561508  0.49952868  1
  Cr  Cr46  1  0.66231223  0.99789955  0.66476436  1
  Fe  Fe47  1  0.82896514  0.16612445  0.83025342  1
  Ni  Ni48  1  0.83298642  0.49700510  0.49597105  1
  Fe  Fe49  1  0.66376630  0.33039777  0.66500541  1
  Cr  Cr50  1  0.83207884  0.49768395  0.82888429  1
  Ni  Ni51  1  0.83497362  0.83292592  0.49602541  1
  Cr  Cr52  1  0.66762156  0.66365256  0.66249810  1
  Cr  Cr53  1  0.83049379  0.83379038  0.83427969  1
" 