5133,Ni23Fe43Cr33_15,-224.538418592827, 183.173972732766,Ni23Fe43Cr33,"# generated using pymatgen
 data_Cr19Fe23Ni12
_symmetry_space_group_name_H-M   'P 1'
_cell_length_a   7.47286441
_cell_length_b   7.47286441
_cell_length_c   10.56822620
_cell_angle_alpha   90.00000000
_cell_angle_beta   90.00000000
_cell_angle_gamma   90.00000000
_symmetry_Int_Tables_number   1
_chemical_formula_structural   Cr19Fe23Ni12
_chemical_formula_sum   'Cr19 Fe23 Ni12'
_cell_volume   590.16888023
_cell_formula_units_Z   1
loop_
 _symmetry_equiv_pos_site_id
 _symmetry_equiv_pos_as_xyz
  1  'x, y, z'
loop_
 _atom_site_type_symbol
 _atom_site_label
 _atom_site_symmetry_multiplicity
 _atom_site_fract_x
 _atom_site_fract_y
 _atom_site_fract_z
 _atom_site_occupancy
  Cr  Cr0  1  0.00208778  0.00003901  0.99881362  1
  Ni  Ni1  1  0.16308540  0.16751534  0.16907130  1
  Fe  Fe2  1  0.99719947  -0.00025383  0.33257849  1
  Cr  Cr3  1  0.00036544  0.33304782  0.00026459  1
  Ni  Ni4  1  0.16256301  0.49998566  0.16879120  1
  Fe  Fe5  1  0.99908717  0.33185468  0.33022766  1
  Fe  Fe6  1  0.99827358  0.66453224  0.00029757  1
  Fe  Fe7  1  0.16276198  0.83211772  0.16756013  1
  Fe  Fe8  1  0.00120867  0.66741523  0.33255644  1
  Fe  Fe9  1  0.33023763  0.00155684  0.00075166  1
  Fe  Fe10  1  0.49869955  0.16959494  0.16908180  1
  Cr  Cr11  1  0.32855679  -0.00001580  0.33001770  1
  Cr  Cr12  1  0.32980470  0.33329596  0.00190628  1
  Cr  Cr13  1  0.49911697  0.50090044  0.16992896  1
  Ni  Ni14  1  0.33036087  0.33298076  0.33255353  1
  Cr  Cr15  1  0.32997980  0.66816832  0.99890665  1
  Cr  Cr16  1  0.50034774  0.83440717  0.16512261  1
  Fe  Fe17  1  0.33257722  0.66474746  0.33301452  1
  Cr  Cr18  1  0.66694109  0.99921232  0.00356319  1
  Ni  Ni19  1  0.83375547  0.16670743  0.16854921  1
  Fe  Fe20  1  0.66791488  0.00136474  0.33104498  1
  Cr  Cr21  1  0.66842341  0.33375592  0.99855978  1
  Fe  Fe22  1  0.83435381  0.49976639  0.16851691  1
  Ni  Ni23  1  0.66652098  0.33419488  0.33222106  1
  Fe  Fe24  1  0.66767744  0.66491746  0.99939238  1
  Fe  Fe25  1  0.83666894  0.83157665  0.16824593  1
  Ni  Ni26  1  0.67017703  0.66779222  0.33263756  1
  Fe  Fe27  1  0.16657694  0.16389111  0.49952360  1
  Fe  Fe28  1  0.00409110  0.99535942  0.66620768  1
  Ni  Ni29  1  0.16811001  0.16556571  0.82975452  1
  Cr  Cr30  1  0.16672965  0.49922479  0.49790544  1
  Cr  Cr31  1  0.00026882  0.33118837  0.66978489  1
  Fe  Fe32  1  0.16697292  0.50183805  0.83177556  1
  Ni  Ni33  1  0.16514378  0.83168607  0.50044083  1
  Ni  Ni34  1  0.00274905  0.66614767  0.66704658  1
  Fe  Fe35  1  0.16815392  0.83297640  0.82964787  1
  Cr  Cr36  1  0.49896700  0.16952543  0.49753378  1
  Fe  Fe37  1  0.33044504  0.99641656  0.66579833  1
  Cr  Cr38  1  0.49726282  0.16334354  0.83375087  1
  Fe  Fe39  1  0.49884072  0.50037757  0.49599414  1
  Fe  Fe40  1  0.33403028  0.33555722  0.66610333  1
  Fe  Fe41  1  0.49889152  0.50110680  0.83217532  1
  Cr  Cr42  1  0.49868839  0.83222277  0.49742517  1
  Ni  Ni43  1  0.33211844  0.66619628  0.66538416  1
  Ni  Ni44  1  0.49713129  0.83201165  0.83412326  1
  Cr  Cr45  1  0.83461833  0.16612846  0.50085697  1
  Cr  Cr46  1  0.66801462  0.99918126  0.66462882  1
  Fe  Fe47  1  0.83362604  0.16557701  0.83235010  1
  Cr  Cr48  1  0.83346802  0.49960912  0.49742748  1
  Fe  Fe49  1  0.66526700  0.33609627  0.66810784  1
  Ni  Ni50  1  0.83496329  0.50036482  0.83434579  1
  Fe  Fe51  1  0.83742575  0.83152542  0.49827566  1
  Cr  Cr52  1  0.66439195  0.66504210  0.66593019  1
  Cr  Cr53  1  0.83328998  0.82964561  0.83250958  1
" 