3572,Ni23Fe77_6,-242.751112339103, 211.638703361389,Ni23Fe77,"# generated using pymatgen
 data_Fe2Ni7
_symmetry_space_group_name_H-M   'P 1'
_cell_length_a   7.41743619
_cell_length_b   7.41743619
_cell_length_c   10.48983886
_cell_angle_alpha   90.00000000
_cell_angle_beta   90.00000000
_cell_angle_gamma   90.00000000
_symmetry_Int_Tables_number   1
_chemical_formula_structural   Fe2Ni7
_chemical_formula_sum   'Fe12 Ni42'
_cell_volume   577.13372794
_cell_formula_units_Z   6
loop_
 _symmetry_equiv_pos_site_id
 _symmetry_equiv_pos_as_xyz
  1  'x, y, z'
loop_
 _atom_site_type_symbol
 _atom_site_label
 _atom_site_symmetry_multiplicity
 _atom_site_fract_x
 _atom_site_fract_y
 _atom_site_fract_z
 _atom_site_occupancy
  Fe  Fe0  1  0.00364498  1.00308348  1.00330031  1
  Ni  Ni1  1  0.17106694  0.17170788  0.17067864  1
  Ni  Ni2  1  1.00135361  1.00312075  0.33580642  1
  Fe  Fe3  1  0.00369088  0.33760535  0.00335215  1
  Fe  Fe4  1  0.16992500  0.50343551  0.17030009  1
  Ni  Ni5  1  1.00286366  0.33598739  0.33660251  1
  Ni  Ni6  1  0.00337437  0.67091527  1.00287261  1
  Fe  Fe7  1  0.16889262  0.83755857  0.17012363  1
  Ni  Ni8  1  0.00453930  0.67098454  0.33811867  1
  Ni  Ni9  1  0.33662339  1.00330345  0.00435201  1
  Ni  Ni10  1  0.50261417  0.16881758  0.17019001  1
  Fe  Fe11  1  0.33624436  0.00404569  0.33668589  1
  Ni  Ni12  1  0.33745555  0.33669037  1.00289414  1
  Fe  Fe13  1  0.50455348  0.50229403  0.17031042  1
  Ni  Ni14  1  0.33709982  0.33806527  0.33769894  1
  Ni  Ni15  1  0.33619138  0.67024768  1.00299717  1
  Ni  Ni16  1  0.50359131  0.83760626  0.17026582  1
  Ni  Ni17  1  0.33627774  0.66991913  0.33619184  1
  Ni  Ni18  1  0.67048478  0.00365739  1.00207753  1
  Ni  Ni19  1  0.83659055  0.17069794  0.16836432  1
  Ni  Ni20  1  0.67161719  0.00409969  0.33730423  1
  Ni  Ni21  1  0.66989716  0.33620687  1.00292356  1
  Ni  Ni22  1  0.83846579  0.50382246  0.17103948  1
  Ni  Ni23  1  0.67014398  0.33486396  0.33652482  1
  Ni  Ni24  1  0.67036418  0.66997682  0.00448573  1
  Ni  Ni25  1  0.83542379  0.83547178  0.17013554  1
  Fe  Fe26  1  0.67067913  0.66947997  0.33737723  1
  Fe  Fe27  1  0.16905172  0.16999641  0.50334764  1
  Ni  Ni28  1  0.00346342  1.00256100  0.67054903  1
  Ni  Ni29  1  0.17241080  0.17073931  0.83623232  1
  Ni  Ni30  1  0.16963565  0.50328585  0.50367852  1
  Ni  Ni31  1  1.00286049  0.33516251  0.66969937  1
  Ni  Ni32  1  0.16857664  0.50241256  0.83690723  1
  Ni  Ni33  1  0.17029552  0.83560311  0.50313169  1
  Fe  Fe34  1  0.00426167  0.66921805  0.67016329  1
  Ni  Ni35  1  0.17062826  0.83684770  0.83764632  1
  Ni  Ni36  1  0.50292029  0.17012278  0.50283557  1
  Ni  Ni37  1  0.33475142  1.00256971  0.66888044  1
  Ni  Ni38  1  0.50185666  0.16924901  0.83678043  1
  Ni  Ni39  1  0.50281134  0.50288518  0.50339836  1
  Ni  Ni40  1  0.33681290  0.33700032  0.66966498  1
  Fe  Fe41  1  0.50310849  0.50430735  0.83629035  1
  Ni  Ni42  1  0.50259222  0.83722209  0.50295987  1
  Ni  Ni43  1  0.33714911  0.67059684  0.67114995  1
  Ni  Ni44  1  0.50346063  0.83853530  0.83671627  1
  Ni  Ni45  1  0.83593572  0.17063439  0.50357335  1
  Fe  Fe46  1  0.66877816  0.00386000  0.66951461  1
  Fe  Fe47  1  0.83736868  0.16940480  0.83601774  1
  Ni  Ni48  1  0.83782657  0.50274913  0.50281183  1
  Ni  Ni49  1  0.67025949  0.33760422  0.67013779  1
  Ni  Ni50  1  0.83751962  0.50381967  0.83652260  1
  Ni  Ni51  1  0.83711063  0.83640746  0.50364652  1
  Ni  Ni52  1  0.66963966  0.66971829  0.66894571  1
  Ni  Ni53  1  0.83583424  0.83441097  0.83641364  1
" 