365,Ni23Fe60Cr16_8,-229.752257248767, 184.182940649623,Ni23Fe60Cr16,"# generated using pymatgen
 data_Cr5(Fe8Ni3)2
_symmetry_space_group_name_H-M   'P 1'
_cell_length_a   7.44325027
_cell_length_b   7.44325027
_cell_length_c   10.52634548
_cell_angle_alpha   90.00000000
_cell_angle_beta   90.00000000
_cell_angle_gamma   90.00000000
_symmetry_Int_Tables_number   1
_chemical_formula_structural   Cr5(Fe8Ni3)2
_chemical_formula_sum   'Cr10 Fe32 Ni12'
_cell_volume   583.18032430
_cell_formula_units_Z   2
loop_
 _symmetry_equiv_pos_site_id
 _symmetry_equiv_pos_as_xyz
  1  'x, y, z'
loop_
 _atom_site_type_symbol
 _atom_site_label
 _atom_site_symmetry_multiplicity
 _atom_site_fract_x
 _atom_site_fract_y
 _atom_site_fract_z
 _atom_site_occupancy
  Cr  Cr0  1  0.00531681  0.00433688  0.00371414  1
  Ni  Ni1  1  0.17020283  0.17102978  0.16877222  1
  Fe  Fe2  1  0.99999074  0.00336980  0.33431100  1
  Ni  Ni3  1  0.00233807  0.33705397  0.00419140  1
  Ni  Ni4  1  0.16950936  0.50020030  0.16874770  1
  Ni  Ni5  1  0.00183453  0.33450455  0.33425027  1
  Fe  Fe6  1  1.00112818  0.66745895  0.00424225  1
  Fe  Fe7  1  0.16847165  0.83373980  0.16919714  1
  Fe  Fe8  1  0.99955014  0.66606456  0.33387591  1
  Fe  Fe9  1  0.33361870  0.00294432  1.00141669  1
  Fe  Fe10  1  0.50024886  0.16931613  0.16948604  1
  Fe  Fe11  1  0.33356263  0.00477416  0.33286980  1
  Fe  Fe12  1  0.33412372  0.33295393  0.00320516  1
  Fe  Fe13  1  0.50087703  0.50168511  0.16829456  1
  Fe  Fe14  1  0.33356109  0.33498299  0.33420507  1
  Fe  Fe15  1  0.33454068  0.66895689  0.00220540  1
  Fe  Fe16  1  0.49925647  0.83367440  0.17011200  1
  Fe  Fe17  1  0.33380486  0.66486076  0.33358605  1
  Cr  Cr18  1  0.66494090  0.99967220  0.00238472  1
  Fe  Fe19  1  0.83704725  0.17061243  0.17036893  1
  Fe  Fe20  1  0.67105678  0.00310422  0.33367189  1
  Fe  Fe21  1  0.66831509  0.33734796  0.00264631  1
  Fe  Fe22  1  0.83743473  0.50065100  0.16917015  1
  Fe  Fe23  1  0.66959172  0.33520259  0.33577092  1
  Fe  Fe24  1  0.66937255  0.66551147  0.00283660  1
  Ni  Ni25  1  0.83301469  0.83356868  0.17164846  1
  Fe  Fe26  1  0.67135473  0.66642841  0.33472901  1
  Fe  Fe27  1  0.16578414  0.16899786  0.49941038  1
  Ni  Ni28  1  0.00199758  0.00320193  0.66651777  1
  Ni  Ni29  1  0.17078540  0.16899051  0.83600780  1
  Fe  Fe30  1  0.16735729  0.50079957  0.49970282  1
  Cr  Cr31  1  1.00147005  0.33350948  0.66615568  1
  Cr  Cr32  1  0.16890173  0.50215860  0.83464185  1
  Cr  Cr33  1  0.16610410  0.83292415  0.50105102  1
  Fe  Fe34  1  0.00365387  0.66963838  0.66648156  1
  Ni  Ni35  1  0.17014021  0.83400017  0.83597432  1
  Fe  Fe36  1  0.50401887  0.17031495  0.50048755  1
  Cr  Cr37  1  0.33318385  0.00201483  0.67183765  1
  Fe  Fe38  1  0.49905635  0.17026908  0.83553696  1
  Fe  Fe39  1  0.50207617  0.49950069  0.50078386  1
  Fe  Fe40  1  0.33703494  0.33576423  0.66729277  1
  Fe  Fe41  1  0.50148998  0.50062260  0.83589882  1
  Cr  Cr42  1  0.50285375  0.83540743  0.49956180  1
  Ni  Ni43  1  0.33663382  0.66655068  0.66839633  1
  Fe  Fe44  1  0.49768415  0.83356769  0.83587044  1
  Ni  Ni45  1  0.83303951  0.16800847  0.50017799  1
  Fe  Fe46  1  0.66940487  0.00417192  0.66631650  1
  Cr  Cr47  1  0.83438880  0.17000992  0.83445623  1
  Ni  Ni48  1  0.83478373  0.50068315  0.50050740  1
  Fe  Fe49  1  0.66550084  0.33377543  0.66623865  1
  Fe  Fe50  1  0.83539168  0.50072445  0.83671400  1
  Ni  Ni51  1  0.83503687  0.83644017  0.50165626  1
  Cr  Cr52  1  0.66723652  0.66626749  0.66823337  1
  Cr  Cr53  1  0.83724974  0.83400352  0.83050403  1
" 