3332,Ni23Fe77_2,-243.289861384043, 212.986754597733,Ni23Fe77,"# generated using pymatgen
 data_Fe2Ni7
_symmetry_space_group_name_H-M   'P 1'
_cell_length_a   7.42185589
_cell_length_b   7.42185589
_cell_length_c   10.49608925
_cell_angle_alpha   90.00000000
_cell_angle_beta   90.00000000
_cell_angle_gamma   90.00000000
_symmetry_Int_Tables_number   1
_chemical_formula_structural   Fe2Ni7
_chemical_formula_sum   'Fe12 Ni42'
_cell_volume   578.16600077
_cell_formula_units_Z   6
loop_
 _symmetry_equiv_pos_site_id
 _symmetry_equiv_pos_as_xyz
  1  'x, y, z'
loop_
 _atom_site_type_symbol
 _atom_site_label
 _atom_site_symmetry_multiplicity
 _atom_site_fract_x
 _atom_site_fract_y
 _atom_site_fract_z
 _atom_site_occupancy
  Ni  Ni0  1  0.00325595  0.00331377  0.00317426  1
  Ni  Ni1  1  0.17042451  0.16988868  0.16920343  1
  Fe  Fe2  1  1.00280889  1.00233774  0.33661405  1
  Ni  Ni3  1  1.00265890  0.33611086  1.00303852  1
  Fe  Fe4  1  0.16917827  0.50304995  0.16930108  1
  Fe  Fe5  1  1.00281228  0.33714983  0.33655331  1
  Ni  Ni6  1  1.00232519  0.66971019  1.00279865  1
  Fe  Fe7  1  0.16953407  0.83714846  0.16959770  1
  Ni  Ni8  1  1.00232296  0.66976816  0.33704046  1
  Ni  Ni9  1  0.33622710  0.00361312  1.00295377  1
  Ni  Ni10  1  0.50216207  0.16911260  0.16902341  1
  Ni  Ni11  1  0.33620676  0.00322721  0.33671102  1
  Ni  Ni12  1  0.33652575  0.33551028  0.00370394  1
  Fe  Fe13  1  0.50428692  0.50274456  0.16947571  1
  Fe  Fe14  1  0.33684945  0.33691266  0.33691099  1
  Ni  Ni15  1  0.33655875  0.67001088  1.00266108  1
  Ni  Ni16  1  0.50322113  0.83637770  0.16911702  1
  Ni  Ni17  1  0.33650627  0.67091489  0.33757437  1
  Ni  Ni18  1  0.66964940  0.00328166  0.00335091  1
  Ni  Ni19  1  0.83654678  0.16995201  0.16920039  1
  Fe  Fe20  1  0.66917181  1.00209611  0.33584422  1
  Ni  Ni21  1  0.66995037  0.33643913  1.00248444  1
  Ni  Ni22  1  0.83625348  0.50363231  0.16896026  1
  Ni  Ni23  1  0.67000606  0.33673484  0.33715076  1
  Ni  Ni24  1  0.67024951  0.66941180  0.00382101  1
  Ni  Ni25  1  0.83547701  0.83554711  0.16929501  1
  Ni  Ni26  1  0.67030349  0.66869648  0.33641149  1
  Ni  Ni27  1  0.17015877  0.16967778  0.50324632  1
  Ni  Ni28  1  0.00400960  0.00321803  0.66901843  1
  Ni  Ni29  1  0.16967505  0.16951052  0.83668114  1
  Ni  Ni30  1  0.17009461  0.50313364  0.50328354  1
  Ni  Ni31  1  0.00340921  0.33626111  0.66908761  1
  Ni  Ni32  1  0.17044826  0.50293959  0.83685248  1
  Ni  Ni33  1  0.17012702  0.83632421  0.50272337  1
  Ni  Ni34  1  1.00149985  0.66965455  0.66929659  1
  Ni  Ni35  1  0.16964088  0.83668304  0.83715057  1
  Ni  Ni36  1  0.50244736  0.16970660  0.50307158  1
  Ni  Ni37  1  0.33574462  0.00432104  0.66946911  1
  Fe  Fe38  1  0.50251026  0.17024434  0.83685048  1
  Ni  Ni39  1  0.50284096  0.50343358  0.50226277  1
  Ni  Ni40  1  0.33607979  0.33489244  0.66869072  1
  Ni  Ni41  1  0.50280475  0.50327927  0.83724576  1
  Ni  Ni42  1  0.50277805  0.83599267  0.50328046  1
  Fe  Fe43  1  0.33525828  0.66941375  0.66947401  1
  Fe  Fe44  1  0.50304928  0.83584619  0.83691049  1
  Ni  Ni45  1  0.83652935  0.16974042  0.50265856  1
  Fe  Fe46  1  0.67071803  1.00304406  0.66964925  1
  Ni  Ni47  1  0.83701965  0.16950082  0.83727183  1
  Ni  Ni48  1  0.83619774  0.50346278  0.50346100  1
  Fe  Fe49  1  0.67035571  0.33655241  0.66934941  1
  Ni  Ni50  1  0.83587919  0.50331203  0.83671003  1
  Ni  Ni51  1  0.83622627  0.83592773  0.50282609  1
  Ni  Ni52  1  0.67074810  0.66931740  0.66889972  1
  Ni  Ni53  1  0.83667939  0.83632019  0.83701058  1
" 