820,Ni23Fe19Cr57_18,-216.297044171886, 170.500059233204,Ni23Fe19Cr57,"# generated using pymatgen
 data_Cr16Fe5Ni6
_symmetry_space_group_name_H-M   'P 1'
_cell_length_a   7.52797053
_cell_length_b   7.52797053
_cell_length_c   10.64615803
_cell_angle_alpha   90.00000000
_cell_angle_beta   90.00000000
_cell_angle_gamma   90.00000000
_symmetry_Int_Tables_number   1
_chemical_formula_structural   Cr16Fe5Ni6
_chemical_formula_sum   'Cr32 Fe10 Ni12'
_cell_volume   603.32139878
_cell_formula_units_Z   2
loop_
 _symmetry_equiv_pos_site_id
 _symmetry_equiv_pos_as_xyz
  1  'x, y, z'
loop_
 _atom_site_type_symbol
 _atom_site_label
 _atom_site_symmetry_multiplicity
 _atom_site_fract_x
 _atom_site_fract_y
 _atom_site_fract_z
 _atom_site_occupancy
  Fe  Fe0  1  0.99518680  -0.00314904  -0.00269087  1
  Ni  Ni1  1  0.15906475  0.16120675  0.16205360  1
  Fe  Fe2  1  0.99453488  0.99481487  0.32935367  1
  Ni  Ni3  1  0.99515001  0.33093605  0.99525626  1
  Cr  Cr4  1  0.16257209  0.49723647  0.16143116  1
  Cr  Cr5  1  0.99418928  0.32850041  0.32985466  1
  Ni  Ni6  1  0.99327231  0.66016109  0.99591665  1
  Cr  Cr7  1  0.15929179  0.83021382  0.16415473  1
  Cr  Cr8  1  0.99281205  0.66225216  0.32947711  1
  Cr  Cr9  1  0.33083301  -0.00189252  -0.00306947  1
  Fe  Fe10  1  0.49647169  0.15991240  0.16325558  1
  Fe  Fe11  1  0.32923736  0.99481684  0.32855199  1
  Cr  Cr12  1  0.32477975  0.32738890  0.99578758  1
  Cr  Cr13  1  0.49831276  0.49509225  0.16639928  1
  Cr  Cr14  1  0.32608298  0.32602631  0.32559870  1
  Cr  Cr15  1  0.32665186  0.66139189  0.99320073  1
  Cr  Cr16  1  0.49638612  0.82745290  0.16265466  1
  Ni  Ni17  1  0.32967618  0.66439246  0.33103322  1
  Ni  Ni18  1  0.66606311  -0.00364800  -0.00268880  1
  Cr  Cr19  1  0.83080826  0.16234860  0.16194755  1
  Cr  Cr20  1  0.66529213  0.99512304  0.33098217  1
  Cr  Cr21  1  0.66466998  0.32877947  -0.00118260  1
  Fe  Fe22  1  0.83260140  0.49722807  0.16148005  1
  Fe  Fe23  1  0.66520044  0.33012699  0.33006335  1
  Cr  Cr24  1  0.66712765  0.66435558  -0.00273723  1
  Ni  Ni25  1  0.83111296  0.83181280  0.15966681  1
  Cr  Cr26  1  0.66689662  0.66474871  0.32982369  1
  Cr  Cr27  1  0.15870686  0.16085112  0.49567018  1
  Ni  Ni28  1  0.99271095  0.99587039  0.65925247  1
  Cr  Cr29  1  0.15660706  0.16122934  0.82898942  1
  Cr  Cr30  1  0.16134827  0.49661464  0.49799477  1
  Fe  Fe31  1  0.99226732  0.33064288  0.66231238  1
  Fe  Fe32  1  0.15651062  0.49617713  0.82978466  1
  Cr  Cr33  1  0.16166249  0.82961788  0.49387611  1
  Fe  Fe34  1  0.99256228  0.66240740  0.66256045  1
  Cr  Cr35  1  0.15814376  0.82920075  0.82920744  1
  Cr  Cr36  1  0.49753267  0.16496374  0.49543928  1
  Cr  Cr37  1  0.32929909  0.99571525  0.66167575  1
  Cr  Cr38  1  0.50055139  0.16367903  0.83038679  1
  Cr  Cr39  1  0.49684517  0.49628210  0.49378340  1
  Cr  Cr40  1  0.32640390  0.32890044  0.66703076  1
  Cr  Cr41  1  0.50046999  0.49475464  0.82810710  1
  Ni  Ni42  1  0.49717642  0.82939400  0.49389703  1
  Cr  Cr43  1  0.32795757  0.66317490  0.66352792  1
  Cr  Cr44  1  0.49777620  0.82952268  0.83048315  1
  Fe  Fe45  1  0.82931913  0.16256699  0.49712834  1
  Cr  Cr46  1  0.66426539  0.99479283  0.66138196  1
  Cr  Cr47  1  0.82966488  0.16381107  0.82749978  1
  Ni  Ni48  1  0.82892636  0.49477357  0.49668032  1
  Ni  Ni49  1  0.66859801  0.33080164  0.65949079  1
  Ni  Ni50  1  0.83314653  0.49471059  0.82948032  1
  Ni  Ni51  1  0.83109971  0.82946356  0.49688174  1
  Cr  Cr52  1  0.66571345  0.66343034  0.66087427  1
  Cr  Cr53  1  0.83194868  0.83051424  0.83252158  1
" 