245,Ni23Fe19Cr57_16,-216.59260847833, 172.407942206556,Ni23Fe19Cr57,"# generated using pymatgen
 data_Cr16Fe5Ni6
_symmetry_space_group_name_H-M   'P 1'
_cell_length_a   7.52786141
_cell_length_b   7.52786141
_cell_length_c   10.64600370
_cell_angle_alpha   90.00000000
_cell_angle_beta   90.00000000
_cell_angle_gamma   90.00000000
_symmetry_Int_Tables_number   1
_chemical_formula_structural   Cr16Fe5Ni6
_chemical_formula_sum   'Cr32 Fe10 Ni12'
_cell_volume   603.29516155
_cell_formula_units_Z   2
loop_
 _symmetry_equiv_pos_site_id
 _symmetry_equiv_pos_as_xyz
  1  'x, y, z'
loop_
 _atom_site_type_symbol
 _atom_site_label
 _atom_site_symmetry_multiplicity
 _atom_site_fract_x
 _atom_site_fract_y
 _atom_site_fract_z
 _atom_site_occupancy
  Fe  Fe0  1  0.99450175  -0.00325213  -0.00212269  1
  Fe  Fe1  1  0.16423754  0.16177785  0.16286043  1
  Fe  Fe2  1  -0.00344894  0.99470045  0.32670614  1
  Cr  Cr3  1  0.99559790  0.33025054  -0.00127229  1
  Cr  Cr4  1  0.16552931  0.49921590  0.16628605  1
  Cr  Cr5  1  0.99494225  0.33108932  0.32780241  1
  Cr  Cr6  1  0.99510594  0.66538578  0.99441136  1
  Cr  Cr7  1  0.16297974  0.83119848  0.15995945  1
  Ni  Ni8  1  0.99492117  0.66751624  0.32854156  1
  Fe  Fe9  1  0.33101658  0.99545939  -0.00316237  1
  Ni  Ni10  1  0.49881089  0.16104398  0.16229114  1
  Cr  Cr11  1  0.33284077  0.99584065  0.33092820  1
  Cr  Cr12  1  0.33192965  0.32857528  -0.00032435  1
  Ni  Ni13  1  0.49642436  0.49679163  0.16203293  1
  Cr  Cr14  1  0.33214984  0.32912574  0.32750669  1
  Fe  Fe15  1  0.33227909  0.66109215  -0.00386120  1
  Cr  Cr16  1  0.49608189  0.82625411  0.16415666  1
  Ni  Ni17  1  0.32925686  0.66539863  0.32837444  1
  Cr  Cr18  1  0.66190819  0.99587254  -0.00219788  1
  Ni  Ni19  1  0.83029513  0.15739114  0.16368503  1
  Fe  Fe20  1  0.66329556  0.99477479  0.32752133  1
  Cr  Cr21  1  0.66062075  0.33063833  0.99500862  1
  Cr  Cr22  1  0.82667398  0.49712303  0.16310740  1
  Cr  Cr23  1  0.66145846  0.32648062  0.32701566  1
  Ni  Ni24  1  0.66048236  0.66375775  -0.00189642  1
  Fe  Fe25  1  0.82778744  0.82915858  0.16413446  1
  Fe  Fe26  1  0.66076759  0.66158910  0.32809063  1
  Cr  Cr27  1  0.16262413  0.16159312  0.49351766  1
  Cr  Cr28  1  -0.00314032  0.99234679  0.66424034  1
  Cr  Cr29  1  0.16301273  0.15929108  0.83286803  1
  Cr  Cr30  1  0.16309376  0.49926169  0.49455541  1
  Cr  Cr31  1  -0.00315989  0.33132971  0.66190059  1
  Cr  Cr32  1  0.16540964  0.49699522  0.82671425  1
  Cr  Cr33  1  0.16398298  0.82660112  0.49724388  1
  Ni  Ni34  1  -0.00330644  0.66588860  0.66326202  1
  Fe  Fe35  1  0.16501144  0.82761452  0.83008757  1
  Ni  Ni36  1  0.49810190  0.15959725  0.49432681  1
  Cr  Cr37  1  0.33154028  0.99478235  0.66217303  1
  Ni  Ni38  1  0.49288222  0.16255603  0.83056388  1
  Cr  Cr39  1  0.49530584  0.49855262  0.49504871  1
  Cr  Cr40  1  0.33165762  0.32795504  0.66074074  1
  Ni  Ni41  1  0.49460613  0.49919839  0.83081337  1
  Fe  Fe42  1  0.49591983  0.82706082  0.49490693  1
  Ni  Ni43  1  0.33076930  0.66378146  0.66405845  1
  Cr  Cr44  1  0.49472594  0.82752372  0.83003095  1
  Cr  Cr45  1  0.82821285  0.16108773  0.49603045  1
  Cr  Cr46  1  0.65925375  0.99490365  0.65986120  1
  Cr  Cr47  1  0.82807792  0.16205851  0.82857934  1
  Cr  Cr48  1  0.82892390  0.49822140  0.49884616  1
  Cr  Cr49  1  0.65833809  0.32880457  0.66549172  1
  Cr  Cr50  1  0.82601177  0.49884720  0.82572068  1
  Cr  Cr51  1  0.82709976  0.82837971  0.49221490  1
  Ni  Ni52  1  0.66045892  0.66424595  0.66229907  1
  Cr  Cr53  1  0.82802053  0.82915249  0.83020109  1
" 