8503,Ni23Fe35Cr40_7,-222.480450023487, 182.782606584707,Ni23Fe35Cr40,"# generated using pymatgen
 data_Cr23Fe19Ni12
_symmetry_space_group_name_H-M   'P 1'
_cell_length_a   7.48941355
_cell_length_b   7.48941355
_cell_length_c   10.59163021
_cell_angle_alpha   90.00000000
_cell_angle_beta   90.00000000
_cell_angle_gamma   90.00000000
_symmetry_Int_Tables_number   1
_chemical_formula_structural   Cr23Fe19Ni12
_chemical_formula_sum   'Cr23 Fe19 Ni12'
_cell_volume   594.09846964
_cell_formula_units_Z   1
loop_
 _symmetry_equiv_pos_site_id
 _symmetry_equiv_pos_as_xyz
  1  'x, y, z'
loop_
 _atom_site_type_symbol
 _atom_site_label
 _atom_site_symmetry_multiplicity
 _atom_site_fract_x
 _atom_site_fract_y
 _atom_site_fract_z
 _atom_site_occupancy
  Fe  Fe0  1  0.00065417  -0.00135094  0.00014822  1
  Ni  Ni1  1  0.16235905  0.16370484  0.16475233  1
  Fe  Fe2  1  -0.00137136  0.00014411  0.32977686  1
  Ni  Ni3  1  -0.00144967  0.32988618  0.00023762  1
  Fe  Fe4  1  0.16337635  0.50110490  0.16283104  1
  Fe  Fe5  1  0.99570733  0.32839256  0.32985744  1
  Ni  Ni6  1  -0.00082508  0.66528483  -0.00109165  1
  Ni  Ni7  1  0.16484952  0.83427295  0.16427837  1
  Fe  Fe8  1  0.99850547  0.66700882  0.32944955  1
  Cr  Cr9  1  0.33296258  0.99806051  -0.00126896  1
  Fe  Fe10  1  0.49914989  0.16126483  0.16540291  1
  Fe  Fe11  1  0.33335595  0.99828038  0.32871079  1
  Cr  Cr12  1  0.32913837  0.32809056  -0.00064861  1
  Cr  Cr13  1  0.49794572  0.49941997  0.16168251  1
  Cr  Cr14  1  0.32948001  0.32883647  0.32830066  1
  Ni  Ni15  1  0.33110883  0.66946481  -0.00023098  1
  Ni  Ni16  1  0.49837885  0.83357755  0.16423721  1
  Cr  Cr17  1  0.33136329  0.66819333  0.32941447  1
  Fe  Fe18  1  0.66352436  0.99724262  -0.00080747  1
  Fe  Fe19  1  0.83268160  0.16332500  0.16609131  1
  Ni  Ni20  1  0.66520581  0.00152364  0.33107551  1
  Cr  Cr21  1  0.66682055  0.32823547  0.99826303  1
  Cr  Cr22  1  0.83131410  0.49827621  0.16376703  1
  Fe  Fe23  1  0.66546145  0.32885574  0.33085829  1
  Ni  Ni24  1  0.66491575  0.66874981  0.99757697  1
  Cr  Cr25  1  0.83160067  0.83403255  0.16307771  1
  Cr  Cr26  1  0.66503612  0.66942149  0.33239084  1
  Cr  Cr27  1  0.16503299  0.16211291  0.49954136  1
  Fe  Fe28  1  0.99832863  0.99760097  0.66636930  1
  Fe  Fe29  1  0.16541668  0.16159098  0.83319323  1
  Cr  Cr30  1  0.16479702  0.49890854  0.49554047  1
  Cr  Cr31  1  0.99700981  0.33133379  0.66685560  1
  Cr  Cr32  1  0.16431910  0.49976366  0.83482122  1
  Cr  Cr33  1  0.16492017  0.83379839  0.49864448  1
  Ni  Ni34  1  0.99789677  0.66689171  0.66590376  1
  Fe  Fe35  1  0.16601042  0.83295311  0.83308364  1
  Fe  Fe36  1  0.50094078  0.16195187  0.49867567  1
  Fe  Fe37  1  0.33293917  0.99700392  0.66801163  1
  Ni  Ni38  1  0.49971723  0.16188245  0.83031373  1
  Cr  Cr39  1  0.49831804  0.49551746  0.49893939  1
  Cr  Cr40  1  0.33189469  0.32786789  0.66743294  1
  Cr  Cr41  1  0.49891263  0.49894319  0.83467250  1
  Fe  Fe42  1  0.49889950  0.83737530  0.49789962  1
  Cr  Cr43  1  0.33198234  0.66806094  0.66558433  1
  Ni  Ni44  1  0.49917966  0.83407418  0.83300723  1
  Ni  Ni45  1  0.83018324  0.16377898  0.49673509  1
  Fe  Fe46  1  0.66406004  0.00025861  0.66456325  1
  Cr  Cr47  1  0.83295516  0.16242414  0.83379543  1
  Cr  Cr48  1  0.83179755  0.49705632  0.49869877  1
  Fe  Fe49  1  0.66593695  0.32916492  0.66617874  1
  Fe  Fe50  1  0.83216932  0.49970380  0.83431264  1
  Cr  Cr51  1  0.83390516  0.83563071  0.49779548  1
  Cr  Cr52  1  0.66674581  0.66795043  0.66602975  1
  Cr  Cr53  1  0.83385028  0.83247043  0.83463660  1
" 