440,Ni23Fe74Cr2_11,-232.842984898469, 188.53692461711,Ni23Fe74Cr2,"# generated using pymatgen
 data_Cr(Fe10Ni3)2
_symmetry_space_group_name_H-M   'P 1'
_cell_length_a   7.41181875
_cell_length_b   7.41181875
_cell_length_c   10.48189460
_cell_angle_alpha   90.00000000
_cell_angle_beta   90.00000000
_cell_angle_gamma   90.00000000
_symmetry_Int_Tables_number   1
_chemical_formula_structural   Cr(Fe10Ni3)2
_chemical_formula_sum   'Cr2 Fe40 Ni12'
_cell_volume   575.82347933
_cell_formula_units_Z   2
loop_
 _symmetry_equiv_pos_site_id
 _symmetry_equiv_pos_as_xyz
  1  'x, y, z'
loop_
 _atom_site_type_symbol
 _atom_site_label
 _atom_site_symmetry_multiplicity
 _atom_site_fract_x
 _atom_site_fract_y
 _atom_site_fract_z
 _atom_site_occupancy
  Ni  Ni0  1  0.00430761  0.00440954  1.00294659  1
  Fe  Fe1  1  0.17014860  0.16937794  0.16995796  1
  Ni  Ni2  1  0.00458214  0.00470204  0.33855547  1
  Fe  Fe3  1  1.00330539  0.33536280  1.00325371  1
  Fe  Fe4  1  0.16783193  0.50273448  0.17059509  1
  Fe  Fe5  1  0.00381005  0.33492842  0.33718380  1
  Fe  Fe6  1  0.00478634  0.67034744  1.00287499  1
  Fe  Fe7  1  0.17227078  0.83902501  0.17048086  1
  Fe  Fe8  1  0.00435091  0.67217033  0.33844570  1
  Fe  Fe9  1  0.33625735  0.00447059  0.00418345  1
  Ni  Ni10  1  0.50356089  0.17143930  0.16964139  1
  Ni  Ni11  1  0.33705666  0.00374166  0.33665005  1
  Fe  Fe12  1  0.33578338  0.33531790  1.00226205  1
  Cr  Cr13  1  0.50230512  0.50417351  0.17153522  1
  Fe  Fe14  1  0.33618206  0.33353907  0.33838815  1
  Fe  Fe15  1  0.33562444  0.67167752  1.00160162  1
  Fe  Fe16  1  0.50312316  0.84024258  0.17053233  1
  Fe  Fe17  1  0.33613158  0.67292440  0.33920150  1
  Fe  Fe18  1  0.67051552  0.00597895  1.00361174  1
  Ni  Ni19  1  0.83787582  0.16940087  0.17107302  1
  Ni  Ni20  1  0.67004756  0.00445770  0.33723671  1
  Fe  Fe21  1  0.67194148  0.33477848  1.00259266  1
  Fe  Fe22  1  0.83786621  0.50106895  0.17047363  1
  Fe  Fe23  1  0.67086082  0.33406598  0.33789967  1
  Fe  Fe24  1  0.67088375  0.67084761  1.00151916  1
  Cr  Cr25  1  0.83866657  0.83881918  0.17043974  1
  Fe  Fe26  1  0.67076092  0.67288343  0.33983439  1
  Fe  Fe27  1  0.17069743  0.16970840  0.50445188  1
  Fe  Fe28  1  0.00450816  1.00313165  0.67064885  1
  Ni  Ni29  1  0.17001704  0.16948015  0.83659548  1
  Fe  Fe30  1  0.17011872  0.50453141  0.50406003  1
  Fe  Fe31  1  0.00441584  0.33707187  0.67100454  1
  Fe  Fe32  1  0.17029425  0.50230964  0.83650640  1
  Fe  Fe33  1  0.17131382  0.83693515  0.50375889  1
  Fe  Fe34  1  0.00409482  0.67066812  0.66999137  1
  Fe  Fe35  1  0.17058285  0.83765382  0.83679131  1
  Fe  Fe36  1  0.50410249  0.16961081  0.50249917  1
  Fe  Fe37  1  0.33676024  1.00349599  0.66998702  1
  Fe  Fe38  1  0.50377217  0.17116514  0.83761683  1
  Ni  Ni39  1  0.50227521  0.50292737  0.50326488  1
  Fe  Fe40  1  0.33730923  0.33746528  0.67075547  1
  Ni  Ni41  1  0.50280107  0.50454773  0.83692992  1
  Fe  Fe42  1  0.50420119  0.83694920  0.50376691  1
  Ni  Ni43  1  0.33702649  0.67010615  0.67063002  1
  Fe  Fe44  1  0.50324202  0.83835649  0.83647361  1
  Fe  Fe45  1  0.83635926  0.17029640  0.50390660  1
  Fe  Fe46  1  0.67021219  1.00319250  0.66964758  1
  Ni  Ni47  1  0.83830225  0.16829816  0.83602632  1
  Fe  Fe48  1  0.83623801  0.50437428  0.50374188  1
  Fe  Fe49  1  0.66925065  0.33794030  0.67100569  1
  Fe  Fe50  1  0.83705660  0.50167137  0.83692120  1
  Ni  Ni51  1  0.83856055  0.83872839  0.50461903  1
  Fe  Fe52  1  0.66943464  0.67003949  0.66991700  1
  Fe  Fe53  1  0.83740515  0.83764841  0.83670087  1
" 