6596,Ni23Fe19Cr57_5,-216.324415753645, 171.103517009512,Ni23Fe19Cr57,"# generated using pymatgen
 data_Cr16Fe5Ni6
_symmetry_space_group_name_H-M   'P 1'
_cell_length_a   7.52872960
_cell_length_b   7.52872960
_cell_length_c   10.64723151
_cell_angle_alpha   90.00000000
_cell_angle_beta   90.00000000
_cell_angle_gamma   90.00000000
_symmetry_Int_Tables_number   1
_chemical_formula_structural   Cr16Fe5Ni6
_chemical_formula_sum   'Cr32 Fe10 Ni12'
_cell_volume   603.50392170
_cell_formula_units_Z   2
loop_
 _symmetry_equiv_pos_site_id
 _symmetry_equiv_pos_as_xyz
  1  'x, y, z'
loop_
 _atom_site_type_symbol
 _atom_site_label
 _atom_site_symmetry_multiplicity
 _atom_site_fract_x
 _atom_site_fract_y
 _atom_site_fract_z
 _atom_site_occupancy
  Ni  Ni0  1  -0.00034391  0.99328967  0.99364114  1
  Cr  Cr1  1  0.16224079  0.16426190  0.16261267  1
  Cr  Cr2  1  0.00247795  0.99471605  0.32974705  1
  Cr  Cr3  1  0.99396111  0.33166971  -0.00306523  1
  Ni  Ni4  1  0.16602567  0.49453029  0.16275037  1
  Fe  Fe5  1  -0.00026390  0.32831761  0.32966628  1
  Cr  Cr6  1  -0.00125723  0.66340921  0.99528970  1
  Fe  Fe7  1  0.16319960  0.82861009  0.16127178  1
  Cr  Cr8  1  -0.00170267  0.66179724  0.32864276  1
  Cr  Cr9  1  0.32727890  0.99374026  -0.00161011  1
  Fe  Fe10  1  0.49322061  0.16282013  0.16366937  1
  Ni  Ni11  1  0.32830431  -0.00144750  0.32915856  1
  Fe  Fe12  1  0.32763266  0.32900929  -0.00258255  1
  Cr  Cr13  1  0.49257274  0.49886291  0.16211048  1
  Fe  Fe14  1  0.32901032  0.32777663  0.32929398  1
  Fe  Fe15  1  0.32756214  0.66444880  -0.00278062  1
  Ni  Ni16  1  0.49249142  0.82981554  0.16429926  1
  Cr  Cr17  1  0.32644248  0.66765855  0.32807878  1
  Cr  Cr18  1  0.66175645  -0.00320594  -0.00334994  1
  Cr  Cr19  1  0.83280660  0.15980060  0.16173782  1
  Cr  Cr20  1  0.65828785  -0.00223144  0.32824696  1
  Cr  Cr21  1  0.66235919  0.32955868  0.99480889  1
  Cr  Cr22  1  0.83107653  0.49636350  0.16719696  1
  Cr  Cr23  1  0.66252924  0.32849472  0.32906805  1
  Cr  Cr24  1  0.66478383  0.66133107  0.99437655  1
  Cr  Cr25  1  0.82690969  0.83071033  0.16337398  1
  Ni  Ni26  1  0.66039869  0.66218682  0.32823195  1
  Fe  Fe27  1  0.16416102  0.16259386  0.49600038  1
  Fe  Fe28  1  0.99540926  0.99296311  0.66357368  1
  Cr  Cr29  1  0.16139073  0.16273522  0.82763443  1
  Cr  Cr30  1  0.16292614  0.49292672  0.49635363  1
  Ni  Ni31  1  -0.00295013  0.33046568  0.66143725  1
  Cr  Cr32  1  0.16409201  0.49430036  0.82999421  1
  Fe  Fe33  1  0.16185256  0.83028746  0.49721820  1
  Ni  Ni34  1  -0.00235491  0.66179868  0.66458752  1
  Ni  Ni35  1  0.15895527  0.82945734  0.82952671  1
  Ni  Ni36  1  0.49192966  0.16150520  0.49458858  1
  Cr  Cr37  1  0.32810366  -0.00372393  0.65911059  1
  Cr  Cr38  1  0.49268456  0.16271613  0.82950874  1
  Cr  Cr39  1  0.49332543  0.49638490  0.49628140  1
  Fe  Fe40  1  0.32808970  0.32791021  0.66081087  1
  Cr  Cr41  1  0.49207853  0.49620869  0.82950322  1
  Cr  Cr42  1  0.49786137  0.82943233  0.49436431  1
  Cr  Cr43  1  0.32409497  0.66583250  0.66400989  1
  Cr  Cr44  1  0.49668521  0.82918172  0.82924611  1
  Cr  Cr45  1  0.83228953  0.16026048  0.49690869  1
  Ni  Ni46  1  0.66161216  -0.00200965  0.66275499  1
  Cr  Cr47  1  0.83226178  0.15863928  0.82944089  1
  Cr  Cr48  1  0.83082040  0.49723355  0.49365901  1
  Cr  Cr49  1  0.66347889  0.32726114  0.66395582  1
  Ni  Ni50  1  0.83280001  0.49743165  0.82636647  1
  Cr  Cr51  1  0.82910854  0.82935686  0.49707166  1
  Cr  Cr52  1  0.66566389  0.66178430  0.66396168  1
  Ni  Ni53  1  0.83266091  0.82956367  0.82703836  1
" 