3661,Ni23Fe50Cr25_10,-226.881567250702, 182.950644347695,Ni23Fe50Cr25,"# generated using pymatgen
 data_Cr5Fe9Ni4
_symmetry_space_group_name_H-M   'P 1'
_cell_length_a   7.46890724
_cell_length_b   7.46890724
_cell_length_c   10.56262992
_cell_angle_alpha   90.00000000
_cell_angle_beta   90.00000000
_cell_angle_gamma   90.00000000
_symmetry_Int_Tables_number   1
_chemical_formula_structural   Cr5Fe9Ni4
_chemical_formula_sum   'Cr15 Fe27 Ni12'
_cell_volume   589.23182564
_cell_formula_units_Z   3
loop_
 _symmetry_equiv_pos_site_id
 _symmetry_equiv_pos_as_xyz
  1  'x, y, z'
loop_
 _atom_site_type_symbol
 _atom_site_label
 _atom_site_symmetry_multiplicity
 _atom_site_fract_x
 _atom_site_fract_y
 _atom_site_fract_z
 _atom_site_occupancy
  Cr  Cr0  1  0.99515299  0.00212792  0.00124790  1
  Fe  Fe1  1  0.16925954  0.16609976  0.16676844  1
  Fe  Fe2  1  0.99868029  0.99729496  0.33332501  1
  Cr  Cr3  1  0.99944081  0.33558321  0.99678077  1
  Fe  Fe4  1  0.16803048  0.49999708  0.16713288  1
  Cr  Cr5  1  0.00102820  0.33246912  0.33095262  1
  Fe  Fe6  1  0.99579914  0.66656092  0.99918228  1
  Cr  Cr7  1  0.16479180  0.83115697  0.16540127  1
  Fe  Fe8  1  0.99688169  0.66743396  0.33473890  1
  Fe  Fe9  1  0.33732671  0.99937961  0.00119706  1
  Ni  Ni10  1  0.50263458  0.16872912  0.16520645  1
  Cr  Cr11  1  0.33521397  0.00001588  0.33284359  1
  Cr  Cr12  1  0.33214345  0.33443113  0.00028598  1
  Fe  Fe13  1  0.50358428  0.50192731  0.16495309  1
  Fe  Fe14  1  0.33719821  0.33360551  0.33276913  1
  Fe  Fe15  1  0.33669935  0.66725445  0.99946847  1
  Ni  Ni16  1  0.50027340  0.83313275  0.16391574  1
  Cr  Cr17  1  0.33641704  0.66464800  0.33356130  1
  Ni  Ni18  1  0.66507265  0.99757916  0.00004500  1
  Fe  Fe19  1  0.82954859  0.16678037  0.16503598  1
  Cr  Cr20  1  0.66754120  0.99681757  0.33153882  1
  Fe  Fe21  1  0.66671438  0.33266605  0.99879827  1
  Fe  Fe22  1  0.82897505  0.50271798  0.16707871  1
  Fe  Fe23  1  0.66484622  0.33516966  0.33317643  1
  Ni  Ni24  1  0.66515803  0.66934148  0.99858707  1
  Fe  Fe25  1  0.82852219  0.83030270  0.16500697  1
  Ni  Ni26  1  0.66694617  0.66676490  0.33426454  1
  Fe  Fe27  1  0.16489193  0.16657156  0.49979283  1
  Fe  Fe28  1  0.99873624  0.99941191  0.66729773  1
  Fe  Fe29  1  0.16860623  0.16330072  0.83317966  1
  Ni  Ni30  1  0.16493121  0.49966147  0.49781415  1
  Cr  Cr31  1  0.00023993  0.33300522  0.67174920  1
  Fe  Fe32  1  0.16826585  0.50283284  0.83415578  1
  Fe  Fe33  1  0.16401825  0.83281393  0.49990281  1
  Cr  Cr34  1  0.99681295  0.66430930  0.66732984  1
  Cr  Cr35  1  0.16793635  0.83413169  0.83427415  1
  Fe  Fe36  1  0.50069166  0.16930762  0.49845573  1
  Fe  Fe37  1  0.33423473  0.99937668  0.66505959  1
  Fe  Fe38  1  0.50145200  0.16404919  0.83580065  1
  Fe  Fe39  1  0.50312452  0.49997960  0.49985120  1
  Cr  Cr40  1  0.33176928  0.33371366  0.66587326  1
  Ni  Ni41  1  0.50179982  0.50055498  0.83423840  1
  Fe  Fe42  1  0.50205563  0.83055657  0.49967505  1
  Cr  Cr43  1  0.33704978  0.66596196  0.66585699  1
  Ni  Ni44  1  0.50073358  0.83189485  0.83463070  1
  Fe  Fe45  1  0.83475365  0.16775337  0.50034640  1
  Cr  Cr46  1  0.66627613  0.99602645  0.66747001  1
  Ni  Ni47  1  0.83191627  0.16597768  0.83404788  1
  Ni  Ni48  1  0.83195172  0.49997337  0.49945990  1
  Cr  Cr49  1  0.66746455  0.33473470  0.66855814  1
  Fe  Fe50  1  0.82806707  0.50450554  0.83462648  1
  Fe  Fe51  1  0.83370093  0.83015676  0.49991608  1
  Ni  Ni52  1  0.66603159  0.66859760  0.66646993  1
  Ni  Ni53  1  0.83188519  0.83413068  0.83418224  1
" 