1999,Ni23Fe35Cr40_6,-222.24298064215, 178.54209471156,Ni23Fe35Cr40,"# generated using pymatgen
 data_Cr23Fe19Ni12
_symmetry_space_group_name_H-M   'P 1'
_cell_length_a   7.49406321
_cell_length_b   7.49406321
_cell_length_c   10.59820583
_cell_angle_alpha   90.00000000
_cell_angle_beta   90.00000000
_cell_angle_gamma   90.00000000
_symmetry_Int_Tables_number   1
_chemical_formula_structural   Cr23Fe19Ni12
_chemical_formula_sum   'Cr23 Fe19 Ni12'
_cell_volume   595.20566240
_cell_formula_units_Z   1
loop_
 _symmetry_equiv_pos_site_id
 _symmetry_equiv_pos_as_xyz
  1  'x, y, z'
loop_
 _atom_site_type_symbol
 _atom_site_label
 _atom_site_symmetry_multiplicity
 _atom_site_fract_x
 _atom_site_fract_y
 _atom_site_fract_z
 _atom_site_occupancy
  Ni  Ni0  1  0.99595404  -0.00096437  0.99733692  1
  Fe  Fe1  1  0.16386388  0.16124703  0.16630454  1
  Ni  Ni2  1  -0.00041675  0.99510873  0.33153506  1
  Cr  Cr3  1  -0.00021735  0.33158525  0.00044243  1
  Ni  Ni4  1  0.16775453  0.49786592  0.16551913  1
  Cr  Cr5  1  0.00041950  0.33160643  0.33214202  1
  Cr  Cr6  1  0.99748301  0.66741417  0.00359873  1
  Fe  Fe7  1  0.16498709  0.83399492  0.16612996  1
  Cr  Cr8  1  -0.00052278  0.66741029  0.32874446  1
  Cr  Cr9  1  0.33112776  -0.00130851  0.00044289  1
  Cr  Cr10  1  0.49830286  0.16304112  0.16663116  1
  Fe  Fe11  1  0.32944541  0.99534380  0.33295279  1
  Fe  Fe12  1  0.33058623  0.33025552  0.99795423  1
  Cr  Cr13  1  0.49861735  0.49961612  0.16409010  1
  Cr  Cr14  1  0.32972768  0.33202960  0.33192526  1
  Cr  Cr15  1  0.33143532  0.66371357  0.00064114  1
  Ni  Ni16  1  0.49820169  0.83111030  0.16710192  1
  Ni  Ni17  1  0.33096944  0.66710923  0.33106015  1
  Fe  Fe18  1  0.66667681  0.99609913  -0.00174653  1
  Cr  Cr19  1  0.83249489  0.16276886  0.16670259  1
  Cr  Cr20  1  0.66489922  0.99580301  0.33406817  1
  Fe  Fe21  1  0.66442447  0.33008020  0.99697040  1
  Cr  Cr22  1  0.82910912  0.49822420  0.16931254  1
  Ni  Ni23  1  0.66249728  0.33173042  0.33267486  1
  Fe  Fe24  1  0.66613062  0.66837050  0.00000991  1
  Ni  Ni25  1  0.83021633  0.83462121  0.16290086  1
  Ni  Ni26  1  0.66333398  0.66890572  0.33129625  1
  Ni  Ni27  1  0.16517490  0.16206521  0.49808336  1
  Fe  Fe28  1  -0.00087974  -0.00157985  0.66321889  1
  Fe  Fe29  1  0.16274328  0.16356934  0.83085695  1
  Ni  Ni30  1  0.16651109  0.49865783  0.50084630  1
  Fe  Fe31  1  0.00048554  0.32994187  0.66307426  1
  Cr  Cr32  1  0.16555511  0.49912703  0.82904942  1
  Fe  Fe33  1  0.16310543  0.82990369  0.49771017  1
  Fe  Fe34  1  -0.00164067  0.66636411  0.66207015  1
  Cr  Cr35  1  0.16366323  0.83329849  0.82827989  1
  Fe  Fe36  1  0.49697813  0.16524967  0.49561990  1
  Cr  Cr37  1  0.33319834  0.99806666  0.66022065  1
  Fe  Fe38  1  0.49838418  0.16583750  0.83408525  1
  Cr  Cr39  1  0.49766678  0.50125633  0.49653076  1
  Cr  Cr40  1  0.33160384  0.33120161  0.66670567  1
  Fe  Fe41  1  0.49856363  0.49882835  0.83186125  1
  Fe  Fe42  1  0.49657132  0.82975315  0.49648332  1
  Ni  Ni43  1  0.33016288  0.66470574  0.66278977  1
  Cr  Cr44  1  0.49846853  0.83012671  0.83138944  1
  Cr  Cr45  1  0.83408674  0.16391606  0.49544061  1
  Cr  Cr46  1  0.66609231  0.99772621  0.66478763  1
  Fe  Fe47  1  0.83336979  0.16260635  0.83257513  1
  Cr  Cr48  1  0.83190988  0.50004279  0.49581153  1
  Cr  Cr49  1  0.66507114  0.32922282  0.66394351  1
  Cr  Cr50  1  0.83058572  0.49918716  0.82912645  1
  Ni  Ni51  1  0.83178406  0.83193067  0.50038537  1
  Fe  Fe52  1  0.66318953  0.66641067  0.66316107  1
  Fe  Fe53  1  0.83276016  0.83246822  0.83181814  1
" 