6388,Ni23Fe77_4,-242.943708328702, 211.651906803873,Ni23Fe77,"# generated using pymatgen
 data_Fe2Ni7
_symmetry_space_group_name_H-M   'P 1'
_cell_length_a   7.41716105
_cell_length_b   7.41716105
_cell_length_c   10.48944976
_cell_angle_alpha   90.00000000
_cell_angle_beta   90.00000000
_cell_angle_gamma   90.00000000
_symmetry_Int_Tables_number   1
_chemical_formula_structural   Fe2Ni7
_chemical_formula_sum   'Fe12 Ni42'
_cell_volume   577.06950607
_cell_formula_units_Z   6
loop_
 _symmetry_equiv_pos_site_id
 _symmetry_equiv_pos_as_xyz
  1  'x, y, z'
loop_
 _atom_site_type_symbol
 _atom_site_label
 _atom_site_symmetry_multiplicity
 _atom_site_fract_x
 _atom_site_fract_y
 _atom_site_fract_z
 _atom_site_occupancy
  Ni  Ni0  1  1.00331091  1.00255728  1.00310030  1
  Ni  Ni1  1  0.16931198  0.16967782  0.17072220  1
  Ni  Ni2  1  0.00398967  1.00267592  0.33709313  1
  Ni  Ni3  1  1.00261781  0.33770639  0.00381185  1
  Ni  Ni4  1  0.17024944  0.50287868  0.16977515  1
  Ni  Ni5  1  1.00232975  0.33723850  0.33672143  1
  Ni  Ni6  1  0.00418759  0.66980924  0.00343727  1
  Ni  Ni7  1  0.17151004  0.83753289  0.16909145  1
  Ni  Ni8  1  0.00400854  0.67016851  0.33690328  1
  Ni  Ni9  1  0.33732462  1.00249650  0.00379256  1
  Fe  Fe10  1  0.50277907  0.17084971  0.17038291  1
  Ni  Ni11  1  0.33645760  1.00263817  0.33628080  1
  Ni  Ni12  1  0.33763125  0.33739290  0.00363386  1
  Ni  Ni13  1  0.50359481  0.50446196  0.16991769  1
  Ni  Ni14  1  0.33771258  0.33690507  0.33677863  1
  Ni  Ni15  1  0.33612866  0.67020158  1.00312822  1
  Ni  Ni16  1  0.50269143  0.83631152  0.17024472  1
  Ni  Ni17  1  0.33608827  0.67055356  0.33716521  1
  Ni  Ni18  1  0.66945757  0.00406986  1.00335078  1
  Ni  Ni19  1  0.83748660  0.17058877  0.16976063  1
  Fe  Fe20  1  0.67023685  0.00409593  0.33694671  1
  Ni  Ni21  1  0.66983958  0.33653395  1.00303047  1
  Ni  Ni22  1  0.83624341  0.50225972  0.16967532  1
  Ni  Ni23  1  0.67004883  0.33688388  0.33697976  1
  Fe  Fe24  1  0.66961586  0.66991678  1.00242748  1
  Fe  Fe25  1  0.83804097  0.83648068  0.16968937  1
  Fe  Fe26  1  0.67015642  0.66923636  0.33697247  1
  Ni  Ni27  1  0.17052224  0.16980069  0.50282443  1
  Ni  Ni28  1  0.00388236  1.00280402  0.66990647  1
  Ni  Ni29  1  0.17005509  0.17038511  0.83654810  1
  Ni  Ni30  1  0.16958528  0.50317491  0.50315347  1
  Ni  Ni31  1  1.00231661  0.33757705  0.66956642  1
  Ni  Ni32  1  0.17001719  0.50176250  0.83717442  1
  Ni  Ni33  1  0.16995980  0.83710785  0.50421184  1
  Ni  Ni34  1  1.00294368  0.66970030  0.66974528  1
  Fe  Fe35  1  0.16983154  0.83579462  0.83695325  1
  Ni  Ni36  1  0.50327994  0.16947649  0.50329091  1
  Ni  Ni37  1  0.33699779  1.00284264  0.67001552  1
  Fe  Fe38  1  0.50362547  0.17031380  0.83626997  1
  Fe  Fe39  1  0.50369325  0.50242358  0.50303749  1
  Fe  Fe40  1  0.33615835  0.33608629  0.67009182  1
  Ni  Ni41  1  0.50373480  0.50430344  0.83654883  1
  Fe  Fe42  1  0.50302238  0.83761543  0.50369795  1
  Fe  Fe43  1  0.33663669  0.67027136  0.67036995  1
  Ni  Ni44  1  0.50462319  0.83667521  0.83617276  1
  Ni  Ni45  1  0.83628181  0.16985657  0.50434020  1
  Ni  Ni46  1  0.66920128  0.00347091  0.66941150  1
  Fe  Fe47  1  0.83655599  0.17056994  0.83682886  1
  Ni  Ni48  1  0.83682897  0.50350892  0.50366253  1
  Ni  Ni49  1  0.67042396  0.33723904  0.67008049  1
  Ni  Ni50  1  0.83633034  0.50396138  0.83674201  1
  Ni  Ni51  1  0.83650767  0.83672406  0.50284659  1
  Ni  Ni52  1  0.67048708  0.66938900  0.67006090  1
  Ni  Ni53  1  0.83504448  0.83664013  0.83723176  1
" 