3898,Ni23Fe43Cr33_0,-224.887012226012, 182.246346925023,Ni23Fe43Cr33,"# generated using pymatgen
 data_Cr19Fe23Ni12
_symmetry_space_group_name_H-M   'P 1'
_cell_length_a   7.47685595
_cell_length_b   7.47685595
_cell_length_c   10.57387109
_cell_angle_alpha   90.00000000
_cell_angle_beta   90.00000000
_cell_angle_gamma   90.00000000
_symmetry_Int_Tables_number   1
_chemical_formula_structural   Cr19Fe23Ni12
_chemical_formula_sum   'Cr19 Fe23 Ni12'
_cell_volume   591.11507910
_cell_formula_units_Z   1
loop_
 _symmetry_equiv_pos_site_id
 _symmetry_equiv_pos_as_xyz
  1  'x, y, z'
loop_
 _atom_site_type_symbol
 _atom_site_label
 _atom_site_symmetry_multiplicity
 _atom_site_fract_x
 _atom_site_fract_y
 _atom_site_fract_z
 _atom_site_occupancy
  Cr  Cr0  1  0.99820054  0.00021884  0.99853960  1
  Cr  Cr1  1  0.16660700  0.16703620  0.16849298  1
  Ni  Ni2  1  -0.00010920  0.00041221  0.33774211  1
  Fe  Fe3  1  0.00138280  0.33451430  0.99836825  1
  Cr  Cr4  1  0.16425235  0.49676062  0.16930982  1
  Fe  Fe5  1  0.99805675  0.33147389  0.33626509  1
  Cr  Cr6  1  -0.00023413  0.66494810  0.99717271  1
  Cr  Cr7  1  0.16643914  0.83349260  0.17100460  1
  Ni  Ni8  1  0.99850558  0.66587407  0.33446358  1
  Fe  Fe9  1  0.33421932  0.00105822  -0.00017098  1
  Ni  Ni10  1  0.50029307  0.16948870  0.16564606  1
  Ni  Ni11  1  0.33130040  0.00261575  0.33503915  1
  Ni  Ni12  1  0.33516993  0.32978869  0.99614393  1
  Fe  Fe13  1  0.49717189  0.49494908  0.16857617  1
  Ni  Ni14  1  0.33430342  0.33090790  0.33383379  1
  Cr  Cr15  1  0.33220167  0.66003110  0.00027329  1
  Cr  Cr16  1  0.49673600  0.83545599  0.16945118  1
  Ni  Ni17  1  0.33045547  0.66516909  0.33392335  1
  Fe  Fe18  1  0.66223659  0.00289590  0.00061673  1
  Fe  Fe19  1  0.83250431  0.16808378  0.16738683  1
  Cr  Cr20  1  0.66637881  0.00256743  0.33609565  1
  Fe  Fe21  1  0.66428495  0.33262864  0.00103369  1
  Fe  Fe22  1  0.83250476  0.49485850  0.16756931  1
  Ni  Ni23  1  0.66634754  0.33137098  0.33166064  1
  Cr  Cr24  1  0.66566663  0.66454505  0.00073536  1
  Cr  Cr25  1  0.83279062  0.83379252  0.16562586  1
  Cr  Cr26  1  0.66645961  0.66275471  0.33264284  1
  Fe  Fe27  1  0.16712923  0.16547614  0.49994230  1
  Fe  Fe28  1  0.99840296  0.00110598  0.66205919  1
  Cr  Cr29  1  0.16629714  0.16725590  0.83028336  1
  Cr  Cr30  1  0.16624845  0.49771647  0.50005765  1
  Ni  Ni31  1  0.00046251  0.33299155  0.66541256  1
  Fe  Fe32  1  0.16817010  0.49793830  0.82851125  1
  Fe  Fe33  1  0.16740151  0.83326286  0.49794569  1
  Fe  Fe34  1  0.99845452  0.66689301  0.66349215  1
  Cr  Cr35  1  0.16755808  0.83292394  0.82985367  1
  Fe  Fe36  1  0.49721853  0.16803312  0.49862185  1
  Ni  Ni37  1  0.33179825  0.00065043  0.66327799  1
  Fe  Fe38  1  0.49857501  0.16779425  0.83164724  1
  Cr  Cr39  1  0.50208689  0.49867261  0.49928115  1
  Fe  Fe40  1  0.33566692  0.33097171  0.66541076  1
  Fe  Fe41  1  0.49877689  0.49657001  0.82912734  1
  Fe  Fe42  1  0.49557967  0.83229397  0.49925235  1
  Fe  Fe43  1  0.33506132  0.66597227  0.66455932  1
  Cr  Cr44  1  0.50074665  0.83328667  0.83246383  1
  Fe  Fe45  1  0.83375345  0.17138837  0.50033976  1
  Cr  Cr46  1  0.66500251  0.00008867  0.66261566  1
  Cr  Cr47  1  0.83020466  0.16680960  0.83361734  1
  Fe  Fe48  1  0.83317206  0.49773863  0.50117561  1
  Ni  Ni49  1  0.66649251  0.33339789  0.66521264  1
  Cr  Cr50  1  0.83197022  0.49850837  0.82875465  1
  Fe  Fe51  1  0.83436889  0.82997540  0.49937786  1
  Ni  Ni52  1  0.66720836  0.66613964  0.66482982  1
  Fe  Fe53  1  0.83264757  0.83303209  0.83001615  1
" 