6387,Ni23Fe77_9,-242.916258393995, 211.540545637712,Ni23Fe77,"# generated using pymatgen
 data_Fe2Ni7
_symmetry_space_group_name_H-M   'P 1'
_cell_length_a   7.42017807
_cell_length_b   7.42017807
_cell_length_c   10.49371646
_cell_angle_alpha   90.00000000
_cell_angle_beta   90.00000000
_cell_angle_gamma   90.00000000
_symmetry_Int_Tables_number   1
_chemical_formula_structural   Fe2Ni7
_chemical_formula_sum   'Fe12 Ni42'
_cell_volume   577.77398145
_cell_formula_units_Z   6
loop_
 _symmetry_equiv_pos_site_id
 _symmetry_equiv_pos_as_xyz
  1  'x, y, z'
loop_
 _atom_site_type_symbol
 _atom_site_label
 _atom_site_symmetry_multiplicity
 _atom_site_fract_x
 _atom_site_fract_y
 _atom_site_fract_z
 _atom_site_occupancy
  Ni  Ni0  1  0.00360529  1.00199372  0.00373212  1
  Ni  Ni1  1  0.16950520  0.16983370  0.16866579  1
  Fe  Fe2  1  0.00322854  0.00329255  0.33655477  1
  Fe  Fe3  1  1.00265089  0.33598632  1.00315076  1
  Ni  Ni4  1  0.16976187  0.50340658  0.17078805  1
  Fe  Fe5  1  1.00290552  0.33667774  0.33681474  1
  Ni  Ni6  1  1.00249494  0.67049670  0.00325506  1
  Ni  Ni7  1  0.17092312  0.83623480  0.16956658  1
  Ni  Ni8  1  1.00299068  0.66979328  0.33653130  1
  Ni  Ni9  1  0.33595701  0.00467462  0.00353888  1
  Ni  Ni10  1  0.50325113  0.16921622  0.17043669  1
  Ni  Ni11  1  0.33651851  0.00402675  0.33610486  1
  Ni  Ni12  1  0.33707335  0.33546114  0.00368299  1
  Ni  Ni13  1  0.50296010  0.50399141  0.16912324  1
  Ni  Ni14  1  0.33685182  0.33594676  0.33635514  1
  Fe  Fe15  1  0.33693196  0.67033174  0.00359308  1
  Ni  Ni16  1  0.50242011  0.83626886  0.16959711  1
  Ni  Ni17  1  0.33540880  0.66950211  0.33555607  1
  Ni  Ni18  1  0.66991278  0.00351996  0.00351993  1
  Ni  Ni19  1  0.83671623  0.17037355  0.16978503  1
  Ni  Ni20  1  0.66959455  0.00369891  0.33591513  1
  Ni  Ni21  1  0.66875369  0.33657225  0.00353894  1
  Ni  Ni22  1  0.83675264  0.50257202  0.16934202  1
  Ni  Ni23  1  0.66930233  0.33631713  0.33620815  1
  Ni  Ni24  1  0.67143604  0.66938107  0.00383030  1
  Fe  Fe25  1  0.83650701  0.83610660  0.16944091  1
  Ni  Ni26  1  0.67107278  0.66945882  0.33619510  1
  Ni  Ni27  1  0.16905106  0.17015449  0.50403228  1
  Ni  Ni28  1  1.00312040  1.00279154  0.66957602  1
  Fe  Fe29  1  0.17021053  0.16906155  0.83610257  1
  Fe  Fe30  1  0.16950182  0.50341481  0.50361432  1
  Ni  Ni31  1  0.00319048  0.33671976  0.67005721  1
  Ni  Ni32  1  0.16982191  0.50308719  0.83588130  1
  Fe  Fe33  1  0.16943658  0.83630331  0.50283603  1
  Ni  Ni34  1  1.00282824  0.66996425  0.66969031  1
  Fe  Fe35  1  0.16943765  0.83718887  0.83681310  1
  Fe  Fe36  1  0.50411172  0.16988959  0.50316149  1
  Ni  Ni37  1  0.33623619  0.00373544  0.66982774  1
  Ni  Ni38  1  0.50367621  0.16879062  0.83561696  1
  Ni  Ni39  1  0.50305852  0.50467772  0.50389326  1
  Ni  Ni40  1  0.33649553  0.33610345  0.66943571  1
  Fe  Fe41  1  0.50385562  0.50277093  0.83617004  1
  Ni  Ni42  1  0.50338216  0.83530044  0.50366856  1
  Ni  Ni43  1  0.33590919  0.66963555  0.66998857  1
  Ni  Ni44  1  0.50370883  0.83697328  0.83620796  1
  Ni  Ni45  1  0.83790623  0.16982772  0.50380791  1
  Ni  Ni46  1  0.67011865  0.00337678  0.67003740  1
  Ni  Ni47  1  0.83627539  0.16908202  0.83588396  1
  Ni  Ni48  1  0.83620445  0.50318462  0.50432367  1
  Ni  Ni49  1  0.66979095  0.33639288  0.66972756  1
  Fe  Fe50  1  0.83579423  0.50354450  0.83630391  1
  Ni  Ni51  1  0.83554986  0.83646265  0.50322617  1
  Ni  Ni52  1  0.67073333  0.66970480  0.66944953  1
  Ni  Ni53  1  0.83565284  0.83727137  0.83638915  1
" 