7509,Ni23Fe60Cr16_17,-229.487375468824, 185.409562621961,Ni23Fe60Cr16,"# generated using pymatgen
 data_Cr5(Fe8Ni3)2
_symmetry_space_group_name_H-M   'P 1'
_cell_length_a   7.44704679
_cell_length_b   7.44704679
_cell_length_c   10.53171457
_cell_angle_alpha   90.00000000
_cell_angle_beta   90.00000000
_cell_angle_gamma   90.00000000
_symmetry_Int_Tables_number   1
_chemical_formula_structural   Cr5(Fe8Ni3)2
_chemical_formula_sum   'Cr10 Fe32 Ni12'
_cell_volume   584.07315478
_cell_formula_units_Z   2
loop_
 _symmetry_equiv_pos_site_id
 _symmetry_equiv_pos_as_xyz
  1  'x, y, z'
loop_
 _atom_site_type_symbol
 _atom_site_label
 _atom_site_symmetry_multiplicity
 _atom_site_fract_x
 _atom_site_fract_y
 _atom_site_fract_z
 _atom_site_occupancy
  Cr  Cr0  1  1.00090100  0.99955271  0.00172568  1
  Cr  Cr1  1  0.16803145  0.16705788  0.16797623  1
  Fe  Fe2  1  0.99996659  1.00015263  0.33441949  1
  Fe  Fe3  1  1.00011859  0.33702472  1.00080813  1
  Cr  Cr4  1  0.16665437  0.50282547  0.16670266  1
  Fe  Fe5  1  0.99815455  0.33543421  0.33539163  1
  Fe  Fe6  1  0.99920799  0.66732276  1.00074139  1
  Ni  Ni7  1  0.17004067  0.83374899  0.16915345  1
  Fe  Fe8  1  1.00059272  0.66844320  0.33531836  1
  Fe  Fe9  1  0.33811975  1.00005311  1.00091975  1
  Ni  Ni10  1  0.50270568  0.16575324  0.16786544  1
  Fe  Fe11  1  0.33546770  1.00085366  0.33372692  1
  Fe  Fe12  1  0.33510948  0.33347612  1.00088677  1
  Fe  Fe13  1  0.50249443  0.50155788  0.16828116  1
  Fe  Fe14  1  0.33732283  0.33477286  0.33538816  1
  Fe  Fe15  1  0.33564647  0.67050090  1.00128754  1
  Fe  Fe16  1  0.50198818  0.83517891  0.16702477  1
  Fe  Fe17  1  0.33418262  0.66839892  0.33447589  1
  Ni  Ni18  1  0.66587285  0.99928661  0.00257473  1
  Ni  Ni19  1  0.83250354  0.16876093  0.17009179  1
  Fe  Fe20  1  0.66859344  0.00329391  0.33411762  1
  Cr  Cr21  1  0.66722489  0.33468098  0.00422943  1
  Ni  Ni22  1  0.83401369  0.50179380  0.16740741  1
  Fe  Fe23  1  0.66855041  0.33414938  0.33454784  1
  Ni  Ni24  1  0.66869612  0.66949451  0.00193865  1
  Fe  Fe25  1  0.83390356  0.83457617  0.16809576  1
  Fe  Fe26  1  0.66925297  0.66658544  0.33356124  1
  Cr  Cr27  1  0.16769785  0.16812658  0.50034968  1
  Cr  Cr28  1  1.00027060  1.00022058  0.66684043  1
  Fe  Fe29  1  0.17084654  0.16972820  0.83464574  1
  Fe  Fe30  1  0.16839808  0.50111867  0.50056660  1
  Fe  Fe31  1  0.99999127  0.33585193  0.66782197  1
  Fe  Fe32  1  0.16717958  0.50082520  0.83544108  1
  Fe  Fe33  1  0.16747657  0.83379200  0.49936137  1
  Cr  Cr34  1  1.00131137  0.66749232  0.66816601  1
  Fe  Fe35  1  0.17009475  0.83347150  0.83578682  1
  Ni  Ni36  1  0.50278101  0.16814571  0.50292531  1
  Fe  Fe37  1  0.33689516  1.00111957  0.66938887  1
  Fe  Fe38  1  0.50020599  0.16534298  0.83394304  1
  Fe  Fe39  1  0.50204583  0.49880403  0.50147810  1
  Fe  Fe40  1  0.33507221  0.33382258  0.66774705  1
  Cr  Cr41  1  0.50230573  0.50447133  0.83354562  1
  Cr  Cr42  1  0.50077953  0.83496473  0.50265150  1
  Fe  Fe43  1  0.33514767  0.66909121  0.66826600  1
  Ni  Ni44  1  0.50044188  0.83600654  0.83522964  1
  Ni  Ni45  1  0.83314808  0.17012845  0.50051733  1
  Ni  Ni46  1  0.66619386  0.00259215  0.66806755  1
  Cr  Cr47  1  0.83460237  0.16974015  0.83359443  1
  Ni  Ni48  1  0.83471589  0.49998916  0.50160449  1
  Fe  Fe49  1  0.66896961  0.33410810  0.66609394  1
  Ni  Ni50  1  0.83709790  0.50250042  0.83502233  1
  Fe  Fe51  1  0.83405572  0.83570552  0.50036361  1
  Fe  Fe52  1  0.66849278  0.66841457  0.66887051  1
  Fe  Fe53  1  0.83098058  0.83221085  0.83556802  1
" 