7576,Ni23Fe43Cr33_2,-224.780787215301, 186.732033442577,Ni23Fe43Cr33,"# generated using pymatgen
 data_Cr19Fe23Ni12
_symmetry_space_group_name_H-M   'P 1'
_cell_length_a   7.47752913
_cell_length_b   7.47752913
_cell_length_c   10.57482311
_cell_angle_alpha   90.00000000
_cell_angle_beta   90.00000000
_cell_angle_gamma   90.00000000
_symmetry_Int_Tables_number   1
_chemical_formula_structural   Cr19Fe23Ni12
_chemical_formula_sum   'Cr19 Fe23 Ni12'
_cell_volume   591.27475811
_cell_formula_units_Z   1
loop_
 _symmetry_equiv_pos_site_id
 _symmetry_equiv_pos_as_xyz
  1  'x, y, z'
loop_
 _atom_site_type_symbol
 _atom_site_label
 _atom_site_symmetry_multiplicity
 _atom_site_fract_x
 _atom_site_fract_y
 _atom_site_fract_z
 _atom_site_occupancy
  Fe  Fe0  1  -0.00026171  -0.00060083  0.00082850  1
  Cr  Cr1  1  0.16740154  0.16698544  0.16538954  1
  Ni  Ni2  1  0.99901383  0.99924360  0.33064625  1
  Ni  Ni3  1  0.99883459  0.33461563  0.99629162  1
  Cr  Cr4  1  0.16668020  0.49946835  0.16580681  1
  Cr  Cr5  1  0.99854757  0.33342133  0.33672889  1
  Fe  Fe6  1  0.99694921  0.66553314  -0.00043525  1
  Ni  Ni7  1  0.15905036  0.83224137  0.16501586  1
  Fe  Fe8  1  0.99658996  0.66764173  0.33161128  1
  Cr  Cr9  1  0.33270669  0.99732096  0.99714986  1
  Ni  Ni10  1  0.50018083  0.16685427  0.16727885  1
  Cr  Cr11  1  0.33219194  0.99755930  0.33257224  1
  Fe  Fe12  1  0.33206231  0.33062529  0.99601564  1
  Cr  Cr13  1  0.49831384  0.49687700  0.16461229  1
  Fe  Fe14  1  0.33163613  0.33182285  0.33419383  1
  Cr  Cr15  1  0.33245984  0.66914993  0.99548128  1
  Fe  Fe16  1  0.50006139  0.83264652  0.16642438  1
  Cr  Cr17  1  0.33212461  0.66870282  0.33425560  1
  Cr  Cr18  1  0.66447527  0.99862384  0.00283282  1
  Fe  Fe19  1  0.83459677  0.16397701  0.16585778  1
  Fe  Fe20  1  0.66769287  0.99656198  0.32905184  1
  Cr  Cr21  1  0.66909401  0.33298766  0.99741403  1
  Fe  Fe22  1  0.83418437  0.50210930  0.16412550  1
  Cr  Cr23  1  0.66991246  0.33328609  0.33170071  1
  Fe  Fe24  1  0.66829937  0.66621379  -0.00053242  1
  Ni  Ni25  1  0.83385695  0.83133586  0.16707846  1
  Ni  Ni26  1  0.66758435  0.66769917  0.33144754  1
  Ni  Ni27  1  0.16535706  0.16717288  0.49960555  1
  Fe  Fe28  1  0.00346438  0.00101427  0.66622255  1
  Ni  Ni29  1  0.16660491  0.16661931  0.83296041  1
  Ni  Ni30  1  0.16512791  0.49907289  0.49967231  1
  Fe  Fe31  1  0.00009277  0.33469589  0.66655824  1
  Fe  Fe32  1  0.16373652  0.49835183  0.83267076  1
  Cr  Cr33  1  0.16281540  0.83271281  0.50082433  1
  Fe  Fe34  1  0.00057206  0.66209764  0.66673217  1
  Fe  Fe35  1  0.16581470  0.83420013  0.83086989  1
  Cr  Cr36  1  0.49884921  0.16521573  0.49880477  1
  Fe  Fe37  1  0.33203383  0.99869922  0.66832644  1
  Ni  Ni38  1  0.49678892  0.16606264  0.83160462  1
  Cr  Cr39  1  0.49888786  0.50041014  0.49913831  1
  Cr  Cr40  1  0.32994795  0.33232072  0.66705484  1
  Fe  Fe41  1  0.50107755  0.49939238  0.83167069  1
  Fe  Fe42  1  0.49987336  0.83259396  0.50195851  1
  Fe  Fe43  1  0.33198694  0.66708133  0.66746050  1
  Ni  Ni44  1  0.49988235  0.83113735  0.82910604  1
  Cr  Cr45  1  0.83324937  0.16211533  0.50230264  1
  Fe  Fe46  1  0.66210387  0.99863434  0.66809691  1
  Cr  Cr47  1  0.83459222  0.16515038  0.83111420  1
  Fe  Fe48  1  0.83473165  0.50064169  0.50194087  1
  Fe  Fe49  1  0.66689194  0.33445903  0.66826848  1
  Ni  Ni50  1  0.83341393  0.50156987  0.83145864  1
  Cr  Cr51  1  0.83104671  0.83205243  0.49939917  1
  Fe  Fe52  1  0.66512520  0.66463042  0.66669788  1
  Cr  Cr53  1  0.83384503  0.83114513  0.83278966  1
" 