5387,Ni23Fe19Cr57_13,-216.314813283425, 174.742710434224,Ni23Fe19Cr57,"# generated using pymatgen
 data_Cr16Fe5Ni6
_symmetry_space_group_name_H-M   'P 1'
_cell_length_a   7.52431416
_cell_length_b   7.52431416
_cell_length_c   10.64098714
_cell_angle_alpha   90.00000000
_cell_angle_beta   90.00000000
_cell_angle_gamma   90.00000000
_symmetry_Int_Tables_number   1
_chemical_formula_structural   Cr16Fe5Ni6
_chemical_formula_sum   'Cr32 Fe10 Ni12'
_cell_volume   602.44271782
_cell_formula_units_Z   2
loop_
 _symmetry_equiv_pos_site_id
 _symmetry_equiv_pos_as_xyz
  1  'x, y, z'
loop_
 _atom_site_type_symbol
 _atom_site_label
 _atom_site_symmetry_multiplicity
 _atom_site_fract_x
 _atom_site_fract_y
 _atom_site_fract_z
 _atom_site_occupancy
  Cr  Cr0  1  -0.00205967  0.99492552  0.99574557  1
  Cr  Cr1  1  0.16650871  0.16190810  0.16510180  1
  Cr  Cr2  1  -0.00356366  -0.00378934  0.33002507  1
  Cr  Cr3  1  0.99431080  0.33089271  -0.00185498  1
  Cr  Cr4  1  0.16429189  0.49672767  0.16166985  1
  Cr  Cr5  1  0.99566745  0.33042512  0.33033943  1
  Ni  Ni6  1  0.00020207  0.66350767  -0.00244863  1
  Ni  Ni7  1  0.16449601  0.82864001  0.16107258  1
  Cr  Cr8  1  -0.00236878  0.66206870  0.32851228  1
  Cr  Cr9  1  0.33178400  0.99296944  -0.00309111  1
  Ni  Ni10  1  0.49453818  0.16224303  0.16356407  1
  Fe  Fe11  1  0.33132899  0.99533338  0.32711904  1
  Fe  Fe12  1  0.33100884  0.32967311  -0.00354537  1
  Cr  Cr13  1  0.49562748  0.49634612  0.16344515  1
  Ni  Ni14  1  0.33088405  0.33005354  0.32971196  1
  Ni  Ni15  1  0.32778210  0.66519374  0.99594141  1
  Ni  Ni16  1  0.49484689  0.83002161  0.16427221  1
  Cr  Cr17  1  0.33084554  0.66398056  0.33024020  1
  Cr  Cr18  1  0.65935905  -0.00218759  0.99585158  1
  Fe  Fe19  1  0.82852368  0.16125022  0.16348177  1
  Cr  Cr20  1  0.66072789  0.99578884  0.32901206  1
  Cr  Cr21  1  0.66175671  0.32714939  -0.00185734  1
  Fe  Fe22  1  0.82877420  0.49817219  0.16319415  1
  Cr  Cr23  1  0.66285513  0.32988606  0.32720232  1
  Cr  Cr24  1  0.65963656  0.66331233  -0.00216783  1
  Cr  Cr25  1  0.82938241  0.82692892  0.16350808  1
  Ni  Ni26  1  0.66036609  0.66411038  0.33077301  1
  Cr  Cr27  1  0.16562499  0.16381829  0.49526570  1
  Cr  Cr28  1  0.99617434  -0.00363095  0.66202106  1
  Cr  Cr29  1  0.16619284  0.16366264  0.82852974  1
  Fe  Fe30  1  0.16682017  0.49514838  0.49668857  1
  Cr  Cr31  1  -0.00330734  0.32989404  0.66033038  1
  Cr  Cr32  1  0.16530385  0.49704235  0.82992046  1
  Cr  Cr33  1  0.16410943  0.83002442  0.49554704  1
  Cr  Cr34  1  -0.00078791  0.66266963  0.66229431  1
  Fe  Fe35  1  0.16538002  0.82707234  0.83056581  1
  Cr  Cr36  1  0.49385571  0.16414041  0.49530840  1
  Cr  Cr37  1  0.33120437  0.99321834  0.66501585  1
  Ni  Ni38  1  0.49309482  0.16346357  0.82984326  1
  Fe  Fe39  1  0.49421143  0.49706621  0.49667969  1
  Ni  Ni40  1  0.33099630  0.33187964  0.66226223  1
  Cr  Cr41  1  0.49474443  0.49622566  0.82813815  1
  Fe  Fe42  1  0.49818869  0.82761927  0.49617611  1
  Ni  Ni43  1  0.33226031  0.66190115  0.66190197  1
  Fe  Fe44  1  0.49489196  0.82730179  0.82951746  1
  Ni  Ni45  1  0.82818133  0.16194848  0.49580356  1
  Cr  Cr46  1  0.66107860  0.99573681  0.66347959  1
  Cr  Cr47  1  0.82866759  0.16174068  0.82888657  1
  Cr  Cr48  1  0.82539357  0.50001385  0.49608939  1
  Cr  Cr49  1  0.66196044  0.32931469  0.66352195  1
  Cr  Cr50  1  0.82842540  0.49990985  0.83156791  1
  Fe  Fe51  1  0.82652354  0.83023427  0.49601001  1
  Ni  Ni52  1  0.65838360  0.66462783  0.66028111  1
  Cr  Cr53  1  0.82942148  0.82693152  0.82804198  1
" 