2451,Ni23Fe60Cr16_12,-229.511213971003, 186.638978418172,Ni23Fe60Cr16,"# generated using pymatgen
 data_Cr5(Fe8Ni3)2
_symmetry_space_group_name_H-M   'P 1'
_cell_length_a   7.44073031
_cell_length_b   7.44073031
_cell_length_c   10.52278172
_cell_angle_alpha   90.00000000
_cell_angle_beta   90.00000000
_cell_angle_gamma   90.00000000
_symmetry_Int_Tables_number   1
_chemical_formula_structural   Cr5(Fe8Ni3)2
_chemical_formula_sum   'Cr10 Fe32 Ni12'
_cell_volume   582.58820717
_cell_formula_units_Z   2
loop_
 _symmetry_equiv_pos_site_id
 _symmetry_equiv_pos_as_xyz
  1  'x, y, z'
loop_
 _atom_site_type_symbol
 _atom_site_label
 _atom_site_symmetry_multiplicity
 _atom_site_fract_x
 _atom_site_fract_y
 _atom_site_fract_z
 _atom_site_occupancy
  Fe  Fe0  1  0.00257714  1.00064495  1.00078777  1
  Fe  Fe1  1  0.16849812  0.16873522  0.16780343  1
  Fe  Fe2  1  1.00087001  0.00218620  0.33539693  1
  Fe  Fe3  1  0.00464579  0.33487100  1.00172042  1
  Fe  Fe4  1  0.16821088  0.50190189  0.16668295  1
  Fe  Fe5  1  0.99967722  0.33568247  0.33570759  1
  Fe  Fe6  1  0.00311418  0.66966205  0.00190369  1
  Fe  Fe7  1  0.16840433  0.83475679  0.16762099  1
  Cr  Cr8  1  1.00067236  0.66929169  0.33651917  1
  Cr  Cr9  1  0.33539354  0.00329587  0.00231766  1
  Fe  Fe10  1  0.50368787  0.16859284  0.16749990  1
  Fe  Fe11  1  0.33641143  0.99943392  0.33464755  1
  Ni  Ni12  1  0.33553990  0.33628087  1.00153376  1
  Fe  Fe13  1  0.50337223  0.50191413  0.16674290  1
  Cr  Cr14  1  0.33738929  0.33480182  0.33258614  1
  Ni  Ni15  1  0.33370403  0.66745010  0.00189990  1
  Fe  Fe16  1  0.50299065  0.83468313  0.16814082  1
  Fe  Fe17  1  0.33759506  0.66937190  0.33339370  1
  Ni  Ni18  1  0.66913851  1.00088730  1.00049681  1
  Cr  Cr19  1  0.83480429  0.16918421  0.16842928  1
  Fe  Fe20  1  0.66770345  1.00125475  0.33526271  1
  Ni  Ni21  1  0.66607503  0.33484834  0.00232325  1
  Fe  Fe22  1  0.83325649  0.50212433  0.16812192  1
  Ni  Ni23  1  0.66821268  0.33568716  0.33670191  1
  Fe  Fe24  1  0.66535539  0.66894325  0.00229205  1
  Fe  Fe25  1  0.83365627  0.83478992  0.16778143  1
  Fe  Fe26  1  0.66660638  0.66734647  0.33599305  1
  Cr  Cr27  1  0.16871610  0.16775314  0.50079975  1
  Cr  Cr28  1  0.00239498  0.99952921  0.66872067  1
  Ni  Ni29  1  0.16969620  0.16890357  0.83581659  1
  Cr  Cr30  1  0.16930270  0.50282367  0.50514932  1
  Ni  Ni31  1  1.00115408  0.33633643  0.66749048  1
  Fe  Fe32  1  0.16921340  0.50144301  0.83455943  1
  Fe  Fe33  1  0.16912491  0.83427158  0.50290333  1
  Ni  Ni34  1  1.00091234  0.66830657  0.66891430  1
  Ni  Ni35  1  0.17073622  0.83391007  0.83451000  1
  Fe  Fe36  1  0.50458070  0.16761400  0.50250431  1
  Ni  Ni37  1  0.33697879  0.00241645  0.66852146  1
  Fe  Fe38  1  0.50076396  0.16896378  0.83497890  1
  Fe  Fe39  1  0.50317570  0.50191793  0.50137076  1
  Fe  Fe40  1  0.33529169  0.33414970  0.67099944  1
  Fe  Fe41  1  0.49879426  0.50096701  0.83655566  1
  Fe  Fe42  1  0.50060789  0.83556014  0.50130440  1
  Fe  Fe43  1  0.33408920  0.67037052  0.67076020  1
  Fe  Fe44  1  0.50101319  0.83574524  0.83546839  1
  Fe  Fe45  1  0.83329664  0.16933611  0.50124064  1
  Fe  Fe46  1  0.66734110  0.00189663  0.66799266  1
  Cr  Cr47  1  0.83457504  0.16894626  0.83437028  1
  Ni  Ni48  1  0.83361236  0.50128381  0.50070307  1
  Fe  Fe49  1  0.66816754  0.33404839  0.66666491  1
  Cr  Cr50  1  0.83483374  0.50148529  0.83705442  1
  Ni  Ni51  1  0.83256893  0.83559096  0.50127735  1
  Cr  Cr52  1  0.67016981  0.66822081  0.66820680  1
  Fe  Fe53  1  0.83682295  0.83508412  0.83635178  1
" 