7614,Ni23Fe19Cr57_0,-216.08791210395, 167.3604569625,Ni23Fe19Cr57,"# generated using pymatgen
 data_Cr16Fe5Ni6
_symmetry_space_group_name_H-M   'P 1'
_cell_length_a   7.52948771
_cell_length_b   7.52948771
_cell_length_c   10.64830363
_cell_angle_alpha   90.00000000
_cell_angle_beta   90.00000000
_cell_angle_gamma   90.00000000
_symmetry_Int_Tables_number   1
_chemical_formula_structural   Cr16Fe5Ni6
_chemical_formula_sum   'Cr32 Fe10 Ni12'
_cell_volume   603.68624948
_cell_formula_units_Z   2
loop_
 _symmetry_equiv_pos_site_id
 _symmetry_equiv_pos_as_xyz
  1  'x, y, z'
loop_
 _atom_site_type_symbol
 _atom_site_label
 _atom_site_symmetry_multiplicity
 _atom_site_fract_x
 _atom_site_fract_y
 _atom_site_fract_z
 _atom_site_occupancy
  Ni  Ni0  1  -0.00123891  -0.00400617  0.99531394  1
  Cr  Cr1  1  0.16203802  0.16024815  0.16538479  1
  Fe  Fe2  1  -0.00223777  -0.00392698  0.32917092  1
  Fe  Fe3  1  -0.00268644  0.32633435  0.99487074  1
  Cr  Cr4  1  0.16185964  0.49506753  0.16411375  1
  Ni  Ni5  1  -0.00139173  0.32658744  0.32980864  1
  Cr  Cr6  1  -0.00044672  0.66469175  -0.00357131  1
  Ni  Ni7  1  0.16295060  0.83256444  0.16184311  1
  Cr  Cr8  1  -0.00392066  0.66419887  0.32755060  1
  Fe  Fe9  1  0.32699734  -0.00395059  0.99414944  1
  Cr  Cr10  1  0.49413457  0.16023720  0.16174588  1
  Ni  Ni11  1  0.32582278  -0.00295625  0.32862673  1
  Cr  Cr12  1  0.32935251  0.32742717  0.99215478  1
  Cr  Cr13  1  0.49470387  0.49555136  0.16412646  1
  Fe  Fe14  1  0.32701138  0.32661506  0.33039138  1
  Cr  Cr15  1  0.32546679  0.66389682  0.99423259  1
  Cr  Cr16  1  0.49294713  0.83172097  0.16168632  1
  Cr  Cr17  1  0.32781194  0.66563962  0.32826068  1
  Ni  Ni18  1  0.66315380  -0.00164322  0.99468792  1
  Cr  Cr19  1  0.83141191  0.16200679  0.16018404  1
  Cr  Cr20  1  0.66211303  0.99575551  0.33101033  1
  Cr  Cr21  1  0.66148650  0.32608052  0.99578185  1
  Cr  Cr22  1  0.83102433  0.49380141  0.16285128  1
  Cr  Cr23  1  0.66360030  0.32796716  0.32692096  1
  Cr  Cr24  1  0.66248036  0.66208085  -0.00357908  1
  Cr  Cr25  1  0.83094441  0.83166329  0.16044564  1
  Cr  Cr26  1  0.66374180  0.66373332  0.33135043  1
  Fe  Fe27  1  0.16185507  0.16303150  0.49534409  1
  Fe  Fe28  1  -0.00411515  -0.00356239  0.66393207  1
  Ni  Ni29  1  0.16380252  0.16288759  0.82791381  1
  Cr  Cr30  1  0.16322189  0.49122190  0.49567117  1
  Fe  Fe31  1  -0.00109617  0.32694069  0.66298358  1
  Fe  Fe32  1  0.16362543  0.49311437  0.82795020  1
  Cr  Cr33  1  0.16204800  0.83251787  0.49436621  1
  Cr  Cr34  1  -0.00401276  0.66447216  0.66350292  1
  Ni  Ni35  1  0.16261856  0.83217264  0.83155445  1
  Cr  Cr36  1  0.49223410  0.16133297  0.49517285  1
  Cr  Cr37  1  0.32821103  -0.00116359  0.66404758  1
  Ni  Ni38  1  0.49310492  0.16254980  0.82948586  1
  Cr  Cr39  1  0.49418047  0.49675211  0.49669501  1
  Ni  Ni40  1  0.32647571  0.32729067  0.66423547  1
  Fe  Fe41  1  0.49401223  0.49417400  0.82705904  1
  Fe  Fe42  1  0.49840744  0.83022379  0.49723577  1
  Cr  Cr43  1  0.32866173  0.66135027  0.66515864  1
  Cr  Cr44  1  0.49645369  0.83107215  0.82871741  1
  Cr  Cr45  1  0.83297010  0.16005296  0.49719214  1
  Ni  Ni46  1  0.66341481  0.99429422  0.66158687  1
  Cr  Cr47  1  0.83035239  0.16066182  0.83021530  1
  Cr  Cr48  1  0.83012999  0.49691391  0.49615356  1
  Cr  Cr49  1  0.66000491  0.32726676  0.66479691  1
  Cr  Cr50  1  0.83007156  0.49559832  0.82860530  1
  Ni  Ni51  1  0.82801384  0.83119970  0.49860706  1
  Ni  Ni52  1  0.66334571  0.66529358  0.66054937  1
  Cr  Cr53  1  0.82897317  0.83104984  0.82785055  1
" 