717,Ni23Fe19Cr57_9,-216.253003032833, 168.163280888062,Ni23Fe19Cr57,"# generated using pymatgen
 data_Cr16Fe5Ni6
_symmetry_space_group_name_H-M   'P 1'
_cell_length_a   7.52738564
_cell_length_b   7.52738564
_cell_length_c   10.64533087
_cell_angle_alpha   90.00000000
_cell_angle_beta   90.00000000
_cell_angle_gamma   90.00000000
_symmetry_Int_Tables_number   1
_chemical_formula_structural   Cr16Fe5Ni6
_chemical_formula_sum   'Cr32 Fe10 Ni12'
_cell_volume   603.18078335
_cell_formula_units_Z   2
loop_
 _symmetry_equiv_pos_site_id
 _symmetry_equiv_pos_as_xyz
  1  'x, y, z'
loop_
 _atom_site_type_symbol
 _atom_site_label
 _atom_site_symmetry_multiplicity
 _atom_site_fract_x
 _atom_site_fract_y
 _atom_site_fract_z
 _atom_site_occupancy
  Fe  Fe0  1  0.99547880  0.99572104  -0.00307169  1
  Cr  Cr1  1  0.16350250  0.16330145  0.16039568  1
  Cr  Cr2  1  0.99371578  -0.00045264  0.32630730  1
  Cr  Cr3  1  0.99408163  0.32792594  -0.00263598  1
  Fe  Fe4  1  0.16336846  0.49464534  0.16245988  1
  Ni  Ni5  1  0.99249937  0.33144137  0.32954591  1
  Cr  Cr6  1  0.99484339  0.66248421  -0.00270279  1
  Cr  Cr7  1  0.16336451  0.82871654  0.16163349  1
  Fe  Fe8  1  0.99410394  0.66147424  0.32891902  1
  Ni  Ni9  1  0.33230755  0.99560222  0.99551758  1
  Cr  Cr10  1  0.49786628  0.16204866  0.16254676  1
  Cr  Cr11  1  0.33107617  0.99466159  0.33000094  1
  Ni  Ni12  1  0.33074700  0.32972832  -0.00294780  1
  Ni  Ni13  1  0.49784043  0.49702002  0.16001941  1
  Cr  Cr14  1  0.32848749  0.33086838  0.32726223  1
  Cr  Cr15  1  0.33211033  0.66208889  -0.00365958  1
  Ni  Ni16  1  0.49852465  0.82810815  0.16159676  1
  Cr  Cr17  1  0.33219961  0.66206419  0.32563995  1
  Ni  Ni18  1  0.66156369  0.99477595  -0.00232524  1
  Ni  Ni19  1  0.82717284  0.16342421  0.16154965  1
  Ni  Ni20  1  0.66443216  0.99449117  0.32755017  1
  Fe  Fe21  1  0.66016805  0.33045748  -0.00277011  1
  Cr  Cr22  1  0.82732933  0.49684715  0.16459239  1
  Fe  Fe23  1  0.66403029  0.32919610  0.32761372  1
  Ni  Ni24  1  0.66020717  0.66385736  0.99590689  1
  Cr  Cr25  1  0.82604497  0.82962505  0.16226356  1
  Ni  Ni26  1  0.66300693  0.66186344  0.32778236  1
  Cr  Cr27  1  0.16274110  0.16460685  0.49707955  1
  Cr  Cr28  1  0.99454451  0.99580376  0.66506966  1
  Cr  Cr29  1  0.16466118  0.16261579  0.83068543  1
  Cr  Cr30  1  0.15950577  0.49679848  0.49531947  1
  Fe  Fe31  1  0.99428669  0.33069608  0.66221998  1
  Cr  Cr32  1  0.16260554  0.49611500  0.82904801  1
  Cr  Cr33  1  0.16047654  0.82690006  0.49621033  1
  Ni  Ni34  1  0.99492125  0.66119482  0.66135115  1
  Fe  Fe35  1  0.16259661  0.82983775  0.83075856  1
  Cr  Cr36  1  0.49812035  0.16188729  0.49464791  1
  Cr  Cr37  1  0.33106195  0.99422379  0.66197386  1
  Cr  Cr38  1  0.49625842  0.16236462  0.83066607  1
  Cr  Cr39  1  0.49796824  0.49607640  0.49486166  1
  Cr  Cr40  1  0.33042619  0.33042697  0.66293812  1
  Fe  Fe41  1  0.49731098  0.49517382  0.83280829  1
  Cr  Cr42  1  0.49932800  0.82986081  0.49458355  1
  Cr  Cr43  1  0.33044827  0.66357472  0.66602728  1
  Fe  Fe44  1  0.49753918  0.83128349  0.83211731  1
  Cr  Cr45  1  0.82757296  0.16303951  0.49567081  1
  Ni  Ni46  1  0.66333969  0.99534363  0.66315441  1
  Cr  Cr47  1  0.82683762  0.16156372  0.83222730  1
  Fe  Fe48  1  0.82942615  0.49664573  0.49411712  1
  Cr  Cr49  1  0.66413503  0.32929467  0.66270496  1
  Cr  Cr50  1  0.82866330  0.49778559  0.82813929  1
  Cr  Cr51  1  0.82832555  0.82650286  0.49455102  1
  Cr  Cr52  1  0.66214524  0.66317809  0.66435407  1
  Cr  Cr53  1  0.82825371  0.82879321  0.83129775  1
" 