2496,Ni23Fe60Cr16_5,-229.431059145191, 183.546871731628,Ni23Fe60Cr16,"# generated using pymatgen
 data_Cr5(Fe8Ni3)2
_symmetry_space_group_name_H-M   'P 1'
_cell_length_a   7.44179972
_cell_length_b   7.44179972
_cell_length_c   10.52429410
_cell_angle_alpha   90.00000000
_cell_angle_beta   90.00000000
_cell_angle_gamma   90.00000000
_symmetry_Int_Tables_number   1
_chemical_formula_structural   Cr5(Fe8Ni3)2
_chemical_formula_sum   'Cr10 Fe32 Ni12'
_cell_volume   582.83943895
_cell_formula_units_Z   2
loop_
 _symmetry_equiv_pos_site_id
 _symmetry_equiv_pos_as_xyz
  1  'x, y, z'
loop_
 _atom_site_type_symbol
 _atom_site_label
 _atom_site_symmetry_multiplicity
 _atom_site_fract_x
 _atom_site_fract_y
 _atom_site_fract_z
 _atom_site_occupancy
  Fe  Fe0  1  0.99959455  1.00131619  0.00190872  1
  Fe  Fe1  1  0.16720346  0.16803806  0.16801802  1
  Fe  Fe2  1  1.00102699  0.00301375  0.33519465  1
  Ni  Ni3  1  1.00157289  0.33404279  0.00224561  1
  Cr  Cr4  1  0.17029583  0.50188126  0.16647269  1
  Fe  Fe5  1  1.00079102  0.33283850  0.33679353  1
  Fe  Fe6  1  0.00351673  0.66967283  1.00041486  1
  Fe  Fe7  1  0.16872521  0.83572899  0.16787552  1
  Cr  Cr8  1  1.00004188  0.66889247  0.33627920  1
  Cr  Cr9  1  0.33545234  1.00165815  1.00163762  1
  Fe  Fe10  1  0.50218315  0.16847886  0.16763106  1
  Fe  Fe11  1  0.33539004  0.99997282  0.33477115  1
  Fe  Fe12  1  0.33630059  0.33673587  0.00223050  1
  Ni  Ni13  1  0.50076951  0.50315231  0.16768644  1
  Cr  Cr14  1  0.33428480  0.33429310  0.33534719  1
  Fe  Fe15  1  0.33379615  0.66722103  1.00059590  1
  Fe  Fe16  1  0.50200210  0.83395240  0.16994607  1
  Fe  Fe17  1  0.33810203  0.66962546  0.33599799  1
  Fe  Fe18  1  0.67042474  0.00382797  1.00133358  1
  Fe  Fe19  1  0.83570156  0.16728175  0.16734949  1
  Fe  Fe20  1  0.66867449  1.00015766  0.33525029  1
  Fe  Fe21  1  0.66796405  0.33281984  1.00079168  1
  Cr  Cr22  1  0.83361483  0.50033300  0.16857320  1
  Cr  Cr23  1  0.66866630  0.33598831  0.33615573  1
  Cr  Cr24  1  0.66837689  0.66929139  1.00133942  1
  Fe  Fe25  1  0.83435693  0.83665934  0.16866764  1
  Ni  Ni26  1  0.66690379  0.67086631  0.33607502  1
  Fe  Fe27  1  0.16630311  0.16829030  0.50189042  1
  Fe  Fe28  1  0.00184217  1.00147144  0.66798262  1
  Cr  Cr29  1  0.16616568  0.16742810  0.83420658  1
  Fe  Fe30  1  0.16719583  0.50172998  0.50260937  1
  Ni  Ni31  1  0.99979030  0.33543813  0.66613280  1
  Fe  Fe32  1  0.16695440  0.50340748  0.83579013  1
  Fe  Fe33  1  0.16888753  0.83506926  0.50302977  1
  Fe  Fe34  1  1.00138382  0.66748640  0.66827795  1
  Ni  Ni35  1  0.16856620  0.83297188  0.83446272  1
  Fe  Fe36  1  0.50282122  0.16821724  0.50188610  1
  Fe  Fe37  1  0.33456014  0.99939955  0.66818955  1
  Fe  Fe38  1  0.50387598  0.16858413  0.83557831  1
  Ni  Ni39  1  0.50324618  0.50488558  0.50189699  1
  Cr  Cr40  1  0.33520384  0.33504429  0.66813571  1
  Fe  Fe41  1  0.50172792  0.50188837  0.83434142  1
  Fe  Fe42  1  0.50223022  0.83315306  0.50124169  1
  Ni  Ni43  1  0.33490733  0.67011983  0.66852898  1
  Fe  Fe44  1  0.50076961  0.83462104  0.83390329  1
  Ni  Ni45  1  0.83722573  0.16943343  0.50132986  1
  Cr  Cr46  1  0.66834290  1.00165345  0.66924337  1
  Ni  Ni47  1  0.83425338  0.16950959  0.83642296  1
  Ni  Ni48  1  0.83378106  0.50043459  0.50352593  1
  Ni  Ni49  1  0.67045220  0.33634239  0.66902161  1
  Fe  Fe50  1  0.83640777  0.50030426  0.83367060  1
  Fe  Fe51  1  0.83396795  0.83404307  0.50141480  1
  Ni  Ni52  1  0.66833032  0.66741939  0.66729667  1
  Fe  Fe53  1  0.83667760  0.83551660  0.83501024  1
" 