8222,Ni23Fe60Cr16_0,-229.124915497745, 180.93215563611,Ni23Fe60Cr16,"# generated using pymatgen
 data_Cr5(Fe8Ni3)2
_symmetry_space_group_name_H-M   'P 1'
_cell_length_a   7.44743192
_cell_length_b   7.44743192
_cell_length_c   10.53225922
_cell_angle_alpha   90.00000000
_cell_angle_beta   90.00000000
_cell_angle_gamma   90.00000000
_symmetry_Int_Tables_number   1
_chemical_formula_structural   Cr5(Fe8Ni3)2
_chemical_formula_sum   'Cr10 Fe32 Ni12'
_cell_volume   584.16377599
_cell_formula_units_Z   2
loop_
 _symmetry_equiv_pos_site_id
 _symmetry_equiv_pos_as_xyz
  1  'x, y, z'
loop_
 _atom_site_type_symbol
 _atom_site_label
 _atom_site_symmetry_multiplicity
 _atom_site_fract_x
 _atom_site_fract_y
 _atom_site_fract_z
 _atom_site_occupancy
  Fe  Fe0  1  0.00230057  0.00140697  0.00262571  1
  Ni  Ni1  1  0.16857818  0.16664133  0.16646480  1
  Ni  Ni2  1  0.00244490  0.00341443  0.33405687  1
  Fe  Fe3  1  0.00161954  0.33313239  0.00274038  1
  Fe  Fe4  1  0.16333167  0.49791479  0.16967305  1
  Ni  Ni5  1  0.00152389  0.33358358  0.33193289  1
  Fe  Fe6  1  0.99970665  0.66932765  0.00260225  1
  Fe  Fe7  1  0.16479401  0.83686342  0.16896184  1
  Ni  Ni8  1  0.00143507  0.66651428  0.33291507  1
  Ni  Ni9  1  0.33605171  1.00053436  1.00032299  1
  Ni  Ni10  1  0.50040243  0.16863515  0.16587046  1
  Cr  Cr11  1  0.33474585  0.99990839  0.33397668  1
  Fe  Fe12  1  0.33426439  0.33077147  1.00115352  1
  Cr  Cr13  1  0.50112324  0.49887537  0.16999925  1
  Fe  Fe14  1  0.33240485  0.33189941  0.33329473  1
  Cr  Cr15  1  0.33299458  0.66720217  0.00649283  1
  Fe  Fe16  1  0.50372934  0.83841899  0.16508149  1
  Fe  Fe17  1  0.33061171  0.66880139  0.33347519  1
  Ni  Ni18  1  0.66841280  0.00247991  0.00343355  1
  Ni  Ni19  1  0.83570532  0.16761437  0.16694901  1
  Cr  Cr20  1  0.66969573  0.00350249  0.33291305  1
  Fe  Fe21  1  0.66821924  0.33311877  0.00224819  1
  Ni  Ni22  1  0.83472802  0.50200871  0.16678875  1
  Fe  Fe23  1  0.67182046  0.33387756  0.33350084  1
  Fe  Fe24  1  0.66901102  0.67011749  0.00236474  1
  Ni  Ni25  1  0.83728706  0.83486536  0.16662129  1
  Cr  Cr26  1  0.66628685  0.66963489  0.33400764  1
  Ni  Ni27  1  0.16928293  0.16654980  0.50161040  1
  Cr  Cr28  1  1.00098317  0.00337243  0.66736822  1
  Fe  Fe29  1  0.16928084  0.16761053  0.83685082  1
  Cr  Cr30  1  0.16751279  0.50064511  0.49790714  1
  Cr  Cr31  1  1.00071289  0.33577524  0.66963863  1
  Fe  Fe32  1  0.16744818  0.50121752  0.83650325  1
  Ni  Ni33  1  0.16624445  0.83600951  0.50119891  1
  Fe  Fe34  1  0.99879187  0.66952873  0.66785074  1
  Fe  Fe35  1  0.16747662  0.83535219  0.83544917  1
  Fe  Fe36  1  0.49926611  0.17075832  0.50021867  1
  Fe  Fe37  1  0.33375371  0.00329313  0.66862245  1
  Fe  Fe38  1  0.50216492  0.16754684  0.83700810  1
  Fe  Fe39  1  0.50122170  0.49891071  0.50017308  1
  Fe  Fe40  1  0.33620688  0.33157218  0.66903356  1
  Fe  Fe41  1  0.50247913  0.50042875  0.83609766  1
  Fe  Fe42  1  0.49842983  0.83434930  0.50161347  1
  Cr  Cr43  1  0.33485070  0.66773902  0.66799557  1
  Fe  Fe44  1  0.50269715  0.83560838  0.83665916  1
  Fe  Fe45  1  0.83787927  0.17022049  0.49813547  1
  Cr  Cr46  1  0.66777626  0.00177231  0.66468732  1
  Fe  Fe47  1  0.83321544  0.16780588  0.83797597  1
  Fe  Fe48  1  0.83531847  0.50072112  0.49881260  1
  Fe  Fe49  1  0.66684956  0.33625573  0.66816298  1
  Fe  Fe50  1  0.83399332  0.50203715  0.83758877  1
  Fe  Fe51  1  0.83891826  0.83372091  0.49867577  1
  Fe  Fe52  1  0.67103318  0.66613764  0.66741077  1
  Fe  Fe53  1  0.83409825  0.83511093  0.83739922  1
" 