38,Ni23Fe43Cr33_11,-224.898208599603, 184.179414097928,Ni23Fe43Cr33,"# generated using pymatgen
 data_Cr19Fe23Ni12
_symmetry_space_group_name_H-M   'P 1'
_cell_length_a   7.47994813
_cell_length_b   7.47994813
_cell_length_c   10.57824409
_cell_angle_alpha   90.00000000
_cell_angle_beta   90.00000000
_cell_angle_gamma   90.00000000
_symmetry_Int_Tables_number   1
_chemical_formula_structural   Cr19Fe23Ni12
_chemical_formula_sum   'Cr19 Fe23 Ni12'
_cell_volume   591.84878021
_cell_formula_units_Z   1
loop_
 _symmetry_equiv_pos_site_id
 _symmetry_equiv_pos_as_xyz
  1  'x, y, z'
loop_
 _atom_site_type_symbol
 _atom_site_label
 _atom_site_symmetry_multiplicity
 _atom_site_fract_x
 _atom_site_fract_y
 _atom_site_fract_z
 _atom_site_occupancy
  Fe  Fe0  1  0.99748602  0.00321225  0.99811394  1
  Fe  Fe1  1  0.16414357  0.16959533  0.16332697  1
  Cr  Cr2  1  0.99843720  0.00359659  0.33388351  1
  Fe  Fe3  1  -0.00086108  0.33068255  0.99845010  1
  Fe  Fe4  1  0.16531205  0.49460052  0.16703506  1
  Ni  Ni5  1  0.00089428  0.33128667  0.33161577  1
  Cr  Cr6  1  0.99770874  0.66374082  0.99775899  1
  Cr  Cr7  1  0.16556223  0.83354737  0.16405918  1
  Ni  Ni8  1  0.00008273  0.66444765  0.33320159  1
  Fe  Fe9  1  0.33215985  0.00261898  0.99851989  1
  Cr  Cr10  1  0.50105422  0.16796661  0.16386779  1
  Cr  Cr11  1  0.33308004  0.00256919  0.33335709  1
  Ni  Ni12  1  0.33083014  0.32976119  0.99686837  1
  Cr  Cr13  1  0.49990857  0.49463519  0.16667006  1
  Fe  Fe14  1  0.33169268  0.33235661  0.33473558  1
  Cr  Cr15  1  0.33314034  0.66268236  -0.00072109  1
  Fe  Fe16  1  0.50077143  0.83511166  0.16399922  1
  Cr  Cr17  1  0.33400408  0.66525456  0.33288945  1
  Fe  Fe18  1  0.66760477  0.00165576  0.99910056  1
  Ni  Ni19  1  0.83236018  0.16715170  0.16390406  1
  Cr  Cr20  1  0.66582358  -0.00018859  0.33461464  1
  Ni  Ni21  1  0.66620526  0.33078785  0.99471535  1
  Cr  Cr22  1  0.83309963  0.49424505  0.16871818  1
  Ni  Ni23  1  0.66678128  0.33042456  0.33521519  1
  Cr  Cr24  1  0.66672693  0.66562678  0.00078504  1
  Fe  Fe25  1  0.83311859  0.83507856  0.16575922  1
  Cr  Cr26  1  0.66538006  0.66712952  0.33138692  1
  Fe  Fe27  1  0.16512364  0.17091101  0.50001506  1
  Ni  Ni28  1  0.99735178  0.00140328  0.66590042  1
  Ni  Ni29  1  0.16512711  0.16548064  0.83448509  1
  Ni  Ni30  1  0.16701906  0.49983675  0.49852830  1
  Cr  Cr31  1  0.00050797  0.33037174  0.66730126  1
  Fe  Fe32  1  0.16744302  0.49633184  0.83144875  1
  Cr  Cr33  1  0.16332421  0.83176380  0.50258012  1
  Fe  Fe34  1  0.99861616  0.66484632  0.66585378  1
  Cr  Cr35  1  0.16445639  0.83362923  0.83003029  1
  Ni  Ni36  1  0.50151748  0.16889593  0.50066781  1
  Cr  Cr37  1  0.33234103  0.00402482  0.66374564  1
  Fe  Fe38  1  0.49803574  0.16777982  0.83263308  1
  Ni  Ni39  1  0.49787072  0.49498184  0.50028861  1
  Fe  Fe40  1  0.33280722  0.33352570  0.66636628  1
  Fe  Fe41  1  0.49792479  0.49485182  0.83194646  1
  Fe  Fe42  1  0.49988587  0.83200240  0.50120820  1
  Fe  Fe43  1  0.33145128  0.66221182  0.66515820  1
  Cr  Cr44  1  0.49788018  0.83497119  0.83352879  1
  Ni  Ni45  1  0.83071627  0.16589264  0.50013911  1
  Fe  Fe46  1  0.66813003  0.00152064  0.66466324  1
  Fe  Fe47  1  0.83252934  0.16399477  0.83278758  1
  Cr  Cr48  1  0.83346628  0.49619218  0.49614356  1
  Fe  Fe49  1  0.66489571  0.32923680  0.66580356  1
  Fe  Fe50  1  0.83230061  0.49675481  0.83235536  1
  Fe  Fe51  1  0.83245010  0.83282742  0.50096184  1
  Cr  Cr52  1  0.66486257  0.66390578  0.66600626  1
  Fe  Fe53  1  0.83289167  0.83571134  0.83105633  1
" 