1728,Ni23Fe50Cr25_7,-227.043320007183, 180.531555766356,Ni23Fe50Cr25,"# generated using pymatgen
 data_Cr5Fe9Ni4
_symmetry_space_group_name_H-M   'P 1'
_cell_length_a   7.46349300
_cell_length_b   7.46349300
_cell_length_c   10.55497303
_cell_angle_alpha   90.00000000
_cell_angle_beta   90.00000000
_cell_angle_gamma   90.00000000
_symmetry_Int_Tables_number   1
_chemical_formula_structural   Cr5Fe9Ni4
_chemical_formula_sum   'Cr15 Fe27 Ni12'
_cell_volume   587.95134457
_cell_formula_units_Z   3
loop_
 _symmetry_equiv_pos_site_id
 _symmetry_equiv_pos_as_xyz
  1  'x, y, z'
loop_
 _atom_site_type_symbol
 _atom_site_label
 _atom_site_symmetry_multiplicity
 _atom_site_fract_x
 _atom_site_fract_y
 _atom_site_fract_z
 _atom_site_occupancy
  Cr  Cr0  1  0.00304088  0.00042907  0.00169787  1
  Ni  Ni1  1  0.16726162  0.16894221  0.16525689  1
  Cr  Cr2  1  0.00164846  0.00151124  0.33300287  1
  Fe  Fe3  1  0.00083526  0.33710190  0.00134604  1
  Fe  Fe4  1  0.16697077  0.50066987  0.16500196  1
  Fe  Fe5  1  0.99831447  0.33453880  0.33184209  1
  Fe  Fe6  1  0.99984005  0.66426668  0.99905447  1
  Ni  Ni7  1  0.16717734  0.83199012  0.16554150  1
  Fe  Fe8  1  0.99907698  0.66557415  0.33288253  1
  Fe  Fe9  1  0.33576139  1.00006816  0.00147812  1
  Ni  Ni10  1  0.49932435  0.16704895  0.16511746  1
  Cr  Cr11  1  0.33090320  0.00078655  0.32938048  1
  Fe  Fe12  1  0.33308554  0.33353036  0.00108900  1
  Ni  Ni13  1  0.50262146  0.50077335  0.16708251  1
  Cr  Cr14  1  0.33397587  0.33365217  0.33168177  1
  Fe  Fe15  1  0.33428766  0.66669101  0.00151006  1
  Ni  Ni16  1  0.49993680  0.83268154  0.16455228  1
  Cr  Cr17  1  0.33616116  0.66630008  0.33000595  1
  Fe  Fe18  1  0.66391427  0.99894368  0.00037958  1
  Fe  Fe19  1  0.83352388  0.16878556  0.16610240  1
  Cr  Cr20  1  0.66831935  0.99953495  0.33097976  1
  Cr  Cr21  1  0.66569197  0.33630922  0.00235012  1
  Ni  Ni22  1  0.83500409  0.49999557  0.16806162  1
  Fe  Fe23  1  0.66833054  0.33452850  0.33192250  1
  Ni  Ni24  1  0.66579589  0.66518429  0.99932092  1
  Cr  Cr25  1  0.83246620  0.82897193  0.16533399  1
  Ni  Ni26  1  0.66801106  0.66306956  0.33379547  1
  Fe  Fe27  1  0.16583077  0.16781190  0.50184954  1
  Ni  Ni28  1  0.00267527  0.00052248  0.66664884  1
  Fe  Fe29  1  0.16754950  0.16822744  0.83371495  1
  Cr  Cr30  1  0.16424673  0.50049531  0.50096307  1
  Fe  Fe31  1  0.99969536  0.33489443  0.66808046  1
  Fe  Fe32  1  0.16705334  0.49945795  0.83299591  1
  Cr  Cr33  1  0.16675256  0.83206135  0.50034160  1
  Ni  Ni34  1  0.99978109  0.66943912  0.66901940  1
  Fe  Fe35  1  0.16676146  0.83343176  0.83321517  1
  Cr  Cr36  1  0.50026369  0.16660508  0.50106069  1
  Fe  Fe37  1  0.33239733  0.99989995  0.66965110  1
  Ni  Ni38  1  0.49756286  0.16472247  0.83362481  1
  Fe  Fe39  1  0.50001657  0.50091941  0.49873386  1
  Fe  Fe40  1  0.33086041  0.33377377  0.66895123  1
  Fe  Fe41  1  0.49929969  0.49929670  0.83575554  1
  Cr  Cr42  1  0.50022380  0.83426065  0.50022276  1
  Fe  Fe43  1  0.33197523  0.66638527  0.66949451  1
  Fe  Fe44  1  0.50094198  0.83356992  0.83537066  1
  Fe  Fe45  1  0.83653089  0.16715523  0.50188415  1
  Fe  Fe46  1  0.66960581  0.99921810  0.66826438  1
  Cr  Cr47  1  0.83186984  0.16807622  0.83470074  1
  Fe  Fe48  1  0.83362329  0.50141796  0.49921112  1
  Cr  Cr49  1  0.66471589  0.33628345  0.66641453  1
  Ni  Ni50  1  0.83673876  0.50225459  0.83377986  1
  Fe  Fe51  1  0.83432277  0.83228326  0.50093589  1
  Cr  Cr52  1  0.66664306  0.66525529  0.66800392  1
  Fe  Fe53  1  0.83364070  0.83326067  0.83420025  1
" 