4636,Ni23Fe43Cr33_14,-225.089140699305, 182.88795562361,Ni23Fe43Cr33,"# generated using pymatgen
 data_Cr19Fe23Ni12
_symmetry_space_group_name_H-M   'P 1'
_cell_length_a   7.49068700
_cell_length_b   7.49068700
_cell_length_c   10.59343115
_cell_angle_alpha   90.00000000
_cell_angle_beta   90.00000000
_cell_angle_gamma   90.00000000
_symmetry_Int_Tables_number   1
_chemical_formula_structural   Cr19Fe23Ni12
_chemical_formula_sum   'Cr19 Fe23 Ni12'
_cell_volume   594.40157195
_cell_formula_units_Z   1
loop_
 _symmetry_equiv_pos_site_id
 _symmetry_equiv_pos_as_xyz
  1  'x, y, z'
loop_
 _atom_site_type_symbol
 _atom_site_label
 _atom_site_symmetry_multiplicity
 _atom_site_fract_x
 _atom_site_fract_y
 _atom_site_fract_z
 _atom_site_occupancy
  Ni  Ni0  1  0.99691261  -0.00083009  -0.00052225  1
  Cr  Cr1  1  0.16310903  0.16214886  0.16527022  1
  Fe  Fe2  1  -0.00152167  0.99653693  0.33063977  1
  Ni  Ni3  1  0.99726619  0.33213710  0.99756687  1
  Cr  Cr4  1  0.16345159  0.50172693  0.16508611  1
  Fe  Fe5  1  0.99560159  0.33285271  0.33183624  1
  Fe  Fe6  1  -0.00112774  0.66558635  0.99818589  1
  Fe  Fe7  1  0.16372029  0.83162573  0.16519715  1
  Ni  Ni8  1  0.99619511  0.66430992  0.33108304  1
  Cr  Cr9  1  0.33180448  0.99691988  -0.00106212  1
  Fe  Fe10  1  0.49978090  0.16581293  0.16590504  1
  Ni  Ni11  1  0.33301415  -0.00097434  0.33008707  1
  Cr  Cr12  1  0.33038053  0.33411097  0.99609954  1
  Fe  Fe13  1  0.49972309  0.49775589  0.16347466  1
  Cr  Cr14  1  0.33203342  0.33105998  0.33311837  1
  Ni  Ni15  1  0.33292368  0.66419438  0.99835957  1
  Fe  Fe16  1  0.49600376  0.83162719  0.16463853  1
  Cr  Cr17  1  0.33169389  0.66553151  0.33105046  1
  Cr  Cr18  1  0.66635617  0.99591575  0.99821338  1
  Fe  Fe19  1  0.83235772  0.16677457  0.16402163  1
  Cr  Cr20  1  0.66461266  0.99837773  0.33245886  1
  Fe  Fe21  1  0.66641567  0.33328720  -0.00113796  1
  Fe  Fe22  1  0.83260355  0.49674404  0.16510731  1
  Fe  Fe23  1  0.66616429  0.33206876  0.33241241  1
  Cr  Cr24  1  0.66466887  0.66528339  0.99806561  1
  Fe  Fe25  1  0.83568080  0.83166960  0.16457411  1
  Cr  Cr26  1  0.66710123  0.66484136  0.33170122  1
  Cr  Cr27  1  0.16521950  0.16494063  0.49752276  1
  Cr  Cr28  1  0.99641871  0.99738262  0.66626841  1
  Fe  Fe29  1  0.16467346  0.16648304  0.83286322  1
  Fe  Fe30  1  0.16389839  0.49961462  0.49906981  1
  Cr  Cr31  1  0.00100244  0.33457076  0.66585715  1
  Fe  Fe32  1  0.16579248  0.49954160  0.83200915  1
  Cr  Cr33  1  0.16429399  0.82961216  0.49572526  1
  Ni  Ni34  1  0.99542481  0.66290128  0.66563538  1
  Cr  Cr35  1  0.16385994  0.82973988  0.83382668  1
  Fe  Fe36  1  0.49913193  0.16661009  0.49902738  1
  Cr  Cr37  1  0.33346685  0.00016531  0.66630785  1
  Cr  Cr38  1  0.49934427  0.16842066  0.83055317  1
  Fe  Fe39  1  0.49896382  0.49768300  0.50185861  1
  Ni  Ni40  1  0.33285286  0.33513875  0.66549646  1
  Ni  Ni41  1  0.49837716  0.49996784  0.83014409  1
  Fe  Fe42  1  0.49851425  0.83120870  0.49939573  1
  Fe  Fe43  1  0.33364955  0.66167211  0.66625898  1
  Ni  Ni44  1  0.49900125  0.82627338  0.83050663  1
  Fe  Fe45  1  0.83023394  0.16684511  0.49790791  1
  Cr  Cr46  1  0.66528712  0.99458900  0.66460327  1
  Cr  Cr47  1  0.83239854  0.16640074  0.83355766  1
  Fe  Fe48  1  0.83226696  0.49930035  0.49907693  1
  Ni  Ni49  1  0.66278046  0.33594470  0.66334854  1
  Fe  Fe50  1  0.83007207  0.50093555  0.83092858  1
  Fe  Fe51  1  0.83251183  0.82913330  0.49936702  1
  Ni  Ni52  1  0.66572853  0.66387576  0.66518465  1
  Ni  Ni53  1  0.83270141  0.82874618  0.83106038  1
" 