6093,Ni23Fe50Cr25_0,-227.177500380219, 185.608174116484,Ni23Fe50Cr25,"# generated using pymatgen
 data_Cr5Fe9Ni4
_symmetry_space_group_name_H-M   'P 1'
_cell_length_a   7.46489389
_cell_length_b   7.46489389
_cell_length_c   10.55695418
_cell_angle_alpha   90.00000000
_cell_angle_beta   90.00000000
_cell_angle_gamma   90.00000000
_symmetry_Int_Tables_number   1
_chemical_formula_structural   Cr5Fe9Ni4
_chemical_formula_sum   'Cr15 Fe27 Ni12'
_cell_volume   588.28247866
_cell_formula_units_Z   3
loop_
 _symmetry_equiv_pos_site_id
 _symmetry_equiv_pos_as_xyz
  1  'x, y, z'
loop_
 _atom_site_type_symbol
 _atom_site_label
 _atom_site_symmetry_multiplicity
 _atom_site_fract_x
 _atom_site_fract_y
 _atom_site_fract_z
 _atom_site_occupancy
  Fe  Fe0  1  0.99726053  0.00030431  0.00172719  1
  Fe  Fe1  1  0.16682385  0.16594964  0.16596579  1
  Fe  Fe2  1  0.99776334  0.00077789  0.33299124  1
  Cr  Cr3  1  0.99851050  0.33471755  0.00113147  1
  Ni  Ni4  1  0.16652268  0.49755336  0.16652587  1
  Fe  Fe5  1  0.00060496  0.33198561  0.33176250  1
  Cr  Cr6  1  0.00061297  0.66662568  0.99823588  1
  Fe  Fe7  1  0.16759923  0.83421947  0.16564924  1
  Cr  Cr8  1  0.00192585  0.66682462  0.33414971  1
  Fe  Fe9  1  0.33677679  0.99940941  0.00192951  1
  Fe  Fe10  1  0.50093653  0.16602137  0.16458549  1
  Cr  Cr11  1  0.33593553  0.99935595  0.33323918  1
  Fe  Fe12  1  0.33593957  0.33582889  0.00118202  1
  Fe  Fe13  1  0.50095538  0.50159530  0.16459896  1
  Cr  Cr14  1  0.33371139  0.33500845  0.33419738  1
  Fe  Fe15  1  0.33680920  0.66518484  0.00096053  1
  Ni  Ni16  1  0.50294704  0.83412136  0.16530169  1
  Cr  Cr17  1  0.33183419  0.66611548  0.33332265  1
  Fe  Fe18  1  0.66653200  0.99947585  0.00021766  1
  Fe  Fe19  1  0.83274440  0.16531005  0.16679357  1
  Ni  Ni20  1  0.66933848  0.00079677  0.33227587  1
  Ni  Ni21  1  0.66495242  0.33256100  0.99874879  1
  Fe  Fe22  1  0.83109683  0.50093354  0.16551299  1
  Cr  Cr23  1  0.66653405  0.33035701  0.33340822  1
  Ni  Ni24  1  0.66495615  0.66703274  0.99977087  1
  Fe  Fe25  1  0.83130019  0.83413090  0.16686520  1
  Fe  Fe26  1  0.66555235  0.66902413  0.33110303  1
  Cr  Cr27  1  0.16533272  0.16587512  0.50051391  1
  Fe  Fe28  1  0.99754664  0.99896068  0.66578717  1
  Cr  Cr29  1  0.16751365  0.16702452  0.83399967  1
  Ni  Ni30  1  0.16778823  0.49884500  0.50016878  1
  Cr  Cr31  1  0.99935527  0.33549327  0.66760819  1
  Ni  Ni32  1  0.16741198  0.49783622  0.83378550  1
  Ni  Ni33  1  0.16509987  0.83598322  0.50034747  1
  Cr  Cr34  1  0.00114519  0.66727281  0.66793102  1
  Cr  Cr35  1  0.16913090  0.83548536  0.83462337  1
  Fe  Fe36  1  0.50206527  0.16781902  0.50247159  1
  Fe  Fe37  1  0.33554777  0.00073625  0.66673714  1
  Fe  Fe38  1  0.50197203  0.16712818  0.83343602  1
  Ni  Ni39  1  0.50141859  0.49945882  0.50152486  1
  Fe  Fe40  1  0.33649184  0.33397858  0.66609152  1
  Fe  Fe41  1  0.50104754  0.50028847  0.83430678  1
  Cr  Cr42  1  0.50289164  0.83327404  0.49986111  1
  Cr  Cr43  1  0.33189309  0.66516114  0.66585003  1
  Ni  Ni44  1  0.50385510  0.83470113  0.83489759  1
  Fe  Fe45  1  0.83160608  0.16339629  0.50021594  1
  Ni  Ni46  1  0.66653151  0.00254099  0.66802220  1
  Fe  Fe47  1  0.83014545  0.16590389  0.83347926  1
  Cr  Cr48  1  0.83088958  0.49998444  0.49833776  1
  Fe  Fe49  1  0.66464449  0.33311484  0.66799700  1
  Ni  Ni50  1  0.82946442  0.49923440  0.83460817  1
  Fe  Fe51  1  0.83381671  0.83619679  0.50015272  1
  Fe  Fe52  1  0.66667433  0.66716354  0.66947477  1
  Fe  Fe53  1  0.83003358  0.83371169  0.83340782  1
" 