1206,Ni23Fe50Cr25_3,-226.353701538422, 182.7594471528,Ni23Fe50Cr25,"# generated using pymatgen
 data_Cr5Fe9Ni4
_symmetry_space_group_name_H-M   'P 1'
_cell_length_a   7.45689982
_cell_length_b   7.45689982
_cell_length_c   10.54564886
_cell_angle_alpha   90.00000000
_cell_angle_beta   90.00000000
_cell_angle_gamma   90.00000000
_symmetry_Int_Tables_number   1
_chemical_formula_structural   Cr5Fe9Ni4
_chemical_formula_sum   'Cr15 Fe27 Ni12'
_cell_volume   586.39454832
_cell_formula_units_Z   3
loop_
 _symmetry_equiv_pos_site_id
 _symmetry_equiv_pos_as_xyz
  1  'x, y, z'
loop_
 _atom_site_type_symbol
 _atom_site_label
 _atom_site_symmetry_multiplicity
 _atom_site_fract_x
 _atom_site_fract_y
 _atom_site_fract_z
 _atom_site_occupancy
  Fe  Fe0  1  0.00279734  0.00327268  1.00001130  1
  Fe  Fe1  1  0.16791079  0.16821404  0.16586990  1
  Ni  Ni2  1  0.99807308  0.00141507  0.33277900  1
  Fe  Fe3  1  0.00128724  0.33259717  0.00096112  1
  Fe  Fe4  1  0.16894318  0.49953749  0.16707708  1
  Cr  Cr5  1  0.99905209  0.33357872  0.33411248  1
  Cr  Cr6  1  0.99874471  0.66799004  1.00006439  1
  Cr  Cr7  1  0.16777993  0.83749546  0.16910294  1
  Cr  Cr8  1  0.00107421  0.66657805  0.33466016  1
  Fe  Fe9  1  0.33257738  0.00314182  0.99893986  1
  Fe  Fe10  1  0.50055908  0.16952138  0.16736321  1
  Ni  Ni11  1  0.33503423  0.99946408  0.33423268  1
  Ni  Ni12  1  0.33432707  0.33238407  0.00136551  1
  Ni  Ni13  1  0.50398328  0.49939829  0.16751251  1
  Cr  Cr14  1  0.33532397  0.33610148  0.33201932  1
  Cr  Cr15  1  0.33418442  0.66466033  0.99831567  1
  Cr  Cr16  1  0.50027335  0.83277313  0.16961930  1
  Ni  Ni17  1  0.33606896  0.66721453  0.33746177  1
  Cr  Cr18  1  0.66841779  1.00067310  1.00026338  1
  Fe  Fe19  1  0.83353779  0.16765366  0.16819837  1
  Fe  Fe20  1  0.66801585  0.00173877  0.33332704  1
  Fe  Fe21  1  0.66667191  0.33622899  0.00129703  1
  Ni  Ni22  1  0.83057122  0.49892942  0.16641801  1
  Fe  Fe23  1  0.66842298  0.33469888  0.33340880  1
  Fe  Fe24  1  0.66684963  0.66452995  0.99992644  1
  Fe  Fe25  1  0.83295630  0.83343992  0.16848875  1
  Fe  Fe26  1  0.66594925  0.66531944  0.33390563  1
  Cr  Cr27  1  0.16519339  0.16489196  0.50114154  1
  Fe  Fe28  1  0.00085746  0.00217371  0.66857298  1
  Ni  Ni29  1  0.16651929  0.16601234  0.83554052  1
  Ni  Ni30  1  0.16671360  0.50214315  0.50038788  1
  Fe  Fe31  1  0.99862571  0.33379746  0.66724970  1
  Fe  Fe32  1  0.16738782  0.49866727  0.83435100  1
  Fe  Fe33  1  0.16854547  0.83492000  0.49906607  1
  Cr  Cr34  1  0.00204717  0.66693710  0.66711289  1
  Ni  Ni35  1  0.16859646  0.83832496  0.83289263  1
  Cr  Cr36  1  0.50285719  0.16545008  0.50064620  1
  Fe  Fe37  1  0.33392301  0.99884516  0.66922015  1
  Fe  Fe38  1  0.49892024  0.16649553  0.83419618  1
  Fe  Fe39  1  0.50269000  0.50148871  0.49853975  1
  Cr  Cr40  1  0.33384881  0.33430097  0.66791117  1
  Fe  Fe41  1  0.50063697  0.49930206  0.83623798  1
  Fe  Fe42  1  0.49936563  0.83357619  0.49913240  1
  Cr  Cr43  1  0.33307384  0.66758956  0.66567795  1
  Ni  Ni44  1  0.49991405  0.83494461  0.83361239  1
  Ni  Ni45  1  0.83320494  0.16888385  0.50185415  1
  Fe  Fe46  1  0.66719360  0.00192061  0.66916242  1
  Fe  Fe47  1  0.83542239  0.16682909  0.83251259  1
  Ni  Ni48  1  0.83259352  0.49797187  0.50115870  1
  Fe  Fe49  1  0.67008351  0.33379181  0.66749923  1
  Fe  Fe50  1  0.83395214  0.49896731  0.83474491  1
  Cr  Cr51  1  0.83334014  0.83560531  0.49862737  1
  Cr  Cr52  1  0.66695258  0.66809817  0.66914862  1
  Fe  Fe53  1  0.83489719  0.83626438  0.83384416  1
" 