3499,Ni23Fe19Cr57_17,-215.959612851829, 164.620444287345,Ni23Fe19Cr57,"# generated using pymatgen
 data_Cr16Fe5Ni6
_symmetry_space_group_name_H-M   'P 1'
_cell_length_a   7.53755977
_cell_length_b   7.53755977
_cell_length_c   10.65971925
_cell_angle_alpha   90.00000000
_cell_angle_beta   90.00000000
_cell_angle_gamma   90.00000000
_symmetry_Int_Tables_number   1
_chemical_formula_structural   Cr16Fe5Ni6
_chemical_formula_sum   'Cr32 Fe10 Ni12'
_cell_volume   605.62989424
_cell_formula_units_Z   2
loop_
 _symmetry_equiv_pos_site_id
 _symmetry_equiv_pos_as_xyz
  1  'x, y, z'
loop_
 _atom_site_type_symbol
 _atom_site_label
 _atom_site_symmetry_multiplicity
 _atom_site_fract_x
 _atom_site_fract_y
 _atom_site_fract_z
 _atom_site_occupancy
  Cr  Cr0  1  0.99497876  0.99472779  0.99111225  1
  Cr  Cr1  1  0.16083790  0.16076211  0.16493129  1
  Ni  Ni2  1  -0.00194705  0.99180521  0.33061589  1
  Cr  Cr3  1  -0.00250863  0.32962692  0.99267028  1
  Fe  Fe4  1  0.16248691  0.49809055  0.16296965  1
  Cr  Cr5  1  -0.00263998  0.33218059  0.32893679  1
  Cr  Cr6  1  -0.00129170  0.66206807  0.99345428  1
  Cr  Cr7  1  0.16212814  0.82942994  0.16408986  1
  Ni  Ni8  1  -0.00091809  0.66324528  0.33239244  1
  Cr  Cr9  1  0.32923675  0.99410368  0.99433574  1
  Cr  Cr10  1  0.49275288  0.16183716  0.16334753  1
  Fe  Fe11  1  0.32748662  0.99237355  0.32992624  1
  Cr  Cr12  1  0.32540973  0.33061879  -0.00382675  1
  Fe  Fe13  1  0.49378221  0.49750203  0.16187331  1
  Cr  Cr14  1  0.32866704  0.32965609  0.33096678  1
  Fe  Fe15  1  0.32875152  0.66362811  0.99516986  1
  Ni  Ni16  1  0.49146873  0.82536572  0.16097009  1
  Cr  Cr17  1  0.32689033  0.66129635  0.32868059  1
  Cr  Cr18  1  0.66144735  0.99353068  0.99437756  1
  Cr  Cr19  1  0.83162360  0.16176729  0.16236968  1
  Cr  Cr20  1  0.65934521  0.99469794  0.32636477  1
  Cr  Cr21  1  0.66239612  0.32659049  0.99474391  1
  Cr  Cr22  1  0.82852121  0.49647664  0.16332470  1
  Cr  Cr23  1  0.66030563  0.32876723  0.33202675  1
  Cr  Cr24  1  0.66188688  0.66548363  -0.00410488  1
  Cr  Cr25  1  0.83033996  0.82787767  0.16551485  1
  Cr  Cr26  1  0.66130872  0.66213054  0.33055778  1
  Cr  Cr27  1  0.16256888  0.15731626  0.49432058  1
  Fe  Fe28  1  -0.00190389  0.99414922  0.66358007  1
  Ni  Ni29  1  0.16268226  0.15980739  0.82684941  1
  Ni  Ni30  1  0.16184455  0.49661726  0.49447350  1
  Cr  Cr31  1  -0.00367199  0.33090373  0.66368626  1
  Fe  Fe32  1  0.16217911  0.49655469  0.82750033  1
  Ni  Ni33  1  0.16327607  0.82951560  0.49577432  1
  Cr  Cr34  1  -0.00385284  0.66247103  0.65980791  1
  Fe  Fe35  1  0.16231293  0.82965558  0.82603394  1
  Fe  Fe36  1  0.49378861  0.16045390  0.49615853  1
  Ni  Ni37  1  0.32703579  0.99514137  0.66325750  1
  Fe  Fe38  1  0.49282734  0.16127083  0.82762736  1
  Ni  Ni39  1  0.49437039  0.49490741  0.49492943  1
  Cr  Cr40  1  0.32739313  0.32750981  0.65927928  1
  Cr  Cr41  1  0.49584328  0.49769212  0.82954230  1
  Cr  Cr42  1  0.49176557  0.82909994  0.49646682  1
  Cr  Cr43  1  0.32597168  0.66330981  0.66174359  1
  Ni  Ni44  1  0.49310210  0.82966539  0.82932724  1
  Cr  Cr45  1  0.83141564  0.16075790  0.49470685  1
  Cr  Cr46  1  0.66046193  0.99449774  0.66549653  1
  Fe  Fe47  1  0.82924743  0.16165810  0.82710186  1
  Ni  Ni48  1  0.82999540  0.49528811  0.49428034  1
  Cr  Cr49  1  0.66205848  0.32849197  0.65899830  1
  Ni  Ni50  1  0.82910088  0.49665784  0.82816257  1
  Cr  Cr51  1  0.83244083  0.82857521  0.49324073  1
  Cr  Cr52  1  0.66368736  0.66242404  0.65987498  1
  Ni  Ni53  1  0.82873349  0.82738881  0.82740936  1
" 