6423,Ni23Fe77_5,-243.110244563351, 210.552298940434,Ni23Fe77,"# generated using pymatgen
 data_Fe2Ni7
_symmetry_space_group_name_H-M   'P 1'
_cell_length_a   7.42092192
_cell_length_b   7.42092192
_cell_length_c   10.49476843
_cell_angle_alpha   90.00000000
_cell_angle_beta   90.00000000
_cell_angle_gamma   90.00000000
_symmetry_Int_Tables_number   1
_chemical_formula_structural   Fe2Ni7
_chemical_formula_sum   'Fe12 Ni42'
_cell_volume   577.94775966
_cell_formula_units_Z   6
loop_
 _symmetry_equiv_pos_site_id
 _symmetry_equiv_pos_as_xyz
  1  'x, y, z'
loop_
 _atom_site_type_symbol
 _atom_site_label
 _atom_site_symmetry_multiplicity
 _atom_site_fract_x
 _atom_site_fract_y
 _atom_site_fract_z
 _atom_site_occupancy
  Ni  Ni0  1  0.00345685  0.00400662  0.00372573  1
  Ni  Ni1  1  0.17039730  0.16921980  0.17001734  1
  Ni  Ni2  1  0.00347741  1.00265058  0.33630486  1
  Ni  Ni3  1  0.00342273  0.33550416  1.00300220  1
  Ni  Ni4  1  0.16881114  0.50269396  0.16911806  1
  Fe  Fe5  1  1.00229676  0.33678227  0.33555734  1
  Fe  Fe6  1  1.00269115  0.66936330  0.00391173  1
  Ni  Ni7  1  0.16916793  0.83740835  0.16894158  1
  Ni  Ni8  1  0.00379823  0.67047765  0.33602988  1
  Ni  Ni9  1  0.33554371  0.00311518  1.00276341  1
  Ni  Ni10  1  0.50189101  0.16959676  0.16903651  1
  Ni  Ni11  1  0.33554385  1.00268384  0.33685647  1
  Ni  Ni12  1  0.33623484  0.33705373  0.00385757  1
  Ni  Ni13  1  0.50386585  0.50269951  0.16911884  1
  Fe  Fe14  1  0.33745237  0.33629953  0.33597481  1
  Ni  Ni15  1  0.33685339  0.66915253  0.00338616  1
  Ni  Ni16  1  0.50313078  0.83702622  0.16992194  1
  Ni  Ni17  1  0.33588704  0.66977683  0.33653280  1
  Ni  Ni18  1  0.67031912  0.00338805  0.00362061  1
  Fe  Fe19  1  0.83631281  0.16950932  0.17004774  1
  Ni  Ni20  1  0.67030140  0.00395918  0.33641818  1
  Ni  Ni21  1  0.66966590  0.33681585  1.00289375  1
  Ni  Ni22  1  0.83664429  0.50392968  0.16984091  1
  Ni  Ni23  1  0.66960266  0.33654077  0.33633678  1
  Ni  Ni24  1  0.66877264  0.66912068  0.00335128  1
  Ni  Ni25  1  0.83702370  0.83543601  0.16971466  1
  Ni  Ni26  1  0.66964021  0.66882344  0.33707437  1
  Fe  Fe27  1  0.16963138  0.16870047  0.50325443  1
  Ni  Ni28  1  1.00248773  1.00263132  0.66929348  1
  Ni  Ni29  1  0.17015528  0.16919691  0.83605755  1
  Fe  Fe30  1  0.17011446  0.50452756  0.50297560  1
  Fe  Fe31  1  1.00209521  0.33705918  0.67046243  1
  Fe  Fe32  1  0.17147849  0.50249354  0.83684387  1
  Ni  Ni33  1  0.16925261  0.83695681  0.50345595  1
  Ni  Ni34  1  0.00369063  0.67084159  0.66988113  1
  Fe  Fe35  1  0.17078360  0.83643523  0.83622740  1
  Ni  Ni36  1  0.50314502  0.16987732  0.50393795  1
  Fe  Fe37  1  0.33738075  1.00263200  0.66984350  1
  Ni  Ni38  1  0.50165332  0.16958051  0.83634938  1
  Ni  Ni39  1  0.50415095  0.50283262  0.50362538  1
  Ni  Ni40  1  0.33737083  0.33744232  0.66957211  1
  Ni  Ni41  1  0.50451993  0.50306435  0.83657981  1
  Ni  Ni42  1  0.50253328  0.83661134  0.50321311  1
  Ni  Ni43  1  0.33610623  0.66832638  0.66940123  1
  Ni  Ni44  1  0.50293795  0.83667727  0.83618861  1
  Ni  Ni45  1  0.83654343  0.17015683  0.50359135  1
  Ni  Ni46  1  0.67112168  0.00389958  0.66928690  1
  Fe  Fe47  1  0.83522421  0.16997423  0.83609585  1
  Ni  Ni48  1  0.83620366  0.50321951  0.50332564  1
  Ni  Ni49  1  0.66860659  0.33623785  0.67009416  1
  Ni  Ni50  1  0.83620073  0.50341820  0.83615702  1
  Ni  Ni51  1  0.83753933  0.83595022  0.50375230  1
  Ni  Ni52  1  0.66953205  0.66918770  0.66889907  1
  Fe  Fe53  1  0.83515749  0.83685731  0.83610125  1
" 