6230,Ni23Fe50Cr25_6,-226.947114322294, 182.4444166065,Ni23Fe50Cr25,"# generated using pymatgen
 data_Cr5Fe9Ni4
_symmetry_space_group_name_H-M   'P 1'
_cell_length_a   7.46348111
_cell_length_b   7.46348111
_cell_length_c   10.55495621
_cell_angle_alpha   90.00000000
_cell_angle_beta   90.00000000
_cell_angle_gamma   90.00000000
_symmetry_Int_Tables_number   1
_chemical_formula_structural   Cr5Fe9Ni4
_chemical_formula_sum   'Cr15 Fe27 Ni12'
_cell_volume   587.94853487
_cell_formula_units_Z   3
loop_
 _symmetry_equiv_pos_site_id
 _symmetry_equiv_pos_as_xyz
  1  'x, y, z'
loop_
 _atom_site_type_symbol
 _atom_site_label
 _atom_site_symmetry_multiplicity
 _atom_site_fract_x
 _atom_site_fract_y
 _atom_site_fract_z
 _atom_site_occupancy
  Fe  Fe0  1  0.99904787  0.00338727  0.99693488  1
  Fe  Fe1  1  0.16712146  0.16788499  0.16555606  1
  Fe  Fe2  1  0.00067629  0.99808820  0.33491426  1
  Ni  Ni3  1  0.00131984  0.33537258  0.99929997  1
  Fe  Fe4  1  0.16698825  0.49725904  0.16558183  1
  Fe  Fe5  1  0.00104002  0.33312455  0.33134553  1
  Fe  Fe6  1  0.99789781  0.66369728  0.99869791  1
  Cr  Cr7  1  0.16670133  0.83409107  0.16581642  1
  Cr  Cr8  1  0.99981023  0.66256125  0.33498480  1
  Fe  Fe9  1  0.33486379  0.00320022  0.99936229  1
  Cr  Cr10  1  0.50014612  0.16862770  0.16818770  1
  Ni  Ni11  1  0.33162625  0.00075193  0.33137967  1
  Fe  Fe12  1  0.33426059  0.33216562  0.99872723  1
  Fe  Fe13  1  0.50064105  0.50104598  0.16709016  1
  Fe  Fe14  1  0.33311751  0.33803177  0.33278188  1
  Cr  Cr15  1  0.33563731  0.66419091  0.00041105  1
  Ni  Ni16  1  0.49898678  0.83339651  0.16414200  1
  Fe  Fe17  1  0.33431179  0.66689171  0.33275275  1
  Ni  Ni18  1  0.66531076  0.99968887  0.99650963  1
  Cr  Cr19  1  0.83398428  0.16844292  0.16576098  1
  Cr  Cr20  1  0.66589827  0.99800024  0.33621870  1
  Fe  Fe21  1  0.66708127  0.33459599  0.99756242  1
  Fe  Fe22  1  0.83302856  0.49920157  0.16277489  1
  Fe  Fe23  1  0.66711129  0.33693066  0.33368882  1
  Fe  Fe24  1  0.66789393  0.66508607  0.99904053  1
  Cr  Cr25  1  0.83366494  0.83312711  0.16213018  1
  Cr  Cr26  1  0.66672910  0.66567922  0.33166790  1
  Cr  Cr27  1  0.16742225  0.16681517  0.49725847  1
  Cr  Cr28  1  0.99848534  0.00111884  0.66745331  1
  Ni  Ni29  1  0.16922490  0.16950074  0.83749509  1
  Fe  Fe30  1  0.16854964  0.50097617  0.50252827  1
  Fe  Fe31  1  0.00060903  0.33430980  0.67106163  1
  Fe  Fe32  1  0.16485268  0.49763400  0.83345609  1
  Ni  Ni33  1  0.16577301  0.83055652  0.49886816  1
  Fe  Fe34  1  0.99829581  0.66615193  0.66673663  1
  Cr  Cr35  1  0.16499393  0.83195481  0.83479964  1
  Cr  Cr36  1  0.50044424  0.17133102  0.50043704  1
  Cr  Cr37  1  0.33551455  0.00118815  0.67052492  1
  Ni  Ni38  1  0.50104505  0.16981750  0.83386392  1
  Ni  Ni39  1  0.50012651  0.50008582  0.50104349  1
  Fe  Fe40  1  0.33358746  0.33490330  0.66959115  1
  Fe  Fe41  1  0.50127551  0.50026666  0.83118125  1
  Cr  Cr42  1  0.49818303  0.83191756  0.50193797  1
  Fe  Fe43  1  0.33327746  0.66479359  0.66756106  1
  Fe  Fe44  1  0.50358164  0.83433935  0.83468199  1
  Cr  Cr45  1  0.83260290  0.16908581  0.50060743  1
  Ni  Ni46  1  0.66800707  0.99958599  0.66967990  1
  Fe  Fe47  1  0.83333781  0.16727345  0.83541905  1
  Fe  Fe48  1  0.83239928  0.50074041  0.50390644  1
  Fe  Fe49  1  0.66671301  0.33417945  0.66985195  1
  Ni  Ni50  1  0.83301068  0.50066473  0.83405266  1
  Ni  Ni51  1  0.83616117  0.83118819  0.50272994  1
  Fe  Fe52  1  0.66825121  0.66718531  0.66785858  1
  Ni  Ni53  1  0.83228037  0.83081673  0.83499576  1
" 