701,Ni23Fe43Cr33_6,-225.42444315067, 187.11877030784,Ni23Fe43Cr33,"# generated using pymatgen
 data_Cr19Fe23Ni12
_symmetry_space_group_name_H-M   'P 1'
_cell_length_a   7.47571238
_cell_length_b   7.47571238
_cell_length_c   10.57225383
_cell_angle_alpha   90.00000000
_cell_angle_beta   90.00000000
_cell_angle_gamma   90.00000000
_symmetry_Int_Tables_number   1
_chemical_formula_structural   Cr19Fe23Ni12
_chemical_formula_sum   'Cr19 Fe23 Ni12'
_cell_volume   590.84389118
_cell_formula_units_Z   1
loop_
 _symmetry_equiv_pos_site_id
 _symmetry_equiv_pos_as_xyz
  1  'x, y, z'
loop_
 _atom_site_type_symbol
 _atom_site_label
 _atom_site_symmetry_multiplicity
 _atom_site_fract_x
 _atom_site_fract_y
 _atom_site_fract_z
 _atom_site_occupancy
  Fe  Fe0  1  -0.00024161  0.00033644  0.99818825  1
  Cr  Cr1  1  0.16747817  0.16854396  0.16325126  1
  Cr  Cr2  1  0.99647292  -0.00029736  0.33422079  1
  Fe  Fe3  1  0.00021331  0.33410641  0.99901574  1
  Fe  Fe4  1  0.16763627  0.49802002  0.16562577  1
  Fe  Fe5  1  0.99934785  0.33285089  0.33208900  1
  Ni  Ni6  1  0.99641319  0.66568991  0.00058790  1
  Cr  Cr7  1  0.16665208  0.83153442  0.16348235  1
  Cr  Cr8  1  -0.00043722  0.66449086  0.33315899  1
  Ni  Ni9  1  0.33331466  0.00046759  0.99781269  1
  Ni  Ni10  1  0.50086393  0.16518001  0.16705876  1
  Cr  Cr11  1  0.33507201  0.00095686  0.33442679  1
  Ni  Ni12  1  0.33449761  0.33081438  -0.00040888  1
  Fe  Fe13  1  0.49703582  0.49792730  0.16669776  1
  Fe  Fe14  1  0.33365017  0.33343245  0.33181373  1
  Cr  Cr15  1  0.33446244  0.66598524  -0.00005289  1
  Ni  Ni16  1  0.50221534  0.83519190  0.16423643  1
  Fe  Fe17  1  0.33409648  0.66438020  0.33098320  1
  Fe  Fe18  1  0.66406675  0.99820658  0.00226282  1
  Fe  Fe19  1  0.83016956  0.16450358  0.16680491  1
  Ni  Ni20  1  0.66523348  0.00205470  0.33170273  1
  Cr  Cr21  1  0.66663969  0.33414130  0.00128890  1
  Fe  Fe22  1  0.83366478  0.49915817  0.16423391  1
  Fe  Fe23  1  0.66518505  0.32968544  0.33111447  1
  Fe  Fe24  1  0.66638094  0.66636502  0.00056552  1
  Fe  Fe25  1  0.82992452  0.83493556  0.16440534  1
  Cr  Cr26  1  0.66649817  0.66587951  0.33025390  1
  Fe  Fe27  1  0.16747975  0.17121529  0.49915087  1
  Cr  Cr28  1  0.00061002  0.99938064  0.66521565  1
  Fe  Fe29  1  0.16378145  0.16627746  0.83595654  1
  Ni  Ni30  1  0.16575163  0.49564053  0.49776054  1
  Fe  Fe31  1  0.00009864  0.33416669  0.66687360  1
  Cr  Cr32  1  0.16378596  0.49803590  0.83368041  1
  Cr  Cr33  1  0.16434908  0.82860136  0.49900800  1
  Ni  Ni34  1  0.99796709  0.66492470  0.66476911  1
  Fe  Fe35  1  0.16446068  0.83284594  0.83497545  1
  Ni  Ni36  1  0.49976763  0.16788030  0.49884717  1
  Cr  Cr37  1  0.33158269  0.00143161  0.66644350  1
  Cr  Cr38  1  0.49884772  0.16543921  0.83254723  1
  Cr  Cr39  1  0.49794698  0.49563354  0.50041008  1
  Fe  Fe40  1  0.33128866  0.33231700  0.66546818  1
  Fe  Fe41  1  0.50287586  0.49931827  0.83197293  1
  Cr  Cr42  1  0.50431033  0.83548335  0.49978171  1
  Cr  Cr43  1  0.33174985  0.66581091  0.66703655  1
  Fe  Fe44  1  0.50028661  0.83143407  0.83460103  1
  Cr  Cr45  1  0.82863180  0.16605597  0.49961316  1
  Fe  Fe46  1  0.66656398  -0.00014780  0.66510939  1
  Fe  Fe47  1  0.83384238  0.16937647  0.83206324  1
  Cr  Cr48  1  0.83497038  0.50018162  0.50313928  1
  Ni  Ni49  1  0.66618559  0.33316950  0.66716425  1
  Ni  Ni50  1  0.83365428  0.50000001  0.83163757  1
  Ni  Ni51  1  0.83129744  0.83311502  0.50023132  1
  Fe  Fe52  1  0.66829718  0.66568506  0.66743022  1
  Cr  Cr53  1  0.83181547  0.83089153  0.83299837  1
" 