2497,Ni23Fe60Cr16_3,-229.363498780684, 182.116794397994,Ni23Fe60Cr16,"# generated using pymatgen
 data_Cr5(Fe8Ni3)2
_symmetry_space_group_name_H-M   'P 1'
_cell_length_a   7.44461503
_cell_length_b   7.44461503
_cell_length_c   10.52827554
_cell_angle_alpha   90.00000000
_cell_angle_beta   90.00000000
_cell_angle_gamma   90.00000000
_symmetry_Int_Tables_number   1
_chemical_formula_structural   Cr5(Fe8Ni3)2
_chemical_formula_sum   'Cr10 Fe32 Ni12'
_cell_volume   583.50117036
_cell_formula_units_Z   2
loop_
 _symmetry_equiv_pos_site_id
 _symmetry_equiv_pos_as_xyz
  1  'x, y, z'
loop_
 _atom_site_type_symbol
 _atom_site_label
 _atom_site_symmetry_multiplicity
 _atom_site_fract_x
 _atom_site_fract_y
 _atom_site_fract_z
 _atom_site_occupancy
  Cr  Cr0  1  0.00158795  0.00365433  0.00381275  1
  Ni  Ni1  1  0.16904110  0.16827969  0.16961303  1
  Fe  Fe2  1  1.00037535  1.00113326  0.33506258  1
  Cr  Cr3  1  0.00207706  0.33534258  0.00243691  1
  Cr  Cr4  1  0.16999373  0.50334118  0.16832496  1
  Ni  Ni5  1  0.00167397  0.33371507  0.33481328  1
  Fe  Fe6  1  0.99739396  0.66928192  1.00097426  1
  Cr  Cr7  1  0.16879486  0.83348443  0.16926193  1
  Fe  Fe8  1  0.99897717  0.66848075  0.33658237  1
  Ni  Ni9  1  0.33595791  1.00076794  0.00183719  1
  Cr  Cr10  1  0.50243468  0.16812430  0.16850680  1
  Fe  Fe11  1  0.33401900  1.00139591  0.33641771  1
  Fe  Fe12  1  0.33568096  0.33272029  0.99948554  1
  Cr  Cr13  1  0.50147911  0.50334743  0.16940967  1
  Fe  Fe14  1  0.33389185  0.33420914  0.33684548  1
  Fe  Fe15  1  0.33766555  0.66913246  0.99922304  1
  Fe  Fe16  1  0.50319997  0.83510033  0.16843967  1
  Fe  Fe17  1  0.33513458  0.66879938  0.33849206  1
  Ni  Ni18  1  0.66631873  0.99836131  0.00237111  1
  Ni  Ni19  1  0.83387418  0.16630313  0.17115728  1
  Fe  Fe20  1  0.67005556  1.00002614  0.33568841  1
  Cr  Cr21  1  0.67109089  0.33597492  0.00273106  1
  Fe  Fe22  1  0.83539036  0.50334911  0.17096150  1
  Fe  Fe23  1  0.67044605  0.33544994  0.33706223  1
  Ni  Ni24  1  0.66774966  0.66968616  1.00042907  1
  Ni  Ni25  1  0.83317385  0.83433828  0.16805354  1
  Ni  Ni26  1  0.66758854  0.66947336  0.33590265  1
  Fe  Fe27  1  0.16804195  0.16708040  0.50059649  1
  Fe  Fe28  1  0.00226531  1.00022256  0.66593380  1
  Fe  Fe29  1  0.17098582  0.16847472  0.83408696  1
  Fe  Fe30  1  0.16765619  0.50185146  0.50116436  1
  Fe  Fe31  1  0.00476788  0.33473632  0.66668005  1
  Fe  Fe32  1  0.16895837  0.50072844  0.83337538  1
  Ni  Ni33  1  0.16761792  0.83443749  0.50143211  1
  Fe  Fe34  1  1.00130088  0.66909735  0.66656059  1
  Cr  Cr35  1  0.16773859  0.83441763  0.83472924  1
  Fe  Fe36  1  0.50032786  0.16560341  0.50136065  1
  Ni  Ni37  1  0.33459717  1.00039415  0.66696737  1
  Fe  Fe38  1  0.49914499  0.16498272  0.83468172  1
  Fe  Fe39  1  0.50018049  0.50362391  0.50031104  1
  Fe  Fe40  1  0.33480541  0.33430507  0.66777746  1
  Fe  Fe41  1  0.50003461  0.50371167  0.83459375  1
  Fe  Fe42  1  0.50098981  0.83507104  0.50202957  1
  Ni  Ni43  1  0.33451610  0.66846775  0.66673493  1
  Fe  Fe44  1  0.50241954  0.83593300  0.83369402  1
  Fe  Fe45  1  0.83625312  0.16623775  0.50085838  1
  Ni  Ni46  1  0.66676849  1.00000908  0.66694840  1
  Cr  Cr47  1  0.83257737  0.16481139  0.83342905  1
  Fe  Fe48  1  0.83671452  0.50313192  0.50001317  1
  Cr  Cr49  1  0.66870541  0.33655307  0.66614432  1
  Fe  Fe50  1  0.83591499  0.50514367  0.83383089  1
  Fe  Fe51  1  0.83463803  0.83492470  0.50092534  1
  Fe  Fe52  1  0.66628126  0.67087311  0.66766955  1
  Fe  Fe53  1  0.83208945  0.83326159  0.83493341  1
" 