5216,Ni23Fe35Cr40_2,-222.156801271558, 176.282006789567,Ni23Fe35Cr40,"# generated using pymatgen
 data_Cr23Fe19Ni12
_symmetry_space_group_name_H-M   'P 1'
_cell_length_a   7.49259812
_cell_length_b   7.49259812
_cell_length_c   10.59613388
_cell_angle_alpha   90.00000000
_cell_angle_beta   90.00000000
_cell_angle_gamma   90.00000000
_symmetry_Int_Tables_number   1
_chemical_formula_structural   Cr23Fe19Ni12
_chemical_formula_sum   'Cr23 Fe19 Ni12'
_cell_volume   594.85664223
_cell_formula_units_Z   1
loop_
 _symmetry_equiv_pos_site_id
 _symmetry_equiv_pos_as_xyz
  1  'x, y, z'
loop_
 _atom_site_type_symbol
 _atom_site_label
 _atom_site_symmetry_multiplicity
 _atom_site_fract_x
 _atom_site_fract_y
 _atom_site_fract_z
 _atom_site_occupancy
  Cr  Cr0  1  0.00076528  -0.00022333  0.00134181  1
  Ni  Ni1  1  0.16858758  0.16484526  0.16275893  1
  Fe  Fe2  1  -0.00012568  -0.00092739  0.32687873  1
  Fe  Fe3  1  -0.00065881  0.33332078  0.00028723  1
  Ni  Ni4  1  0.16334389  0.49738053  0.16270852  1
  Cr  Cr5  1  -0.00086099  0.32948106  0.32827877  1
  Fe  Fe6  1  -0.00055865  0.66356064  0.00177666  1
  Ni  Ni7  1  0.16730179  0.83290294  0.16498924  1
  Cr  Cr8  1  0.99793962  0.66546289  0.32676357  1
  Fe  Fe9  1  0.33509629  0.00013351  0.00036229  1
  Ni  Ni10  1  0.49876870  0.16315831  0.16312991  1
  Fe  Fe11  1  0.33399492  0.99706109  0.32918542  1
  Ni  Ni12  1  0.33292461  0.33046629  -0.00042703  1
  Fe  Fe13  1  0.49482621  0.49638000  0.16368864  1
  Cr  Cr14  1  0.33175307  0.32885702  0.33014706  1
  Cr  Cr15  1  0.33317402  0.66602988  0.00138024  1
  Ni  Ni16  1  0.49883496  0.83634582  0.16472479  1
  Fe  Fe17  1  0.33157761  0.66637859  0.32730318  1
  Fe  Fe18  1  0.66170886  0.00037824  0.99805626  1
  Fe  Fe19  1  0.83090184  0.16404351  0.16370665  1
  Fe  Fe20  1  0.66075506  -0.00050725  0.32998254  1
  Fe  Fe21  1  0.66337042  0.32917350  -0.00038304  1
  Ni  Ni22  1  0.83157522  0.49749093  0.16047145  1
  Cr  Cr23  1  0.66358095  0.33216265  0.32837322  1
  Cr  Cr24  1  0.66415117  0.66381788  -0.00025620  1
  Fe  Fe25  1  0.83089165  0.83413885  0.16391085  1
  Cr  Cr26  1  0.66163299  0.66576181  0.32838409  1
  Cr  Cr27  1  0.16739710  0.16619082  0.49835829  1
  Cr  Cr28  1  0.99771419  0.00131025  0.66398864  1
  Cr  Cr29  1  0.16950563  0.16736516  0.83434321  1
  Cr  Cr30  1  0.16557471  0.49851868  0.50241139  1
  Ni  Ni31  1  -0.00120420  0.33211720  0.66780667  1
  Cr  Cr32  1  0.16424525  0.49830206  0.83031885  1
  Cr  Cr33  1  0.16688407  0.82964015  0.49701755  1
  Fe  Fe34  1  0.99591887  0.66548165  0.66636285  1
  Cr  Cr35  1  0.16508584  0.82954738  0.83324226  1
  Ni  Ni36  1  0.49891326  0.16058211  0.49840661  1
  Cr  Cr37  1  0.33374765  0.99826447  0.66745900  1
  Ni  Ni38  1  0.50233257  0.16529087  0.83407313  1
  Cr  Cr39  1  0.49535231  0.49793663  0.49703904  1
  Fe  Fe40  1  0.33530161  0.32942717  0.66702921  1
  Fe  Fe41  1  0.49634393  0.49516040  0.83355187  1
  Ni  Ni42  1  0.49771778  0.83504526  0.49830099  1
  Fe  Fe43  1  0.33377843  0.66532931  0.66629563  1
  Fe  Fe44  1  0.49785594  0.83440717  0.83365378  1
  Cr  Cr45  1  0.82839175  0.16383642  0.49728841  1
  Ni  Ni46  1  0.66139546  0.99780174  0.66626609  1
  Fe  Fe47  1  0.83125148  0.16581557  0.83236769  1
  Cr  Cr48  1  0.83341451  0.49837596  0.50007682  1
  Cr  Cr49  1  0.66427803  0.33012323  0.66597046  1
  Fe  Fe50  1  0.83124883  0.49442253  0.83383042  1
  Cr  Cr51  1  0.82895680  0.83326033  0.49596593  1
  Cr  Cr52  1  0.66096478  0.66601855  0.66632664  1
  Cr  Cr53  1  0.83030812  0.83128220  0.83265209  1
" 