2543,Ni23Fe60Cr16_2,-229.446875664655, 190.135684190002,Ni23Fe60Cr16,"# generated using pymatgen
 data_Cr5(Fe8Ni3)2
_symmetry_space_group_name_H-M   'P 1'
_cell_length_a   7.43502475
_cell_length_b   7.43502475
_cell_length_c   10.51471284
_cell_angle_alpha   90.00000000
_cell_angle_beta   90.00000000
_cell_angle_gamma   90.00000000
_symmetry_Int_Tables_number   1
_chemical_formula_structural   Cr5(Fe8Ni3)2
_chemical_formula_sum   'Cr10 Fe32 Ni12'
_cell_volume   581.24904723
_cell_formula_units_Z   2
loop_
 _symmetry_equiv_pos_site_id
 _symmetry_equiv_pos_as_xyz
  1  'x, y, z'
loop_
 _atom_site_type_symbol
 _atom_site_label
 _atom_site_symmetry_multiplicity
 _atom_site_fract_x
 _atom_site_fract_y
 _atom_site_fract_z
 _atom_site_occupancy
  Ni  Ni0  1  1.00018954  0.99925995  0.00379536  1
  Cr  Cr1  1  0.16825245  0.16618331  0.16953255  1
  Fe  Fe2  1  1.00044326  1.00097822  0.33535939  1
  Cr  Cr3  1  1.00157761  0.33622976  1.00159427  1
  Fe  Fe4  1  0.17016394  0.50529761  0.16878696  1
  Cr  Cr5  1  1.00156096  0.33528328  0.33390597  1
  Fe  Fe6  1  1.00113179  0.67048797  0.00354113  1
  Ni  Ni7  1  0.16755226  0.83447130  0.16874744  1
  Cr  Cr8  1  0.00265361  0.67076192  0.33463285  1
  Fe  Fe9  1  0.33592282  1.00169022  1.00116091  1
  Ni  Ni10  1  0.50401342  0.17018328  0.17091689  1
  Fe  Fe11  1  0.33498024  0.00280116  0.33631086  1
  Cr  Cr12  1  0.33547457  0.33527373  0.00225400  1
  Fe  Fe13  1  0.50245229  0.50198815  0.17022082  1
  Fe  Fe14  1  0.33846684  0.33577385  0.33575724  1
  Fe  Fe15  1  0.33408201  0.67003798  0.00282855  1
  Cr  Cr16  1  0.50208223  0.83531752  0.16707193  1
  Fe  Fe17  1  0.33554282  0.66785165  0.33526840  1
  Fe  Fe18  1  0.67042064  1.00161557  1.00176292  1
  Ni  Ni19  1  0.83372716  0.16731420  0.17002999  1
  Ni  Ni20  1  0.66899860  0.00364051  0.33417246  1
  Cr  Cr21  1  0.66938031  0.33361992  0.00409026  1
  Fe  Fe22  1  0.83386804  0.50368070  0.16885200  1
  Fe  Fe23  1  0.66742817  0.33468265  0.33466300  1
  Fe  Fe24  1  0.67124027  0.67101866  1.00157877  1
  Ni  Ni25  1  0.83677997  0.83631282  0.16839303  1
  Fe  Fe26  1  0.66934265  0.66794072  0.33533022  1
  Fe  Fe27  1  0.16941190  0.16780004  0.50373370  1
  Ni  Ni28  1  1.00117625  0.00311932  0.66648446  1
  Fe  Fe29  1  0.16829702  0.16746257  0.83352363  1
  Fe  Fe30  1  0.17022130  0.50198141  0.50390527  1
  Ni  Ni31  1  0.00265660  0.33666031  0.67020510  1
  Fe  Fe32  1  0.16709936  0.50298674  0.83367371  1
  Fe  Fe33  1  0.16822960  0.83678448  0.50297341  1
  Fe  Fe34  1  1.00110067  0.66949793  0.66796102  1
  Cr  Cr35  1  0.16865149  0.83674558  0.83568632  1
  Fe  Fe36  1  0.50245566  0.16943190  0.50177014  1
  Ni  Ni37  1  0.33684697  0.00290778  0.66961262  1
  Fe  Fe38  1  0.50241799  0.16414626  0.83412365  1
  Fe  Fe39  1  0.50215095  0.50069428  0.50226639  1
  Fe  Fe40  1  0.33410439  0.33295900  0.66822925  1
  Cr  Cr41  1  0.50231418  0.50391620  0.83291064  1
  Cr  Cr42  1  0.50242664  0.83511080  0.50314051  1
  Fe  Fe43  1  0.33437645  0.66952819  0.66826417  1
  Ni  Ni44  1  0.50396276  0.83643248  0.83571883  1
  Fe  Fe45  1  0.83458691  0.16749493  0.50288962  1
  Ni  Ni46  1  0.66842730  1.00176915  0.67131701  1
  Fe  Fe47  1  0.83574088  0.16575110  0.83398061  1
  Fe  Fe48  1  0.83412010  0.50198308  0.50397211  1
  Fe  Fe49  1  0.67019671  0.33299997  0.66820517  1
  Fe  Fe50  1  0.83683522  0.50470655  0.83364101  1
  Fe  Fe51  1  0.83578541  0.83707517  0.50306939  1
  Fe  Fe52  1  0.67098460  0.67054098  0.66941400  1
  Ni  Ni53  1  0.83398403  0.83610695  0.83505987  1
" 