5148,Ni23Fe74Cr2_6,-232.406641427035, 187.118798056689,Ni23Fe74Cr2,"# generated using pymatgen
 data_Cr(Fe10Ni3)2
_symmetry_space_group_name_H-M   'P 1'
_cell_length_a   7.40613504
_cell_length_b   7.40613504
_cell_length_c   10.47385662
_cell_angle_alpha   90.00000000
_cell_angle_beta   90.00000000
_cell_angle_gamma   90.00000000
_symmetry_Int_Tables_number   1
_chemical_formula_structural   Cr(Fe10Ni3)2
_chemical_formula_sum   'Cr2 Fe40 Ni12'
_cell_volume   574.49979354
_cell_formula_units_Z   2
loop_
 _symmetry_equiv_pos_site_id
 _symmetry_equiv_pos_as_xyz
  1  'x, y, z'
loop_
 _atom_site_type_symbol
 _atom_site_label
 _atom_site_symmetry_multiplicity
 _atom_site_fract_x
 _atom_site_fract_y
 _atom_site_fract_z
 _atom_site_occupancy
  Fe  Fe0  1  1.00402505  1.00388769  0.00433955  1
  Fe  Fe1  1  0.16949526  0.16987180  0.16987238  1
  Fe  Fe2  1  1.00375068  1.00376074  0.33721724  1
  Fe  Fe3  1  1.00376396  0.33789872  1.00403821  1
  Fe  Fe4  1  0.16926324  0.50562638  0.17002277  1
  Fe  Fe5  1  1.00154839  0.33880023  0.33755585  1
  Ni  Ni6  1  0.00462656  0.67090045  1.00338012  1
  Fe  Fe7  1  0.16998300  0.83684227  0.17088916  1
  Ni  Ni8  1  0.00445726  0.67155963  0.33794966  1
  Fe  Fe9  1  0.33733986  1.00362759  1.00403904  1
  Fe  Fe10  1  0.50611497  0.17027207  0.16946148  1
  Fe  Fe11  1  0.33831021  1.00096017  0.33747468  1
  Fe  Fe12  1  0.33711521  0.33766606  1.00377566  1
  Fe  Fe13  1  0.50612083  0.50499764  0.17061821  1
  Cr  Cr14  1  0.33859265  0.33816134  0.33763902  1
  Fe  Fe15  1  0.33714943  0.67104270  0.00450199  1
  Ni  Ni16  1  0.50287222  0.83717584  0.17088444  1
  Ni  Ni17  1  0.33708754  0.67259092  0.33618114  1
  Fe  Fe18  1  0.67097045  1.00385333  1.00363609  1
  Ni  Ni19  1  0.83807869  0.17268744  0.17099531  1
  Fe  Fe20  1  0.67027457  1.00312272  0.33777201  1
  Fe  Fe21  1  0.67145915  0.33770437  0.00485773  1
  Ni  Ni22  1  0.83843095  0.50283537  0.17143858  1
  Ni  Ni23  1  0.67209459  0.33666554  0.33746240  1
  Fe  Fe24  1  0.67120422  0.67077837  0.00487708  1
  Fe  Fe25  1  0.83735978  0.83683630  0.17078773  1
  Ni  Ni26  1  0.67078881  0.67109306  0.33739534  1
  Fe  Fe27  1  0.17023411  0.16968137  0.50534966  1
  Fe  Fe28  1  1.00386590  0.00449486  0.67078022  1
  Fe  Fe29  1  0.17118051  0.17107648  0.83711537  1
  Fe  Fe30  1  0.16943689  0.50482691  0.50410684  1
  Ni  Ni31  1  0.00430289  0.33688793  0.67091443  1
  Fe  Fe32  1  0.17005089  0.50278928  0.83820586  1
  Fe  Fe33  1  0.17042467  0.83783194  0.50279505  1
  Fe  Fe34  1  1.00195582  0.67074040  0.67099856  1
  Fe  Fe35  1  0.17013419  0.83847062  0.83864909  1
  Fe  Fe36  1  0.50529789  0.16949125  0.50568692  1
  Fe  Fe37  1  0.33786342  0.00636744  0.67082018  1
  Ni  Ni38  1  0.50363620  0.17034125  0.83669694  1
  Fe  Fe39  1  0.50586837  0.50479530  0.50343702  1
  Fe  Fe40  1  0.33756085  0.33499665  0.67101027  1
  Fe  Fe41  1  0.50480543  0.50268087  0.83828164  1
  Ni  Ni42  1  0.50421728  0.83819141  0.50369233  1
  Cr  Cr43  1  0.33744480  0.67072911  0.67061341  1
  Fe  Fe44  1  0.50517556  0.83903000  0.83797984  1
  Fe  Fe45  1  0.83680694  0.17047580  0.50396694  1
  Ni  Ni46  1  0.67067623  0.00479568  0.67109722  1
  Fe  Fe47  1  0.83691773  0.17070720  0.83733543  1
  Fe  Fe48  1  0.83703418  0.50459848  0.50324828  1
  Fe  Fe49  1  0.67083761  0.33690636  0.67062980  1
  Fe  Fe50  1  0.83748192  0.50372932  0.83789924  1
  Fe  Fe51  1  0.83683838  0.83726267  0.50421086  1
  Fe  Fe52  1  0.67270994  0.67104679  0.67014125  1
  Fe  Fe53  1  0.83702835  0.83790037  0.83733897  1
" 