8001,Ni23Fe74Cr2_7,-232.935841403343, 186.224436425361,Ni23Fe74Cr2,"# generated using pymatgen
 data_Cr(Fe10Ni3)2
_symmetry_space_group_name_H-M   'P 1'
_cell_length_a   7.41040465
_cell_length_b   7.41040465
_cell_length_c   10.47989475
_cell_angle_alpha   90.00000000
_cell_angle_beta   90.00000000
_cell_angle_gamma   90.00000000
_symmetry_Int_Tables_number   1
_chemical_formula_structural   Cr(Fe10Ni3)2
_chemical_formula_sum   'Cr2 Fe40 Ni12'
_cell_volume   575.49395706
_cell_formula_units_Z   2
loop_
 _symmetry_equiv_pos_site_id
 _symmetry_equiv_pos_as_xyz
  1  'x, y, z'
loop_
 _atom_site_type_symbol
 _atom_site_label
 _atom_site_symmetry_multiplicity
 _atom_site_fract_x
 _atom_site_fract_y
 _atom_site_fract_z
 _atom_site_occupancy
  Fe  Fe0  1  1.00363888  1.00307002  0.00387220  1
  Fe  Fe1  1  0.17174070  0.17169310  0.16995508  1
  Cr  Cr2  1  1.00363991  0.00488009  0.33713659  1
  Fe  Fe3  1  1.00356551  0.33779753  1.00355176  1
  Fe  Fe4  1  0.17078508  0.50449794  0.17046824  1
  Ni  Ni5  1  1.00350810  0.33724873  0.33599413  1
  Ni  Ni6  1  0.00400898  0.67053747  0.00391064  1
  Ni  Ni7  1  0.17136015  0.83605826  0.17056766  1
  Fe  Fe8  1  1.00263555  0.66997192  0.33555134  1
  Fe  Fe9  1  0.33651526  1.00286488  0.00385225  1
  Fe  Fe10  1  0.50346757  0.17016968  0.17069056  1
  Fe  Fe11  1  0.33906914  1.00307000  0.33701578  1
  Fe  Fe12  1  0.33670402  0.33811593  1.00381924  1
  Ni  Ni13  1  0.50344049  0.50360051  0.17149788  1
  Fe  Fe14  1  0.33871539  0.33678150  0.33608525  1
  Fe  Fe15  1  0.33658470  0.67048341  0.00442410  1
  Fe  Fe16  1  0.50350369  0.83651209  0.17089107  1
  Ni  Ni17  1  0.33937899  0.67075329  0.33596346  1
  Fe  Fe18  1  0.67130803  1.00319242  1.00347793  1
  Fe  Fe19  1  0.83625678  0.17137218  0.16971566  1
  Ni  Ni20  1  0.66878790  1.00325568  0.33726718  1
  Fe  Fe21  1  0.67119904  0.33786654  1.00356607  1
  Fe  Fe22  1  0.83749586  0.50453480  0.17035124  1
  Fe  Fe23  1  0.67043676  0.33774399  0.33693635  1
  Fe  Fe24  1  0.67099370  0.67040695  1.00376543  1
  Fe  Fe25  1  0.83597622  0.83556085  0.16939809  1
  Ni  Ni26  1  0.66856243  0.67068119  0.33730084  1
  Fe  Fe27  1  0.17113251  0.16992676  0.50454076  1
  Fe  Fe28  1  1.00342397  0.00389520  0.67058011  1
  Fe  Fe29  1  0.16952470  0.17057054  0.83696911  1
  Cr  Cr30  1  0.17019911  0.50421353  0.50118906  1
  Fe  Fe31  1  1.00276174  0.33641228  0.67141522  1
  Ni  Ni32  1  0.17021571  0.50350140  0.83806588  1
  Fe  Fe33  1  0.17170682  0.83786940  0.50392543  1
  Fe  Fe34  1  1.00276126  0.67115668  0.67271253  1
  Fe  Fe35  1  0.16917071  0.83636083  0.83790590  1
  Fe  Fe36  1  0.50376887  0.17035623  0.50369110  1
  Fe  Fe37  1  0.33733987  1.00364223  0.67060104  1
  Fe  Fe38  1  0.50486184  0.17043847  0.83708394  1
  Fe  Fe39  1  0.50552487  0.50432241  0.50271304  1
  Fe  Fe40  1  0.33779157  0.33645192  0.67155687  1
  Fe  Fe41  1  0.50485644  0.50425784  0.83757929  1
  Fe  Fe42  1  0.50384464  0.83678490  0.50364576  1
  Fe  Fe43  1  0.33804361  0.67137150  0.67120302  1
  Ni  Ni44  1  0.50422285  0.83772883  0.83764099  1
  Fe  Fe45  1  0.83656349  0.17160620  0.50466592  1
  Fe  Fe46  1  0.67069864  1.00364468  0.67068142  1
  Ni  Ni47  1  0.83700789  0.17025483  0.83691448  1
  Fe  Fe48  1  0.83548221  0.50375038  0.50381768  1
  Fe  Fe49  1  0.67091592  0.33711712  0.67096270  1
  Ni  Ni50  1  0.83858572  0.50314438  0.83664743  1
  Fe  Fe51  1  0.83591331  0.83610977  0.50473786  1
  Fe  Fe52  1  0.67066348  0.67070530  0.67061165  1
  Ni  Ni53  1  0.83611952  0.83806557  0.83729588  1
" 