1061,Ni23Fe74Cr2_5,-232.542216169777, 181.389054642817,Ni23Fe74Cr2,"# generated using pymatgen
 data_Cr(Fe10Ni3)2
_symmetry_space_group_name_H-M   'P 1'
_cell_length_a   7.41249074
_cell_length_b   7.41249074
_cell_length_c   10.48284493
_cell_angle_alpha   90.00000000
_cell_angle_beta   90.00000000
_cell_angle_gamma   90.00000000
_symmetry_Int_Tables_number   1
_chemical_formula_structural   Cr(Fe10Ni3)2
_chemical_formula_sum   'Cr2 Fe40 Ni12'
_cell_volume   575.98011356
_cell_formula_units_Z   2
loop_
 _symmetry_equiv_pos_site_id
 _symmetry_equiv_pos_as_xyz
  1  'x, y, z'
loop_
 _atom_site_type_symbol
 _atom_site_label
 _atom_site_symmetry_multiplicity
 _atom_site_fract_x
 _atom_site_fract_y
 _atom_site_fract_z
 _atom_site_occupancy
  Fe  Fe0  1  1.00203263  0.00416024  0.00416205  1
  Fe  Fe1  1  0.17148046  0.17017106  0.16822987  1
  Cr  Cr2  1  0.00370091  1.00277935  0.33771314  1
  Fe  Fe3  1  1.00263603  0.33614924  0.00403746  1
  Fe  Fe4  1  0.17080627  0.50434787  0.16990557  1
  Cr  Cr5  1  1.00287362  0.33843338  0.33754253  1
  Fe  Fe6  1  1.00174935  0.67062832  1.00317613  1
  Fe  Fe7  1  0.17108158  0.83656139  0.16976948  1
  Fe  Fe8  1  1.00199489  0.67047443  0.33839424  1
  Fe  Fe9  1  0.33856996  0.00432212  1.00205022  1
  Fe  Fe10  1  0.50539147  0.17015464  0.17029091  1
  Fe  Fe11  1  0.33889364  0.00444149  0.33842166  1
  Fe  Fe12  1  0.33879964  0.33647912  1.00305323  1
  Fe  Fe13  1  0.50485574  0.50279783  0.17037960  1
  Fe  Fe14  1  0.33899268  0.33601006  0.33763680  1
  Fe  Fe15  1  0.33919652  0.67017018  1.00232580  1
  Fe  Fe16  1  0.50444182  0.83838647  0.17015048  1
  Fe  Fe17  1  0.33767777  0.67010367  0.33808576  1
  Ni  Ni18  1  0.67052788  0.00451128  1.00347313  1
  Ni  Ni19  1  0.83496896  0.17027503  0.16897062  1
  Ni  Ni20  1  0.66907429  0.00429518  0.33736039  1
  Ni  Ni21  1  0.67081264  0.33634682  0.00389233  1
  Fe  Fe22  1  0.83512460  0.50354500  0.16899518  1
  Ni  Ni23  1  0.66960690  0.33731902  0.33728182  1
  Fe  Fe24  1  0.66985284  0.67072770  1.00281061  1
  Fe  Fe25  1  0.83488781  0.83734665  0.17018682  1
  Fe  Fe26  1  0.67122269  0.67086363  0.33734587  1
  Fe  Fe27  1  0.17178270  0.16903037  0.50624386  1
  Fe  Fe28  1  1.00319337  1.00314735  0.66937698  1
  Fe  Fe29  1  0.17077848  0.16963682  0.83645690  1
  Ni  Ni30  1  0.17216600  0.50381444  0.50480526  1
  Fe  Fe31  1  0.00515494  0.33623713  0.66982170  1
  Fe  Fe32  1  0.17007109  0.50343450  0.83626545  1
  Ni  Ni33  1  0.16988562  0.83480497  0.50439125  1
  Fe  Fe34  1  1.00242492  0.67130871  0.66955707  1
  Fe  Fe35  1  0.16994261  0.83700946  0.83637786  1
  Fe  Fe36  1  0.50412569  0.16947926  0.50468769  1
  Ni  Ni37  1  0.33635611  1.00068237  0.67017808  1
  Fe  Fe38  1  0.50521322  0.17011989  0.83581469  1
  Fe  Fe39  1  0.50416031  0.50483962  0.50451282  1
  Fe  Fe40  1  0.33975986  0.33579678  0.67039324  1
  Fe  Fe41  1  0.50462617  0.50281939  0.83634817  1
  Fe  Fe42  1  0.50254341  0.83671797  0.50470913  1
  Ni  Ni43  1  0.33463770  0.67008069  0.67117376  1
  Fe  Fe44  1  0.50373560  0.83792999  0.83626259  1
  Fe  Fe45  1  0.83519413  0.17037665  0.50446964  1
  Ni  Ni46  1  0.67026774  0.00515798  0.67015489  1
  Fe  Fe47  1  0.83599618  0.17063441  0.83764613  1
  Fe  Fe48  1  0.83691904  0.50591722  0.50529026  1
  Ni  Ni49  1  0.67281094  0.33721998  0.66984324  1
  Fe  Fe50  1  0.83650699  0.50295278  0.83685314  1
  Ni  Ni51  1  0.83517540  0.83786400  0.50450336  1
  Fe  Fe52  1  0.66795751  0.67187132  0.67088763  1
  Fe  Fe53  1  0.83608410  0.83803819  0.83605693  1
" 