632,Ni23Fe60Cr16_7,-229.29338937017, 186.303708194034,Ni23Fe60Cr16,"# generated using pymatgen
 data_Cr5(Fe8Ni3)2
_symmetry_space_group_name_H-M   'P 1'
_cell_length_a   7.44764385
_cell_length_b   7.44764385
_cell_length_c   10.53255894
_cell_angle_alpha   90.00000000
_cell_angle_beta   90.00000000
_cell_angle_gamma   90.00000000
_symmetry_Int_Tables_number   1
_chemical_formula_structural   Cr5(Fe8Ni3)2
_chemical_formula_sum   'Cr10 Fe32 Ni12'
_cell_volume   584.21364815
_cell_formula_units_Z   2
loop_
 _symmetry_equiv_pos_site_id
 _symmetry_equiv_pos_as_xyz
  1  'x, y, z'
loop_
 _atom_site_type_symbol
 _atom_site_label
 _atom_site_symmetry_multiplicity
 _atom_site_fract_x
 _atom_site_fract_y
 _atom_site_fract_z
 _atom_site_occupancy
  Fe  Fe0  1  1.00123708  0.00160855  0.00213167  1
  Fe  Fe1  1  0.16795461  0.16736457  0.16905600  1
  Fe  Fe2  1  0.99972394  1.00005378  0.33359398  1
  Cr  Cr3  1  1.00001234  0.33492961  0.00132855  1
  Fe  Fe4  1  0.16709794  0.50212860  0.16947932  1
  Ni  Ni5  1  0.00190053  0.33722670  0.33407152  1
  Cr  Cr6  1  0.00159372  0.66739102  0.00416532  1
  Fe  Fe7  1  0.16825692  0.83441729  0.16856167  1
  Ni  Ni8  1  0.00348906  0.66604693  0.33415296  1
  Fe  Fe9  1  0.33517832  1.00129389  1.00107928  1
  Fe  Fe10  1  0.50270669  0.16574480  0.16820481  1
  Fe  Fe11  1  0.33519929  1.00087085  0.33450340  1
  Fe  Fe12  1  0.33721749  0.33383504  1.00082453  1
  Cr  Cr13  1  0.50035076  0.50011536  0.16625818  1
  Fe  Fe14  1  0.33480169  0.33475297  0.33543605  1
  Ni  Ni15  1  0.33554268  0.67029763  1.00038318  1
  Fe  Fe16  1  0.50148553  0.83695881  0.16694754  1
  Fe  Fe17  1  0.33229966  0.66828413  0.33513316  1
  Ni  Ni18  1  0.66528106  0.00254606  0.00253426  1
  Fe  Fe19  1  0.83324231  0.16690973  0.16852284  1
  Ni  Ni20  1  0.66606883  0.00277773  0.33493176  1
  Ni  Ni21  1  0.66719668  0.33255338  1.00000291  1
  Fe  Fe22  1  0.83578111  0.50090516  0.16893641  1
  Fe  Fe23  1  0.66902098  0.33270992  0.33537327  1
  Fe  Fe24  1  0.66624820  0.66767058  0.00140330  1
  Ni  Ni25  1  0.83576035  0.83703453  0.16811168  1
  Cr  Cr26  1  0.66969946  0.67039093  0.33457208  1
  Cr  Cr27  1  0.16598484  0.16804510  0.50059876  1
  Fe  Fe28  1  0.99973620  0.00330251  0.66818366  1
  Fe  Fe29  1  0.16719706  0.16663455  0.83477562  1
  Fe  Fe30  1  0.16817301  0.50184838  0.49980978  1
  Ni  Ni31  1  0.99857568  0.33494093  0.66833861  1
  Cr  Cr32  1  0.17141176  0.50040473  0.83419331  1
  Fe  Fe33  1  0.16883633  0.83290142  0.49979842  1
  Cr  Cr34  1  0.00186104  0.66569830  0.66601596  1
  Fe  Fe35  1  0.17080747  0.83574443  0.83555182  1
  Ni  Ni36  1  0.50422562  0.16905780  0.49912314  1
  Cr  Cr37  1  0.33769936  0.99954365  0.66942200  1
  Fe  Fe38  1  0.50350665  0.16817918  0.83580689  1
  Ni  Ni39  1  0.50096604  0.50109951  0.50234156  1
  Cr  Cr40  1  0.33519064  0.33527142  0.66861419  1
  Ni  Ni41  1  0.50234912  0.50163672  0.83534385  1
  Fe  Fe42  1  0.50164339  0.83544969  0.50138238  1
  Fe  Fe43  1  0.33715873  0.66808554  0.66790693  1
  Fe  Fe44  1  0.50064290  0.83346050  0.83557825  1
  Fe  Fe45  1  0.83221066  0.16849525  0.50145464  1
  Ni  Ni46  1  0.66717085  0.00195607  0.66643893  1
  Fe  Fe47  1  0.83319733  0.16934229  0.83392799  1
  Fe  Fe48  1  0.83475629  0.49898571  0.50103642  1
  Fe  Fe49  1  0.66897067  0.33447215  0.66825347  1
  Fe  Fe50  1  0.83092142  0.49866252  0.83393263  1
  Fe  Fe51  1  0.83343562  0.83643050  0.50071296  1
  Fe  Fe52  1  0.66564056  0.66675564  0.66716948  1
  Cr  Cr53  1  0.83372810  0.83712157  0.83493337  1
" 