163,Ni23Fe43Cr33_17,-224.820292503622, 187.022582743516,Ni23Fe43Cr33,"# generated using pymatgen
 data_Cr19Fe23Ni12
_symmetry_space_group_name_H-M   'P 1'
_cell_length_a   7.47468709
_cell_length_b   7.47468709
_cell_length_c   10.57080386
_cell_angle_alpha   90.00000000
_cell_angle_beta   90.00000000
_cell_angle_gamma   90.00000000
_symmetry_Int_Tables_number   1
_chemical_formula_structural   Cr19Fe23Ni12
_chemical_formula_sum   'Cr19 Fe23 Ni12'
_cell_volume   590.60082284
_cell_formula_units_Z   1
loop_
 _symmetry_equiv_pos_site_id
 _symmetry_equiv_pos_as_xyz
  1  'x, y, z'
loop_
 _atom_site_type_symbol
 _atom_site_label
 _atom_site_symmetry_multiplicity
 _atom_site_fract_x
 _atom_site_fract_y
 _atom_site_fract_z
 _atom_site_occupancy
  Ni  Ni0  1  0.99750876  0.99869427  -0.00018045  1
  Ni  Ni1  1  0.16518865  0.16499843  0.16471646  1
  Cr  Cr2  1  0.00005876  0.99758965  0.33213866  1
  Cr  Cr3  1  0.99820190  0.33091259  -0.00041069  1
  Ni  Ni4  1  0.16541729  0.49912347  0.16728801  1
  Fe  Fe5  1  0.99798822  0.33271878  0.32923637  1
  Cr  Cr6  1  0.99812338  0.66722080  0.00367481  1
  Fe  Fe7  1  0.16742894  0.83348919  0.16559612  1
  Fe  Fe8  1  0.99770119  0.66681734  0.33086699  1
  Fe  Fe9  1  0.33276575  0.00179991  -0.00040731  1
  Fe  Fe10  1  0.49972045  0.16544021  0.16645964  1
  Fe  Fe11  1  0.33396681  0.99797323  0.33177010  1
  Cr  Cr12  1  0.33430548  0.33363102  0.99935096  1
  Ni  Ni13  1  0.50102758  0.50173856  0.16655251  1
  Cr  Cr14  1  0.33365489  0.33243452  0.33138107  1
  Fe  Fe15  1  0.33434297  0.66590020  0.00138655  1
  Cr  Cr16  1  0.50182457  0.83509793  0.16307893  1
  Cr  Cr17  1  0.33229785  0.66624002  0.33424671  1
  Ni  Ni18  1  0.66819764  0.99945173  0.99789450  1
  Fe  Fe19  1  0.83161469  0.16418263  0.16659023  1
  Ni  Ni20  1  0.66824673  0.99809969  0.33231245  1
  Cr  Cr21  1  0.66559581  0.33251550  0.00140972  1
  Fe  Fe22  1  0.83185743  0.50014570  0.16902586  1
  Fe  Fe23  1  0.66697047  0.33346442  0.32926171  1
  Fe  Fe24  1  0.66677638  0.66707437  0.99851377  1
  Fe  Fe25  1  0.83158166  0.83367004  0.16556606  1
  Ni  Ni26  1  0.66712340  0.66743184  0.33262334  1
  Cr  Cr27  1  0.16530842  0.16710066  0.50237956  1
  Fe  Fe28  1  0.99737454  0.99901518  0.66792774  1
  Fe  Fe29  1  0.16589768  0.16420677  0.83277937  1
  Cr  Cr30  1  0.16410937  0.49831969  0.50042670  1
  Fe  Fe31  1  0.99857545  0.33215304  0.66882720  1
  Cr  Cr32  1  0.16584867  0.49894561  0.83122528  1
  Ni  Ni33  1  0.16582313  0.83319923  0.49715762  1
  Cr  Cr34  1  0.99724752  0.67079321  0.66391959  1
  Cr  Cr35  1  0.16599839  0.83294187  0.83698145  1
  Cr  Cr36  1  0.50149938  0.16436522  0.49539591  1
  Cr  Cr37  1  0.33315045  0.99909018  0.66483830  1
  Ni  Ni38  1  0.50073659  0.16408583  0.83423593  1
  Fe  Fe39  1  0.50131548  0.50005101  0.49912633  1
  Ni  Ni40  1  0.33475992  0.33129588  0.66814997  1
  Fe  Fe41  1  0.50112906  0.50180893  0.83364071  1
  Fe  Fe42  1  0.50323373  0.83180762  0.49801407  1
  Cr  Cr43  1  0.33649943  0.66609251  0.66422762  1
  Fe  Fe44  1  0.50179594  0.83329242  0.83453670  1
  Cr  Cr45  1  0.83151689  0.16611700  0.50069620  1
  Fe  Fe46  1  0.66546293  0.99697535  0.66793559  1
  Fe  Fe47  1  0.83303977  0.16261726  0.83285230  1
  Cr  Cr48  1  0.83168524  0.49960121  0.49693131  1
  Cr  Cr49  1  0.66339922  0.33301534  0.66844605  1
  Fe  Fe50  1  0.83085408  0.50204796  0.83257778  1
  Fe  Fe51  1  0.83044708  0.83363446  0.49939580  1
  Ni  Ni52  1  0.66661621  0.66788869  0.66687793  1
  Ni  Ni53  1  0.82959252  0.83408654  0.83295865  1
" 