7122,Ni23Fe19Cr57_14,-216.287530533047, 167.425857933961,Ni23Fe19Cr57,"# generated using pymatgen
 data_Cr16Fe5Ni6
_symmetry_space_group_name_H-M   'P 1'
_cell_length_a   7.53252177
_cell_length_b   7.53252177
_cell_length_c   10.65259444
_cell_angle_alpha   90.00000000
_cell_angle_beta   90.00000000
_cell_angle_gamma   90.00000000
_symmetry_Int_Tables_number   1
_chemical_formula_structural   Cr16Fe5Ni6
_chemical_formula_sum   'Cr32 Fe10 Ni12'
_cell_volume   604.41632207
_cell_formula_units_Z   2
loop_
 _symmetry_equiv_pos_site_id
 _symmetry_equiv_pos_as_xyz
  1  'x, y, z'
loop_
 _atom_site_type_symbol
 _atom_site_label
 _atom_site_symmetry_multiplicity
 _atom_site_fract_x
 _atom_site_fract_y
 _atom_site_fract_z
 _atom_site_occupancy
  Cr  Cr0  1  0.99341848  -0.00343946  0.99550681  1
  Cr  Cr1  1  0.16363585  0.16430552  0.16392994  1
  Cr  Cr2  1  0.99346643  -0.00296237  0.32885733  1
  Cr  Cr3  1  -0.00420503  0.32960801  -0.00195077  1
  Ni  Ni4  1  0.16704158  0.49465408  0.16214367  1
  Cr  Cr5  1  0.99403251  0.32979913  0.32726854  1
  Fe  Fe6  1  0.99313919  0.66357126  0.99486355  1
  Cr  Cr7  1  0.16195261  0.82780603  0.16254747  1
  Cr  Cr8  1  -0.00337378  0.66023073  0.33103160  1
  Cr  Cr9  1  0.33275397  0.99517141  0.99334298  1
  Ni  Ni10  1  0.49624296  0.16467229  0.16111170  1
  Cr  Cr11  1  0.33163295  -0.00391066  0.32926401  1
  Fe  Fe12  1  0.33193887  0.32858646  -0.00268956  1
  Ni  Ni13  1  0.49359710  0.49484540  0.16314889  1
  Fe  Fe14  1  0.33139433  0.33184636  0.32716493  1
  Cr  Cr15  1  0.32889298  0.66054959  -0.00382039  1
  Cr  Cr16  1  0.49897520  0.82670715  0.16232458  1
  Ni  Ni17  1  0.33087409  0.65896746  0.32687164  1
  Ni  Ni18  1  0.66203044  -0.00420183  0.99448670  1
  Ni  Ni19  1  0.82535731  0.16122263  0.15959612  1
  Cr  Cr20  1  0.66205801  -0.00181641  0.32744238  1
  Cr  Cr21  1  0.66092672  0.32639619  -0.00335970  1
  Cr  Cr22  1  0.82615521  0.49898703  0.16083773  1
  Cr  Cr23  1  0.66164488  0.32888585  0.32811127  1
  Ni  Ni24  1  0.66015218  0.66399246  0.99485017  1
  Cr  Cr25  1  0.82574619  0.82914255  0.16240468  1
  Ni  Ni26  1  0.65971333  0.65974964  0.33004340  1
  Cr  Cr27  1  0.16615235  0.16312659  0.49659222  1
  Cr  Cr28  1  0.99497454  0.99343184  0.66281478  1
  Cr  Cr29  1  0.16473838  0.16262306  0.82638674  1
  Cr  Cr30  1  0.16456827  0.49325458  0.49559805  1
  Cr  Cr31  1  0.99209836  0.33011908  0.66150218  1
  Cr  Cr32  1  0.16318907  0.49288144  0.83026777  1
  Cr  Cr33  1  0.16433167  0.83125647  0.49564970  1
  Cr  Cr34  1  0.99563852  0.66299926  0.66249882  1
  Fe  Fe35  1  0.16051726  0.82850835  0.82973360  1
  Fe  Fe36  1  0.49555990  0.16467142  0.49679085  1
  Fe  Fe37  1  0.33204094  -0.00240955  0.66355212  1
  Fe  Fe38  1  0.49804359  0.16230844  0.82893634  1
  Cr  Cr39  1  0.49701364  0.49501984  0.49528924  1
  Ni  Ni40  1  0.33338756  0.32625113  0.66239126  1
  Cr  Cr41  1  0.49720516  0.49396504  0.82857634  1
  Cr  Cr42  1  0.49672421  0.82904581  0.49371435  1
  Cr  Cr43  1  0.32902113  0.66444689  0.66449501  1
  Fe  Fe44  1  0.49914214  0.82941129  0.83051652  1
  Cr  Cr45  1  0.82839878  0.16351735  0.49676530  1
  Cr  Cr46  1  0.66060541  -0.00292083  0.66387477  1
  Fe  Fe47  1  0.82632092  0.16181202  0.82964360  1
  Ni  Ni48  1  0.82541905  0.49613705  0.49696595  1
  Ni  Ni49  1  0.65875849  0.32627798  0.66214424  1
  Cr  Cr50  1  0.82611996  0.49723153  0.82868299  1
  Fe  Fe51  1  0.82739298  0.82639749  0.49482408  1
  Cr  Cr52  1  0.66268661  0.66174028  0.66078220  1
  Ni  Ni53  1  0.82606725  0.83084034  0.83099200  1
" 