7803,Ni23Fe74Cr2_3,-232.47193766872, 184.912324515961,Ni23Fe74Cr2,"# generated using pymatgen
 data_Cr(Fe10Ni3)2
_symmetry_space_group_name_H-M   'P 1'
_cell_length_a   7.40980829
_cell_length_b   7.40980829
_cell_length_c   10.47905138
_cell_angle_alpha   90.00000000
_cell_angle_beta   90.00000000
_cell_angle_gamma   90.00000000
_symmetry_Int_Tables_number   1
_chemical_formula_structural   Cr(Fe10Ni3)2
_chemical_formula_sum   'Cr2 Fe40 Ni12'
_cell_volume   575.35502854
_cell_formula_units_Z   2
loop_
 _symmetry_equiv_pos_site_id
 _symmetry_equiv_pos_as_xyz
  1  'x, y, z'
loop_
 _atom_site_type_symbol
 _atom_site_label
 _atom_site_symmetry_multiplicity
 _atom_site_fract_x
 _atom_site_fract_y
 _atom_site_fract_z
 _atom_site_occupancy
  Fe  Fe0  1  0.00433645  0.00433309  1.00374732  1
  Fe  Fe1  1  0.17040896  0.17029944  0.17028628  1
  Ni  Ni2  1  0.00401892  0.00489024  0.33621754  1
  Fe  Fe3  1  0.00405626  0.33653308  1.00362749  1
  Fe  Fe4  1  0.16998185  0.50389075  0.17034310  1
  Fe  Fe5  1  1.00311522  0.33689916  0.33731444  1
  Fe  Fe6  1  0.00427039  0.67072033  0.00417102  1
  Fe  Fe7  1  0.17029971  0.83740236  0.17100217  1
  Fe  Fe8  1  1.00271979  0.67028198  0.33616973  1
  Ni  Ni9  1  0.33649204  0.00464347  1.00320173  1
  Fe  Fe10  1  0.50374762  0.17052814  0.17040928  1
  Ni  Ni11  1  0.33582829  0.00647208  0.33593776  1
  Fe  Fe12  1  0.33695879  0.33655866  1.00305153  1
  Fe  Fe13  1  0.50464207  0.50412434  0.17122229  1
  Fe  Fe14  1  0.33742941  0.33697066  0.33799404  1
  Fe  Fe15  1  0.33712414  0.67107726  1.00386061  1
  Fe  Fe16  1  0.50409218  0.83693697  0.17086155  1
  Fe  Fe17  1  0.33732966  0.66971736  0.33566877  1
  Fe  Fe18  1  0.67021621  0.00417013  1.00348331  1
  Fe  Fe19  1  0.83742856  0.17084270  0.17068709  1
  Fe  Fe20  1  0.67160724  0.00450683  0.33654875  1
  Fe  Fe21  1  0.67057169  0.33662500  0.00400861  1
  Ni  Ni22  1  0.83684337  0.50361574  0.17012518  1
  Fe  Fe23  1  0.67104261  0.33706478  0.33754831  1
  Fe  Fe24  1  0.67019253  0.67079179  0.00416887  1
  Fe  Fe25  1  0.83719490  0.83650538  0.17098960  1
  Ni  Ni26  1  0.67209241  0.66882311  0.33642878  1
  Fe  Fe27  1  0.17057530  0.17276719  0.50405776  1
  Fe  Fe28  1  1.00270803  0.00538618  0.67114823  1
  Ni  Ni29  1  0.16996507  0.16957282  0.83721408  1
  Fe  Fe30  1  0.17054605  0.50158657  0.50424043  1
  Fe  Fe31  1  1.00339365  0.33721727  0.67064706  1
  Fe  Fe32  1  0.17026350  0.50260801  0.83700219  1
  Cr  Cr33  1  0.17072706  0.83766252  0.50400755  1
  Fe  Fe34  1  1.00296096  0.66898074  0.67124845  1
  Fe  Fe35  1  0.17022513  0.83847583  0.83732988  1
  Fe  Fe36  1  0.50400742  0.17303444  0.50379091  1
  Fe  Fe37  1  0.33746223  0.00560965  0.67259554  1
  Fe  Fe38  1  0.50324611  0.17042708  0.83738300  1
  Ni  Ni39  1  0.50480493  0.50308960  0.50328114  1
  Ni  Ni40  1  0.33671644  0.33647667  0.67019548  1
  Fe  Fe41  1  0.50379194  0.50289094  0.83612328  1
  Cr  Cr42  1  0.50378367  0.83617605  0.50342803  1
  Fe  Fe43  1  0.33790557  0.66806054  0.67205500  1
  Fe  Fe44  1  0.50390081  0.83826863  0.83709711  1
  Ni  Ni45  1  0.83768932  0.17195606  0.50328842  1
  Fe  Fe46  1  0.67141856  0.00517743  0.67155412  1
  Ni  Ni47  1  0.83809624  0.17086854  0.83829772  1
  Ni  Ni48  1  0.83610664  0.50223973  0.50416371  1
  Fe  Fe49  1  0.67049857  0.33765870  0.67002995  1
  Fe  Fe50  1  0.83753348  0.50326570  0.83718534  1
  Fe  Fe51  1  0.83646084  0.83638708  0.50369822  1
  Ni  Ni52  1  0.67227761  0.66956603  0.67153420  1
  Fe  Fe53  1  0.83746331  0.83793490  0.83689781  1
" 