1766,Ni23Fe74Cr2_1,-232.340554788738, 191.156846363556,Ni23Fe74Cr2,"# generated using pymatgen
 data_Cr(Fe10Ni3)2
_symmetry_space_group_name_H-M   'P 1'
_cell_length_a   7.40413041
_cell_length_b   7.40413041
_cell_length_c   10.47102164
_cell_angle_alpha   90.00000000
_cell_angle_beta   90.00000000
_cell_angle_gamma   90.00000000
_symmetry_Int_Tables_number   1
_chemical_formula_structural   Cr(Fe10Ni3)2
_chemical_formula_sum   'Cr2 Fe40 Ni12'
_cell_volume   574.03341703
_cell_formula_units_Z   2
loop_
 _symmetry_equiv_pos_site_id
 _symmetry_equiv_pos_as_xyz
  1  'x, y, z'
loop_
 _atom_site_type_symbol
 _atom_site_label
 _atom_site_symmetry_multiplicity
 _atom_site_fract_x
 _atom_site_fract_y
 _atom_site_fract_z
 _atom_site_occupancy
  Fe  Fe0  1  1.00179915  1.00405693  1.00392833  1
  Fe  Fe1  1  0.17033960  0.17162553  0.17260255  1
  Fe  Fe2  1  0.00545242  0.00632670  0.33694013  1
  Fe  Fe3  1  1.00368578  0.33696605  0.00473956  1
  Fe  Fe4  1  0.17075211  0.50411546  0.17144031  1
  Ni  Ni5  1  0.00433987  0.33777688  0.33821514  1
  Ni  Ni6  1  1.00398275  0.67053259  1.00424418  1
  Fe  Fe7  1  0.16997062  0.83700151  0.17136711  1
  Fe  Fe8  1  0.00555052  0.66909484  0.33660785  1
  Cr  Cr9  1  0.33881858  1.00420794  1.00418485  1
  Fe  Fe10  1  0.50538561  0.17121406  0.17159679  1
  Fe  Fe11  1  0.33715618  0.00503250  0.33742669  1
  Fe  Fe12  1  0.33751700  0.33913998  0.00467384  1
  Fe  Fe13  1  0.50444890  0.50400588  0.17107877  1
  Ni  Ni14  1  0.33694801  0.33723614  0.33785507  1
  Fe  Fe15  1  0.33781319  0.67004011  1.00401417  1
  Ni  Ni16  1  0.50524458  0.83621010  0.17161575  1
  Fe  Fe17  1  0.33728334  0.67015631  0.33801024  1
  Ni  Ni18  1  0.67199622  0.00450891  1.00394867  1
  Ni  Ni19  1  0.83791560  0.17039697  0.17109703  1
  Fe  Fe20  1  0.67013832  0.00572040  0.33586470  1
  Fe  Fe21  1  0.67154680  0.33704522  1.00369205  1
  Fe  Fe22  1  0.83754531  0.50437517  0.17101110  1
  Fe  Fe23  1  0.67120517  0.33745338  0.33784586  1
  Fe  Fe24  1  0.67105114  0.67193653  0.00437909  1
  Fe  Fe25  1  0.83713401  0.83793357  0.17026039  1
  Fe  Fe26  1  0.66991285  0.66956820  0.33664525  1
  Ni  Ni27  1  0.17135523  0.17274751  0.50423621  1
  Fe  Fe28  1  0.00483149  0.00518776  0.67188165  1
  Fe  Fe29  1  0.16942418  0.17117682  0.83641062  1
  Ni  Ni30  1  0.17197391  0.50295839  0.50424262  1
  Fe  Fe31  1  0.00445217  0.33775146  0.67020109  1
  Fe  Fe32  1  0.17009611  0.50476172  0.83731718  1
  Fe  Fe33  1  0.17259269  0.83739042  0.50457193  1
  Fe  Fe34  1  0.00495040  0.66980661  0.67214961  1
  Fe  Fe35  1  0.16925900  0.83680926  0.83680804  1
  Fe  Fe36  1  0.50356029  0.17153808  0.50431177  1
  Fe  Fe37  1  0.33781365  0.00439177  0.67081345  1
  Fe  Fe38  1  0.50625990  0.17130934  0.83683418  1
  Fe  Fe39  1  0.50342845  0.50381704  0.50457303  1
  Fe  Fe40  1  0.33765082  0.33801051  0.67013586  1
  Fe  Fe41  1  0.50506831  0.50411629  0.83709189  1
  Fe  Fe42  1  0.50164605  0.83739183  0.50394902  1
  Ni  Ni43  1  0.33693805  0.67193464  0.67082931  1
  Fe  Fe44  1  0.50577073  0.83732173  0.83722982  1
  Fe  Fe45  1  0.83839791  0.17321420  0.50424709  1
  Fe  Fe46  1  0.67009968  0.00488723  0.67256751  1
  Ni  Ni47  1  0.83756847  0.16959949  0.83717607  1
  Fe  Fe48  1  0.83840200  0.50201530  0.50418271  1
  Ni  Ni49  1  0.67179329  0.33698343  0.67007284  1
  Fe  Fe50  1  0.83758174  0.50427310  0.83755227  1
  Cr  Cr51  1  0.83676815  0.83784065  0.50396865  1
  Fe  Fe52  1  0.66984673  0.66997420  0.67172626  1
  Ni  Ni53  1  0.83697172  0.83854807  0.83906856  1
" 