931,Ni23Fe35Cr40_15,-222.730675838131, 188.943688935011,Ni23Fe35Cr40,"# generated using pymatgen
 data_Cr23Fe19Ni12
_symmetry_space_group_name_H-M   'P 1'
_cell_length_a   7.48905552
_cell_length_b   7.48905552
_cell_length_c   10.59112388
_cell_angle_alpha   90.00000000
_cell_angle_beta   90.00000000
_cell_angle_gamma   90.00000000
_symmetry_Int_Tables_number   1
_chemical_formula_structural   Cr23Fe19Ni12
_chemical_formula_sum   'Cr23 Fe19 Ni12'
_cell_volume   594.01327172
_cell_formula_units_Z   1
loop_
 _symmetry_equiv_pos_site_id
 _symmetry_equiv_pos_as_xyz
  1  'x, y, z'
loop_
 _atom_site_type_symbol
 _atom_site_label
 _atom_site_symmetry_multiplicity
 _atom_site_fract_x
 _atom_site_fract_y
 _atom_site_fract_z
 _atom_site_occupancy
  Fe  Fe0  1  0.99716597  0.99839328  0.99592980  1
  Ni  Ni1  1  0.16471512  0.16623547  0.16222518  1
  Fe  Fe2  1  0.00061136  -0.00005282  0.33194579  1
  Fe  Fe3  1  0.99822364  0.32749795  0.99587418  1
  Cr  Cr4  1  0.16533603  0.49647034  0.16632170  1
  Fe  Fe5  1  0.00018857  0.32847398  0.33247828  1
  Cr  Cr6  1  0.99835800  0.66764991  0.99592734  1
  Fe  Fe7  1  0.16516801  0.83527448  0.16587608  1
  Cr  Cr8  1  0.00254985  0.66639120  0.33296033  1
  Cr  Cr9  1  0.33047950  0.99851564  -0.00131143  1
  Ni  Ni10  1  0.49790797  0.16297150  0.16386122  1
  Cr  Cr11  1  0.33133825  -0.00060286  0.33036360  1
  Fe  Fe12  1  0.33241813  0.32987678  0.99830036  1
  Cr  Cr13  1  0.49737934  0.49880675  0.16271877  1
  Cr  Cr14  1  0.33227733  0.32977995  0.33439833  1
  Cr  Cr15  1  0.33111341  0.66958260  0.00033894  1
  Ni  Ni16  1  0.49909213  0.83521750  0.16543992  1
  Fe  Fe17  1  0.33336671  0.66707280  0.33262300  1
  Ni  Ni18  1  0.66530747  0.00000265  0.99784961  1
  Cr  Cr19  1  0.83236891  0.16363855  0.16575390  1
  Ni  Ni20  1  0.66260853  0.00001320  0.33171093  1
  Fe  Fe21  1  0.66471076  0.32921909  0.99690420  1
  Cr  Cr22  1  0.83359525  0.49648639  0.16327656  1
  Cr  Cr23  1  0.66349298  0.32881920  0.33272520  1
  Cr  Cr24  1  0.66598118  0.66712149  0.99451765  1
  Cr  Cr25  1  0.82976711  0.83428842  0.16682807  1
  Cr  Cr26  1  0.66450834  0.66491316  0.33211230  1
  Cr  Cr27  1  0.16537377  0.16558246  0.50285073  1
  Fe  Fe28  1  0.00056638  0.99839953  0.66734169  1
  Fe  Fe29  1  0.16319590  0.16191672  0.83036873  1
  Fe  Fe30  1  0.16683685  0.49852411  0.50098580  1
  Ni  Ni31  1  -0.00140285  0.33079427  0.66645158  1
  Cr  Cr32  1  0.16650582  0.49463555  0.83179992  1
  Ni  Ni33  1  0.16528545  0.83095475  0.49914019  1
  Fe  Fe34  1  -0.00097001  0.66493010  0.66685569  1
  Ni  Ni35  1  0.16402309  0.83227909  0.83013180  1
  Ni  Ni36  1  0.49752646  0.16452033  0.50060718  1
  Fe  Fe37  1  0.33037050  -0.00008834  0.66648861  1
  Cr  Cr38  1  0.49632411  0.16526450  0.83162357  1
  Fe  Fe39  1  0.49607427  0.49800829  0.50003002  1
  Ni  Ni40  1  0.33116503  0.33102723  0.66519332  1
  Fe  Fe41  1  0.49784354  0.50070680  0.83115668  1
  Cr  Cr42  1  0.49936986  0.83519803  0.50000246  1
  Cr  Cr43  1  0.33127980  0.66779018  0.66450332  1
  Ni  Ni44  1  0.50013536  0.83357136  0.83043695  1
  Cr  Cr45  1  0.83136368  0.16252554  0.49716930  1
  Fe  Fe46  1  0.66455525  -0.00040450  0.66702323  1
  Fe  Fe47  1  0.83355617  0.16210139  0.83187918  1
  Cr  Cr48  1  0.83532230  0.49855959  0.49908248  1
  Cr  Cr49  1  0.66498549  0.33131787  0.66449130  1
  Fe  Fe50  1  0.83191517  0.49883054  0.82990802  1
  Cr  Cr51  1  0.83217067  0.83371350  0.50072782  1
  Fe  Fe52  1  0.66599018  0.66455859  0.66810780  1
  Ni  Ni53  1  0.83126367  0.83338168  0.82834855  1
" 