1021,Ni23Fe19Cr57_19,-216.154473118517, 164.566671879467,Ni23Fe19Cr57,"# generated using pymatgen
 data_Cr16Fe5Ni6
_symmetry_space_group_name_H-M   'P 1'
_cell_length_a   7.53426917
_cell_length_b   7.53426917
_cell_length_c   10.65506564
_cell_angle_alpha   90.00000000
_cell_angle_beta   90.00000000
_cell_angle_gamma   90.00000000
_symmetry_Int_Tables_number   1
_chemical_formula_structural   Cr16Fe5Ni6
_chemical_formula_sum   'Cr32 Fe10 Ni12'
_cell_volume   604.83705917
_cell_formula_units_Z   2
loop_
 _symmetry_equiv_pos_site_id
 _symmetry_equiv_pos_as_xyz
  1  'x, y, z'
loop_
 _atom_site_type_symbol
 _atom_site_label
 _atom_site_symmetry_multiplicity
 _atom_site_fract_x
 _atom_site_fract_y
 _atom_site_fract_z
 _atom_site_occupancy
  Cr  Cr0  1  -0.00271805  0.99490616  -0.00324834  1
  Fe  Fe1  1  0.16179072  0.16491575  0.16491789  1
  Cr  Cr2  1  -0.00360264  0.99402154  0.32674963  1
  Cr  Cr3  1  -0.00444887  0.32834653  -0.00216456  1
  Fe  Fe4  1  0.16179995  0.49559677  0.16422510  1
  Ni  Ni5  1  0.99522078  0.33244137  0.32798562  1
  Cr  Cr6  1  0.99486743  0.66343742  -0.00189172  1
  Fe  Fe7  1  0.16140157  0.82645431  0.16407985  1
  Fe  Fe8  1  0.99530928  0.66085428  0.32900871  1
  Cr  Cr9  1  0.32823384  -0.00434417  -0.00067454  1
  Cr  Cr10  1  0.49662842  0.16186597  0.16549538  1
  Cr  Cr11  1  0.33084448  0.99472449  0.32663230  1
  Cr  Cr12  1  0.32840547  0.32599771  -0.00436642  1
  Cr  Cr13  1  0.49730638  0.49817650  0.16014230  1
  Cr  Cr14  1  0.32871608  0.32977668  0.33084839  1
  Cr  Cr15  1  0.32797407  0.66511626  -0.00261494  1
  Ni  Ni16  1  0.49479010  0.82824586  0.16318721  1
  Cr  Cr17  1  0.32677239  0.66220917  0.33147220  1
  Cr  Cr18  1  0.66142696  0.99534101  -0.00321397  1
  Cr  Cr19  1  0.83064064  0.16451005  0.16662845  1
  Ni  Ni20  1  0.66206013  0.99500860  0.32845730  1
  Cr  Cr21  1  0.66309992  0.32826350  0.99341404  1
  Ni  Ni22  1  0.83331373  0.49858781  0.16463840  1
  Fe  Fe23  1  0.66278548  0.32940769  0.33123082  1
  Ni  Ni24  1  0.66381274  0.66428861  -0.00056108  1
  Fe  Fe25  1  0.82483097  0.82809217  0.16394549  1
  Cr  Cr26  1  0.66176508  0.66149229  0.32926702  1
  Cr  Cr27  1  0.16245175  0.16168578  0.49589797  1
  Fe  Fe28  1  -0.00262991  0.99504986  0.66087228  1
  Cr  Cr29  1  0.16307574  0.16144557  0.82724032  1
  Fe  Fe30  1  0.16194029  0.49287165  0.49481597  1
  Cr  Cr31  1  0.99408016  0.33122803  0.66144496  1
  Cr  Cr32  1  0.16375480  0.49552575  0.82857217  1
  Fe  Fe33  1  0.16291856  0.83030191  0.49538181  1
  Cr  Cr34  1  -0.00344157  0.66274275  0.65811719  1
  Fe  Fe35  1  0.16355732  0.83024039  0.82658743  1
  Ni  Ni36  1  0.49410769  0.16210449  0.49578522  1
  Ni  Ni37  1  0.32924557  -0.00375869  0.66135676  1
  Ni  Ni38  1  0.49158647  0.15864437  0.82443308  1
  Ni  Ni39  1  0.49528984  0.49290257  0.49547375  1
  Ni  Ni40  1  0.32963843  0.32570871  0.65972521  1
  Cr  Cr41  1  0.49371410  0.49540801  0.83095594  1
  Cr  Cr42  1  0.49611234  0.83152605  0.49535485  1
  Cr  Cr43  1  0.32797666  0.66155134  0.65818841  1
  Cr  Cr44  1  0.49606663  0.82819138  0.82970305  1
  Cr  Cr45  1  0.82813734  0.16151613  0.49371158  1
  Ni  Ni46  1  0.65850320  -0.00310593  0.66101143  1
  Cr  Cr47  1  0.82863349  0.15901315  0.82522685  1
  Ni  Ni48  1  0.83119967  0.49522883  0.49062670  1
  Cr  Cr49  1  0.66000130  0.32823993  0.65962258  1
  Cr  Cr50  1  0.82861927  0.49790408  0.83190815  1
  Cr  Cr51  1  0.82940393  0.82983643  0.49509774  1
  Cr  Cr52  1  0.66316534  0.65990302  0.66097864  1
  Cr  Cr53  1  0.82896767  0.82946317  0.82742251  1
" 