8087,Ni23Fe77_15,-242.734614564863, 210.907160771522,Ni23Fe77,"# generated using pymatgen
 data_Fe2Ni7
_symmetry_space_group_name_H-M   'P 1'
_cell_length_a   7.41834241
_cell_length_b   7.41834241
_cell_length_c   10.49112044
_cell_angle_alpha   90.00000000
_cell_angle_beta   90.00000000
_cell_angle_gamma   90.00000000
_symmetry_Int_Tables_number   1
_chemical_formula_structural   Fe2Ni7
_chemical_formula_sum   'Fe12 Ni42'
_cell_volume   577.34528503
_cell_formula_units_Z   6
loop_
 _symmetry_equiv_pos_site_id
 _symmetry_equiv_pos_as_xyz
  1  'x, y, z'
loop_
 _atom_site_type_symbol
 _atom_site_label
 _atom_site_symmetry_multiplicity
 _atom_site_fract_x
 _atom_site_fract_y
 _atom_site_fract_z
 _atom_site_occupancy
  Ni  Ni0  1  1.00318915  1.00243218  0.00391610  1
  Fe  Fe1  1  0.17008028  0.16948603  0.16947137  1
  Ni  Ni2  1  1.00313656  1.00252413  0.33610846  1
  Ni  Ni3  1  0.00349528  0.33770735  0.00356338  1
  Fe  Fe4  1  0.16943152  0.50329284  0.16988491  1
  Ni  Ni5  1  0.00421167  0.33772511  0.33613384  1
  Ni  Ni6  1  1.00291363  0.66970612  0.00356565  1
  Ni  Ni7  1  0.16959884  0.83702754  0.16932901  1
  Ni  Ni8  1  1.00201467  0.66960053  0.33676439  1
  Ni  Ni9  1  0.33744824  0.00378021  0.00353757  1
  Ni  Ni10  1  0.50371659  0.17006360  0.16862553  1
  Ni  Ni11  1  0.33754023  0.00398216  0.33643571  1
  Ni  Ni12  1  0.33714170  0.33636550  1.00318577  1
  Ni  Ni13  1  0.50342665  0.50272709  0.17008041  1
  Ni  Ni14  1  0.33647782  0.33627751  0.33646099  1
  Fe  Fe15  1  0.33661350  0.66995110  1.00268684  1
  Ni  Ni16  1  0.50265449  0.83705722  0.17040328  1
  Fe  Fe17  1  0.33630328  0.67065880  0.33726057  1
  Ni  Ni18  1  0.66921253  1.00319530  0.00370763  1
  Ni  Ni19  1  0.83679491  0.17006098  0.17025459  1
  Ni  Ni20  1  0.66917419  1.00178608  0.33633760  1
  Ni  Ni21  1  0.66921064  0.33663574  0.00407418  1
  Ni  Ni22  1  0.83681747  0.50247608  0.16925666  1
  Fe  Fe23  1  0.67019197  0.33636904  0.33626177  1
  Fe  Fe24  1  0.66982080  0.66988909  0.00381433  1
  Ni  Ni25  1  0.83758957  0.83730723  0.16958485  1
  Ni  Ni26  1  0.67062447  0.67066427  0.33622735  1
  Fe  Fe27  1  0.17053782  0.17001319  0.50369393  1
  Ni  Ni28  1  0.00334757  1.00274407  0.66982439  1
  Ni  Ni29  1  0.16839386  0.17054309  0.83656438  1
  Ni  Ni30  1  0.16948338  0.50347335  0.50340728  1
  Ni  Ni31  1  0.00368664  0.33749010  0.67015196  1
  Ni  Ni32  1  0.17028129  0.50236379  0.83666949  1
  Ni  Ni33  1  0.16948058  0.83648960  0.50435961  1
  Ni  Ni34  1  1.00307426  0.66961161  0.66951947  1
  Fe  Fe35  1  0.17018279  0.83684615  0.83650787  1
  Ni  Ni36  1  0.50332126  0.16985999  0.50443088  1
  Ni  Ni37  1  0.33718178  0.00332432  0.66987584  1
  Fe  Fe38  1  0.50275392  0.17042427  0.83667717  1
  Ni  Ni39  1  0.50304465  0.50270736  0.50363495  1
  Ni  Ni40  1  0.33684038  0.33691103  0.67020037  1
  Ni  Ni41  1  0.50244731  0.50393457  0.83613147  1
  Ni  Ni42  1  0.50307385  0.83728076  0.50300904  1
  Ni  Ni43  1  0.33687769  0.66961511  0.66942035  1
  Ni  Ni44  1  0.50324647  0.83617027  0.83643538  1
  Fe  Fe45  1  0.83638826  0.16971513  0.50363777  1
  Ni  Ni46  1  0.66931943  1.00270768  0.66980186  1
  Ni  Ni47  1  0.83788590  0.16974708  0.83635585  1
  Ni  Ni48  1  0.83732066  0.50322597  0.50412690  1
  Ni  Ni49  1  0.66931989  0.33718543  0.66936170  1
  Fe  Fe50  1  0.83690329  0.50258098  0.83644871  1
  Ni  Ni51  1  0.83729118  0.83676102  0.50349480  1
  Ni  Ni52  1  0.66989766  0.66995492  0.67020870  1
  Fe  Fe53  1  0.83685635  0.83683911  0.83638591  1
" 