4178,Ni23Fe19Cr57_4,-216.400962345805, 167.271226867555,Ni23Fe19Cr57,"# generated using pymatgen
 data_Cr16Fe5Ni6
_symmetry_space_group_name_H-M   'P 1'
_cell_length_a   7.53308886
_cell_length_b   7.53308886
_cell_length_c   10.65339643
_cell_angle_alpha   90.00000000
_cell_angle_beta   90.00000000
_cell_angle_gamma   90.00000000
_symmetry_Int_Tables_number   1
_chemical_formula_structural   Cr16Fe5Ni6
_chemical_formula_sum   'Cr32 Fe10 Ni12'
_cell_volume   604.55284347
_cell_formula_units_Z   2
loop_
 _symmetry_equiv_pos_site_id
 _symmetry_equiv_pos_as_xyz
  1  'x, y, z'
loop_
 _atom_site_type_symbol
 _atom_site_label
 _atom_site_symmetry_multiplicity
 _atom_site_fract_x
 _atom_site_fract_y
 _atom_site_fract_z
 _atom_site_occupancy
  Cr  Cr0  1  0.99376560  -0.00051543  0.99450336  1
  Ni  Ni1  1  0.15888236  0.16540851  0.16292197  1
  Cr  Cr2  1  -0.00419749  -0.00322862  0.32837989  1
  Ni  Ni3  1  0.99487019  0.32765616  -0.00084951  1
  Fe  Fe4  1  0.15864213  0.49299092  0.16337289  1
  Ni  Ni5  1  0.99246169  0.33077720  0.32495483  1
  Cr  Cr6  1  0.99455076  0.66064725  -0.00282890  1
  Cr  Cr7  1  0.16333362  0.82909702  0.16379793  1
  Ni  Ni8  1  0.99303056  0.65965305  0.32998317  1
  Cr  Cr9  1  0.32905421  -0.00353308  0.99521441  1
  Cr  Cr10  1  0.49690878  0.16105806  0.16570273  1
  Ni  Ni11  1  0.32971683  -0.00221565  0.32894080  1
  Cr  Cr12  1  0.32644077  0.32907669  0.99481980  1
  Cr  Cr13  1  0.49782474  0.49530171  0.16151854  1
  Cr  Cr14  1  0.32867247  0.32711478  0.33058629  1
  Cr  Cr15  1  0.33077287  0.66119189  0.99508794  1
  Cr  Cr16  1  0.49551980  0.83063165  0.16388046  1
  Cr  Cr17  1  0.32827064  0.66172506  0.32848752  1
  Cr  Cr18  1  0.66410868  0.99517602  0.99321023  1
  Fe  Fe19  1  0.83066014  0.16556265  0.16318505  1
  Fe  Fe20  1  0.66186469  -0.00137105  0.32985864  1
  Cr  Cr21  1  0.66459545  0.32831744  0.99391033  1
  Fe  Fe22  1  0.83201852  0.49215435  0.16402878  1
  Ni  Ni23  1  0.66456423  0.32898724  0.33085704  1
  Cr  Cr24  1  0.66159925  0.66326431  0.99358989  1
  Cr  Cr25  1  0.82796179  0.82835263  0.16327038  1
  Cr  Cr26  1  0.66474589  0.66050480  0.33038618  1
  Cr  Cr27  1  0.16269273  0.16100966  0.49585868  1
  Ni  Ni28  1  0.99256142  0.99338460  0.66397380  1
  Cr  Cr29  1  0.15923030  0.16244698  0.82828128  1
  Cr  Cr30  1  0.15937712  0.49698403  0.49545589  1
  Cr  Cr31  1  0.99356458  0.32693324  0.66190621  1
  Cr  Cr32  1  0.16127667  0.49568859  0.82975473  1
  Cr  Cr33  1  0.15987444  0.82873071  0.49661412  1
  Fe  Fe34  1  0.99329838  0.66398372  0.66126008  1
  Cr  Cr35  1  0.16200677  0.82869786  0.82649149  1
  Ni  Ni36  1  0.49933089  0.16482899  0.49430107  1
  Cr  Cr37  1  0.32864886  -0.00279046  0.66224197  1
  Fe  Fe38  1  0.49827817  0.16252938  0.82747342  1
  Ni  Ni39  1  0.50012153  0.49240363  0.49692019  1
  Cr  Cr40  1  0.33348600  0.32925066  0.66159229  1
  Fe  Fe41  1  0.49703381  0.49476014  0.82754653  1
  Cr  Cr42  1  0.49576642  0.83116491  0.49081566  1
  Cr  Cr43  1  0.33095549  0.66042945  0.66312246  1
  Ni  Ni44  1  0.49719031  0.82870978  0.83028837  1
  Cr  Cr45  1  0.82630987  0.16429462  0.49482038  1
  Cr  Cr46  1  0.66495725  -0.00339007  0.66410715  1
  Ni  Ni47  1  0.82767559  0.16288073  0.82928098  1
  Fe  Fe48  1  0.82712256  0.49440675  0.49436231  1
  Ni  Ni49  1  0.66129454  0.32933847  0.66214514  1
  Cr  Cr50  1  0.82855176  0.49295748  0.82828414  1
  Fe  Fe51  1  0.82990859  0.82813152  0.49555653  1
  Cr  Cr52  1  0.66302313  0.66085648  0.66243741  1
  Fe  Fe53  1  0.82911946  0.83088838  0.82763290  1
" 