4706,Ni23Fe74Cr2_19,-232.836879146391, 188.291672940078,Ni23Fe74Cr2,"# generated using pymatgen
 data_Cr(Fe10Ni3)2
_symmetry_space_group_name_H-M   'P 1'
_cell_length_a   7.41067918
_cell_length_b   7.41067918
_cell_length_c   10.48028301
_cell_angle_alpha   90.00000000
_cell_angle_beta   90.00000000
_cell_angle_gamma   90.00000000
_symmetry_Int_Tables_number   1
_chemical_formula_structural   Cr(Fe10Ni3)2
_chemical_formula_sum   'Cr2 Fe40 Ni12'
_cell_volume   575.55792147
_cell_formula_units_Z   2
loop_
 _symmetry_equiv_pos_site_id
 _symmetry_equiv_pos_as_xyz
  1  'x, y, z'
loop_
 _atom_site_type_symbol
 _atom_site_label
 _atom_site_symmetry_multiplicity
 _atom_site_fract_x
 _atom_site_fract_y
 _atom_site_fract_z
 _atom_site_occupancy
  Fe  Fe0  1  0.00397753  0.00400817  0.00420573  1
  Ni  Ni1  1  0.17127542  0.17037747  0.17116436  1
  Fe  Fe2  1  1.00358506  0.00417377  0.33687566  1
  Ni  Ni3  1  0.00442907  0.33548918  1.00341079  1
  Fe  Fe4  1  0.17120481  0.50198964  0.17013553  1
  Fe  Fe5  1  0.00486863  0.33700871  0.33787773  1
  Fe  Fe6  1  0.00460250  0.67130350  1.00309051  1
  Fe  Fe7  1  0.16960209  0.83864697  0.16942148  1
  Fe  Fe8  1  1.00269904  0.67022498  0.33825481  1
  Ni  Ni9  1  0.33662835  1.00291046  0.00418250  1
  Fe  Fe10  1  0.50315004  0.17090302  0.17086381  1
  Fe  Fe11  1  0.33795358  0.00617987  0.33627889  1
  Fe  Fe12  1  0.33679235  0.33691748  0.00479471  1
  Fe  Fe13  1  0.50311276  0.50249894  0.17024727  1
  Ni  Ni14  1  0.33685312  0.33557265  0.33708796  1
  Fe  Fe15  1  0.33733930  0.67071333  1.00311049  1
  Fe  Fe16  1  0.50457473  0.83800404  0.16879005  1
  Cr  Cr17  1  0.33767030  0.67016250  0.33550677  1
  Fe  Fe18  1  0.67029064  1.00346441  1.00345885  1
  Fe  Fe19  1  0.83774253  0.16930396  0.17046885  1
  Fe  Fe20  1  0.66987282  0.00401293  0.33724850  1
  Fe  Fe21  1  0.66970119  0.33629625  1.00291943  1
  Cr  Cr22  1  0.83689061  0.50410262  0.17171366  1
  Ni  Ni23  1  0.67019909  0.33649320  0.33742174  1
  Ni  Ni24  1  0.66909147  0.67174773  1.00271431  1
  Fe  Fe25  1  0.83723011  0.83868953  0.17064114  1
  Ni  Ni26  1  0.67099914  0.67116816  0.33892425  1
  Fe  Fe27  1  0.17042992  0.17124030  0.50321727  1
  Fe  Fe28  1  1.00366252  0.00426493  0.67033105  1
  Fe  Fe29  1  0.17065960  0.17007434  0.83806315  1
  Ni  Ni30  1  0.16910667  0.50248565  0.50393726  1
  Ni  Ni31  1  1.00277885  0.33629699  0.66971167  1
  Fe  Fe32  1  0.17062220  0.50412210  0.83630254  1
  Fe  Fe33  1  0.16982336  0.83726114  0.50491996  1
  Fe  Fe34  1  0.00417897  0.66928284  0.67006972  1
  Fe  Fe35  1  0.17153790  0.83721077  0.83706508  1
  Fe  Fe36  1  0.50358615  0.17164603  0.50347996  1
  Fe  Fe37  1  0.33743830  0.00399202  0.67130040  1
  Fe  Fe38  1  0.50386576  0.16986516  0.83706781  1
  Fe  Fe39  1  0.50441018  0.50275781  0.50422597  1
  Fe  Fe40  1  0.33683535  0.33793722  0.66958110  1
  Fe  Fe41  1  0.50420040  0.50463538  0.83693155  1
  Fe  Fe42  1  0.50405013  0.83700716  0.50518467  1
  Ni  Ni43  1  0.33729336  0.67191167  0.67105815  1
  Ni  Ni44  1  0.50407998  0.83726638  0.83694080  1
  Fe  Fe45  1  0.83739299  0.17160704  0.50421358  1
  Fe  Fe46  1  0.67030937  0.00410332  0.67070116  1
  Fe  Fe47  1  0.83688363  0.17077424  0.83672504  1
  Fe  Fe48  1  0.83713381  0.50336530  0.50357076  1
  Ni  Ni49  1  0.67202422  0.33694723  0.67089519  1
  Fe  Fe50  1  0.83658611  0.50375454  0.83748565  1
  Fe  Fe51  1  0.83753834  0.83643312  0.50330577  1
  Fe  Fe52  1  0.67023166  0.66989025  0.67081148  1
  Fe  Fe53  1  0.83637623  0.83687576  0.83746567  1
" 