5640,Ni23Fe74Cr2_10,-232.352210646555, 187.163899442499,Ni23Fe74Cr2,"# generated using pymatgen
 data_Cr(Fe10Ni3)2
_symmetry_space_group_name_H-M   'P 1'
_cell_length_a   7.40533725
_cell_length_b   7.40533725
_cell_length_c   10.47272837
_cell_angle_alpha   90.00000000
_cell_angle_beta   90.00000000
_cell_angle_gamma   90.00000000
_symmetry_Int_Tables_number   1
_chemical_formula_structural   Cr(Fe10Ni3)2
_chemical_formula_sum   'Cr2 Fe40 Ni12'
_cell_volume   574.31415811
_cell_formula_units_Z   2
loop_
 _symmetry_equiv_pos_site_id
 _symmetry_equiv_pos_as_xyz
  1  'x, y, z'
loop_
 _atom_site_type_symbol
 _atom_site_label
 _atom_site_symmetry_multiplicity
 _atom_site_fract_x
 _atom_site_fract_y
 _atom_site_fract_z
 _atom_site_occupancy
  Fe  Fe0  1  1.00403904  0.00486902  1.00414301  1
  Fe  Fe1  1  0.17164436  0.17066294  0.17042074  1
  Fe  Fe2  1  0.00456321  1.00334311  0.33768299  1
  Ni  Ni3  1  0.00480236  0.33859080  0.00467773  1
  Ni  Ni4  1  0.17144462  0.50289367  0.17060184  1
  Fe  Fe5  1  0.00456038  0.33777453  0.33710687  1
  Fe  Fe6  1  0.00445113  0.67062764  0.00445072  1
  Fe  Fe7  1  0.17164175  0.83676605  0.17164224  1
  Ni  Ni8  1  1.00338193  0.67009415  0.33739162  1
  Ni  Ni9  1  0.33823257  1.00329813  0.00417529  1
  Fe  Fe10  1  0.50284144  0.16943231  0.17176808  1
  Ni  Ni11  1  0.33851464  1.00400256  0.33780447  1
  Fe  Fe12  1  0.33521519  0.33756659  1.00394486  1
  Ni  Ni13  1  0.50228580  0.50501597  0.17151490  1
  Fe  Fe14  1  0.33707088  0.33799654  0.33761548  1
  Fe  Fe15  1  0.33759540  0.67027868  0.00478835  1
  Ni  Ni16  1  0.50522650  0.83763122  0.17034007  1
  Fe  Fe17  1  0.33710277  0.67130697  0.33696380  1
  Fe  Fe18  1  0.67101649  1.00248704  0.00448134  1
  Fe  Fe19  1  0.83801833  0.17031762  0.17131851  1
  Fe  Fe20  1  0.67094403  1.00331111  0.33700165  1
  Cr  Cr21  1  0.67179453  0.33811999  0.00426186  1
  Fe  Fe22  1  0.83832363  0.50599736  0.17219736  1
  Fe  Fe23  1  0.67086565  0.33788528  0.33753956  1
  Fe  Fe24  1  0.67045395  0.67286163  0.00478769  1
  Ni  Ni25  1  0.83663729  0.83844919  0.17061041  1
  Fe  Fe26  1  0.67071872  0.67130472  0.33692600  1
  Fe  Fe27  1  0.17180392  0.16993970  0.50337987  1
  Fe  Fe28  1  0.00482511  1.00226321  0.67067498  1
  Fe  Fe29  1  0.17199673  0.17023880  0.83869955  1
  Fe  Fe30  1  0.17084904  0.50572777  0.50318619  1
  Cr  Cr31  1  0.00419424  0.33935547  0.67019298  1
  Fe  Fe32  1  0.17138653  0.50469125  0.83866061  1
  Ni  Ni33  1  0.17062516  0.83805657  0.50456933  1
  Ni  Ni34  1  1.00337977  0.67219697  0.67098024  1
  Fe  Fe35  1  0.17080069  0.83757354  0.83674432  1
  Fe  Fe36  1  0.50370682  0.17086430  0.50434663  1
  Fe  Fe37  1  0.33655084  1.00410641  0.67059957  1
  Fe  Fe38  1  0.50284543  0.16992582  0.83638663  1
  Fe  Fe39  1  0.50404242  0.50418159  0.50415256  1
  Ni  Ni40  1  0.33975157  0.33666324  0.67141732  1
  Fe  Fe41  1  0.50314944  0.50469316  0.83672861  1
  Fe  Fe42  1  0.50397192  0.83745297  0.50350968  1
  Fe  Fe43  1  0.33665767  0.67031255  0.67074781  1
  Fe  Fe44  1  0.50404345  0.83787837  0.83833950  1
  Fe  Fe45  1  0.83699228  0.17000791  0.50337982  1
  Fe  Fe46  1  0.67112533  0.00448849  0.67101484  1
  Fe  Fe47  1  0.83766234  0.16934262  0.83780014  1
  Ni  Ni48  1  0.83661160  0.50448101  0.50340728  1
  Fe  Fe49  1  0.66931776  0.33823113  0.67074320  1
  Fe  Fe50  1  0.83796340  0.50589475  0.83684982  1
  Fe  Fe51  1  0.83853508  0.83649737  0.50384766  1
  Fe  Fe52  1  0.67116565  0.66978002  0.67078419  1
  Fe  Fe53  1  0.83765635  0.83726734  0.83769638  1
" 