5239,Ni24Fe50Cr24_16,-227.96170312261, 185.397988780911,Ni24Fe50Cr24,"# generated using pymatgen
 data_Cr14Fe27Ni13
_symmetry_space_group_name_H-M   'P 1'
_cell_length_a   7.45960172
_cell_length_b   7.45960172
_cell_length_c   10.54946992
_cell_angle_alpha   90.00000000
_cell_angle_beta   90.00000000
_cell_angle_gamma   90.00000000
_symmetry_Int_Tables_number   1
_chemical_formula_structural   Cr14Fe27Ni13
_chemical_formula_sum   'Cr14 Fe27 Ni13'
_cell_volume   587.03219368
_cell_formula_units_Z   1
loop_
 _symmetry_equiv_pos_site_id
 _symmetry_equiv_pos_as_xyz
  1  'x, y, z'
loop_
 _atom_site_type_symbol
 _atom_site_label
 _atom_site_symmetry_multiplicity
 _atom_site_fract_x
 _atom_site_fract_y
 _atom_site_fract_z
 _atom_site_occupancy
  Cr  Cr0  1  0.99920508  0.99962190  0.99927361  1
  Cr  Cr1  1  0.16465359  0.16972393  0.16954166  1
  Fe  Fe2  1  0.99932396  0.00324128  0.33574419  1
  Fe  Fe3  1  0.99713783  0.33587354  0.99935250  1
  Ni  Ni4  1  0.16469818  0.50065997  0.16514476  1
  Fe  Fe5  1  0.99780757  0.33359257  0.33489984  1
  Fe  Fe6  1  0.99970310  0.66456846  0.99976505  1
  Cr  Cr7  1  0.16974386  0.83288234  0.16734593  1
  Cr  Cr8  1  1.00043189  0.66656116  0.33295390  1
  Cr  Cr9  1  0.33552800  0.00113876  0.99772764  1
  Cr  Cr10  1  0.50270052  0.16675145  0.16771975  1
  Fe  Fe11  1  0.33453253  0.00131414  0.33560551  1
  Cr  Cr12  1  0.33379347  0.33544321  0.99994894  1
  Cr  Cr13  1  0.49983846  0.50192747  0.16773604  1
  Fe  Fe14  1  0.33420003  0.33418860  0.33557021  1
  Fe  Fe15  1  0.33591393  0.66773893  0.99868900  1
  Ni  Ni16  1  0.50284603  0.83162219  0.16835949  1
  Fe  Fe17  1  0.33455143  0.66617028  0.33408571  1
  Cr  Cr18  1  0.66681277  0.99946862  0.00127583  1
  Ni  Ni19  1  0.83418594  0.16914489  0.16862003  1
  Fe  Fe20  1  0.66805489  0.00184976  0.33344595  1
  Fe  Fe21  1  0.66978165  0.33548528  0.99973274  1
  Fe  Fe22  1  0.83350387  0.49864965  0.16660922  1
  Ni  Ni23  1  0.66685869  0.33308620  0.33572205  1
  Ni  Ni24  1  0.66888228  0.66666940  0.00080463  1
  Fe  Fe25  1  0.83179183  0.83319760  0.16823741  1
  Fe  Fe26  1  0.66714126  0.66559216  0.33295845  1
  Ni  Ni27  1  0.16651473  0.16694520  0.50089488  1
  Ni  Ni28  1  0.00151865  0.00189773  0.66686969  1
  Fe  Fe29  1  0.16746206  0.16861591  0.83016101  1
  Cr  Cr30  1  0.16752111  0.49929894  0.50096941  1
  Ni  Ni31  1  0.00137499  0.33277832  0.66710069  1
  Fe  Fe32  1  0.16884040  0.50007138  0.83313449  1
  Ni  Ni33  1  0.16761425  0.83645568  0.50178548  1
  Cr  Cr34  1  0.99987409  0.66720987  0.66790811  1
  Fe  Fe35  1  0.16894446  0.83285769  0.83201351  1
  Ni  Ni36  1  0.49990610  0.16866489  0.50100189  1
  Fe  Fe37  1  0.33142203  0.00243556  0.66747951  1
  Fe  Fe38  1  0.50049600  0.16974227  0.83146852  1
  Fe  Fe39  1  0.50120054  0.49818322  0.50131349  1
  Ni  Ni40  1  0.33522505  0.33373786  0.66630476  1
  Ni  Ni41  1  0.50163073  0.50148695  0.83214605  1
  Cr  Cr42  1  0.49986785  0.83193787  0.50057678  1
  Fe  Fe43  1  0.33395015  0.66681763  0.66860131  1
  Ni  Ni44  1  0.50053037  0.83059539  0.83370635  1
  Fe  Fe45  1  0.83536619  0.16875435  0.49999267  1
  Cr  Cr46  1  0.66636527  0.00096788  0.66868377  1
  Fe  Fe47  1  0.83406302  0.16977227  0.83321182  1
  Fe  Fe48  1  0.83188290  0.49712326  0.50089933  1
  Fe  Fe49  1  0.66814768  0.33484414  0.66609481  1
  Fe  Fe50  1  0.83185991  0.50006951  0.83418517  1
  Cr  Cr51  1  0.83352181  0.83401629  0.50076528  1
  Fe  Fe52  1  0.66616187  0.66405420  0.66932197  1
  Fe  Fe53  1  0.83206552  0.83145237  0.83348957  1
" 