1823,Ni24Cr76_16,-230.885347954801, 156.075710240082,Ni24Cr76,"# generated using pymatgen
 data_Cr2Ni7
_symmetry_space_group_name_H-M   'P 1'
_cell_length_a   7.47818422
_cell_length_b   7.47818422
_cell_length_c   10.57574955
_cell_angle_alpha   90.00000000
_cell_angle_beta   90.00000000
_cell_angle_gamma   90.00000000
_symmetry_Int_Tables_number   1
_chemical_formula_structural   Cr2Ni7
_chemical_formula_sum   'Cr12 Ni42'
_cell_volume   591.43017220
_cell_formula_units_Z   6
loop_
 _symmetry_equiv_pos_site_id
 _symmetry_equiv_pos_as_xyz
  1  'x, y, z'
loop_
 _atom_site_type_symbol
 _atom_site_label
 _atom_site_symmetry_multiplicity
 _atom_site_fract_x
 _atom_site_fract_y
 _atom_site_fract_z
 _atom_site_occupancy
  Ni  Ni0  1  -0.00068455  0.99919510  0.99859961  1
  Ni  Ni1  1  0.16441748  0.16604240  0.16601551  1
  Cr  Cr2  1  0.99805063  0.99885194  0.33286189  1
  Ni  Ni3  1  0.99772180  0.33239018  0.99906633  1
  Ni  Ni4  1  0.16481682  0.50013510  0.16701739  1
  Ni  Ni5  1  -0.00052149  0.33409451  0.33110729  1
  Ni  Ni6  1  0.00107460  0.66618044  0.99903761  1
  Ni  Ni7  1  0.16687739  0.83158930  0.16495649  1
  Ni  Ni8  1  0.00034750  0.66505806  0.33194195  1
  Ni  Ni9  1  0.33181505  0.99656859  0.99807009  1
  Cr  Cr10  1  0.49988030  0.16494386  0.16656693  1
  Ni  Ni11  1  0.33374048  0.99671191  0.33187028  1
  Cr  Cr12  1  0.33117977  0.33278834  0.99898516  1
  Ni  Ni13  1  0.49942224  0.50069855  0.16818593  1
  Ni  Ni14  1  0.33198278  0.33543174  0.33266240  1
  Ni  Ni15  1  0.33005312  0.66881199  -0.00003118  1
  Ni  Ni16  1  0.49822562  0.83188774  0.16685028  1
  Ni  Ni17  1  0.33301307  0.66562104  0.33297114  1
  Ni  Ni18  1  0.66663555  -0.00007900  0.99823522  1
  Ni  Ni19  1  0.83322656  0.16723905  0.16528561  1
  Ni  Ni20  1  0.66574019  0.99758415  0.33296746  1
  Ni  Ni21  1  0.66926591  0.33062608  0.99890450  1
  Ni  Ni22  1  0.83352746  0.49823903  0.16648577  1
  Ni  Ni23  1  0.66630578  0.33336617  0.33197189  1
  Cr  Cr24  1  0.66648005  0.66657476  -0.00039132  1
  Ni  Ni25  1  0.83266271  0.83228821  0.16621305  1
  Ni  Ni26  1  0.66440632  0.66681579  0.33260772  1
  Cr  Cr27  1  0.16468488  0.16714926  0.49952368  1
  Ni  Ni28  1  0.99807917  0.00054834  0.66653288  1
  Ni  Ni29  1  0.16456446  0.16562427  0.83198171  1
  Ni  Ni30  1  0.16780396  0.49945572  0.49781053  1
  Ni  Ni31  1  -0.00071870  0.33082974  0.66759318  1
  Ni  Ni32  1  0.16350242  0.49832464  0.83293873  1
  Ni  Ni33  1  0.16604014  0.83107731  0.49786600  1
  Cr  Cr34  1  0.99862591  0.66694470  0.66654922  1
  Ni  Ni35  1  0.16526339  0.83381757  0.83494253  1
  Cr  Cr36  1  0.50031348  0.16755145  0.49784916  1
  Cr  Cr37  1  0.33113552  -0.00072117  0.66758198  1
  Ni  Ni38  1  0.49989894  0.16505524  0.83310522  1
  Ni  Ni39  1  0.49846875  0.50032358  0.49877034  1
  Ni  Ni40  1  0.33178141  0.33362630  0.66636463  1
  Cr  Cr41  1  0.50046320  0.49840656  0.83106749  1
  Ni  Ni42  1  0.50006496  0.83004355  0.49683586  1
  Cr  Cr43  1  0.33345855  0.66486597  0.66506992  1
  Ni  Ni44  1  0.49903582  0.83454961  0.83407938  1
  Ni  Ni45  1  0.83252685  0.16563708  0.49954445  1
  Cr  Cr46  1  0.66838587  0.99823045  0.66632393  1
  Ni  Ni47  1  0.83330308  0.16681643  0.83293574  1
  Cr  Cr48  1  0.83174225  0.49880879  0.49907644  1
  Ni  Ni49  1  0.66670341  0.33331869  0.66689047  1
  Ni  Ni50  1  0.83403727  0.49746205  0.83243508  1
  Ni  Ni51  1  0.83166132  0.83324217  0.49890417  1
  Ni  Ni52  1  0.66583614  0.66566117  0.66555586  1
  Ni  Ni53  1  0.83346559  0.83348673  0.83264763  1
" 