2041,Ni24Fe50Cr24_18,-228.176652412102, 189.99848731376,Ni24Fe50Cr24,"# generated using pymatgen
 data_Cr14Fe27Ni13
_symmetry_space_group_name_H-M   'P 1'
_cell_length_a   7.45457374
_cell_length_b   7.45457374
_cell_length_c   10.54235928
_cell_angle_alpha   90.00000000
_cell_angle_beta   90.00000000
_cell_angle_gamma   90.00000000
_symmetry_Int_Tables_number   1
_chemical_formula_structural   Cr14Fe27Ni13
_chemical_formula_sum   'Cr14 Fe27 Ni13'
_cell_volume   585.84596482
_cell_formula_units_Z   1
loop_
 _symmetry_equiv_pos_site_id
 _symmetry_equiv_pos_as_xyz
  1  'x, y, z'
loop_
 _atom_site_type_symbol
 _atom_site_label
 _atom_site_symmetry_multiplicity
 _atom_site_fract_x
 _atom_site_fract_y
 _atom_site_fract_z
 _atom_site_occupancy
  Cr  Cr0  1  1.00050004  0.00128307  0.00340257  1
  Fe  Fe1  1  0.16945503  0.16953534  0.16638673  1
  Cr  Cr2  1  0.00113072  0.99827234  0.33227262  1
  Fe  Fe3  1  1.00013436  0.33487819  0.00140631  1
  Ni  Ni4  1  0.16610034  0.50136204  0.16659694  1
  Cr  Cr5  1  0.00162348  0.33669839  0.33288510  1
  Cr  Cr6  1  1.00048528  0.66634287  0.00285169  1
  Ni  Ni7  1  0.16690231  0.83217408  0.16860690  1
  Fe  Fe8  1  0.00218408  0.66639580  0.33283569  1
  Fe  Fe9  1  0.33581408  0.00243917  0.00168918  1
  Ni  Ni10  1  0.50245334  0.16767681  0.16723596  1
  Cr  Cr11  1  0.33447044  0.00269835  0.33413429  1
  Fe  Fe12  1  0.33380456  0.33341656  1.00074506  1
  Cr  Cr13  1  0.50016110  0.49852412  0.16888424  1
  Ni  Ni14  1  0.33603447  0.33549645  0.33518890  1
  Fe  Fe15  1  0.33447636  0.66665259  1.00023826  1
  Cr  Cr16  1  0.50105623  0.83607986  0.16578936  1
  Fe  Fe17  1  0.33138425  0.66531532  0.33502683  1
  Fe  Fe18  1  0.66692818  0.00194788  1.00066828  1
  Fe  Fe19  1  0.83177431  0.16871830  0.16699124  1
  Ni  Ni20  1  0.66714236  0.00193319  0.33167269  1
  Ni  Ni21  1  0.66714188  0.33359683  0.00151206  1
  Ni  Ni22  1  0.83578321  0.50002319  0.16778578  1
  Fe  Fe23  1  0.66537904  0.33284780  0.33352044  1
  Fe  Fe24  1  0.66838749  0.66702197  0.99936563  1
  Fe  Fe25  1  0.83369631  0.83306538  0.16820174  1
  Fe  Fe26  1  0.66894245  0.66625811  0.33394417  1
  Fe  Fe27  1  0.17084570  0.16809398  0.50262277  1
  Ni  Ni28  1  0.00144942  1.00015789  0.66772279  1
  Fe  Fe29  1  0.16808249  0.16819498  0.83350448  1
  Ni  Ni30  1  0.17028011  0.50121028  0.50052319  1
  Cr  Cr31  1  0.00243538  0.33322741  0.66921947  1
  Fe  Fe32  1  0.16961347  0.49940889  0.83414231  1
  Fe  Fe33  1  0.16842270  0.83360968  0.50178341  1
  Cr  Cr34  1  0.00087491  0.66873441  0.66643972  1
  Cr  Cr35  1  0.16891979  0.83423772  0.83157293  1
  Ni  Ni36  1  0.49955481  0.16934732  0.50069387  1
  Fe  Fe37  1  0.33366715  0.00260073  0.66709580  1
  Fe  Fe38  1  0.50058987  0.16681306  0.83491011  1
  Fe  Fe39  1  0.49901309  0.49937169  0.50049477  1
  Ni  Ni40  1  0.33526007  0.33454063  0.66699253  1
  Fe  Fe41  1  0.50027593  0.50201018  0.83462944  1
  Cr  Cr42  1  0.50042141  0.83454043  0.50255276  1
  Ni  Ni43  1  0.33548887  0.66635239  0.66725439  1
  Fe  Fe44  1  0.50248715  0.83368725  0.83387555  1
  Cr  Cr45  1  0.83226978  0.16677808  0.50130027  1
  Fe  Fe46  1  0.66679930  1.00013754  0.66888794  1
  Fe  Fe47  1  0.83383523  0.16598705  0.83462287  1
  Fe  Fe48  1  0.83274409  0.50179702  0.49896703  1
  Cr  Cr49  1  0.66475859  0.33513714  0.66595660  1
  Fe  Fe50  1  0.83262034  0.50130521  0.83640444  1
  Cr  Cr51  1  0.83448343  0.83414698  0.50101966  1
  Fe  Fe52  1  0.66618601  0.66766989  0.66920481  1
  Ni  Ni53  1  0.83045479  0.83542774  0.83294701  1
" 