531,Ni24Fe50Cr24_1,-228.038711735065, 189.859993680821,Ni24Fe50Cr24,"# generated using pymatgen
 data_Cr14Fe27Ni13
_symmetry_space_group_name_H-M   'P 1'
_cell_length_a   7.45324818
_cell_length_b   7.45324818
_cell_length_c   10.54048465
_cell_angle_alpha   90.00000000
_cell_angle_beta   90.00000000
_cell_angle_gamma   90.00000000
_symmetry_Int_Tables_number   1
_chemical_formula_structural   Cr14Fe27Ni13
_chemical_formula_sum   'Cr14 Fe27 Ni13'
_cell_volume   585.53349705
_cell_formula_units_Z   1
loop_
 _symmetry_equiv_pos_site_id
 _symmetry_equiv_pos_as_xyz
  1  'x, y, z'
loop_
 _atom_site_type_symbol
 _atom_site_label
 _atom_site_symmetry_multiplicity
 _atom_site_fract_x
 _atom_site_fract_y
 _atom_site_fract_z
 _atom_site_occupancy
  Ni  Ni0  1  0.00270778  1.00025533  0.00130844  1
  Fe  Fe1  1  0.17005435  0.16479389  0.16665162  1
  Ni  Ni2  1  0.00202207  0.99969024  0.33377751  1
  Fe  Fe3  1  0.99857806  0.33723411  0.99983980  1
  Fe  Fe4  1  0.16799106  0.50046493  0.16483865  1
  Cr  Cr5  1  0.99938111  0.33353597  0.33119200  1
  Ni  Ni6  1  0.00098358  0.66807471  1.00021156  1
  Fe  Fe7  1  0.16772111  0.83701265  0.16550243  1
  Cr  Cr8  1  0.99906391  0.66860598  0.33441851  1
  Fe  Fe9  1  0.33444801  0.99998043  0.00302602  1
  Ni  Ni10  1  0.50102650  0.16732305  0.16822649  1
  Ni  Ni11  1  0.33484595  1.00047319  0.33468058  1
  Fe  Fe12  1  0.33501225  0.33578113  0.00351318  1
  Ni  Ni13  1  0.50194581  0.50141392  0.16563722  1
  Cr  Cr14  1  0.33576388  0.33236343  0.33369986  1
  Fe  Fe15  1  0.33318370  0.66662286  0.00202281  1
  Fe  Fe16  1  0.50263121  0.83638676  0.16584984  1
  Cr  Cr17  1  0.33565011  0.66991411  0.33149957  1
  Fe  Fe18  1  0.66817603  1.00048214  0.00245230  1
  Cr  Cr19  1  0.83485319  0.16572124  0.16432921  1
  Fe  Fe20  1  0.66648799  0.99965932  0.33360035  1
  Ni  Ni21  1  0.66604096  0.33525874  0.99994180  1
  Fe  Fe22  1  0.83168016  0.50192624  0.16435248  1
  Fe  Fe23  1  0.66723626  0.33408380  0.33135973  1
  Ni  Ni24  1  0.66722239  0.66486428  0.00174906  1
  Fe  Fe25  1  0.83304075  0.83322398  0.16550931  1
  Fe  Fe26  1  0.66767583  0.66897493  0.33196117  1
  Ni  Ni27  1  0.16732650  0.16572844  0.49989963  1
  Cr  Cr28  1  0.00221722  0.00107906  0.66810583  1
  Cr  Cr29  1  0.16789138  0.16733735  0.83617222  1
  Cr  Cr30  1  0.16656649  0.49941711  0.50349483  1
  Ni  Ni31  1  0.99816999  0.33476829  0.66986843  1
  Fe  Fe32  1  0.16563301  0.50222131  0.83505145  1
  Fe  Fe33  1  0.16862941  0.83653439  0.50066947  1
  Fe  Fe34  1  0.99986262  0.66708294  0.66930000  1
  Ni  Ni35  1  0.16771003  0.83381096  0.83513234  1
  Fe  Fe36  1  0.49988516  0.16539027  0.50133052  1
  Ni  Ni37  1  0.33491747  1.00089398  0.66540168  1
  Cr  Cr38  1  0.50126152  0.16766806  0.83368648  1
  Cr  Cr39  1  0.50308040  0.50117458  0.50179894  1
  Fe  Fe40  1  0.33223580  0.33113818  0.66703550  1
  Fe  Fe41  1  0.50204419  0.50128327  0.83636128  1
  Fe  Fe42  1  0.50189359  0.83758696  0.50112535  1
  Cr  Cr43  1  0.33473595  0.66996850  0.67043543  1
  Cr  Cr44  1  0.50081894  0.83444993  0.83738426  1
  Cr  Cr45  1  0.83412646  0.16772697  0.50096477  1
  Fe  Fe46  1  0.66647428  1.00041758  0.66645636  1
  Fe  Fe47  1  0.83465925  0.16892830  0.83630133  1
  Fe  Fe48  1  0.83388068  0.50086190  0.50374837  1
  Fe  Fe49  1  0.66861504  0.33456712  0.66971540  1
  Ni  Ni50  1  0.83413717  0.50112337  0.83381955  1
  Fe  Fe51  1  0.83288868  0.83317368  0.50103430  1
  Fe  Fe52  1  0.67048063  0.66762453  0.66841270  1
  Cr  Cr53  1  0.83442371  0.83391117  0.83613164  1
" 