4574,Ni24Fe50Cr24_9,-227.840561801236, 181.188793664431,Ni24Fe50Cr24,"# generated using pymatgen
 data_Cr14Fe27Ni13
_symmetry_space_group_name_H-M   'P 1'
_cell_length_a   7.45659990
_cell_length_b   7.45659990
_cell_length_c   10.54522471
_cell_angle_alpha   90.00000000
_cell_angle_beta   90.00000000
_cell_angle_gamma   90.00000000
_symmetry_Int_Tables_number   1
_chemical_formula_structural   Cr14Fe27Ni13
_chemical_formula_sum   'Cr14 Fe27 Ni13'
_cell_volume   586.32379524
_cell_formula_units_Z   1
loop_
 _symmetry_equiv_pos_site_id
 _symmetry_equiv_pos_as_xyz
  1  'x, y, z'
loop_
 _atom_site_type_symbol
 _atom_site_label
 _atom_site_symmetry_multiplicity
 _atom_site_fract_x
 _atom_site_fract_y
 _atom_site_fract_z
 _atom_site_occupancy
  Fe  Fe0  1  0.00426921  1.00042947  0.00151697  1
  Fe  Fe1  1  0.16645897  0.16696799  0.16628333  1
  Cr  Cr2  1  0.99883957  0.00163345  0.33229437  1
  Ni  Ni3  1  0.00142265  0.33384572  1.00053422  1
  Fe  Fe4  1  0.16856426  0.50215979  0.16671246  1
  Fe  Fe5  1  1.00066763  0.33500215  0.33498687  1
  Ni  Ni6  1  0.00160677  0.66716572  0.00085326  1
  Fe  Fe7  1  0.16905142  0.83301441  0.16543980  1
  Fe  Fe8  1  0.00134446  0.66591768  0.33446907  1
  Ni  Ni9  1  0.33138474  0.99871669  0.99944101  1
  Cr  Cr10  1  0.50139050  0.16716434  0.16809271  1
  Fe  Fe11  1  0.33576158  1.00015965  0.33306536  1
  Cr  Cr12  1  0.33265377  0.33403833  0.99981709  1
  Fe  Fe13  1  0.49973567  0.50300984  0.16645946  1
  Fe  Fe14  1  0.33321183  0.33477886  0.33488059  1
  Ni  Ni15  1  0.33449884  0.66914603  1.00056492  1
  Ni  Ni16  1  0.49773045  0.83348587  0.16714525  1
  Fe  Fe17  1  0.33341669  0.66704766  0.33238905  1
  Cr  Cr18  1  0.66646835  0.99845243  0.00287937  1
  Fe  Fe19  1  0.83473539  0.16763730  0.16698677  1
  Fe  Fe20  1  0.66684975  0.00103853  0.33481710  1
  Ni  Ni21  1  0.66837043  0.33696809  0.99917330  1
  Cr  Cr22  1  0.83483976  0.49922487  0.16403666  1
  Fe  Fe23  1  0.66818938  0.33267731  0.33540854  1
  Ni  Ni24  1  0.66605624  0.66626244  0.00088223  1
  Fe  Fe25  1  0.83378448  0.83404598  0.16648394  1
  Cr  Cr26  1  0.66693918  0.66936330  0.33386589  1
  Fe  Fe27  1  0.16689309  0.16851136  0.49959692  1
  Cr  Cr28  1  0.00129551  0.00169390  0.66772001  1
  Ni  Ni29  1  0.16952192  0.16595609  0.83602741  1
  Fe  Fe30  1  0.16636050  0.49992862  0.49892382  1
  Cr  Cr31  1  0.00187360  0.33403653  0.66640468  1
  Ni  Ni32  1  0.16798485  0.50298579  0.83554741  1
  Cr  Cr33  1  0.16981791  0.83206738  0.50164431  1
  Cr  Cr34  1  1.00005945  0.66636196  0.66617716  1
  Ni  Ni35  1  0.17168843  0.83307341  0.83650932  1
  Fe  Fe36  1  0.50282829  0.16649804  0.49979537  1
  Fe  Fe37  1  0.33540688  0.99981854  0.66943808  1
  Fe  Fe38  1  0.49851716  0.16631847  0.83415868  1
  Fe  Fe39  1  0.50155854  0.50014077  0.49998834  1
  Cr  Cr40  1  0.33362363  0.33333483  0.66823873  1
  Fe  Fe41  1  0.50041540  0.50170527  0.83557508  1
  Fe  Fe42  1  0.50248545  0.83554594  0.50008287  1
  Fe  Fe43  1  0.33380763  0.66782109  0.66932407  1
  Fe  Fe44  1  0.49621635  0.83396485  0.83555810  1
  Ni  Ni45  1  0.83015973  0.16932984  0.49918381  1
  Fe  Fe46  1  0.66560062  0.00227695  0.66536174  1
  Cr  Cr47  1  0.83264163  0.17091990  0.83607102  1
  Ni  Ni48  1  0.83376931  0.49814388  0.50057591  1
  Fe  Fe49  1  0.66753817  0.33338535  0.66652129  1
  Fe  Fe50  1  0.83538374  0.50014752  0.83708742  1
  Ni  Ni51  1  0.83223393  0.83469147  0.49911264  1
  Cr  Cr52  1  0.66659460  0.66763836  0.66750039  1
  Cr  Cr53  1  0.83531239  0.83218066  0.83622647  1
" 