2370,Ni24Fe6Cr69_13,-211.570012776889, 164.751541867728,Ni24Fe6Cr69,"# generated using pymatgen
 data_Cr38Fe3Ni13
_symmetry_space_group_name_H-M   'P 1'
_cell_length_a   7.55407019
_cell_length_b   7.55407019
_cell_length_c   10.68306852
_cell_angle_alpha   90.00000000
_cell_angle_beta   90.00000000
_cell_angle_gamma   90.00000000
_symmetry_Int_Tables_number   1
_chemical_formula_structural   Cr38Fe3Ni13
_chemical_formula_sum   'Cr38 Fe3 Ni13'
_cell_volume   609.61837112
_cell_formula_units_Z   1
loop_
 _symmetry_equiv_pos_site_id
 _symmetry_equiv_pos_as_xyz
  1  'x, y, z'
loop_
 _atom_site_type_symbol
 _atom_site_label
 _atom_site_symmetry_multiplicity
 _atom_site_fract_x
 _atom_site_fract_y
 _atom_site_fract_z
 _atom_site_occupancy
  Cr  Cr0  1  -0.00257398  0.99356110  -0.00495248  1
  Cr  Cr1  1  0.16548282  0.16108856  0.16231553  1
  Cr  Cr2  1  -0.00369580  0.99376745  0.32446016  1
  Cr  Cr3  1  0.99332590  0.32581058  0.99385332  1
  Cr  Cr4  1  0.16365708  0.49340400  0.16269177  1
  Cr  Cr5  1  -0.00547170  0.32556546  0.32848687  1
  Cr  Cr6  1  -0.00322791  0.66318855  -0.00497156  1
  Ni  Ni7  1  0.16557822  0.82951343  0.16057277  1
  Cr  Cr8  1  -0.00486717  0.66292482  0.32422757  1
  Ni  Ni9  1  0.32804538  0.99299148  -0.00394462  1
  Cr  Cr10  1  0.49181351  0.16045649  0.15928718  1
  Ni  Ni11  1  0.33114872  -0.00547375  0.32655440  1
  Fe  Fe12  1  0.32988812  0.32885808  -0.00529990  1
  Ni  Ni13  1  0.49221714  0.49342932  0.16073293  1
  Ni  Ni14  1  0.33252311  0.32665740  0.32826129  1
  Cr  Cr15  1  0.32942233  0.66231412  0.99395667  1
  Ni  Ni16  1  0.49166041  0.82791491  0.16141677  1
  Cr  Cr17  1  0.33097143  0.66257201  0.32698289  1
  Cr  Cr18  1  0.65949212  0.99313668  -0.00389402  1
  Cr  Cr19  1  0.82492615  0.16091303  0.15996794  1
  Cr  Cr20  1  0.65788432  0.99354089  0.32802277  1
  Fe  Fe21  1  0.65602327  0.32887075  -0.00528947  1
  Cr  Cr22  1  0.82594421  0.49511111  0.16043657  1
  Cr  Cr23  1  0.65768757  0.32772194  0.32795135  1
  Cr  Cr24  1  0.65636914  0.65920728  -0.00294665  1
  Ni  Ni25  1  0.82619610  0.82736020  0.16086206  1
  Cr  Cr26  1  0.65684817  0.66147616  0.32608433  1
  Cr  Cr27  1  0.16662980  0.16194516  0.49150743  1
  Cr  Cr28  1  -0.00471185  -0.00465219  0.66314024  1
  Cr  Cr29  1  0.16584711  0.16097429  0.82903126  1
  Cr  Cr30  1  0.16307220  0.49316588  0.49310951  1
  Cr  Cr31  1  -0.00358918  0.32575011  0.66035422  1
  Cr  Cr32  1  0.16354123  0.49383002  0.82690469  1
  Cr  Cr33  1  0.16329847  0.82734320  0.49329169  1
  Cr  Cr34  1  -0.00262153  0.66156478  0.66334043  1
  Ni  Ni35  1  0.16385565  0.82886124  0.82937041  1
  Ni  Ni36  1  0.49136135  0.16022905  0.49427537  1
  Cr  Cr37  1  0.32863456  -0.00545770  0.66054038  1
  Cr  Cr38  1  0.49315181  0.16065750  0.82988343  1
  Fe  Fe39  1  0.49219537  0.49258481  0.49361627  1
  Ni  Ni40  1  0.33208632  0.32771466  0.66031132  1
  Ni  Ni41  1  0.49236189  0.49107555  0.82808823  1
  Ni  Ni42  1  0.49337250  0.83151171  0.49395234  1
  Cr  Cr43  1  0.32963420  0.65970441  0.66157687  1
  Cr  Cr44  1  0.49388423  0.82911294  0.82688886  1
  Cr  Cr45  1  0.82393654  0.15934020  0.49528970  1
  Ni  Ni46  1  0.65632125  -0.00470917  0.65840241  1
  Cr  Cr47  1  0.82344120  0.16010914  0.82741992  1
  Cr  Cr48  1  0.82816303  0.49644726  0.49361856  1
  Cr  Cr49  1  0.65753492  0.32652761  0.66032442  1
  Cr  Cr50  1  0.82477663  0.49500946  0.82867590  1
  Cr  Cr51  1  0.82461098  0.82697247  0.49602648  1
  Cr  Cr52  1  0.65555083  0.66008572  0.65925862  1
  Cr  Cr53  1  0.82535296  0.82738092  0.82493569  1
" 