6903,Ni24Fe58Cr17_15,-229.376302098692, 188.362000298706,Ni24Fe58Cr17,"# generated using pymatgen
 data_Cr10Fe31Ni13
_symmetry_space_group_name_H-M   'P 1'
_cell_length_a   7.43368307
_cell_length_b   7.43368307
_cell_length_c   10.51281541
_cell_angle_alpha   90.00000000
_cell_angle_beta   90.00000000
_cell_angle_gamma   90.00000000
_symmetry_Int_Tables_number   1
_chemical_formula_structural   Cr10Fe31Ni13
_chemical_formula_sum   'Cr10 Fe31 Ni13'
_cell_volume   580.93443626
_cell_formula_units_Z   1
loop_
 _symmetry_equiv_pos_site_id
 _symmetry_equiv_pos_as_xyz
  1  'x, y, z'
loop_
 _atom_site_type_symbol
 _atom_site_label
 _atom_site_symmetry_multiplicity
 _atom_site_fract_x
 _atom_site_fract_y
 _atom_site_fract_z
 _atom_site_occupancy
  Fe  Fe0  1  0.99915735  1.00080408  1.00203674  1
  Cr  Cr1  1  0.16990019  0.17048401  0.17002383  1
  Cr  Cr2  1  0.00257314  0.00315067  0.33604262  1
  Cr  Cr3  1  0.00253038  0.33683720  1.00099786  1
  Ni  Ni4  1  0.16951229  0.50522964  0.16934828  1
  Ni  Ni5  1  0.00304293  0.33696460  0.33780513  1
  Ni  Ni6  1  0.00257276  0.66928120  0.00379128  1
  Fe  Fe7  1  0.16980695  0.83207293  0.16863466  1
  Fe  Fe8  1  0.00254562  0.66653451  0.33529720  1
  Cr  Cr9  1  0.33732950  0.00418321  0.00319353  1
  Ni  Ni10  1  0.50448317  0.16884834  0.16804238  1
  Fe  Fe11  1  0.33728615  1.00082639  0.33533198  1
  Ni  Ni12  1  0.33746442  0.33671149  1.00114770  1
  Ni  Ni13  1  0.50032728  0.50197771  0.16917998  1
  Fe  Fe14  1  0.33408195  0.33808904  0.33462571  1
  Fe  Fe15  1  0.33413907  0.66540523  0.00417033  1
  Fe  Fe16  1  0.50192002  0.83514085  0.17053032  1
  Ni  Ni17  1  0.33646675  0.66927555  0.33545769  1
  Ni  Ni18  1  0.67013103  0.00417406  0.00322674  1
  Fe  Fe19  1  0.83318670  0.16909586  0.16790638  1
  Fe  Fe20  1  0.66806489  1.00007351  0.33423884  1
  Fe  Fe21  1  0.66664365  0.33373470  1.00201930  1
  Fe  Fe22  1  0.83625491  0.50256091  0.16992552  1
  Cr  Cr23  1  0.66997201  0.33690723  0.33306809  1
  Cr  Cr24  1  0.66964058  0.66848016  1.00195324  1
  Fe  Fe25  1  0.83500863  0.83508190  0.16856941  1
  Ni  Ni26  1  0.66747428  0.66995734  0.33704606  1
  Fe  Fe27  1  0.16791248  0.17022374  0.50255353  1
  Fe  Fe28  1  1.00137939  0.00438337  0.66831513  1
  Fe  Fe29  1  0.16976748  0.17066979  0.83448915  1
  Ni  Ni30  1  0.16849196  0.50231166  0.50076384  1
  Fe  Fe31  1  1.00219389  0.33419852  0.66838212  1
  Fe  Fe32  1  0.17081330  0.50022858  0.83605412  1
  Fe  Fe33  1  0.17069101  0.83515749  0.50233525  1
  Cr  Cr34  1  1.00113183  0.66805155  0.66810083  1
  Cr  Cr35  1  0.16695216  0.83459042  0.83740893  1
  Cr  Cr36  1  0.50215973  0.16799631  0.50187254  1
  Fe  Fe37  1  0.33492177  0.00291187  0.66854473  1
  Ni  Ni38  1  0.50454173  0.17174846  0.83607334  1
  Fe  Fe39  1  0.50117200  0.50484552  0.50255182  1
  Fe  Fe40  1  0.33504539  0.33661332  0.67034928  1
  Ni  Ni41  1  0.50139873  0.49951141  0.83449200  1
  Fe  Fe42  1  0.50179400  0.83336370  0.50194147  1
  Fe  Fe43  1  0.33684331  0.66720718  0.66707649  1
  Cr  Cr44  1  0.50325673  0.83528270  0.83418956  1
  Fe  Fe45  1  0.83774115  0.16960159  0.50379452  1
  Fe  Fe46  1  0.67043306  0.00258534  0.66984880  1
  Ni  Ni47  1  0.83437692  0.16786402  0.83516235  1
  Fe  Fe48  1  0.83594528  0.50206884  0.50179750  1
  Fe  Fe49  1  0.66949407  0.33612564  0.67020676  1
  Fe  Fe50  1  0.83424741  0.50131294  0.83500663  1
  Fe  Fe51  1  0.83424693  0.83506598  0.50207863  1
  Fe  Fe52  1  0.66801462  0.66801992  0.66809511  1
  Fe  Fe53  1  0.83470094  0.83736170  0.83608868  1
" 