8971,Ni24Fe58Cr17_8,-229.738103245803, 190.775276850174,Ni24Fe58Cr17,"# generated using pymatgen
 data_Cr10Fe31Ni13
_symmetry_space_group_name_H-M   'P 1'
_cell_length_a   7.43797356
_cell_length_b   7.43797356
_cell_length_c   10.51888309
_cell_angle_alpha   90.00000000
_cell_angle_beta   90.00000000
_cell_angle_gamma   90.00000000
_symmetry_Int_Tables_number   1
_chemical_formula_structural   Cr10Fe31Ni13
_chemical_formula_sum   'Cr10 Fe31 Ni13'
_cell_volume   581.94091058
_cell_formula_units_Z   1
loop_
 _symmetry_equiv_pos_site_id
 _symmetry_equiv_pos_as_xyz
  1  'x, y, z'
loop_
 _atom_site_type_symbol
 _atom_site_label
 _atom_site_symmetry_multiplicity
 _atom_site_fract_x
 _atom_site_fract_y
 _atom_site_fract_z
 _atom_site_occupancy
  Fe  Fe0  1  1.00177904  1.00156169  1.00082814  1
  Fe  Fe1  1  0.17080992  0.16980200  0.16710903  1
  Cr  Cr2  1  0.00283100  1.00092114  0.33389255  1
  Fe  Fe3  1  0.00201804  0.33534870  0.00272918  1
  Fe  Fe4  1  0.17004732  0.50156056  0.16796709  1
  Cr  Cr5  1  0.00239161  0.33766420  0.33466213  1
  Ni  Ni6  1  1.00086863  0.66880322  0.00300696  1
  Cr  Cr7  1  0.16862701  0.83342250  0.16838049  1
  Fe  Fe8  1  0.00446475  0.66724296  0.33568486  1
  Fe  Fe9  1  0.33532456  0.00220985  1.00193036  1
  Ni  Ni10  1  0.50185914  0.16838206  0.16897918  1
  Ni  Ni11  1  0.33754678  1.00071195  0.33605805  1
  Fe  Fe12  1  0.33575680  0.33536824  1.00180184  1
  Fe  Fe13  1  0.49981602  0.50207025  0.16657908  1
  Fe  Fe14  1  0.33607503  0.33587012  0.33503794  1
  Ni  Ni15  1  0.33634303  0.66868891  1.00152430  1
  Fe  Fe16  1  0.50186692  0.83640813  0.16836301  1
  Ni  Ni17  1  0.33452141  0.66930079  0.33695695  1
  Fe  Fe18  1  0.66875816  1.00088389  1.00157175  1
  Fe  Fe19  1  0.83409038  0.16775345  0.16678708  1
  Fe  Fe20  1  0.66455565  0.00198099  0.33398556  1
  Fe  Fe21  1  0.66809201  0.33645906  0.00220726  1
  Fe  Fe22  1  0.83600047  0.50246541  0.16681324  1
  Cr  Cr23  1  0.66768049  0.33467788  0.33634367  1
  Fe  Fe24  1  0.66873926  0.66852227  1.00153405  1
  Fe  Fe25  1  0.83357954  0.83564524  0.16649564  1
  Cr  Cr26  1  0.66755036  0.66858685  0.33501392  1
  Cr  Cr27  1  0.17225182  0.16924438  0.50251860  1
  Fe  Fe28  1  0.00268359  1.00172997  0.67097778  1
  Ni  Ni29  1  0.16886666  0.16743797  0.83589776  1
  Ni  Ni30  1  0.16991937  0.50460095  0.50121605  1
  Fe  Fe31  1  0.00296496  0.33564920  0.66872157  1
  Cr  Cr32  1  0.17013881  0.50107119  0.83533841  1
  Ni  Ni33  1  0.17109867  0.83190561  0.50301447  1
  Fe  Fe34  1  1.00158242  0.66848272  0.66838881  1
  Fe  Fe35  1  0.16848384  0.83619335  0.83565698  1
  Fe  Fe36  1  0.50006958  0.16718300  0.50160595  1
  Fe  Fe37  1  0.33614596  0.00215588  0.66873555  1
  Fe  Fe38  1  0.50105938  0.16816015  0.83584958  1
  Fe  Fe39  1  0.49893274  0.50301390  0.50323455  1
  Ni  Ni40  1  0.33528348  0.33540073  0.66776745  1
  Ni  Ni41  1  0.50244228  0.50249749  0.83664183  1
  Fe  Fe42  1  0.49902347  0.83566705  0.50223600  1
  Fe  Fe43  1  0.33653430  0.66876813  0.66753540  1
  Fe  Fe44  1  0.50194417  0.83503983  0.83526661  1
  Cr  Cr45  1  0.83276183  0.16804916  0.50321631  1
  Ni  Ni46  1  0.66793824  1.00102376  0.66893095  1
  Fe  Fe47  1  0.83598895  0.16764869  0.83548437  1
  Ni  Ni48  1  0.83684050  0.50403497  0.50387083  1
  Cr  Cr49  1  0.66830602  0.33610338  0.66880834  1
  Fe  Fe50  1  0.83483548  0.50299575  0.83583695  1
  Cr  Cr51  1  0.83514869  0.83418124  0.50136139  1
  Fe  Fe52  1  0.66775090  0.66905510  0.66946911  1
  Ni  Ni53  1  0.83454995  0.83593356  0.83571448  1
" 