5046,Ni24Fe10Cr64_9,-213.228297462016, 163.186024582617,Ni24Fe10Cr64,"# generated using pymatgen
 data_Cr36Fe5Ni13
_symmetry_space_group_name_H-M   'P 1'
_cell_length_a   7.54512533
_cell_length_b   7.54512533
_cell_length_c   10.67041857
_cell_angle_alpha   90.00000000
_cell_angle_beta   90.00000000
_cell_angle_gamma   90.00000000
_symmetry_Int_Tables_number   1
_chemical_formula_structural   Cr36Fe5Ni13
_chemical_formula_sum   'Cr36 Fe5 Ni13'
_cell_volume   607.45536497
_cell_formula_units_Z   1
loop_
 _symmetry_equiv_pos_site_id
 _symmetry_equiv_pos_as_xyz
  1  'x, y, z'
loop_
 _atom_site_type_symbol
 _atom_site_label
 _atom_site_symmetry_multiplicity
 _atom_site_fract_x
 _atom_site_fract_y
 _atom_site_fract_z
 _atom_site_occupancy
  Cr  Cr0  1  0.99413644  0.99424209  -0.00487187  1
  Cr  Cr1  1  0.16148441  0.16362243  0.16251957  1
  Cr  Cr2  1  0.99438372  -0.00236072  0.33005954  1
  Fe  Fe3  1  0.99172893  0.33047281  0.99357943  1
  Cr  Cr4  1  0.16067770  0.49542252  0.15976032  1
  Fe  Fe5  1  0.99297015  0.32645195  0.33030930  1
  Ni  Ni6  1  0.99450715  0.65866461  0.99313446  1
  Cr  Cr7  1  0.16246648  0.82562666  0.15879414  1
  Cr  Cr8  1  0.99393277  0.66164936  0.32851866  1
  Cr  Cr9  1  0.32914301  -0.00191436  0.99481151  1
  Ni  Ni10  1  0.49699630  0.16583242  0.16091885  1
  Cr  Cr11  1  0.32762753  -0.00305182  0.32881757  1
  Cr  Cr12  1  0.33183614  0.32938136  0.99481377  1
  Ni  Ni13  1  0.49610923  0.49121838  0.16155662  1
  Cr  Cr14  1  0.32923748  0.32867675  0.32795894  1
  Fe  Fe15  1  0.32975427  0.65899016  0.99469405  1
  Cr  Cr16  1  0.49363889  0.82856486  0.16153368  1
  Cr  Cr17  1  0.33135466  0.65866774  0.32787924  1
  Cr  Cr18  1  0.66096170  -0.00229966  -0.00417977  1
  Cr  Cr19  1  0.82508197  0.16564642  0.16254709  1
  Cr  Cr20  1  0.66242252  -0.00433535  0.32719949  1
  Ni  Ni21  1  0.65868302  0.33053368  0.99319593  1
  Cr  Cr22  1  0.82785697  0.49178260  0.16103099  1
  Ni  Ni23  1  0.66028664  0.32829602  0.32829634  1
  Cr  Cr24  1  0.66175276  0.65752903  0.99454634  1
  Cr  Cr25  1  0.82848052  0.82708241  0.16076334  1
  Cr  Cr26  1  0.65919456  0.65928669  0.32916406  1
  Ni  Ni27  1  0.16050332  0.16176031  0.49477906  1
  Cr  Cr28  1  -0.00434093  -0.00440687  0.65939555  1
  Cr  Cr29  1  0.16409958  0.16109911  0.82712725  1
  Cr  Cr30  1  0.16035875  0.49383606  0.49408936  1
  Cr  Cr31  1  0.99442958  0.32812397  0.66071618  1
  Cr  Cr32  1  0.15901097  0.49718853  0.83041470  1
  Cr  Cr33  1  0.16466649  0.82839843  0.49759630  1
  Ni  Ni34  1  0.99314441  0.65990060  0.66322010  1
  Cr  Cr35  1  0.16256113  0.82616176  0.82782845  1
  Cr  Cr36  1  0.49628652  0.16082009  0.49633648  1
  Ni  Ni37  1  0.32931289  -0.00307675  0.66035197  1
  Ni  Ni38  1  0.49608734  0.16470938  0.82769277  1
  Fe  Fe39  1  0.49632004  0.49369460  0.49438676  1
  Cr  Cr40  1  0.33025873  0.32691990  0.66188953  1
  Ni  Ni41  1  0.49821633  0.49153027  0.82846018  1
  Ni  Ni42  1  0.49340424  0.82869122  0.49558392  1
  Cr  Cr43  1  0.33028603  0.65953813  0.66051919  1
  Cr  Cr44  1  0.49244610  0.83021984  0.82726960  1
  Ni  Ni45  1  0.82815624  0.16505972  0.49304546  1
  Cr  Cr46  1  0.66099555  -0.00436864  0.66166954  1
  Cr  Cr47  1  0.82420413  0.16617970  0.82903822  1
  Cr  Cr48  1  0.82729097  0.49126606  0.49492002  1
  Fe  Fe49  1  0.66121344  0.32871055  0.66304725  1
  Ni  Ni50  1  0.82686755  0.49385679  0.82920224  1
  Cr  Cr51  1  0.82639436  0.82808529  0.49549335  1
  Cr  Cr52  1  0.66203307  0.65827809  0.66089846  1
  Cr  Cr53  1  0.82968854  0.82474605  0.82827776  1
" 