2621,Ni24Cr76_6,-230.480021892057, 145.115935477722,Ni24Cr76,"# generated using pymatgen
 data_Cr2Ni7
_symmetry_space_group_name_H-M   'P 1'
_cell_length_a   7.47972912
_cell_length_b   7.47972912
_cell_length_c   10.57793437
_cell_angle_alpha   90.00000000
_cell_angle_beta   90.00000000
_cell_angle_gamma   90.00000000
_symmetry_Int_Tables_number   1
_chemical_formula_structural   Cr2Ni7
_chemical_formula_sum   'Cr12 Ni42'
_cell_volume   591.79679506
_cell_formula_units_Z   6
loop_
 _symmetry_equiv_pos_site_id
 _symmetry_equiv_pos_as_xyz
  1  'x, y, z'
loop_
 _atom_site_type_symbol
 _atom_site_label
 _atom_site_symmetry_multiplicity
 _atom_site_fract_x
 _atom_site_fract_y
 _atom_site_fract_z
 _atom_site_occupancy
  Cr  Cr0  1  0.99812299  0.99718794  0.99892903  1
  Ni  Ni1  1  0.16740401  0.16925220  0.16819963  1
  Ni  Ni2  1  0.99864635  0.99836479  0.33179586  1
  Ni  Ni3  1  -0.00011508  0.33692762  0.00042789  1
  Ni  Ni4  1  0.16612135  0.49705541  0.16610210  1
  Ni  Ni5  1  0.00217942  0.33479619  0.33182261  1
  Ni  Ni6  1  0.99791868  0.66299415  0.99815515  1
  Cr  Cr7  1  0.16581573  0.83071441  0.16708198  1
  Ni  Ni8  1  0.99745841  0.66430389  0.33263730  1
  Cr  Cr9  1  0.33520052  -0.00063385  0.99894182  1
  Ni  Ni10  1  0.49753509  0.16591607  0.16571844  1
  Ni  Ni11  1  0.33404809  -0.00057444  0.33096709  1
  Ni  Ni12  1  0.33344719  0.33476947  0.00040933  1
  Ni  Ni13  1  0.49808268  0.49970234  0.16491377  1
  Ni  Ni14  1  0.32944661  0.33268409  0.32973449  1
  Ni  Ni15  1  0.33330695  0.66305182  0.99815676  1
  Ni  Ni16  1  0.50156267  0.83183916  0.16729218  1
  Ni  Ni17  1  0.33313017  0.66534480  0.33181054  1
  Ni  Ni18  1  0.66410123  0.99764825  -0.00063615  1
  Cr  Cr19  1  0.83272019  0.16559127  0.16539551  1
  Ni  Ni20  1  0.66476371  0.99473776  0.33164458  1
  Ni  Ni21  1  0.66412537  0.33424782  0.99877497  1
  Ni  Ni22  1  0.83325565  0.50112262  0.16511468  1
  Cr  Cr23  1  0.66582145  0.33442559  0.33145328  1
  Ni  Ni24  1  0.66622705  0.66555578  -0.00039802  1
  Ni  Ni25  1  0.82990694  0.83056552  0.16695641  1
  Ni  Ni26  1  0.66688140  0.66890860  0.33177230  1
  Cr  Cr27  1  0.16544649  0.16709877  0.49871226  1
  Ni  Ni28  1  0.99845992  0.99684533  0.66644478  1
  Cr  Cr29  1  0.16662727  0.16693599  0.83079442  1
  Ni  Ni30  1  0.16401689  0.49917084  0.49893354  1
  Ni  Ni31  1  -0.00077077  0.33564819  0.66522213  1
  Ni  Ni32  1  0.16612577  0.50110795  0.83242392  1
  Cr  Cr33  1  0.16631747  0.83097656  0.49937637  1
  Ni  Ni34  1  0.99830549  0.66496637  0.66664129  1
  Ni  Ni35  1  0.16595865  0.82915600  0.83049193  1
  Cr  Cr36  1  0.49870320  0.16390771  0.50040960  1
  Ni  Ni37  1  0.33423456  0.99792262  0.66728506  1
  Ni  Ni38  1  0.50009098  0.16657260  0.83159159  1
  Cr  Cr39  1  0.49822084  0.50174284  0.50000968  1
  Ni  Ni40  1  0.33240358  0.33351851  0.66733331  1
  Ni  Ni41  1  0.49891682  0.49921477  0.83257159  1
  Ni  Ni42  1  0.50094416  0.83231871  0.49876319  1
  Ni  Ni43  1  0.33229152  0.66600854  0.66746329  1
  Ni  Ni44  1  0.49965993  0.83165525  0.83137581  1
  Cr  Cr45  1  0.83331212  0.16516661  0.50043930  1
  Ni  Ni46  1  0.66476559  0.99698920  0.66645913  1
  Cr  Cr47  1  0.83017274  0.16669997  0.83162089  1
  Ni  Ni48  1  0.83499836  0.50150786  0.49999621  1
  Ni  Ni49  1  0.66582765  0.33372181  0.66775651  1
  Ni  Ni50  1  0.83241816  0.50065354  0.83236730  1
  Ni  Ni51  1  0.83096006  0.83104569  0.49876542  1
  Ni  Ni52  1  0.66687554  0.66675620  0.66608147  1
  Ni  Ni53  1  0.83182497  0.83041513  0.83171928  1
" 