8751,Ni24Cr76_4,-230.780726906065, 150.075225306645,Ni24Cr76,"# generated using pymatgen
 data_Cr2Ni7
_symmetry_space_group_name_H-M   'P 1'
_cell_length_a   7.48088660
_cell_length_b   7.48088660
_cell_length_c   10.57957129
_cell_angle_alpha   90.00000000
_cell_angle_beta   90.00000000
_cell_angle_gamma   90.00000000
_symmetry_Int_Tables_number   1
_chemical_formula_structural   Cr2Ni7
_chemical_formula_sum   'Cr12 Ni42'
_cell_volume   592.07157713
_cell_formula_units_Z   6
loop_
 _symmetry_equiv_pos_site_id
 _symmetry_equiv_pos_as_xyz
  1  'x, y, z'
loop_
 _atom_site_type_symbol
 _atom_site_label
 _atom_site_symmetry_multiplicity
 _atom_site_fract_x
 _atom_site_fract_y
 _atom_site_fract_z
 _atom_site_occupancy
  Ni  Ni0  1  0.99552052  0.99756276  -0.00055634  1
  Cr  Cr1  1  0.16347386  0.16732954  0.16806460  1
  Ni  Ni2  1  0.99874115  0.99711998  0.33242752  1
  Ni  Ni3  1  0.99716553  0.33441347  -0.00084721  1
  Ni  Ni4  1  0.16405247  0.49963494  0.16661743  1
  Ni  Ni5  1  0.99858479  0.33469918  0.33294682  1
  Ni  Ni6  1  0.99866710  0.66554061  0.99853102  1
  Ni  Ni7  1  0.16182825  0.83051065  0.16786781  1
  Ni  Ni8  1  -0.00064526  0.66543006  0.33246179  1
  Cr  Cr9  1  0.33043408  0.99777254  0.99709912  1
  Cr  Cr10  1  0.49927210  0.16694821  0.16385195  1
  Ni  Ni11  1  0.33065390  0.99691180  0.33521656  1
  Ni  Ni12  1  0.33310505  0.33506241  0.99811433  1
  Ni  Ni13  1  0.49852849  0.49810568  0.16670123  1
  Ni  Ni14  1  0.33215416  0.33590731  0.33316830  1
  Cr  Cr15  1  0.32806247  0.66244156  0.99865064  1
  Cr  Cr16  1  0.50049689  0.83000736  0.16866969  1
  Ni  Ni17  1  0.33089940  0.66413527  0.33316839  1
  Ni  Ni18  1  0.67082158  0.00152566  0.99758099  1
  Ni  Ni19  1  0.83466280  0.16640950  0.16384396  1
  Cr  Cr20  1  0.66838873  -0.00063430  0.33501023  1
  Ni  Ni21  1  0.66713921  0.33191740  0.99817708  1
  Ni  Ni22  1  0.83449904  0.49941355  0.16609802  1
  Cr  Cr23  1  0.66708700  0.33504764  0.33384497  1
  Cr  Cr24  1  0.66832668  0.66296055  0.00033233  1
  Ni  Ni25  1  0.83590245  0.83165543  0.16571893  1
  Ni  Ni26  1  0.66697551  0.66461127  0.33345801  1
  Cr  Cr27  1  0.16557742  0.16876928  0.49723568  1
  Cr  Cr28  1  0.99766188  0.99733705  0.66497605  1
  Cr  Cr29  1  0.16454245  0.16880170  0.83175059  1
  Ni  Ni30  1  0.16506408  0.50084391  0.49933420  1
  Ni  Ni31  1  0.99686166  0.33608365  0.66512926  1
  Ni  Ni32  1  0.16405422  0.49970950  0.83115779  1
  Ni  Ni33  1  0.16633540  0.82993075  0.49814218  1
  Ni  Ni34  1  -0.00076367  0.66388687  0.66622533  1
  Ni  Ni35  1  0.16281085  0.82986757  0.83096275  1
  Ni  Ni36  1  0.49847530  0.16588927  0.50171300  1
  Ni  Ni37  1  0.33442084  0.99807233  0.66445254  1
  Ni  Ni38  1  0.50142694  0.16819745  0.83126603  1
  Ni  Ni39  1  0.49869101  0.50059083  0.49984085  1
  Ni  Ni40  1  0.33412224  0.33493918  0.66589386  1
  Ni  Ni41  1  0.49953540  0.49597134  0.83089429  1
  Ni  Ni42  1  0.49889130  0.83080010  0.50002943  1
  Ni  Ni43  1  0.33118978  0.66425909  0.66511806  1
  Cr  Cr44  1  0.50198885  0.83152658  0.82879430  1
  Ni  Ni45  1  0.83219827  0.16722523  0.50014122  1
  Ni  Ni46  1  0.66582221  0.00032991  0.66479514  1
  Ni  Ni47  1  0.83043454  0.16723152  0.83336802  1
  Ni  Ni48  1  0.83345394  0.50047590  0.50015967  1
  Ni  Ni49  1  0.66592642  0.33272403  0.66567611  1
  Ni  Ni50  1  0.83331952  0.49869809  0.83116902  1
  Ni  Ni51  1  0.83205565  0.82976205  0.49911154  1
  Ni  Ni52  1  0.66698166  0.66408460  0.66403583  1
  Ni  Ni53  1  0.83417619  0.83160450  0.83246139  1
" 