3156,Ni24Fe58Cr17_13,-229.538417001987, 189.479377722395,Ni24Fe58Cr17,"# generated using pymatgen
 data_Cr10Fe31Ni13
_symmetry_space_group_name_H-M   'P 1'
_cell_length_a   7.43738456
_cell_length_b   7.43738456
_cell_length_c   10.51805011
_cell_angle_alpha   90.00000000
_cell_angle_beta   90.00000000
_cell_angle_gamma   90.00000000
_symmetry_Int_Tables_number   1
_chemical_formula_structural   Cr10Fe31Ni13
_chemical_formula_sum   'Cr10 Fe31 Ni13'
_cell_volume   581.80267183
_cell_formula_units_Z   1
loop_
 _symmetry_equiv_pos_site_id
 _symmetry_equiv_pos_as_xyz
  1  'x, y, z'
loop_
 _atom_site_type_symbol
 _atom_site_label
 _atom_site_symmetry_multiplicity
 _atom_site_fract_x
 _atom_site_fract_y
 _atom_site_fract_z
 _atom_site_occupancy
  Ni  Ni0  1  1.00156389  0.00204917  1.00072360  1
  Cr  Cr1  1  0.17030388  0.16803640  0.16899318  1
  Fe  Fe2  1  1.00119940  1.00134092  0.33570093  1
  Cr  Cr3  1  1.00028746  0.33219435  1.00105959  1
  Fe  Fe4  1  0.17123515  0.50167094  0.16916465  1
  Fe  Fe5  1  0.00235452  0.33493029  0.33581926  1
  Cr  Cr6  1  0.00416867  0.67208402  0.00367401  1
  Fe  Fe7  1  0.16847379  0.83612322  0.16852435  1
  Fe  Fe8  1  0.00234381  0.66971220  0.33588089  1
  Fe  Fe9  1  0.33603351  1.00129132  1.00151040  1
  Ni  Ni10  1  0.50323072  0.16864559  0.16791248  1
  Fe  Fe11  1  0.33679916  0.00288736  0.33638280  1
  Fe  Fe12  1  0.33832117  0.33556409  0.00269554  1
  Fe  Fe13  1  0.50093880  0.49953959  0.16857162  1
  Ni  Ni14  1  0.33586650  0.33447431  0.33597105  1
  Ni  Ni15  1  0.33608037  0.66966749  0.00312895  1
  Fe  Fe16  1  0.50246190  0.83701267  0.16864609  1
  Cr  Cr17  1  0.33554894  0.66759697  0.33496001  1
  Fe  Fe18  1  0.66933595  0.00376902  0.00208634  1
  Ni  Ni19  1  0.83232693  0.16712773  0.16850774  1
  Fe  Fe20  1  0.66798283  0.00288088  0.33548969  1
  Ni  Ni21  1  0.66614102  0.33207167  1.00174785  1
  Cr  Cr22  1  0.83499881  0.50153971  0.16991382  1
  Fe  Fe23  1  0.66664111  0.33358429  0.33494833  1
  Cr  Cr24  1  0.66621411  0.66849838  1.00031267  1
  Fe  Fe25  1  0.83504770  0.83914052  0.16954907  1
  Ni  Ni26  1  0.66864594  0.67053710  0.33616606  1
  Fe  Fe27  1  0.16881131  0.16860044  0.50165195  1
  Fe  Fe28  1  0.00241019  1.00088022  0.66897163  1
  Fe  Fe29  1  0.16859081  0.16591697  0.83506663  1
  Fe  Fe30  1  0.16930446  0.50075208  0.50282059  1
  Fe  Fe31  1  0.00240811  0.33467024  0.66860160  1
  Cr  Cr32  1  0.16920132  0.50256742  0.83439878  1
  Ni  Ni33  1  0.16857488  0.83558454  0.50375772  1
  Ni  Ni34  1  0.00244730  0.67052052  0.66839093  1
  Fe  Fe35  1  0.16854972  0.83716131  0.83452836  1
  Ni  Ni36  1  0.50022666  0.16850486  0.49998918  1
  Fe  Fe37  1  0.33422132  1.00120823  0.66808793  1
  Fe  Fe38  1  0.50109725  0.16869085  0.83691928  1
  Fe  Fe39  1  0.50093920  0.50173668  0.50175678  1
  Fe  Fe40  1  0.33508351  0.33520602  0.66723547  1
  Fe  Fe41  1  0.50278328  0.50277353  0.83565491  1
  Fe  Fe42  1  0.50266179  0.83562265  0.50201561  1
  Fe  Fe43  1  0.33599468  0.66956946  0.66815163  1
  Fe  Fe44  1  0.50100696  0.83451549  0.83531840  1
  Ni  Ni45  1  0.83576065  0.16810986  0.50017702  1
  Cr  Cr46  1  0.66924501  1.00071921  0.66814185  1
  Fe  Fe47  1  0.83628995  0.16769096  0.83665983  1
  Cr  Cr48  1  0.83566635  0.50321125  0.50243192  1
  Cr  Cr49  1  0.66813708  0.33584365  0.66942391  1
  Fe  Fe50  1  0.83365395  0.50281818  0.83359299  1
  Fe  Fe51  1  0.83576390  0.83611522  0.50209583  1
  Ni  Ni52  1  0.66843987  0.66936867  0.66945643  1
  Ni  Ni53  1  0.83587044  0.83535731  0.83434788  1
" 