5600,Ni24Fe50Cr24_12,-227.707963415958, 194.653009633155,Ni24Fe50Cr24,"# generated using pymatgen
 data_Cr14Fe27Ni13
_symmetry_space_group_name_H-M   'P 1'
_cell_length_a   7.44967467
_cell_length_b   7.44967467
_cell_length_c   10.53543096
_cell_angle_alpha   90.00000000
_cell_angle_beta   90.00000000
_cell_angle_gamma   90.00000000
_symmetry_Int_Tables_number   1
_chemical_formula_structural   Cr14Fe27Ni13
_chemical_formula_sum   'Cr14 Fe27 Ni13'
_cell_volume   584.69168829
_cell_formula_units_Z   1
loop_
 _symmetry_equiv_pos_site_id
 _symmetry_equiv_pos_as_xyz
  1  'x, y, z'
loop_
 _atom_site_type_symbol
 _atom_site_label
 _atom_site_symmetry_multiplicity
 _atom_site_fract_x
 _atom_site_fract_y
 _atom_site_fract_z
 _atom_site_occupancy
  Fe  Fe0  1  1.00087085  0.99954569  1.00003519  1
  Fe  Fe1  1  0.16582407  0.16402699  0.16631884  1
  Fe  Fe2  1  0.00173959  0.99959905  0.33441100  1
  Cr  Cr3  1  0.00216802  0.33343721  0.99862605  1
  Cr  Cr4  1  0.16881309  0.50440211  0.16703219  1
  Fe  Fe5  1  0.00130518  0.33533838  0.33441655  1
  Fe  Fe6  1  0.99871403  0.66934233  1.00102598  1
  Ni  Ni7  1  0.16876167  0.83383136  0.16690192  1
  Cr  Cr8  1  0.99894859  0.67033313  0.33349423  1
  Fe  Fe9  1  0.33469994  0.99879881  1.00100855  1
  Cr  Cr10  1  0.50502467  0.16699237  0.16617568  1
  Cr  Cr11  1  0.33337009  1.00069493  0.33473216  1
  Cr  Cr12  1  0.33532578  0.33139966  0.99934681  1
  Fe  Fe13  1  0.50362758  0.50452531  0.16653359  1
  Cr  Cr14  1  0.33474956  0.33352508  0.33400235  1
  Fe  Fe15  1  0.33746349  0.66909158  0.00169381  1
  Fe  Fe16  1  0.50181834  0.83273223  0.16550522  1
  Ni  Ni17  1  0.33633661  0.66922862  0.33428265  1
  Fe  Fe18  1  0.66839753  0.99973507  0.99841311  1
  Cr  Cr19  1  0.83290181  0.16826750  0.16956912  1
  Fe  Fe20  1  0.66719213  0.99829266  0.33575214  1
  Fe  Fe21  1  0.66858867  0.33690031  0.99859791  1
  Fe  Fe22  1  0.83244741  0.50309801  0.16592470  1
  Fe  Fe23  1  0.66721726  0.33666969  0.33556577  1
  Ni  Ni24  1  0.66930426  0.66966032  1.00047853  1
  Ni  Ni25  1  0.83476420  0.83664636  0.16589592  1
  Cr  Cr26  1  0.66809188  0.66890375  0.33565035  1
  Fe  Fe27  1  0.16705221  0.16761286  0.50445897  1
  Ni  Ni28  1  1.00107993  0.00141204  0.66813333  1
  Ni  Ni29  1  0.16718263  0.16622902  0.83202199  1
  Cr  Cr30  1  0.16814125  0.50297063  0.50453020  1
  Fe  Fe31  1  0.99937555  0.33311031  0.67028722  1
  Fe  Fe32  1  0.16866389  0.50018868  0.83260608  1
  Fe  Fe33  1  0.16718519  0.83580322  0.50179037  1
  Cr  Cr34  1  0.99536664  0.66874619  0.67005843  1
  Cr  Cr35  1  0.17074779  0.83291890  0.83460977  1
  Fe  Fe36  1  0.50093421  0.16792907  0.50283828  1
  Fe  Fe37  1  0.33647030  0.00147524  0.66768015  1
  Fe  Fe38  1  0.50138641  0.16468902  0.83412101  1
  Fe  Fe39  1  0.50185184  0.50169648  0.50254765  1
  Ni  Ni40  1  0.33342227  0.33214610  0.66964276  1
  Fe  Fe41  1  0.50112353  0.50392926  0.83461892  1
  Fe  Fe42  1  0.50173124  0.83361888  0.50365180  1
  Fe  Fe43  1  0.33845313  0.66855659  0.66764183  1
  Ni  Ni44  1  0.50199419  0.83382135  0.83470936  1
  Cr  Cr45  1  0.83337260  0.16751044  0.50026744  1
  Ni  Ni46  1  0.66839294  0.99888362  0.66899270  1
  Ni  Ni47  1  0.83366814  0.16722381  0.83413290  1
  Ni  Ni48  1  0.83393262  0.49958790  0.50042364  1
  Cr  Cr49  1  0.66551097  0.33632626  0.67046187  1
  Ni  Ni50  1  0.83328774  0.50106009  0.83565516  1
  Fe  Fe51  1  0.83374787  0.83498337  0.50244257  1
  Ni  Ni52  1  0.66826372  0.66927748  0.66786297  1
  Fe  Fe53  1  0.83215995  0.83623972  0.83538739  1
" 