465,Ni24Fe58Cr17_17,-230.169024427214, 186.694045326378,Ni24Fe58Cr17,"# generated using pymatgen
 data_Cr10Fe31Ni13
_symmetry_space_group_name_H-M   'P 1'
_cell_length_a   7.44746471
_cell_length_b   7.44746471
_cell_length_c   10.53230560
_cell_angle_alpha   90.00000000
_cell_angle_beta   90.00000000
_cell_angle_gamma   90.00000000
_symmetry_Int_Tables_number   1
_chemical_formula_structural   Cr10Fe31Ni13
_chemical_formula_sum   'Cr10 Fe31 Ni13'
_cell_volume   584.17149269
_cell_formula_units_Z   1
loop_
 _symmetry_equiv_pos_site_id
 _symmetry_equiv_pos_as_xyz
  1  'x, y, z'
loop_
 _atom_site_type_symbol
 _atom_site_label
 _atom_site_symmetry_multiplicity
 _atom_site_fract_x
 _atom_site_fract_y
 _atom_site_fract_z
 _atom_site_occupancy
  Ni  Ni0  1  0.00203565  0.00362068  1.00037135  1
  Fe  Fe1  1  0.16755912  0.16865968  0.16687247  1
  Fe  Fe2  1  1.00031969  1.00059504  0.33464899  1
  Ni  Ni3  1  0.00259199  0.33288576  0.00287981  1
  Fe  Fe4  1  0.16725680  0.49982438  0.16669748  1
  Cr  Cr5  1  0.00179294  0.33404730  0.33430209  1
  Fe  Fe6  1  0.00156491  0.66916153  0.00219948  1
  Cr  Cr7  1  0.16754652  0.83482689  0.16728359  1
  Fe  Fe8  1  0.99980885  0.66844023  0.33535181  1
  Ni  Ni9  1  0.33436570  0.00175393  0.99946666  1
  Fe  Fe10  1  0.50054473  0.16611158  0.16737691  1
  Ni  Ni11  1  0.33392417  1.00053612  0.33501401  1
  Fe  Fe12  1  0.33321265  0.33173415  0.00235370  1
  Fe  Fe13  1  0.50047828  0.50200828  0.16934756  1
  Fe  Fe14  1  0.33481938  0.33550881  0.33428405  1
  Fe  Fe15  1  0.33357227  0.66946737  0.00140870  1
  Fe  Fe16  1  0.50297172  0.83582782  0.16870026  1
  Fe  Fe17  1  0.33619971  0.66724448  0.33608689  1
  Ni  Ni18  1  0.66754154  1.00078426  1.00114075  1
  Ni  Ni19  1  0.83448197  0.16655708  0.16678224  1
  Fe  Fe20  1  0.66853251  0.99921830  0.33318051  1
  Cr  Cr21  1  0.66983845  0.33349577  0.00261372  1
  Ni  Ni22  1  0.83594626  0.50197174  0.16755330  1
  Cr  Cr23  1  0.66919823  0.33770214  0.33374927  1
  Cr  Cr24  1  0.66765885  0.66988799  0.00272485  1
  Fe  Fe25  1  0.83366081  0.83552420  0.16836421  1
  Ni  Ni26  1  0.66765646  0.66853251  0.33488151  1
  Fe  Fe27  1  0.16784018  0.16777181  0.50189686  1
  Fe  Fe28  1  0.00218748  1.00057135  0.66837089  1
  Fe  Fe29  1  0.16856626  0.16651983  0.83517464  1
  Fe  Fe30  1  0.16904144  0.50202304  0.50255594  1
  Fe  Fe31  1  0.00181140  0.33383399  0.66662875  1
  Cr  Cr32  1  0.16753625  0.50300499  0.83570882  1
  Fe  Fe33  1  0.16898861  0.83414792  0.50147912  1
  Fe  Fe34  1  0.00344094  0.66954145  0.66639325  1
  Fe  Fe35  1  0.16908835  0.83657408  0.83473296  1
  Cr  Cr36  1  0.50081712  0.16772762  0.50176938  1
  Ni  Ni37  1  0.33310234  1.00025291  0.66946336  1
  Ni  Ni38  1  0.50076498  0.16429723  0.83444602  1
  Ni  Ni39  1  0.50039391  0.50238320  0.50142000  1
  Fe  Fe40  1  0.33479585  0.33421631  0.66730704  1
  Cr  Cr41  1  0.49942768  0.49924776  0.83354791  1
  Fe  Fe42  1  0.50059183  0.83288769  0.50057895  1
  Ni  Ni43  1  0.33430587  0.67009550  0.66610938  1
  Fe  Fe44  1  0.49942943  0.83807481  0.83466306  1
  Fe  Fe45  1  0.83554417  0.16780125  0.50222085  1
  Fe  Fe46  1  0.66734405  0.00183247  0.66957623  1
  Fe  Fe47  1  0.83496878  0.16606924  0.83530345  1
  Ni  Ni48  1  0.83528405  0.50281120  0.50237174  1
  Fe  Fe49  1  0.66733845  0.33296119  0.66698527  1
  Cr  Cr50  1  0.83697977  0.50072704  0.83435987  1
  Fe  Fe51  1  0.83435896  0.83408683  0.50038477  1
  Cr  Cr52  1  0.66654344  0.66761482  0.66671842  1
  Fe  Fe53  1  0.83542399  0.83799216  0.83519265  1
" 