1077,Ni24Fe10Cr64_8,-212.706791487749, 153.9290771123,Ni24Fe10Cr64,"# generated using pymatgen
 data_Cr36Fe5Ni13
_symmetry_space_group_name_H-M   'P 1'
_cell_length_a   7.55400144
_cell_length_b   7.55400144
_cell_length_c   10.68297128
_cell_angle_alpha   90.00000000
_cell_angle_beta   90.00000000
_cell_angle_gamma   90.00000000
_symmetry_Int_Tables_number   1
_chemical_formula_structural   Cr36Fe5Ni13
_chemical_formula_sum   'Cr36 Fe5 Ni13'
_cell_volume   609.60172463
_cell_formula_units_Z   1
loop_
 _symmetry_equiv_pos_site_id
 _symmetry_equiv_pos_as_xyz
  1  'x, y, z'
loop_
 _atom_site_type_symbol
 _atom_site_label
 _atom_site_symmetry_multiplicity
 _atom_site_fract_x
 _atom_site_fract_y
 _atom_site_fract_z
 _atom_site_occupancy
  Cr  Cr0  1  -0.00565799  0.99414071  0.99374888  1
  Cr  Cr1  1  0.16249186  0.16034600  0.16025100  1
  Cr  Cr2  1  0.99134301  -0.00541802  0.32804026  1
  Cr  Cr3  1  -0.00409540  0.32938705  0.99404149  1
  Fe  Fe4  1  0.15966188  0.49555584  0.16126757  1
  Cr  Cr5  1  0.99294713  0.32837341  0.32682337  1
  Cr  Cr6  1  0.99226363  0.65912511  -0.00445340  1
  Cr  Cr7  1  0.16174415  0.82687979  0.16307415  1
  Cr  Cr8  1  -0.00507153  0.65969991  0.32566223  1
  Cr  Cr9  1  0.32842737  0.99356601  0.99209783  1
  Cr  Cr10  1  0.49416217  0.15985566  0.16303426  1
  Ni  Ni11  1  0.33135813  0.99209261  0.32756370  1
  Cr  Cr12  1  0.32536298  0.32864203  0.99193014  1
  Cr  Cr13  1  0.49507930  0.49536787  0.16135363  1
  Cr  Cr14  1  0.32676131  0.32866983  0.32676506  1
  Cr  Cr15  1  0.32972135  0.66055564  0.99316444  1
  Fe  Fe16  1  0.49643675  0.82711528  0.16218694  1
  Ni  Ni17  1  0.32864083  0.66251058  0.32605671  1
  Cr  Cr18  1  0.65999293  0.98945814  -0.00346654  1
  Cr  Cr19  1  0.82594725  0.16077837  0.16180489  1
  Ni  Ni20  1  0.65958572  -0.00537342  0.32676334  1
  Cr  Cr21  1  0.66143342  0.33067387  0.99287239  1
  Ni  Ni22  1  0.82627754  0.49752265  0.16030341  1
  Fe  Fe23  1  0.66195154  0.32602562  0.32750643  1
  Ni  Ni24  1  0.66096868  0.66079594  0.99356844  1
  Ni  Ni25  1  0.82519395  0.82462102  0.16101704  1
  Cr  Cr26  1  0.66062180  0.66356150  0.32614647  1
  Cr  Cr27  1  0.16046892  0.15793078  0.49561631  1
  Ni  Ni28  1  -0.00378819  -0.00407402  0.66156079  1
  Ni  Ni29  1  0.16129329  0.15969379  0.82576596  1
  Cr  Cr30  1  0.16222087  0.49648318  0.49141960  1
  Cr  Cr31  1  -0.00528844  0.32610494  0.66162984  1
  Ni  Ni32  1  0.16139401  0.49366500  0.82855989  1
  Cr  Cr33  1  0.16183999  0.82846927  0.49524926  1
  Cr  Cr34  1  -0.00494819  0.66130223  0.66186671  1
  Fe  Fe35  1  0.16206550  0.82789329  0.82626241  1
  Cr  Cr36  1  0.49557289  0.16060608  0.49180988  1
  Fe  Fe37  1  0.32570333  0.99365633  0.66295353  1
  Cr  Cr38  1  0.49206589  0.16100416  0.82770918  1
  Cr  Cr39  1  0.49421385  0.49417868  0.49343730  1
  Cr  Cr40  1  0.32693259  0.32813696  0.66391115  1
  Ni  Ni41  1  0.49430267  0.49790192  0.82834097  1
  Cr  Cr42  1  0.49193011  0.82801771  0.49188387  1
  Cr  Cr43  1  0.32843749  0.66117594  0.66290427  1
  Ni  Ni44  1  0.49253750  0.82479728  0.82881485  1
  Ni  Ni45  1  0.82685627  0.15952654  0.49291488  1
  Cr  Cr46  1  0.66127497  0.99377744  0.65963143  1
  Cr  Cr47  1  0.82997255  0.16129043  0.82700463  1
  Cr  Cr48  1  0.82629431  0.49263625  0.49452689  1
  Cr  Cr49  1  0.66115012  0.32805719  0.66008336  1
  Ni  Ni50  1  0.82700961  0.49619909  0.82896716  1
  Cr  Cr51  1  0.82894690  0.82974383  0.49503160  1
  Cr  Cr52  1  0.65928729  0.66082823  0.66409619  1
  Cr  Cr53  1  0.82790814  0.82567252  0.82812793  1
" 