925,Ni24Fe50Cr24_17,-227.840460251318, 189.815475935404,Ni24Fe50Cr24,"# generated using pymatgen
 data_Cr14Fe27Ni13
_symmetry_space_group_name_H-M   'P 1'
_cell_length_a   7.45496910
_cell_length_b   7.45496910
_cell_length_c   10.54291841
_cell_angle_alpha   90.00000000
_cell_angle_beta   90.00000000
_cell_angle_gamma   90.00000000
_symmetry_Int_Tables_number   1
_chemical_formula_structural   Cr14Fe27Ni13
_chemical_formula_sum   'Cr14 Fe27 Ni13'
_cell_volume   585.93918299
_cell_formula_units_Z   1
loop_
 _symmetry_equiv_pos_site_id
 _symmetry_equiv_pos_as_xyz
  1  'x, y, z'
loop_
 _atom_site_type_symbol
 _atom_site_label
 _atom_site_symmetry_multiplicity
 _atom_site_fract_x
 _atom_site_fract_y
 _atom_site_fract_z
 _atom_site_occupancy
  Ni  Ni0  1  0.99831863  0.00316662  0.00207583  1
  Fe  Fe1  1  0.16520465  0.16897201  0.16725251  1
  Cr  Cr2  1  0.00129573  0.00415292  0.33410218  1
  Fe  Fe3  1  0.00137987  0.33164319  0.00186860  1
  Ni  Ni4  1  0.16686587  0.50156061  0.16652888  1
  Ni  Ni5  1  0.99922670  0.33408594  0.33440489  1
  Fe  Fe6  1  1.00017972  0.66793849  0.00267945  1
  Fe  Fe7  1  0.16764881  0.83416943  0.16742638  1
  Cr  Cr8  1  0.99986684  0.66465268  0.33319909  1
  Cr  Cr9  1  0.33393071  0.00197617  0.00122262  1
  Cr  Cr10  1  0.50254332  0.16756307  0.16792868  1
  Ni  Ni11  1  0.33555229  0.99855262  0.33280060  1
  Fe  Fe12  1  0.33316756  0.33423741  1.00053333  1
  Ni  Ni13  1  0.50158187  0.50265871  0.16794075  1
  Cr  Cr14  1  0.33238610  0.33486992  0.33445012  1
  Cr  Cr15  1  0.33545275  0.66533431  0.00201024  1
  Fe  Fe16  1  0.50208623  0.83281184  0.16939106  1
  Fe  Fe17  1  0.33583527  0.66811662  0.33289303  1
  Ni  Ni18  1  0.67006427  0.00122849  0.99976450  1
  Ni  Ni19  1  0.83461179  0.16772797  0.16687859  1
  Fe  Fe20  1  0.66738735  0.99990344  0.33366205  1
  Fe  Fe21  1  0.66788184  0.33272889  1.00053729  1
  Fe  Fe22  1  0.83362518  0.49913091  0.16709322  1
  Fe  Fe23  1  0.67060060  0.33498158  0.33406947  1
  Fe  Fe24  1  0.66734551  0.66859440  0.00248708  1
  Fe  Fe25  1  0.83269863  0.83439291  0.16523579  1
  Fe  Fe26  1  0.66542173  0.66754167  0.33419245  1
  Ni  Ni27  1  0.16662180  0.16946507  0.49895779  1
  Cr  Cr28  1  0.99914276  0.00178972  0.66646037  1
  Ni  Ni29  1  0.16826235  0.16986178  0.83630270  1
  Fe  Fe30  1  0.16809063  0.50000644  0.50099146  1
  Cr  Cr31  1  0.00094507  0.33422902  0.66541195  1
  Fe  Fe32  1  0.16779622  0.49898597  0.83432569  1
  Cr  Cr33  1  0.16884617  0.83301114  0.50094992  1
  Ni  Ni34  1  1.00063316  0.66560775  0.66655236  1
  Cr  Cr35  1  0.16602593  0.83290382  0.83361065  1
  Cr  Cr36  1  0.50181073  0.16718368  0.50041127  1
  Cr  Cr37  1  0.33571710  0.00140866  0.66922316  1
  Fe  Fe38  1  0.50289716  0.16866188  0.83407897  1
  Fe  Fe39  1  0.50116504  0.50270503  0.50136604  1
  Fe  Fe40  1  0.33407140  0.33596050  0.66810128  1
  Fe  Fe41  1  0.50042740  0.49904229  0.83368912  1
  Ni  Ni42  1  0.50271569  0.83204729  0.49949908  1
  Fe  Fe43  1  0.33541944  0.66458240  0.66740969  1
  Fe  Fe44  1  0.50319280  0.83472490  0.83325341  1
  Fe  Fe45  1  0.83362770  0.16809925  0.50009575  1
  Fe  Fe46  1  0.66817457  0.00095598  0.66799954  1
  Ni  Ni47  1  0.83209223  0.16736213  0.83518827  1
  Fe  Fe48  1  0.83316859  0.50060543  0.50138964  1
  Ni  Ni49  1  0.66591842  0.33518362  0.66755813  1
  Cr  Cr50  1  0.83371730  0.50070454  0.83629474  1
  Fe  Fe51  1  0.83093734  0.83372767  0.50204736  1
  Fe  Fe52  1  0.66658153  0.66733352  0.66575569  1
  Cr  Cr53  1  0.83358695  0.83490298  0.83419254  1
" 