437,Ni24Fe58Cr17_6,-229.868169767126, 192.249813019239,Ni24Fe58Cr17,"# generated using pymatgen
 data_Cr10Fe31Ni13
_symmetry_space_group_name_H-M   'P 1'
_cell_length_a   7.43841464
_cell_length_b   7.43841464
_cell_length_c   10.51950686
_cell_angle_alpha   90.00000000
_cell_angle_beta   90.00000000
_cell_angle_gamma   90.00000000
_symmetry_Int_Tables_number   1
_chemical_formula_structural   Cr10Fe31Ni13
_chemical_formula_sum   'Cr10 Fe31 Ni13'
_cell_volume   582.04444461
_cell_formula_units_Z   1
loop_
 _symmetry_equiv_pos_site_id
 _symmetry_equiv_pos_as_xyz
  1  'x, y, z'
loop_
 _atom_site_type_symbol
 _atom_site_label
 _atom_site_symmetry_multiplicity
 _atom_site_fract_x
 _atom_site_fract_y
 _atom_site_fract_z
 _atom_site_occupancy
  Fe  Fe0  1  0.00302788  1.00120937  0.00266128  1
  Ni  Ni1  1  0.16941333  0.16667630  0.16805921  1
  Fe  Fe2  1  1.00062322  1.00158572  0.33449968  1
  Cr  Cr3  1  0.00201320  0.33293764  0.99910165  1
  Cr  Cr4  1  0.17058147  0.50151451  0.16920202  1
  Fe  Fe5  1  0.00219272  0.33424034  0.33521397  1
  Fe  Fe6  1  1.00132842  0.67093807  1.00160133  1
  Fe  Fe7  1  0.16676264  0.83751535  0.16726880  1
  Fe  Fe8  1  1.00123609  0.66994462  0.33660821  1
  Fe  Fe9  1  0.33444403  0.00318048  0.00269953  1
  Ni  Ni10  1  0.50114894  0.17040020  0.16955128  1
  Cr  Cr11  1  0.33626428  0.00233828  0.33432292  1
  Fe  Fe12  1  0.33753851  0.33426275  1.00135389  1
  Fe  Fe13  1  0.50253743  0.50031207  0.16764049  1
  Ni  Ni14  1  0.33577202  0.33503487  0.33323099  1
  Ni  Ni15  1  0.33677378  0.66821632  0.00207959  1
  Fe  Fe16  1  0.50291097  0.83542216  0.16814865  1
  Cr  Cr17  1  0.33484832  0.66828754  0.33593036  1
  Cr  Cr18  1  0.66944491  0.00241014  1.00185788  1
  Ni  Ni19  1  0.83521240  0.16630095  0.17033719  1
  Fe  Fe20  1  0.66918407  0.00217162  0.33449991  1
  Fe  Fe21  1  0.66569901  0.33596132  1.00072595  1
  Cr  Cr22  1  0.83223771  0.50351967  0.16943350  1
  Fe  Fe23  1  0.66775276  0.33350868  0.33525136  1
  Fe  Fe24  1  0.66766190  0.66784797  1.00130456  1
  Ni  Ni25  1  0.83621663  0.83569146  0.16965421  1
  Fe  Fe26  1  0.66929089  0.67009274  0.33527089  1
  Cr  Cr27  1  0.16776812  0.16786347  0.50183194  1
  Ni  Ni28  1  0.99996314  1.00140118  0.66905652  1
  Ni  Ni29  1  0.16873107  0.16782123  0.83589742  1
  Fe  Fe30  1  0.16674228  0.50407317  0.50133539  1
  Fe  Fe31  1  0.99967767  0.33516223  0.66965657  1
  Fe  Fe32  1  0.16986386  0.50127428  0.83576464  1
  Ni  Ni33  1  0.16716102  0.83433183  0.50298897  1
  Fe  Fe34  1  1.00119769  0.66803309  0.66757113  1
  Cr  Cr35  1  0.16805389  0.83687928  0.83582651  1
  Fe  Fe36  1  0.50405549  0.16686414  0.50186171  1
  Fe  Fe37  1  0.33646771  1.00108499  0.66835437  1
  Ni  Ni38  1  0.50162078  0.17045287  0.83415284  1
  Cr  Cr39  1  0.50361013  0.50176298  0.50043096  1
  Cr  Cr40  1  0.33523697  0.33589637  0.67014383  1
  Ni  Ni41  1  0.50407427  0.50177853  0.83741287  1
  Ni  Ni42  1  0.50295668  0.83555607  0.50453030  1
  Fe  Fe43  1  0.33548688  0.67018429  0.66854764  1
  Fe  Fe44  1  0.50177459  0.83471033  0.83442898  1
  Fe  Fe45  1  0.83380422  0.16787232  0.50205193  1
  Fe  Fe46  1  0.66843062  0.00260597  0.66868154  1
  Fe  Fe47  1  0.83498292  0.16895016  0.83376398  1
  Fe  Fe48  1  0.83647778  0.50245982  0.50203127  1
  Ni  Ni49  1  0.67054532  0.33414583  0.66985498  1
  Fe  Fe50  1  0.83396845  0.50150697  0.83443789  1
  Fe  Fe51  1  0.83558068  0.83543951  0.50167628  1
  Fe  Fe52  1  0.66909356  0.66898678  0.66920637  1
  Fe  Fe53  1  0.83448880  0.83531326  0.83492598  1
" 