1220,Ni24Fe6Cr69_12,-211.236915632406, 155.184421142254,Ni24Fe6Cr69,"# generated using pymatgen
 data_Cr38Fe3Ni13
_symmetry_space_group_name_H-M   'P 1'
_cell_length_a   7.55949844
_cell_length_b   7.55949844
_cell_length_c   10.69074521
_cell_angle_alpha   90.00000000
_cell_angle_beta   90.00000000
_cell_angle_gamma   90.00000000
_symmetry_Int_Tables_number   1
_chemical_formula_structural   Cr38Fe3Ni13
_chemical_formula_sum   'Cr38 Fe3 Ni13'
_cell_volume   610.93350371
_cell_formula_units_Z   1
loop_
 _symmetry_equiv_pos_site_id
 _symmetry_equiv_pos_as_xyz
  1  'x, y, z'
loop_
 _atom_site_type_symbol
 _atom_site_label
 _atom_site_symmetry_multiplicity
 _atom_site_fract_x
 _atom_site_fract_y
 _atom_site_fract_z
 _atom_site_occupancy
  Ni  Ni0  1  0.99324934  -0.00436022  0.99266275  1
  Cr  Cr1  1  0.15847289  0.16206763  0.16031203  1
  Cr  Cr2  1  -0.00590137  0.99330480  0.32681002  1
  Ni  Ni3  1  0.99330354  0.32644180  0.99108536  1
  Cr  Cr4  1  0.15988562  0.49128524  0.16272833  1
  Ni  Ni5  1  0.99288280  0.32543436  0.32833394  1
  Cr  Cr6  1  -0.00461780  0.66124124  0.99200142  1
  Cr  Cr7  1  0.15942456  0.82838935  0.15766685  1
  Cr  Cr8  1  -0.00490154  0.66233762  0.32877858  1
  Cr  Cr9  1  0.32486338  0.99201783  0.99311117  1
  Cr  Cr10  1  0.49155225  0.16135850  0.16046850  1
  Cr  Cr11  1  0.32786742  -0.00596709  0.32928260  1
  Cr  Cr12  1  0.32593205  0.32911045  0.99364521  1
  Cr  Cr13  1  0.49215013  0.49423536  0.16050152  1
  Fe  Fe14  1  0.32693815  0.32586264  0.32845551  1
  Ni  Ni15  1  0.32398168  0.66064142  0.99170528  1
  Cr  Cr16  1  0.49456110  0.82626315  0.15761170  1
  Cr  Cr17  1  0.32667329  0.66371230  0.32844441  1
  Cr  Cr18  1  0.66284683  -0.00413044  -0.00410218  1
  Cr  Cr19  1  0.83082351  0.16053193  0.15925707  1
  Cr  Cr20  1  0.65991812  -0.00558544  0.32681223  1
  Cr  Cr21  1  0.66283811  0.32653271  0.99065427  1
  Cr  Cr22  1  0.82932198  0.49331184  0.16198852  1
  Cr  Cr23  1  0.65994895  0.32428181  0.32880822  1
  Cr  Cr24  1  0.66106244  0.65925703  -0.00412952  1
  Fe  Fe25  1  0.82949404  0.82816817  0.15916863  1
  Cr  Cr26  1  0.66051841  0.66235117  0.32529755  1
  Cr  Cr27  1  0.16041419  0.16076436  0.49171345  1
  Cr  Cr28  1  -0.00418114  0.99335021  0.66061806  1
  Cr  Cr29  1  0.15934635  0.15898349  0.82944219  1
  Cr  Cr30  1  0.15926243  0.49270811  0.49098960  1
  Cr  Cr31  1  0.99279299  0.32790319  0.66395465  1
  Ni  Ni32  1  0.15767434  0.49529132  0.83034161  1
  Ni  Ni33  1  0.16306938  0.82984818  0.49551691  1
  Cr  Cr34  1  -0.00363740  0.66025177  0.66219217  1
  Ni  Ni35  1  0.16047321  0.82717987  0.82768166  1
  Ni  Ni36  1  0.49409279  0.15669822  0.49518600  1
  Ni  Ni37  1  0.32848157  0.99188532  0.65805902  1
  Cr  Cr38  1  0.49457108  0.15712750  0.82516243  1
  Cr  Cr39  1  0.49398181  0.49417889  0.49252547  1
  Cr  Cr40  1  0.32668041  0.32557544  0.66067265  1
  Cr  Cr41  1  0.49332234  0.49591904  0.82869249  1
  Ni  Ni42  1  0.49330490  0.83202153  0.49626951  1
  Cr  Cr43  1  0.32347032  0.66271716  0.66119935  1
  Cr  Cr44  1  0.49301232  0.82819768  0.82542131  1
  Fe  Fe45  1  0.82644038  0.15909837  0.49501598  1
  Ni  Ni46  1  0.65935813  -0.00378475  0.65768914  1
  Ni  Ni47  1  0.82928390  0.16036951  0.82699280  1
  Cr  Cr48  1  0.82824510  0.49236182  0.49337102  1
  Cr  Cr49  1  0.66225208  0.32426903  0.66267619  1
  Ni  Ni50  1  0.83100994  0.49159791  0.82874326  1
  Cr  Cr51  1  0.82604129  0.82785697  0.49398541  1
  Cr  Cr52  1  0.66146053  0.65987931  0.66040629  1
  Cr  Cr53  1  0.82648344  0.82945199  0.82791798  1
" 