879,Ni24Fe10Cr64_14,-213.104702775831, 163.142342070128,Ni24Fe10Cr64,"# generated using pymatgen
 data_Cr36Fe5Ni13
_symmetry_space_group_name_H-M   'P 1'
_cell_length_a   7.55395963
_cell_length_b   7.55395963
_cell_length_c   10.68291216
_cell_angle_alpha   90.00000000
_cell_angle_beta   90.00000000
_cell_angle_gamma   90.00000000
_symmetry_Int_Tables_number   1
_chemical_formula_structural   Cr36Fe5Ni13
_chemical_formula_sum   'Cr36 Fe5 Ni13'
_cell_volume   609.59160403
_cell_formula_units_Z   1
loop_
 _symmetry_equiv_pos_site_id
 _symmetry_equiv_pos_as_xyz
  1  'x, y, z'
loop_
 _atom_site_type_symbol
 _atom_site_label
 _atom_site_symmetry_multiplicity
 _atom_site_fract_x
 _atom_site_fract_y
 _atom_site_fract_z
 _atom_site_occupancy
  Ni  Ni0  1  -0.00454153  0.99380426  -0.00518338  1
  Cr  Cr1  1  0.15953011  0.15767758  0.16179935  1
  Ni  Ni2  1  -0.00227424  -0.00238632  0.32803529  1
  Cr  Cr3  1  0.99396445  0.32663508  -0.00529157  1
  Cr  Cr4  1  0.16272333  0.49189496  0.16089298  1
  Cr  Cr5  1  -0.00507670  0.32689236  0.32864020  1
  Cr  Cr6  1  -0.00099998  0.66102844  0.99006785  1
  Cr  Cr7  1  0.16110592  0.83177005  0.16002350  1
  Cr  Cr8  1  -0.00234436  0.65940779  0.33056628  1
  Fe  Fe9  1  0.32734815  0.99419998  0.99203866  1
  Cr  Cr10  1  0.48875613  0.16054130  0.16099670  1
  Ni  Ni11  1  0.32708630  -0.00374513  0.33003038  1
  Cr  Cr12  1  0.32792994  0.32951430  0.99298363  1
  Cr  Cr13  1  0.49475462  0.49426166  0.16412394  1
  Fe  Fe14  1  0.32601421  0.32367450  0.33024111  1
  Cr  Cr15  1  0.32672498  0.66282606  0.99161732  1
  Cr  Cr16  1  0.49241176  0.82739259  0.16298003  1
  Cr  Cr17  1  0.32658520  0.65946785  0.32753370  1
  Cr  Cr18  1  0.65956760  -0.00427457  0.99348892  1
  Ni  Ni19  1  0.82931662  0.15750299  0.16052390  1
  Cr  Cr20  1  0.66023310  -0.00316365  0.32805713  1
  Cr  Cr21  1  0.66046300  0.32262786  -0.00453815  1
  Cr  Cr22  1  0.82585484  0.49462654  0.16026580  1
  Cr  Cr23  1  0.66048183  0.32365175  0.32589889  1
  Cr  Cr24  1  0.65790191  0.66406864  -0.00526304  1
  Cr  Cr25  1  0.83031827  0.82869408  0.16396741  1
  Fe  Fe26  1  0.66198240  0.66148482  0.32879859  1
  Ni  Ni27  1  0.16668791  0.16308553  0.49220673  1
  Cr  Cr28  1  -0.00286604  -0.00500705  0.65895810  1
  Cr  Cr29  1  0.16332340  0.15902152  0.82830245  1
  Ni  Ni30  1  0.16427084  0.49011396  0.49506580  1
  Cr  Cr31  1  -0.00212417  0.32815794  0.65971731  1
  Ni  Ni32  1  0.16335405  0.49475835  0.82610864  1
  Cr  Cr33  1  0.16163490  0.83231928  0.49248038  1
  Cr  Cr34  1  -0.00064328  0.66016391  0.66173551  1
  Ni  Ni35  1  0.16471887  0.83032255  0.82906186  1
  Ni  Ni36  1  0.48850181  0.16238548  0.49547236  1
  Fe  Fe37  1  0.32820136  -0.00378508  0.66022619  1
  Ni  Ni38  1  0.49052669  0.15828083  0.82521610  1
  Cr  Cr39  1  0.49471282  0.49172063  0.49354659  1
  Fe  Fe40  1  0.32877173  0.32639899  0.66044508  1
  Cr  Cr41  1  0.49605440  0.49259802  0.82591650  1
  Cr  Cr42  1  0.49428561  0.82775812  0.49335126  1
  Cr  Cr43  1  0.32569416  0.66191778  0.66338150  1
  Ni  Ni44  1  0.48978290  0.83067118  0.82625458  1
  Cr  Cr45  1  0.82906622  0.16080056  0.49547361  1
  Cr  Cr46  1  0.65551762  -0.00358905  0.66100820  1
  Cr  Cr47  1  0.82738042  0.16158616  0.82807939  1
  Cr  Cr48  1  0.82464035  0.49579402  0.49873574  1
  Ni  Ni49  1  0.65534776  0.32494257  0.66139461  1
  Cr  Cr50  1  0.82584687  0.49419500  0.82409701  1
  Cr  Cr51  1  0.82732158  0.82635802  0.49378609  1
  Ni  Ni52  1  0.65563025  0.66090017  0.66102007  1
  Cr  Cr53  1  0.82789485  0.82740654  0.82501467  1
" 