6240,Ni24Cr76_10,-230.551515494849, 148.280412244056,Ni24Cr76,"# generated using pymatgen
 data_Cr2Ni7
_symmetry_space_group_name_H-M   'P 1'
_cell_length_a   7.48394414
_cell_length_b   7.48394414
_cell_length_c   10.58389530
_cell_angle_alpha   90.00000000
_cell_angle_beta   90.00000000
_cell_angle_gamma   90.00000000
_symmetry_Int_Tables_number   1
_chemical_formula_structural   Cr2Ni7
_chemical_formula_sum   'Cr12 Ni42'
_cell_volume   592.79783614
_cell_formula_units_Z   6
loop_
 _symmetry_equiv_pos_site_id
 _symmetry_equiv_pos_as_xyz
  1  'x, y, z'
loop_
 _atom_site_type_symbol
 _atom_site_label
 _atom_site_symmetry_multiplicity
 _atom_site_fract_x
 _atom_site_fract_y
 _atom_site_fract_z
 _atom_site_occupancy
  Ni  Ni0  1  0.00018629  0.99661866  0.99801208  1
  Ni  Ni1  1  0.16837952  0.16588070  0.16382898  1
  Cr  Cr2  1  -0.00093223  0.99822946  0.33356690  1
  Cr  Cr3  1  -0.00033508  0.33276936  0.99868520  1
  Ni  Ni4  1  0.16808738  0.49976673  0.16476259  1
  Cr  Cr5  1  -0.00025739  0.33293487  0.33316357  1
  Ni  Ni6  1  -0.00040046  0.66767144  -0.00017850  1
  Ni  Ni7  1  0.16608385  0.83096150  0.16294539  1
  Cr  Cr8  1  0.99879685  0.66542049  0.33202564  1
  Ni  Ni9  1  0.33187990  -0.00110671  0.99873326  1
  Ni  Ni10  1  0.49748587  0.16588028  0.16530341  1
  Cr  Cr11  1  0.33351420  0.99881506  0.33220878  1
  Ni  Ni12  1  0.33168810  0.33026274  0.00074574  1
  Ni  Ni13  1  0.49688404  0.49884333  0.16729196  1
  Ni  Ni14  1  0.33385690  0.33353209  0.33183596  1
  Ni  Ni15  1  0.33034992  0.66745663  0.00056011  1
  Ni  Ni16  1  0.49889050  0.83188527  0.16549183  1
  Ni  Ni17  1  0.33396832  0.66400758  0.33217818  1
  Ni  Ni18  1  0.66454782  0.99798669  0.99836108  1
  Cr  Cr19  1  0.83072424  0.16339615  0.16615358  1
  Ni  Ni20  1  0.66453530  0.99810977  0.33260824  1
  Cr  Cr21  1  0.66426908  0.33127268  0.99827746  1
  Ni  Ni22  1  0.83161955  0.50113819  0.16610288  1
  Ni  Ni23  1  0.66348465  0.33327982  0.33294072  1
  Cr  Cr24  1  0.66630816  0.66717263  -0.00081236  1
  Ni  Ni25  1  0.83163697  0.83152876  0.16473767  1
  Ni  Ni26  1  0.66427564  0.66522442  0.33216732  1
  Ni  Ni27  1  0.16661566  0.16574564  0.50042794  1
  Ni  Ni28  1  -0.00083864  -0.00098923  0.66554293  1
  Ni  Ni29  1  0.16657380  0.16258423  0.83237838  1
  Ni  Ni30  1  0.16873164  0.49885487  0.49851874  1
  Cr  Cr31  1  0.99796337  0.33053613  0.66479080  1
  Cr  Cr32  1  0.16696550  0.49990263  0.83312578  1
  Ni  Ni33  1  0.16671173  0.83200403  0.50057876  1
  Cr  Cr34  1  0.99792911  0.66705852  0.66499839  1
  Ni  Ni35  1  0.16578675  0.83445534  0.83312408  1
  Ni  Ni36  1  0.49978641  0.16663341  0.49944989  1
  Ni  Ni37  1  0.33230379  -0.00109859  0.66588804  1
  Ni  Ni38  1  0.49855742  0.16347643  0.83185518  1
  Ni  Ni39  1  0.49856277  0.49883014  0.49871307  1
  Ni  Ni40  1  0.33368044  0.33037570  0.66401381  1
  Cr  Cr41  1  0.49816289  0.49892987  0.83026610  1
  Ni  Ni42  1  0.49965661  0.83114184  0.49960943  1
  Ni  Ni43  1  0.33380588  0.66733897  0.66385857  1
  Ni  Ni44  1  0.49841887  0.83446065  0.83151382  1
  Ni  Ni45  1  0.83023656  0.16463169  0.49965089  1
  Ni  Ni46  1  0.66515243  -0.00111944  0.66566759  1
  Ni  Ni47  1  0.83147648  0.16293014  0.83130468  1
  Ni  Ni48  1  0.82933390  0.49872087  0.49886991  1
  Ni  Ni49  1  0.66494963  0.33163070  0.66492934  1
  Ni  Ni50  1  0.83147897  0.49951880  0.83160104  1
  Ni  Ni51  1  0.83026382  0.83327030  0.49931578  1
  Ni  Ni52  1  0.66485261  0.66610674  0.66478383  1
  Ni  Ni53  1  0.83239567  0.83417301  0.83256754  1
" 