8802,Ni24Fe6Cr69_1,-211.37081961744, 156.284763735566,Ni24Fe6Cr69,"# generated using pymatgen
 data_Cr38Fe3Ni13
_symmetry_space_group_name_H-M   'P 1'
_cell_length_a   7.55718318
_cell_length_b   7.55718318
_cell_length_c   10.68747094
_cell_angle_alpha   90.00000000
_cell_angle_beta   90.00000000
_cell_angle_gamma   90.00000000
_symmetry_Int_Tables_number   1
_chemical_formula_structural   Cr38Fe3Ni13
_chemical_formula_sum   'Cr38 Fe3 Ni13'
_cell_volume   610.37234064
_cell_formula_units_Z   1
loop_
 _symmetry_equiv_pos_site_id
 _symmetry_equiv_pos_as_xyz
  1  'x, y, z'
loop_
 _atom_site_type_symbol
 _atom_site_label
 _atom_site_symmetry_multiplicity
 _atom_site_fract_x
 _atom_site_fract_y
 _atom_site_fract_z
 _atom_site_occupancy
  Fe  Fe0  1  -0.00592785  0.99320672  0.99125476  1
  Cr  Cr1  1  0.16187373  0.15994829  0.16004641  1
  Cr  Cr2  1  -0.00373126  -0.00570203  0.32849057  1
  Cr  Cr3  1  -0.00482223  0.32607448  0.99343475  1
  Cr  Cr4  1  0.16264305  0.49472134  0.15757000  1
  Cr  Cr5  1  0.99331851  0.32678180  0.32632497  1
  Cr  Cr6  1  -0.00457348  0.66056798  0.99122294  1
  Cr  Cr7  1  0.16171641  0.82732525  0.16051438  1
  Cr  Cr8  1  -0.00457622  0.66098639  0.32955652  1
  Cr  Cr9  1  0.32851330  0.99289515  -0.00506621  1
  Cr  Cr10  1  0.49312204  0.16030645  0.16108210  1
  Ni  Ni11  1  0.32809964  0.99245145  0.32757619  1
  Ni  Ni12  1  0.32913573  0.33078502  0.99283073  1
  Ni  Ni13  1  0.49272550  0.49463618  0.15913877  1
  Cr  Cr14  1  0.32888943  0.32709105  0.32541377  1
  Ni  Ni15  1  0.32882437  0.65926220  0.99289300  1
  Ni  Ni16  1  0.49204032  0.82622658  0.15992162  1
  Cr  Cr17  1  0.32871007  0.66230454  0.32597902  1
  Fe  Fe18  1  0.66032055  -0.00591503  0.99272439  1
  Cr  Cr19  1  0.82713878  0.15957716  0.15920675  1
  Cr  Cr20  1  0.65784292  -0.00595081  0.32560706  1
  Cr  Cr21  1  0.65908572  0.32734382  0.99372442  1
  Cr  Cr22  1  0.82634409  0.49413563  0.16465712  1
  Ni  Ni23  1  0.65827961  0.32742631  0.32721499  1
  Cr  Cr24  1  0.65729346  0.66120544  -0.00487025  1
  Cr  Cr25  1  0.82706943  0.82800826  0.15804466  1
  Cr  Cr26  1  0.65775145  0.65964656  0.32514997  1
  Cr  Cr27  1  0.16338809  0.16044680  0.49255705  1
  Cr  Cr28  1  -0.00545429  0.99359666  0.66261466  1
  Cr  Cr29  1  0.16250104  0.16162015  0.82900328  1
  Cr  Cr30  1  0.16162502  0.49456541  0.49528773  1
  Cr  Cr31  1  -0.00455083  0.32634711  0.66196323  1
  Ni  Ni32  1  0.16528725  0.49513908  0.82854467  1
  Ni  Ni33  1  0.16193070  0.82818502  0.49298240  1
  Cr  Cr34  1  -0.00419641  0.66235052  0.66111896  1
  Ni  Ni35  1  0.15960273  0.82548881  0.82867264  1
  Cr  Cr36  1  0.49374292  0.16211158  0.49543340  1
  Cr  Cr37  1  0.32569851  0.99347613  0.65776212  1
  Cr  Cr38  1  0.49361865  0.16280107  0.82542118  1
  Cr  Cr39  1  0.49475995  0.49199914  0.49647273  1
  Ni  Ni40  1  0.32833932  0.32901866  0.66386185  1
  Ni  Ni41  1  0.48992157  0.49262888  0.82804804  1
  Cr  Cr42  1  0.49266893  0.82811433  0.49258081  1
  Cr  Cr43  1  0.32641341  0.66045343  0.66312424  1
  Cr  Cr44  1  0.49346590  0.82610626  0.82897721  1
  Cr  Cr45  1  0.82479002  0.16235631  0.49433828  1
  Cr  Cr46  1  0.66205148  -0.00571266  0.66362335  1
  Ni  Ni47  1  0.82690725  0.15780956  0.82900484  1
  Cr  Cr48  1  0.82538264  0.49330049  0.49245858  1
  Fe  Fe49  1  0.65966077  0.32753266  0.66271907  1
  Cr  Cr50  1  0.82645491  0.49447422  0.82536059  1
  Cr  Cr51  1  0.82761543  0.82636551  0.49445150  1
  Cr  Cr52  1  0.65982519  0.66130796  0.66224288  1
  Ni  Ni53  1  0.82941001  0.83073794  0.82969858  1
" 