3700,Ni24Fe58Cr17_4,-230.534773073692, 188.607435768384,Ni24Fe58Cr17,"# generated using pymatgen
 data_Cr10Fe31Ni13
_symmetry_space_group_name_H-M   'P 1'
_cell_length_a   7.45161201
_cell_length_b   7.45161201
_cell_length_c   10.53817076
_cell_angle_alpha   90.00000000
_cell_angle_beta   90.00000000
_cell_angle_gamma   90.00000000
_symmetry_Int_Tables_number   1
_chemical_formula_structural   Cr10Fe31Ni13
_chemical_formula_sum   'Cr10 Fe31 Ni13'
_cell_volume   585.14796579
_cell_formula_units_Z   1
loop_
 _symmetry_equiv_pos_site_id
 _symmetry_equiv_pos_as_xyz
  1  'x, y, z'
loop_
 _atom_site_type_symbol
 _atom_site_label
 _atom_site_symmetry_multiplicity
 _atom_site_fract_x
 _atom_site_fract_y
 _atom_site_fract_z
 _atom_site_occupancy
  Cr  Cr0  1  1.00038054  1.00047346  1.00011348  1
  Fe  Fe1  1  0.16789099  0.16748805  0.16866589  1
  Fe  Fe2  1  0.00188178  1.00017359  0.33398649  1
  Fe  Fe3  1  1.00019936  0.33612864  0.00156248  1
  Fe  Fe4  1  0.16765680  0.50300642  0.16652874  1
  Cr  Cr5  1  0.99950547  0.33369131  0.33584788  1
  Ni  Ni6  1  0.99928454  0.66583412  0.00191280  1
  Fe  Fe7  1  0.16804664  0.83261078  0.16921354  1
  Fe  Fe8  1  0.00232692  0.66943539  0.33299145  1
  Cr  Cr9  1  0.33537728  0.00187370  0.99999708  1
  Fe  Fe10  1  0.50249124  0.16710070  0.16767547  1
  Ni  Ni11  1  0.33458178  1.00064225  0.33440119  1
  Fe  Fe12  1  0.33498242  0.33574417  1.00039835  1
  Fe  Fe13  1  0.50101370  0.50168528  0.16658333  1
  Cr  Cr14  1  0.33535715  0.33168001  0.33406041  1
  Fe  Fe15  1  0.33442474  0.66731038  0.00145004  1
  Fe  Fe16  1  0.50101150  0.83432191  0.16788659  1
  Ni  Ni17  1  0.33443278  0.67129946  0.33202526  1
  Ni  Ni18  1  0.66742713  1.00036584  1.00034800  1
  Fe  Fe19  1  0.83272359  0.16749555  0.16746544  1
  Fe  Fe20  1  0.66624949  0.00249317  0.33412529  1
  Fe  Fe21  1  0.66792709  0.33422849  1.00037758  1
  Fe  Fe22  1  0.83443671  0.50152464  0.16580968  1
  Fe  Fe23  1  0.66709855  0.33208063  0.33452304  1
  Ni  Ni24  1  0.66898847  0.66727450  1.00019914  1
  Fe  Fe25  1  0.83404717  0.83408099  0.16621254  1
  Cr  Cr26  1  0.66841862  0.66735936  0.33494478  1
  Ni  Ni27  1  0.16827819  0.16730394  0.50089073  1
  Cr  Cr28  1  1.00069724  0.00129171  0.66888180  1
  Fe  Fe29  1  0.16814009  0.16962079  0.83357025  1
  Cr  Cr30  1  0.16709166  0.50197342  0.50304529  1
  Fe  Fe31  1  1.00086059  0.33521117  0.66770407  1
  Fe  Fe32  1  0.16741183  0.50201639  0.83389241  1
  Cr  Cr33  1  0.16717277  0.83350477  0.49796708  1
  Ni  Ni34  1  0.99814750  0.66625227  0.66836837  1
  Ni  Ni35  1  0.16587496  0.83013218  0.83513740  1
  Ni  Ni36  1  0.50337239  0.16706400  0.49981501  1
  Cr  Cr37  1  0.33561750  0.00325748  0.66814260  1
  Ni  Ni38  1  0.50310699  0.17006843  0.83480900  1
  Cr  Cr39  1  0.50143769  0.49930992  0.50256360  1
  Ni  Ni40  1  0.33542419  0.33324440  0.66874972  1
  Fe  Fe41  1  0.50123269  0.50113184  0.83385280  1
  Fe  Fe42  1  0.50108434  0.83671239  0.50010181  1
  Fe  Fe43  1  0.33445809  0.66628621  0.66948558  1
  Fe  Fe44  1  0.50301148  0.83368371  0.83511351  1
  Fe  Fe45  1  0.83284399  0.16825054  0.50116133  1
  Fe  Fe46  1  0.66743652  0.00196520  0.66852291  1
  Fe  Fe47  1  0.83224591  0.16783813  0.83448298  1
  Fe  Fe48  1  0.83456182  0.50010208  0.50296760  1
  Ni  Ni49  1  0.66736524  0.33482615  0.66719271  1
  Fe  Fe50  1  0.83446022  0.50230931  0.83433455  1
  Fe  Fe51  1  0.83329579  0.83475365  0.50186459  1
  Fe  Fe52  1  0.66888232  0.66784741  0.66888108  1
  Ni  Ni53  1  0.83425456  0.83256874  0.83512424  1
" 