4481,Ni24Fe58Cr17_1,-229.95200452169, 187.580624662821,Ni24Fe58Cr17,"# generated using pymatgen
 data_Cr10Fe31Ni13
_symmetry_space_group_name_H-M   'P 1'
_cell_length_a   7.44141556
_cell_length_b   7.44141556
_cell_length_c   10.52375081
_cell_angle_alpha   90.00000000
_cell_angle_beta   90.00000000
_cell_angle_gamma   90.00000000
_symmetry_Int_Tables_number   1
_chemical_formula_structural   Cr10Fe31Ni13
_chemical_formula_sum   'Cr10 Fe31 Ni13'
_cell_volume   582.74918159
_cell_formula_units_Z   1
loop_
 _symmetry_equiv_pos_site_id
 _symmetry_equiv_pos_as_xyz
  1  'x, y, z'
loop_
 _atom_site_type_symbol
 _atom_site_label
 _atom_site_symmetry_multiplicity
 _atom_site_fract_x
 _atom_site_fract_y
 _atom_site_fract_z
 _atom_site_occupancy
  Fe  Fe0  1  0.00216622  0.00430022  1.00138570  1
  Ni  Ni1  1  0.16524461  0.16837658  0.16748722  1
  Fe  Fe2  1  1.00151602  0.00216143  0.33503460  1
  Ni  Ni3  1  1.00119885  0.33364208  1.00097837  1
  Cr  Cr4  1  0.16815918  0.49842974  0.16870382  1
  Ni  Ni5  1  0.99953797  0.33524038  0.33640996  1
  Cr  Cr6  1  1.00087114  0.66869597  0.00232033  1
  Fe  Fe7  1  0.16686650  0.83691022  0.16878927  1
  Ni  Ni8  1  0.99931515  0.66806908  0.33621338  1
  Fe  Fe9  1  0.33247900  0.00333784  1.00030269  1
  Fe  Fe10  1  0.49918020  0.16951714  0.16845795  1
  Cr  Cr11  1  0.33689195  0.00335727  0.33609650  1
  Ni  Ni12  1  0.33511180  0.33109385  0.00178098  1
  Cr  Cr13  1  0.50262429  0.50218620  0.16776415  1
  Fe  Fe14  1  0.33314610  0.33453561  0.33677840  1
  Fe  Fe15  1  0.33636618  0.66793510  0.99950125  1
  Cr  Cr16  1  0.50434163  0.83437737  0.16728470  1
  Cr  Cr17  1  0.33256983  0.66958899  0.33829833  1
  Cr  Cr18  1  0.66887304  0.00341886  1.00121843  1
  Fe  Fe19  1  0.83681952  0.16926447  0.17020389  1
  Fe  Fe20  1  0.67170357  0.00196915  0.33606549  1
  Cr  Cr21  1  0.67048944  0.33431446  1.00090899  1
  Fe  Fe22  1  0.83533573  0.50114367  0.16966964  1
  Fe  Fe23  1  0.66885439  0.33515495  0.33627220  1
  Ni  Ni24  1  0.67027373  0.66910712  0.99907740  1
  Fe  Fe25  1  0.83715450  0.83492641  0.16993231  1
  Fe  Fe26  1  0.67042224  0.66789050  0.33651798  1
  Fe  Fe27  1  0.16847848  0.16929035  0.50254357  1
  Fe  Fe28  1  0.00405862  0.00194202  0.66842970  1
  Ni  Ni29  1  0.16812504  0.16824336  0.83462904  1
  Fe  Fe30  1  0.16659805  0.50007983  0.50226179  1
  Fe  Fe31  1  0.00300458  0.33404165  0.66748515  1
  Cr  Cr32  1  0.16854598  0.49819887  0.83505168  1
  Fe  Fe33  1  0.16669903  0.83614622  0.50319003  1
  Ni  Ni34  1  0.99892167  0.66854750  0.66678455  1
  Fe  Fe35  1  0.16800286  0.83791612  0.83391977  1
  Fe  Fe36  1  0.50313663  0.16856221  0.50369667  1
  Ni  Ni37  1  0.33620933  0.00344928  0.66847682  1
  Ni  Ni38  1  0.50030361  0.16778405  0.83361497  1
  Ni  Ni39  1  0.50317434  0.50150052  0.50206936  1
  Ni  Ni40  1  0.33628631  0.33273644  0.66614081  1
  Fe  Fe41  1  0.50130282  0.49919858  0.83447145  1
  Ni  Ni42  1  0.50534489  0.83555546  0.50329176  1
  Cr  Cr43  1  0.33347937  0.66916711  0.66776016  1
  Fe  Fe44  1  0.50074255  0.83616369  0.83457247  1
  Fe  Fe45  1  0.83391615  0.16856866  0.50163044  1
  Fe  Fe46  1  0.66763771  1.00165408  0.66881276  1
  Fe  Fe47  1  0.83691892  0.16878362  0.83300647  1
  Fe  Fe48  1  0.83443578  0.50225552  0.50182678  1
  Fe  Fe49  1  0.66729938  0.33538454  0.66858468  1
  Fe  Fe50  1  0.83465710  0.50074369  0.83328638  1
  Fe  Fe51  1  0.83455836  0.83440942  0.50201932  1
  Fe  Fe52  1  0.66802876  0.66793508  0.66883021  1
  Fe  Fe53  1  0.83562273  0.83579931  0.83316116  1
" 