7434,Ni24Fe50Cr24_13,-227.980864746251, 192.116469230422,Ni24Fe50Cr24,"# generated using pymatgen
 data_Cr14Fe27Ni13
_symmetry_space_group_name_H-M   'P 1'
_cell_length_a   7.45513957
_cell_length_b   7.45513957
_cell_length_c   10.54315948
_cell_angle_alpha   90.00000000
_cell_angle_beta   90.00000000
_cell_angle_gamma   90.00000000
_symmetry_Int_Tables_number   1
_chemical_formula_structural   Cr14Fe27Ni13
_chemical_formula_sum   'Cr14 Fe27 Ni13'
_cell_volume   585.97937817
_cell_formula_units_Z   1
loop_
 _symmetry_equiv_pos_site_id
 _symmetry_equiv_pos_as_xyz
  1  'x, y, z'
loop_
 _atom_site_type_symbol
 _atom_site_label
 _atom_site_symmetry_multiplicity
 _atom_site_fract_x
 _atom_site_fract_y
 _atom_site_fract_z
 _atom_site_occupancy
  Fe  Fe0  1  0.00146617  1.00077206  1.00013701  1
  Ni  Ni1  1  0.16928840  0.16780237  0.16689121  1
  Cr  Cr2  1  0.00182311  0.00124439  0.33500654  1
  Fe  Fe3  1  1.00026730  0.33391970  0.99990824  1
  Cr  Cr4  1  0.16817083  0.49966284  0.16723236  1
  Fe  Fe5  1  0.00328406  0.33302804  0.33478665  1
  Fe  Fe6  1  1.00076409  0.66770388  0.00102905  1
  Fe  Fe7  1  0.16869182  0.83634981  0.16605077  1
  Cr  Cr8  1  0.99933797  0.66860103  0.33356524  1
  Fe  Fe9  1  0.33326962  0.00140983  0.00159788  1
  Cr  Cr10  1  0.49930534  0.16658383  0.16662215  1
  Ni  Ni11  1  0.33373253  0.00107370  0.33430349  1
  Ni  Ni12  1  0.33537752  0.33327836  1.00046834  1
  Fe  Fe13  1  0.50106699  0.50066520  0.16765021  1
  Ni  Ni14  1  0.33340387  0.33354632  0.33356117  1
  Ni  Ni15  1  0.33351491  0.66737793  0.00208138  1
  Fe  Fe16  1  0.49966889  0.83400679  0.16798564  1
  Fe  Fe17  1  0.33502652  0.66853395  0.33404479  1
  Fe  Fe18  1  0.66765645  0.00190594  1.00003917  1
  Cr  Cr19  1  0.83413270  0.16756332  0.16816169  1
  Fe  Fe20  1  0.66646596  0.99845213  0.33496345  1
  Ni  Ni21  1  0.66656925  0.33499569  0.99817737  1
  Fe  Fe22  1  0.83286929  0.50045600  0.16686310  1
  Fe  Fe23  1  0.66729745  0.33428794  0.33354973  1
  Cr  Cr24  1  0.66892130  0.66554427  0.00199776  1
  Ni  Ni25  1  0.83254165  0.83336956  0.16577550  1
  Fe  Fe26  1  0.66599997  0.66965260  0.33284005  1
  Fe  Fe27  1  0.16602155  0.16758104  0.49987611  1
  Ni  Ni28  1  0.00195466  0.99976390  0.66713484  1
  Fe  Fe29  1  0.16587791  0.16574687  0.83528161  1
  Ni  Ni30  1  0.16741563  0.50122901  0.50088512  1
  Fe  Fe31  1  0.99831492  0.33255353  0.66770320  1
  Cr  Cr32  1  0.16627590  0.50244338  0.83399437  1
  Fe  Fe33  1  0.16835443  0.83387630  0.50228431  1
  Fe  Fe34  1  0.00127220  0.66854867  0.66690585  1
  Fe  Fe35  1  0.16525536  0.83535647  0.83406296  1
  Cr  Cr36  1  0.50161761  0.16492605  0.49970654  1
  Fe  Fe37  1  0.33171484  0.99981056  0.66694454  1
  Fe  Fe38  1  0.50215593  0.17035014  0.83565018  1
  Cr  Cr39  1  0.49818140  0.50179848  0.49992880  1
  Cr  Cr40  1  0.33475047  0.33400650  0.66897531  1
  Fe  Fe41  1  0.50256491  0.49779118  0.83522912  1
  Fe  Fe42  1  0.49943294  0.83372439  0.49938049  1
  Fe  Fe43  1  0.33211532  0.66928242  0.66706256  1
  Cr  Cr44  1  0.49845281  0.83587081  0.83377972  1
  Fe  Fe45  1  0.83566686  0.16756344  0.50185336  1
  Cr  Cr46  1  0.67073015  0.00189766  0.66697069  1
  Ni  Ni47  1  0.83344204  0.16894967  0.83388478  1
  Cr  Cr48  1  0.83719638  0.49922905  0.50085327  1
  Ni  Ni49  1  0.66893463  0.33442367  0.67059167  1
  Ni  Ni50  1  0.83474767  0.49787835  0.83423425  1
  Ni  Ni51  1  0.83426890  0.83612191  0.50181211  1
  Cr  Cr52  1  0.66862405  0.66568047  0.66842020  1
  Fe  Fe53  1  0.83787352  0.83493547  0.83443096  1
" 