3532,Ni24Fe10Cr64_6,-213.186543081449, 162.781038980829,Ni24Fe10Cr64,"# generated using pymatgen
 data_Cr36Fe5Ni13
_symmetry_space_group_name_H-M   'P 1'
_cell_length_a   7.54665202
_cell_length_b   7.54665202
_cell_length_c   10.67257763
_cell_angle_alpha   90.00000000
_cell_angle_beta   90.00000000
_cell_angle_gamma   90.00000000
_symmetry_Int_Tables_number   1
_chemical_formula_structural   Cr36Fe5Ni13
_chemical_formula_sum   'Cr36 Fe5 Ni13'
_cell_volume   607.82417860
_cell_formula_units_Z   1
loop_
 _symmetry_equiv_pos_site_id
 _symmetry_equiv_pos_as_xyz
  1  'x, y, z'
loop_
 _atom_site_type_symbol
 _atom_site_label
 _atom_site_symmetry_multiplicity
 _atom_site_fract_x
 _atom_site_fract_y
 _atom_site_fract_z
 _atom_site_occupancy
  Cr  Cr0  1  -0.00484213  0.99240165  -0.00506191  1
  Cr  Cr1  1  0.16109276  0.16227305  0.16044034  1
  Cr  Cr2  1  -0.00504773  -0.00214747  0.32862815  1
  Cr  Cr3  1  -0.00480711  0.33109968  0.99305649  1
  Cr  Cr4  1  0.16101459  0.49428617  0.16106640  1
  Ni  Ni5  1  0.99370978  0.32757616  0.33181949  1
  Ni  Ni6  1  0.99322702  0.66093265  0.99326046  1
  Fe  Fe7  1  0.15965592  0.82761290  0.15919561  1
  Cr  Cr8  1  0.99414087  0.65990754  0.32566632  1
  Ni  Ni9  1  0.32831919  -0.00456143  -0.00321606  1
  Cr  Cr10  1  0.49442131  0.16410635  0.15649743  1
  Cr  Cr11  1  0.32697054  0.99455376  0.32617917  1
  Ni  Ni12  1  0.32779139  0.32876594  0.99402687  1
  Ni  Ni13  1  0.49395685  0.49543821  0.15940102  1
  Cr  Cr14  1  0.32540593  0.32746982  0.32912182  1
  Cr  Cr15  1  0.32576012  0.66084738  -0.00412306  1
  Fe  Fe16  1  0.49593355  0.82725853  0.15978490  1
  Cr  Cr17  1  0.32888614  0.66208676  0.32540452  1
  Cr  Cr18  1  0.66209907  0.99361651  -0.00498295  1
  Cr  Cr19  1  0.82867196  0.16161250  0.16201449  1
  Cr  Cr20  1  0.66208751  -0.00510959  0.32770005  1
  Fe  Fe21  1  0.66047087  0.33034343  -0.00500974  1
  Cr  Cr22  1  0.82800498  0.49504156  0.16109464  1
  Cr  Cr23  1  0.66401568  0.32849098  0.32848434  1
  Cr  Cr24  1  0.66386125  0.66069844  0.99324706  1
  Ni  Ni25  1  0.82918633  0.82650140  0.15991114  1
  Cr  Cr26  1  0.66123821  0.66064959  0.32804931  1
  Ni  Ni27  1  0.15658840  0.16392877  0.49696460  1
  Fe  Fe28  1  0.99438697  -0.00222102  0.66138542  1
  Cr  Cr29  1  0.16217469  0.16333302  0.82774370  1
  Cr  Cr30  1  0.15970697  0.49353103  0.49482285  1
  Ni  Ni31  1  -0.00377250  0.32764004  0.65998234  1
  Ni  Ni32  1  0.15968339  0.49295807  0.82851273  1
  Cr  Cr33  1  0.16012740  0.82911463  0.49515243  1
  Cr  Cr34  1  0.99392699  0.65809153  0.66538117  1
  Cr  Cr35  1  0.15931471  0.82705761  0.82921317  1
  Cr  Cr36  1  0.49423694  0.16226262  0.49653335  1
  Cr  Cr37  1  0.32591896  -0.00296110  0.66074730  1
  Cr  Cr38  1  0.49346544  0.16292221  0.83154174  1
  Cr  Cr39  1  0.49516169  0.49441403  0.49512590  1
  Ni  Ni40  1  0.32310406  0.32717986  0.66199400  1
  Cr  Cr41  1  0.49225249  0.49201951  0.82819174  1
  Cr  Cr42  1  0.49466762  0.82736959  0.49563447  1
  Cr  Cr43  1  0.32653074  0.65846856  0.66159225  1
  Cr  Cr44  1  0.49549204  0.82913849  0.82642791  1
  Ni  Ni45  1  0.83338020  0.16425756  0.49529515  1
  Cr  Cr46  1  0.66450533  -0.00453308  0.66129601  1
  Cr  Cr47  1  0.82874572  0.16085170  0.82868886  1
  Ni  Ni48  1  0.83102288  0.49127676  0.49526646  1
  Cr  Cr49  1  0.66477037  0.32829130  0.66160338  1
  Fe  Fe50  1  0.83092120  0.49458962  0.82804456  1
  Cr  Cr51  1  0.82946571  0.82770692  0.49599582  1
  Cr  Cr52  1  0.66373658  0.66035771  0.66215531  1
  Ni  Ni53  1  0.83045587  0.82639730  0.82824682  1
" 