8861,Ni24Fe50Cr24_0,-227.925816013375, 193.915309352967,Ni24Fe50Cr24,"# generated using pymatgen
 data_Cr14Fe27Ni13
_symmetry_space_group_name_H-M   'P 1'
_cell_length_a   7.45310293
_cell_length_b   7.45310293
_cell_length_c   10.54027925
_cell_angle_alpha   90.00000000
_cell_angle_beta   90.00000000
_cell_angle_gamma   90.00000000
_symmetry_Int_Tables_number   1
_chemical_formula_structural   Cr14Fe27Ni13
_chemical_formula_sum   'Cr14 Fe27 Ni13'
_cell_volume   585.49926636
_cell_formula_units_Z   1
loop_
 _symmetry_equiv_pos_site_id
 _symmetry_equiv_pos_as_xyz
  1  'x, y, z'
loop_
 _atom_site_type_symbol
 _atom_site_label
 _atom_site_symmetry_multiplicity
 _atom_site_fract_x
 _atom_site_fract_y
 _atom_site_fract_z
 _atom_site_occupancy
  Fe  Fe0  1  0.00159245  0.99869104  0.00212012  1
  Fe  Fe1  1  0.16683092  0.16566540  0.16787077  1
  Fe  Fe2  1  0.00325746  0.99943425  0.33342586  1
  Fe  Fe3  1  1.00075033  0.33361937  0.00383436  1
  Fe  Fe4  1  0.16675120  0.49910672  0.16587332  1
  Cr  Cr5  1  0.00146955  0.33197881  0.33382342  1
  Fe  Fe6  1  0.00143797  0.67070353  0.00325519  1
  Fe  Fe7  1  0.16744830  0.83749983  0.16614287  1
  Cr  Cr8  1  0.99934487  0.66975553  0.33247984  1
  Ni  Ni9  1  0.33243418  1.00087211  0.99931275  1
  Cr  Cr10  1  0.50144075  0.16553338  0.16774215  1
  Ni  Ni11  1  0.33283225  0.00179036  0.33655797  1
  Fe  Fe12  1  0.33549297  0.33363929  0.00168914  1
  Fe  Fe13  1  0.50335633  0.50076992  0.16806263  1
  Ni  Ni14  1  0.33464516  0.33239561  0.33371332  1
  Ni  Ni15  1  0.33349657  0.66771467  0.00433518  1
  Fe  Fe16  1  0.50287524  0.83586366  0.16662213  1
  Cr  Cr17  1  0.33597617  0.66870627  0.33088294  1
  Ni  Ni18  1  0.66876796  0.00114309  0.00156947  1
  Ni  Ni19  1  0.83371865  0.16671436  0.16758692  1
  Fe  Fe20  1  0.66699144  0.99805989  0.33295476  1
  Fe  Fe21  1  0.66641784  0.33422560  0.00181021  1
  Ni  Ni22  1  0.83394102  0.50022730  0.16727007  1
  Fe  Fe23  1  0.66545831  0.33720028  0.33314421  1
  Cr  Cr24  1  0.66798684  0.66803378  0.00103674  1
  Ni  Ni25  1  0.83359073  0.83586830  0.16760546  1
  Ni  Ni26  1  0.66825961  0.66820953  0.33513490  1
  Ni  Ni27  1  0.16883951  0.16571816  0.50069780  1
  Cr  Cr28  1  0.00278961  1.00061852  0.66756502  1
  Fe  Fe29  1  0.16857273  0.16521801  0.83559553  1
  Cr  Cr30  1  0.16684864  0.50137773  0.50053819  1
  Fe  Fe31  1  0.99949452  0.33345123  0.66718427  1
  Cr  Cr32  1  0.16633435  0.50267309  0.83564794  1
  Ni  Ni33  1  0.16930288  0.83553072  0.50074332  1
  Fe  Fe34  1  0.99792547  0.66884559  0.66744282  1
  Ni  Ni35  1  0.16824770  0.83305695  0.83539963  1
  Fe  Fe36  1  0.49931629  0.16524123  0.49938792  1
  Fe  Fe37  1  0.33574232  0.00112719  0.66682022  1
  Fe  Fe38  1  0.49903762  0.16652504  0.83647258  1
  Fe  Fe39  1  0.50219221  0.50027397  0.49864217  1
  Cr  Cr40  1  0.33415236  0.33071989  0.66784793  1
  Fe  Fe41  1  0.50026950  0.50100873  0.83627373  1
  Fe  Fe42  1  0.50222491  0.83707418  0.50031671  1
  Cr  Cr43  1  0.33520660  0.66914748  0.66614705  1
  Cr  Cr44  1  0.50043239  0.83614722  0.83462386  1
  Cr  Cr45  1  0.83194518  0.16720580  0.49681823  1
  Ni  Ni46  1  0.66818964  1.00040239  0.66704042  1
  Cr  Cr47  1  0.83254251  0.16741799  0.83788354  1
  Fe  Fe48  1  0.83319496  0.50329374  0.50055041  1
  Cr  Cr49  1  0.66642407  0.33454558  0.66819405  1
  Fe  Fe50  1  0.83500879  0.50358728  0.83508808  1
  Fe  Fe51  1  0.83395362  0.83396860  0.50044316  1
  Fe  Fe52  1  0.66965184  0.66947651  0.66627472  1
  Fe  Fe53  1  0.83611144  0.83344201  0.83502073  1
" 