2356,Ni24Fe50Cr24_11,-228.066896971259, 185.508781670567,Ni24Fe50Cr24,"# generated using pymatgen
 data_Cr14Fe27Ni13
_symmetry_space_group_name_H-M   'P 1'
_cell_length_a   7.46957940
_cell_length_b   7.46957940
_cell_length_c   10.56358049
_cell_angle_alpha   90.00000000
_cell_angle_beta   90.00000000
_cell_angle_gamma   90.00000000
_symmetry_Int_Tables_number   1
_chemical_formula_structural   Cr14Fe27Ni13
_chemical_formula_sum   'Cr14 Fe27 Ni13'
_cell_volume   589.39092182
_cell_formula_units_Z   1
loop_
 _symmetry_equiv_pos_site_id
 _symmetry_equiv_pos_as_xyz
  1  'x, y, z'
loop_
 _atom_site_type_symbol
 _atom_site_label
 _atom_site_symmetry_multiplicity
 _atom_site_fract_x
 _atom_site_fract_y
 _atom_site_fract_z
 _atom_site_occupancy
  Fe  Fe0  1  0.99811211  0.00088861  0.00114002  1
  Ni  Ni1  1  0.16533509  0.17014220  0.16656067  1
  Fe  Fe2  1  0.99707255  0.99871549  0.33325319  1
  Fe  Fe3  1  0.99965811  0.33305064  0.00117243  1
  Ni  Ni4  1  0.16515431  0.49613711  0.16618780  1
  Fe  Fe5  1  0.99902554  0.33349586  0.33149468  1
  Fe  Fe6  1  0.99974612  0.66555459  0.00065954  1
  Cr  Cr7  1  0.16382220  0.83313586  0.16627889  1
  Fe  Fe8  1  0.99819259  0.66728005  0.33321568  1
  Fe  Fe9  1  0.33522284  0.00119063  0.99898142  1
  Fe  Fe10  1  0.50016392  0.16696896  0.16497158  1
  Cr  Cr11  1  0.33227768  0.00005859  0.33207883  1
  Fe  Fe12  1  0.33302782  0.33208969  -0.00003085  1
  Cr  Cr13  1  0.49964007  0.49897883  0.16724278  1
  Fe  Fe14  1  0.33304312  0.33482930  0.33187697  1
  Fe  Fe15  1  0.33263154  0.66621215  0.99829035  1
  Cr  Cr16  1  0.50410822  0.83348778  0.16559271  1
  Fe  Fe17  1  0.33263940  0.66470869  0.33376595  1
  Ni  Ni18  1  0.66568735  0.00141674  0.00031714  1
  Fe  Fe19  1  0.83359410  0.16622012  0.16583698  1
  Fe  Fe20  1  0.66999688  0.99912027  0.33263051  1
  Ni  Ni21  1  0.66763507  0.33032938  -0.00008590  1
  Fe  Fe22  1  0.83479979  0.50027508  0.16635851  1
  Fe  Fe23  1  0.66742354  0.33371281  0.33275489  1
  Fe  Fe24  1  0.66711428  0.66775135  0.00099796  1
  Ni  Ni25  1  0.83219244  0.83359823  0.16715277  1
  Ni  Ni26  1  0.66940741  0.66564801  0.33358739  1
  Cr  Cr27  1  0.16524793  0.16627832  0.49901584  1
  Fe  Fe28  1  0.99796175  0.99795404  0.66509956  1
  Cr  Cr29  1  0.16702908  0.16778085  0.83371981  1
  Cr  Cr30  1  0.16826185  0.50055009  0.49921818  1
  Cr  Cr31  1  0.99871343  0.33396944  0.66743516  1
  Ni  Ni32  1  0.16748937  0.50036582  0.83407635  1
  Ni  Ni33  1  0.16206740  0.83160792  0.50056513  1
  Fe  Fe34  1  0.00094100  0.66867633  0.66562009  1
  Fe  Fe35  1  0.16821983  0.83088269  0.83333887  1
  Cr  Cr36  1  0.50144362  0.16959678  0.49996084  1
  Cr  Cr37  1  0.33391672  0.99812959  0.66885227  1
  Ni  Ni38  1  0.50120682  0.16542121  0.83423480  1
  Fe  Fe39  1  0.50085730  0.50066093  0.49970417  1
  Ni  Ni40  1  0.33438014  0.33547542  0.66720150  1
  Cr  Cr41  1  0.49853907  0.49918732  0.83141825  1
  Cr  Cr42  1  0.50243041  0.83068021  0.49948944  1
  Fe  Fe43  1  0.33250676  0.66590392  0.66743378  1
  Ni  Ni44  1  0.50063082  0.83489074  0.83400164  1
  Fe  Fe45  1  0.83281974  0.16446420  0.49964400  1
  Ni  Ni46  1  0.66785276  -0.00012642  0.66711064  1
  Fe  Fe47  1  0.82968014  0.16578894  0.83401125  1
  Fe  Fe48  1  0.83136829  0.50168094  0.49908077  1
  Fe  Fe49  1  0.66483487  0.33144868  0.66666939  1
  Cr  Cr50  1  0.83374097  0.49978794  0.83432207  1
  Ni  Ni51  1  0.83407914  0.83298379  0.49955744  1
  Fe  Fe52  1  0.66604498  0.66722362  0.66469796  1
  Cr  Cr53  1  0.83186014  0.83458808  0.83308635  1
" 