8270,Ni24Fe6Cr69_18,-211.226999651576, 159.254848992789,Ni24Fe6Cr69,"# generated using pymatgen
 data_Cr38Fe3Ni13
_symmetry_space_group_name_H-M   'P 1'
_cell_length_a   7.56203815
_cell_length_b   7.56203815
_cell_length_c   10.69433692
_cell_angle_alpha   90.00000000
_cell_angle_beta   90.00000000
_cell_angle_gamma   90.00000000
_symmetry_Int_Tables_number   1
_chemical_formula_structural   Cr38Fe3Ni13
_chemical_formula_sum   'Cr38 Fe3 Ni13'
_cell_volume   611.54946517
_cell_formula_units_Z   1
loop_
 _symmetry_equiv_pos_site_id
 _symmetry_equiv_pos_as_xyz
  1  'x, y, z'
loop_
 _atom_site_type_symbol
 _atom_site_label
 _atom_site_symmetry_multiplicity
 _atom_site_fract_x
 _atom_site_fract_y
 _atom_site_fract_z
 _atom_site_occupancy
  Cr  Cr0  1  0.99340578  0.99281413  -0.00594694  1
  Cr  Cr1  1  0.16139055  0.16228682  0.15944180  1
  Cr  Cr2  1  -0.00593781  -0.00596965  0.32496037  1
  Cr  Cr3  1  -0.00585556  0.32611623  0.99244009  1
  Cr  Cr4  1  0.16219801  0.49265491  0.16042981  1
  Ni  Ni5  1  0.99298332  0.32782425  0.32834603  1
  Cr  Cr6  1  -0.00597250  0.66165005  -0.00578730  1
  Cr  Cr7  1  0.16522835  0.82638843  0.16066699  1
  Cr  Cr8  1  0.99365970  0.66137453  0.32420691  1
  Ni  Ni9  1  0.32615804  -0.00549151  0.99152247  1
  Cr  Cr10  1  0.49293714  0.15886674  0.15710816  1
  Cr  Cr11  1  0.32812640  -0.00465714  0.33000274  1
  Ni  Ni12  1  0.32607496  0.32577606  0.99216587  1
  Cr  Cr13  1  0.49175939  0.49481555  0.15877820  1
  Cr  Cr14  1  0.32933076  0.32679209  0.32813878  1
  Ni  Ni15  1  0.32531350  0.66080823  0.99259562  1
  Cr  Cr16  1  0.49350976  0.82746754  0.15706935  1
  Ni  Ni17  1  0.33230440  0.65700070  0.32836739  1
  Ni  Ni18  1  0.66118279  -0.00530731  0.99344880  1
  Cr  Cr19  1  0.82624653  0.16088466  0.16214101  1
  Cr  Cr20  1  0.65911811  -0.00531062  0.32725467  1
  Cr  Cr21  1  0.66008765  0.32609437  -0.00587464  1
  Cr  Cr22  1  0.82701753  0.49284705  0.16395609  1
  Fe  Fe23  1  0.65860580  0.32918768  0.32833857  1
  Cr  Cr24  1  0.66204001  0.65989928  0.99351159  1
  Ni  Ni25  1  0.82360803  0.82760820  0.16044153  1
  Ni  Ni26  1  0.65803292  0.65836501  0.32731115  1
  Cr  Cr27  1  0.15904098  0.16289533  0.49450475  1
  Cr  Cr28  1  -0.00460198  0.99367391  0.66290370  1
  Fe  Fe29  1  0.16195581  0.15982023  0.82764696  1
  Cr  Cr30  1  0.16010883  0.49283802  0.49327382  1
  Fe  Fe31  1  -0.00463816  0.32524210  0.66162953  1
  Cr  Cr32  1  0.16195388  0.49239821  0.82721929  1
  Cr  Cr33  1  0.16116506  0.82562848  0.49236494  1
  Cr  Cr34  1  -0.00509427  0.66217172  0.66313501  1
  Ni  Ni35  1  0.16276409  0.82862911  0.82955489  1
  Ni  Ni36  1  0.49379477  0.16558705  0.49391466  1
  Cr  Cr37  1  0.32638712  -0.00308692  0.65888886  1
  Cr  Cr38  1  0.49382373  0.15931566  0.82998397  1
  Ni  Ni39  1  0.49331747  0.49090900  0.49180003  1
  Ni  Ni40  1  0.32668314  0.32617769  0.65955166  1
  Cr  Cr41  1  0.49107322  0.49322533  0.82896699  1
  Cr  Cr42  1  0.49412289  0.82642619  0.49334637  1
  Cr  Cr43  1  0.32761818  0.65806306  0.65929364  1
  Cr  Cr44  1  0.49119711  0.82846894  0.83020905  1
  Cr  Cr45  1  0.82733998  0.16221702  0.49326776  1
  Cr  Cr46  1  0.65962143  -0.00360282  0.66046162  1
  Ni  Ni47  1  0.82897672  0.15978120  0.82702109  1
  Cr  Cr48  1  0.82746129  0.49302005  0.49324041  1
  Cr  Cr49  1  0.65620694  0.32687184  0.65931779  1
  Cr  Cr50  1  0.82847351  0.48986225  0.82448810  1
  Cr  Cr51  1  0.82610697  0.82668640  0.49315644  1
  Cr  Cr52  1  0.65861125  0.65776030  0.65965366  1
  Cr  Cr53  1  0.82481594  0.82907386  0.82700937  1
" 