8410,Ni24Cr76_12,-230.80214521019, 151.889746529883,Ni24Cr76,"# generated using pymatgen
 data_Cr2Ni7
_symmetry_space_group_name_H-M   'P 1'
_cell_length_a   7.48006438
_cell_length_b   7.48006438
_cell_length_c   10.57840849
_cell_angle_alpha   90.00000000
_cell_angle_beta   90.00000000
_cell_angle_gamma   90.00000000
_symmetry_Int_Tables_number   1
_chemical_formula_structural   Cr2Ni7
_chemical_formula_sum   'Cr12 Ni42'
_cell_volume   591.87637384
_cell_formula_units_Z   6
loop_
 _symmetry_equiv_pos_site_id
 _symmetry_equiv_pos_as_xyz
  1  'x, y, z'
loop_
 _atom_site_type_symbol
 _atom_site_label
 _atom_site_symmetry_multiplicity
 _atom_site_fract_x
 _atom_site_fract_y
 _atom_site_fract_z
 _atom_site_occupancy
  Ni  Ni0  1  -0.00085784  -0.00079335  0.99713266  1
  Ni  Ni1  1  0.16521606  0.16724467  0.16397613  1
  Ni  Ni2  1  0.99714935  0.99872676  0.33388015  1
  Ni  Ni3  1  0.99848637  0.33157664  0.00037475  1
  Ni  Ni4  1  0.16141112  0.49800168  0.16654467  1
  Ni  Ni5  1  0.99850492  0.33384966  0.33252583  1
  Ni  Ni6  1  0.99597026  0.66660589  0.00069752  1
  Cr  Cr7  1  0.16286212  0.83241682  0.16614626  1
  Ni  Ni8  1  0.99797981  0.66481272  0.33227555  1
  Ni  Ni9  1  0.33180866  0.00056061  0.99831932  1
  Ni  Ni10  1  0.49981143  0.16543496  0.16438646  1
  Cr  Cr11  1  0.33271560  -0.00020804  0.33325889  1
  Cr  Cr12  1  0.33064381  0.32895697  0.00173438  1
  Cr  Cr13  1  0.50161223  0.49836026  0.16618369  1
  Cr  Cr14  1  0.33155182  0.33296711  0.33232690  1
  Cr  Cr15  1  0.33180177  0.66788235  0.99822053  1
  Cr  Cr16  1  0.50188297  0.83431436  0.16569017  1
  Ni  Ni17  1  0.33154853  0.66462367  0.33509993  1
  Ni  Ni18  1  0.66643847  0.99804371  0.99855150  1
  Cr  Cr19  1  0.83218529  0.16588024  0.16594329  1
  Ni  Ni20  1  0.66752218  0.99872669  0.33362413  1
  Ni  Ni21  1  0.66826536  0.33156992  0.00037428  1
  Ni  Ni22  1  0.83436117  0.50044439  0.16510730  1
  Ni  Ni23  1  0.66733374  0.33268215  0.33369454  1
  Ni  Ni24  1  0.66961768  0.66777645  -0.00072896  1
  Ni  Ni25  1  0.83254939  0.83033686  0.16532314  1
  Ni  Ni26  1  0.66786002  0.66598015  0.33344570  1
  Ni  Ni27  1  0.16411922  0.16593985  0.50094775  1
  Ni  Ni28  1  -0.00040322  -0.00054442  0.66638026  1
  Ni  Ni29  1  0.16306540  0.16235129  0.83246494  1
  Ni  Ni30  1  0.16546982  0.50022271  0.49955366  1
  Ni  Ni31  1  -0.00022078  0.33064136  0.66448803  1
  Cr  Cr32  1  0.16423357  0.49936029  0.83075089  1
  Ni  Ni33  1  0.16546869  0.83122684  0.50000872  1
  Ni  Ni34  1  -0.00040814  0.66729229  0.66441748  1
  Ni  Ni35  1  0.16523859  0.83549982  0.83205156  1
  Ni  Ni36  1  0.50113354  0.16612391  0.50035185  1
  Ni  Ni37  1  0.33155592  0.99847743  0.66581305  1
  Cr  Cr38  1  0.50024554  0.16371102  0.83237713  1
  Ni  Ni39  1  0.49978266  0.50003806  0.50015020  1
  Ni  Ni40  1  0.33155113  0.33179823  0.66331529  1
  Cr  Cr41  1  0.50096660  0.50079778  0.83051398  1
  Ni  Ni42  1  0.49959913  0.83122691  0.50000914  1
  Ni  Ni43  1  0.33271773  0.66711456  0.66407131  1
  Ni  Ni44  1  0.49960550  0.83351533  0.83223602  1
  Ni  Ni45  1  0.83213742  0.16612329  0.49921262  1
  Ni  Ni46  1  0.66623659  0.99829086  0.66521650  1
  Ni  Ni47  1  0.83435244  0.16371300  0.83278151  1
  Ni  Ni48  1  0.83213720  0.49868969  0.49864783  1
  Ni  Ni49  1  0.66605970  0.33180421  0.66331916  1
  Cr  Cr50  1  0.83218996  0.49844976  0.83308840  1
  Ni  Ni51  1  0.83232201  0.83257695  0.49850362  1
  Ni  Ni52  1  0.66507998  0.66729517  0.66467300  1
  Ni  Ni53  1  0.83254626  0.83450424  0.83356215  1
" 