4186,Ni24Fe10Cr64_17,-212.928467960762, 157.243891534009,Ni24Fe10Cr64,"# generated using pymatgen
 data_Cr36Fe5Ni13
_symmetry_space_group_name_H-M   'P 1'
_cell_length_a   7.55104967
_cell_length_b   7.55104967
_cell_length_c   10.67879686
_cell_angle_alpha   90.00000000
_cell_angle_beta   90.00000000
_cell_angle_gamma   90.00000000
_symmetry_Int_Tables_number   1
_chemical_formula_structural   Cr36Fe5Ni13
_chemical_formula_sum   'Cr36 Fe5 Ni13'
_cell_volume   608.88738927
_cell_formula_units_Z   1
loop_
 _symmetry_equiv_pos_site_id
 _symmetry_equiv_pos_as_xyz
  1  'x, y, z'
loop_
 _atom_site_type_symbol
 _atom_site_label
 _atom_site_symmetry_multiplicity
 _atom_site_fract_x
 _atom_site_fract_y
 _atom_site_fract_z
 _atom_site_occupancy
  Fe  Fe0  1  -0.00528728  -0.00343512  -0.00347480  1
  Cr  Cr1  1  0.15945315  0.16288993  0.16241970  1
  Ni  Ni2  1  0.98900381  -0.00282119  0.32587206  1
  Cr  Cr3  1  0.99303560  0.32843336  -0.00323745  1
  Cr  Cr4  1  0.16501456  0.49281930  0.16049835  1
  Ni  Ni5  1  0.99280697  0.32649439  0.32916978  1
  Cr  Cr6  1  -0.00368528  0.66183241  0.99431143  1
  Cr  Cr7  1  0.16104045  0.82807525  0.16141103  1
  Cr  Cr8  1  -0.00406340  0.65952692  0.32842502  1
  Cr  Cr9  1  0.32802100  0.99337164  0.99053510  1
  Cr  Cr10  1  0.49409891  0.16266124  0.16222578  1
  Cr  Cr11  1  0.32631065  0.99368506  0.33042414  1
  Ni  Ni12  1  0.32881037  0.32892815  -0.00490583  1
  Fe  Fe13  1  0.49270220  0.49376922  0.16138447  1
  Ni  Ni14  1  0.32706349  0.33161684  0.32553266  1
  Ni  Ni15  1  0.32934844  0.66030429  -0.00536338  1
  Cr  Cr16  1  0.49570805  0.82511530  0.16540766  1
  Ni  Ni17  1  0.32962488  0.65757831  0.32620824  1
  Cr  Cr18  1  0.65987708  -0.00418064  0.99279529  1
  Ni  Ni19  1  0.82781710  0.16144337  0.16439119  1
  Ni  Ni20  1  0.66414892  -0.00354693  0.32812116  1
  Cr  Cr21  1  0.66040126  0.32701280  -0.00545499  1
  Cr  Cr22  1  0.82634537  0.49454447  0.16251418  1
  Cr  Cr23  1  0.66262731  0.32851801  0.32770555  1
  Cr  Cr24  1  0.66009354  0.66029341  -0.00404541  1
  Cr  Cr25  1  0.82695422  0.83197018  0.16109466  1
  Fe  Fe26  1  0.66182743  0.66133021  0.32756023  1
  Cr  Cr27  1  0.15904114  0.16398731  0.49136448  1
  Cr  Cr28  1  -0.00446349  -0.00509117  0.66023236  1
  Cr  Cr29  1  0.16087654  0.16458729  0.82918000  1
  Cr  Cr30  1  0.16218758  0.49287238  0.49666485  1
  Ni  Ni31  1  0.99226600  0.32972984  0.65730249  1
  Cr  Cr32  1  0.16133105  0.49359354  0.82582753  1
  Cr  Cr33  1  0.16077035  0.82540046  0.49456946  1
  Ni  Ni34  1  -0.00475912  0.65842234  0.65946395  1
  Cr  Cr35  1  0.15983967  0.82506321  0.82726542  1
  Cr  Cr36  1  0.49592977  0.16149751  0.49310773  1
  Cr  Cr37  1  0.32926521  0.99231354  0.66291220  1
  Ni  Ni38  1  0.49394200  0.16062131  0.82891061  1
  Cr  Cr39  1  0.49345672  0.49523190  0.49114967  1
  Cr  Cr40  1  0.32891215  0.32521479  0.66216023  1
  Cr  Cr41  1  0.49270917  0.49410257  0.83047562  1
  Cr  Cr42  1  0.49596575  0.82594764  0.49249924  1
  Ni  Ni43  1  0.32706186  0.66069898  0.66266746  1
  Ni  Ni44  1  0.49280740  0.82616644  0.82709860  1
  Fe  Fe45  1  0.82899262  0.16151803  0.49232238  1
  Cr  Cr46  1  0.65828495  -0.00429246  0.66302691  1
  Cr  Cr47  1  0.82863399  0.16154084  0.82815092  1
  Fe  Fe48  1  0.82967221  0.49354359  0.49467533  1
  Cr  Cr49  1  0.66289895  0.32692865  0.66103089  1
  Cr  Cr50  1  0.82986067  0.49528219  0.82381287  1
  Cr  Cr51  1  0.82698010  0.82883219  0.49254037  1
  Cr  Cr52  1  0.66121810  0.66030826  0.66045576  1
  Cr  Cr53  1  0.82685688  0.82738570  0.82924390  1
" 