3807,Ni24Fe6Cr69_5,-211.326703288198, 158.181235275004,Ni24Fe6Cr69,"# generated using pymatgen
 data_Cr38Fe3Ni13
_symmetry_space_group_name_H-M   'P 1'
_cell_length_a   7.55913491
_cell_length_b   7.55913491
_cell_length_c   10.69023111
_cell_angle_alpha   90.00000000
_cell_angle_beta   90.00000000
_cell_angle_gamma   90.00000000
_symmetry_Int_Tables_number   1
_chemical_formula_structural   Cr38Fe3Ni13
_chemical_formula_sum   'Cr38 Fe3 Ni13'
_cell_volume   610.84537006
_cell_formula_units_Z   1
loop_
 _symmetry_equiv_pos_site_id
 _symmetry_equiv_pos_as_xyz
  1  'x, y, z'
loop_
 _atom_site_type_symbol
 _atom_site_label
 _atom_site_symmetry_multiplicity
 _atom_site_fract_x
 _atom_site_fract_y
 _atom_site_fract_z
 _atom_site_occupancy
  Cr  Cr0  1  -0.00149886  -0.00554237  -0.00374211  1
  Ni  Ni1  1  0.16296969  0.16200843  0.15800820  1
  Cr  Cr2  1  -0.00206336  -0.00314446  0.32780757  1
  Ni  Ni3  1  -0.00342614  0.32657559  -0.00376148  1
  Cr  Cr4  1  0.16257706  0.49115748  0.16087264  1
  Cr  Cr5  1  0.99295961  0.32481242  0.32802862  1
  Cr  Cr6  1  -0.00561477  0.65894974  -0.00462009  1
  Ni  Ni7  1  0.16571610  0.82738382  0.16053929  1
  Cr  Cr8  1  -0.00516001  0.65990459  0.32542988  1
  Ni  Ni9  1  0.32821048  -0.00458394  -0.00279018  1
  Cr  Cr10  1  0.49249745  0.16058820  0.15835849  1
  Cr  Cr11  1  0.32538298  -0.00579053  0.32602099  1
  Ni  Ni12  1  0.32504062  0.32462255  -0.00309066  1
  Fe  Fe13  1  0.49062060  0.49425975  0.16106739  1
  Fe  Fe14  1  0.32644969  0.32547942  0.32681306  1
  Cr  Cr15  1  0.32741363  0.66344084  -0.00563839  1
  Ni  Ni16  1  0.49091615  0.82622196  0.15902534  1
  Ni  Ni17  1  0.32847432  0.66081739  0.32356881  1
  Ni  Ni18  1  0.65645981  0.99312364  -0.00480382  1
  Cr  Cr19  1  0.82803410  0.16064621  0.15752525  1
  Cr  Cr20  1  0.65852917  -0.00369123  0.32850786  1
  Cr  Cr21  1  0.66132432  0.32879636  -0.00555470  1
  Fe  Fe22  1  0.82834028  0.49246214  0.16034200  1
  Cr  Cr23  1  0.66123930  0.32763751  0.32995339  1
  Cr  Cr24  1  0.65947690  0.66050801  -0.00395684  1
  Cr  Cr25  1  0.82541147  0.82910670  0.16020522  1
  Cr  Cr26  1  0.65898007  0.65790954  0.32434111  1
  Ni  Ni27  1  0.16021538  0.16161203  0.49363527  1
  Ni  Ni28  1  -0.00552808  -0.00251742  0.65744457  1
  Cr  Cr29  1  0.16075085  0.16233243  0.83074275  1
  Cr  Cr30  1  0.16181899  0.49334364  0.49302226  1
  Cr  Cr31  1  0.99255558  0.32465392  0.65871811  1
  Cr  Cr32  1  0.16147980  0.49066824  0.82810514  1
  Cr  Cr33  1  0.16009563  0.82633667  0.49408518  1
  Cr  Cr34  1  0.99322867  0.66027704  0.66095528  1
  Cr  Cr35  1  0.15960861  0.82867230  0.82578524  1
  Ni  Ni36  1  0.49302672  0.16249521  0.49285325  1
  Cr  Cr37  1  0.32487091  -0.00385203  0.65953623  1
  Cr  Cr38  1  0.49347107  0.16022592  0.83088075  1
  Cr  Cr39  1  0.49116926  0.49328951  0.49149879  1
  Cr  Cr40  1  0.32803398  0.32409085  0.65878474  1
  Cr  Cr41  1  0.49090960  0.49152424  0.82780442  1
  Cr  Cr42  1  0.49361977  0.82706600  0.49282395  1
  Cr  Cr43  1  0.32766052  0.66150549  0.66226429  1
  Cr  Cr44  1  0.49533681  0.83011064  0.82868187  1
  Ni  Ni45  1  0.82833833  0.16202421  0.49541955  1
  Cr  Cr46  1  0.66005826  -0.00243901  0.65844813  1
  Cr  Cr47  1  0.82762134  0.15830993  0.82953804  1
  Ni  Ni48  1  0.82739486  0.49134063  0.49309709  1
  Cr  Cr49  1  0.66122399  0.32692684  0.65720402  1
  Cr  Cr50  1  0.82944661  0.49248970  0.82870912  1
  Cr  Cr51  1  0.82788345  0.82863778  0.49543469  1
  Cr  Cr52  1  0.66084071  0.65739825  0.66102732  1
  Cr  Cr53  1  0.82668687  0.83089640  0.82612228  1
" 