7983,Ni24Cr76_3,-230.69651349343, 151.151889366273,Ni24Cr76,"# generated using pymatgen
 data_Cr2Ni7
_symmetry_space_group_name_H-M   'P 1'
_cell_length_a   7.47628836
_cell_length_b   7.47628836
_cell_length_c   10.57306840
_cell_angle_alpha   90.00000000
_cell_angle_beta   90.00000000
_cell_angle_gamma   90.00000000
_symmetry_Int_Tables_number   1
_chemical_formula_structural   Cr2Ni7
_chemical_formula_sum   'Cr12 Ni42'
_cell_volume   590.98047100
_cell_formula_units_Z   6
loop_
 _symmetry_equiv_pos_site_id
 _symmetry_equiv_pos_as_xyz
  1  'x, y, z'
loop_
 _atom_site_type_symbol
 _atom_site_label
 _atom_site_symmetry_multiplicity
 _atom_site_fract_x
 _atom_site_fract_y
 _atom_site_fract_z
 _atom_site_occupancy
  Ni  Ni0  1  0.99557252  -0.00034632  0.99721240  1
  Cr  Cr1  1  0.16362683  0.16745760  0.16790184  1
  Ni  Ni2  1  0.99662281  0.99861512  0.33307160  1
  Cr  Cr3  1  0.99855826  0.33230160  0.99886906  1
  Ni  Ni4  1  0.16820112  0.49969815  0.16822296  1
  Ni  Ni5  1  0.99750575  0.33476670  0.33246024  1
  Cr  Cr6  1  -0.00054026  0.66601387  0.99892812  1
  Cr  Cr7  1  0.16557507  0.83163592  0.16736851  1
  Ni  Ni8  1  0.00027068  0.66478465  0.33358835  1
  Cr  Cr9  1  0.33232172  -0.00013478  0.99690491  1
  Cr  Cr10  1  0.50173576  0.16714745  0.16699373  1
  Ni  Ni11  1  0.33473639  0.99755472  0.33485449  1
  Ni  Ni12  1  0.33435754  0.33614717  0.99730152  1
  Ni  Ni13  1  0.49755921  0.49926804  0.16505890  1
  Ni  Ni14  1  0.33250733  0.33436028  0.33236205  1
  Ni  Ni15  1  0.33288374  0.66243025  -0.00019691  1
  Ni  Ni16  1  0.50040166  0.83146562  0.16722055  1
  Ni  Ni17  1  0.33098043  0.66623542  0.33210414  1
  Ni  Ni18  1  0.66934512  0.00111780  -0.00019252  1
  Ni  Ni19  1  0.83155355  0.16500622  0.16680138  1
  Ni  Ni20  1  0.66667970  0.00018395  0.33343136  1
  Ni  Ni21  1  0.66523781  0.33181984  0.99865193  1
  Ni  Ni22  1  0.83240992  0.49738035  0.16829680  1
  Ni  Ni23  1  0.66816972  0.33082107  0.33229147  1
  Cr  Cr24  1  0.66617244  0.66461932  0.00126590  1
  Ni  Ni25  1  0.83196662  0.83569835  0.16648898  1
  Cr  Cr26  1  0.66746212  0.66675825  0.33146375  1
  Cr  Cr27  1  0.16446309  0.16764153  0.49744419  1
  Ni  Ni28  1  0.99686127  0.99855447  0.66782660  1
  Ni  Ni29  1  0.16462631  0.16719480  0.83228453  1
  Ni  Ni30  1  0.16443246  0.50144229  0.49893083  1
  Ni  Ni31  1  0.99836009  0.33395196  0.66672475  1
  Ni  Ni32  1  0.16819323  0.49942898  0.83098882  1
  Ni  Ni33  1  0.16473451  0.83004642  0.49843747  1
  Ni  Ni34  1  0.99912626  0.66564735  0.66584925  1
  Ni  Ni35  1  0.16300608  0.83156161  0.83193630  1
  Ni  Ni36  1  0.50238800  0.16541095  0.49839849  1
  Cr  Cr37  1  0.33281540  0.00029326  0.66514250  1
  Ni  Ni38  1  0.50159948  0.17009387  0.83259753  1
  Cr  Cr39  1  0.49893257  0.49825959  0.50126081  1
  Ni  Ni40  1  0.33254133  0.33425246  0.66854116  1
  Ni  Ni41  1  0.49838867  0.49646790  0.83265462  1
  Ni  Ni42  1  0.49958147  0.83412082  0.49871534  1
  Ni  Ni43  1  0.33070326  0.66455891  0.66632093  1
  Cr  Cr44  1  0.50138746  0.83048306  0.83218078  1
  Ni  Ni45  1  0.83096517  0.16579993  0.49893908  1
  Ni  Ni46  1  0.66847823  0.00038598  0.66493237  1
  Ni  Ni47  1  0.83188308  0.16498814  0.83241982  1
  Ni  Ni48  1  0.83535377  0.49848767  0.50030310  1
  Ni  Ni49  1  0.66731731  0.33180426  0.66726617  1
  Ni  Ni50  1  0.83159405  0.49832942  0.82968660  1
  Ni  Ni51  1  0.83382267  0.83380357  0.50051603  1
  Ni  Ni52  1  0.66834032  0.66596558  0.66630538  1
  Ni  Ni53  1  0.83485865  0.83484637  0.83129883  1
" 