1802,Ni24Fe10Cr64_15,-212.964098885523, 161.186858550949,Ni24Fe10Cr64,"# generated using pymatgen
 data_Cr36Fe5Ni13
_symmetry_space_group_name_H-M   'P 1'
_cell_length_a   7.54810524
_cell_length_b   7.54810524
_cell_length_c   10.67463280
_cell_angle_alpha   90.00000000
_cell_angle_beta   90.00000000
_cell_angle_gamma   90.00000000
_symmetry_Int_Tables_number   1
_chemical_formula_structural   Cr36Fe5Ni13
_chemical_formula_sum   'Cr36 Fe5 Ni13'
_cell_volume   608.17538332
_cell_formula_units_Z   1
loop_
 _symmetry_equiv_pos_site_id
 _symmetry_equiv_pos_as_xyz
  1  'x, y, z'
loop_
 _atom_site_type_symbol
 _atom_site_label
 _atom_site_symmetry_multiplicity
 _atom_site_fract_x
 _atom_site_fract_y
 _atom_site_fract_z
 _atom_site_occupancy
  Cr  Cr0  1  0.99374217  -0.00290587  -0.00333390  1
  Ni  Ni1  1  0.15850189  0.16154296  0.16377514  1
  Fe  Fe2  1  -0.00364742  0.99376262  0.32759338  1
  Fe  Fe3  1  0.99448460  0.32832710  -0.00304901  1
  Cr  Cr4  1  0.15873199  0.49640156  0.16176326  1
  Ni  Ni5  1  -0.00488940  0.32748203  0.32556113  1
  Ni  Ni6  1  0.99381113  0.65897537  0.99411139  1
  Cr  Cr7  1  0.16068865  0.82903137  0.16378823  1
  Ni  Ni8  1  -0.00312534  0.66017157  0.33092732  1
  Cr  Cr9  1  0.32759219  -0.00232768  -0.00209812  1
  Fe  Fe10  1  0.49380348  0.16093208  0.16397256  1
  Ni  Ni11  1  0.32748336  0.99395169  0.32725723  1
  Cr  Cr12  1  0.32514426  0.32750806  -0.00441203  1
  Cr  Cr13  1  0.49622574  0.49648147  0.16263694  1
  Cr  Cr14  1  0.32578861  0.32892258  0.32621551  1
  Cr  Cr15  1  0.32605833  0.65897116  0.99382050  1
  Cr  Cr16  1  0.49307561  0.82654416  0.15992879  1
  Ni  Ni17  1  0.32466827  0.66397399  0.33120608  1
  Cr  Cr18  1  0.66279683  -0.00464715  -0.00427449  1
  Ni  Ni19  1  0.83172890  0.16286816  0.16294149  1
  Cr  Cr20  1  0.66298520  -0.00460118  0.32675539  1
  Cr  Cr21  1  0.66181355  0.32542768  -0.00165580  1
  Cr  Cr22  1  0.82901176  0.49504478  0.16247553  1
  Fe  Fe23  1  0.66283626  0.32692126  0.32597225  1
  Ni  Ni24  1  0.66467339  0.66020103  -0.00495189  1
  Cr  Cr25  1  0.83085217  0.82545396  0.16041180  1
  Cr  Cr26  1  0.66175475  0.66390656  0.32982643  1
  Cr  Cr27  1  0.16060503  0.16025000  0.49289295  1
  Cr  Cr28  1  0.99280535  0.99226516  0.65946192  1
  Cr  Cr29  1  0.15971790  0.16122868  0.82788778  1
  Ni  Ni30  1  0.15982393  0.49614589  0.49106698  1
  Cr  Cr31  1  -0.00388041  0.33042603  0.66355019  1
  Ni  Ni32  1  0.15747817  0.49376663  0.83079437  1
  Ni  Ni33  1  0.16127979  0.82669387  0.48963202  1
  Cr  Cr34  1  -0.00326656  0.66103923  0.65816232  1
  Cr  Cr35  1  0.16018597  0.82770046  0.83003161  1
  Cr  Cr36  1  0.49363344  0.16055911  0.49407553  1
  Cr  Cr37  1  0.32738001  0.99156672  0.65935188  1
  Cr  Cr38  1  0.49401746  0.16095473  0.82545549  1
  Cr  Cr39  1  0.49440078  0.49452379  0.49287434  1
  Cr  Cr40  1  0.32500492  0.33202426  0.66197495  1
  Cr  Cr41  1  0.49599569  0.49539807  0.82825644  1
  Ni  Ni42  1  0.49266564  0.82845952  0.49277793  1
  Cr  Cr43  1  0.32459739  0.66021955  0.65854692  1
  Cr  Cr44  1  0.49498265  0.82724047  0.82980853  1
  Cr  Cr45  1  0.83014253  0.16224488  0.49361006  1
  Cr  Cr46  1  0.66374047  0.99300055  0.66113816  1
  Fe  Fe47  1  0.82887285  0.16234759  0.82929076  1
  Cr  Cr48  1  0.82990183  0.49345289  0.49060515  1
  Cr  Cr49  1  0.66309800  0.32720433  0.66027025  1
  Cr  Cr50  1  0.82833235  0.49452530  0.83111180  1
  Ni  Ni51  1  0.83053325  0.82832871  0.49174441  1
  Cr  Cr52  1  0.66278791  0.66376915  0.65812098  1
  Cr  Cr53  1  0.82862501  0.82639537  0.83039346  1
" 