7624,Ni24Fe10Cr64_10,-213.088634880557, 162.495608786778,Ni24Fe10Cr64,"# generated using pymatgen
 data_Cr36Fe5Ni13
_symmetry_space_group_name_H-M   'P 1'
_cell_length_a   7.54718517
_cell_length_b   7.54718517
_cell_length_c   10.67333162
_cell_angle_alpha   90.00000000
_cell_angle_beta   90.00000000
_cell_angle_gamma   90.00000000
_symmetry_Int_Tables_number   1
_chemical_formula_structural   Cr36Fe5Ni13
_chemical_formula_sum   'Cr36 Fe5 Ni13'
_cell_volume   607.95301089
_cell_formula_units_Z   1
loop_
 _symmetry_equiv_pos_site_id
 _symmetry_equiv_pos_as_xyz
  1  'x, y, z'
loop_
 _atom_site_type_symbol
 _atom_site_label
 _atom_site_symmetry_multiplicity
 _atom_site_fract_x
 _atom_site_fract_y
 _atom_site_fract_z
 _atom_site_occupancy
  Fe  Fe0  1  0.99377190  0.99182468  0.99377123  1
  Cr  Cr1  1  0.15749236  0.16015864  0.16329684  1
  Ni  Ni2  1  0.99417925  0.99351387  0.32946698  1
  Cr  Cr3  1  0.99331991  0.33250975  0.99459180  1
  Cr  Cr4  1  0.16050422  0.49674962  0.16199330  1
  Cr  Cr5  1  0.99217917  0.32760878  0.32904120  1
  Ni  Ni6  1  0.99162211  0.66106963  0.99210628  1
  Cr  Cr7  1  0.15823207  0.82702797  0.16066052  1
  Cr  Cr8  1  0.99227224  0.66156549  0.32987229  1
  Cr  Cr9  1  0.32850535  0.99344356  -0.00491802  1
  Cr  Cr10  1  0.49649375  0.16101373  0.15897959  1
  Cr  Cr11  1  0.32653359  0.99344139  0.32746568  1
  Cr  Cr12  1  0.32704975  0.32722675  0.99412557  1
  Cr  Cr13  1  0.49561307  0.49818827  0.16338898  1
  Cr  Cr14  1  0.32772718  0.32608073  0.32818260  1
  Cr  Cr15  1  0.32480865  0.66323394  0.99231726  1
  Cr  Cr16  1  0.49688898  0.82487843  0.16160549  1
  Ni  Ni17  1  0.32885383  0.66270925  0.32770773  1
  Ni  Ni18  1  0.66240182  0.99175276  0.99384032  1
  Cr  Cr19  1  0.82993748  0.15890242  0.15854653  1
  Cr  Cr20  1  0.66220892  0.99372511  0.32927836  1
  Cr  Cr21  1  0.66376647  0.32902892  -0.00492761  1
  Ni  Ni22  1  0.82750319  0.49841703  0.15981775  1
  Cr  Cr23  1  0.66455634  0.32968835  0.32679793  1
  Ni  Ni24  1  0.66659388  0.66222813  -0.00390797  1
  Cr  Cr25  1  0.82855980  0.82780127  0.16022195  1
  Fe  Fe26  1  0.66337422  0.66090461  0.32818010  1
  Ni  Ni27  1  0.15983545  0.15816847  0.49635104  1
  Ni  Ni28  1  -0.00286834  0.99386923  0.66028171  1
  Cr  Cr29  1  0.15998097  0.16138831  0.82540526  1
  Cr  Cr30  1  0.16306231  0.49259380  0.49470268  1
  Cr  Cr31  1  0.99418008  0.33038348  0.66073601  1
  Ni  Ni32  1  0.15880099  0.49579148  0.82798242  1
  Cr  Cr33  1  0.16004701  0.83028480  0.49460917  1
  Cr  Cr34  1  0.99313427  0.66136515  0.66332076  1
  Fe  Fe35  1  0.15884553  0.82798785  0.82749139  1
  Cr  Cr36  1  0.49250062  0.16157656  0.49936540  1
  Ni  Ni37  1  0.32527594  -0.00338653  0.66089889  1
  Cr  Cr38  1  0.49529111  0.16015659  0.82542929  1
  Cr  Cr39  1  0.49375752  0.49611878  0.49301133  1
  Ni  Ni40  1  0.32582479  0.32460479  0.66131233  1
  Cr  Cr41  1  0.49389632  0.49503885  0.82750800  1
  Cr  Cr42  1  0.49591856  0.82640982  0.49435747  1
  Cr  Cr43  1  0.32548168  0.66340051  0.66431171  1
  Cr  Cr44  1  0.49689835  0.82890408  0.82802000  1
  Cr  Cr45  1  0.83198872  0.15809845  0.49653798  1
  Fe  Fe46  1  0.66191867  0.99388555  0.66141559  1
  Cr  Cr47  1  0.82874370  0.15857456  0.82897861  1
  Ni  Ni48  1  0.82709626  0.49701577  0.49334675  1
  Cr  Cr49  1  0.66351724  0.32955845  0.66206578  1
  Ni  Ni50  1  0.83082576  0.49784366  0.83083293  1
  Fe  Fe51  1  0.83013271  0.82867248  0.49508267  1
  Cr  Cr52  1  0.66532805  0.66115448  0.65916886  1
  Cr  Cr53  1  0.82894468  0.82915599  0.82928177  1
" 