4462,Ni24Fe6Cr69_6,-211.26551139529, 158.530123295554,Ni24Fe6Cr69,"# generated using pymatgen
 data_Cr38Fe3Ni13
_symmetry_space_group_name_H-M   'P 1'
_cell_length_a   7.55803935
_cell_length_b   7.55803935
_cell_length_c   10.68868176
_cell_angle_alpha   90.00000000
_cell_angle_beta   90.00000000
_cell_angle_gamma   90.00000000
_symmetry_Int_Tables_number   1
_chemical_formula_structural   Cr38Fe3Ni13
_chemical_formula_sum   'Cr38 Fe3 Ni13'
_cell_volume   610.57981704
_cell_formula_units_Z   1
loop_
 _symmetry_equiv_pos_site_id
 _symmetry_equiv_pos_as_xyz
  1  'x, y, z'
loop_
 _atom_site_type_symbol
 _atom_site_label
 _atom_site_symmetry_multiplicity
 _atom_site_fract_x
 _atom_site_fract_y
 _atom_site_fract_z
 _atom_site_occupancy
  Cr  Cr0  1  -0.00450562  0.99300391  0.99303067  1
  Cr  Cr1  1  0.16129281  0.15633222  0.15985954  1
  Ni  Ni2  1  -0.00578411  -0.00467398  0.32684344  1
  Cr  Cr3  1  -0.00361794  0.32791954  0.99218864  1
  Ni  Ni4  1  0.16070456  0.49506732  0.16092913  1
  Cr  Cr5  1  -0.00409376  0.32585276  0.32862618  1
  Cr  Cr6  1  -0.00600930  0.66023906  -0.00347918  1
  Ni  Ni7  1  0.15892295  0.82841460  0.16030254  1
  Cr  Cr8  1  0.99364418  0.66084558  0.32169304  1
  Ni  Ni9  1  0.32551188  0.99229668  0.99171248  1
  Cr  Cr10  1  0.49517597  0.16105398  0.15911639  1
  Cr  Cr11  1  0.32762763  -0.00476198  0.32932787  1
  Cr  Cr12  1  0.32407529  0.32555988  -0.00485730  1
  Cr  Cr13  1  0.49406044  0.49092807  0.16057391  1
  Cr  Cr14  1  0.32663894  0.32608509  0.32844454  1
  Cr  Cr15  1  0.32655663  0.66116717  -0.00507845  1
  Cr  Cr16  1  0.49076359  0.83014182  0.15981701  1
  Cr  Cr17  1  0.32734991  0.66060425  0.32553466  1
  Cr  Cr18  1  0.65888714  0.99043820  0.99360346  1
  Cr  Cr19  1  0.82641724  0.15913112  0.16100177  1
  Cr  Cr20  1  0.66145597  0.99375551  0.33068758  1
  Fe  Fe21  1  0.66039534  0.32696655  0.99391815  1
  Cr  Cr22  1  0.82533956  0.49109920  0.16003470  1
  Ni  Ni23  1  0.66107214  0.32450569  0.32960699  1
  Cr  Cr24  1  0.66095723  0.66313637  -0.00586617  1
  Ni  Ni25  1  0.83058923  0.82993516  0.16186191  1
  Cr  Cr26  1  0.66041269  0.66268738  0.32619388  1
  Ni  Ni27  1  0.15781646  0.15819551  0.49391487  1
  Cr  Cr28  1  -0.00465249  -0.00371098  0.66116624  1
  Fe  Fe29  1  0.16265302  0.15788384  0.82752561  1
  Cr  Cr30  1  0.16168497  0.49668383  0.49501028  1
  Cr  Cr31  1  -0.00527905  0.32442318  0.66029757  1
  Cr  Cr32  1  0.16218486  0.49700298  0.82468483  1
  Cr  Cr33  1  0.16193681  0.82823805  0.49365254  1
  Cr  Cr34  1  -0.00444567  0.66132723  0.66284554  1
  Ni  Ni35  1  0.16583941  0.82943259  0.82798448  1
  Fe  Fe36  1  0.49504059  0.16114387  0.49384697  1
  Cr  Cr37  1  0.32900524  -0.00564708  0.66157340  1
  Cr  Cr38  1  0.49442003  0.16055364  0.83101393  1
  Cr  Cr39  1  0.49431927  0.49501298  0.49508441  1
  Cr  Cr40  1  0.32644563  0.32467739  0.65841314  1
  Cr  Cr41  1  0.49419536  0.49356628  0.82644291  1
  Ni  Ni42  1  0.49164517  0.82824788  0.49611594  1
  Ni  Ni43  1  0.32952231  0.66344425  0.66221836  1
  Ni  Ni44  1  0.48841807  0.82862097  0.82728621  1
  Ni  Ni45  1  0.82721255  0.16165113  0.49294455  1
  Cr  Cr46  1  0.65935302  -0.00539788  0.65816462  1
  Cr  Cr47  1  0.82620334  0.16161391  0.82786519  1
  Cr  Cr48  1  0.82547834  0.49214724  0.49622102  1
  Ni  Ni49  1  0.65966121  0.32417376  0.65919083  1
  Cr  Cr50  1  0.82473526  0.49162014  0.82548350  1
  Cr  Cr51  1  0.83035915  0.82962140  0.49204701  1
  Cr  Cr52  1  0.65778536  0.66440374  0.66144871  1
  Cr  Cr53  1  0.82956636  0.82828416  0.82687515  1
" 