2967,Ni24Fe10Cr64_2,-213.076010023864, 160.356347430777,Ni24Fe10Cr64,"# generated using pymatgen
 data_Cr36Fe5Ni13
_symmetry_space_group_name_H-M   'P 1'
_cell_length_a   7.54630193
_cell_length_b   7.54630193
_cell_length_c   10.67208253
_cell_angle_alpha   90.00000000
_cell_angle_beta   90.00000000
_cell_angle_gamma   90.00000000
_symmetry_Int_Tables_number   1
_chemical_formula_structural   Cr36Fe5Ni13
_chemical_formula_sum   'Cr36 Fe5 Ni13'
_cell_volume   607.73959133
_cell_formula_units_Z   1
loop_
 _symmetry_equiv_pos_site_id
 _symmetry_equiv_pos_as_xyz
  1  'x, y, z'
loop_
 _atom_site_type_symbol
 _atom_site_label
 _atom_site_symmetry_multiplicity
 _atom_site_fract_x
 _atom_site_fract_y
 _atom_site_fract_z
 _atom_site_occupancy
  Cr  Cr0  1  0.99312730  -0.00403988  0.99204019  1
  Cr  Cr1  1  0.16072057  0.16141631  0.16143654  1
  Ni  Ni2  1  0.99273341  -0.00355428  0.32814831  1
  Cr  Cr3  1  0.99346595  0.32610739  -0.00389491  1
  Ni  Ni4  1  0.16176466  0.49444877  0.15993727  1
  Cr  Cr5  1  -0.00351874  0.32667437  0.32682742  1
  Cr  Cr6  1  -0.00475618  0.66189709  -0.00465500  1
  Cr  Cr7  1  0.16160093  0.82766136  0.16026813  1
  Cr  Cr8  1  -0.00435342  0.66184514  0.32764663  1
  Cr  Cr9  1  0.32634675  0.99348104  0.99416704  1
  Cr  Cr10  1  0.49728128  0.15977861  0.16245320  1
  Cr  Cr11  1  0.32582607  -0.00347528  0.33121055  1
  Cr  Cr12  1  0.32730580  0.32910603  0.99432914  1
  Cr  Cr13  1  0.49359875  0.49508764  0.15926794  1
  Cr  Cr14  1  0.32718123  0.32702672  0.33110220  1
  Ni  Ni15  1  0.32804713  0.65878030  -0.00499837  1
  Cr  Cr16  1  0.49576417  0.82938997  0.16149274  1
  Cr  Cr17  1  0.32741141  0.66089112  0.32724035  1
  Cr  Cr18  1  0.66484720  -0.00432478  0.99246619  1
  Fe  Fe19  1  0.82843021  0.15952565  0.16298250  1
  Fe  Fe20  1  0.66249839  -0.00379805  0.33006264  1
  Cr  Cr21  1  0.66362003  0.32739757  0.99299847  1
  Cr  Cr22  1  0.82872744  0.49387115  0.16343655  1
  Cr  Cr23  1  0.66073483  0.32794669  0.32849398  1
  Cr  Cr24  1  0.66174842  0.66099836  0.99195842  1
  Cr  Cr25  1  0.82687653  0.83095139  0.16453920  1
  Fe  Fe26  1  0.66124096  0.66225824  0.32873157  1
  Ni  Ni27  1  0.16038010  0.16136664  0.49791828  1
  Ni  Ni28  1  0.99271324  -0.00348942  0.66293678  1
  Fe  Fe29  1  0.15950439  0.16277285  0.82410856  1
  Cr  Cr30  1  0.15978624  0.49278535  0.49905446  1
  Ni  Ni31  1  -0.00239333  0.32437064  0.66159125  1
  Cr  Cr32  1  0.16272336  0.49347198  0.82621532  1
  Cr  Cr33  1  0.15799551  0.82940736  0.49736368  1
  Ni  Ni34  1  -0.00456502  0.66335538  0.66244202  1
  Cr  Cr35  1  0.15992056  0.82772176  0.82679699  1
  Ni  Ni36  1  0.49417275  0.16075826  0.49614113  1
  Cr  Cr37  1  0.32789481  -0.00341379  0.65892866  1
  Cr  Cr38  1  0.49364340  0.16303127  0.82651498  1
  Cr  Cr39  1  0.49394368  0.49346144  0.49733468  1
  Ni  Ni40  1  0.32654236  0.32751006  0.66041057  1
  Ni  Ni41  1  0.49091313  0.49364204  0.82741438  1
  Cr  Cr42  1  0.49716716  0.83006813  0.49406867  1
  Ni  Ni43  1  0.32743606  0.65882801  0.66320351  1
  Cr  Cr44  1  0.49426295  0.82726618  0.82847912  1
  Cr  Cr45  1  0.82945784  0.16009781  0.49516343  1
  Ni  Ni46  1  0.66441016  -0.00424826  0.66118149  1
  Fe  Fe47  1  0.83031448  0.15981600  0.82419325  1
  Cr  Cr48  1  0.83065250  0.49510653  0.49618906  1
  Cr  Cr49  1  0.65983487  0.32652868  0.66240056  1
  Cr  Cr50  1  0.83056878  0.49416944  0.82482436  1
  Cr  Cr51  1  0.82924780  0.82925168  0.49525585  1
  Cr  Cr52  1  0.66146318  0.66322605  0.66279369  1
  Ni  Ni53  1  0.83017305  0.83222437  0.82382146  1
" 