7824,Ni24Cr76_14,-230.57441983115, 150.862661926189,Ni24Cr76,"# generated using pymatgen
 data_Cr2Ni7
_symmetry_space_group_name_H-M   'P 1'
_cell_length_a   7.47882670
_cell_length_b   7.47882670
_cell_length_c   10.57665815
_cell_angle_alpha   90.00000000
_cell_angle_beta   90.00000000
_cell_angle_gamma   90.00000000
_symmetry_Int_Tables_number   1
_chemical_formula_structural   Cr2Ni7
_chemical_formula_sum   'Cr12 Ni42'
_cell_volume   591.58262089
_cell_formula_units_Z   6
loop_
 _symmetry_equiv_pos_site_id
 _symmetry_equiv_pos_as_xyz
  1  'x, y, z'
loop_
 _atom_site_type_symbol
 _atom_site_label
 _atom_site_symmetry_multiplicity
 _atom_site_fract_x
 _atom_site_fract_y
 _atom_site_fract_z
 _atom_site_occupancy
  Ni  Ni0  1  0.00051017  0.99822177  -0.00053212  1
  Cr  Cr1  1  0.16630885  0.16592815  0.16549042  1
  Cr  Cr2  1  0.99880489  0.99841487  0.33179632  1
  Ni  Ni3  1  0.99750405  0.33254605  -0.00058171  1
  Cr  Cr4  1  0.16493759  0.50075470  0.16685720  1
  Ni  Ni5  1  0.99876764  0.33493644  0.33337115  1
  Ni  Ni6  1  0.99827064  0.66687607  0.00032866  1
  Ni  Ni7  1  0.16643970  0.83163059  0.16457546  1
  Ni  Ni8  1  -0.00068776  0.66413286  0.33239056  1
  Ni  Ni9  1  0.33220452  0.99919532  -0.00059139  1
  Ni  Ni10  1  0.50146288  0.16374349  0.16602523  1
  Ni  Ni11  1  0.33551903  -0.00046327  0.33220618  1
  Ni  Ni12  1  0.33426236  0.33059977  0.99718837  1
  Cr  Cr13  1  0.49898592  0.49859562  0.16469376  1
  Ni  Ni14  1  0.33316170  0.33137436  0.33545626  1
  Ni  Ni15  1  0.33250951  0.66783861  -0.00074005  1
  Ni  Ni16  1  0.49874464  0.83510897  0.16541973  1
  Ni  Ni17  1  0.33167973  0.66673171  0.33331047  1
  Ni  Ni18  1  0.66492306  -0.00003107  0.00208413  1
  Ni  Ni19  1  0.83005247  0.16614719  0.16507801  1
  Ni  Ni20  1  0.66312982  0.00003445  0.33180288  1
  Ni  Ni21  1  0.66587659  0.33284971  -0.00078717  1
  Ni  Ni22  1  0.83355454  0.49845836  0.16491184  1
  Ni  Ni23  1  0.66571191  0.33107217  0.33218788  1
  Ni  Ni24  1  0.66685338  0.66481886  -0.00037999  1
  Ni  Ni25  1  0.83244585  0.83302462  0.16445093  1
  Cr  Cr26  1  0.66705747  0.66644677  0.33331477  1
  Ni  Ni27  1  0.16731873  0.16933263  0.49961322  1
  Ni  Ni28  1  -0.00066120  0.99898092  0.66635850  1
  Ni  Ni29  1  0.16653383  0.16537998  0.83301137  1
  Ni  Ni30  1  0.16615429  0.49779534  0.49874987  1
  Ni  Ni31  1  -0.00018408  0.33332288  0.66488148  1
  Cr  Cr32  1  0.16643205  0.49945623  0.83274744  1
  Cr  Cr33  1  0.16587570  0.83064020  0.49922742  1
  Ni  Ni34  1  0.99776284  0.66533433  0.66491940  1
  Ni  Ni35  1  0.16524759  0.83322635  0.83384806  1
  Ni  Ni36  1  0.49868048  0.16661944  0.49811015  1
  Cr  Cr37  1  0.33197855  0.00114989  0.66626766  1
  Ni  Ni38  1  0.49832498  0.16839695  0.83350936  1
  Ni  Ni39  1  0.49792835  0.49860037  0.50055568  1
  Ni  Ni40  1  0.33330464  0.33301285  0.66503196  1
  Ni  Ni41  1  0.50012214  0.49757368  0.83236062  1
  Ni  Ni42  1  0.50078334  0.83242132  0.49887639  1
  Ni  Ni43  1  0.33343780  0.66376611  0.66507364  1
  Cr  Cr44  1  0.49884135  0.83138990  0.83311743  1
  Cr  Cr45  1  0.83178627  0.16585961  0.49998342  1
  Ni  Ni46  1  0.66607244  0.99885700  0.66371520  1
  Cr  Cr47  1  0.83251129  0.16664030  0.83235158  1
  Ni  Ni48  1  0.83355909  0.49988904  0.49996339  1
  Ni  Ni49  1  0.66452238  0.33455049  0.66622504  1
  Ni  Ni50  1  0.83118392  0.49889124  0.83275628  1
  Ni  Ni51  1  0.83083208  0.83124214  0.50109318  1
  Ni  Ni52  1  0.66643284  0.66421251  0.66443868  1
  Cr  Cr53  1  0.83370240  0.83194642  0.83136101  1
" 