1869,Ni24Fe50Cr24_6,-227.462458558077, 180.901798409661,Ni24Fe50Cr24,"# generated using pymatgen
 data_Cr14Fe27Ni13
_symmetry_space_group_name_H-M   'P 1'
_cell_length_a   7.45977999
_cell_length_b   7.45977999
_cell_length_c   10.54972204
_cell_angle_alpha   90.00000000
_cell_angle_beta   90.00000000
_cell_angle_gamma   90.00000000
_symmetry_Int_Tables_number   1
_chemical_formula_structural   Cr14Fe27Ni13
_chemical_formula_sum   'Cr14 Fe27 Ni13'
_cell_volume   587.07428206
_cell_formula_units_Z   1
loop_
 _symmetry_equiv_pos_site_id
 _symmetry_equiv_pos_as_xyz
  1  'x, y, z'
loop_
 _atom_site_type_symbol
 _atom_site_label
 _atom_site_symmetry_multiplicity
 _atom_site_fract_x
 _atom_site_fract_y
 _atom_site_fract_z
 _atom_site_occupancy
  Ni  Ni0  1  0.99623378  0.00183642  0.00190308  1
  Cr  Cr1  1  0.16628690  0.16767235  0.16810235  1
  Cr  Cr2  1  0.99894779  0.00054875  0.33554012  1
  Fe  Fe3  1  1.00040045  0.33540792  0.00088345  1
  Cr  Cr4  1  0.16711153  0.50014215  0.16653978  1
  Ni  Ni5  1  0.99779755  0.33438172  0.33483724  1
  Ni  Ni6  1  1.00013297  0.66725968  1.00029456  1
  Cr  Cr7  1  0.16579669  0.83376085  0.16540010  1
  Ni  Ni8  1  0.99822837  0.66693035  0.33539151  1
  Fe  Fe9  1  0.33384715  1.00027467  0.00080931  1
  Cr  Cr10  1  0.50139614  0.16781217  0.16780478  1
  Fe  Fe11  1  0.33498904  0.99968721  0.33654661  1
  Ni  Ni12  1  0.33674219  0.33585763  0.99991494  1
  Ni  Ni13  1  0.50354603  0.50099460  0.16799023  1
  Fe  Fe14  1  0.33395667  0.33389025  0.33414825  1
  Ni  Ni15  1  0.33529943  0.66383454  0.00093848  1
  Fe  Fe16  1  0.50110700  0.83176955  0.16678887  1
  Fe  Fe17  1  0.33388618  0.66780571  0.33273225  1
  Fe  Fe18  1  0.66745346  0.00126217  0.00108646  1
  Fe  Fe19  1  0.83324457  0.16901753  0.16748720  1
  Fe  Fe20  1  0.66759843  1.00015314  0.33600724  1
  Fe  Fe21  1  0.66831659  0.33470079  0.00069425  1
  Fe  Fe22  1  0.83357147  0.50070585  0.16772776  1
  Fe  Fe23  1  0.67002450  0.33357866  0.33482205  1
  Fe  Fe24  1  0.66724898  0.66613958  0.00266811  1
  Fe  Fe25  1  0.83192464  0.83214531  0.16620855  1
  Fe  Fe26  1  0.66948402  0.66731308  0.33327640  1
  Fe  Fe27  1  0.16906721  0.16885823  0.49964352  1
  Cr  Cr28  1  1.00033234  0.00108351  0.66423826  1
  Cr  Cr29  1  0.16732647  0.16823300  0.83514782  1
  Cr  Cr30  1  0.16568270  0.50086468  0.50124185  1
  Fe  Fe31  1  0.99738698  0.33361218  0.66531550  1
  Ni  Ni32  1  0.16665226  0.49972665  0.83399993  1
  Fe  Fe33  1  0.16925138  0.83425691  0.49982445  1
  Fe  Fe34  1  0.99837676  0.66608692  0.66593057  1
  Cr  Cr35  1  0.16672968  0.83182150  0.83486936  1
  Ni  Ni36  1  0.50249726  0.16588777  0.50075988  1
  Fe  Fe37  1  0.33690040  0.00140274  0.66493619  1
  Fe  Fe38  1  0.50240897  0.16777708  0.83309886  1
  Cr  Cr39  1  0.50204672  0.49915149  0.49984751  1
  Fe  Fe40  1  0.33525523  0.33167887  0.66742617  1
  Cr  Cr41  1  0.50074089  0.50018736  0.83284421  1
  Fe  Fe42  1  0.50184474  0.83551742  0.50124916  1
  Fe  Fe43  1  0.33450955  0.66785619  0.66729960  1
  Cr  Cr44  1  0.50236202  0.83539395  0.83396884  1
  Ni  Ni45  1  0.83172249  0.16724838  0.50041463  1
  Ni  Ni46  1  0.66684642  0.00238410  0.66612176  1
  Fe  Fe47  1  0.83156885  0.16767853  0.83330292  1
  Fe  Fe48  1  0.83253997  0.49827626  0.50089103  1
  Ni  Ni49  1  0.66624275  0.33189172  0.66642679  1
  Cr  Cr50  1  0.83427277  0.50060075  0.83172175  1
  Fe  Fe51  1  0.83032407  0.83210545  0.50098454  1
  Ni  Ni52  1  0.66643852  0.66719081  0.66459169  1
  Cr  Cr53  1  0.83240457  0.83464943  0.83366374  1
" 