5143,Ni24Fe50Cr24_8,-228.069008734633, 184.918865860528,Ni24Fe50Cr24,"# generated using pymatgen
 data_Cr14Fe27Ni13
_symmetry_space_group_name_H-M   'P 1'
_cell_length_a   7.45755421
_cell_length_b   7.45755421
_cell_length_c   10.54657431
_cell_angle_alpha   90.00000000
_cell_angle_beta   90.00000000
_cell_angle_gamma   90.00000000
_symmetry_Int_Tables_number   1
_chemical_formula_structural   Cr14Fe27Ni13
_chemical_formula_sum   'Cr14 Fe27 Ni13'
_cell_volume   586.54894173
_cell_formula_units_Z   1
loop_
 _symmetry_equiv_pos_site_id
 _symmetry_equiv_pos_as_xyz
  1  'x, y, z'
loop_
 _atom_site_type_symbol
 _atom_site_label
 _atom_site_symmetry_multiplicity
 _atom_site_fract_x
 _atom_site_fract_y
 _atom_site_fract_z
 _atom_site_occupancy
  Fe  Fe0  1  0.99855972  0.99963377  0.99803534  1
  Cr  Cr1  1  0.16673256  0.16649262  0.17154931  1
  Fe  Fe2  1  0.99926989  0.00065200  0.33524113  1
  Cr  Cr3  1  0.99762412  0.33559172  0.99952568  1
  Fe  Fe4  1  0.16370980  0.50082791  0.16754562  1
  Fe  Fe5  1  0.99912421  0.33519404  0.33449937  1
  Ni  Ni6  1  0.99785036  0.66720895  0.99935139  1
  Cr  Cr7  1  0.16371635  0.83462877  0.16576920  1
  Ni  Ni8  1  0.99868716  0.66469026  0.33311995  1
  Cr  Cr9  1  0.33620521  0.99899490  0.99777266  1
  Cr  Cr10  1  0.50114768  0.16902590  0.16691283  1
  Ni  Ni11  1  0.33468856  1.00011487  0.33507001  1
  Cr  Cr12  1  0.33476364  0.33541366  0.99849116  1
  Fe  Fe13  1  0.50375550  0.50127691  0.16811620  1
  Fe  Fe14  1  0.33428057  0.33533526  0.33510163  1
  Cr  Cr15  1  0.33217220  0.66728262  0.99934119  1
  Fe  Fe16  1  0.50367052  0.83268693  0.16743815  1
  Cr  Cr17  1  0.33380667  0.66801820  0.33279488  1
  Fe  Fe18  1  0.67056443  0.99885893  0.99950425  1
  Fe  Fe19  1  0.83388621  0.16842579  0.16744752  1
  Cr  Cr20  1  0.66733095  0.00105478  0.33463749  1
  Fe  Fe21  1  0.66819604  0.33632206  1.00049599  1
  Ni  Ni22  1  0.83208611  0.50275846  0.16772815  1
  Ni  Ni23  1  0.67041090  0.33499310  0.33218576  1
  Fe  Fe24  1  0.66870308  0.66712245  0.99967745  1
  Fe  Fe25  1  0.83364337  0.83210281  0.16568447  1
  Fe  Fe26  1  0.66866102  0.66583809  0.33440397  1
  Fe  Fe27  1  0.16767427  0.16843563  0.50124084  1
  Fe  Fe28  1  0.99995033  0.00284592  0.66893449  1
  Ni  Ni29  1  0.16637964  0.16672314  0.83029794  1
  Fe  Fe30  1  0.16815873  0.49832194  0.50039638  1
  Fe  Fe31  1  0.00374131  0.33168130  0.66802619  1
  Ni  Ni32  1  0.16649306  0.49804482  0.83393098  1
  Cr  Cr33  1  0.16614965  0.83746485  0.50096442  1
  Cr  Cr34  1  0.99917688  0.66501428  0.66934394  1
  Fe  Fe35  1  0.16598241  0.83458740  0.83389882  1
  Cr  Cr36  1  0.49785307  0.16809278  0.50201019  1
  Ni  Ni37  1  0.33532845  0.00114110  0.66929746  1
  Fe  Fe38  1  0.50072192  0.16618581  0.83275766  1
  Ni  Ni39  1  0.50362725  0.50055782  0.49879350  1
  Fe  Fe40  1  0.33204469  0.33442558  0.66920642  1
  Ni  Ni41  1  0.50257862  0.50087039  0.83471877  1
  Ni  Ni42  1  0.50267792  0.83280488  0.50101528  1
  Cr  Cr43  1  0.33518906  0.66815512  0.66948602  1
  Ni  Ni44  1  0.50505701  0.83404683  0.83288371  1
  Fe  Fe45  1  0.83518736  0.16788736  0.50046344  1
  Fe  Fe46  1  0.66744451  0.99661870  0.66800500  1
  Fe  Fe47  1  0.83374251  0.16537186  0.83396268  1
  Fe  Fe48  1  0.83256656  0.50124613  0.49777962  1
  Cr  Cr49  1  0.66966850  0.33389747  0.66972919  1
  Fe  Fe50  1  0.83300069  0.50312659  0.83579046  1
  Fe  Fe51  1  0.83173192  0.83246846  0.50133852  1
  Fe  Fe52  1  0.66580089  0.66950823  0.66765438  1
  Ni  Ni53  1  0.83319670  0.83430057  0.83500368  1
" 