8563,Ni24Fe10Cr64_19,-213.077325075537, 161.551548825895,Ni24Fe10Cr64,"# generated using pymatgen
 data_Cr36Fe5Ni13
_symmetry_space_group_name_H-M   'P 1'
_cell_length_a   7.54675746
_cell_length_b   7.54675746
_cell_length_c   10.67272675
_cell_angle_alpha   90.00000000
_cell_angle_beta   90.00000000
_cell_angle_gamma   90.00000000
_symmetry_Int_Tables_number   1
_chemical_formula_structural   Cr36Fe5Ni13
_chemical_formula_sum   'Cr36 Fe5 Ni13'
_cell_volume   607.84965634
_cell_formula_units_Z   1
loop_
 _symmetry_equiv_pos_site_id
 _symmetry_equiv_pos_as_xyz
  1  'x, y, z'
loop_
 _atom_site_type_symbol
 _atom_site_label
 _atom_site_symmetry_multiplicity
 _atom_site_fract_x
 _atom_site_fract_y
 _atom_site_fract_z
 _atom_site_occupancy
  Cr  Cr0  1  -0.00482493  0.99333638  0.99266206  1
  Ni  Ni1  1  0.16036871  0.16068180  0.16554950  1
  Ni  Ni2  1  -0.00347107  -0.00355623  0.32804191  1
  Cr  Cr3  1  -0.00291044  0.32671867  0.99459688  1
  Cr  Cr4  1  0.15911735  0.49560703  0.16056739  1
  Ni  Ni5  1  -0.00284382  0.32579716  0.32824333  1
  Fe  Fe6  1  -0.00279269  0.66226510  0.99137790  1
  Cr  Cr7  1  0.16321576  0.82915202  0.16152563  1
  Cr  Cr8  1  0.99393689  0.66179100  0.32825822  1
  Cr  Cr9  1  0.32378829  -0.00512444  0.99348137  1
  Cr  Cr10  1  0.49292768  0.16047343  0.16050957  1
  Ni  Ni11  1  0.32431630  -0.00400929  0.32643460  1
  Cr  Cr12  1  0.32719390  0.33054319  0.99220842  1
  Cr  Cr13  1  0.49549056  0.49550717  0.15871682  1
  Cr  Cr14  1  0.32570050  0.32934108  0.32945552  1
  Ni  Ni15  1  0.32579695  0.65974653  0.99132732  1
  Cr  Cr16  1  0.49040418  0.82817318  0.16167021  1
  Cr  Cr17  1  0.32856514  0.65901350  0.32924452  1
  Cr  Cr18  1  0.66516430  -0.00502813  0.99354598  1
  Cr  Cr19  1  0.83039131  0.16471884  0.16267891  1
  Cr  Cr20  1  0.66453791  0.99270682  0.32864807  1
  Ni  Ni21  1  0.66051386  0.33074794  0.99365801  1
  Cr  Cr22  1  0.82947988  0.49287851  0.15946782  1
  Cr  Cr23  1  0.66116408  0.32991100  0.32695225  1
  Cr  Cr24  1  0.66145643  0.66132868  0.99408733  1
  Cr  Cr25  1  0.83073770  0.82643444  0.16157649  1
  Cr  Cr26  1  0.66174032  0.66158818  0.33103614  1
  Cr  Cr27  1  0.15996934  0.16195473  0.49300612  1
  Cr  Cr28  1  0.99358009  0.99264054  0.66407907  1
  Ni  Ni29  1  0.16006789  0.16193701  0.82656593  1
  Fe  Fe30  1  0.15772974  0.49470999  0.49582497  1
  Ni  Ni31  1  -0.00261192  0.33205315  0.66204913  1
  Fe  Fe32  1  0.16076011  0.49701835  0.82770411  1
  Cr  Cr33  1  0.16057257  0.82835697  0.49300398  1
  Ni  Ni34  1  0.99435112  0.66068772  0.66349510  1
  Ni  Ni35  1  0.15889085  0.82458059  0.82927178  1
  Cr  Cr36  1  0.49263922  0.15997742  0.49444790  1
  Cr  Cr37  1  0.32553736  -0.00475597  0.66439171  1
  Cr  Cr38  1  0.49435168  0.16332721  0.82894718  1
  Fe  Fe39  1  0.49509707  0.49538009  0.49628795  1
  Cr  Cr40  1  0.32523659  0.33110758  0.66246967  1
  Ni  Ni41  1  0.49443952  0.49625631  0.82868616  1
  Cr  Cr42  1  0.49351685  0.82826290  0.49450311  1
  Cr  Cr43  1  0.32660696  0.65797516  0.66150758  1
  Cr  Cr44  1  0.49265545  0.82555319  0.82844427  1
  Cr  Cr45  1  0.83138222  0.16309716  0.49432520  1
  Cr  Cr46  1  0.66517371  0.99078474  0.66183597  1
  Cr  Cr47  1  0.82901183  0.16457465  0.82711547  1
  Cr  Cr48  1  0.83118040  0.49463499  0.49615210  1
  Cr  Cr49  1  0.65954616  0.33021239  0.66171653  1
  Cr  Cr50  1  0.82892966  0.49521525  0.82886057  1
  Ni  Ni51  1  0.83002525  0.82447282  0.49653725  1
  Fe  Fe52  1  0.66455224  0.66113030  0.66209395  1
  Ni  Ni53  1  0.83246543  0.82293362  0.82597751  1
" 