3077,Ni24Cr76_19,-230.665206942524, 150.094376564683,Ni24Cr76,"# generated using pymatgen
 data_Cr2Ni7
_symmetry_space_group_name_H-M   'P 1'
_cell_length_a   7.48359438
_cell_length_b   7.48359438
_cell_length_c   10.58340066
_cell_angle_alpha   90.00000000
_cell_angle_beta   90.00000000
_cell_angle_gamma   90.00000000
_symmetry_Int_Tables_number   1
_chemical_formula_structural   Cr2Ni7
_chemical_formula_sum   'Cr12 Ni42'
_cell_volume   592.71472614
_cell_formula_units_Z   6
loop_
 _symmetry_equiv_pos_site_id
 _symmetry_equiv_pos_as_xyz
  1  'x, y, z'
loop_
 _atom_site_type_symbol
 _atom_site_label
 _atom_site_symmetry_multiplicity
 _atom_site_fract_x
 _atom_site_fract_y
 _atom_site_fract_z
 _atom_site_occupancy
  Cr  Cr0  1  0.99693177  0.99762131  -0.00042581  1
  Ni  Ni1  1  0.16556934  0.16746223  0.16782824  1
  Ni  Ni2  1  0.00019135  0.99842397  0.32996463  1
  Ni  Ni3  1  0.99776601  0.33505039  -0.00043735  1
  Ni  Ni4  1  0.16557189  0.49873537  0.16542491  1
  Ni  Ni5  1  0.99885835  0.33361494  0.33084772  1
  Ni  Ni6  1  0.99875409  0.66357307  0.99838438  1
  Ni  Ni7  1  0.16555269  0.83045513  0.16771130  1
  Ni  Ni8  1  0.00162931  0.66468772  0.33180395  1
  Cr  Cr9  1  0.33328198  0.99876160  0.00078143  1
  Ni  Ni10  1  0.49984770  0.16616954  0.16633004  1
  Ni  Ni11  1  0.33188148  0.99739058  0.33113866  1
  Ni  Ni12  1  0.33351725  0.33510161  -0.00065880  1
  Ni  Ni13  1  0.49780611  0.49795970  0.16456853  1
  Ni  Ni14  1  0.33212022  0.33356385  0.33064523  1
  Ni  Ni15  1  0.33142274  0.66247476  -0.00048352  1
  Ni  Ni16  1  0.49906645  0.83257681  0.16600547  1
  Ni  Ni17  1  0.33037619  0.66576805  0.33288855  1
  Ni  Ni18  1  0.66647749  0.00004694  -0.00050371  1
  Ni  Ni19  1  0.83128405  0.16615496  0.16669137  1
  Ni  Ni20  1  0.66460384  0.00018170  0.32955643  1
  Ni  Ni21  1  0.66541203  0.33252298  0.99840622  1
  Ni  Ni22  1  0.83332327  0.49794523  0.16492719  1
  Ni  Ni23  1  0.66570850  0.33206133  0.33107675  1
  Ni  Ni24  1  0.66649557  0.66412297  -0.00065335  1
  Ni  Ni25  1  0.83206453  0.83258236  0.16520486  1
  Cr  Cr26  1  0.66459617  0.66443686  0.33199281  1
  Cr  Cr27  1  0.16527761  0.16414031  0.49706140  1
  Ni  Ni28  1  -0.00093929  0.99487053  0.66738444  1
  Cr  Cr29  1  0.16587443  0.16600152  0.83178638  1
  Ni  Ni30  1  0.16572502  0.50258678  0.49735865  1
  Cr  Cr31  1  0.99773727  0.33469590  0.66623438  1
  Ni  Ni32  1  0.16540253  0.50214984  0.83387937  1
  Ni  Ni33  1  0.16753556  0.83000833  0.49953734  1
  Ni  Ni34  1  -0.00018493  0.66720790  0.66649248  1
  Ni  Ni35  1  0.16355970  0.82859334  0.82946631  1
  Cr  Cr36  1  0.49890377  0.16361145  0.49756604  1
  Ni  Ni37  1  0.33207236  0.99486172  0.66515141  1
  Ni  Ni38  1  0.50177618  0.16639887  0.83282825  1
  Ni  Ni39  1  0.49773438  0.50181616  0.49845072  1
  Cr  Cr40  1  0.33338460  0.33471068  0.66667533  1
  Ni  Ni41  1  0.49888652  0.49869956  0.83362343  1
  Ni  Ni42  1  0.49615519  0.83097751  0.50005469  1
  Ni  Ni43  1  0.33129240  0.66719308  0.66431268  1
  Cr  Cr44  1  0.49991147  0.83112720  0.83119943  1
  Cr  Cr45  1  0.83249844  0.16544702  0.49703358  1
  Ni  Ni46  1  0.66553741  0.99696771  0.66762854  1
  Ni  Ni47  1  0.82959693  0.16461357  0.83263359  1
  Ni  Ni48  1  0.83323129  0.50003933  0.49825597  1
  Cr  Cr49  1  0.66559249  0.33443006  0.66657117  1
  Ni  Ni50  1  0.83239282  0.50056340  0.83343661  1
  Cr  Cr51  1  0.83272460  0.83170491  0.50023259  1
  Ni  Ni52  1  0.66555079  0.66596370  0.66539065  1
  Ni  Ni53  1  0.83296119  0.83147470  0.83103948  1
" 