4812,Ni24Fe50Cr24_5,-227.936596848904, 185.830582741628,Ni24Fe50Cr24,"# generated using pymatgen
 data_Cr14Fe27Ni13
_symmetry_space_group_name_H-M   'P 1'
_cell_length_a   7.45545036
_cell_length_b   7.45545036
_cell_length_c   10.54359901
_cell_angle_alpha   90.00000000
_cell_angle_beta   90.00000000
_cell_angle_gamma   90.00000000
_symmetry_Int_Tables_number   1
_chemical_formula_structural   Cr14Fe27Ni13
_chemical_formula_sum   'Cr14 Fe27 Ni13'
_cell_volume   586.05266603
_cell_formula_units_Z   1
loop_
 _symmetry_equiv_pos_site_id
 _symmetry_equiv_pos_as_xyz
  1  'x, y, z'
loop_
 _atom_site_type_symbol
 _atom_site_label
 _atom_site_symmetry_multiplicity
 _atom_site_fract_x
 _atom_site_fract_y
 _atom_site_fract_z
 _atom_site_occupancy
  Fe  Fe0  1  0.99842354  1.00070225  0.00174627  1
  Fe  Fe1  1  0.16459387  0.16952617  0.16687274  1
  Cr  Cr2  1  0.00275641  1.00058623  0.33249263  1
  Fe  Fe3  1  0.99994210  0.33177962  0.00214371  1
  Ni  Ni4  1  0.16597482  0.50089842  0.16653697  1
  Fe  Fe5  1  0.99983084  0.33679072  0.33346805  1
  Fe  Fe6  1  0.00138506  0.66937272  0.00349376  1
  Ni  Ni7  1  0.16584931  0.83284608  0.16672796  1
  Ni  Ni8  1  1.00065390  0.66651395  0.33263832  1
  Cr  Cr9  1  0.33171939  0.00344583  0.00391137  1
  Fe  Fe10  1  0.50352364  0.16927457  0.16710299  1
  Fe  Fe11  1  0.33336914  1.00008727  0.33576944  1
  Fe  Fe12  1  0.33541589  0.33563892  0.00264523  1
  Ni  Ni13  1  0.50003736  0.49801867  0.16471971  1
  Cr  Cr14  1  0.33383167  0.33144455  0.33405356  1
  Fe  Fe15  1  0.33386958  0.66643227  0.00239861  1
  Cr  Cr16  1  0.50007230  0.83563053  0.16961724  1
  Cr  Cr17  1  0.33197652  0.66640015  0.33452307  1
  Ni  Ni18  1  0.66981329  0.00212302  0.00177829  1
  Ni  Ni19  1  0.83291160  0.16876347  0.16661120  1
  Fe  Fe20  1  0.66724352  0.00308210  0.33226464  1
  Fe  Fe21  1  0.66734059  0.33265431  0.00258033  1
  Ni  Ni22  1  0.83645133  0.49804061  0.16853698  1
  Fe  Fe23  1  0.66860532  0.33441036  0.33231509  1
  Cr  Cr24  1  0.66900497  0.66615742  0.00170081  1
  Ni  Ni25  1  0.83608796  0.83569992  0.16678589  1
  Cr  Cr26  1  0.67044512  0.66541232  0.33353343  1
  Fe  Fe27  1  0.16728750  0.16724357  0.50244753  1
  Fe  Fe28  1  0.00353720  0.00221146  0.66826445  1
  Fe  Fe29  1  0.16667034  0.16743302  0.83234983  1
  Fe  Fe30  1  0.16429799  0.50044914  0.50035787  1
  Ni  Ni31  1  0.00136972  0.33288180  0.66633075  1
  Cr  Cr32  1  0.16922654  0.50072996  0.83576210  1
  Ni  Ni33  1  0.17024083  0.83438127  0.50144641  1
  Cr  Cr34  1  0.99883669  0.66729753  0.66614828  1
  Fe  Fe35  1  0.16731634  0.83572536  0.83351405  1
  Fe  Fe36  1  0.50039088  0.16592351  0.50186928  1
  Ni  Ni37  1  0.33350153  0.00227648  0.66464779  1
  Cr  Cr38  1  0.50172972  0.16877995  0.83486236  1
  Fe  Fe39  1  0.50199403  0.50044840  0.50257111  1
  Fe  Fe40  1  0.33333983  0.33405792  0.66577608  1
  Ni  Ni41  1  0.49933335  0.49955482  0.83304107  1
  Fe  Fe42  1  0.50090814  0.83541696  0.50234321  1
  Fe  Fe43  1  0.33414120  0.66679948  0.66528152  1
  Cr  Cr44  1  0.49888390  0.83355778  0.83234956  1
  Cr  Cr45  1  0.83349228  0.16978094  0.50106719  1
  Fe  Fe46  1  0.66849552  0.00146051  0.66829718  1
  Fe  Fe47  1  0.83576928  0.16657054  0.83433860  1
  Ni  Ni48  1  0.83459805  0.49850504  0.49975863  1
  Fe  Fe49  1  0.66653282  0.33562157  0.66659389  1
  Cr  Cr50  1  0.83413825  0.49760634  0.83418502  1
  Cr  Cr51  1  0.83481282  0.83439933  0.50024298  1
  Fe  Fe52  1  0.66542232  0.66489922  0.66624678  1
  Fe  Fe53  1  0.83460348  0.83625522  0.83493778  1
" 