3203,Ni24Fe6Cr69_0,-211.182570547191, 157.374663307215,Ni24Fe6Cr69,"# generated using pymatgen
 data_Cr38Fe3Ni13
_symmetry_space_group_name_H-M   'P 1'
_cell_length_a   7.55872359
_cell_length_b   7.55872359
_cell_length_c   10.68964941
_cell_angle_alpha   90.00000000
_cell_angle_beta   90.00000000
_cell_angle_gamma   90.00000000
_symmetry_Int_Tables_number   1
_chemical_formula_structural   Cr38Fe3Ni13
_chemical_formula_sum   'Cr38 Fe3 Ni13'
_cell_volume   610.74566121
_cell_formula_units_Z   1
loop_
 _symmetry_equiv_pos_site_id
 _symmetry_equiv_pos_as_xyz
  1  'x, y, z'
loop_
 _atom_site_type_symbol
 _atom_site_label
 _atom_site_symmetry_multiplicity
 _atom_site_fract_x
 _atom_site_fract_y
 _atom_site_fract_z
 _atom_site_occupancy
  Cr  Cr0  1  -0.00501672  0.99220349  -0.00570578  1
  Cr  Cr1  1  0.15960569  0.16325041  0.16015652  1
  Ni  Ni2  1  0.99029199  0.99274016  0.32775244  1
  Cr  Cr3  1  0.99278070  0.33179085  -0.00420168  1
  Ni  Ni4  1  0.16110105  0.49437961  0.16000780  1
  Cr  Cr5  1  0.99036928  0.32810411  0.32428968  1
  Cr  Cr6  1  0.99351037  0.65794616  0.99204187  1
  Cr  Cr7  1  0.15997664  0.82628003  0.16274781  1
  Cr  Cr8  1  -0.00531820  0.65889206  0.32503856  1
  Cr  Cr9  1  0.32879345  -0.00575308  -0.00559870  1
  Cr  Cr10  1  0.49565958  0.16137870  0.15741047  1
  Cr  Cr11  1  0.32859534  0.99293195  0.32799475  1
  Ni  Ni12  1  0.32497875  0.33034821  0.99336205  1
  Cr  Cr13  1  0.49204122  0.49436807  0.16223248  1
  Cr  Cr14  1  0.32917591  0.32552095  0.32795442  1
  Cr  Cr15  1  0.32376272  0.66132281  0.99337537  1
  Cr  Cr16  1  0.49710117  0.82591349  0.16145493  1
  Ni  Ni17  1  0.32775134  0.65975256  0.32597478  1
  Ni  Ni18  1  0.66072889  -0.00603817  0.99284652  1
  Cr  Cr19  1  0.82658461  0.15825952  0.16146762  1
  Ni  Ni20  1  0.66059893  -0.00288306  0.32937926  1
  Cr  Cr21  1  0.66299479  0.32815882  -0.00580057  1
  Ni  Ni22  1  0.82702522  0.49449695  0.16272048  1
  Ni  Ni23  1  0.66046553  0.32561856  0.32715674  1
  Cr  Cr24  1  0.66404188  0.65888494  -0.00603545  1
  Cr  Cr25  1  0.82509255  0.82900600  0.16260605  1
  Fe  Fe26  1  0.66069235  0.65960962  0.32611909  1
  Cr  Cr27  1  0.15874636  0.16117352  0.49482518  1
  Ni  Ni28  1  -0.00587069  0.99266673  0.66121735  1
  Cr  Cr29  1  0.16061777  0.16361376  0.82719093  1
  Cr  Cr30  1  0.16344996  0.49346761  0.49453431  1
  Cr  Cr31  1  0.99258098  0.32901448  0.66185709  1
  Ni  Ni32  1  0.16106202  0.49236612  0.82744812  1
  Cr  Cr33  1  0.15775225  0.82729433  0.49310643  1
  Cr  Cr34  1  0.99352278  0.66031741  0.66480385  1
  Fe  Fe35  1  0.15956339  0.82714100  0.82633621  1
  Ni  Ni36  1  0.49656800  0.16052028  0.49438637  1
  Cr  Cr37  1  0.32872591  -0.00493252  0.65922267  1
  Cr  Cr38  1  0.49354624  0.16184578  0.82896137  1
  Cr  Cr39  1  0.49241620  0.49288535  0.49222116  1
  Ni  Ni40  1  0.32844063  0.32578402  0.66083991  1
  Cr  Cr41  1  0.49057718  0.49254808  0.82709361  1
  Cr  Cr42  1  0.49684926  0.82490998  0.49101411  1
  Cr  Cr43  1  0.32591464  0.66190282  0.66188342  1
  Cr  Cr44  1  0.49642056  0.82750732  0.82915746  1
  Cr  Cr45  1  0.82789960  0.15771803  0.49350545  1
  Fe  Fe46  1  0.66008783  -0.00472482  0.65939283  1
  Cr  Cr47  1  0.82796699  0.15835946  0.82686135  1
  Cr  Cr48  1  0.82550618  0.49495953  0.49183082  1
  Cr  Cr49  1  0.65978412  0.32632878  0.65953536  1
  Ni  Ni50  1  0.83045805  0.49465507  0.82756245  1
  Cr  Cr51  1  0.82755954  0.82949090  0.49340395  1
  Cr  Cr52  1  0.66213660  0.65921001  0.66157780  1
  Cr  Cr53  1  0.82686312  0.83002370  0.82601342  1
" 