7573,Ni24Cr76_11,-230.891970822025, 155.813299565712,Ni24Cr76,"# generated using pymatgen
 data_Cr2Ni7
_symmetry_space_group_name_H-M   'P 1'
_cell_length_a   7.47737421
_cell_length_b   7.47737421
_cell_length_c   10.57460402
_cell_angle_alpha   90.00000000
_cell_angle_beta   90.00000000
_cell_angle_gamma   90.00000000
_symmetry_Int_Tables_number   1
_chemical_formula_structural   Cr2Ni7
_chemical_formula_sum   'Cr12 Ni42'
_cell_volume   591.23800853
_cell_formula_units_Z   6
loop_
 _symmetry_equiv_pos_site_id
 _symmetry_equiv_pos_as_xyz
  1  'x, y, z'
loop_
 _atom_site_type_symbol
 _atom_site_label
 _atom_site_symmetry_multiplicity
 _atom_site_fract_x
 _atom_site_fract_y
 _atom_site_fract_z
 _atom_site_occupancy
  Ni  Ni0  1  0.99882592  0.99918686  0.99743568  1
  Ni  Ni1  1  0.16699571  0.16876213  0.16639334  1
  Ni  Ni2  1  0.99915623  0.00102364  0.33445503  1
  Ni  Ni3  1  0.00224493  0.33434413  -0.00029076  1
  Ni  Ni4  1  0.16537097  0.49689423  0.16696304  1
  Ni  Ni5  1  0.00108430  0.33250517  0.33217840  1
  Ni  Ni6  1  0.99655915  0.66439751  0.99760636  1
  Cr  Cr7  1  0.16595849  0.83243753  0.16786180  1
  Ni  Ni8  1  0.00077959  0.66439987  0.33235324  1
  Cr  Cr9  1  0.33335150  0.00201255  0.99849202  1
  Ni  Ni10  1  0.49777858  0.16625192  0.16750755  1
  Ni  Ni11  1  0.33449830  0.00085387  0.33232211  1
  Ni  Ni12  1  0.33083516  0.33224508  -0.00052310  1
  Ni  Ni13  1  0.49835391  0.49835208  0.16679500  1
  Ni  Ni14  1  0.33239863  0.33250388  0.33207397  1
  Cr  Cr15  1  0.33375721  0.66390712  0.99889952  1
  Ni  Ni16  1  0.50011899  0.83332365  0.16679512  1
  Ni  Ni17  1  0.33287409  0.66456985  0.33278583  1
  Ni  Ni18  1  0.66541723  0.99617020  0.99885949  1
  Cr  Cr19  1  0.83307469  0.16659575  0.16682457  1
  Ni  Ni20  1  0.66427398  0.00054681  0.33407757  1
  Cr  Cr21  1  0.66452163  0.33450247  0.99930633  1
  Ni  Ni22  1  0.83420454  0.49923220  0.16543761  1
  Ni  Ni23  1  0.66444456  0.33087908  0.33288558  1
  Ni  Ni24  1  0.66751909  0.66724533  0.99849057  1
  Cr  Cr25  1  0.83218406  0.83218454  0.16470388  1
  Cr  Cr26  1  0.66452405  0.66625022  0.33238700  1
  Ni  Ni27  1  0.16559084  0.16706725  0.49924479  1
  Ni  Ni28  1  0.00114930  -0.00061824  0.66603717  1
  Ni  Ni29  1  0.16679329  0.16633407  0.83228984  1
  Ni  Ni30  1  0.16755087  0.49818214  0.49901208  1
  Ni  Ni31  1  0.00128624  0.33270598  0.66604029  1
  Ni  Ni32  1  0.16517083  0.49909133  0.83195355  1
  Cr  Cr33  1  0.16608279  0.83203306  0.49928831  1
  Ni  Ni34  1  0.00098127  0.66584163  0.66796892  1
  Ni  Ni35  1  0.16411945  0.83250344  0.83077535  1
  Ni  Ni36  1  0.49941385  0.16666888  0.49836427  1
  Ni  Ni37  1  0.33168497  0.00026323  0.66711639  1
  Ni  Ni38  1  0.49695939  0.16666832  0.83205642  1
  Ni  Ni39  1  0.49640295  0.49753285  0.49941377  1
  Ni  Ni40  1  0.33242807  0.33270458  0.66637751  1
  Ni  Ni41  1  0.49858355  0.49875506  0.83172043  1
  Ni  Ni42  1  0.49859806  0.83372677  0.49802627  1
  Ni  Ni43  1  0.33185292  0.66496019  0.66648378  1
  Ni  Ni44  1  0.49929895  0.83250444  0.83310745  1
  Ni  Ni45  1  0.83292398  0.16487476  0.49819535  1
  Cr  Cr46  1  0.66533741  -0.00028188  0.66475334  1
  Cr  Cr47  1  0.83368828  0.16610764  0.83265950  1
  Cr  Cr48  1  0.83389514  0.49729344  0.49948783  1
  Ni  Ni49  1  0.66421228  0.33287349  0.66573352  1
  Ni  Ni50  1  0.83417432  0.50143106  0.83324552  1
  Ni  Ni51  1  0.83357679  0.83568765  0.49839569  1
  Cr  Cr52  1  0.66533981  0.66534089  0.66705040  1
  Ni  Ni53  1  0.83451066  0.83088205  0.83483728  1
" 