962,Ni24Fe6Cr69_17,-210.991035481512, 154.475098711667,Ni24Fe6Cr69,"# generated using pymatgen
 data_Cr38Fe3Ni13
_symmetry_space_group_name_H-M   'P 1'
_cell_length_a   7.56833211
_cell_length_b   7.56833211
_cell_length_c   10.70323792
_cell_angle_alpha   90.00000000
_cell_angle_beta   90.00000000
_cell_angle_gamma   90.00000000
_symmetry_Int_Tables_number   1
_chemical_formula_structural   Cr38Fe3Ni13
_chemical_formula_sum   'Cr38 Fe3 Ni13'
_cell_volume   613.07773255
_cell_formula_units_Z   1
loop_
 _symmetry_equiv_pos_site_id
 _symmetry_equiv_pos_as_xyz
  1  'x, y, z'
loop_
 _atom_site_type_symbol
 _atom_site_label
 _atom_site_symmetry_multiplicity
 _atom_site_fract_x
 _atom_site_fract_y
 _atom_site_fract_z
 _atom_site_occupancy
  Ni  Ni0  1  0.99068442  -0.00317727  -0.00573678  1
  Cr  Cr1  1  0.15721081  0.16139081  0.15959419  1
  Cr  Cr2  1  0.99324872  -0.00649938  0.32757927  1
  Ni  Ni3  1  0.98934629  0.32234742  -0.00534403  1
  Cr  Cr4  1  0.15819676  0.49297406  0.16139732  1
  Ni  Ni5  1  0.99020270  0.32564232  0.32498175  1
  Cr  Cr6  1  0.99203357  0.66086576  0.99278105  1
  Cr  Cr7  1  0.16099656  0.82566596  0.15991393  1
  Cr  Cr8  1  0.99316212  0.66176872  0.32805558  1
  Cr  Cr9  1  0.32470742  -0.00587737  -0.00613341  1
  Cr  Cr10  1  0.49731180  0.15968124  0.15933825  1
  Cr  Cr11  1  0.32552408  0.99091530  0.32806027  1
  Cr  Cr12  1  0.32794787  0.32711938  0.99047056  1
  Cr  Cr13  1  0.49418121  0.49292154  0.16208663  1
  Cr  Cr14  1  0.32768601  0.32792473  0.32762592  1
  Cr  Cr15  1  0.32849352  0.65870143  0.99315831  1
  Cr  Cr16  1  0.49300261  0.82738412  0.15971813  1
  Ni  Ni17  1  0.32786513  0.66093361  0.32972592  1
  Fe  Fe18  1  0.66267497  -0.00405939  0.99326925  1
  Fe  Fe19  1  0.82690113  0.16205028  0.15884010  1
  Cr  Cr20  1  0.66128443  0.99266793  0.32754479  1
  Ni  Ni21  1  0.66210431  0.32527315  -0.00655065  1
  Cr  Cr22  1  0.82749054  0.48913222  0.16059668  1
  Ni  Ni23  1  0.66183505  0.32689528  0.32617069  1
  Cr  Cr24  1  0.65933507  0.65767672  0.99260130  1
  Cr  Cr25  1  0.82587943  0.82879864  0.15720047  1
  Cr  Cr26  1  0.65841872  0.65941017  0.32853280  1
  Cr  Cr27  1  0.15974209  0.16064756  0.49285057  1
  Cr  Cr28  1  0.99216170  0.99047420  0.65751234  1
  Cr  Cr29  1  0.15863900  0.16017955  0.82747006  1
  Cr  Cr30  1  0.15972591  0.49589044  0.49290564  1
  Cr  Cr31  1  -0.00641815  0.32718690  0.66054488  1
  Cr  Cr32  1  0.15937617  0.49471483  0.82567246  1
  Ni  Ni33  1  0.16190114  0.82253298  0.49408511  1
  Ni  Ni34  1  -0.00486204  0.66285713  0.65798937  1
  Cr  Cr35  1  0.15953649  0.82518742  0.82584538  1
  Cr  Cr36  1  0.49546124  0.15864391  0.49382340  1
  Cr  Cr37  1  0.32679568  0.99220399  0.65801835  1
  Cr  Cr38  1  0.49618751  0.15914063  0.82668376  1
  Fe  Fe39  1  0.49233816  0.49691853  0.49296205  1
  Cr  Cr40  1  0.32851397  0.32889126  0.66202093  1
  Ni  Ni41  1  0.49354158  0.49316444  0.82626566  1
  Ni  Ni42  1  0.49234045  0.82472497  0.49408972  1
  Ni  Ni43  1  0.32707789  0.66065495  0.65814004  1
  Cr  Cr44  1  0.49406817  0.82720451  0.82676990  1
  Cr  Cr45  1  0.82472023  0.16044679  0.49210649  1
  Ni  Ni46  1  0.66000179  0.99058694  0.65864193  1
  Cr  Cr47  1  0.82514075  0.15921253  0.82879969  1
  Cr  Cr48  1  0.82775908  0.49332045  0.49219014  1
  Cr  Cr49  1  0.65792351  0.32782054  0.66032003  1
  Cr  Cr50  1  0.82744020  0.49279653  0.82702820  1
  Ni  Ni51  1  0.82577192  0.82606233  0.49581767  1
  Cr  Cr52  1  0.65969970  0.66071865  0.65888177  1
  Cr  Cr53  1  0.82635845  0.82795751  0.82575404  1
" 