8058,Ni24Fe10Cr64_12,-213.26909848673, 160.904195330051,Ni24Fe10Cr64,"# generated using pymatgen
 data_Cr36Fe5Ni13
_symmetry_space_group_name_H-M   'P 1'
_cell_length_a   7.54523252
_cell_length_b   7.54523252
_cell_length_c   10.67057016
_cell_angle_alpha   90.00000000
_cell_angle_beta   90.00000000
_cell_angle_gamma   90.00000000
_symmetry_Int_Tables_number   1
_chemical_formula_structural   Cr36Fe5Ni13
_chemical_formula_sum   'Cr36 Fe5 Ni13'
_cell_volume   607.48125403
_cell_formula_units_Z   1
loop_
 _symmetry_equiv_pos_site_id
 _symmetry_equiv_pos_as_xyz
  1  'x, y, z'
loop_
 _atom_site_type_symbol
 _atom_site_label
 _atom_site_symmetry_multiplicity
 _atom_site_fract_x
 _atom_site_fract_y
 _atom_site_fract_z
 _atom_site_occupancy
  Ni  Ni0  1  -0.00358995  -0.00276395  0.99100489  1
  Cr  Cr1  1  0.16120220  0.16446474  0.16180505  1
  Cr  Cr2  1  -0.00140139  0.99369411  0.32727804  1
  Cr  Cr3  1  0.99266688  0.32974355  -0.00411094  1
  Ni  Ni4  1  0.16056565  0.49487028  0.16030749  1
  Fe  Fe5  1  -0.00469042  0.32984236  0.32740799  1
  Cr  Cr6  1  -0.00241555  0.66095312  0.99389441  1
  Cr  Cr7  1  0.16177261  0.82732886  0.15724587  1
  Cr  Cr8  1  0.99391281  0.65796755  0.32718419  1
  Cr  Cr9  1  0.32705958  0.99426154  0.99356728  1
  Cr  Cr10  1  0.49505886  0.16243419  0.16091063  1
  Cr  Cr11  1  0.33078827  0.99405174  0.33024458  1
  Fe  Fe12  1  0.32568134  0.32934740  0.99147503  1
  Cr  Cr13  1  0.49144187  0.49472615  0.15669382  1
  Cr  Cr14  1  0.32765371  0.32815588  0.32642030  1
  Ni  Ni15  1  0.32542523  0.65828491  0.99216317  1
  Cr  Cr16  1  0.49651980  0.82704920  0.16335680  1
  Cr  Cr17  1  0.32687381  0.66393305  0.32885472  1
  Cr  Cr18  1  0.66013630  -0.00200854  0.99253633  1
  Cr  Cr19  1  0.82892473  0.15984049  0.16116116  1
  Fe  Fe20  1  0.66259613  0.99397357  0.32978209  1
  Cr  Cr21  1  0.65989462  0.32758982  0.98999815  1
  Ni  Ni22  1  0.83011445  0.49317052  0.16409096  1
  Cr  Cr23  1  0.66460257  0.32984723  0.32772317  1
  Cr  Cr24  1  0.66100470  0.65746696  -0.00496087  1
  Cr  Cr25  1  0.82829921  0.82853710  0.15809750  1
  Cr  Cr26  1  0.66248855  0.66016563  0.32975949  1
  Cr  Cr27  1  0.16095487  0.16378065  0.49543647  1
  Ni  Ni28  1  0.99330752  -0.00435488  0.66523272  1
  Cr  Cr29  1  0.15909761  0.16309081  0.82676686  1
  Cr  Cr30  1  0.16351087  0.49353504  0.49632494  1
  Cr  Cr31  1  0.99438994  0.32863039  0.66054867  1
  Ni  Ni32  1  0.16712047  0.49679434  0.82783638  1
  Cr  Cr33  1  0.16034508  0.82732691  0.49926740  1
  Cr  Cr34  1  -0.00227886  0.66194569  0.66385289  1
  Ni  Ni35  1  0.16277428  0.82673115  0.82770043  1
  Cr  Cr36  1  0.49599237  0.16328838  0.49585806  1
  Cr  Cr37  1  0.32790346  -0.00493934  0.66115569  1
  Ni  Ni38  1  0.49421374  0.16353810  0.82582694  1
  Cr  Cr39  1  0.49252724  0.49530161  0.49939742  1
  Ni  Ni40  1  0.32841329  0.33014587  0.66585278  1
  Ni  Ni41  1  0.48779351  0.49243197  0.82807058  1
  Fe  Fe42  1  0.49475916  0.82844984  0.49772558  1
  Ni  Ni43  1  0.32791427  0.65996224  0.66439628  1
  Cr  Cr44  1  0.49532467  0.82435041  0.82654046  1
  Cr  Cr45  1  0.82946188  0.15996034  0.49569871  1
  Ni  Ni46  1  0.66143575  -0.00342226  0.66176937  1
  Ni  Ni47  1  0.82662909  0.15878910  0.82614011  1
  Fe  Fe48  1  0.82893336  0.49375429  0.49517716  1
  Cr  Cr49  1  0.66031704  0.32682078  0.66566535  1
  Cr  Cr50  1  0.82797914  0.49520434  0.82662027  1
  Cr  Cr51  1  0.82687877  0.82948744  0.49758199  1
  Cr  Cr52  1  0.66078932  0.66028010  0.66120218  1
  Cr  Cr53  1  0.83114728  0.83241093  0.82868470  1
" 