1267,Ni24Fe58Cr17_10,-230.184118587579, 184.945101088461,Ni24Fe58Cr17,"# generated using pymatgen
 data_Cr10Fe31Ni13
_symmetry_space_group_name_H-M   'P 1'
_cell_length_a   7.44877291
_cell_length_b   7.44877291
_cell_length_c   10.53415568
_cell_angle_alpha   90.00000000
_cell_angle_beta   90.00000000
_cell_angle_gamma   90.00000000
_symmetry_Int_Tables_number   1
_chemical_formula_structural   Cr10Fe31Ni13
_chemical_formula_sum   'Cr10 Fe31 Ni13'
_cell_volume   584.47938920
_cell_formula_units_Z   1
loop_
 _symmetry_equiv_pos_site_id
 _symmetry_equiv_pos_as_xyz
  1  'x, y, z'
loop_
 _atom_site_type_symbol
 _atom_site_label
 _atom_site_symmetry_multiplicity
 _atom_site_fract_x
 _atom_site_fract_y
 _atom_site_fract_z
 _atom_site_occupancy
  Fe  Fe0  1  0.00146671  0.00238904  1.00120692  1
  Ni  Ni1  1  0.16722113  0.16738734  0.16788371  1
  Cr  Cr2  1  0.00149867  0.00447150  0.33419581  1
  Fe  Fe3  1  0.99864688  0.33369325  0.00208563  1
  Fe  Fe4  1  0.16393101  0.50077803  0.16854993  1
  Ni  Ni5  1  0.00198587  0.33532245  0.33297078  1
  Fe  Fe6  1  0.00304751  0.66759745  1.00106520  1
  Ni  Ni7  1  0.16817777  0.83550768  0.16622192  1
  Fe  Fe8  1  1.00051960  0.66501883  0.33427478  1
  Fe  Fe9  1  0.33399322  1.00026397  1.00118406  1
  Fe  Fe10  1  0.50249094  0.16640830  0.16844417  1
  Fe  Fe11  1  0.33510123  0.00308328  0.33458919  1
  Cr  Cr12  1  0.33240824  0.33473983  1.00106064  1
  Cr  Cr13  1  0.50254079  0.49967564  0.16874047  1
  Fe  Fe14  1  0.33392288  0.33273110  0.33547675  1
  Fe  Fe15  1  0.33213430  0.67000285  1.00011451  1
  Cr  Cr16  1  0.50010779  0.83673618  0.16872742  1
  Cr  Cr17  1  0.33436309  0.66769253  0.33444775  1
  Ni  Ni18  1  0.66865356  0.00335699  1.00036797  1
  Ni  Ni19  1  0.83476691  0.17032313  0.16699609  1
  Ni  Ni20  1  0.66613438  0.00253955  0.33442042  1
  Fe  Fe21  1  0.67061611  0.33184299  1.00076564  1
  Ni  Ni22  1  0.83635177  0.49836409  0.16944553  1
  Fe  Fe23  1  0.66940006  0.33424784  0.33484930  1
  Cr  Cr24  1  0.66771099  0.66878861  0.99942059  1
  Cr  Cr25  1  0.83559015  0.83481982  0.16795396  1
  Ni  Ni26  1  0.66774338  0.66714217  0.33644877  1
  Fe  Fe27  1  0.16933891  0.16919458  0.50052131  1
  Fe  Fe28  1  1.00077207  1.00016229  0.66873560  1
  Fe  Fe29  1  0.16739398  0.16671934  0.83496726  1
  Ni  Ni30  1  0.16871093  0.49998583  0.50006734  1
  Cr  Cr31  1  0.00205636  0.33362088  0.66767777  1
  Fe  Fe32  1  0.16677852  0.50134882  0.83468428  1
  Fe  Fe33  1  0.16905705  0.83410504  0.50147748  1
  Fe  Fe34  1  0.99994067  0.66884280  0.66834116  1
  Fe  Fe35  1  0.16675326  0.83560959  0.83576864  1
  Fe  Fe36  1  0.50128635  0.16814290  0.50129962  1
  Fe  Fe37  1  0.33530326  0.00211551  0.66790508  1
  Fe  Fe38  1  0.50292886  0.16666626  0.83393655  1
  Ni  Ni39  1  0.50158296  0.49962929  0.50238574  1
  Fe  Fe40  1  0.33685207  0.33391200  0.66750344  1
  Fe  Fe41  1  0.50251780  0.50036988  0.83332434  1
  Fe  Fe42  1  0.50190963  0.83480006  0.50106747  1
  Cr  Cr43  1  0.33602538  0.66698130  0.66848115  1
  Fe  Fe44  1  0.50260093  0.83664470  0.83447982  1
  Fe  Fe45  1  0.83305661  0.16981216  0.50104928  1
  Ni  Ni46  1  0.66763333  1.00085644  0.66889246  1
  Ni  Ni47  1  0.83345546  0.16647799  0.83532665  1
  Fe  Fe48  1  0.83376085  0.50100513  0.49977936  1
  Fe  Fe49  1  0.66640641  0.33475214  0.66807398  1
  Fe  Fe50  1  0.83438230  0.50101618  0.83482158  1
  Cr  Cr51  1  0.83378007  0.83395912  0.50197498  1
  Ni  Ni52  1  0.66710827  0.66856019  0.66833873  1
  Fe  Fe53  1  0.83432415  0.83602650  0.83345238  1
" 