4987,Ni24Fe10Cr64_4,-213.032187228431, 162.963937863006,Ni24Fe10Cr64,"# generated using pymatgen
 data_Cr36Fe5Ni13
_symmetry_space_group_name_H-M   'P 1'
_cell_length_a   7.54848437
_cell_length_b   7.54848437
_cell_length_c   10.67516897
_cell_angle_alpha   90.00000000
_cell_angle_beta   90.00000000
_cell_angle_gamma   90.00000000
_symmetry_Int_Tables_number   1
_chemical_formula_structural   Cr36Fe5Ni13
_chemical_formula_sum   'Cr36 Fe5 Ni13'
_cell_volume   608.26703177
_cell_formula_units_Z   1
loop_
 _symmetry_equiv_pos_site_id
 _symmetry_equiv_pos_as_xyz
  1  'x, y, z'
loop_
 _atom_site_type_symbol
 _atom_site_label
 _atom_site_symmetry_multiplicity
 _atom_site_fract_x
 _atom_site_fract_y
 _atom_site_fract_z
 _atom_site_occupancy
  Cr  Cr0  1  0.99413831  -0.00405312  -0.00338772  1
  Ni  Ni1  1  0.16275833  0.16145040  0.15845592  1
  Cr  Cr2  1  0.99282220  -0.00220026  0.32374037  1
  Cr  Cr3  1  -0.00447542  0.32659908  -0.00271435  1
  Cr  Cr4  1  0.16372778  0.49593134  0.16171475  1
  Cr  Cr5  1  -0.00341178  0.32681077  0.32555021  1
  Cr  Cr6  1  0.99122654  0.66218393  0.99161986  1
  Cr  Cr7  1  0.16277297  0.82891806  0.16092066  1
  Cr  Cr8  1  -0.00343954  0.65891617  0.32886521  1
  Ni  Ni9  1  0.32926028  -0.00340348  0.99301755  1
  Cr  Cr10  1  0.49558796  0.16235632  0.15857246  1
  Cr  Cr11  1  0.33012799  -0.00483017  0.32817408  1
  Ni  Ni12  1  0.32865971  0.32527775  -0.00382245  1
  Cr  Cr13  1  0.49558627  0.49406749  0.15901705  1
  Cr  Cr14  1  0.32628960  0.33018482  0.32943486  1
  Cr  Cr15  1  0.33028965  0.66294040  0.99448360  1
  Cr  Cr16  1  0.49426569  0.82733608  0.16154844  1
  Fe  Fe17  1  0.32942329  0.66166250  0.33053301  1
  Cr  Cr18  1  0.66167415  0.99178179  -0.00498321  1
  Ni  Ni19  1  0.82662331  0.16211744  0.16214322  1
  Ni  Ni20  1  0.65954316  0.99399925  0.32809288  1
  Ni  Ni21  1  0.66161930  0.32847849  0.99329983  1
  Cr  Cr22  1  0.82487219  0.49455035  0.15808715  1
  Cr  Cr23  1  0.66108517  0.32651263  0.32952627  1
  Ni  Ni24  1  0.66107829  0.66130134  0.99096461  1
  Cr  Cr25  1  0.82673937  0.82724342  0.16306576  1
  Cr  Cr26  1  0.65802776  0.66335606  0.32936417  1
  Cr  Cr27  1  0.16046625  0.15820891  0.49783116  1
  Ni  Ni28  1  0.99269045  0.99240595  0.66236430  1
  Cr  Cr29  1  0.16334776  0.15931154  0.82766162  1
  Fe  Fe30  1  0.16200870  0.49616164  0.49528544  1
  Cr  Cr31  1  -0.00455640  0.32928704  0.66080233  1
  Cr  Cr32  1  0.16116425  0.49514952  0.82804759  1
  Cr  Cr33  1  0.16013529  0.82727300  0.49619339  1
  Ni  Ni34  1  0.99336497  0.66289854  0.66267267  1
  Cr  Cr35  1  0.16055571  0.82937936  0.82607925  1
  Cr  Cr36  1  0.49618356  0.16116590  0.49729495  1
  Fe  Fe37  1  0.32843570  0.99124615  0.66213139  1
  Cr  Cr38  1  0.49386731  0.16156637  0.82836269  1
  Ni  Ni39  1  0.49366356  0.49649614  0.49408755  1
  Cr  Cr40  1  0.32909326  0.32910717  0.65946512  1
  Cr  Cr41  1  0.49666732  0.49184221  0.83201510  1
  Ni  Ni42  1  0.49328292  0.82614935  0.49344445  1
  Cr  Cr43  1  0.33042773  0.66097069  0.65831537  1
  Ni  Ni44  1  0.49580680  0.82768533  0.82915860  1
  Cr  Cr45  1  0.82717339  0.16021130  0.49455628  1
  Cr  Cr46  1  0.65940134  0.99123510  0.66070648  1
  Cr  Cr47  1  0.82658961  0.16234131  0.82551244  1
  Cr  Cr48  1  0.82725443  0.49523967  0.49744412  1
  Fe  Fe49  1  0.66124366  0.33007247  0.66157722  1
  Fe  Fe50  1  0.82697774  0.49615154  0.82821569  1
  Cr  Cr51  1  0.82916787  0.82896585  0.49357971  1
  Cr  Cr52  1  0.66014717  0.66236096  0.66407467  1
  Ni  Ni53  1  0.82727783  0.82633883  0.82654693  1
" 