438,Ni24Fe6Cr69_7,-211.530379455596, 163.538850875978,Ni24Fe6Cr69,"# generated using pymatgen
 data_Cr38Fe3Ni13
_symmetry_space_group_name_H-M   'P 1'
_cell_length_a   7.55335323
_cell_length_b   7.55335323
_cell_length_c   10.68205458
_cell_angle_alpha   90.00000000
_cell_angle_beta   90.00000000
_cell_angle_gamma   90.00000000
_symmetry_Int_Tables_number   1
_chemical_formula_structural   Cr38Fe3Ni13
_chemical_formula_sum   'Cr38 Fe3 Ni13'
_cell_volume   609.44480847
_cell_formula_units_Z   1
loop_
 _symmetry_equiv_pos_site_id
 _symmetry_equiv_pos_as_xyz
  1  'x, y, z'
loop_
 _atom_site_type_symbol
 _atom_site_label
 _atom_site_symmetry_multiplicity
 _atom_site_fract_x
 _atom_site_fract_y
 _atom_site_fract_z
 _atom_site_occupancy
  Cr  Cr0  1  0.99229372  -0.00384129  0.99217358  1
  Cr  Cr1  1  0.16046830  0.16152211  0.15921836  1
  Cr  Cr2  1  0.99386115  0.99312836  0.32867513  1
  Ni  Ni3  1  0.99049093  0.32395670  0.99188084  1
  Cr  Cr4  1  0.16002841  0.49319409  0.15865687  1
  Cr  Cr5  1  0.99159342  0.32702844  0.32751207  1
  Cr  Cr6  1  0.99248634  0.66129315  -0.00178831  1
  Fe  Fe7  1  0.16015704  0.82961705  0.16081763  1
  Cr  Cr8  1  0.99370421  0.66276879  0.32641505  1
  Cr  Cr9  1  0.33059057  0.99287413  0.99397980  1
  Cr  Cr10  1  0.49690317  0.15965621  0.16317982  1
  Cr  Cr11  1  0.32842328  0.99199194  0.32638861  1
  Cr  Cr12  1  0.32752223  0.32552553  0.99248954  1
  Cr  Cr13  1  0.49554644  0.49206495  0.16038525  1
  Cr  Cr14  1  0.32858328  0.32723811  0.32926866  1
  Cr  Cr15  1  0.33057491  0.66433373  -0.00398419  1
  Ni  Ni16  1  0.49905831  0.83043162  0.16009669  1
  Cr  Cr17  1  0.32835140  0.66351265  0.32540746  1
  Ni  Ni18  1  0.66138970  -0.00550714  -0.00397944  1
  Cr  Cr19  1  0.82584260  0.15943558  0.16002813  1
  Fe  Fe20  1  0.66167031  0.99278831  0.32549184  1
  Ni  Ni21  1  0.66451142  0.32380622  0.99320277  1
  Cr  Cr22  1  0.82698585  0.49315088  0.15951184  1
  Ni  Ni23  1  0.66147582  0.32640184  0.32756179  1
  Cr  Cr24  1  0.65970389  0.66336525  0.99347101  1
  Ni  Ni25  1  0.82409929  0.83028073  0.16130691  1
  Cr  Cr26  1  0.66101930  0.66117592  0.32693668  1
  Cr  Cr27  1  0.16189182  0.15907221  0.49656740  1
  Ni  Ni28  1  -0.00504486  -0.00391809  0.66135050  1
  Ni  Ni29  1  0.15829800  0.16155653  0.82620950  1
  Cr  Cr30  1  0.16241117  0.49522304  0.49503996  1
  Cr  Cr31  1  0.99253324  0.32365440  0.66297309  1
  Cr  Cr32  1  0.16039877  0.49251332  0.82951135  1
  Ni  Ni33  1  0.16006095  0.82959794  0.49447605  1
  Cr  Cr34  1  0.99261755  0.66220339  0.65824882  1
  Cr  Cr35  1  0.16028692  0.82942567  0.82642878  1
  Cr  Cr36  1  0.49610405  0.16175315  0.49140377  1
  Cr  Cr37  1  0.32658227  -0.00426607  0.66216738  1
  Cr  Cr38  1  0.49514559  0.16069544  0.82864724  1
  Cr  Cr39  1  0.49567116  0.49235198  0.49718851  1
  Ni  Ni40  1  0.32933884  0.32539479  0.66195193  1
  Cr  Cr41  1  0.49572082  0.49441094  0.82531040  1
  Cr  Cr42  1  0.49559538  0.82881005  0.49584700  1
  Cr  Cr43  1  0.32985566  0.66221341  0.66160248  1
  Ni  Ni44  1  0.49804358  0.82964222  0.82819386  1
  Cr  Cr45  1  0.82485958  0.15944902  0.49369365  1
  Cr  Cr46  1  0.66210930  -0.00446699  0.66284766  1
  Fe  Fe47  1  0.82654593  0.16077210  0.82855741  1
  Cr  Cr48  1  0.82462137  0.49419680  0.49488163  1
  Ni  Ni49  1  0.65992197  0.32781347  0.66141836  1
  Cr  Cr50  1  0.82657479  0.49394672  0.82829992  1
  Cr  Cr51  1  0.82807209  0.82894869  0.49617800  1
  Ni  Ni52  1  0.65977639  0.65996573  0.66237162  1
  Cr  Cr53  1  0.82616680  0.82934066  0.82582374  1
" 