205,Ni24Fe58Cr17_18,-229.479116475663, 177.635412338229,Ni24Fe58Cr17,"# generated using pymatgen
 data_Cr10Fe31Ni13
_symmetry_space_group_name_H-M   'P 1'
_cell_length_a   7.44632925
_cell_length_b   7.44632925
_cell_length_c   10.53069981
_cell_angle_alpha   90.00000000
_cell_angle_beta   90.00000000
_cell_angle_gamma   90.00000000
_symmetry_Int_Tables_number   1
_chemical_formula_structural   Cr10Fe31Ni13
_chemical_formula_sum   'Cr10 Fe31 Ni13'
_cell_volume   583.90433974
_cell_formula_units_Z   1
loop_
 _symmetry_equiv_pos_site_id
 _symmetry_equiv_pos_as_xyz
  1  'x, y, z'
loop_
 _atom_site_type_symbol
 _atom_site_label
 _atom_site_symmetry_multiplicity
 _atom_site_fract_x
 _atom_site_fract_y
 _atom_site_fract_z
 _atom_site_occupancy
  Fe  Fe0  1  0.00255243  0.00346695  0.00224827  1
  Ni  Ni1  1  0.16852525  0.16696010  0.16671461  1
  Ni  Ni2  1  0.00467817  0.99978024  0.33525418  1
  Fe  Fe3  1  0.00236147  0.33272723  0.00231162  1
  Cr  Cr4  1  0.16875435  0.50089905  0.16853072  1
  Cr  Cr5  1  1.00115220  0.33453711  0.33398622  1
  Cr  Cr6  1  1.00002245  0.66769508  1.00092162  1
  Fe  Fe7  1  0.16919489  0.83745316  0.16908097  1
  Ni  Ni8  1  1.00131712  0.66972076  0.33692392  1
  Ni  Ni9  1  0.33415933  0.00190931  0.00268027  1
  Fe  Fe10  1  0.49961938  0.16717009  0.16689167  1
  Fe  Fe11  1  0.33315149  1.00090123  0.33423039  1
  Ni  Ni12  1  0.33330228  0.33282260  1.00119710  1
  Fe  Fe13  1  0.50234760  0.50266191  0.16779721  1
  Fe  Fe14  1  0.33502261  0.33389250  0.33555058  1
  Fe  Fe15  1  0.33809183  0.66938065  1.00085722  1
  Ni  Ni16  1  0.50025530  0.83399927  0.16681828  1
  Fe  Fe17  1  0.33525493  0.66937937  0.33521863  1
  Ni  Ni18  1  0.66620212  0.99918781  0.00169954  1
  Ni  Ni19  1  0.83659986  0.16802683  0.16662412  1
  Cr  Cr20  1  0.66700589  1.00133576  0.33492981  1
  Cr  Cr21  1  0.66817538  0.33640401  0.00493397  1
  Ni  Ni22  1  0.83364191  0.50146304  0.16807286  1
  Cr  Cr23  1  0.66696322  0.33625915  0.33322932  1
  Ni  Ni24  1  0.66717996  0.66878863  1.00076995  1
  Cr  Cr25  1  0.83345496  0.83465653  0.16817749  1
  Ni  Ni26  1  0.66807994  0.66699470  0.33486080  1
  Fe  Fe27  1  0.16869184  0.16807810  0.50101147  1
  Fe  Fe28  1  1.00123057  1.00125115  0.66696212  1
  Fe  Fe29  1  0.16821466  0.16902590  0.83607807  1
  Fe  Fe30  1  0.16927343  0.50152485  0.50204023  1
  Fe  Fe31  1  0.00263601  0.33522321  0.66739367  1
  Fe  Fe32  1  0.16923290  0.49986646  0.83407203  1
  Fe  Fe33  1  0.16724954  0.83457284  0.50027304  1
  Fe  Fe34  1  0.00211733  0.66769839  0.66781703  1
  Fe  Fe35  1  0.16816185  0.83528188  0.83482380  1
  Ni  Ni36  1  0.50067447  0.16886040  0.50203668  1
  Cr  Cr37  1  0.33450840  0.00208509  0.66734978  1
  Cr  Cr38  1  0.50041050  0.16767371  0.83538413  1
  Fe  Fe39  1  0.50069123  0.50135178  0.50214952  1
  Ni  Ni40  1  0.33417194  0.33588528  0.66706652  1
  Fe  Fe41  1  0.50058447  0.50284210  0.83422734  1
  Fe  Fe42  1  0.50173533  0.83376215  0.50069751  1
  Fe  Fe43  1  0.33462596  0.66629533  0.66809842  1
  Fe  Fe44  1  0.50257530  0.83322585  0.83670373  1
  Fe  Fe45  1  0.83501807  0.16703197  0.50287936  1
  Fe  Fe46  1  0.66856206  1.00100560  0.66683264  1
  Cr  Cr47  1  0.83592317  0.16666374  0.83456660  1
  Fe  Fe48  1  0.83420748  0.50279681  0.50166116  1
  Fe  Fe49  1  0.66715692  0.33546775  0.66640367  1
  Fe  Fe50  1  0.83435241  0.50289475  0.83413824  1
  Fe  Fe51  1  0.83519049  0.83434572  0.50120539  1
  Fe  Fe52  1  0.66743019  0.66769896  0.66814733  1
  Fe  Fe53  1  0.83343086  0.83424085  0.83459290  1
" 