6683,Ni24Fe50Cr24_3,-227.890806806485, 185.3319115059,Ni24Fe50Cr24,"# generated using pymatgen
 data_Cr14Fe27Ni13
_symmetry_space_group_name_H-M   'P 1'
_cell_length_a   7.45738311
_cell_length_b   7.45738311
_cell_length_c   10.54633233
_cell_angle_alpha   90.00000000
_cell_angle_beta   90.00000000
_cell_angle_gamma   90.00000000
_symmetry_Int_Tables_number   1
_chemical_formula_structural   Cr14Fe27Ni13
_chemical_formula_sum   'Cr14 Fe27 Ni13'
_cell_volume   586.50856888
_cell_formula_units_Z   1
loop_
 _symmetry_equiv_pos_site_id
 _symmetry_equiv_pos_as_xyz
  1  'x, y, z'
loop_
 _atom_site_type_symbol
 _atom_site_label
 _atom_site_symmetry_multiplicity
 _atom_site_fract_x
 _atom_site_fract_y
 _atom_site_fract_z
 _atom_site_occupancy
  Fe  Fe0  1  0.99951804  0.00084529  0.00071980  1
  Ni  Ni1  1  0.16567580  0.16827207  0.16797333  1
  Fe  Fe2  1  1.00046265  0.00075211  0.33371647  1
  Fe  Fe3  1  0.00317630  0.33454589  0.99955431  1
  Fe  Fe4  1  0.16604956  0.50028216  0.16631603  1
  Ni  Ni5  1  0.00514401  0.33479354  0.33265518  1
  Fe  Fe6  1  0.00156026  0.66632472  0.00150808  1
  Ni  Ni7  1  0.16559570  0.83384335  0.16670908  1
  Cr  Cr8  1  1.00031802  0.66813344  0.33385742  1
  Cr  Cr9  1  0.33309798  0.00250746  0.00110445  1
  Fe  Fe10  1  0.49881018  0.16623409  0.16858460  1
  Cr  Cr11  1  0.33231215  0.00124536  0.33481601  1
  Fe  Fe12  1  0.33153885  0.33485296  0.00082441  1
  Cr  Cr13  1  0.49801424  0.50062962  0.16993043  1
  Ni  Ni14  1  0.33124753  0.33262129  0.33421510  1
  Fe  Fe15  1  0.33248785  0.66487864  1.00063261  1
  Cr  Cr16  1  0.50045839  0.83255231  0.16822219  1
  Fe  Fe17  1  0.33373129  0.66573746  0.33584412  1
  Fe  Fe18  1  0.66869134  1.00044348  1.00025968  1
  Cr  Cr19  1  0.83485322  0.16668066  0.16897730  1
  Ni  Ni20  1  0.66593011  0.99772805  0.33402192  1
  Cr  Cr21  1  0.66709365  0.33453404  0.99984253  1
  Fe  Fe22  1  0.83727354  0.50231985  0.16728945  1
  Cr  Cr23  1  0.66591448  0.33517842  0.33308531  1
  Cr  Cr24  1  0.66972835  0.66691559  0.00066315  1
  Ni  Ni25  1  0.83531142  0.83528017  0.16791376  1
  Ni  Ni26  1  0.66813528  0.66983805  0.33434946  1
  Fe  Fe27  1  0.16878163  0.16974909  0.50000022  1
  Cr  Cr28  1  0.00378874  0.99981045  0.66584122  1
  Ni  Ni29  1  0.16876315  0.16855894  0.83352869  1
  Fe  Fe30  1  0.17022264  0.49905306  0.50067383  1
  Cr  Cr31  1  0.00155000  0.33473923  0.66852821  1
  Ni  Ni32  1  0.16763957  0.50002360  0.83478131  1
  Fe  Fe33  1  0.16873979  0.83306990  0.50109198  1
  Fe  Fe34  1  0.99903115  0.66603000  0.66782363  1
  Cr  Cr35  1  0.16857994  0.83241776  0.83425492  1
  Ni  Ni36  1  0.49986496  0.16724368  0.50105721  1
  Fe  Fe37  1  0.33735970  0.00210810  0.66690944  1
  Fe  Fe38  1  0.49957549  0.16852874  0.83159793  1
  Fe  Fe39  1  0.49932539  0.50023910  0.50087010  1
  Fe  Fe40  1  0.33563020  0.33414480  0.66698316  1
  Fe  Fe41  1  0.49819493  0.50096740  0.83250379  1
  Fe  Fe42  1  0.50287930  0.83328324  0.50109348  1
  Fe  Fe43  1  0.33463806  0.66540645  0.66687524  1
  Fe  Fe44  1  0.50150166  0.83307598  0.83265535  1
  Cr  Cr45  1  0.83282599  0.16720425  0.49871333  1
  Fe  Fe46  1  0.66576322  0.00100543  0.66701704  1
  Fe  Fe47  1  0.83515167  0.16760390  0.83389056  1
  Cr  Cr48  1  0.83290525  0.50057743  0.50011795  1
  Ni  Ni49  1  0.66497849  0.33605738  0.66918301  1
  Ni  Ni50  1  0.83410136  0.50112829  0.83333668  1
  Fe  Fe51  1  0.83052936  0.83433422  0.50016944  1
  Ni  Ni52  1  0.66625192  0.66724433  0.66822701  1
  Fe  Fe53  1  0.83428725  0.83341627  0.83368010  1
" 