1207,Ni24Cr76_7,-230.690731729483, 150.697973957706,Ni24Cr76,"# generated using pymatgen
 data_Cr2Ni7
_symmetry_space_group_name_H-M   'P 1'
_cell_length_a   7.48033381
_cell_length_b   7.48033381
_cell_length_c   10.57878952
_cell_angle_alpha   90.00000000
_cell_angle_beta   90.00000000
_cell_angle_gamma   90.00000000
_symmetry_Int_Tables_number   1
_chemical_formula_structural   Cr2Ni7
_chemical_formula_sum   'Cr12 Ni42'
_cell_volume   591.94033380
_cell_formula_units_Z   6
loop_
 _symmetry_equiv_pos_site_id
 _symmetry_equiv_pos_as_xyz
  1  'x, y, z'
loop_
 _atom_site_type_symbol
 _atom_site_label
 _atom_site_symmetry_multiplicity
 _atom_site_fract_x
 _atom_site_fract_y
 _atom_site_fract_z
 _atom_site_occupancy
  Ni  Ni0  1  0.99787271  0.00045542  0.99839474  1
  Ni  Ni1  1  0.16183231  0.16760259  0.16597876  1
  Ni  Ni2  1  0.99588603  0.00235381  0.33364803  1
  Ni  Ni3  1  0.99743657  0.33218621  -0.00069498  1
  Ni  Ni4  1  0.16351318  0.49562817  0.16563706  1
  Ni  Ni5  1  -0.00088606  0.33054157  0.33205058  1
  Ni  Ni6  1  0.99791858  0.66470656  0.99798348  1
  Cr  Cr7  1  0.16322336  0.83504404  0.16372205  1
  Cr  Cr8  1  0.99664621  0.66457648  0.33322272  1
  Ni  Ni9  1  0.33252219  -0.00061021  0.99683162  1
  Cr  Cr10  1  0.50135476  0.16578534  0.16533815  1
  Cr  Cr11  1  0.33211510  0.00175379  0.33390564  1
  Cr  Cr12  1  0.33004359  0.33025584  0.00044011  1
  Ni  Ni13  1  0.50151413  0.49874793  0.16841195  1
  Ni  Ni14  1  0.33131051  0.33317498  0.33317618  1
  Cr  Cr15  1  0.33087707  0.66654934  -0.00034115  1
  Ni  Ni16  1  0.50287841  0.83242984  0.16554033  1
  Cr  Cr17  1  0.33457434  0.66306672  0.33279789  1
  Ni  Ni18  1  0.66694235  -0.00011516  0.99840801  1
  Ni  Ni19  1  0.83416463  0.16588677  0.16576961  1
  Ni  Ni20  1  0.66848201  0.99829234  0.33295807  1
  Ni  Ni21  1  0.66972940  0.33017923  0.99869244  1
  Ni  Ni22  1  0.83229942  0.49724813  0.16536665  1
  Ni  Ni23  1  0.66689718  0.33314833  0.33341044  1
  Cr  Cr24  1  0.66839340  0.66656370  0.00005249  1
  Ni  Ni25  1  0.83081575  0.83415432  0.16594698  1
  Ni  Ni26  1  0.66597113  0.66587468  0.33226932  1
  Ni  Ni27  1  0.16466014  0.16657631  0.49959847  1
  Ni  Ni28  1  0.00103942  0.00126116  0.66530765  1
  Ni  Ni29  1  0.16466364  0.16441819  0.83181046  1
  Ni  Ni30  1  0.16688144  0.49637814  0.50012142  1
  Ni  Ni31  1  -0.00056041  0.33068430  0.66598016  1
  Ni  Ni32  1  0.16294971  0.49848185  0.83174973  1
  Ni  Ni33  1  0.16566907  0.83447250  0.50164890  1
  Cr  Cr34  1  -0.00034292  0.66564145  0.66621967  1
  Ni  Ni35  1  0.16554548  0.83436968  0.83225303  1
  Ni  Ni36  1  0.49922076  0.16795817  0.49955186  1
  Ni  Ni37  1  0.33098936  -0.00036818  0.66639534  1
  Ni  Ni38  1  0.49924602  0.16398667  0.83245614  1
  Ni  Ni39  1  0.49921787  0.49724248  0.49868199  1
  Ni  Ni40  1  0.33113712  0.33111297  0.66437881  1
  Cr  Cr41  1  0.49960499  0.49656401  0.82991080  1
  Ni  Ni42  1  0.49893481  0.83221662  0.49887894  1
  Ni  Ni43  1  0.33131103  0.66662572  0.66478121  1
  Ni  Ni44  1  0.49680072  0.83613620  0.83288510  1
  Ni  Ni45  1  0.83343492  0.16682259  0.49799018  1
  Cr  Cr46  1  0.66653325  0.00109830  0.66601059  1
  Ni  Ni47  1  0.83348976  0.16677541  0.83354183  1
  Ni  Ni48  1  0.83120063  0.49608970  0.49835141  1
  Ni  Ni49  1  0.66681014  0.33120086  0.66521785  1
  Ni  Ni50  1  0.83531089  0.49595880  0.83357897  1
  Ni  Ni51  1  0.83273555  0.83447733  0.49649845  1
  Cr  Cr52  1  0.66621880  0.66579533  0.66447274  1
  Ni  Ni53  1  0.83501350  0.83458664  0.83485507  1
" 