5763,Ni24Fe10Cr64_13,-212.722885640934, 159.484104991105,Ni24Fe10Cr64,"# generated using pymatgen
 data_Cr36Fe5Ni13
_symmetry_space_group_name_H-M   'P 1'
_cell_length_a   7.55853207
_cell_length_b   7.55853207
_cell_length_c   10.68937856
_cell_angle_alpha   90.00000000
_cell_angle_beta   90.00000000
_cell_angle_gamma   90.00000000
_symmetry_Int_Tables_number   1
_chemical_formula_structural   Cr36Fe5Ni13
_chemical_formula_sum   'Cr36 Fe5 Ni13'
_cell_volume   610.69923788
_cell_formula_units_Z   1
loop_
 _symmetry_equiv_pos_site_id
 _symmetry_equiv_pos_as_xyz
  1  'x, y, z'
loop_
 _atom_site_type_symbol
 _atom_site_label
 _atom_site_symmetry_multiplicity
 _atom_site_fract_x
 _atom_site_fract_y
 _atom_site_fract_z
 _atom_site_occupancy
  Cr  Cr0  1  -0.00438815  0.99353812  0.99322555  1
  Cr  Cr1  1  0.15959046  0.15936892  0.16439969  1
  Ni  Ni2  1  -0.00434008  0.99200313  0.32894395  1
  Cr  Cr3  1  -0.00528739  0.32707701  -0.00519221  1
  Cr  Cr4  1  0.16014386  0.49771699  0.16146072  1
  Ni  Ni5  1  -0.00549641  0.32657177  0.32739074  1
  Ni  Ni6  1  -0.00353321  0.66251407  -0.00530518  1
  Fe  Fe7  1  0.16141481  0.82551993  0.16229940  1
  Ni  Ni8  1  -0.00448351  0.66344702  0.32731315  1
  Cr  Cr9  1  0.32617931  0.99237674  -0.00328247  1
  Cr  Cr10  1  0.49388449  0.15724582  0.16100902  1
  Ni  Ni11  1  0.32477149  0.98982807  0.32533886  1
  Cr  Cr12  1  0.32826622  0.32845679  0.99276634  1
  Ni  Ni13  1  0.49050069  0.49919199  0.16027117  1
  Cr  Cr14  1  0.32817870  0.32708277  0.32686114  1
  Ni  Ni15  1  0.32833963  0.66122707  -0.00431021  1
  Ni  Ni16  1  0.49055249  0.82438904  0.16089427  1
  Ni  Ni17  1  0.32633696  0.66365017  0.32387584  1
  Fe  Fe18  1  0.65945789  0.99174042  -0.00502294  1
  Cr  Cr19  1  0.82821688  0.15922475  0.16082325  1
  Cr  Cr20  1  0.66069399  0.99179101  0.32658943  1
  Cr  Cr21  1  0.65920102  0.32859556  -0.00399475  1
  Cr  Cr22  1  0.83031051  0.49557521  0.16227081  1
  Cr  Cr23  1  0.66071515  0.32922693  0.32530167  1
  Cr  Cr24  1  0.65912318  0.65915710  -0.00542576  1
  Cr  Cr25  1  0.82838746  0.82671241  0.15991163  1
  Cr  Cr26  1  0.66023830  0.66085021  0.32875952  1
  Cr  Cr27  1  0.16008480  0.16125787  0.49344327  1
  Fe  Fe28  1  0.99195376  0.99334083  0.65893452  1
  Cr  Cr29  1  0.15987359  0.16135262  0.82394964  1
  Cr  Cr30  1  0.16016027  0.49429258  0.49245811  1
  Ni  Ni31  1  0.99294631  0.32533666  0.66067786  1
  Cr  Cr32  1  0.16121998  0.49507106  0.82786596  1
  Cr  Cr33  1  0.16053241  0.82620712  0.49020870  1
  Cr  Cr34  1  0.99284188  0.66155964  0.65989414  1
  Cr  Cr35  1  0.16055674  0.82524521  0.82985723  1
  Cr  Cr36  1  0.49401086  0.15944354  0.49538274  1
  Cr  Cr37  1  0.32529534  0.99384853  0.65981420  1
  Cr  Cr38  1  0.49568754  0.16009148  0.82555318  1
  Cr  Cr39  1  0.49163271  0.49388310  0.49446736  1
  Fe  Fe40  1  0.32735851  0.32842167  0.66119308  1
  Ni  Ni41  1  0.49310746  0.49348999  0.82675402  1
  Cr  Cr42  1  0.49387013  0.82860231  0.49247632  1
  Cr  Cr43  1  0.32791311  0.66031662  0.66193217  1
  Cr  Cr44  1  0.49450125  0.82709633  0.82877562  1
  Cr  Cr45  1  0.82740029  0.15992220  0.49397207  1
  Ni  Ni46  1  0.66261664  -0.00476906  0.66054868  1
  Cr  Cr47  1  0.82572516  0.15928112  0.82719339  1
  Cr  Cr48  1  0.83040328  0.49414035  0.49160695  1
  Fe  Fe49  1  0.66142792  0.32809447  0.66110124  1
  Cr  Cr50  1  0.82803891  0.49399823  0.82826924  1
  Ni  Ni51  1  0.82926478  0.82969505  0.49412759  1
  Cr  Cr52  1  0.66138540  0.66149846  0.65843668  1
  Cr  Cr53  1  0.82642255  0.82840936  0.82713977  1
" 