1992,Ni24Fe50Cr24_2,-228.012042182956, 184.212310909451,Ni24Fe50Cr24,"# generated using pymatgen
 data_Cr14Fe27Ni13
_symmetry_space_group_name_H-M   'P 1'
_cell_length_a   7.46305544
_cell_length_b   7.46305544
_cell_length_c   10.55435422
_cell_angle_alpha   90.00000000
_cell_angle_beta   90.00000000
_cell_angle_gamma   90.00000000
_symmetry_Int_Tables_number   1
_chemical_formula_structural   Cr14Fe27Ni13
_chemical_formula_sum   'Cr14 Fe27 Ni13'
_cell_volume   587.84794069
_cell_formula_units_Z   1
loop_
 _symmetry_equiv_pos_site_id
 _symmetry_equiv_pos_as_xyz
  1  'x, y, z'
loop_
 _atom_site_type_symbol
 _atom_site_label
 _atom_site_symmetry_multiplicity
 _atom_site_fract_x
 _atom_site_fract_y
 _atom_site_fract_z
 _atom_site_occupancy
  Cr  Cr0  1  0.99957508  0.99920400  0.99694859  1
  Cr  Cr1  1  0.17010115  0.16867306  0.16597985  1
  Cr  Cr2  1  0.99737322  0.99954009  0.33228286  1
  Cr  Cr3  1  0.99959494  0.33412420  0.99823643  1
  Ni  Ni4  1  0.16795541  0.50134610  0.16882588  1
  Ni  Ni5  1  0.00033514  0.33374068  0.33390614  1
  Fe  Fe6  1  0.00064810  0.66592995  1.00004561  1
  Fe  Fe7  1  0.16741759  0.83064502  0.16575690  1
  Fe  Fe8  1  0.00119017  0.66433461  0.33307940  1
  Fe  Fe9  1  0.33507473  0.99983010  0.99863954  1
  Fe  Fe10  1  0.50028461  0.16814584  0.16617290  1
  Fe  Fe11  1  0.33605971  1.00007664  0.33334447  1
  Fe  Fe12  1  0.33582209  0.33610125  0.99948158  1
  Fe  Fe13  1  0.49800251  0.50084996  0.16505192  1
  Ni  Ni14  1  0.33464592  0.33649496  0.33256161  1
  Ni  Ni15  1  0.33401868  0.66556383  0.00027562  1
  Fe  Fe16  1  0.49683453  0.83231284  0.16671506  1
  Ni  Ni17  1  0.33317073  0.66705610  0.33412097  1
  Cr  Cr18  1  0.66753101  0.00092989  0.00259065  1
  Fe  Fe19  1  0.83379065  0.16864269  0.16631340  1
  Fe  Fe20  1  0.66393484  0.00033201  0.33265011  1
  Ni  Ni21  1  0.66531144  0.33398260  0.99927177  1
  Fe  Fe22  1  0.83507243  0.50052253  0.16578320  1
  Cr  Cr23  1  0.66654630  0.33255526  0.33247870  1
  Fe  Fe24  1  0.66695234  0.66491688  0.00100969  1
  Ni  Ni25  1  0.83254402  0.83095292  0.16725095  1
  Cr  Cr26  1  0.66380854  0.66739797  0.33271261  1
  Cr  Cr27  1  0.16903587  0.16726419  0.50055779  1
  Cr  Cr28  1  0.99974527  0.99999128  0.67125588  1
  Fe  Fe29  1  0.16967464  0.16842916  0.83475684  1
  Fe  Fe30  1  0.16705251  0.50091228  0.49744970  1
  Cr  Cr31  1  0.99980152  0.33391277  0.66899123  1
  Ni  Ni32  1  0.16757419  0.50318125  0.83546579  1
  Fe  Fe33  1  0.16823957  0.83297977  0.49945747  1
  Cr  Cr34  1  0.00208727  0.66683652  0.66719492  1
  Ni  Ni35  1  0.16909134  0.83313782  0.83506680  1
  Fe  Fe36  1  0.50022720  0.16710019  0.50009458  1
  Fe  Fe37  1  0.33378841  0.99973218  0.66889033  1
  Ni  Ni38  1  0.50059138  0.16672707  0.83390548  1
  Fe  Fe39  1  0.49974285  0.49951309  0.49977130  1
  Cr  Cr40  1  0.33524991  0.33675706  0.66990269  1
  Ni  Ni41  1  0.50263558  0.50016097  0.83496713  1
  Fe  Fe42  1  0.49862460  0.83474644  0.49922135  1
  Cr  Cr43  1  0.33553086  0.66615723  0.66630436  1
  Fe  Fe44  1  0.50000784  0.83190287  0.83504545  1
  Fe  Fe45  1  0.83263935  0.16805706  0.50051904  1
  Cr  Cr46  1  0.66673218  0.99982776  0.66652600  1
  Ni  Ni47  1  0.82951167  0.16872367  0.83326416  1
  Fe  Fe48  1  0.83366913  0.49966627  0.50038370  1
  Fe  Fe49  1  0.66660209  0.33567624  0.66880135  1
  Ni  Ni50  1  0.83102010  0.50126728  0.83395790  1
  Fe  Fe51  1  0.83320757  0.83293846  0.49917464  1
  Fe  Fe52  1  0.66739067  0.66456506  0.66683672  1
  Fe  Fe53  1  0.83137349  0.83007703  0.83519396  1
" 