6356,Ni24Fe10Cr64_5,-213.188179924309, 163.667399012256,Ni24Fe10Cr64,"# generated using pymatgen
 data_Cr36Fe5Ni13
_symmetry_space_group_name_H-M   'P 1'
_cell_length_a   7.54789230
_cell_length_b   7.54789230
_cell_length_c   10.67433165
_cell_angle_alpha   90.00000000
_cell_angle_beta   90.00000000
_cell_angle_gamma   90.00000000
_symmetry_Int_Tables_number   1
_chemical_formula_structural   Cr36Fe5Ni13
_chemical_formula_sum   'Cr36 Fe5 Ni13'
_cell_volume   608.12391241
_cell_formula_units_Z   1
loop_
 _symmetry_equiv_pos_site_id
 _symmetry_equiv_pos_as_xyz
  1  'x, y, z'
loop_
 _atom_site_type_symbol
 _atom_site_label
 _atom_site_symmetry_multiplicity
 _atom_site_fract_x
 _atom_site_fract_y
 _atom_site_fract_z
 _atom_site_occupancy
  Cr  Cr0  1  0.99286476  -0.00496732  0.99408832  1
  Cr  Cr1  1  0.15665701  0.15999848  0.16383314  1
  Ni  Ni2  1  -0.00495005  0.99420330  0.32788528  1
  Fe  Fe3  1  0.99196023  0.32656432  0.99239326  1
  Cr  Cr4  1  0.16042044  0.49627771  0.15769708  1
  Cr  Cr5  1  0.99381293  0.32756259  0.32800283  1
  Cr  Cr6  1  0.99410956  0.66173666  0.99252914  1
  Ni  Ni7  1  0.16168610  0.83007661  0.15944789  1
  Cr  Cr8  1  0.99352844  0.66280885  0.33097110  1
  Cr  Cr9  1  0.32781909  -0.00473902  0.99403580  1
  Cr  Cr10  1  0.49752261  0.16100303  0.16269771  1
  Cr  Cr11  1  0.32641588  0.99454838  0.32970711  1
  Cr  Cr12  1  0.32826137  0.32627755  -0.00509532  1
  Cr  Cr13  1  0.49573088  0.49625926  0.16157659  1
  Cr  Cr14  1  0.32864143  0.32670295  0.33033025  1
  Fe  Fe15  1  0.32836746  0.66432189  -0.00416687  1
  Ni  Ni16  1  0.49249762  0.82889732  0.15994139  1
  Cr  Cr17  1  0.32803224  0.66309427  0.32564995  1
  Cr  Cr18  1  0.66247097  -0.00364569  0.99295799  1
  Fe  Fe19  1  0.82822316  0.16028907  0.16303942  1
  Cr  Cr20  1  0.66176872  0.99355441  0.32697045  1
  Cr  Cr21  1  0.66406163  0.32605811  0.99307925  1
  Cr  Cr22  1  0.82803271  0.49193020  0.16220180  1
  Ni  Ni23  1  0.66436563  0.32798709  0.32826690  1
  Cr  Cr24  1  0.66382846  0.66182500  0.99443413  1
  Cr  Cr25  1  0.82862534  0.83037194  0.16414304  1
  Cr  Cr26  1  0.66246876  0.66059122  0.33142528  1
  Ni  Ni27  1  0.15668862  0.16068503  0.49491247  1
  Cr  Cr28  1  0.99293939  0.99387693  0.66147961  1
  Cr  Cr29  1  0.15944189  0.16179519  0.82518633  1
  Cr  Cr30  1  0.15789223  0.49144500  0.49657261  1
  Ni  Ni31  1  0.98979451  0.32803170  0.66255961  1
  Cr  Cr32  1  0.15956885  0.49467054  0.82922224  1
  Cr  Cr33  1  0.15935203  0.83117544  0.49481487  1
  Cr  Cr34  1  0.99078470  0.66036581  0.66099908  1
  Fe  Fe35  1  0.15976711  0.82771226  0.82844124  1
  Cr  Cr36  1  0.49684691  0.16105171  0.49633661  1
  Cr  Cr37  1  0.32835521  -0.00416978  0.66030861  1
  Ni  Ni38  1  0.49662287  0.16220647  0.82629229  1
  Cr  Cr39  1  0.49856194  0.49404574  0.49488106  1
  Cr  Cr40  1  0.32777781  0.32554362  0.65910954  1
  Cr  Cr41  1  0.49636630  0.49366735  0.82748202  1
  Ni  Ni42  1  0.49782360  0.82893863  0.49405816  1
  Cr  Cr43  1  0.32744966  0.66282174  0.66121585  1
  Cr  Cr44  1  0.49517505  0.82848890  0.82874065  1
  Cr  Cr45  1  0.82942428  0.16100433  0.49338112  1
  Cr  Cr46  1  0.66210835  0.99441847  0.66427722  1
  Fe  Fe47  1  0.82682356  0.16358867  0.82610159  1
  Ni  Ni48  1  0.82703191  0.49188642  0.49671888  1
  Ni  Ni49  1  0.66593692  0.32844032  0.66381748  1
  Ni  Ni50  1  0.82965639  0.49303665  0.82611398  1
  Ni  Ni51  1  0.82695470  0.82830133  0.49361139  1
  Cr  Cr52  1  0.66512516  0.66112896  0.65860685  1
  Ni  Ni53  1  0.82931249  0.82706019  0.82752156  1
" 