3727,Ni24Fe58Cr17_16,-230.269279820584, 185.126054142433,Ni24Fe58Cr17,"# generated using pymatgen
 data_Cr10Fe31Ni13
_symmetry_space_group_name_H-M   'P 1'
_cell_length_a   7.44764026
_cell_length_b   7.44764026
_cell_length_c   10.53255387
_cell_angle_alpha   90.00000000
_cell_angle_beta   90.00000000
_cell_angle_gamma   90.00000000
_symmetry_Int_Tables_number   1
_chemical_formula_structural   Cr10Fe31Ni13
_chemical_formula_sum   'Cr10 Fe31 Ni13'
_cell_volume   584.21280433
_cell_formula_units_Z   1
loop_
 _symmetry_equiv_pos_site_id
 _symmetry_equiv_pos_as_xyz
  1  'x, y, z'
loop_
 _atom_site_type_symbol
 _atom_site_label
 _atom_site_symmetry_multiplicity
 _atom_site_fract_x
 _atom_site_fract_y
 _atom_site_fract_z
 _atom_site_occupancy
  Cr  Cr0  1  1.00108905  0.99888444  0.00243347  1
  Ni  Ni1  1  0.17079968  0.16870739  0.16902276  1
  Fe  Fe2  1  0.00135412  1.00074790  0.33517316  1
  Cr  Cr3  1  0.00224369  0.33563793  1.00056197  1
  Fe  Fe4  1  0.16927812  0.50189213  0.16852920  1
  Ni  Ni5  1  0.00453900  0.33443606  0.33654742  1
  Ni  Ni6  1  0.00135391  0.66878736  1.00108839  1
  Fe  Fe7  1  0.16697655  0.83392813  0.16796444  1
  Ni  Ni8  1  0.00265105  0.66847357  0.33428111  1
  Ni  Ni9  1  0.33624940  1.00102109  0.00157133  1
  Fe  Fe10  1  0.49990677  0.16865080  0.16751536  1
  Fe  Fe11  1  0.33352515  0.00206621  0.33482814  1
  Fe  Fe12  1  0.33664989  0.33532892  0.00340309  1
  Fe  Fe13  1  0.49966374  0.49972956  0.16738117  1
  Fe  Fe14  1  0.33377279  0.33438756  0.33453951  1
  Ni  Ni15  1  0.33543034  0.66769579  1.00020644  1
  Cr  Cr16  1  0.50187230  0.83529309  0.16711859  1
  Fe  Fe17  1  0.33374081  0.66745656  0.33519037  1
  Ni  Ni18  1  0.66623829  1.00024247  0.99973671  1
  Cr  Cr19  1  0.83423713  0.16732555  0.16919084  1
  Ni  Ni20  1  0.66789335  1.00116193  0.33685855  1
  Fe  Fe21  1  0.66568078  0.33565411  1.00057094  1
  Cr  Cr22  1  0.83502283  0.50386283  0.16822170  1
  Fe  Fe23  1  0.66705891  0.33394474  0.33527537  1
  Ni  Ni24  1  0.66712399  0.66841210  0.99990345  1
  Fe  Fe25  1  0.83552832  0.83417197  0.16889106  1
  Fe  Fe26  1  0.66837372  0.66918892  0.33597652  1
  Fe  Fe27  1  0.16691756  0.16687493  0.50020386  1
  Fe  Fe28  1  1.00011629  1.00025505  0.66725521  1
  Cr  Cr29  1  0.16776608  0.16646922  0.83496133  1
  Fe  Fe30  1  0.16802541  0.50290864  0.50028849  1
  Fe  Fe31  1  0.99890877  0.33434808  0.66709062  1
  Cr  Cr32  1  0.16639515  0.50356133  0.83553898  1
  Fe  Fe33  1  0.16755368  0.83412536  0.50112077  1
  Fe  Fe34  1  1.00065080  0.66930514  0.66768271  1
  Fe  Fe35  1  0.16965279  0.83388623  0.83482276  1
  Fe  Fe36  1  0.50289311  0.16616453  0.50054143  1
  Fe  Fe37  1  0.33554366  0.99777333  0.66719399  1
  Cr  Cr38  1  0.50250717  0.16485655  0.83780480  1
  Fe  Fe39  1  0.50139945  0.50323056  0.50103446  1
  Cr  Cr40  1  0.33499932  0.33564294  0.66565854  1
  Fe  Fe41  1  0.50337834  0.50433049  0.83548510  1
  Ni  Ni42  1  0.50151934  0.83523920  0.50221042  1
  Fe  Fe43  1  0.33644926  0.67034710  0.66777182  1
  Ni  Ni44  1  0.50201675  0.83358829  0.83440325  1
  Fe  Fe45  1  0.83409987  0.16569996  0.50066424  1
  Fe  Fe46  1  0.66824570  0.99951601  0.66695854  1
  Fe  Fe47  1  0.83274673  0.16755107  0.83366150  1
  Cr  Cr48  1  0.83562883  0.50138308  0.50123336  1
  Fe  Fe49  1  0.66928994  0.33525586  0.66807237  1
  Fe  Fe50  1  0.83198663  0.50276459  0.83421561  1
  Ni  Ni51  1  0.83318036  0.83524374  0.50004276  1
  Ni  Ni52  1  0.66712087  0.66935466  0.66841122  1
  Fe  Fe53  1  0.83311209  0.83359261  0.83404844  1
" 