6389,Ni24Fe6Cr69_3,-211.092989774498, 153.943422921668,Ni24Fe6Cr69,"# generated using pymatgen
 data_Cr38Fe3Ni13
_symmetry_space_group_name_H-M   'P 1'
_cell_length_a   7.56176804
_cell_length_b   7.56176804
_cell_length_c   10.69395491
_cell_angle_alpha   90.00000000
_cell_angle_beta   90.00000000
_cell_angle_gamma   90.00000000
_symmetry_Int_Tables_number   1
_chemical_formula_structural   Cr38Fe3Ni13
_chemical_formula_sum   'Cr38 Fe3 Ni13'
_cell_volume   611.48393323
_cell_formula_units_Z   1
loop_
 _symmetry_equiv_pos_site_id
 _symmetry_equiv_pos_as_xyz
  1  'x, y, z'
loop_
 _atom_site_type_symbol
 _atom_site_label
 _atom_site_symmetry_multiplicity
 _atom_site_fract_x
 _atom_site_fract_y
 _atom_site_fract_z
 _atom_site_occupancy
  Cr  Cr0  1  -0.00446628  -0.00452824  -0.00445176  1
  Ni  Ni1  1  0.16062336  0.16010198  0.16301970  1
  Ni  Ni2  1  0.99027838  -0.00619110  0.32622521  1
  Cr  Cr3  1  -0.00452160  0.32491782  0.99211868  1
  Cr  Cr4  1  0.16106808  0.49104681  0.16295633  1
  Cr  Cr5  1  0.99215527  0.32387313  0.32696952  1
  Cr  Cr6  1  -0.00611348  0.66016419  0.99337624  1
  Cr  Cr7  1  0.15849643  0.82907990  0.16369434  1
  Ni  Ni8  1  0.99213441  0.66332405  0.32608212  1
  Cr  Cr9  1  0.32639399  -0.00445110  0.99350814  1
  Cr  Cr10  1  0.49383324  0.15942596  0.16051456  1
  Cr  Cr11  1  0.32844903  -0.00412090  0.32640084  1
  Cr  Cr12  1  0.32515215  0.32409107  0.99320277  1
  Cr  Cr13  1  0.49199990  0.49260263  0.16209402  1
  Ni  Ni14  1  0.32667436  0.32317163  0.32858214  1
  Cr  Cr15  1  0.32683763  0.66165068  -0.00605817  1
  Ni  Ni16  1  0.49828829  0.83121487  0.16033389  1
  Cr  Cr17  1  0.32838252  0.66205255  0.32643260  1
  Ni  Ni18  1  0.65946989  0.99326769  -0.00536951  1
  Cr  Cr19  1  0.82733802  0.15667848  0.16067525  1
  Ni  Ni20  1  0.66203765  -0.00513549  0.32827647  1
  Cr  Cr21  1  0.66039865  0.32499511  -0.00561345  1
  Cr  Cr22  1  0.82819564  0.49435092  0.16039788  1
  Cr  Cr23  1  0.65933344  0.32358965  0.32901178  1
  Cr  Cr24  1  0.66049295  0.66153828  -0.00316511  1
  Ni  Ni25  1  0.82455049  0.83089334  0.16240114  1
  Cr  Cr26  1  0.66162173  0.66183306  0.32597206  1
  Cr  Cr27  1  0.15990068  0.16058181  0.49168664  1
  Cr  Cr28  1  -0.00604111  -0.00302908  0.65937183  1
  Ni  Ni29  1  0.16164139  0.16477228  0.82494210  1
  Cr  Cr30  1  0.16080565  0.49283973  0.49314182  1
  Fe  Fe31  1  -0.00525140  0.32437590  0.66041804  1
  Ni  Ni32  1  0.16207412  0.48704181  0.82388695  1
  Cr  Cr33  1  0.15854034  0.82733186  0.49132135  1
  Cr  Cr34  1  -0.00581521  0.65858106  0.66165662  1
  Cr  Cr35  1  0.16038829  0.82780138  0.82593172  1
  Ni  Ni36  1  0.49548848  0.15957353  0.49455823  1
  Cr  Cr37  1  0.32770470  -0.00303731  0.66106695  1
  Fe  Fe38  1  0.49349376  0.16036196  0.82625088  1
  Cr  Cr39  1  0.49096942  0.49045191  0.49228857  1
  Fe  Fe40  1  0.32690089  0.32453599  0.65992172  1
  Cr  Cr41  1  0.49256920  0.49180481  0.82721572  1
  Cr  Cr42  1  0.49517921  0.83066194  0.49461497  1
  Cr  Cr43  1  0.32662261  0.66035634  0.66098141  1
  Cr  Cr44  1  0.49624577  0.83021250  0.82732371  1
  Ni  Ni45  1  0.82501530  0.15749189  0.49336175  1
  Ni  Ni46  1  0.65944357  0.00027344  0.65921273  1
  Cr  Cr47  1  0.82561734  0.15852965  0.82693228  1
  Cr  Cr48  1  0.82948637  0.49202989  0.49344980  1
  Cr  Cr49  1  0.66088438  0.32528369  0.65772439  1
  Cr  Cr50  1  0.82803204  0.49179228  0.82700047  1
  Cr  Cr51  1  0.82745880  0.83059906  0.49330195  1
  Cr  Cr52  1  0.66043219  0.66093764  0.65916909  1
  Cr  Cr53  1  0.82490096  0.83019892  0.82747250  1
" 