8898,Ni24Fe6Cr69_14,-211.544215033437, 162.911778493889,Ni24Fe6Cr69,"# generated using pymatgen
 data_Cr38Fe3Ni13
_symmetry_space_group_name_H-M   'P 1'
_cell_length_a   7.55542928
_cell_length_b   7.55542928
_cell_length_c   10.68499056
_cell_angle_alpha   90.00000000
_cell_angle_beta   90.00000000
_cell_angle_gamma   90.00000000
_symmetry_Int_Tables_number   1
_chemical_formula_structural   Cr38Fe3Ni13
_chemical_formula_sum   'Cr38 Fe3 Ni13'
_cell_volume   609.94746742
_cell_formula_units_Z   1
loop_
 _symmetry_equiv_pos_site_id
 _symmetry_equiv_pos_as_xyz
  1  'x, y, z'
loop_
 _atom_site_type_symbol
 _atom_site_label
 _atom_site_symmetry_multiplicity
 _atom_site_fract_x
 _atom_site_fract_y
 _atom_site_fract_z
 _atom_site_occupancy
  Cr  Cr0  1  -0.00331698  -0.00525636  -0.00471105  1
  Fe  Fe1  1  0.16114293  0.16021249  0.16155261  1
  Ni  Ni2  1  -0.00188281  0.99064720  0.32667661  1
  Fe  Fe3  1  -0.00249724  0.32671598  -0.00571641  1
  Cr  Cr4  1  0.16145920  0.49455115  0.16189719  1
  Cr  Cr5  1  -0.00404363  0.32783818  0.32831489  1
  Cr  Cr6  1  -0.00468885  0.66262955  -0.00516109  1
  Ni  Ni7  1  0.15938058  0.82798590  0.16452758  1
  Ni  Ni8  1  -0.00016723  0.66403475  0.32889424  1
  Cr  Cr9  1  0.32406852  -0.00521656  -0.00539818  1
  Cr  Cr10  1  0.49214231  0.16183231  0.16184386  1
  Cr  Cr11  1  0.32505035  0.99243562  0.32843045  1
  Ni  Ni12  1  0.32413393  0.32568095  0.99294924  1
  Cr  Cr13  1  0.49107166  0.49363942  0.16053103  1
  Cr  Cr14  1  0.32663668  0.32812729  0.33116187  1
  Cr  Cr15  1  0.32642513  0.66029858  -0.00542986  1
  Cr  Cr16  1  0.48993705  0.82687787  0.16114709  1
  Ni  Ni17  1  0.32080771  0.66205958  0.32808145  1
  Cr  Cr18  1  0.66171217  0.99311568  -0.00455713  1
  Cr  Cr19  1  0.83026503  0.16110027  0.16202327  1
  Cr  Cr20  1  0.66155605  -0.00492300  0.32751638  1
  Cr  Cr21  1  0.66031780  0.32828415  0.99339850  1
  Cr  Cr22  1  0.83046726  0.49377920  0.16139982  1
  Cr  Cr23  1  0.66044537  0.32665622  0.33136002  1
  Cr  Cr24  1  0.66081101  0.66062305  0.99161874  1
  Cr  Cr25  1  0.83019174  0.82761098  0.16278868  1
  Cr  Cr26  1  0.66095968  0.66093115  0.32657633  1
  Cr  Cr27  1  0.16041893  0.15793886  0.49593511  1
  Ni  Ni28  1  -0.00152843  0.99196973  0.66018324  1
  Fe  Fe29  1  0.16186964  0.16041932  0.82606501  1
  Ni  Ni30  1  0.15969503  0.49891168  0.49312276  1
  Cr  Cr31  1  -0.00371718  0.32862919  0.66083678  1
  Cr  Cr32  1  0.16163925  0.49269366  0.82795985  1
  Ni  Ni33  1  0.15916002  0.82613000  0.49400828  1
  Ni  Ni34  1  -0.00486306  0.66291197  0.65833100  1
  Cr  Cr35  1  0.16040835  0.82857772  0.82345808  1
  Ni  Ni36  1  0.49157126  0.15896438  0.49528526  1
  Ni  Ni37  1  0.32335214  -0.00561311  0.65945857  1
  Cr  Cr38  1  0.49123729  0.16059239  0.82631147  1
  Cr  Cr39  1  0.49148285  0.49581751  0.49323632  1
  Cr  Cr40  1  0.32727605  0.32711428  0.65912903  1
  Ni  Ni41  1  0.49257776  0.49187118  0.82799428  1
  Cr  Cr42  1  0.49022329  0.82840450  0.49492372  1
  Cr  Cr43  1  0.32588119  0.66055138  0.65958022  1
  Cr  Cr44  1  0.49268249  0.82683616  0.82581170  1
  Cr  Cr45  1  0.82877379  0.15823859  0.49368222  1
  Cr  Cr46  1  0.65982408  -0.00557757  0.65954871  1
  Cr  Cr47  1  0.83142746  0.16025502  0.82699096  1
  Cr  Cr48  1  0.83133321  0.49718454  0.49436859  1
  Cr  Cr49  1  0.65998321  0.32909505  0.65776990  1
  Cr  Cr50  1  0.82907372  0.49488818  0.82648618  1
  Cr  Cr51  1  0.83134541  0.82750982  0.49553287  1
  Ni  Ni52  1  0.66155113  0.65962083  0.66301758  1
  Cr  Cr53  1  0.82909595  0.82795337  0.82341641  1
" 