4426,Ni24Fe50Cr24_19,-228.380440208096, 190.283080269822,Ni24Fe50Cr24,"# generated using pymatgen
 data_Cr14Fe27Ni13
_symmetry_space_group_name_H-M   'P 1'
_cell_length_a   7.45743998
_cell_length_b   7.45743998
_cell_length_c   10.54641276
_cell_angle_alpha   90.00000000
_cell_angle_beta   90.00000000
_cell_angle_gamma   90.00000000
_symmetry_Int_Tables_number   1
_chemical_formula_structural   Cr14Fe27Ni13
_chemical_formula_sum   'Cr14 Fe27 Ni13'
_cell_volume   586.52198741
_cell_formula_units_Z   1
loop_
 _symmetry_equiv_pos_site_id
 _symmetry_equiv_pos_as_xyz
  1  'x, y, z'
loop_
 _atom_site_type_symbol
 _atom_site_label
 _atom_site_symmetry_multiplicity
 _atom_site_fract_x
 _atom_site_fract_y
 _atom_site_fract_z
 _atom_site_occupancy
  Cr  Cr0  1  0.99929080  1.00023945  0.00119013  1
  Ni  Ni1  1  0.16525112  0.16700849  0.16833000  1
  Ni  Ni2  1  0.00123360  0.99977482  0.33410930  1
  Fe  Fe3  1  0.99916974  0.33128253  0.00127221  1
  Fe  Fe4  1  0.16712627  0.50047804  0.16665892  1
  Ni  Ni5  1  0.00088707  0.33276902  0.33375441  1
  Fe  Fe6  1  0.99916941  0.66779174  0.00205619  1
  Ni  Ni7  1  0.16774985  0.83335887  0.16970033  1
  Fe  Fe8  1  0.00332104  0.66916473  0.33388900  1
  Cr  Cr9  1  0.33314944  0.00110731  0.00136521  1
  Fe  Fe10  1  0.50199293  0.16779560  0.16684642  1
  Ni  Ni11  1  0.33272599  0.99962938  0.33424971  1
  Fe  Fe12  1  0.33352461  0.33317378  0.00289248  1
  Fe  Fe13  1  0.49954102  0.49896178  0.16598736  1
  Cr  Cr14  1  0.33424854  0.33386854  0.33433617  1
  Fe  Fe15  1  0.33490618  0.66716220  0.00230116  1
  Cr  Cr16  1  0.49991223  0.83462817  0.16748980  1
  Fe  Fe17  1  0.33190308  0.66932773  0.33508764  1
  Ni  Ni18  1  0.66930098  0.00068656  1.00028483  1
  Ni  Ni19  1  0.83372744  0.16849427  0.16904742  1
  Fe  Fe20  1  0.66793668  0.00188196  0.33405230  1
  Ni  Ni21  1  0.66832939  0.33458500  0.00163672  1
  Cr  Cr22  1  0.83382383  0.49887084  0.16708880  1
  Fe  Fe23  1  0.66802962  0.33085500  0.33348195  1
  Fe  Fe24  1  0.66832419  0.66959724  1.00019133  1
  Fe  Fe25  1  0.83579972  0.83663884  0.16839282  1
  Fe  Fe26  1  0.66661975  0.66887917  0.33502522  1
  Fe  Fe27  1  0.16549645  0.16416679  0.49825651  1
  Fe  Fe28  1  0.99859365  1.00042483  0.66623522  1
  Ni  Ni29  1  0.16341610  0.16791344  0.83420238  1
  Fe  Fe30  1  0.16771130  0.50386904  0.49978590  1
  Cr  Cr31  1  0.00071638  0.33260246  0.66818416  1
  Cr  Cr32  1  0.16582336  0.50049843  0.83597221  1
  Ni  Ni33  1  0.16848453  0.83408590  0.49964948  1
  Fe  Fe34  1  1.00029072  0.66960544  0.66592171  1
  Cr  Cr35  1  0.16921535  0.83373278  0.83290626  1
  Fe  Fe36  1  0.50166833  0.16367777  0.49886089  1
  Cr  Cr37  1  0.33349635  1.00013753  0.66723823  1
  Cr  Cr38  1  0.50234984  0.16503398  0.83661000  1
  Fe  Fe39  1  0.49959171  0.50454538  0.49971931  1
  Cr  Cr40  1  0.33349694  0.33373769  0.66513444  1
  Cr  Cr41  1  0.50174707  0.50346425  0.83511530  1
  Ni  Ni42  1  0.49967088  0.83397924  0.50079086  1
  Fe  Fe43  1  0.33511834  0.66778471  0.66489388  1
  Ni  Ni44  1  0.50355349  0.83234292  0.83316832  1
  Fe  Fe45  1  0.83466563  0.16286364  0.49851656  1
  Fe  Fe46  1  0.66930437  0.99868706  0.66757148  1
  Ni  Ni47  1  0.83422032  0.16798277  0.83425283  1
  Cr  Cr48  1  0.83486612  0.49887312  0.49914565  1
  Cr  Cr49  1  0.66756474  0.33452998  0.66589185  1
  Fe  Fe50  1  0.83368215  0.50129225  0.83596300  1
  Fe  Fe51  1  0.83432959  0.83539319  0.50018772  1
  Fe  Fe52  1  0.66689410  0.67075285  0.66652023  1
  Fe  Fe53  1  0.83182253  0.83479636  0.83337267  1
" 