739,Ni24Cr76_1,-230.642481991574, 151.507991872445,Ni24Cr76,"# generated using pymatgen
 data_Cr2Ni7
_symmetry_space_group_name_H-M   'P 1'
_cell_length_a   7.48127725
_cell_length_b   7.48127725
_cell_length_c   10.58012375
_cell_angle_alpha   90.00000000
_cell_angle_beta   90.00000000
_cell_angle_gamma   90.00000000
_symmetry_Int_Tables_number   1
_chemical_formula_structural   Cr2Ni7
_chemical_formula_sum   'Cr12 Ni42'
_cell_volume   592.16433376
_cell_formula_units_Z   6
loop_
 _symmetry_equiv_pos_site_id
 _symmetry_equiv_pos_as_xyz
  1  'x, y, z'
loop_
 _atom_site_type_symbol
 _atom_site_label
 _atom_site_symmetry_multiplicity
 _atom_site_fract_x
 _atom_site_fract_y
 _atom_site_fract_z
 _atom_site_occupancy
  Ni  Ni0  1  0.99824439  0.99839894  -0.00028780  1
  Ni  Ni1  1  0.16776267  0.16645710  0.16477015  1
  Cr  Cr2  1  0.00081882  0.99864519  0.33436000  1
  Ni  Ni3  1  -0.00073078  0.33292383  0.00002618  1
  Ni  Ni4  1  0.16573826  0.49940644  0.16529934  1
  Ni  Ni5  1  -0.00088751  0.33355901  0.33274364  1
  Ni  Ni6  1  0.99837904  0.66579251  0.00129242  1
  Ni  Ni7  1  0.16651334  0.83141208  0.16459266  1
  Ni  Ni8  1  0.99826689  0.66545715  0.33139661  1
  Ni  Ni9  1  0.33422274  -0.00077993  0.00096598  1
  Ni  Ni10  1  0.49679524  0.16440140  0.16660990  1
  Ni  Ni11  1  0.33287794  0.99831446  0.33180929  1
  Ni  Ni12  1  0.33279283  0.33206391  0.00065880  1
  Ni  Ni13  1  0.49721167  0.49937091  0.16783191  1
  Ni  Ni14  1  0.33132742  0.33113772  0.32926116  1
  Ni  Ni15  1  0.33308788  0.66582440  0.00080794  1
  Ni  Ni16  1  0.49857748  0.83324690  0.16679352  1
  Ni  Ni17  1  0.33237023  0.66786244  0.33052456  1
  Ni  Ni18  1  0.66444811  0.99811295  0.99821872  1
  Cr  Cr19  1  0.83124868  0.16443470  0.16559787  1
  Ni  Ni20  1  0.66436490  0.99724190  0.33191805  1
  Cr  Cr21  1  0.66395458  0.33170730  0.99813813  1
  Ni  Ni22  1  0.83418064  0.50062876  0.16804431  1
  Ni  Ni23  1  0.66667595  0.33328632  0.33123188  1
  Cr  Cr24  1  0.66509575  0.66598822  0.99807101  1
  Ni  Ni25  1  0.83202570  0.83078911  0.16528333  1
  Ni  Ni26  1  0.66652768  0.66666679  0.33200988  1
  Ni  Ni27  1  0.16533717  0.16512505  0.50024707  1
  Ni  Ni28  1  0.99717609  0.00091903  0.66380145  1
  Cr  Cr29  1  0.16495257  0.16530099  0.83237549  1
  Cr  Cr30  1  0.16541211  0.49735655  0.49778676  1
  Ni  Ni31  1  0.99587357  0.32946493  0.66455972  1
  Cr  Cr32  1  0.16551763  0.49799095  0.83459874  1
  Ni  Ni33  1  0.16669074  0.83474959  0.49817139  1
  Cr  Cr34  1  0.99550461  0.66744655  0.66424828  1
  Cr  Cr35  1  0.16504127  0.83405781  0.83495353  1
  Cr  Cr36  1  0.50045111  0.16474983  0.49791001  1
  Ni  Ni37  1  0.33330397  0.00016577  0.66422387  1
  Ni  Ni38  1  0.50005179  0.16421404  0.83192698  1
  Cr  Cr39  1  0.50185033  0.49985274  0.49793993  1
  Ni  Ni40  1  0.33380257  0.32911722  0.66712960  1
  Ni  Ni41  1  0.49982711  0.49813510  0.83101457  1
  Ni  Ni42  1  0.50059969  0.83355624  0.49821174  1
  Cr  Cr43  1  0.33605400  0.66808049  0.66607858  1
  Ni  Ni44  1  0.50091624  0.83452939  0.83201948  1
  Ni  Ni45  1  0.83250249  0.16628980  0.50023435  1
  Ni  Ni46  1  0.66656660  0.99848409  0.66679685  1
  Ni  Ni47  1  0.83122631  0.16431719  0.83146977  1
  Ni  Ni48  1  0.83154003  0.49834549  0.49797438  1
  Ni  Ni49  1  0.66759448  0.33219669  0.66765032  1
  Ni  Ni50  1  0.83184228  0.49828724  0.83109897  1
  Ni  Ni51  1  0.82992693  0.83266315  0.49892629  1
  Ni  Ni52  1  0.66675369  0.66650435  0.66656163  1
  Ni  Ni53  1  0.83043918  0.83439432  0.83276590  1
" 