3525,Ni24Fe58Cr17_19,-229.720582966671, 188.547892841234,Ni24Fe58Cr17,"# generated using pymatgen
 data_Cr10Fe31Ni13
_symmetry_space_group_name_H-M   'P 1'
_cell_length_a   7.43849537
_cell_length_b   7.43849537
_cell_length_c   10.51962104
_cell_angle_alpha   90.00000000
_cell_angle_beta   90.00000000
_cell_angle_gamma   90.00000000
_symmetry_Int_Tables_number   1
_chemical_formula_structural   Cr10Fe31Ni13
_chemical_formula_sum   'Cr10 Fe31 Ni13'
_cell_volume   582.06339637
_cell_formula_units_Z   1
loop_
 _symmetry_equiv_pos_site_id
 _symmetry_equiv_pos_as_xyz
  1  'x, y, z'
loop_
 _atom_site_type_symbol
 _atom_site_label
 _atom_site_symmetry_multiplicity
 _atom_site_fract_x
 _atom_site_fract_y
 _atom_site_fract_z
 _atom_site_occupancy
  Ni  Ni0  1  1.00181214  0.99977787  0.00387984  1
  Fe  Fe1  1  0.16850886  0.16831889  0.16837464  1
  Fe  Fe2  1  1.00106115  0.00217965  0.33430544  1
  Fe  Fe3  1  0.00194817  0.33521011  0.00308793  1
  Fe  Fe4  1  0.16954499  0.50159685  0.16869947  1
  Ni  Ni5  1  0.00453634  0.33432618  0.33616696  1
  Fe  Fe6  1  1.00161376  0.67029539  0.00240263  1
  Fe  Fe7  1  0.16811074  0.83584046  0.16892444  1
  Ni  Ni8  1  0.00208802  0.66971442  0.33430655  1
  Fe  Fe9  1  0.33606729  1.00159201  0.00322025  1
  Ni  Ni10  1  0.50001834  0.16779608  0.16637190  1
  Ni  Ni11  1  0.33563577  1.00154558  0.33394504  1
  Ni  Ni12  1  0.33755786  0.33490470  0.00432967  1
  Fe  Fe13  1  0.50051855  0.50245315  0.16770431  1
  Fe  Fe14  1  0.33285187  0.33587860  0.33452316  1
  Fe  Fe15  1  0.33590675  0.66910842  0.00238684  1
  Fe  Fe16  1  0.50261677  0.83565154  0.16905760  1
  Fe  Fe17  1  0.33550786  0.66776865  0.33525663  1
  Fe  Fe18  1  0.66807872  1.00126242  0.00302536  1
  Fe  Fe19  1  0.83588612  0.16622681  0.16772986  1
  Fe  Fe20  1  0.66969262  0.99952637  0.33469429  1
  Fe  Fe21  1  0.66689322  0.33505560  0.00232101  1
  Cr  Cr22  1  0.83661493  0.50344791  0.16654432  1
  Cr  Cr23  1  0.66744333  0.33498289  0.33432990  1
  Ni  Ni24  1  0.66838605  0.66907763  1.00095649  1
  Ni  Ni25  1  0.83582220  0.83590513  0.16870836  1
  Fe  Fe26  1  0.66786426  0.67167868  0.33539248  1
  Fe  Fe27  1  0.16821751  0.17076948  0.50157533  1
  Cr  Cr28  1  1.00135952  0.00206597  0.66616113  1
  Cr  Cr29  1  0.17079807  0.16819506  0.83521711  1
  Fe  Fe30  1  0.17060914  0.50020247  0.50148972  1
  Ni  Ni31  1  0.00254732  0.33499922  0.66666401  1
  Cr  Cr32  1  0.16805908  0.50224564  0.83544907  1
  Cr  Cr33  1  0.16968916  0.83535110  0.50125265  1
  Cr  Cr34  1  1.00058471  0.66864387  0.67029221  1
  Fe  Fe35  1  0.16945949  0.83573727  0.83668621  1
  Cr  Cr36  1  0.50047140  0.16773254  0.50426834  1
  Fe  Fe37  1  0.33679734  1.00182718  0.66855231  1
  Fe  Fe38  1  0.50118300  0.16925032  0.83557322  1
  Ni  Ni39  1  0.49987051  0.50361812  0.50278924  1
  Ni  Ni40  1  0.33677940  0.33580493  0.66641980  1
  Fe  Fe41  1  0.50299456  0.50136210  0.83506180  1
  Ni  Ni42  1  0.50328676  0.83418484  0.50170493  1
  Fe  Fe43  1  0.33770415  0.66772762  0.66811526  1
  Fe  Fe44  1  0.50197750  0.83514385  0.83491014  1
  Fe  Fe45  1  0.83630484  0.16720143  0.50225465  1
  Fe  Fe46  1  0.66752555  1.00094753  0.66804267  1
  Cr  Cr47  1  0.83361914  0.17019328  0.83617957  1
  Cr  Cr48  1  0.83604137  0.50222866  0.50306513  1
  Fe  Fe49  1  0.66802923  0.33609673  0.66889144  1
  Fe  Fe50  1  0.83349826  0.50238987  0.83589735  1
  Ni  Ni51  1  0.83281619  0.83595404  0.50035597  1
  Fe  Fe52  1  0.66650672  0.66871526  0.66897176  1
  Fe  Fe53  1  0.83432134  0.83392759  0.83715160  1
" 