5586,Ni24Fe10Cr64_7,-212.835590451694, 156.667711478823,Ni24Fe10Cr64,"# generated using pymatgen
 data_Cr36Fe5Ni13
_symmetry_space_group_name_H-M   'P 1'
_cell_length_a   7.54960323
_cell_length_b   7.54960323
_cell_length_c   10.67675128
_cell_angle_alpha   90.00000000
_cell_angle_beta   90.00000000
_cell_angle_gamma   90.00000000
_symmetry_Int_Tables_number   1
_chemical_formula_structural   Cr36Fe5Ni13
_chemical_formula_sum   'Cr36 Fe5 Ni13'
_cell_volume   608.53754959
_cell_formula_units_Z   1
loop_
 _symmetry_equiv_pos_site_id
 _symmetry_equiv_pos_as_xyz
  1  'x, y, z'
loop_
 _atom_site_type_symbol
 _atom_site_label
 _atom_site_symmetry_multiplicity
 _atom_site_fract_x
 _atom_site_fract_y
 _atom_site_fract_z
 _atom_site_occupancy
  Cr  Cr0  1  0.99395493  -0.00504707  0.99151209  1
  Cr  Cr1  1  0.16377797  0.15961457  0.16175553  1
  Cr  Cr2  1  0.99248917  0.99375553  0.33244726  1
  Cr  Cr3  1  -0.00415794  0.32833858  -0.00454049  1
  Fe  Fe4  1  0.16029244  0.49706677  0.16219397  1
  Cr  Cr5  1  -0.00450485  0.32967574  0.32935680  1
  Ni  Ni6  1  -0.00539987  0.65902021  -0.00359627  1
  Cr  Cr7  1  0.16056797  0.82734189  0.16173464  1
  Ni  Ni8  1  -0.00220467  0.66265520  0.33013659  1
  Cr  Cr9  1  0.32877404  -0.00463968  -0.00356471  1
  Fe  Fe10  1  0.49689199  0.16262618  0.16226187  1
  Fe  Fe11  1  0.32614986  0.99396694  0.32928592  1
  Cr  Cr12  1  0.32852551  0.32975697  -0.00534550  1
  Cr  Cr13  1  0.49935498  0.49415899  0.16078210  1
  Cr  Cr14  1  0.32814100  0.33010693  0.32618063  1
  Cr  Cr15  1  0.32978865  0.65888595  0.99334178  1
  Cr  Cr16  1  0.49330719  0.82886973  0.16242937  1
  Cr  Cr17  1  0.32636623  0.65994871  0.33009952  1
  Cr  Cr18  1  0.66130907  0.99368264  0.99393197  1
  Cr  Cr19  1  0.82684494  0.16463399  0.16080123  1
  Cr  Cr20  1  0.66215609  -0.00537470  0.32987118  1
  Ni  Ni21  1  0.65853723  0.32991958  -0.00529369  1
  Cr  Cr22  1  0.82866909  0.49504107  0.16102956  1
  Ni  Ni23  1  0.66059509  0.32482050  0.32785042  1
  Ni  Ni24  1  0.66198921  0.65789665  0.99373731  1
  Cr  Cr25  1  0.82890040  0.82384760  0.15895294  1
  Cr  Cr26  1  0.66307143  0.66123440  0.32959135  1
  Cr  Cr27  1  0.16260554  0.16152022  0.49657666  1
  Cr  Cr28  1  0.99022769  0.99325763  0.66008537  1
  Cr  Cr29  1  0.16321303  0.16195825  0.82547654  1
  Ni  Ni30  1  0.16027923  0.49892011  0.49508905  1
  Cr  Cr31  1  -0.00492590  0.32914755  0.65848492  1
  Cr  Cr32  1  0.15980323  0.49617088  0.82512885  1
  Ni  Ni33  1  0.15911995  0.82397286  0.49538860  1
  Ni  Ni34  1  -0.00306905  0.66147611  0.65702811  1
  Cr  Cr35  1  0.16076338  0.82547774  0.82757785  1
  Cr  Cr36  1  0.49576868  0.16248641  0.49349630  1
  Cr  Cr37  1  0.32806153  0.99262921  0.66079671  1
  Cr  Cr38  1  0.49506859  0.16353956  0.82536786  1
  Cr  Cr39  1  0.49457354  0.49301071  0.49816753  1
  Ni  Ni40  1  0.32985532  0.33281297  0.66085701  1
  Fe  Fe41  1  0.49528475  0.49361122  0.82555664  1
  Cr  Cr42  1  0.49085927  0.82840119  0.49524166  1
  Ni  Ni43  1  0.32485259  0.65765580  0.66003258  1
  Cr  Cr44  1  0.49416272  0.82581858  0.82678817  1
  Ni  Ni45  1  0.82461267  0.16201302  0.49620353  1
  Ni  Ni46  1  0.66205817  -0.00335569  0.65868036  1
  Cr  Cr47  1  0.82553567  0.16470798  0.82600485  1
  Cr  Cr48  1  0.82784909  0.49285034  0.49265012  1
  Ni  Ni49  1  0.65917487  0.32662142  0.66059894  1
  Cr  Cr50  1  0.82601719  0.49470526  0.83024725  1
  Fe  Fe51  1  0.82962611  0.82692993  0.49594217  1
  Cr  Cr52  1  0.66063147  0.66262407  0.66142194  1
  Cr  Cr53  1  0.82855602  0.82398526  0.82891948  1
" 