2962,Ni24Fe10Cr64_0,-213.097592315271, 161.571120239093,Ni24Fe10Cr64,"# generated using pymatgen
 data_Cr36Fe5Ni13
_symmetry_space_group_name_H-M   'P 1'
_cell_length_a   7.54665969
_cell_length_b   7.54665969
_cell_length_c   10.67258849
_cell_angle_alpha   90.00000000
_cell_angle_beta   90.00000000
_cell_angle_gamma   90.00000000
_symmetry_Int_Tables_number   1
_chemical_formula_structural   Cr36Fe5Ni13
_chemical_formula_sum   'Cr36 Fe5 Ni13'
_cell_volume   607.82603334
_cell_formula_units_Z   1
loop_
 _symmetry_equiv_pos_site_id
 _symmetry_equiv_pos_as_xyz
  1  'x, y, z'
loop_
 _atom_site_type_symbol
 _atom_site_label
 _atom_site_symmetry_multiplicity
 _atom_site_fract_x
 _atom_site_fract_y
 _atom_site_fract_z
 _atom_site_occupancy
  Cr  Cr0  1  0.99323552  0.99185781  0.99440497  1
  Cr  Cr1  1  0.15944391  0.16309341  0.15959997  1
  Cr  Cr2  1  0.99350930  0.99255502  0.33065518  1
  Ni  Ni3  1  0.99365201  0.33140481  0.99392112  1
  Ni  Ni4  1  0.16290376  0.49620920  0.15719063  1
  Cr  Cr5  1  0.99330482  0.32968759  0.32647566  1
  Cr  Cr6  1  -0.00432407  0.66070237  0.99470746  1
  Fe  Fe7  1  0.16170275  0.82621233  0.15957324  1
  Cr  Cr8  1  -0.00483619  0.66221276  0.32679208  1
  Cr  Cr9  1  0.33169869  0.99179435  0.99338511  1
  Cr  Cr10  1  0.49779772  0.15805828  0.16136836  1
  Cr  Cr11  1  0.32877065  0.99276199  0.32544510  1
  Cr  Cr12  1  0.33008334  0.32889613  0.99471475  1
  Cr  Cr13  1  0.49648293  0.49841238  0.16332482  1
  Cr  Cr14  1  0.32910427  0.32939695  0.32879559  1
  Ni  Ni15  1  0.32958908  0.66184727  -0.00398426  1
  Cr  Cr16  1  0.49760107  0.82669920  0.16053670  1
  Cr  Cr17  1  0.32622533  0.66100735  0.32631190  1
  Ni  Ni18  1  0.66105203  0.99106031  0.99137646  1
  Cr  Cr19  1  0.82765466  0.15914403  0.16111505  1
  Ni  Ni20  1  0.66354628  0.99186683  0.33023158  1
  Cr  Cr21  1  0.66281763  0.32612304  0.99293244  1
  Cr  Cr22  1  0.82758510  0.49627203  0.15851709  1
  Cr  Cr23  1  0.66160014  0.32678612  0.33094540  1
  Fe  Fe24  1  0.66122904  0.66297749  0.99257011  1
  Cr  Cr25  1  0.82379048  0.82806449  0.16287226  1
  Ni  Ni26  1  0.66171681  0.66345059  0.33138331  1
  Cr  Cr27  1  0.15883449  0.16130846  0.50048376  1
  Ni  Ni28  1  0.98961247  0.99217658  0.66098812  1
  Cr  Cr29  1  0.16197460  0.16223133  0.82428697  1
  Cr  Cr30  1  0.16391624  0.49318208  0.49764973  1
  Cr  Cr31  1  0.98966682  0.32974019  0.66223101  1
  Cr  Cr32  1  0.16089615  0.49325713  0.82752773  1
  Cr  Cr33  1  0.15954888  0.83000126  0.49646852  1
  Cr  Cr34  1  0.99066813  0.66485337  0.66183401  1
  Cr  Cr35  1  0.16060866  0.82840563  0.82705654  1
  Cr  Cr36  1  0.49400558  0.16096566  0.49386834  1
  Cr  Cr37  1  0.33139564  0.99431974  0.66464490  1
  Fe  Fe38  1  0.49699434  0.16163015  0.82824322  1
  Ni  Ni39  1  0.49646675  0.49653089  0.49517969  1
  Ni  Ni40  1  0.33267641  0.32962252  0.66148984  1
  Cr  Cr41  1  0.49559564  0.49830836  0.82684909  1
  Cr  Cr42  1  0.49831224  0.82496256  0.49303016  1
  Cr  Cr43  1  0.33032355  0.66153601  0.66057389  1
  Fe  Fe44  1  0.49755417  0.82617057  0.83011379  1
  Ni  Ni45  1  0.82703504  0.15699977  0.49425995  1
  Cr  Cr46  1  0.66287692  0.99420866  0.66316755  1
  Cr  Cr47  1  0.83052300  0.16058693  0.83053282  1
  Cr  Cr48  1  0.82486644  0.49846437  0.49463215  1
  Cr  Cr49  1  0.66025911  0.32849476  0.66050383  1
  Ni  Ni50  1  0.82416984  0.49937004  0.83009956  1
  Ni  Ni51  1  0.82481288  0.83028655  0.49528540  1
  Fe  Fe52  1  0.66232139  0.66224108  0.66132630  1
  Ni  Ni53  1  0.82231609  0.82675973  0.82767956  1
" 