8025,Ni24Cr76_17,-230.834439865988, 151.956202928527,Ni24Cr76,"# generated using pymatgen
 data_Cr2Ni7
_symmetry_space_group_name_H-M   'P 1'
_cell_length_a   7.47743040
_cell_length_b   7.47743040
_cell_length_c   10.57468348
_cell_angle_alpha   90.00000000
_cell_angle_beta   90.00000000
_cell_angle_gamma   90.00000000
_symmetry_Int_Tables_number   1
_chemical_formula_structural   Cr2Ni7
_chemical_formula_sum   'Cr12 Ni42'
_cell_volume   591.25133608
_cell_formula_units_Z   6
loop_
 _symmetry_equiv_pos_site_id
 _symmetry_equiv_pos_as_xyz
  1  'x, y, z'
loop_
 _atom_site_type_symbol
 _atom_site_label
 _atom_site_symmetry_multiplicity
 _atom_site_fract_x
 _atom_site_fract_y
 _atom_site_fract_z
 _atom_site_occupancy
  Cr  Cr0  1  0.00274305  -0.00065115  0.99838509  1
  Ni  Ni1  1  0.16711069  0.16355372  0.16663686  1
  Ni  Ni2  1  0.00125430  0.99712985  0.33361527  1
  Ni  Ni3  1  0.99704227  0.33420667  0.99819836  1
  Cr  Cr4  1  0.16472276  0.49972417  0.16662527  1
  Cr  Cr5  1  0.00060936  0.33217764  0.33374129  1
  Ni  Ni6  1  0.99720854  0.66410902  0.99840898  1
  Ni  Ni7  1  0.16620835  0.83439224  0.16764022  1
  Ni  Ni8  1  -0.00055267  0.66861409  0.33346862  1
  Ni  Ni9  1  0.33072077  -0.00056510  0.99847157  1
  Cr  Cr10  1  0.49692666  0.16621819  0.16681006  1
  Ni  Ni11  1  0.32989763  -0.00014748  0.33183131  1
  Cr  Cr12  1  0.33286938  0.33106722  0.99856755  1
  Ni  Ni13  1  0.50189449  0.50014421  0.16704399  1
  Ni  Ni14  1  0.33310634  0.33251170  0.33384755  1
  Cr  Cr15  1  0.33286928  0.66791276  0.99773831  1
  Cr  Cr16  1  0.49799676  0.83155840  0.16742550  1
  Ni  Ni17  1  0.33204371  0.66555237  0.33278162  1
  Cr  Cr18  1  0.66444329  -0.00065024  0.99600789  1
  Cr  Cr19  1  0.83413738  0.16769988  0.16556332  1
  Ni  Ni20  1  0.66676582  0.99819219  0.33493706  1
  Ni  Ni21  1  0.66800273  0.33635988  0.99843189  1
  Ni  Ni22  1  0.83105526  0.50104724  0.16342639  1
  Cr  Cr23  1  0.66420725  0.33431145  0.33374307  1
  Ni  Ni24  1  0.66783530  0.66195645  0.99864398  1
  Cr  Cr25  1  0.83371794  0.82942653  0.16810935  1
  Ni  Ni26  1  0.66642695  0.66540694  0.33217133  1
  Ni  Ni27  1  0.16666827  0.16561820  0.49906452  1
  Ni  Ni28  1  0.99913651  -0.00063020  0.66566058  1
  Ni  Ni29  1  0.16627260  0.16577893  0.83221748  1
  Ni  Ni30  1  0.16666553  0.49976443  0.49978307  1
  Ni  Ni31  1  0.99930463  0.33240351  0.66648091  1
  Ni  Ni32  1  0.16413153  0.49936885  0.83126228  1
  Ni  Ni33  1  0.16395239  0.83253423  0.49823095  1
  Ni  Ni34  1  -0.00052515  0.66614401  0.66603817  1
  Ni  Ni35  1  0.16644115  0.83276945  0.83204509  1
  Ni  Ni36  1  0.49870433  0.16692261  0.49944184  1
  Ni  Ni37  1  0.33180813  0.00026418  0.66761540  1
  Ni  Ni38  1  0.49930047  0.16527217  0.83166594  1
  Ni  Ni39  1  0.49836606  0.49811897  0.49906442  1
  Ni  Ni40  1  0.33287515  0.33274383  0.66548952  1
  Ni  Ni41  1  0.50110568  0.49953893  0.83180925  1
  Cr  Cr42  1  0.49976838  0.83287197  0.49895417  1
  Ni  Ni43  1  0.33181043  0.66490898  0.66689564  1
  Ni  Ni44  1  0.49930197  0.83310624  0.83204167  1
  Ni  Ni45  1  0.83254475  0.16420808  0.50051303  1
  Ni  Ni46  1  0.66697235  0.00043423  0.66672472  1
  Ni  Ni47  1  0.83234313  0.16758214  0.83159919  1
  Ni  Ni48  1  0.83288514  0.50083653  0.50013521  1
  Ni  Ni49  1  0.66573762  0.33240550  0.66624505  1
  Ni  Ni50  1  0.83268038  0.49937022  0.83435621  1
  Ni  Ni51  1  0.83418937  0.83287263  0.49837199  1
  Ni  Ni52  1  0.66663185  0.66507717  0.66710268  1
  Ni  Ni53  1  0.83217291  0.83096455  0.83142843  1
" 