1225,Ni24Fe6Cr69_19,-211.361741441696, 160.217405173318,Ni24Fe6Cr69,"# generated using pymatgen
 data_Cr38Fe3Ni13
_symmetry_space_group_name_H-M   'P 1'
_cell_length_a   7.55584666
_cell_length_b   7.55584666
_cell_length_c   10.68558082
_cell_angle_alpha   90.00000000
_cell_angle_beta   90.00000000
_cell_angle_gamma   90.00000000
_symmetry_Int_Tables_number   1
_chemical_formula_structural   Cr38Fe3Ni13
_chemical_formula_sum   'Cr38 Fe3 Ni13'
_cell_volume   610.04855784
_cell_formula_units_Z   1
loop_
 _symmetry_equiv_pos_site_id
 _symmetry_equiv_pos_as_xyz
  1  'x, y, z'
loop_
 _atom_site_type_symbol
 _atom_site_label
 _atom_site_symmetry_multiplicity
 _atom_site_fract_x
 _atom_site_fract_y
 _atom_site_fract_z
 _atom_site_occupancy
  Cr  Cr0  1  0.99050354  -0.00533489  0.99401954  1
  Cr  Cr1  1  0.16055926  0.16038493  0.16483071  1
  Fe  Fe2  1  0.99131204  0.99323417  0.32906202  1
  Cr  Cr3  1  0.99166154  0.32922232  0.99401845  1
  Ni  Ni4  1  0.15896515  0.49198815  0.16466584  1
  Ni  Ni5  1  -0.00465378  0.32493501  0.32823513  1
  Cr  Cr6  1  0.99383919  0.65745914  -0.00244822  1
  Cr  Cr7  1  0.15874760  0.82969610  0.15854651  1
  Cr  Cr8  1  0.99300442  0.65815528  0.32423767  1
  Ni  Ni9  1  0.32645936  -0.00479314  -0.00532271  1
  Cr  Cr10  1  0.49332026  0.16170517  0.15816765  1
  Cr  Cr11  1  0.32894259  -0.00468209  0.32954023  1
  Cr  Cr12  1  0.32622627  0.32974170  -0.00307646  1
  Cr  Cr13  1  0.49746920  0.49259748  0.16327137  1
  Fe  Fe14  1  0.32634928  0.32868717  0.32769358  1
  Cr  Cr15  1  0.32655265  0.66000233  -0.00483492  1
  Cr  Cr16  1  0.49491250  0.82809682  0.16144906  1
  Cr  Cr17  1  0.32935532  0.66075829  0.32758578  1
  Cr  Cr18  1  0.66061436  -0.00442662  -0.00484822  1
  Cr  Cr19  1  0.82830057  0.16028389  0.16147537  1
  Cr  Cr20  1  0.66257800  0.99158032  0.32890210  1
  Ni  Ni21  1  0.66387835  0.32858017  -0.00573160  1
  Ni  Ni22  1  0.82929676  0.49349414  0.16283958  1
  Cr  Cr23  1  0.66533650  0.32671115  0.32649624  1
  Cr  Cr24  1  0.66308563  0.65965727  -0.00189701  1
  Ni  Ni25  1  0.82724026  0.82419898  0.16399514  1
  Ni  Ni26  1  0.66458408  0.66148287  0.32818285  1
  Ni  Ni27  1  0.15743237  0.15967874  0.48920468  1
  Cr  Cr28  1  0.99195945  -0.00356670  0.65825351  1
  Cr  Cr29  1  0.15934017  0.15866782  0.82817253  1
  Cr  Cr30  1  0.16009956  0.49182292  0.49240952  1
  Cr  Cr31  1  0.99254578  0.32440230  0.66008377  1
  Cr  Cr32  1  0.16006229  0.49522628  0.82629291  1
  Cr  Cr33  1  0.15696456  0.82911330  0.49432724  1
  Cr  Cr34  1  0.99360599  0.66142052  0.66181046  1
  Cr  Cr35  1  0.16092877  0.82910891  0.83014298  1
  Cr  Cr36  1  0.49440916  0.16432652  0.49279947  1
  Cr  Cr37  1  0.32869947  -0.00498857  0.65961663  1
  Cr  Cr38  1  0.49515448  0.16311362  0.83173083  1
  Cr  Cr39  1  0.49734592  0.49577281  0.49428429  1
  Cr  Cr40  1  0.32614047  0.32641328  0.65767853  1
  Cr  Cr41  1  0.49763850  0.49312968  0.82398141  1
  Fe  Fe42  1  0.49701581  0.82746741  0.49346946  1
  Cr  Cr43  1  0.32895072  0.66207268  0.65977585  1
  Cr  Cr44  1  0.49393129  0.82730848  0.82729429  1
  Ni  Ni45  1  0.82968787  0.15903549  0.49306860  1
  Cr  Cr46  1  0.66182250  -0.00433191  0.65833905  1
  Ni  Ni47  1  0.82352056  0.16292634  0.82629520  1
  Cr  Cr48  1  0.82653507  0.49448190  0.49511165  1
  Ni  Ni49  1  0.66279741  0.32641635  0.66000895  1
  Cr  Cr50  1  0.82366604  0.49287842  0.82470529  1
  Ni  Ni51  1  0.82487626  0.82822581  0.49214009  1
  Ni  Ni52  1  0.66157728  0.66206744  0.65596576  1
  Cr  Cr53  1  0.82753759  0.82708023  0.82666759  1
" 