6954,Ni24Fe6Cr69_8,-211.418583523393, 161.209121618605,Ni24Fe6Cr69,"# generated using pymatgen
 data_Cr38Fe3Ni13
_symmetry_space_group_name_H-M   'P 1'
_cell_length_a   7.55602195
_cell_length_b   7.55602195
_cell_length_c   10.68582872
_cell_angle_alpha   90.00000000
_cell_angle_beta   90.00000000
_cell_angle_gamma   90.00000000
_symmetry_Int_Tables_number   1
_chemical_formula_structural   Cr38Fe3Ni13
_chemical_formula_sum   'Cr38 Fe3 Ni13'
_cell_volume   610.09101713
_cell_formula_units_Z   1
loop_
 _symmetry_equiv_pos_site_id
 _symmetry_equiv_pos_as_xyz
  1  'x, y, z'
loop_
 _atom_site_type_symbol
 _atom_site_label
 _atom_site_symmetry_multiplicity
 _atom_site_fract_x
 _atom_site_fract_y
 _atom_site_fract_z
 _atom_site_occupancy
  Ni  Ni0  1  -0.00528672  -0.00365437  -0.00308941  1
  Ni  Ni1  1  0.16056542  0.15857316  0.16190466  1
  Ni  Ni2  1  -0.00417038  -0.00381479  0.32634741  1
  Ni  Ni3  1  -0.00449895  0.32321954  -0.00490496  1
  Cr  Cr4  1  0.16156974  0.49010627  0.16018608  1
  Cr  Cr5  1  0.99372340  0.32552749  0.33007190  1
  Cr  Cr6  1  -0.00559755  0.66294381  -0.00554187  1
  Cr  Cr7  1  0.15816312  0.83098325  0.16197684  1
  Cr  Cr8  1  0.99242839  0.66233179  0.32954626  1
  Cr  Cr9  1  0.32704673  -0.00548960  -0.00552340  1
  Cr  Cr10  1  0.49225818  0.16240560  0.16298670  1
  Ni  Ni11  1  0.32532824  -0.00455073  0.32567299  1
  Cr  Cr12  1  0.32696855  0.32493758  -0.00523208  1
  Ni  Ni13  1  0.49294204  0.49414394  0.16176270  1
  Fe  Fe14  1  0.32664594  0.32513417  0.32577274  1
  Cr  Cr15  1  0.32859194  0.66303930  -0.00560766  1
  Fe  Fe16  1  0.49359714  0.82892992  0.16214652  1
  Cr  Cr17  1  0.32801965  0.66276243  0.32569016  1
  Cr  Cr18  1  0.65901655  0.99319942  -0.00581199  1
  Cr  Cr19  1  0.83071944  0.15885829  0.15953851  1
  Cr  Cr20  1  0.66168651  0.99370918  0.32707431  1
  Cr  Cr21  1  0.65891381  0.32598830  0.99257435  1
  Cr  Cr22  1  0.82697631  0.49320488  0.15871856  1
  Cr  Cr23  1  0.66180083  0.32761727  0.33020670  1
  Cr  Cr24  1  0.65938744  0.66326602  -0.00130222  1
  Ni  Ni25  1  0.82866352  0.83026008  0.16076393  1
  Cr  Cr26  1  0.66159168  0.66131448  0.32435047  1
  Cr  Cr27  1  0.16141637  0.15735413  0.49090468  1
  Ni  Ni28  1  -0.00508956  -0.00396250  0.65926208  1
  Cr  Cr29  1  0.15916027  0.15886963  0.82955343  1
  Cr  Cr30  1  0.16299629  0.49491506  0.49455313  1
  Cr  Cr31  1  0.99269888  0.32594441  0.65867285  1
  Cr  Cr32  1  0.16066856  0.49470042  0.82772848  1
  Cr  Cr33  1  0.16227672  0.82972191  0.49606823  1
  Cr  Cr34  1  -0.00553373  0.66033967  0.65859873  1
  Cr  Cr35  1  0.16013061  0.82872431  0.82382607  1
  Cr  Cr36  1  0.49372526  0.15850699  0.49457736  1
  Ni  Ni37  1  0.32706863  0.99407654  0.66172129  1
  Ni  Ni38  1  0.49384660  0.15806372  0.82468017  1
  Cr  Cr39  1  0.49306971  0.49428094  0.49290786  1
  Cr  Cr40  1  0.32721332  0.32504274  0.66189913  1
  Cr  Cr41  1  0.49358565  0.49391660  0.82719770  1
  Cr  Cr42  1  0.49185145  0.82907401  0.49561861  1
  Ni  Ni43  1  0.32848326  0.66384417  0.66077288  1
  Cr  Cr44  1  0.49379797  0.82896564  0.82375243  1
  Ni  Ni45  1  0.82859929  0.15870332  0.49508776  1
  Fe  Fe46  1  0.66125645  -0.00462551  0.66056056  1
  Cr  Cr47  1  0.82740553  0.15886169  0.82847487  1
  Ni  Ni48  1  0.82654553  0.49250761  0.49401677  1
  Cr  Cr49  1  0.66218932  0.32494395  0.65969501  1
  Cr  Cr50  1  0.82826171  0.49320190  0.83018834  1
  Cr  Cr51  1  0.82840017  0.83091881  0.49419020  1
  Cr  Cr52  1  0.66218504  0.66003760  0.65932078  1
  Cr  Cr53  1  0.82880693  0.83019275  0.82795959  1
" 