7113,Ni24Fe50Cr24_10,-227.697848436254, 186.810823675605,Ni24Fe50Cr24,"# generated using pymatgen
 data_Cr14Fe27Ni13
_symmetry_space_group_name_H-M   'P 1'
_cell_length_a   7.45372618
_cell_length_b   7.45372618
_cell_length_c   10.54116065
_cell_angle_alpha   90.00000000
_cell_angle_beta   90.00000000
_cell_angle_gamma   90.00000000
_symmetry_Int_Tables_number   1
_chemical_formula_structural   Cr14Fe27Ni13
_chemical_formula_sum   'Cr14 Fe27 Ni13'
_cell_volume   585.64616075
_cell_formula_units_Z   1
loop_
 _symmetry_equiv_pos_site_id
 _symmetry_equiv_pos_as_xyz
  1  'x, y, z'
loop_
 _atom_site_type_symbol
 _atom_site_label
 _atom_site_symmetry_multiplicity
 _atom_site_fract_x
 _atom_site_fract_y
 _atom_site_fract_z
 _atom_site_occupancy
  Fe  Fe0  1  0.00209877  0.00154747  0.00178072  1
  Fe  Fe1  1  0.16589100  0.16670307  0.16669749  1
  Cr  Cr2  1  0.00138202  0.00124546  0.33287159  1
  Ni  Ni3  1  0.99968628  0.33319425  0.00107553  1
  Cr  Cr4  1  0.16686692  0.50154060  0.16569182  1
  Fe  Fe5  1  0.99956971  0.33452400  0.33445733  1
  Fe  Fe6  1  1.00050550  0.66775331  1.00073258  1
  Ni  Ni7  1  0.16579742  0.83423453  0.16703107  1
  Fe  Fe8  1  0.99975603  0.66779293  0.33543462  1
  Cr  Cr9  1  0.33202532  0.99958417  1.00039430  1
  Cr  Cr10  1  0.50132453  0.16885372  0.16968460  1
  Ni  Ni11  1  0.33520384  0.99970961  0.33555270  1
  Ni  Ni12  1  0.33297894  0.33441650  1.00017950  1
  Fe  Fe13  1  0.50286719  0.50271404  0.16570862  1
  Cr  Cr14  1  0.33340691  0.33226349  0.33603359  1
  Fe  Fe15  1  0.33455445  0.66793172  0.00168210  1
  Fe  Fe16  1  0.50082868  0.83208779  0.16872061  1
  Cr  Cr17  1  0.33492213  0.67107510  0.33339621  1
  Cr  Cr18  1  0.66871694  0.99985432  1.00060840  1
  Fe  Fe19  1  0.83655896  0.16874644  0.16731870  1
  Fe  Fe20  1  0.66574821  1.00010357  0.33563472  1
  Fe  Fe21  1  0.66869958  0.33587128  1.00019893  1
  Fe  Fe22  1  0.83328430  0.50121617  0.16651781  1
  Fe  Fe23  1  0.66935899  0.33341106  0.33466399  1
  Ni  Ni24  1  0.66769006  0.66605184  0.00202855  1
  Fe  Fe25  1  0.83446524  0.83271595  0.16764695  1
  Fe  Fe26  1  0.66891410  0.66916547  0.33362225  1
  Fe  Fe27  1  0.16950516  0.16627655  0.50140417  1
  Fe  Fe28  1  0.00199957  0.99953586  0.66681522  1
  Fe  Fe29  1  0.16793980  0.16714779  0.83457705  1
  Fe  Fe30  1  0.16554778  0.50126805  0.50146517  1
  Cr  Cr31  1  0.00105768  0.33451111  0.66625253  1
  Cr  Cr32  1  0.16652205  0.50142575  0.83548254  1
  Fe  Fe33  1  0.16750845  0.83513736  0.50146772  1
  Ni  Ni34  1  0.99942553  0.66937696  0.66551014  1
  Ni  Ni35  1  0.16574193  0.83558831  0.83418302  1
  Ni  Ni36  1  0.50008412  0.16511427  0.50090798  1
  Fe  Fe37  1  0.33432202  0.00253812  0.66724895  1
  Ni  Ni38  1  0.49988406  0.16817658  0.83241296  1
  Cr  Cr39  1  0.50092729  0.49894481  0.50094062  1
  Ni  Ni40  1  0.33388941  0.33036980  0.66676496  1
  Cr  Cr41  1  0.50168633  0.49837904  0.83682911  1
  Ni  Ni42  1  0.50320744  0.83838299  0.50064849  1
  Cr  Cr43  1  0.33369278  0.66962870  0.66760399  1
  Fe  Fe44  1  0.50043591  0.83447593  0.83349159  1
  Fe  Fe45  1  0.83238145  0.16600029  0.50009764  1
  Fe  Fe46  1  0.66636050  1.00035760  0.66645752  1
  Fe  Fe47  1  0.83508817  0.16879920  0.83526348  1
  Fe  Fe48  1  0.83482134  0.50306510  0.50036446  1
  Cr  Cr49  1  0.66783169  0.33292674  0.66929523  1
  Ni  Ni50  1  0.83444676  0.50152525  0.83581349  1
  Ni  Ni51  1  0.83427399  0.83309125  0.50146055  1
  Fe  Fe52  1  0.67004335  0.66900881  0.66711210  1
  Cr  Cr53  1  0.83652833  0.83289481  0.83301893  1
" 