2365,Ni24Cr76_13,-230.829664233688, 153.213200207139,Ni24Cr76,"# generated using pymatgen
 data_Cr2Ni7
_symmetry_space_group_name_H-M   'P 1'
_cell_length_a   7.47851467
_cell_length_b   7.47851467
_cell_length_c   10.57621687
_cell_angle_alpha   90.00000000
_cell_angle_beta   90.00000000
_cell_angle_gamma   90.00000000
_symmetry_Int_Tables_number   1
_chemical_formula_structural   Cr2Ni7
_chemical_formula_sum   'Cr12 Ni42'
_cell_volume   591.50857795
_cell_formula_units_Z   6
loop_
 _symmetry_equiv_pos_site_id
 _symmetry_equiv_pos_as_xyz
  1  'x, y, z'
loop_
 _atom_site_type_symbol
 _atom_site_label
 _atom_site_symmetry_multiplicity
 _atom_site_fract_x
 _atom_site_fract_y
 _atom_site_fract_z
 _atom_site_occupancy
  Ni  Ni0  1  0.99912152  0.99872210  0.99912429  1
  Ni  Ni1  1  0.16384510  0.16399466  0.16555595  1
  Ni  Ni2  1  -0.00011022  -0.00028212  0.33112782  1
  Ni  Ni3  1  0.99909515  0.33106561  0.99904073  1
  Cr  Cr4  1  0.16363414  0.50024998  0.16502013  1
  Ni  Ni5  1  0.99748086  0.33074903  0.33329258  1
  Ni  Ni6  1  0.99909000  0.66786577  -0.00050762  1
  Ni  Ni7  1  0.16465478  0.83377162  0.16700908  1
  Ni  Ni8  1  0.00016673  0.66716837  0.33162712  1
  Cr  Cr9  1  0.32972758  0.99726258  0.00124267  1
  Ni  Ni10  1  0.49989304  0.16479051  0.16721469  1
  Ni  Ni11  1  0.33223912  0.99716584  0.33262261  1
  Ni  Ni12  1  0.33102139  0.33319284  0.99786322  1
  Cr  Cr13  1  0.50062999  0.49963478  0.16390537  1
  Cr  Cr14  1  0.33075082  0.32970273  0.33448203  1
  Ni  Ni15  1  0.33206635  0.66650496  0.99697892  1
  Ni  Ni16  1  0.49905454  0.83244887  0.16821628  1
  Ni  Ni17  1  0.33113206  0.67064603  0.33391205  1
  Cr  Cr18  1  0.66963787  0.99683557  0.00010851  1
  Ni  Ni19  1  0.83404122  0.16630715  0.16673999  1
  Ni  Ni20  1  0.66560744  -0.00034175  0.33203787  1
  Ni  Ni21  1  0.66752719  0.33299705  0.00061372  1
  Ni  Ni22  1  0.83278717  0.49933322  0.16639666  1
  Ni  Ni23  1  0.66880144  0.32953373  0.33130684  1
  Ni  Ni24  1  0.66640257  0.66633451  0.99914501  1
  Ni  Ni25  1  0.83402497  0.83199596  0.16644547  1
  Ni  Ni26  1  0.66629983  0.66844497  0.33021936  1
  Ni  Ni27  1  0.16374231  0.16295139  0.49940662  1
  Ni  Ni28  1  0.00022880  -0.00032198  0.66749710  1
  Ni  Ni29  1  0.16235210  0.16536079  0.83284546  1
  Ni  Ni30  1  0.16392354  0.50148306  0.49962948  1
  Ni  Ni31  1  0.00114693  0.33093413  0.66526026  1
  Ni  Ni32  1  0.16628978  0.50029116  0.83313544  1
  Ni  Ni33  1  0.16721958  0.83329796  0.49892737  1
  Ni  Ni34  1  0.00228344  0.66701682  0.66666061  1
  Ni  Ni35  1  0.16476664  0.83218127  0.83182234  1
  Ni  Ni36  1  0.49999979  0.16079623  0.49781217  1
  Ni  Ni37  1  0.33119565  0.99638304  0.66436161  1
  Cr  Cr38  1  0.49855002  0.16502290  0.83306032  1
  Cr  Cr39  1  0.49948810  0.50344630  0.49837386  1
  Cr  Cr40  1  0.32900588  0.33348131  0.66554026  1
  Ni  Ni41  1  0.49732670  0.50295416  0.83504005  1
  Ni  Ni42  1  0.49752143  0.83503306  0.49942134  1
  Ni  Ni43  1  0.33100067  0.66881287  0.66672776  1
  Ni  Ni44  1  0.49887574  0.82925002  0.83012003  1
  Ni  Ni45  1  0.83410520  0.16430513  0.49871071  1
  Ni  Ni46  1  0.66625602  0.99714064  0.66583428  1
  Ni  Ni47  1  0.83651517  0.16387202  0.83204799  1
  Cr  Cr48  1  0.83520560  0.49981973  0.49703271  1
  Cr  Cr49  1  0.66789911  0.33092478  0.66505915  1
  Cr  Cr50  1  0.83350276  0.50016682  0.83338272  1
  Cr  Cr51  1  0.83317884  0.83446665  0.50019853  1
  Ni  Ni52  1  0.66426246  0.66998799  0.66833433  1
  Ni  Ni53  1  0.83413509  0.83344719  0.83161613  1
" 