6130,Ni24Cr76_5,-230.802726548685, 151.381190919178,Ni24Cr76,"# generated using pymatgen
 data_Cr2Ni7
_symmetry_space_group_name_H-M   'P 1'
_cell_length_a   7.47773093
_cell_length_b   7.47773093
_cell_length_c   10.57510850
_cell_angle_alpha   90.00000000
_cell_angle_beta   90.00000000
_cell_angle_gamma   90.00000000
_symmetry_Int_Tables_number   1
_chemical_formula_structural   Cr2Ni7
_chemical_formula_sum   'Cr12 Ni42'
_cell_volume   591.32263011
_cell_formula_units_Z   6
loop_
 _symmetry_equiv_pos_site_id
 _symmetry_equiv_pos_as_xyz
  1  'x, y, z'
loop_
 _atom_site_type_symbol
 _atom_site_label
 _atom_site_symmetry_multiplicity
 _atom_site_fract_x
 _atom_site_fract_y
 _atom_site_fract_z
 _atom_site_occupancy
  Ni  Ni0  1  0.99647803  0.00021846  0.00038762  1
  Ni  Ni1  1  0.16358814  0.16720479  0.16596904  1
  Ni  Ni2  1  0.99893506  0.99838207  0.33091779  1
  Ni  Ni3  1  -0.00021213  0.33184790  0.99794354  1
  Ni  Ni4  1  0.16747066  0.49964135  0.16606792  1
  Ni  Ni5  1  0.00287842  0.33256220  0.33295096  1
  Ni  Ni6  1  0.99862867  0.66583910  0.99920919  1
  Ni  Ni7  1  0.16373410  0.83102936  0.16616157  1
  Ni  Ni8  1  0.00174024  0.66700393  0.33410129  1
  Cr  Cr9  1  0.33141100  -0.00030985  -0.00012992  1
  Ni  Ni10  1  0.50011391  0.16659737  0.16537781  1
  Cr  Cr11  1  0.33277686  0.99925525  0.33313778  1
  Ni  Ni12  1  0.33007743  0.33365701  0.00156621  1
  Ni  Ni13  1  0.49624359  0.49923575  0.16384020  1
  Ni  Ni14  1  0.32951243  0.33278868  0.33133459  1
  Ni  Ni15  1  0.33217322  0.66487179  0.00164445  1
  Ni  Ni16  1  0.49993609  0.83175886  0.16446820  1
  Ni  Ni17  1  0.33014431  0.66562157  0.33123170  1
  Ni  Ni18  1  0.66835235  0.99824525  0.00076087  1
  Ni  Ni19  1  0.83386586  0.16314605  0.16494098  1
  Ni  Ni20  1  0.66691268  0.99805360  0.33104510  1
  Ni  Ni21  1  0.66766198  0.33183903  0.00017418  1
  Cr  Cr22  1  0.83546243  0.49936987  0.16531985  1
  Cr  Cr23  1  0.66617184  0.33007099  0.33137708  1
  Ni  Ni24  1  0.66699917  0.66782531  0.99898691  1
  Ni  Ni25  1  0.83422582  0.83537096  0.16525990  1
  Cr  Cr26  1  0.66758436  0.66949709  0.33303726  1
  Ni  Ni27  1  0.16525293  0.16532101  0.49955382  1
  Ni  Ni28  1  0.99900527  -0.00054820  0.66632568  1
  Ni  Ni29  1  0.16180761  0.16715297  0.83226918  1
  Ni  Ni30  1  0.16251765  0.49964238  0.49680976  1
  Ni  Ni31  1  0.99792296  0.33336045  0.66708334  1
  Ni  Ni32  1  0.16193181  0.49826858  0.83526686  1
  Ni  Ni33  1  0.16379189  0.83278890  0.49897690  1
  Ni  Ni34  1  0.99631266  0.66531767  0.66494368  1
  Cr  Cr35  1  0.16375388  0.83301244  0.83310567  1
  Ni  Ni36  1  0.49880320  0.16314976  0.50022182  1
  Ni  Ni37  1  0.33213169  0.99918322  0.66409900  1
  Cr  Cr38  1  0.50102450  0.16446894  0.83128135  1
  Cr  Cr39  1  0.49989511  0.49856304  0.49853338  1
  Cr  Cr40  1  0.32821030  0.33029988  0.66529373  1
  Cr  Cr41  1  0.50046497  0.50087070  0.83594814  1
  Ni  Ni42  1  0.50004656  0.83493943  0.50088070  1
  Cr  Cr43  1  0.33079377  0.66826750  0.66547967  1
  Ni  Ni44  1  0.50260951  0.83276473  0.83236733  1
  Cr  Cr45  1  0.83376625  0.16481888  0.49885163  1
  Ni  Ni46  1  0.66684734  0.99720785  0.66555269  1
  Ni  Ni47  1  0.83441104  0.16553857  0.83319088  1
  Ni  Ni48  1  0.83681161  0.50087984  0.50157120  1
  Ni  Ni49  1  0.66982561  0.33254376  0.66597620  1
  Ni  Ni50  1  0.83440208  0.49932943  0.83187826  1
  Ni  Ni51  1  0.83441463  0.83261337  0.49980461  1
  Ni  Ni52  1  0.66988046  0.66804600  0.66622990  1
  Ni  Ni53  1  0.83192373  0.83300066  0.83284803  1
" 