6365,Ni24Fe58Cr17_7,-230.10597295375, 192.357818977565,Ni24Fe58Cr17,"# generated using pymatgen
 data_Cr10Fe31Ni13
_symmetry_space_group_name_H-M   'P 1'
_cell_length_a   7.44047142
_cell_length_b   7.44047142
_cell_length_c   10.52241559
_cell_angle_alpha   90.00000000
_cell_angle_beta   90.00000000
_cell_angle_gamma   90.00000000
_symmetry_Int_Tables_number   1
_chemical_formula_structural   Cr10Fe31Ni13
_chemical_formula_sum   'Cr10 Fe31 Ni13'
_cell_volume   582.52739774
_cell_formula_units_Z   1
loop_
 _symmetry_equiv_pos_site_id
 _symmetry_equiv_pos_as_xyz
  1  'x, y, z'
loop_
 _atom_site_type_symbol
 _atom_site_label
 _atom_site_symmetry_multiplicity
 _atom_site_fract_x
 _atom_site_fract_y
 _atom_site_fract_z
 _atom_site_occupancy
  Fe  Fe0  1  0.99915475  1.00164554  0.99916705  1
  Fe  Fe1  1  0.16875955  0.16683682  0.16911864  1
  Fe  Fe2  1  0.00251553  0.00278151  0.33596668  1
  Fe  Fe3  1  0.00239857  0.33482407  1.00069082  1
  Fe  Fe4  1  0.17027340  0.50279888  0.16620255  1
  Cr  Cr5  1  1.00113120  0.33530975  0.33808052  1
  Ni  Ni6  1  0.00302213  0.66915995  1.00080209  1
  Fe  Fe7  1  0.16834725  0.83530845  0.16741959  1
  Fe  Fe8  1  1.00116843  0.66797315  0.33657316  1
  Cr  Cr9  1  0.33478488  1.00111071  0.99934660  1
  Fe  Fe10  1  0.50226624  0.16801786  0.16745936  1
  Ni  Ni11  1  0.33540967  1.00162090  0.33448839  1
  Fe  Fe12  1  0.33499229  0.33674432  1.00091419  1
  Fe  Fe13  1  0.50155624  0.50310108  0.16457960  1
  Fe  Fe14  1  0.33356392  0.33385625  0.33514783  1
  Fe  Fe15  1  0.33505461  0.66735108  0.00268045  1
  Ni  Ni16  1  0.50213342  0.83736673  0.16699577  1
  Cr  Cr17  1  0.33699467  0.66885754  0.33384950  1
  Fe  Fe18  1  0.66957981  1.00122267  1.00060097  1
  Fe  Fe19  1  0.83435862  0.16686851  0.16629507  1
  Fe  Fe20  1  0.66590927  0.99979303  0.33555772  1
  Ni  Ni21  1  0.66899056  0.33324188  1.00109176  1
  Cr  Cr22  1  0.83637361  0.50287404  0.16486141  1
  Cr  Cr23  1  0.66773401  0.33698897  0.33567143  1
  Ni  Ni24  1  0.66885514  0.66831924  1.00061618  1
  Cr  Cr25  1  0.83565216  0.83542793  0.17051476  1
  Fe  Fe26  1  0.66762724  0.67091772  0.33698575  1
  Fe  Fe27  1  0.16810545  0.16857942  0.50349106  1
  Ni  Ni28  1  1.00156814  0.00301503  0.66932388  1
  Fe  Fe29  1  0.16955939  0.17024853  0.83272565  1
  Ni  Ni30  1  0.16755116  0.49987445  0.50216467  1
  Fe  Fe31  1  0.00325149  0.33381171  0.66775908  1
  Ni  Ni32  1  0.16669183  0.50185180  0.83664794  1
  Cr  Cr33  1  0.16948914  0.83745093  0.50046613  1
  Cr  Cr34  1  1.00096608  0.66839334  0.66850497  1
  Ni  Ni35  1  0.16636444  0.83442862  0.83637117  1
  Cr  Cr36  1  0.49972482  0.16628237  0.50243986  1
  Fe  Fe37  1  0.33398571  1.00107860  0.67137996  1
  Ni  Ni38  1  0.50414243  0.16791955  0.83504812  1
  Fe  Fe39  1  0.50086547  0.50471254  0.50512179  1
  Ni  Ni40  1  0.33454474  0.33455178  0.66696385  1
  Cr  Cr41  1  0.50113949  0.49966765  0.83415999  1
  Ni  Ni42  1  0.50396874  0.83685569  0.50415422  1
  Fe  Fe43  1  0.33403306  0.66854732  0.66840275  1
  Fe  Fe44  1  0.50156188  0.83458722  0.83421026  1
  Fe  Fe45  1  0.83693169  0.16591638  0.50453174  1
  Fe  Fe46  1  0.66946507  1.00137558  0.67018672  1
  Fe  Fe47  1  0.83606031  0.16898980  0.83511123  1
  Ni  Ni48  1  0.83471893  0.50245575  0.50364103  1
  Fe  Fe49  1  0.67141495  0.33403694  0.66899300  1
  Fe  Fe50  1  0.83610949  0.50098224  0.83729411  1
  Fe  Fe51  1  0.83299837  0.83556649  0.50115137  1
  Fe  Fe52  1  0.66753068  0.66965997  0.66772333  1
  Fe  Fe53  1  0.83508962  0.83528144  0.83679404  1
" 