455,Ni24Cr76_18,-230.885457655276, 155.296238458274,Ni24Cr76,"# generated using pymatgen
 data_Cr2Ni7
_symmetry_space_group_name_H-M   'P 1'
_cell_length_a   7.47955909
_cell_length_b   7.47955909
_cell_length_c   10.57769391
_cell_angle_alpha   90.00000000
_cell_angle_beta   90.00000000
_cell_angle_gamma   90.00000000
_symmetry_Int_Tables_number   1
_chemical_formula_structural   Cr2Ni7
_chemical_formula_sum   'Cr12 Ni42'
_cell_volume   591.75643681
_cell_formula_units_Z   6
loop_
 _symmetry_equiv_pos_site_id
 _symmetry_equiv_pos_as_xyz
  1  'x, y, z'
loop_
 _atom_site_type_symbol
 _atom_site_label
 _atom_site_symmetry_multiplicity
 _atom_site_fract_x
 _atom_site_fract_y
 _atom_site_fract_z
 _atom_site_occupancy
  Ni  Ni0  1  0.99795338  0.00126736  0.99792616  1
  Cr  Cr1  1  0.16606759  0.16717448  0.16399987  1
  Ni  Ni2  1  0.99542774  0.99732338  0.33250357  1
  Ni  Ni3  1  0.99888382  0.33143088  0.99846892  1
  Ni  Ni4  1  0.16716971  0.49830139  0.16559052  1
  Cr  Cr5  1  0.99749511  0.33406796  0.33273474  1
  Cr  Cr6  1  0.00015572  0.66453732  0.99859402  1
  Cr  Cr7  1  0.16410294  0.83201468  0.16507056  1
  Ni  Ni8  1  0.99764157  0.66557329  0.33289114  1
  Ni  Ni9  1  0.33415821  0.99903824  0.99736261  1
  Ni  Ni10  1  0.50184535  0.16725673  0.16561902  1
  Cr  Cr11  1  0.33443655  0.99871160  0.33359437  1
  Ni  Ni12  1  0.33287592  0.33330849  0.99903231  1
  Ni  Ni13  1  0.49921753  0.49720623  0.16630017  1
  Ni  Ni14  1  0.33410606  0.33460031  0.33064086  1
  Ni  Ni15  1  0.33305445  0.66514406  0.99885520  1
  Ni  Ni16  1  0.50220502  0.83303016  0.16551635  1
  Cr  Cr17  1  0.33223650  0.66470273  0.33251875  1
  Ni  Ni18  1  0.66537770  0.00108673  -0.00004216  1
  Ni  Ni19  1  0.82957654  0.16469957  0.16552534  1
  Ni  Ni20  1  0.66745220  0.99902926  0.33054291  1
  Ni  Ni21  1  0.66573142  0.33033291  -0.00028529  1
  Ni  Ni22  1  0.83110484  0.49865952  0.16754796  1
  Ni  Ni23  1  0.66623562  0.33238677  0.33077973  1
  Cr  Cr24  1  0.66402084  0.66606927  0.99902258  1
  Ni  Ni25  1  0.83066938  0.83413088  0.16832628  1
  Ni  Ni26  1  0.66744559  0.66607519  0.33092994  1
  Cr  Cr27  1  0.16496187  0.16559751  0.50062241  1
  Ni  Ni28  1  -0.00074568  -0.00058581  0.66705795  1
  Ni  Ni29  1  0.16607261  0.16558978  0.83236196  1
  Ni  Ni30  1  0.16336312  0.50015933  0.49929749  1
  Ni  Ni31  1  0.99798404  0.33351765  0.66628233  1
  Ni  Ni32  1  0.16607445  0.49744835  0.83260351  1
  Ni  Ni33  1  0.16455354  0.83173699  0.49969278  1
  Ni  Ni34  1  0.99848550  0.66455805  0.66574385  1
  Ni  Ni35  1  0.16571982  0.83445222  0.83221540  1
  Cr  Cr36  1  0.50086460  0.16576287  0.49973394  1
  Ni  Ni37  1  0.33267313  0.99874044  0.66703345  1
  Ni  Ni38  1  0.49868094  0.16594155  0.83239919  1
  Cr  Cr39  1  0.50101969  0.49855079  0.49906595  1
  Ni  Ni40  1  0.33139191  0.33164567  0.66781724  1
  Ni  Ni41  1  0.49903171  0.49744782  0.83264195  1
  Ni  Ni42  1  0.49974451  0.83327067  0.49972199  1
  Cr  Cr43  1  0.33182965  0.66735294  0.66637551  1
  Ni  Ni44  1  0.49903428  0.83410146  0.83225403  1
  Ni  Ni45  1  0.83208923  0.16635898  0.49946878  1
  Ni  Ni46  1  0.66556218  -0.00075998  0.66699106  1
  Ni  Ni47  1  0.83273721  0.16558839  0.83249689  1
  Ni  Ni48  1  0.83362366  0.49895345  0.49988631  1
  Ni  Ni49  1  0.66811517  0.33241332  0.66699851  1
  Ni  Ni50  1  0.83238537  0.49779918  0.83005463  1
  Cr  Cr51  1  0.83275943  0.83209301  0.49863281  1
  Ni  Ni52  1  0.66743821  0.66583763  0.66702434  1
  Ni  Ni53  1  0.83273813  0.83410393  0.83079485  1
" 