3474,Ni24Fe10Cr64_11,-213.501942585633, 164.617816566609,Ni24Fe10Cr64,"# generated using pymatgen
 data_Cr36Fe5Ni13
_symmetry_space_group_name_H-M   'P 1'
_cell_length_a   7.54140106
_cell_length_b   7.54140106
_cell_length_c   10.66515166
_cell_angle_alpha   90.00000000
_cell_angle_beta   90.00000000
_cell_angle_gamma   90.00000000
_symmetry_Int_Tables_number   1
_chemical_formula_structural   Cr36Fe5Ni13
_chemical_formula_sum   'Cr36 Fe5 Ni13'
_cell_volume   606.55629002
_cell_formula_units_Z   1
loop_
 _symmetry_equiv_pos_site_id
 _symmetry_equiv_pos_as_xyz
  1  'x, y, z'
loop_
 _atom_site_type_symbol
 _atom_site_label
 _atom_site_symmetry_multiplicity
 _atom_site_fract_x
 _atom_site_fract_y
 _atom_site_fract_z
 _atom_site_occupancy
  Ni  Ni0  1  -0.00294993  0.99449963  -0.00474637  1
  Cr  Cr1  1  0.16155519  0.16152053  0.16403814  1
  Cr  Cr2  1  -0.00211678  0.99349839  0.32745791  1
  Cr  Cr3  1  0.99453680  0.32907768  -0.00374828  1
  Cr  Cr4  1  0.16303953  0.49508775  0.15954986  1
  Fe  Fe5  1  0.99270087  0.33106385  0.32806259  1
  Cr  Cr6  1  -0.00310647  0.66088275  -0.00462623  1
  Ni  Ni7  1  0.16535364  0.82931069  0.16060941  1
  Cr  Cr8  1  0.99462206  0.65937210  0.32824270  1
  Cr  Cr9  1  0.32891506  -0.00483319  -0.00314388  1
  Cr  Cr10  1  0.49457211  0.16399254  0.16199147  1
  Ni  Ni11  1  0.32660180  0.99460458  0.32735079  1
  Fe  Fe12  1  0.32937434  0.32960240  0.99402741  1
  Cr  Cr13  1  0.49518077  0.49524394  0.16045322  1
  Fe  Fe14  1  0.33142126  0.32899954  0.32891749  1
  Ni  Ni15  1  0.32703824  0.66180827  -0.00379843  1
  Ni  Ni16  1  0.48960638  0.82811052  0.16172240  1
  Cr  Cr17  1  0.32834049  0.66401310  0.32812771  1
  Cr  Cr18  1  0.66108851  -0.00296095  0.99441332  1
  Cr  Cr19  1  0.82897876  0.16468145  0.16258393  1
  Cr  Cr20  1  0.65764640  -0.00412371  0.32627083  1
  Ni  Ni21  1  0.66066223  0.32849831  0.99497534  1
  Ni  Ni22  1  0.82694690  0.49110619  0.16322149  1
  Ni  Ni23  1  0.66255877  0.33167534  0.32969181  1
  Cr  Cr24  1  0.66068404  0.66069421  -0.00129552  1
  Cr  Cr25  1  0.82935158  0.82853008  0.15844363  1
  Cr  Cr26  1  0.66215802  0.65843633  0.32753514  1
  Cr  Cr27  1  0.16176767  0.16073759  0.49123809  1
  Cr  Cr28  1  -0.00368677  0.99478901  0.66247453  1
  Cr  Cr29  1  0.16124666  0.16305717  0.83033289  1
  Cr  Cr30  1  0.16291079  0.49451661  0.49480923  1
  Cr  Cr31  1  0.99462631  0.33068206  0.66022072  1
  Ni  Ni32  1  0.16393796  0.49557180  0.83104562  1
  Ni  Ni33  1  0.16282210  0.82914333  0.49388022  1
  Cr  Cr34  1  -0.00413852  0.65963147  0.66155950  1
  Cr  Cr35  1  0.16172817  0.82640113  0.82897631  1
  Cr  Cr36  1  0.49549956  0.16411723  0.49470931  1
  Cr  Cr37  1  0.32863839  -0.00339662  0.65969854  1
  Fe  Fe38  1  0.49539539  0.16503879  0.82971291  1
  Ni  Ni39  1  0.49837710  0.49175420  0.49479249  1
  Cr  Cr40  1  0.33011491  0.32859582  0.66439223  1
  Cr  Cr41  1  0.49379891  0.49521945  0.83017191  1
  Cr  Cr42  1  0.49331256  0.82662125  0.49340903  1
  Cr  Cr43  1  0.32724615  0.66016043  0.66008635  1
  Cr  Cr44  1  0.49569325  0.82600077  0.82901744  1
  Cr  Cr45  1  0.82813674  0.16418875  0.49358986  1
  Cr  Cr46  1  0.66015471  -0.00182598  0.66488994  1
  Cr  Cr47  1  0.82747593  0.16098679  0.82901499  1
  Ni  Ni48  1  0.82491160  0.49134835  0.49383630  1
  Ni  Ni49  1  0.66089030  0.32978565  0.66048592  1
  Cr  Cr50  1  0.82698101  0.49454596  0.82809691  1
  Cr  Cr51  1  0.82940876  0.82798275  0.49814944  1
  Cr  Cr52  1  0.66210351  0.65859262  0.65885200  1
  Fe  Fe53  1  0.82968336  0.82715836  0.83002653  1
" 