4345,Ni24Fe50Cr24_14,-227.979299929288, 189.127341683068,Ni24Fe50Cr24,"# generated using pymatgen
 data_Cr14Fe27Ni13
_symmetry_space_group_name_H-M   'P 1'
_cell_length_a   7.45784919
_cell_length_b   7.45784919
_cell_length_c   10.54699146
_cell_angle_alpha   90.00000000
_cell_angle_beta   90.00000000
_cell_angle_gamma   90.00000000
_symmetry_Int_Tables_number   1
_chemical_formula_structural   Cr14Fe27Ni13
_chemical_formula_sum   'Cr14 Fe27 Ni13'
_cell_volume   586.61854434
_cell_formula_units_Z   1
loop_
 _symmetry_equiv_pos_site_id
 _symmetry_equiv_pos_as_xyz
  1  'x, y, z'
loop_
 _atom_site_type_symbol
 _atom_site_label
 _atom_site_symmetry_multiplicity
 _atom_site_fract_x
 _atom_site_fract_y
 _atom_site_fract_z
 _atom_site_occupancy
  Fe  Fe0  1  1.00012750  0.99691522  0.00343596  1
  Cr  Cr1  1  0.16629019  0.16551942  0.16705942  1
  Ni  Ni2  1  0.00206521  0.99989134  0.33396738  1
  Cr  Cr3  1  0.99901563  0.33513098  0.00221270  1
  Fe  Fe4  1  0.16740454  0.50220994  0.16815377  1
  Fe  Fe5  1  0.99810217  0.33241045  0.33469924  1
  Ni  Ni6  1  0.99951174  0.66925578  0.00180739  1
  Fe  Fe7  1  0.16701464  0.83340812  0.16684010  1
  Fe  Fe8  1  0.99843422  0.66985224  0.33456833  1
  Ni  Ni9  1  0.33699941  0.99930774  0.00122344  1
  Ni  Ni10  1  0.50204353  0.16638892  0.16666019  1
  Fe  Fe11  1  0.33629318  0.99982886  0.33323294  1
  Fe  Fe12  1  0.33509499  0.33244575  0.00189614  1
  Cr  Cr13  1  0.49988341  0.50237338  0.16850027  1
  Fe  Fe14  1  0.33494613  0.33106271  0.33319988  1
  Fe  Fe15  1  0.33291277  0.67080843  0.00149830  1
  Fe  Fe16  1  0.50186267  0.83641440  0.16785813  1
  Fe  Fe17  1  0.33399978  0.67137634  0.33400100  1
  Fe  Fe18  1  0.66711034  0.99894771  0.00212984  1
  Ni  Ni19  1  0.83252055  0.16444650  0.16923636  1
  Fe  Fe20  1  0.66811614  0.99993024  0.33397171  1
  Fe  Fe21  1  0.66593483  0.33156783  0.00232638  1
  Cr  Cr22  1  0.83235364  0.50135049  0.16931918  1
  Ni  Ni23  1  0.66764885  0.33240568  0.33403939  1
  Fe  Fe24  1  0.66814807  0.67087542  0.00089852  1
  Fe  Fe25  1  0.83355859  0.83586947  0.16906175  1
  Ni  Ni26  1  0.66715478  0.66890501  0.33510494  1
  Fe  Fe27  1  0.16755068  0.16370521  0.49919505  1
  Fe  Fe28  1  0.99907376  0.99815128  0.66360155  1
  Cr  Cr29  1  0.16725490  0.16457910  0.83308928  1
  Cr  Cr30  1  0.16788125  0.50120584  0.49901483  1
  Cr  Cr31  1  0.99872335  0.33456482  0.66493722  1
  Cr  Cr32  1  0.16841246  0.50194202  0.83407949  1
  Fe  Fe33  1  0.16665746  0.83449255  0.50060302  1
  Ni  Ni34  1  1.00054309  0.66895910  0.66582724  1
  Cr  Cr35  1  0.16624228  0.83529544  0.83246884  1
  Fe  Fe36  1  0.50154549  0.16550615  0.49844860  1
  Fe  Fe37  1  0.33694995  0.99939052  0.66605283  1
  Fe  Fe38  1  0.49969518  0.16420909  0.83574688  1
  Cr  Cr39  1  0.50135208  0.50261628  0.49904556  1
  Fe  Fe40  1  0.33438119  0.33394646  0.66594237  1
  Cr  Cr41  1  0.50011964  0.50182283  0.83515949  1
  Ni  Ni42  1  0.50098196  0.83604466  0.49937577  1
  Ni  Ni43  1  0.33404821  0.67178364  0.66651643  1
  Ni  Ni44  1  0.50155188  0.83482234  0.83497255  1
  Fe  Fe45  1  0.83302114  0.16555989  0.49755949  1
  Fe  Fe46  1  0.66626598  0.99838967  0.66636131  1
  Cr  Cr47  1  0.83390750  0.16254373  0.83575257  1
  Ni  Ni48  1  0.83432140  0.50218484  0.49876234  1
  Cr  Cr49  1  0.66746003  0.33196474  0.66717783  1
  Fe  Fe50  1  0.83456805  0.50440071  0.83508903  1
  Ni  Ni51  1  0.83383500  0.83528488  0.49995342  1
  Cr  Cr52  1  0.66841977  0.66863724  0.66724546  1
  Fe  Fe53  1  0.83399030  0.83240008  0.83442040  1
" 