1355,Ni24Fe58Cr17_5,-229.867293439077, 191.967810204188,Ni24Fe58Cr17,"# generated using pymatgen
 data_Cr10Fe31Ni13
_symmetry_space_group_name_H-M   'P 1'
_cell_length_a   7.43690253
_cell_length_b   7.43690253
_cell_length_c   10.51736841
_cell_angle_alpha   90.00000000
_cell_angle_beta   90.00000000
_cell_angle_gamma   90.00000000
_symmetry_Int_Tables_number   1
_chemical_formula_structural   Cr10Fe31Ni13
_chemical_formula_sum   'Cr10 Fe31 Ni13'
_cell_volume   581.68955513
_cell_formula_units_Z   1
loop_
 _symmetry_equiv_pos_site_id
 _symmetry_equiv_pos_as_xyz
  1  'x, y, z'
loop_
 _atom_site_type_symbol
 _atom_site_label
 _atom_site_symmetry_multiplicity
 _atom_site_fract_x
 _atom_site_fract_y
 _atom_site_fract_z
 _atom_site_occupancy
  Fe  Fe0  1  0.00428775  0.00231822  1.00058203  1
  Fe  Fe1  1  0.16897366  0.16768624  0.16588757  1
  Fe  Fe2  1  0.00298123  1.00180617  0.33292107  1
  Ni  Ni3  1  0.00327706  0.33715876  1.00037662  1
  Fe  Fe4  1  0.16508180  0.50207570  0.16718297  1
  Fe  Fe5  1  1.00068292  0.33912155  0.33472112  1
  Fe  Fe6  1  0.00308429  0.66770325  0.00249003  1
  Fe  Fe7  1  0.16650791  0.83637553  0.16803626  1
  Ni  Ni8  1  1.00180044  0.66757241  0.33365864  1
  Ni  Ni9  1  0.33518152  1.00072437  0.00309432  1
  Fe  Fe10  1  0.50206421  0.16844712  0.16635249  1
  Fe  Fe11  1  0.33572635  0.00210182  0.33196944  1
  Ni  Ni12  1  0.33384488  0.33687780  0.00372590  1
  Fe  Fe13  1  0.50547072  0.50159735  0.16736279  1
  Cr  Cr14  1  0.33686592  0.33693200  0.33332390  1
  Fe  Fe15  1  0.33457389  0.66745482  0.00264883  1
  Fe  Fe16  1  0.50336295  0.83573284  0.16643570  1
  Cr  Cr17  1  0.33433771  0.66681402  0.33424463  1
  Fe  Fe18  1  0.66863011  1.00103510  0.00216067  1
  Cr  Cr19  1  0.83636670  0.17010672  0.16694446  1
  Cr  Cr20  1  0.66777648  0.00269717  0.33718777  1
  Fe  Fe21  1  0.66841762  0.33759908  1.00161107  1
  Fe  Fe22  1  0.83551399  0.50331190  0.16827587  1
  Ni  Ni23  1  0.66854333  0.33583400  0.33565889  1
  Fe  Fe24  1  0.66838428  0.66762772  1.00171514  1
  Ni  Ni25  1  0.83585803  0.83349568  0.16734754  1
  Fe  Fe26  1  0.66876459  0.66452187  0.33357631  1
  Cr  Cr27  1  0.16962639  0.16956465  0.50134579  1
  Cr  Cr28  1  1.00034448  0.00240739  0.67220294  1
  Ni  Ni29  1  0.17006988  0.16884064  0.83727745  1
  Ni  Ni30  1  0.16729214  0.50142133  0.50389732  1
  Fe  Fe31  1  1.00075295  0.33758719  0.67085656  1
  Fe  Fe32  1  0.16889582  0.49999979  0.83535451  1
  Cr  Cr33  1  0.16904570  0.83513480  0.50213017  1
  Fe  Fe34  1  1.00094298  0.66367187  0.66910765  1
  Fe  Fe35  1  0.17019162  0.83417293  0.83660459  1
  Fe  Fe36  1  0.50253148  0.17246947  0.50379385  1
  Fe  Fe37  1  0.33598414  0.00345508  0.67097086  1
  Cr  Cr38  1  0.49959093  0.17099503  0.83738535  1
  Ni  Ni39  1  0.50407718  0.50135546  0.50362492  1
  Ni  Ni40  1  0.33502742  0.33841185  0.66913451  1
  Fe  Fe41  1  0.50156054  0.50209074  0.83493400  1
  Fe  Fe42  1  0.50085324  0.83216289  0.50336351  1
  Fe  Fe43  1  0.33690937  0.66704056  0.66881937  1
  Fe  Fe44  1  0.50072792  0.83323910  0.83705875  1
  Fe  Fe45  1  0.83567824  0.17394326  0.50160401  1
  Cr  Cr46  1  0.66981546  0.00280655  0.66892557  1
  Fe  Fe47  1  0.83608979  0.17316485  0.83782794  1
  Ni  Ni48  1  0.83404012  0.50135862  0.49996102  1
  Ni  Ni49  1  0.66899303  0.33667120  0.66855360  1
  Ni  Ni50  1  0.83442691  0.50339146  0.83631398  1
  Cr  Cr51  1  0.83577664  0.83075552  0.50053999  1
  Fe  Fe52  1  0.66849626  0.66510271  0.67000261  1
  Fe  Fe53  1  0.83534210  0.83349891  0.83836017  1
" 