7091,Ni24Fe10Cr64_16,-213.137118157769, 164.624821597387,Ni24Fe10Cr64,"# generated using pymatgen
 data_Cr36Fe5Ni13
_symmetry_space_group_name_H-M   'P 1'
_cell_length_a   7.54411606
_cell_length_b   7.54411606
_cell_length_c   10.66899125
_cell_angle_alpha   90.00000000
_cell_angle_beta   90.00000000
_cell_angle_gamma   90.00000000
_symmetry_Int_Tables_number   1
_chemical_formula_structural   Cr36Fe5Ni13
_chemical_formula_sum   'Cr36 Fe5 Ni13'
_cell_volume   607.21163063
_cell_formula_units_Z   1
loop_
 _symmetry_equiv_pos_site_id
 _symmetry_equiv_pos_as_xyz
  1  'x, y, z'
loop_
 _atom_site_type_symbol
 _atom_site_label
 _atom_site_symmetry_multiplicity
 _atom_site_fract_x
 _atom_site_fract_y
 _atom_site_fract_z
 _atom_site_occupancy
  Fe  Fe0  1  0.99241802  -0.00441294  -0.00368273  1
  Cr  Cr1  1  0.16086015  0.15958793  0.16255705  1
  Fe  Fe2  1  0.99329409  -0.00434092  0.32868163  1
  Cr  Cr3  1  -0.00452414  0.32684417  0.99474743  1
  Fe  Fe4  1  0.16025395  0.49554189  0.16176497  1
  Cr  Cr5  1  0.99341008  0.32655728  0.32762817  1
  Cr  Cr6  1  -0.00254955  0.66147623  0.99446280  1
  Cr  Cr7  1  0.16108231  0.82994759  0.16457719  1
  Fe  Fe8  1  -0.00469416  0.66326345  0.32832392  1
  Cr  Cr9  1  0.32862418  0.99343166  0.99450091  1
  Cr  Cr10  1  0.49560400  0.15931385  0.16140158  1
  Ni  Ni11  1  0.32906022  0.99207065  0.32878850  1
  Cr  Cr12  1  0.32775997  0.33056412  -0.00286517  1
  Fe  Fe13  1  0.49815119  0.49606519  0.16069994  1
  Cr  Cr14  1  0.32903522  0.32980342  0.32542343  1
  Cr  Cr15  1  0.32867922  0.66129854  -0.00333249  1
  Ni  Ni16  1  0.49573150  0.82869043  0.16131555  1
  Cr  Cr17  1  0.32825492  0.66166458  0.32647746  1
  Ni  Ni18  1  0.66281675  -0.00505263  -0.00211857  1
  Ni  Ni19  1  0.82688179  0.16044518  0.16086379  1
  Ni  Ni20  1  0.66262312  -0.00499399  0.32687683  1
  Ni  Ni21  1  0.66308308  0.32706858  -0.00232839  1
  Cr  Cr22  1  0.82762534  0.49556120  0.16091668  1
  Cr  Cr23  1  0.66258969  0.32525384  0.32952644  1
  Ni  Ni24  1  0.66034173  0.66286507  -0.00276354  1
  Cr  Cr25  1  0.82699161  0.82854585  0.16102817  1
  Cr  Cr26  1  0.65925396  0.66271407  0.32863656  1
  Cr  Cr27  1  0.16275978  0.15931608  0.49491448  1
  Cr  Cr28  1  0.99325083  -0.00385250  0.66119099  1
  Cr  Cr29  1  0.16272434  0.16207022  0.82692751  1
  Cr  Cr30  1  0.16050293  0.49577068  0.49416935  1
  Ni  Ni31  1  -0.00475481  0.32737034  0.66177097  1
  Ni  Ni32  1  0.16051452  0.49387999  0.82809512  1
  Ni  Ni33  1  0.16203553  0.82982343  0.49260105  1
  Cr  Cr34  1  -0.00355532  0.66191162  0.66158726  1
  Cr  Cr35  1  0.16153575  0.82962343  0.82701436  1
  Cr  Cr36  1  0.49288550  0.16087515  0.49443985  1
  Ni  Ni37  1  0.32617083  0.99323650  0.65992749  1
  Cr  Cr38  1  0.49459006  0.16095394  0.82833336  1
  Ni  Ni39  1  0.49419224  0.49510004  0.49382184  1
  Cr  Cr40  1  0.32731357  0.32969009  0.66194067  1
  Cr  Cr41  1  0.49765333  0.49404132  0.82987588  1
  Cr  Cr42  1  0.49248455  0.83003541  0.49467810  1
  Cr  Cr43  1  0.32793093  0.66269844  0.66162866  1
  Cr  Cr44  1  0.49631635  0.82977132  0.82912640  1
  Ni  Ni45  1  0.82998626  0.16065192  0.49284744  1
  Cr  Cr46  1  0.66256058  -0.00478148  0.66027120  1
  Cr  Cr47  1  0.82703190  0.16256962  0.83056849  1
  Cr  Cr48  1  0.82858794  0.49477702  0.49623668  1
  Cr  Cr49  1  0.66394768  0.32634624  0.65765320  1
  Cr  Cr50  1  0.82797067  0.49513628  0.82736530  1
  Cr  Cr51  1  0.83050865  0.82794552  0.49190660  1
  Cr  Cr52  1  0.66029841  0.66269117  0.66041430  1
  Cr  Cr53  1  0.82607475  0.82674992  0.83276138  1
" 