5764,Ni24Fe10Cr64_18,-213.207031860551, 164.682875119995,Ni24Fe10Cr64,"# generated using pymatgen
 data_Cr36Fe5Ni13
_symmetry_space_group_name_H-M   'P 1'
_cell_length_a   7.54252974
_cell_length_b   7.54252974
_cell_length_c   10.66674785
_cell_angle_alpha   90.00000000
_cell_angle_beta   90.00000000
_cell_angle_gamma   90.00000000
_symmetry_Int_Tables_number   1
_chemical_formula_structural   Cr36Fe5Ni13
_chemical_formula_sum   'Cr36 Fe5 Ni13'
_cell_volume   606.82866992
_cell_formula_units_Z   1
loop_
 _symmetry_equiv_pos_site_id
 _symmetry_equiv_pos_as_xyz
  1  'x, y, z'
loop_
 _atom_site_type_symbol
 _atom_site_label
 _atom_site_symmetry_multiplicity
 _atom_site_fract_x
 _atom_site_fract_y
 _atom_site_fract_z
 _atom_site_occupancy
  Cr  Cr0  1  -0.00472580  0.99472765  0.99443198  1
  Ni  Ni1  1  0.16068250  0.16209876  0.16605402  1
  Ni  Ni2  1  -0.00317910  -0.00449485  0.32895916  1
  Cr  Cr3  1  -0.00407854  0.32957589  0.99350732  1
  Cr  Cr4  1  0.16019123  0.49419431  0.16194016  1
  Fe  Fe5  1  -0.00177181  0.32787116  0.32993445  1
  Ni  Ni6  1  -0.00098213  0.66142178  0.99248833  1
  Cr  Cr7  1  0.16143696  0.82887133  0.15857956  1
  Ni  Ni8  1  -0.00458281  0.66209099  0.33011382  1
  Cr  Cr9  1  0.32826363  0.99484731  -0.00438340  1
  Cr  Cr10  1  0.49329397  0.16236196  0.16312950  1
  Cr  Cr11  1  0.32566836  -0.00228622  0.32750098  1
  Cr  Cr12  1  0.32708475  0.32866634  0.99458242  1
  Cr  Cr13  1  0.49448657  0.49536591  0.16310594  1
  Ni  Ni14  1  0.32478137  0.32719501  0.32984680  1
  Fe  Fe15  1  0.32565478  0.66167103  0.99422103  1
  Ni  Ni16  1  0.49367649  0.82763973  0.16041389  1
  Cr  Cr17  1  0.32638765  0.65924895  0.32776824  1
  Cr  Cr18  1  0.66142911  -0.00359241  0.99486385  1
  Cr  Cr19  1  0.83213547  0.16323503  0.16346788  1
  Cr  Cr20  1  0.66339377  0.99395310  0.32738147  1
  Cr  Cr21  1  0.66220637  0.32654729  0.99313986  1
  Cr  Cr22  1  0.83036350  0.49418739  0.16278264  1
  Ni  Ni23  1  0.66055539  0.32836602  0.32760827  1
  Cr  Cr24  1  0.66265170  0.66203026  -0.00196855  1
  Cr  Cr25  1  0.83086400  0.82752428  0.16369458  1
  Cr  Cr26  1  0.66381380  0.66176987  0.32920220  1
  Ni  Ni27  1  0.15829700  0.16533297  0.49233710  1
  Cr  Cr28  1  0.99497346  -0.00324001  0.66116076  1
  Cr  Cr29  1  0.15952226  0.16205989  0.82663726  1
  Ni  Ni30  1  0.15860117  0.49108679  0.49348885  1
  Ni  Ni31  1  -0.00257071  0.32874912  0.66135779  1
  Ni  Ni32  1  0.16076107  0.49645323  0.82886758  1
  Cr  Cr33  1  0.15965453  0.82988084  0.49473901  1
  Cr  Cr34  1  -0.00469993  0.65868806  0.66117925  1
  Fe  Fe35  1  0.16045307  0.82489590  0.82985456  1
  Cr  Cr36  1  0.49295380  0.16313090  0.49481828  1
  Cr  Cr37  1  0.32699359  -0.00311318  0.66177274  1
  Fe  Fe38  1  0.49579678  0.16229573  0.82821899  1
  Cr  Cr39  1  0.49483816  0.49435671  0.49461061  1
  Cr  Cr40  1  0.32371808  0.32892377  0.66027900  1
  Cr  Cr41  1  0.49331605  0.49667581  0.82785269  1
  Cr  Cr42  1  0.49667155  0.82732641  0.49668494  1
  Cr  Cr43  1  0.32590774  0.65937916  0.66220962  1
  Cr  Cr44  1  0.49247360  0.82770419  0.82813802  1
  Cr  Cr45  1  0.83191892  0.16223618  0.49376449  1
  Cr  Cr46  1  0.66307531  0.99439986  0.66279427  1
  Ni  Ni47  1  0.82956815  0.16203963  0.82722649  1
  Cr  Cr48  1  0.82963527  0.49475507  0.49460779  1
  Cr  Cr49  1  0.66369677  0.32832955  0.66560918  1
  Cr  Cr50  1  0.83086601  0.49386427  0.82817025  1
  Fe  Fe51  1  0.83109730  0.82769631  0.49390015  1
  Ni  Ni52  1  0.66322461  0.66245492  0.66004927  1
  Cr  Cr53  1  0.82935177  0.82834664  0.82710121  1
" 