7442,Ni24Fe50Cr24_15,-227.943972706316, 188.029121622806,Ni24Fe50Cr24,"# generated using pymatgen
 data_Cr14Fe27Ni13
_symmetry_space_group_name_H-M   'P 1'
_cell_length_a   7.45679335
_cell_length_b   7.45679335
_cell_length_c   10.54549829
_cell_angle_alpha   90.00000000
_cell_angle_beta   90.00000000
_cell_angle_gamma   90.00000000
_symmetry_Int_Tables_number   1
_chemical_formula_structural   Cr14Fe27Ni13
_chemical_formula_sum   'Cr14 Fe27 Ni13'
_cell_volume   586.36943054
_cell_formula_units_Z   1
loop_
 _symmetry_equiv_pos_site_id
 _symmetry_equiv_pos_as_xyz
  1  'x, y, z'
loop_
 _atom_site_type_symbol
 _atom_site_label
 _atom_site_symmetry_multiplicity
 _atom_site_fract_x
 _atom_site_fract_y
 _atom_site_fract_z
 _atom_site_occupancy
  Cr  Cr0  1  1.00020643  0.99978292  1.00065200  1
  Ni  Ni1  1  0.16642457  0.16483146  0.16968212  1
  Ni  Ni2  1  1.00005777  0.00080927  0.33591549  1
  Fe  Fe3  1  0.99987142  0.33399051  0.00106042  1
  Fe  Fe4  1  0.16650744  0.49701100  0.16881552  1
  Ni  Ni5  1  0.00218573  0.33316750  0.33358920  1
  Fe  Fe6  1  0.99752140  0.66490011  0.00158999  1
  Cr  Cr7  1  0.16801939  0.83218339  0.16755450  1
  Cr  Cr8  1  0.99690953  0.66721801  0.33594656  1
  Fe  Fe9  1  0.33492691  0.00110517  0.00205249  1
  Ni  Ni10  1  0.49986706  0.16664659  0.16906097  1
  Ni  Ni11  1  0.33508820  0.00201814  0.33363712  1
  Cr  Cr12  1  0.33302915  0.33264114  0.00289089  1
  Cr  Cr13  1  0.50275387  0.50334482  0.17034458  1
  Fe  Fe14  1  0.33287004  0.33064240  0.33449363  1
  Fe  Fe15  1  0.33836120  0.66894938  0.99981679  1
  Fe  Fe16  1  0.50147751  0.83730878  0.16969818  1
  Fe  Fe17  1  0.33617232  0.66975292  0.33588956  1
  Cr  Cr18  1  0.66550900  0.99826163  0.99960683  1
  Cr  Cr19  1  0.83202588  0.16731017  0.17025689  1
  Ni  Ni20  1  0.66586136  0.99818289  0.33600461  1
  Cr  Cr21  1  0.66640957  0.33516653  0.99570876  1
  Fe  Fe22  1  0.83576688  0.50026992  0.16786237  1
  Cr  Cr23  1  0.66704651  0.33492233  0.33842813  1
  Fe  Fe24  1  0.66819456  0.66708634  0.99799210  1
  Fe  Fe25  1  0.83040985  0.83325577  0.16946497  1
  Fe  Fe26  1  0.66730724  0.67003384  0.33830823  1
  Fe  Fe27  1  0.16431034  0.16922795  0.49867403  1
  Ni  Ni28  1  1.00013524  0.00192651  0.66611648  1
  Fe  Fe29  1  0.16714913  0.16864619  0.83281692  1
  Cr  Cr30  1  0.16799876  0.50292397  0.49981022  1
  Ni  Ni31  1  0.00119283  0.33191146  0.66765437  1
  Cr  Cr32  1  0.16783284  0.50382304  0.83384796  1
  Cr  Cr33  1  0.16831062  0.83807911  0.50367501  1
  Fe  Fe34  1  0.99652488  0.66660556  0.66585024  1
  Cr  Cr35  1  0.16807196  0.83582132  0.83120576  1
  Fe  Fe36  1  0.50142455  0.16560880  0.49940839  1
  Fe  Fe37  1  0.33607259  0.00241943  0.66613886  1
  Fe  Fe38  1  0.49873182  0.16589458  0.83234721  1
  Ni  Ni39  1  0.50276411  0.50263187  0.50144728  1
  Cr  Cr40  1  0.33601450  0.33418885  0.66407862  1
  Ni  Ni41  1  0.50278947  0.50152295  0.83099406  1
  Fe  Fe42  1  0.50317898  0.83415766  0.50106779  1
  Fe  Fe43  1  0.33729979  0.66858869  0.66654252  1
  Fe  Fe44  1  0.50163782  0.83192814  0.83138560  1
  Ni  Ni45  1  0.83444555  0.16570831  0.50123644  1
  Fe  Fe46  1  0.66868327  0.00148537  0.66639522  1
  Fe  Fe47  1  0.83510985  0.16731177  0.83018614  1
  Ni  Ni48  1  0.83251618  0.49696068  0.50349232  1
  Fe  Fe49  1  0.67007840  0.33387671  0.66648092  1
  Fe  Fe50  1  0.83382320  0.50203626  0.83017290  1
  Fe  Fe51  1  0.83151711  0.83407195  0.50276165  1
  Ni  Ni52  1  0.66615486  0.66724839  0.66642332  1
  Fe  Fe53  1  0.83257979  0.83173074  0.83059607  1
" 