66,Ni24Fe58Cr17_0,-229.89930005323, 188.000210056189,Ni24Fe58Cr17,"# generated using pymatgen
 data_Cr10Fe31Ni13
_symmetry_space_group_name_H-M   'P 1'
_cell_length_a   7.44564285
_cell_length_b   7.44564285
_cell_length_c   10.52972911
_cell_angle_alpha   90.00000000
_cell_angle_beta   90.00000000
_cell_angle_gamma   90.00000000
_symmetry_Int_Tables_number   1
_chemical_formula_structural   Cr10Fe31Ni13
_chemical_formula_sum   'Cr10 Fe31 Ni13'
_cell_volume   583.74288406
_cell_formula_units_Z   1
loop_
 _symmetry_equiv_pos_site_id
 _symmetry_equiv_pos_as_xyz
  1  'x, y, z'
loop_
 _atom_site_type_symbol
 _atom_site_label
 _atom_site_symmetry_multiplicity
 _atom_site_fract_x
 _atom_site_fract_y
 _atom_site_fract_z
 _atom_site_occupancy
  Ni  Ni0  1  0.00231175  0.00243455  1.00060620  1
  Ni  Ni1  1  0.16704915  0.16864364  0.16757179  1
  Ni  Ni2  1  0.99989994  0.00334468  0.33519468  1
  Fe  Fe3  1  0.00438385  0.33328923  0.00279150  1
  Ni  Ni4  1  0.16754293  0.50022831  0.16859342  1
  Ni  Ni5  1  0.00240658  0.33350500  0.33502200  1
  Fe  Fe6  1  0.00292061  0.66827962  0.00161896  1
  Cr  Cr7  1  0.16885486  0.83546105  0.16942686  1
  Fe  Fe8  1  0.00145640  0.66690716  0.33521086  1
  Fe  Fe9  1  0.33420337  0.00145242  1.00112822  1
  Fe  Fe10  1  0.50174620  0.16742622  0.16776415  1
  Fe  Fe11  1  0.33602379  0.00255576  0.33466825  1
  Fe  Fe12  1  0.33261549  0.33465525  0.00245580  1
  Fe  Fe13  1  0.49908560  0.50138606  0.16745944  1
  Cr  Cr14  1  0.33348304  0.33546601  0.33453957  1
  Fe  Fe15  1  0.33537132  0.66820294  1.00103520  1
  Ni  Ni16  1  0.50213115  0.83610667  0.16834042  1
  Fe  Fe17  1  0.33517159  0.66781155  0.33448593  1
  Fe  Fe18  1  0.66738897  0.99998953  0.00337065  1
  Fe  Fe19  1  0.83566197  0.16630548  0.16875127  1
  Ni  Ni20  1  0.66881378  0.00157037  0.33419986  1
  Fe  Fe21  1  0.66730943  0.33445380  0.00320466  1
  Cr  Cr22  1  0.83578290  0.49985568  0.16820956  1
  Ni  Ni23  1  0.66851656  0.33306990  0.33566028  1
  Fe  Fe24  1  0.66602043  0.66986549  0.00217675  1
  Fe  Fe25  1  0.83490230  0.83763088  0.16745920  1
  Cr  Cr26  1  0.66685047  0.66942747  0.33530002  1
  Ni  Ni27  1  0.16596427  0.16880951  0.50128103  1
  Fe  Fe28  1  1.00080788  0.00269148  0.66752374  1
  Ni  Ni29  1  0.16768079  0.16845389  0.83545881  1
  Fe  Fe30  1  0.16775621  0.50011732  0.50140484  1
  Fe  Fe31  1  0.00311645  0.33355305  0.66636077  1
  Fe  Fe32  1  0.16976496  0.50133540  0.83527296  1
  Cr  Cr33  1  0.16785302  0.83551669  0.49916332  1
  Fe  Fe34  1  0.00164999  0.66806852  0.66748217  1
  Fe  Fe35  1  0.16881791  0.83502182  0.83567158  1
  Fe  Fe36  1  0.50301588  0.16831371  0.50143619  1
  Cr  Cr37  1  0.33496038  0.00207372  0.66897315  1
  Cr  Cr38  1  0.50047775  0.16782434  0.83500098  1
  Ni  Ni39  1  0.50324368  0.50122908  0.50322644  1
  Fe  Fe40  1  0.33423950  0.33600704  0.66703260  1
  Fe  Fe41  1  0.49996387  0.50278647  0.83421359  1
  Fe  Fe42  1  0.50277012  0.83523754  0.50153372  1
  Fe  Fe43  1  0.33665779  0.66656548  0.66879345  1
  Ni  Ni44  1  0.50031254  0.83239263  0.83455461  1
  Fe  Fe45  1  0.83458921  0.16815694  0.50078848  1
  Ni  Ni46  1  0.66869877  0.99964357  0.66640987  1
  Cr  Cr47  1  0.83644919  0.16853462  0.83459431  1
  Fe  Fe48  1  0.83557242  0.49986679  0.50166766  1
  Fe  Fe49  1  0.66695715  0.33515932  0.66533068  1
  Cr  Cr50  1  0.83413526  0.50115672  0.83436497  1
  Fe  Fe51  1  0.83394383  0.83628675  0.50213287  1
  Fe  Fe52  1  0.66600528  0.66887227  0.66669598  1
  Cr  Cr53  1  0.83431118  0.83462030  0.83500539  1
" 