595,Ni24Fe58Cr17_2,-229.680622616208, 186.874687964839,Ni24Fe58Cr17,"# generated using pymatgen
 data_Cr10Fe31Ni13
_symmetry_space_group_name_H-M   'P 1'
_cell_length_a   7.44276173
_cell_length_b   7.44276173
_cell_length_c   10.52565458
_cell_angle_alpha   90.00000000
_cell_angle_beta   90.00000000
_cell_angle_gamma   90.00000000
_symmetry_Int_Tables_number   1
_chemical_formula_structural   Cr10Fe31Ni13
_chemical_formula_sum   'Cr10 Fe31 Ni13'
_cell_volume   583.06550035
_cell_formula_units_Z   1
loop_
 _symmetry_equiv_pos_site_id
 _symmetry_equiv_pos_as_xyz
  1  'x, y, z'
loop_
 _atom_site_type_symbol
 _atom_site_label
 _atom_site_symmetry_multiplicity
 _atom_site_fract_x
 _atom_site_fract_y
 _atom_site_fract_z
 _atom_site_occupancy
  Ni  Ni0  1  0.00265675  0.00183525  1.00162737  1
  Ni  Ni1  1  0.16772606  0.17016643  0.16775423  1
  Fe  Fe2  1  0.00331864  0.00351442  0.33454050  1
  Ni  Ni3  1  0.00336528  0.33388405  1.00063050  1
  Ni  Ni4  1  0.17004003  0.49925496  0.16922184  1
  Ni  Ni5  1  0.00235175  0.33740741  0.33625921  1
  Cr  Cr6  1  0.00298618  0.66836363  0.00334150  1
  Fe  Fe7  1  0.16887677  0.83489290  0.16808792  1
  Fe  Fe8  1  0.00252705  0.66617119  0.33457688  1
  Fe  Fe9  1  0.33408105  0.00364430  0.00271705  1
  Fe  Fe10  1  0.49946529  0.17096006  0.16667712  1
  Cr  Cr11  1  0.33429877  0.00221402  0.33413295  1
  Ni  Ni12  1  0.33605577  0.33491070  1.00151396  1
  Ni  Ni13  1  0.50079877  0.50314668  0.16794541  1
  Ni  Ni14  1  0.33490942  0.33645263  0.33524459  1
  Fe  Fe15  1  0.33604556  0.66685410  0.00306388  1
  Ni  Ni16  1  0.50251681  0.83213698  0.16706978  1
  Fe  Fe17  1  0.33552354  0.66536605  0.33420329  1
  Ni  Ni18  1  0.66720651  0.00250103  1.00117432  1
  Cr  Cr19  1  0.83751075  0.16902782  0.16709865  1
  Cr  Cr20  1  0.66688153  0.00226989  0.33553753  1
  Ni  Ni21  1  0.66547095  0.33425449  1.00158303  1
  Fe  Fe22  1  0.83425261  0.50135330  0.16893795  1
  Ni  Ni23  1  0.66763236  0.33777497  0.33598738  1
  Fe  Fe24  1  0.66613643  0.66720959  0.00426229  1
  Fe  Fe25  1  0.83489204  0.83363592  0.16773221  1
  Fe  Fe26  1  0.66684886  0.66490229  0.33378005  1
  Fe  Fe27  1  0.16745440  0.17061453  0.49988278  1
  Cr  Cr28  1  0.00164474  1.00117156  0.66870072  1
  Fe  Fe29  1  0.16786099  0.16972306  0.83761544  1
  Fe  Fe30  1  0.16778266  0.50165049  0.50105417  1
  Fe  Fe31  1  0.00248024  0.33608985  0.66757017  1
  Fe  Fe32  1  0.17012152  0.50114819  0.83478984  1
  Fe  Fe33  1  0.16867306  0.83262774  0.50150026  1
  Ni  Ni34  1  0.00360209  0.66634526  0.66739828  1
  Fe  Fe35  1  0.16819738  0.83401483  0.83530412  1
  Fe  Fe36  1  0.50258063  0.17065617  0.50201427  1
  Cr  Cr37  1  0.33608017  0.00183136  0.66748533  1
  Fe  Fe38  1  0.50305008  0.17064297  0.83620309  1
  Fe  Fe39  1  0.50187334  0.50123378  0.50070866  1
  Fe  Fe40  1  0.33429139  0.33666322  0.66832166  1
  Fe  Fe41  1  0.50040555  0.49984029  0.83585459  1
  Fe  Fe42  1  0.50094389  0.83300803  0.50216510  1
  Fe  Fe43  1  0.33351063  0.66655467  0.66762456  1
  Cr  Cr44  1  0.50202050  0.83407138  0.83512989  1
  Fe  Fe45  1  0.83485913  0.17154142  0.50098246  1
  Fe  Fe46  1  0.66803772  0.00312199  0.66784871  1
  Fe  Fe47  1  0.83398489  0.16872223  0.83687905  1
  Fe  Fe48  1  0.83524049  0.50001927  0.50171348  1
  Fe  Fe49  1  0.66812572  0.33442283  0.66754738  1
  Cr  Cr50  1  0.83512472  0.49952035  0.83483074  1
  Cr  Cr51  1  0.83427074  0.83444656  0.50185663  1
  Fe  Fe52  1  0.66747365  0.66734977  0.66684834  1
  Cr  Cr53  1  0.83403568  0.83696469  0.83557045  1
" 