7259,Ni24Fe58Cr17_12,-230.062966738927, 193.334588522067,Ni24Fe58Cr17,"# generated using pymatgen
 data_Cr10Fe31Ni13
_symmetry_space_group_name_H-M   'P 1'
_cell_length_a   7.43929172
_cell_length_b   7.43929172
_cell_length_c   10.52074724
_cell_angle_alpha   90.00000000
_cell_angle_beta   90.00000000
_cell_angle_gamma   90.00000000
_symmetry_Int_Tables_number   1
_chemical_formula_structural   Cr10Fe31Ni13
_chemical_formula_sum   'Cr10 Fe31 Ni13'
_cell_volume   582.25035915
_cell_formula_units_Z   1
loop_
 _symmetry_equiv_pos_site_id
 _symmetry_equiv_pos_as_xyz
  1  'x, y, z'
loop_
 _atom_site_type_symbol
 _atom_site_label
 _atom_site_symmetry_multiplicity
 _atom_site_fract_x
 _atom_site_fract_y
 _atom_site_fract_z
 _atom_site_occupancy
  Fe  Fe0  1  0.00352089  0.00299020  0.00252162  1
  Fe  Fe1  1  0.16622745  0.16802281  0.16882569  1
  Fe  Fe2  1  1.00148341  0.00353004  0.33461754  1
  Ni  Ni3  1  1.00100757  0.33505532  1.00077774  1
  Fe  Fe4  1  0.16905555  0.50205414  0.16982909  1
  Ni  Ni5  1  0.00356294  0.33438180  0.33568680  1
  Fe  Fe6  1  0.00393385  0.66829802  1.00138798  1
  Fe  Fe7  1  0.16748419  0.83551713  0.16797270  1
  Fe  Fe8  1  0.00294582  0.66750922  0.33540354  1
  Ni  Ni9  1  0.33438621  0.99940031  0.99955263  1
  Cr  Cr10  1  0.50249465  0.17019520  0.16842567  1
  Fe  Fe11  1  0.33361010  0.00353751  0.33598472  1
  Cr  Cr12  1  0.33250439  0.33536191  1.00152383  1
  Fe  Fe13  1  0.50085630  0.50171450  0.16868215  1
  Fe  Fe14  1  0.33493790  0.33608198  0.33622667  1
  Fe  Fe15  1  0.33333654  0.67044542  1.00135380  1
  Cr  Cr16  1  0.49945635  0.83486227  0.16641137  1
  Fe  Fe17  1  0.33366307  0.66597890  0.33547983  1
  Fe  Fe18  1  0.66873576  0.00297862  1.00079564  1
  Fe  Fe19  1  0.83735966  0.16847189  0.16863618  1
  Cr  Cr20  1  0.67010386  0.00254546  0.33709049  1
  Fe  Fe21  1  0.67088178  0.33430002  1.00155951  1
  Cr  Cr22  1  0.83571788  0.49987395  0.16772499  1
  Ni  Ni23  1  0.66926927  0.33533229  0.33618854  1
  Fe  Fe24  1  0.66832684  0.66831516  1.00110662  1
  Fe  Fe25  1  0.83769477  0.83667089  0.16711870  1
  Cr  Cr26  1  0.66788563  0.66797759  0.33818701  1
  Fe  Fe27  1  0.16857160  0.17044013  0.50179029  1
  Fe  Fe28  1  1.00148269  0.00243305  0.66845639  1
  Fe  Fe29  1  0.16815453  0.16704292  0.83497773  1
  Ni  Ni30  1  0.16727292  0.50071815  0.50077305  1
  Fe  Fe31  1  1.00132532  0.33523535  0.66836312  1
  Fe  Fe32  1  0.16519961  0.50277153  0.83502651  1
  Cr  Cr33  1  0.16787145  0.83530400  0.50082317  1
  Fe  Fe34  1  1.00029379  0.66792828  0.66879974  1
  Ni  Ni35  1  0.17021021  0.83667094  0.83717270  1
  Ni  Ni36  1  0.50258105  0.16931236  0.50287570  1
  Ni  Ni37  1  0.33687670  0.00364916  0.66986081  1
  Fe  Fe38  1  0.50233939  0.16492749  0.83401181  1
  Fe  Fe39  1  0.50213335  0.49967721  0.50181232  1
  Fe  Fe40  1  0.33552326  0.33270423  0.66738213  1
  Cr  Cr41  1  0.50434869  0.50164045  0.83638811  1
  Fe  Fe42  1  0.50280284  0.83668071  0.50366636  1
  Cr  Cr43  1  0.33596141  0.66935389  0.66990491  1
  Ni  Ni44  1  0.49958628  0.83827490  0.83573129  1
  Ni  Ni45  1  0.83386863  0.16996680  0.50156682  1
  Ni  Ni46  1  0.66702050  1.00137921  0.66786412  1
  Fe  Fe47  1  0.83509824  0.16976261  0.83488345  1
  Fe  Fe48  1  0.83587100  0.50012749  0.50256996  1
  Fe  Fe49  1  0.66874923  0.33389552  0.66710561  1
  Ni  Ni50  1  0.83676613  0.49983576  0.83455282  1
  Fe  Fe51  1  0.83467168  0.83569993  0.50381272  1
  Ni  Ni52  1  0.67008867  0.66972678  0.66665307  1
  Cr  Cr53  1  0.83562481  0.83417522  0.83484087  1
" 