8351,Ni24Fe58Cr17_3,-229.672361093321, 187.682361455526,Ni24Fe58Cr17,"# generated using pymatgen
 data_Cr10Fe31Ni13
_symmetry_space_group_name_H-M   'P 1'
_cell_length_a   7.44106281
_cell_length_b   7.44106281
_cell_length_c   10.52325195
_cell_angle_alpha   90.00000000
_cell_angle_beta   90.00000000
_cell_angle_gamma   90.00000000
_symmetry_Int_Tables_number   1
_chemical_formula_structural   Cr10Fe31Ni13
_chemical_formula_sum   'Cr10 Fe31 Ni13'
_cell_volume   582.66631261
_cell_formula_units_Z   1
loop_
 _symmetry_equiv_pos_site_id
 _symmetry_equiv_pos_as_xyz
  1  'x, y, z'
loop_
 _atom_site_type_symbol
 _atom_site_label
 _atom_site_symmetry_multiplicity
 _atom_site_fract_x
 _atom_site_fract_y
 _atom_site_fract_z
 _atom_site_occupancy
  Cr  Cr0  1  0.00367731  1.00011470  0.99981793  1
  Fe  Fe1  1  0.16702420  0.16914399  0.16865453  1
  Ni  Ni2  1  0.00425464  0.00230017  0.33691162  1
  Fe  Fe3  1  0.00308631  0.33253528  1.00027038  1
  Ni  Ni4  1  0.16942535  0.49929879  0.16749248  1
  Fe  Fe5  1  1.00069633  0.33240775  0.33756955  1
  Fe  Fe6  1  0.00310887  0.66846920  1.00077125  1
  Cr  Cr7  1  0.17021485  0.83202566  0.17137317  1
  Fe  Fe8  1  0.00278039  0.66660643  0.33801113  1
  Ni  Ni9  1  0.33458529  0.00232220  0.00179581  1
  Fe  Fe10  1  0.50220454  0.16951551  0.16707427  1
  Fe  Fe11  1  0.33520648  0.00346206  0.33699472  1
  Fe  Fe12  1  0.33510165  0.33271727  0.00322584  1
  Ni  Ni13  1  0.50005213  0.50306508  0.16594401  1
  Cr  Cr14  1  0.33369548  0.33563973  0.33609383  1
  Fe  Fe15  1  0.33486982  0.66915888  1.00072921  1
  Cr  Cr16  1  0.50175587  0.83709285  0.17088308  1
  Fe  Fe17  1  0.33463478  0.66649533  0.33686239  1
  Fe  Fe18  1  0.66704509  0.00413466  1.00025980  1
  Ni  Ni19  1  0.83504937  0.16886670  0.16753199  1
  Ni  Ni20  1  0.67177086  0.00410804  0.33609929  1
  Fe  Fe21  1  0.66669817  0.33229269  1.00060619  1
  Cr  Cr22  1  0.83802468  0.49931738  0.16730310  1
  Cr  Cr23  1  0.66619927  0.33659433  0.33634674  1
  Fe  Fe24  1  0.66720243  0.66980681  1.00080390  1
  Cr  Cr25  1  0.83367831  0.83764046  0.17216219  1
  Ni  Ni26  1  0.66819656  0.66673837  0.33639267  1
  Fe  Fe27  1  0.16603481  0.16543576  0.50425648  1
  Ni  Ni28  1  0.00325236  1.00020835  0.66915024  1
  Fe  Fe29  1  0.17004137  0.16717671  0.83259758  1
  Ni  Ni30  1  0.16720094  0.50090082  0.50327706  1
  Ni  Ni31  1  1.00007945  0.33408598  0.66707940  1
  Cr  Cr32  1  0.16829766  0.49946401  0.83420550  1
  Ni  Ni33  1  0.16977677  0.83332274  0.50271642  1
  Fe  Fe34  1  0.00200144  0.66912391  0.66745270  1
  Fe  Fe35  1  0.17092343  0.83570257  0.83297653  1
  Fe  Fe36  1  0.49926348  0.16692184  0.50330974  1
  Ni  Ni37  1  0.33324404  1.00037802  0.66874903  1
  Fe  Fe38  1  0.49881579  0.16780343  0.83416909  1
  Fe  Fe39  1  0.49900801  0.50505717  0.50215530  1
  Fe  Fe40  1  0.33181031  0.33250141  0.66585509  1
  Fe  Fe41  1  0.50256467  0.50240956  0.83661814  1
  Cr  Cr42  1  0.50334683  0.83767515  0.50059354  1
  Fe  Fe43  1  0.33361238  0.66798594  0.66755126  1
  Fe  Fe44  1  0.50007390  0.83625619  0.83437759  1
  Ni  Ni45  1  0.83506910  0.16757686  0.50278709  1
  Fe  Fe46  1  0.67075318  0.00354619  0.66844971  1
  Fe  Fe47  1  0.83616875  0.17014762  0.83272668  1
  Fe  Fe48  1  0.83854485  0.50435291  0.50183908  1
  Cr  Cr49  1  0.66580521  0.34008381  0.66528654  1
  Fe  Fe50  1  0.83431692  0.50174115  0.83558229  1
  Fe  Fe51  1  0.83918896  0.83625251  0.50030967  1
  Fe  Fe52  1  0.67017206  0.67269944  0.66842652  1
  Fe  Fe53  1  0.83468047  0.83360586  0.83380685  1
" 