8362,Ni24Fe6Cr69_9,-211.384370411779, 159.620009718895,Ni24Fe6Cr69,"# generated using pymatgen
 data_Cr38Fe3Ni13
_symmetry_space_group_name_H-M   'P 1'
_cell_length_a   7.55852660
_cell_length_b   7.55852660
_cell_length_c   10.68937083
_cell_angle_alpha   90.00000000
_cell_angle_beta   90.00000000
_cell_angle_gamma   90.00000000
_symmetry_Int_Tables_number   1
_chemical_formula_structural   Cr38Fe3Ni13
_chemical_formula_sum   'Cr38 Fe3 Ni13'
_cell_volume   610.69791298
_cell_formula_units_Z   1
loop_
 _symmetry_equiv_pos_site_id
 _symmetry_equiv_pos_as_xyz
  1  'x, y, z'
loop_
 _atom_site_type_symbol
 _atom_site_label
 _atom_site_symmetry_multiplicity
 _atom_site_fract_x
 _atom_site_fract_y
 _atom_site_fract_z
 _atom_site_occupancy
  Cr  Cr0  1  0.99213508  0.99328226  -0.00603624  1
  Ni  Ni1  1  0.16257159  0.16136094  0.15749499  1
  Cr  Cr2  1  0.99298621  -0.00406079  0.32675175  1
  Ni  Ni3  1  -0.00517744  0.32436594  -0.00500698  1
  Cr  Cr4  1  0.16179366  0.49130588  0.15839478  1
  Cr  Cr5  1  -0.00568051  0.32645052  0.32954836  1
  Cr  Cr6  1  0.99245364  0.66081168  -0.00507384  1
  Cr  Cr7  1  0.15988809  0.82951106  0.15971525  1
  Cr  Cr8  1  0.99101376  0.65980672  0.32468286  1
  Fe  Fe9  1  0.32665202  -0.00362896  -0.00482744  1
  Fe  Fe10  1  0.49476237  0.16147999  0.16107021  1
  Cr  Cr11  1  0.32869059  -0.00365671  0.32768448  1
  Ni  Ni12  1  0.32864693  0.32307159  -0.00341578  1
  Cr  Cr13  1  0.49541409  0.49222597  0.16088181  1
  Cr  Cr14  1  0.32785157  0.32536679  0.32713310  1
  Cr  Cr15  1  0.32823052  0.66043963  0.99268424  1
  Cr  Cr16  1  0.49508844  0.82819489  0.16408157  1
  Cr  Cr17  1  0.32979765  0.66015492  0.32859714  1
  Cr  Cr18  1  0.65902402  -0.00571367  -0.00363049  1
  Cr  Cr19  1  0.82653543  0.16118442  0.16093620  1
  Ni  Ni20  1  0.65958742  0.99362238  0.32631220  1
  Ni  Ni21  1  0.65878035  0.32536219  -0.00478217  1
  Cr  Cr22  1  0.82512008  0.49281771  0.16105337  1
  Ni  Ni23  1  0.66069878  0.32706536  0.32752517  1
  Cr  Cr24  1  0.66113500  0.66110415  -0.00604167  1
  Ni  Ni25  1  0.82321819  0.82887112  0.16394864  1
  Ni  Ni26  1  0.66124921  0.66128443  0.32921945  1
  Ni  Ni27  1  0.16124846  0.16000767  0.49362576  1
  Cr  Cr28  1  -0.00539297  -0.00586570  0.66063216  1
  Cr  Cr29  1  0.16060842  0.16023081  0.82835804  1
  Cr  Cr30  1  0.15849242  0.49401435  0.49217369  1
  Cr  Cr31  1  0.99299719  0.32789631  0.65652254  1
  Cr  Cr32  1  0.16151186  0.49278527  0.83092567  1
  Cr  Cr33  1  0.16252321  0.82861621  0.49380119  1
  Cr  Cr34  1  0.99324010  0.66016407  0.66208123  1
  Ni  Ni35  1  0.16239890  0.82880443  0.82903043  1
  Cr  Cr36  1  0.49632962  0.15956612  0.49239384  1
  Cr  Cr37  1  0.32793422  -0.00585906  0.65974567  1
  Cr  Cr38  1  0.49465684  0.16281471  0.83035708  1
  Cr  Cr39  1  0.49662474  0.49501602  0.49374452  1
  Cr  Cr40  1  0.32895828  0.32660176  0.65757193  1
  Cr  Cr41  1  0.49548773  0.49184633  0.82690462  1
  Ni  Ni42  1  0.49780453  0.82689443  0.49284239  1
  Cr  Cr43  1  0.32865504  0.66129756  0.66046725  1
  Cr  Cr44  1  0.49249454  0.82794598  0.82526726  1
  Cr  Cr45  1  0.82617130  0.16185960  0.49447813  1
  Cr  Cr46  1  0.65961007  -0.00512747  0.66067124  1
  Cr  Cr47  1  0.82585879  0.16340701  0.82654978  1
  Ni  Ni48  1  0.82158100  0.49369001  0.49326858  1
  Ni  Ni49  1  0.66094573  0.32976654  0.65957657  1
  Cr  Cr50  1  0.82565304  0.49057107  0.82719573  1
  Cr  Cr51  1  0.82530533  0.82675851  0.49115681  1
  Fe  Fe52  1  0.66139093  0.65952347  0.65848319  1
  Cr  Cr53  1  0.82766956  0.82791919  0.82649935  1
" 