4732,Ni24Fe50Cr24_4,-227.848587459517, 185.909185535234,Ni24Fe50Cr24,"# generated using pymatgen
 data_Cr14Fe27Ni13
_symmetry_space_group_name_H-M   'P 1'
_cell_length_a   7.45295131
_cell_length_b   7.45295131
_cell_length_c   10.54006482
_cell_angle_alpha   90.00000000
_cell_angle_beta   90.00000000
_cell_angle_gamma   90.00000000
_symmetry_Int_Tables_number   1
_chemical_formula_structural   Cr14Fe27Ni13
_chemical_formula_sum   'Cr14 Fe27 Ni13'
_cell_volume   585.46353406
_cell_formula_units_Z   1
loop_
 _symmetry_equiv_pos_site_id
 _symmetry_equiv_pos_as_xyz
  1  'x, y, z'
loop_
 _atom_site_type_symbol
 _atom_site_label
 _atom_site_symmetry_multiplicity
 _atom_site_fract_x
 _atom_site_fract_y
 _atom_site_fract_z
 _atom_site_occupancy
  Ni  Ni0  1  0.99643306  0.00291092  1.00090069  1
  Fe  Fe1  1  0.16688998  0.16876418  0.16782704  1
  Fe  Fe2  1  0.00331156  0.00260760  0.33415942  1
  Cr  Cr3  1  0.00149710  0.33183322  0.00213768  1
  Fe  Fe4  1  0.16855297  0.49899266  0.16803876  1
  Fe  Fe5  1  0.00255669  0.33363050  0.33417972  1
  Cr  Cr6  1  0.00389464  0.66693542  0.99527037  1
  Cr  Cr7  1  0.16864744  0.83444597  0.16489906  1
  Ni  Ni8  1  1.00071160  0.66372185  0.33848590  1
  Fe  Fe9  1  0.33551684  1.00012261  0.00164545  1
  Ni  Ni10  1  0.49987921  0.17046889  0.16607961  1
  Cr  Cr11  1  0.33840356  0.00382642  0.33347378  1
  Fe  Fe12  1  0.33602890  0.33364181  0.00230925  1
  Fe  Fe13  1  0.49985140  0.49910736  0.16599240  1
  Ni  Ni14  1  0.33291167  0.33488388  0.33417891  1
  Ni  Ni15  1  0.33855770  0.66508089  1.00016212  1
  Fe  Fe16  1  0.50365227  0.83525181  0.16389216  1
  Cr  Cr17  1  0.33632925  0.66618980  0.33321738  1
  Ni  Ni18  1  0.66724903  0.00220296  1.00010399  1
  Ni  Ni19  1  0.83110225  0.16840323  0.16769961  1
  Cr  Cr20  1  0.66769746  0.99986512  0.33492198  1
  Fe  Fe21  1  0.66500460  0.33173554  0.00095443  1
  Cr  Cr22  1  0.83089639  0.50075721  0.16902214  1
  Fe  Fe23  1  0.66318532  0.33506544  0.33393784  1
  Fe  Fe24  1  0.66634873  0.67123746  0.99909777  1
  Cr  Cr25  1  0.83630388  0.83276751  0.16942817  1
  Fe  Fe26  1  0.66649962  0.66565015  0.33760058  1
  Fe  Fe27  1  0.16849015  0.17018767  0.50198207  1
  Ni  Ni28  1  0.99750521  0.00247926  0.66878327  1
  Cr  Cr29  1  0.17128940  0.16357920  0.83409149  1
  Fe  Fe30  1  0.16730207  0.49964186  0.50116221  1
  Cr  Cr31  1  0.00135798  0.33604332  0.66870732  1
  Fe  Fe32  1  0.17142742  0.50122715  0.83309804  1
  Cr  Cr33  1  0.16834604  0.83647872  0.50409458  1
  Fe  Fe34  1  1.00034723  0.66975013  0.66763820  1
  Fe  Fe35  1  0.16802725  0.83426365  0.83271223  1
  Fe  Fe36  1  0.49954642  0.17031812  0.50191043  1
  Fe  Fe37  1  0.33701085  0.99965732  0.66718751  1
  Fe  Fe38  1  0.50434699  0.16698129  0.83490205  1
  Fe  Fe39  1  0.50007697  0.49833516  0.50148053  1
  Fe  Fe40  1  0.33745066  0.33358916  0.66615738  1
  Fe  Fe41  1  0.49850118  0.49991368  0.83468172  1
  Fe  Fe42  1  0.50195225  0.83439170  0.50303272  1
  Ni  Ni43  1  0.33427398  0.66500295  0.66904930  1
  Fe  Fe44  1  0.50095893  0.83601717  0.83487047  1
  Cr  Cr45  1  0.83310717  0.16973600  0.50101468  1
  Ni  Ni46  1  0.66707562  0.00267515  0.66838137  1
  Ni  Ni47  1  0.83229749  0.16547102  0.83522119  1
  Ni  Ni48  1  0.83209388  0.50113252  0.49936638  1
  Fe  Fe49  1  0.66509800  0.33305476  0.66765809  1
  Cr  Cr50  1  0.82928924  0.49960323  0.83387618  1
  Fe  Fe51  1  0.83503049  0.83394616  0.50175107  1
  Cr  Cr52  1  0.66623071  0.67020862  0.66627612  1
  Ni  Ni53  1  0.83472033  0.83728165  0.83236421  1
" 