8043,Ni24Cr76_2,-230.463654303352, 145.627328017056,Ni24Cr76,"# generated using pymatgen
 data_Cr2Ni7
_symmetry_space_group_name_H-M   'P 1'
_cell_length_a   7.48093306
_cell_length_b   7.48093306
_cell_length_c   10.57963699
_cell_angle_alpha   90.00000000
_cell_angle_beta   90.00000000
_cell_angle_gamma   90.00000000
_symmetry_Int_Tables_number   1
_chemical_formula_structural   Cr2Ni7
_chemical_formula_sum   'Cr12 Ni42'
_cell_volume   592.08260653
_cell_formula_units_Z   6
loop_
 _symmetry_equiv_pos_site_id
 _symmetry_equiv_pos_as_xyz
  1  'x, y, z'
loop_
 _atom_site_type_symbol
 _atom_site_label
 _atom_site_symmetry_multiplicity
 _atom_site_fract_x
 _atom_site_fract_y
 _atom_site_fract_z
 _atom_site_occupancy
  Ni  Ni0  1  0.00204861  0.00119136  0.99834962  1
  Ni  Ni1  1  0.16530826  0.16500344  0.16443896  1
  Ni  Ni2  1  0.00066927  0.00009908  0.33316804  1
  Ni  Ni3  1  0.00111509  0.33110346  -0.00083032  1
  Ni  Ni4  1  0.16904140  0.49813699  0.16473135  1
  Cr  Cr5  1  0.00018382  0.33221703  0.33105869  1
  Cr  Cr6  1  0.00066348  0.66406719  -0.00052166  1
  Ni  Ni7  1  0.16890674  0.83413471  0.16593617  1
  Cr  Cr8  1  0.00197753  0.66538680  0.33338806  1
  Ni  Ni9  1  0.32885770  0.99711522  -0.00080992  1
  Cr  Cr10  1  0.49717429  0.16573439  0.16769957  1
  Ni  Ni11  1  0.33146161  0.99810898  0.33288988  1
  Ni  Ni12  1  0.32888847  0.33423841  0.99898558  1
  Ni  Ni13  1  0.49780968  0.50127309  0.16638788  1
  Ni  Ni14  1  0.33289233  0.33319164  0.33340800  1
  Ni  Ni15  1  0.33340610  0.66587904  -0.00091306  1
  Ni  Ni16  1  0.49671447  0.82978299  0.16618027  1
  Ni  Ni17  1  0.33384099  0.66595013  0.33228484  1
  Cr  Cr18  1  0.66574504  0.99696724  0.99645264  1
  Ni  Ni19  1  0.83486690  0.16610281  0.16641049  1
  Ni  Ni20  1  0.66523571  -0.00085093  0.33461260  1
  Cr  Cr21  1  0.66808222  0.33547732  0.99897755  1
  Ni  Ni22  1  0.83047727  0.49785208  0.16567819  1
  Ni  Ni23  1  0.66530471  0.33323615  0.33330711  1
  Ni  Ni24  1  0.66330765  0.66478058  0.99826527  1
  Cr  Cr25  1  0.83155777  0.83326313  0.16719932  1
  Ni  Ni26  1  0.66347008  0.66470172  0.33275147  1
  Ni  Ni27  1  0.16573128  0.16598374  0.49917302  1
  Ni  Ni28  1  -0.00026093  -0.00090027  0.66581333  1
  Ni  Ni29  1  0.16301217  0.16675144  0.83341806  1
  Ni  Ni30  1  0.16766930  0.49914125  0.50116688  1
  Ni  Ni31  1  0.00065779  0.33260171  0.66617481  1
  Ni  Ni32  1  0.16648924  0.49842177  0.83137456  1
  Ni  Ni33  1  0.16550291  0.83227720  0.49902452  1
  Ni  Ni34  1  0.00091268  0.66557195  0.66539389  1
  Ni  Ni35  1  0.16529703  0.83206913  0.83244398  1
  Ni  Ni36  1  0.49782698  0.16694403  0.49637969  1
  Cr  Cr37  1  0.33092561  0.99766510  0.66489133  1
  Cr  Cr38  1  0.49476080  0.16780014  0.83285205  1
  Ni  Ni39  1  0.49699157  0.49913290  0.49746064  1
  Ni  Ni40  1  0.32951607  0.33463287  0.66477151  1
  Ni  Ni41  1  0.49594826  0.50169439  0.83342487  1
  Ni  Ni42  1  0.49824306  0.83114408  0.49616480  1
  Ni  Ni43  1  0.33044831  0.66448867  0.66579076  1
  Ni  Ni44  1  0.49685818  0.82848634  0.83477080  1
  Ni  Ni45  1  0.83367140  0.16482747  0.49808310  1
  Cr  Cr46  1  0.66660036  0.99857373  0.66554015  1
  Ni  Ni47  1  0.83801416  0.16573160  0.83241078  1
  Ni  Ni48  1  0.83247332  0.49939260  0.49910822  1
  Cr  Cr49  1  0.66584981  0.33263827  0.66471903  1
  Ni  Ni50  1  0.83451419  0.49950017  0.83256298  1
  Ni  Ni51  1  0.83348126  0.83306724  0.49861940  1
  Cr  Cr52  1  0.66483450  0.66618575  0.66672629  1
  Ni  Ni53  1  0.83490850  0.83191769  0.83213893  1
" 