5337,Ni24Fe6Cr69_2,-211.284776974969, 159.523392714456,Ni24Fe6Cr69,"# generated using pymatgen
 data_Cr38Fe3Ni13
_symmetry_space_group_name_H-M   'P 1'
_cell_length_a   7.56134567
_cell_length_b   7.56134567
_cell_length_c   10.69335760
_cell_angle_alpha   90.00000000
_cell_angle_beta   90.00000000
_cell_angle_gamma   90.00000000
_symmetry_Int_Tables_number   1
_chemical_formula_structural   Cr38Fe3Ni13
_chemical_formula_sum   'Cr38 Fe3 Ni13'
_cell_volume   611.38147465
_cell_formula_units_Z   1
loop_
 _symmetry_equiv_pos_site_id
 _symmetry_equiv_pos_as_xyz
  1  'x, y, z'
loop_
 _atom_site_type_symbol
 _atom_site_label
 _atom_site_symmetry_multiplicity
 _atom_site_fract_x
 _atom_site_fract_y
 _atom_site_fract_z
 _atom_site_occupancy
  Cr  Cr0  1  0.99236647  -0.00530438  0.99020154  1
  Cr  Cr1  1  0.15883081  0.15827036  0.15988646  1
  Ni  Ni2  1  -0.00550284  -0.00600381  0.33182613  1
  Cr  Cr3  1  0.99305127  0.32571955  0.98920552  1
  Cr  Cr4  1  0.15868239  0.49313381  0.16049096  1
  Cr  Cr5  1  -0.00553467  0.32307377  0.32944190  1
  Cr  Cr6  1  0.99265244  0.66090609  0.99114309  1
  Cr  Cr7  1  0.15898098  0.82986959  0.15962049  1
  Cr  Cr8  1  -0.00459877  0.66449048  0.32861934  1
  Fe  Fe9  1  0.32620623  -0.00426059  0.99213480  1
  Fe  Fe10  1  0.49293901  0.16071230  0.15997977  1
  Cr  Cr11  1  0.32543039  -0.00621742  0.32767547  1
  Cr  Cr12  1  0.32743049  0.32591318  -0.00542427  1
  Ni  Ni13  1  0.49384106  0.49251503  0.16086137  1
  Cr  Cr14  1  0.32787420  0.32670616  0.32689688  1
  Cr  Cr15  1  0.32738278  0.66019075  -0.00389513  1
  Cr  Cr16  1  0.49351309  0.82916342  0.15821044  1
  Cr  Cr17  1  0.32656822  0.66078720  0.32679139  1
  Cr  Cr18  1  0.66082727  -0.00473401  0.99302642  1
  Cr  Cr19  1  0.82869052  0.15922916  0.16235853  1
  Cr  Cr20  1  0.66234733  -0.00537274  0.32828702  1
  Cr  Cr21  1  0.66051659  0.32560371  -0.00574524  1
  Cr  Cr22  1  0.82723760  0.49324242  0.16035491  1
  Cr  Cr23  1  0.65871147  0.32479022  0.32545153  1
  Cr  Cr24  1  0.66114205  0.66077816  0.99122318  1
  Cr  Cr25  1  0.82884278  0.82886593  0.16199156  1
  Cr  Cr26  1  0.65917190  0.66193783  0.32833146  1
  Fe  Fe27  1  0.15860299  0.15668338  0.49648612  1
  Ni  Ni28  1  -0.00506563  -0.00555115  0.65950549  1
  Ni  Ni29  1  0.15971585  0.15795797  0.82369305  1
  Cr  Cr30  1  0.16038860  0.49203429  0.49448984  1
  Cr  Cr31  1  -0.00617922  0.32249084  0.66251446  1
  Cr  Cr32  1  0.16051242  0.49121207  0.82659991  1
  Ni  Ni33  1  0.15727448  0.83306348  0.49425210  1
  Cr  Cr34  1  0.99200527  0.66448280  0.66161583  1
  Cr  Cr35  1  0.16143534  0.83080455  0.82771182  1
  Cr  Cr36  1  0.49289018  0.16018148  0.49570943  1
  Ni  Ni37  1  0.32186678  -0.00329111  0.66078035  1
  Cr  Cr38  1  0.49078229  0.15886092  0.82666190  1
  Cr  Cr39  1  0.49460006  0.49269443  0.49722239  1
  Ni  Ni40  1  0.32451110  0.32191114  0.66029009  1
  Cr  Cr41  1  0.49432471  0.49374072  0.82263949  1
  Cr  Cr42  1  0.49408331  0.82844465  0.49759088  1
  Cr  Cr43  1  0.32536035  0.66190978  0.65855851  1
  Cr  Cr44  1  0.49367666  0.82866930  0.82499232  1
  Ni  Ni45  1  0.83105988  0.15581504  0.49349423  1
  Cr  Cr46  1  0.66539878  0.99303287  0.66051516  1
  Ni  Ni47  1  0.82975385  0.15867931  0.82591490  1
  Cr  Cr48  1  0.82650241  0.49342331  0.49406676  1
  Cr  Cr49  1  0.66277144  0.32502812  0.66179067  1
  Ni  Ni50  1  0.82564948  0.49405418  0.82625205  1
  Ni  Ni51  1  0.83138578  0.83158493  0.49491451  1
  Ni  Ni52  1  0.66472038  0.66272527  0.66167133  1
  Ni  Ni53  1  0.82765255  0.82863240  0.82440201  1
" 