1937,Ni24Fe58Cr17_14,-230.032102567397, 191.91834502431,Ni24Fe58Cr17,"# generated using pymatgen
 data_Cr10Fe31Ni13
_symmetry_space_group_name_H-M   'P 1'
_cell_length_a   7.43872001
_cell_length_b   7.43872001
_cell_length_c   10.51993872
_cell_angle_alpha   90.00000000
_cell_angle_beta   90.00000000
_cell_angle_gamma   90.00000000
_symmetry_Int_Tables_number   1
_chemical_formula_structural   Cr10Fe31Ni13
_chemical_formula_sum   'Cr10 Fe31 Ni13'
_cell_volume   582.11613169
_cell_formula_units_Z   1
loop_
 _symmetry_equiv_pos_site_id
 _symmetry_equiv_pos_as_xyz
  1  'x, y, z'
loop_
 _atom_site_type_symbol
 _atom_site_label
 _atom_site_symmetry_multiplicity
 _atom_site_fract_x
 _atom_site_fract_y
 _atom_site_fract_z
 _atom_site_occupancy
  Fe  Fe0  1  0.00326794  0.00197849  0.00293837  1
  Fe  Fe1  1  0.16731789  0.16842480  0.16757407  1
  Cr  Cr2  1  1.00171749  0.00229015  0.33344219  1
  Fe  Fe3  1  1.00135607  0.33531149  0.00303819  1
  Ni  Ni4  1  0.16731006  0.50354529  0.16996552  1
  Fe  Fe5  1  1.00135384  0.33702168  0.33457927  1
  Fe  Fe6  1  1.00112881  0.66842520  0.00193769  1
  Fe  Fe7  1  0.17014392  0.83469571  0.16819181  1
  Fe  Fe8  1  0.00204283  0.66766172  0.33595157  1
  Ni  Ni9  1  0.33182866  0.00271947  0.00282721  1
  Cr  Cr10  1  0.50374353  0.16719162  0.16965263  1
  Fe  Fe11  1  0.33701757  0.99956377  0.33552895  1
  Cr  Cr12  1  0.33467323  0.33506426  1.00007231  1
  Fe  Fe13  1  0.50283845  0.50488317  0.16900398  1
  Fe  Fe14  1  0.33509252  0.33668353  0.33560349  1
  Fe  Fe15  1  0.33633916  0.66895603  0.00420605  1
  Ni  Ni16  1  0.50064740  0.83300960  0.17012831  1
  Ni  Ni17  1  0.33640162  0.66714467  0.33459318  1
  Cr  Cr18  1  0.66963009  0.99992830  1.00092108  1
  Ni  Ni19  1  0.83629842  0.17062338  0.16919589  1
  Ni  Ni20  1  0.66886630  1.00087502  0.33728064  1
  Fe  Fe21  1  0.66943872  0.33810709  1.00156545  1
  Fe  Fe22  1  0.83465966  0.50206442  0.16853422  1
  Fe  Fe23  1  0.66926669  0.33586917  0.33601017  1
  Ni  Ni24  1  0.66999165  0.66644704  0.00221824  1
  Fe  Fe25  1  0.83412934  0.83382475  0.16824188  1
  Ni  Ni26  1  0.66719450  0.66851463  0.33493220  1
  Fe  Fe27  1  0.17001580  0.16940843  0.50260831  1
  Cr  Cr28  1  0.00194347  1.00070876  0.66830409  1
  Ni  Ni29  1  0.16925629  0.17050816  0.83540353  1
  Fe  Fe30  1  0.16847784  0.50301672  0.50140219  1
  Fe  Fe31  1  0.00412335  0.33771916  0.66809874  1
  Fe  Fe32  1  0.16755968  0.50132611  0.83464732  1
  Ni  Ni33  1  0.17044345  0.83280912  0.50183934  1
  Ni  Ni34  1  0.00260218  0.66751096  0.66778042  1
  Cr  Cr35  1  0.16828373  0.83430548  0.83689424  1
  Fe  Fe36  1  0.50101878  0.16703446  0.50091882  1
  Fe  Fe37  1  0.33585063  0.00295992  0.66770562  1
  Fe  Fe38  1  0.49919856  0.16889023  0.83478003  1
  Fe  Fe39  1  0.50000803  0.50284404  0.50056675  1
  Fe  Fe40  1  0.33339112  0.33572038  0.66942384  1
  Ni  Ni41  1  0.50144897  0.50134978  0.83684001  1
  Fe  Fe42  1  0.50087320  0.83582915  0.49991851  1
  Fe  Fe43  1  0.33324099  0.66703035  0.66651732  1
  Cr  Cr44  1  0.50175678  0.83463611  0.83447194  1
  Fe  Fe45  1  0.83467737  0.16854932  0.50050242  1
  Fe  Fe46  1  0.66807892  1.00123020  0.66700064  1
  Cr  Cr47  1  0.83589118  0.16913008  0.83617102  1
  Fe  Fe48  1  0.83722626  0.50286965  0.50063619  1
  Cr  Cr49  1  0.66649326  0.33524826  0.66999325  1
  Fe  Fe50  1  0.83654844  0.50430312  0.83654627  1
  Fe  Fe51  1  0.83485630  0.83429361  0.50167109  1
  Cr  Cr52  1  0.67019478  0.66956642  0.66869037  1
  Ni  Ni53  1  0.83566373  0.83319705  0.83535263  1
" 