2474,Ni24Fe10Cr64_3,-212.880924135267, 157.180722882795,Ni24Fe10Cr64,"# generated using pymatgen
 data_Cr36Fe5Ni13
_symmetry_space_group_name_H-M   'P 1'
_cell_length_a   7.55200835
_cell_length_b   7.55200835
_cell_length_c   10.68015264
_cell_angle_alpha   90.00000000
_cell_angle_beta   90.00000000
_cell_angle_gamma   90.00000000
_symmetry_Int_Tables_number   1
_chemical_formula_structural   Cr36Fe5Ni13
_chemical_formula_sum   'Cr36 Fe5 Ni13'
_cell_volume   609.11933149
_cell_formula_units_Z   1
loop_
 _symmetry_equiv_pos_site_id
 _symmetry_equiv_pos_as_xyz
  1  'x, y, z'
loop_
 _atom_site_type_symbol
 _atom_site_label
 _atom_site_symmetry_multiplicity
 _atom_site_fract_x
 _atom_site_fract_y
 _atom_site_fract_z
 _atom_site_occupancy
  Cr  Cr0  1  0.99328939  -0.00236151  -0.00286913  1
  Fe  Fe1  1  0.16165197  0.16178332  0.16278984  1
  Cr  Cr2  1  -0.00552137  -0.00326821  0.32820880  1
  Cr  Cr3  1  -0.00356567  0.32753854  -0.00481949  1
  Ni  Ni4  1  0.16233255  0.49470265  0.16188425  1
  Cr  Cr5  1  -0.00421562  0.32732558  0.32762124  1
  Ni  Ni6  1  -0.00190417  0.65834632  -0.00534612  1
  Cr  Cr7  1  0.16130610  0.82858806  0.16100400  1
  Cr  Cr8  1  -0.00249376  0.65918741  0.32985844  1
  Cr  Cr9  1  0.33028751  -0.00509884  0.99217629  1
  Cr  Cr10  1  0.49091159  0.16088979  0.16340299  1
  Ni  Ni11  1  0.32624722  0.99306069  0.32718842  1
  Cr  Cr12  1  0.32591233  0.32840122  -0.00461893  1
  Cr  Cr13  1  0.49243520  0.49429745  0.16461671  1
  Fe  Fe14  1  0.32440791  0.32771954  0.32753492  1
  Cr  Cr15  1  0.32676898  0.65983103  0.99308140  1
  Ni  Ni16  1  0.49021126  0.82950260  0.16191205  1
  Fe  Fe17  1  0.32526784  0.66228542  0.32770497  1
  Cr  Cr18  1  0.65996571  -0.00428815  0.99411441  1
  Ni  Ni19  1  0.82803227  0.16124590  0.16094986  1
  Cr  Cr20  1  0.66145366  -0.00499116  0.32630616  1
  Cr  Cr21  1  0.66090371  0.32414871  0.99388230  1
  Cr  Cr22  1  0.82886908  0.49512262  0.15829912  1
  Cr  Cr23  1  0.66363344  0.32557453  0.32798719  1
  Cr  Cr24  1  0.65778692  0.66334956  -0.00509988  1
  Cr  Cr25  1  0.82861201  0.82653168  0.15914534  1
  Cr  Cr26  1  0.65841789  0.66259799  0.32715352  1
  Cr  Cr27  1  0.16351603  0.15899768  0.49402181  1
  Cr  Cr28  1  -0.00533628  -0.00433191  0.65774429  1
  Cr  Cr29  1  0.16202889  0.16057202  0.82703599  1
  Ni  Ni30  1  0.16258012  0.49459372  0.49356963  1
  Fe  Fe31  1  -0.00528961  0.32661871  0.66118316  1
  Ni  Ni32  1  0.15981087  0.49476316  0.82818947  1
  Ni  Ni33  1  0.16487249  0.82732479  0.49342091  1
  Cr  Cr34  1  -0.00193136  0.65866682  0.65883818  1
  Cr  Cr35  1  0.15996799  0.82840765  0.82719348  1
  Cr  Cr36  1  0.49346788  0.16183922  0.49503630  1
  Ni  Ni37  1  0.32789383  -0.00521487  0.66189452  1
  Ni  Ni38  1  0.49553985  0.15976802  0.82504413  1
  Cr  Cr39  1  0.49356135  0.49201811  0.49165522  1
  Cr  Cr40  1  0.32648246  0.32928224  0.66251782  1
  Cr  Cr41  1  0.49530434  0.49081756  0.82706318  1
  Cr  Cr42  1  0.49083780  0.83013546  0.49330786  1
  Cr  Cr43  1  0.32628489  0.66174568  0.66065842  1
  Fe  Fe44  1  0.49343448  0.82977707  0.82663485  1
  Ni  Ni45  1  0.82781083  0.16354827  0.49694756  1
  Cr  Cr46  1  0.66061175  -0.00409481  0.66252609  1
  Ni  Ni47  1  0.82574368  0.16224403  0.82555809  1
  Cr  Cr48  1  0.82688919  0.49214057  0.49764721  1
  Ni  Ni49  1  0.66247728  0.32438526  0.66188824  1
  Cr  Cr50  1  0.82930738  0.49386090  0.82750431  1
  Cr  Cr51  1  0.83014421  0.82841289  0.49351861  1
  Cr  Cr52  1  0.65876410  0.66106528  0.66097669  1
  Cr  Cr53  1  0.83046927  0.82688143  0.83060299  1
" 