6970,Ni24Cr76_15,-230.784924610611, 151.085616356133,Ni24Cr76,"# generated using pymatgen
 data_Cr2Ni7
_symmetry_space_group_name_H-M   'P 1'
_cell_length_a   7.47957636
_cell_length_b   7.47957636
_cell_length_c   10.57771833
_cell_angle_alpha   90.00000000
_cell_angle_beta   90.00000000
_cell_angle_gamma   90.00000000
_symmetry_Int_Tables_number   1
_chemical_formula_structural   Cr2Ni7
_chemical_formula_sum   'Cr12 Ni42'
_cell_volume   591.76053553
_cell_formula_units_Z   6
loop_
 _symmetry_equiv_pos_site_id
 _symmetry_equiv_pos_as_xyz
  1  'x, y, z'
loop_
 _atom_site_type_symbol
 _atom_site_label
 _atom_site_symmetry_multiplicity
 _atom_site_fract_x
 _atom_site_fract_y
 _atom_site_fract_z
 _atom_site_occupancy
  Ni  Ni0  1  0.99877533  0.99853000  0.00169098  1
  Ni  Ni1  1  0.16276938  0.16489660  0.16414860  1
  Ni  Ni2  1  0.99665574  0.99853401  0.33147452  1
  Ni  Ni3  1  0.99860364  0.33093891  0.00147789  1
  Cr  Cr4  1  0.16604403  0.49908878  0.16575503  1
  Ni  Ni5  1  0.99727426  0.33202214  0.33262875  1
  Ni  Ni6  1  0.99748439  0.66801842  0.00010675  1
  Ni  Ni7  1  0.16467439  0.83359468  0.16472213  1
  Ni  Ni8  1  0.99839227  0.66693060  0.33399417  1
  Ni  Ni9  1  0.33288711  0.99853721  -0.00069497  1
  Cr  Cr10  1  0.49995745  0.16652984  0.16529158  1
  Cr  Cr11  1  0.33225693  0.99742398  0.33275695  1
  Ni  Ni12  1  0.33400015  0.33187377  0.99829733  1
  Ni  Ni13  1  0.50065353  0.50090131  0.16544499  1
  Ni  Ni14  1  0.33336725  0.33486995  0.33374594  1
  Ni  Ni15  1  0.33511206  0.66707667  -0.00034250  1
  Ni  Ni16  1  0.49986787  0.82996602  0.16450593  1
  Ni  Ni17  1  0.33336372  0.66519835  0.33374816  1
  Ni  Ni18  1  0.66582463  0.99741902  0.99832957  1
  Ni  Ni19  1  0.83484990  0.16568088  0.16583908  1
  Ni  Ni20  1  0.66857985  0.99853700  0.33395838  1
  Ni  Ni21  1  0.66488335  0.33316388  -0.00052248  1
  Ni  Ni22  1  0.83122214  0.49899677  0.16541436  1
  Ni  Ni23  1  0.66684692  0.33313357  0.33375003  1
  Ni  Ni24  1  0.66489053  0.66690380  -0.00052888  1
  Ni  Ni25  1  0.83294493  0.83280960  0.16526657  1
  Ni  Ni26  1  0.66573201  0.66581639  0.33238689  1
  Cr  Cr27  1  0.16515290  0.16825906  0.49859986  1
  Cr  Cr28  1  0.99764955  0.99741541  0.66432145  1
  Cr  Cr29  1  0.16741466  0.16760757  0.83447186  1
  Ni  Ni30  1  0.16582903  0.50090869  0.50014870  1
  Ni  Ni31  1  0.99859786  0.33549887  0.66337861  1
  Cr  Cr32  1  0.16697211  0.49909222  0.83159324  1
  Ni  Ni33  1  0.16489016  0.82805137  0.49869251  1
  Ni  Ni34  1  0.99859651  0.66457714  0.66338494  1
  Cr  Cr35  1  0.16559278  0.83078735  0.83380994  1
  Ni  Ni36  1  0.50178648  0.16834372  0.49930935  1
  Cr  Cr37  1  0.33488081  0.99853150  0.66541877  1
  Ni  Ni38  1  0.49900408  0.16725576  0.83367336  1
  Ni  Ni39  1  0.49875153  0.49899702  0.49961510  1
  Ni  Ni40  1  0.33487650  0.33531464  0.66544526  1
  Ni  Ni41  1  0.49899914  0.49899697  0.83242801  1
  Ni  Ni42  1  0.49987338  0.83014795  0.49873761  1
  Ni  Ni43  1  0.33375572  0.66364000  0.66408064  1
  Ni  Ni44  1  0.50091602  0.83123554  0.83424454  1
  Ni  Ni45  1  0.83081180  0.16740403  0.49757940  1
  Cr  Cr46  1  0.66495682  0.99853276  0.66519875  1
  Cr  Cr47  1  0.83097540  0.16578624  0.83380640  1
  Ni  Ni48  1  0.83290684  0.49899691  0.49982364  1
  Ni  Ni49  1  0.66401309  0.33436596  0.66426031  1
  Cr  Cr50  1  0.83142340  0.50090768  0.83225441  1
  Ni  Ni51  1  0.83272408  0.83108683  0.49815242  1
  Ni  Ni52  1  0.66513457  0.66458905  0.66562900  1
  Ni  Ni53  1  0.83037434  0.83105094  0.83406948  1
" 