5460,Ni24Fe6Cr69_16,-211.299480926992, 158.739525171683,Ni24Fe6Cr69,"# generated using pymatgen
 data_Cr38Fe3Ni13
_symmetry_space_group_name_H-M   'P 1'
_cell_length_a   7.56094523
_cell_length_b   7.56094523
_cell_length_c   10.69279128
_cell_angle_alpha   90.00000000
_cell_angle_beta   90.00000000
_cell_angle_gamma   90.00000000
_symmetry_Int_Tables_number   1
_chemical_formula_structural   Cr38Fe3Ni13
_chemical_formula_sum   'Cr38 Fe3 Ni13'
_cell_volume   611.28434484
_cell_formula_units_Z   1
loop_
 _symmetry_equiv_pos_site_id
 _symmetry_equiv_pos_as_xyz
  1  'x, y, z'
loop_
 _atom_site_type_symbol
 _atom_site_label
 _atom_site_symmetry_multiplicity
 _atom_site_fract_x
 _atom_site_fract_y
 _atom_site_fract_z
 _atom_site_occupancy
  Ni  Ni0  1  0.99272857  -0.00433520  0.99377280  1
  Cr  Cr1  1  0.15861629  0.16348626  0.15881657  1
  Cr  Cr2  1  -0.00406843  0.99225952  0.32986816  1
  Ni  Ni3  1  -0.00566703  0.32779288  0.99068742  1
  Cr  Cr4  1  0.15980849  0.49180001  0.16134956  1
  Ni  Ni5  1  -0.00198919  0.32879457  0.33002514  1
  Cr  Cr6  1  0.99353918  0.65878202  0.99328645  1
  Cr  Cr7  1  0.15864923  0.82567428  0.15892168  1
  Ni  Ni8  1  -0.00319348  0.65696878  0.33017309  1
  Cr  Cr9  1  0.32673620  -0.00592184  0.99329139  1
  Cr  Cr10  1  0.49237550  0.16178595  0.16395975  1
  Cr  Cr11  1  0.32592307  -0.00480574  0.32787577  1
  Cr  Cr12  1  0.32793607  0.32794673  0.99323931  1
  Cr  Cr13  1  0.49094982  0.49273980  0.16363147  1
  Ni  Ni14  1  0.32212204  0.32909672  0.33145241  1
  Cr  Cr15  1  0.32836865  0.65962587  0.99158029  1
  Cr  Cr16  1  0.49396611  0.82702639  0.16047940  1
  Cr  Cr17  1  0.32464186  0.65980935  0.32892428  1
  Cr  Cr18  1  0.65934137  -0.00550278  -0.00590072  1
  Cr  Cr19  1  0.82923283  0.16141663  0.16081599  1
  Ni  Ni20  1  0.66100069  -0.00592831  0.32731981  1
  Cr  Cr21  1  0.66095219  0.32885824  0.99118919  1
  Cr  Cr22  1  0.83067172  0.49211922  0.16102531  1
  Cr  Cr23  1  0.65899728  0.32778803  0.32850655  1
  Cr  Cr24  1  0.65981241  0.65836859  0.99236736  1
  Cr  Cr25  1  0.82812628  0.82705854  0.16255796  1
  Cr  Cr26  1  0.66147267  0.66042756  0.32647068  1
  Ni  Ni27  1  0.16132448  0.16291055  0.49161649  1
  Cr  Cr28  1  -0.00333273  0.99362626  0.65551292  1
  Cr  Cr29  1  0.15994189  0.16056837  0.82903083  1
  Ni  Ni30  1  0.16291718  0.49444939  0.49371752  1
  Cr  Cr31  1  -0.00406273  0.32756587  0.65927129  1
  Fe  Fe32  1  0.16204677  0.49262112  0.82579312  1
  Ni  Ni33  1  0.16195174  0.82358779  0.49423472  1
  Cr  Cr34  1  -0.00294746  0.65861978  0.65804019  1
  Cr  Cr35  1  0.16075293  0.82543464  0.82653985  1
  Cr  Cr36  1  0.49309913  0.16226497  0.49199828  1
  Cr  Cr37  1  0.32581144  0.99351986  0.65978520  1
  Ni  Ni38  1  0.49301360  0.16515543  0.82739851  1
  Ni  Ni39  1  0.48861718  0.49425944  0.49423561  1
  Cr  Cr40  1  0.32690840  0.32788896  0.65861437  1
  Ni  Ni41  1  0.49105703  0.49531168  0.82524319  1
  Cr  Cr42  1  0.49316255  0.82457287  0.49571810  1
  Ni  Ni43  1  0.32714677  0.65806552  0.66087119  1
  Fe  Fe44  1  0.49286730  0.82806616  0.82568630  1
  Cr  Cr45  1  0.82761225  0.16110441  0.49299927  1
  Cr  Cr46  1  0.65904859  -0.00459743  0.66117889  1
  Cr  Cr47  1  0.82842048  0.16033094  0.82704844  1
  Cr  Cr48  1  0.82704934  0.49360292  0.49315772  1
  Cr  Cr49  1  0.65905464  0.32879049  0.66261257  1
  Fe  Fe50  1  0.82798254  0.49262629  0.82705006  1
  Cr  Cr51  1  0.82695433  0.82632944  0.49233936  1
  Cr  Cr52  1  0.65865133  0.65760438  0.66298588  1
  Cr  Cr53  1  0.82859393  0.82728112  0.82632632  1
" 