2520,Ni24Fe10Cr64_1,-212.899081007719, 159.19054630144,Ni24Fe10Cr64,"# generated using pymatgen
 data_Cr36Fe5Ni13
_symmetry_space_group_name_H-M   'P 1'
_cell_length_a   7.54975140
_cell_length_b   7.54975140
_cell_length_c   10.67696082
_cell_angle_alpha   90.00000000
_cell_angle_beta   90.00000000
_cell_angle_gamma   90.00000000
_symmetry_Int_Tables_number   1
_chemical_formula_structural   Cr36Fe5Ni13
_chemical_formula_sum   'Cr36 Fe5 Ni13'
_cell_volume   608.57337966
_cell_formula_units_Z   1
loop_
 _symmetry_equiv_pos_site_id
 _symmetry_equiv_pos_as_xyz
  1  'x, y, z'
loop_
 _atom_site_type_symbol
 _atom_site_label
 _atom_site_symmetry_multiplicity
 _atom_site_fract_x
 _atom_site_fract_y
 _atom_site_fract_z
 _atom_site_occupancy
  Cr  Cr0  1  0.99357794  0.99425069  0.99213138  1
  Cr  Cr1  1  0.16078605  0.16080061  0.16097123  1
  Ni  Ni2  1  0.99202210  -0.00388235  0.33170437  1
  Cr  Cr3  1  -0.00337554  0.32616694  -0.00531981  1
  Ni  Ni4  1  0.16141147  0.49385982  0.16090991  1
  Fe  Fe5  1  -0.00485009  0.32426028  0.32893543  1
  Cr  Cr6  1  -0.00497389  0.66293059  -0.00525574  1
  Cr  Cr7  1  0.16159879  0.82626684  0.16253700  1
  Fe  Fe8  1  0.99379759  0.66281536  0.32759996  1
  Ni  Ni9  1  0.32714459  -0.00378779  0.99287054  1
  Cr  Cr10  1  0.49649779  0.15882417  0.15723518  1
  Cr  Cr11  1  0.32538522  -0.00301064  0.32933053  1
  Ni  Ni12  1  0.32729889  0.32797454  -0.00481505  1
  Cr  Cr13  1  0.49443787  0.49294692  0.15769088  1
  Cr  Cr14  1  0.32584919  0.32825156  0.32775711  1
  Ni  Ni15  1  0.32691851  0.65985507  -0.00393311  1
  Cr  Cr16  1  0.49399577  0.83209325  0.15900928  1
  Cr  Cr17  1  0.32840258  0.65800724  0.32628265  1
  Ni  Ni18  1  0.66121175  -0.00451221  0.99396694  1
  Cr  Cr19  1  0.82544890  0.16093286  0.16311109  1
  Ni  Ni20  1  0.66702333  -0.00521228  0.33045234  1
  Ni  Ni21  1  0.65906543  0.32570325  -0.00547385  1
  Cr  Cr22  1  0.83159656  0.49193913  0.16164706  1
  Cr  Cr23  1  0.65973526  0.32681269  0.32940023  1
  Cr  Cr24  1  0.66211829  0.66206178  0.99205396  1
  Cr  Cr25  1  0.82767642  0.83022449  0.16412561  1
  Cr  Cr26  1  0.66093301  0.66216883  0.33069933  1
  Ni  Ni27  1  0.15756810  0.16191645  0.49609418  1
  Cr  Cr28  1  -0.00510879  -0.00305590  0.66276917  1
  Fe  Fe29  1  0.16197970  0.16174514  0.82764102  1
  Cr  Cr30  1  0.15815118  0.49453499  0.49352032  1
  Ni  Ni31  1  -0.00353945  0.32366761  0.65901927  1
  Cr  Cr32  1  0.16035340  0.49350676  0.82796386  1
  Cr  Cr33  1  0.15998042  0.82929775  0.49403634  1
  Cr  Cr34  1  0.99203281  0.66479073  0.66352862  1
  Cr  Cr35  1  0.16422740  0.82845943  0.82787514  1
  Cr  Cr36  1  0.49549226  0.15881706  0.49425782  1
  Fe  Fe37  1  0.32668888  -0.00325073  0.66119492  1
  Cr  Cr38  1  0.49318607  0.16004031  0.83164096  1
  Fe  Fe39  1  0.49467023  0.49342383  0.49449892  1
  Cr  Cr40  1  0.32595850  0.32553525  0.65888039  1
  Cr  Cr41  1  0.49402676  0.49274145  0.82861157  1
  Cr  Cr42  1  0.49387821  0.82991139  0.49468439  1
  Cr  Cr43  1  0.33007896  0.65957817  0.65909622  1
  Cr  Cr44  1  0.49288688  0.83089541  0.82931332  1
  Ni  Ni45  1  0.83109723  0.16008436  0.49255692  1
  Cr  Cr46  1  0.66555456  0.99330728  0.66002033  1
  Cr  Cr47  1  0.82594670  0.16385291  0.82894817  1
  Cr  Cr48  1  0.83049491  0.49255867  0.49538519  1
  Cr  Cr49  1  0.66117786  0.32735763  0.65875532  1
  Cr  Cr50  1  0.82955802  0.49234451  0.82685744  1
  Ni  Ni51  1  0.82870791  0.83005880  0.49230115  1
  Cr  Cr52  1  0.66163155  0.66269122  0.66043199  1
  Ni  Ni53  1  0.82681433  0.83067625  0.82872097  1
" 