5029,Ni24Fe6Cr69_11,-211.167054164984, 156.860530408335,Ni24Fe6Cr69,"# generated using pymatgen
 data_Cr38Fe3Ni13
_symmetry_space_group_name_H-M   'P 1'
_cell_length_a   7.56278230
_cell_length_b   7.56278230
_cell_length_c   10.69538929
_cell_angle_alpha   90.00000000
_cell_angle_beta   90.00000000
_cell_angle_gamma   90.00000000
_symmetry_Int_Tables_number   1
_chemical_formula_structural   Cr38Fe3Ni13
_chemical_formula_sum   'Cr38 Fe3 Ni13'
_cell_volume   611.73002116
_cell_formula_units_Z   1
loop_
 _symmetry_equiv_pos_site_id
 _symmetry_equiv_pos_as_xyz
  1  'x, y, z'
loop_
 _atom_site_type_symbol
 _atom_site_label
 _atom_site_symmetry_multiplicity
 _atom_site_fract_x
 _atom_site_fract_y
 _atom_site_fract_z
 _atom_site_occupancy
  Cr  Cr0  1  0.99327173  -0.00540479  -0.00540722  1
  Fe  Fe1  1  0.16069087  0.16097752  0.16088098  1
  Ni  Ni2  1  -0.00494948  0.99206794  0.32856969  1
  Cr  Cr3  1  -0.00519161  0.32759344  -0.00314476  1
  Ni  Ni4  1  0.16144849  0.49513814  0.15858936  1
  Cr  Cr5  1  -0.00346767  0.32734138  0.32303635  1
  Cr  Cr6  1  0.99356943  0.65959867  -0.00618761  1
  Cr  Cr7  1  0.16186404  0.82816012  0.15923424  1
  Cr  Cr8  1  -0.00615361  0.66177521  0.32755280  1
  Fe  Fe9  1  0.32730625  -0.00538601  0.99283707  1
  Cr  Cr10  1  0.49553024  0.15991089  0.15987295  1
  Cr  Cr11  1  0.32403822  -0.00547051  0.32701364  1
  Cr  Cr12  1  0.32604316  0.32699822  -0.00609557  1
  Ni  Ni13  1  0.49410154  0.49157941  0.15892589  1
  Cr  Cr14  1  0.32631218  0.32846763  0.32620944  1
  Ni  Ni15  1  0.32685522  0.65822586  -0.00367405  1
  Cr  Cr16  1  0.49094700  0.82561960  0.15789711  1
  Cr  Cr17  1  0.32554458  0.65832726  0.32622482  1
  Cr  Cr18  1  0.66064404  -0.00570645  0.99029168  1
  Cr  Cr19  1  0.82660246  0.16166917  0.16267112  1
  Cr  Cr20  1  0.66291744  0.99163415  0.32916179  1
  Ni  Ni21  1  0.65787903  0.32710480  -0.00490524  1
  Ni  Ni22  1  0.82515736  0.49080402  0.15985424  1
  Ni  Ni23  1  0.65984668  0.32926530  0.32345919  1
  Cr  Cr24  1  0.66087534  0.66029536  -0.00523705  1
  Cr  Cr25  1  0.82802926  0.82787565  0.16103751  1
  Cr  Cr26  1  0.66131535  0.66034492  0.32608845  1
  Cr  Cr27  1  0.15851623  0.15609739  0.49419099  1
  Ni  Ni28  1  -0.00528514  0.98852831  0.65882071  1
  Cr  Cr29  1  0.16097224  0.15653801  0.82650922  1
  Cr  Cr30  1  0.15846177  0.49723790  0.49698374  1
  Cr  Cr31  1  -0.00452220  0.32653226  0.66132920  1
  Cr  Cr32  1  0.15983482  0.49778803  0.82519971  1
  Ni  Ni33  1  0.15596910  0.82971948  0.49575985  1
  Ni  Ni34  1  0.99291478  0.66734728  0.65967270  1
  Cr  Cr35  1  0.16054188  0.82628160  0.82663802  1
  Cr  Cr36  1  0.49464535  0.16049097  0.49420010  1
  Ni  Ni37  1  0.32503068  0.99282790  0.66166582  1
  Ni  Ni38  1  0.49300033  0.15830810  0.82790843  1
  Cr  Cr39  1  0.49581263  0.49249846  0.49201750  1
  Cr  Cr40  1  0.32729266  0.32366436  0.66060986  1
  Cr  Cr41  1  0.49393848  0.49349884  0.82816599  1
  Cr  Cr42  1  0.49012044  0.82773580  0.49286645  1
  Cr  Cr43  1  0.32641447  0.66115404  0.65790889  1
  Cr  Cr44  1  0.48895005  0.82721987  0.82982194  1
  Cr  Cr45  1  0.82807537  0.16060808  0.49112988  1
  Cr  Cr46  1  0.66072167  0.99182966  0.66166956  1
  Cr  Cr47  1  0.82674708  0.16141883  0.82722307  1
  Cr  Cr48  1  0.82704065  0.49276468  0.49375775  1
  Cr  Cr49  1  0.65836223  0.32535213  0.66175318  1
  Cr  Cr50  1  0.82754434  0.49385488  0.82704059  1
  Ni  Ni51  1  0.83339063  0.82859691  0.49586864  1
  Cr  Cr52  1  0.66339211  0.66402910  0.65973476  1
  Fe  Fe53  1  0.82930602  0.82748642  0.82501284  1
" 