4569,Ni24Cr76_8,-230.747020456844, 152.128842363739,Ni24Cr76,"# generated using pymatgen
 data_Cr2Ni7
_symmetry_space_group_name_H-M   'P 1'
_cell_length_a   7.47877676
_cell_length_b   7.47877676
_cell_length_c   10.57658752
_cell_angle_alpha   90.00000000
_cell_angle_beta   90.00000000
_cell_angle_gamma   90.00000000
_symmetry_Int_Tables_number   1
_chemical_formula_structural   Cr2Ni7
_chemical_formula_sum   'Cr12 Ni42'
_cell_volume   591.57077018
_cell_formula_units_Z   6
loop_
 _symmetry_equiv_pos_site_id
 _symmetry_equiv_pos_as_xyz
  1  'x, y, z'
loop_
 _atom_site_type_symbol
 _atom_site_label
 _atom_site_symmetry_multiplicity
 _atom_site_fract_x
 _atom_site_fract_y
 _atom_site_fract_z
 _atom_site_occupancy
  Ni  Ni0  1  0.00004011  0.99803386  0.99816118  1
  Ni  Ni1  1  0.16737454  0.16611281  0.16624490  1
  Ni  Ni2  1  0.00308321  0.99906334  0.33307668  1
  Ni  Ni3  1  0.99915104  0.33271851  -0.00061693  1
  Ni  Ni4  1  0.16427670  0.49951161  0.16641292  1
  Ni  Ni5  1  -0.00067511  0.33294767  0.33297577  1
  Ni  Ni6  1  0.99809833  0.66689484  0.00066941  1
  Ni  Ni7  1  0.16393868  0.83202315  0.16664664  1
  Ni  Ni8  1  0.00114347  0.66563698  0.33080018  1
  Ni  Ni9  1  0.33225185  -0.00002355  0.99859676  1
  Ni  Ni10  1  0.49678352  0.16700868  0.16558797  1
  Ni  Ni11  1  0.33026691  -0.00005138  0.33393350  1
  Ni  Ni12  1  0.33297116  0.33060691  -0.00072133  1
  Cr  Cr13  1  0.49800088  0.49690533  0.16512700  1
  Ni  Ni14  1  0.33174034  0.32977879  0.33178988  1
  Ni  Ni15  1  0.33208104  0.66706450  0.99852896  1
  Cr  Cr16  1  0.49817885  0.83398387  0.16469624  1
  Ni  Ni17  1  0.32903664  0.66792163  0.33294089  1
  Ni  Ni18  1  0.66535654  0.99892367  0.99773688  1
  Cr  Cr19  1  0.83292138  0.16593217  0.16534104  1
  Cr  Cr20  1  0.66455170  0.00151302  0.33343706  1
  Ni  Ni21  1  0.66552532  0.33254879  0.99767484  1
  Ni  Ni22  1  0.83529037  0.50024948  0.16575366  1
  Ni  Ni23  1  0.66658221  0.33172014  0.33396552  1
  Ni  Ni24  1  0.66746854  0.66617496  0.99712966  1
  Ni  Ni25  1  0.83618899  0.83072461  0.16415258  1
  Cr  Cr26  1  0.66770990  0.66440994  0.33282948  1
  Ni  Ni27  1  0.16518835  0.16469820  0.49849726  1
  Ni  Ni28  1  0.00006940  0.00011607  0.66640941  1
  Ni  Ni29  1  0.16518748  0.16493307  0.83290592  1
  Cr  Cr30  1  0.16421447  0.49864372  0.49854196  1
  Ni  Ni31  1  0.99706954  0.33127476  0.66528892  1
  Cr  Cr32  1  0.16592869  0.49821103  0.83294420  1
  Ni  Ni33  1  0.16610472  0.83446788  0.49720352  1
  Ni  Ni34  1  0.99631466  0.66625745  0.66617850  1
  Ni  Ni35  1  0.16429494  0.83425876  0.83379779  1
  Ni  Ni36  1  0.49855555  0.16664318  0.49776102  1
  Cr  Cr37  1  0.33108769  0.00045349  0.66536876  1
  Ni  Ni38  1  0.49935577  0.16762289  0.83429826  1
  Cr  Cr39  1  0.50033327  0.49800087  0.49961035  1
  Ni  Ni40  1  0.33336164  0.33020705  0.66658003  1
  Ni  Ni41  1  0.50171070  0.49862017  0.83290923  1
  Ni  Ni42  1  0.49674480  0.83341658  0.49830239  1
  Cr  Cr43  1  0.33343641  0.66714085  0.66642610  1
  Ni  Ni44  1  0.50041373  0.83140320  0.83464963  1
  Ni  Ni45  1  0.83390362  0.16886556  0.49929257  1
  Cr  Cr46  1  0.66608504  -0.00021269  0.66622281  1
  Ni  Ni47  1  0.83310430  0.16623042  0.83276599  1
  Ni  Ni48  1  0.83285144  0.49667269  0.49997751  1
  Ni  Ni49  1  0.66721745  0.33396230  0.66600719  1
  Ni  Ni50  1  0.83025062  0.49951221  0.83191540  1
  Cr  Cr51  1  0.83479133  0.83228064  0.50004403  1
  Ni  Ni52  1  0.66780476  0.66373574  0.66743890  1
  Ni  Ni53  1  0.83293773  0.83190480  0.83344620  1
" 