4620,Ni24Fe58Cr17_11,-229.836037299607, 187.906781152421,Ni24Fe58Cr17,"# generated using pymatgen
 data_Cr10Fe31Ni13
_symmetry_space_group_name_H-M   'P 1'
_cell_length_a   7.44404080
_cell_length_b   7.44404080
_cell_length_c   10.52746345
_cell_angle_alpha   90.00000000
_cell_angle_beta   90.00000000
_cell_angle_gamma   90.00000000
_symmetry_Int_Tables_number   1
_chemical_formula_structural   Cr10Fe31Ni13
_chemical_formula_sum   'Cr10 Fe31 Ni13'
_cell_volume   583.36615842
_cell_formula_units_Z   1
loop_
 _symmetry_equiv_pos_site_id
 _symmetry_equiv_pos_as_xyz
  1  'x, y, z'
loop_
 _atom_site_type_symbol
 _atom_site_label
 _atom_site_symmetry_multiplicity
 _atom_site_fract_x
 _atom_site_fract_y
 _atom_site_fract_z
 _atom_site_occupancy
  Fe  Fe0  1  0.99996429  1.00115658  0.99899654  1
  Fe  Fe1  1  0.16713956  0.16954981  0.16846732  1
  Ni  Ni2  1  0.99959441  0.00228534  0.33414112  1
  Fe  Fe3  1  1.00132035  0.33425105  0.99948117  1
  Fe  Fe4  1  0.16847243  0.49761820  0.16695234  1
  Ni  Ni5  1  0.00154856  0.33336220  0.33605343  1
  Ni  Ni6  1  0.99953978  0.67097233  1.00072762  1
  Cr  Cr7  1  0.16612825  0.83220766  0.16954398  1
  Ni  Ni8  1  0.00269249  0.66877555  0.33737359  1
  Fe  Fe9  1  0.33205188  1.00081688  0.99985585  1
  Cr  Cr10  1  0.50241046  0.16714537  0.17164198  1
  Fe  Fe11  1  0.32970647  0.00533254  0.33766120  1
  Fe  Fe12  1  0.33374073  0.33588101  1.00092555  1
  Fe  Fe13  1  0.50337131  0.49970494  0.16766170  1
  Fe  Fe14  1  0.33075670  0.33318090  0.33898834  1
  Fe  Fe15  1  0.33546991  0.66785305  1.00115783  1
  Cr  Cr16  1  0.50522944  0.83658201  0.17030514  1
  Cr  Cr17  1  0.33630095  0.66407726  0.33702691  1
  Fe  Fe18  1  0.67290483  0.99844748  0.99825403  1
  Cr  Cr19  1  0.83427065  0.16841912  0.16881727  1
  Fe  Fe20  1  0.67401759  0.00264985  0.33939260  1
  Fe  Fe21  1  0.66996927  0.33730047  1.00093737  1
  Cr  Cr22  1  0.83956827  0.50249471  0.17030354  1
  Ni  Ni23  1  0.66613535  0.33494909  0.33883447  1
  Fe  Fe24  1  0.67041403  0.66859265  0.99838542  1
  Fe  Fe25  1  0.83531699  0.83491063  0.17003053  1
  Fe  Fe26  1  0.67391758  0.66684422  0.33815053  1
  Fe  Fe27  1  0.16330381  0.16462765  0.50143518  1
  Ni  Ni28  1  0.99905341  0.00182424  0.66947302  1
  Fe  Fe29  1  0.16554552  0.16787850  0.83409077  1
  Fe  Fe30  1  0.16151445  0.50072538  0.50250598  1
  Ni  Ni31  1  1.00092269  0.33253143  0.66856695  1
  Cr  Cr32  1  0.16415682  0.50650085  0.83368964  1
  Fe  Fe33  1  0.16377531  0.83867810  0.50182149  1
  Fe  Fe34  1  0.99672429  0.66994848  0.66622438  1
  Fe  Fe35  1  0.16646419  0.83938168  0.83519696  1
  Ni  Ni36  1  0.50323506  0.16801675  0.50071276  1
  Fe  Fe37  1  0.33276377  1.00099277  0.66783138  1
  Cr  Cr38  1  0.50571883  0.16594030  0.83171192  1
  Fe  Fe39  1  0.50772017  0.50157532  0.50283572  1
  Cr  Cr40  1  0.33580557  0.33496108  0.66351781  1
  Fe  Fe41  1  0.50410927  0.50189149  0.83413837  1
  Cr  Cr42  1  0.50164945  0.83863289  0.50242063  1
  Fe  Fe43  1  0.33322168  0.67144149  0.66756355  1
  Fe  Fe44  1  0.50238063  0.83255793  0.83326830  1
  Ni  Ni45  1  0.83514303  0.16851800  0.50276133  1
  Ni  Ni46  1  0.67151182  0.99944748  0.66702430  1
  Ni  Ni47  1  0.83507449  0.16952405  0.83387402  1
  Fe  Fe48  1  0.83518390  0.50054789  0.50162598  1
  Fe  Fe49  1  0.67373862  0.33330146  0.66550536  1
  Fe  Fe50  1  0.83246046  0.50052224  0.83426407  1
  Ni  Ni51  1  0.83695057  0.83481962  0.50036219  1
  Ni  Ni52  1  0.66771730  0.66828863  0.66876569  1
  Fe  Fe53  1  0.83564953  0.83501056  0.83219203  1
" 