7294,Ni24Fe58Cr17_9,-229.695899077419, 189.181552952112,Ni24Fe58Cr17,"# generated using pymatgen
 data_Cr10Fe31Ni13
_symmetry_space_group_name_H-M   'P 1'
_cell_length_a   7.43935989
_cell_length_b   7.43935989
_cell_length_c   10.52084365
_cell_angle_alpha   90.00000000
_cell_angle_beta   90.00000000
_cell_angle_gamma   90.00000000
_symmetry_Int_Tables_number   1
_chemical_formula_structural   Cr10Fe31Ni13
_chemical_formula_sum   'Cr10 Fe31 Ni13'
_cell_volume   582.26636518
_cell_formula_units_Z   1
loop_
 _symmetry_equiv_pos_site_id
 _symmetry_equiv_pos_as_xyz
  1  'x, y, z'
loop_
 _atom_site_type_symbol
 _atom_site_label
 _atom_site_symmetry_multiplicity
 _atom_site_fract_x
 _atom_site_fract_y
 _atom_site_fract_z
 _atom_site_occupancy
  Fe  Fe0  1  1.00144590  0.00222564  1.00117742  1
  Fe  Fe1  1  0.16938723  0.17009891  0.16903459  1
  Ni  Ni2  1  0.99924756  0.00311736  0.33486834  1
  Fe  Fe3  1  0.00239580  0.33397852  0.00205560  1
  Ni  Ni4  1  0.16824167  0.50044305  0.16928457  1
  Ni  Ni5  1  0.00203471  0.33494274  0.33411083  1
  Ni  Ni6  1  1.00102341  0.66777440  1.00167189  1
  Cr  Cr7  1  0.16852188  0.83497311  0.16937228  1
  Fe  Fe8  1  0.00224058  0.66815445  0.33660838  1
  Ni  Ni9  1  0.33731463  0.00312624  1.00072958  1
  Ni  Ni10  1  0.50160968  0.16619419  0.16821174  1
  Fe  Fe11  1  0.33612117  1.00185969  0.33407104  1
  Fe  Fe12  1  0.33394229  0.33303558  0.00285058  1
  Cr  Cr13  1  0.49993870  0.50217506  0.16813792  1
  Fe  Fe14  1  0.33403505  0.33528300  0.33487772  1
  Fe  Fe15  1  0.33450311  0.67050215  0.00275544  1
  Ni  Ni16  1  0.50264128  0.83785590  0.16824176  1
  Ni  Ni17  1  0.33549228  0.66787487  0.33616629  1
  Fe  Fe18  1  0.66811922  1.00166819  1.00167739  1
  Fe  Fe19  1  0.83515193  0.16717590  0.16859686  1
  Fe  Fe20  1  0.66880159  1.00163745  0.33531940  1
  Fe  Fe21  1  0.66924621  0.33246005  1.00104889  1
  Cr  Cr22  1  0.83730591  0.50222706  0.16743603  1
  Fe  Fe23  1  0.66908408  0.33370374  0.33660466  1
  Fe  Fe24  1  0.66906490  0.67145586  1.00084147  1
  Fe  Fe25  1  0.83353713  0.83640689  0.16898525  1
  Fe  Fe26  1  0.66927093  0.67024134  0.33752320  1
  Cr  Cr27  1  0.16842983  0.16617490  0.50123003  1
  Fe  Fe28  1  0.99991328  1.00062893  0.66874665  1
  Fe  Fe29  1  0.16843450  0.16553781  0.83657710  1
  Fe  Fe30  1  0.16752447  0.50375414  0.49806886  1
  Cr  Cr31  1  0.99898313  0.33465351  0.66903773  1
  Cr  Cr32  1  0.16767750  0.50241799  0.83853667  1
  Fe  Fe33  1  0.16744578  0.83473342  0.49979009  1
  Cr  Cr34  1  0.99955966  0.66931873  0.66643121  1
  Fe  Fe35  1  0.16820626  0.83846770  0.83736936  1
  Fe  Fe36  1  0.50523383  0.16764349  0.50107082  1
  Fe  Fe37  1  0.33665635  1.00068854  0.66991182  1
  Fe  Fe38  1  0.50285555  0.16610835  0.83637515  1
  Fe  Fe39  1  0.50417777  0.50279492  0.50063748  1
  Cr  Cr40  1  0.33645948  0.33344987  0.66753755  1
  Cr  Cr41  1  0.50499202  0.50241437  0.83669027  1
  Fe  Fe42  1  0.50369941  0.83514719  0.50105072  1
  Cr  Cr43  1  0.33630935  0.67095529  0.66725356  1
  Fe  Fe44  1  0.50307740  0.83790442  0.83608220  1
  Fe  Fe45  1  0.83346829  0.16756571  0.50140322  1
  Ni  Ni46  1  0.66820948  1.00173973  0.66872638  1
  Ni  Ni47  1  0.83488952  0.16700106  0.83437771  1
  Ni  Ni48  1  0.83299791  0.50297372  0.50247467  1
  Fe  Fe49  1  0.66969197  0.33485335  0.66792832  1
  Fe  Fe50  1  0.83373200  0.50179999  0.83634474  1
  Ni  Ni51  1  0.83451408  0.83471631  0.50138779  1
  Ni  Ni52  1  0.66933315  0.67068967  0.66813788  1
  Fe  Fe53  1  0.83429746  0.83576387  0.83505112  1
" 