5236,Ni24Fe6Cr69_15,-211.282669069219, 157.45938562111,Ni24Fe6Cr69,"# generated using pymatgen
 data_Cr38Fe3Ni13
_symmetry_space_group_name_H-M   'P 1'
_cell_length_a   7.55992168
_cell_length_b   7.55992168
_cell_length_c   10.69134377
_cell_angle_alpha   90.00000000
_cell_angle_beta   90.00000000
_cell_angle_gamma   90.00000000
_symmetry_Int_Tables_number   1
_chemical_formula_structural   Cr38Fe3Ni13
_chemical_formula_sum   'Cr38 Fe3 Ni13'
_cell_volume   611.03612513
_cell_formula_units_Z   1
loop_
 _symmetry_equiv_pos_site_id
 _symmetry_equiv_pos_as_xyz
  1  'x, y, z'
loop_
 _atom_site_type_symbol
 _atom_site_label
 _atom_site_symmetry_multiplicity
 _atom_site_fract_x
 _atom_site_fract_y
 _atom_site_fract_z
 _atom_site_occupancy
  Cr  Cr0  1  -0.00528139  0.99300401  0.99331854  1
  Cr  Cr1  1  0.16180337  0.16140325  0.16248794  1
  Cr  Cr2  1  -0.00517302  0.99385583  0.32775673  1
  Cr  Cr3  1  -0.00537775  0.32797059  -0.00559734  1
  Cr  Cr4  1  0.16218893  0.49523581  0.16039334  1
  Cr  Cr5  1  -0.00418180  0.32907483  0.32807869  1
  Cr  Cr6  1  0.99381478  0.66070885  0.99291990  1
  Cr  Cr7  1  0.15986839  0.82539550  0.16008128  1
  Ni  Ni8  1  0.99353447  0.65858387  0.32931863  1
  Cr  Cr9  1  0.32930247  0.99181539  0.99185188  1
  Cr  Cr10  1  0.49393369  0.16098098  0.16139802  1
  Cr  Cr11  1  0.32694901  -0.00468428  0.32870081  1
  Cr  Cr12  1  0.32682446  0.32687917  -0.00613968  1
  Cr  Cr13  1  0.49114383  0.49390866  0.16044008  1
  Ni  Ni14  1  0.32422274  0.32875778  0.33011488  1
  Fe  Fe15  1  0.32867497  0.66359281  0.99244848  1
  Ni  Ni16  1  0.49509294  0.82782871  0.15794819  1
  Cr  Cr17  1  0.32794829  0.66009045  0.32615431  1
  Ni  Ni18  1  0.65722624  0.99028723  0.99342713  1
  Cr  Cr19  1  0.82585656  0.15757500  0.15782409  1
  Cr  Cr20  1  0.65912413  0.99059741  0.32508021  1
  Cr  Cr21  1  0.65981403  0.32749296  0.99166686  1
  Cr  Cr22  1  0.82854058  0.49522973  0.16083002  1
  Cr  Cr23  1  0.66100537  0.33008549  0.32912811  1
  Cr  Cr24  1  0.65818276  0.66296392  -0.00439711  1
  Ni  Ni25  1  0.82623010  0.82695793  0.16064484  1
  Cr  Cr26  1  0.66223985  0.66079212  0.32572226  1
  Ni  Ni27  1  0.16237957  0.16485232  0.49373241  1
  Cr  Cr28  1  -0.00310184  -0.00530728  0.66071712  1
  Cr  Cr29  1  0.16164283  0.16083742  0.82723600  1
  Ni  Ni30  1  0.16029265  0.49349881  0.49446379  1
  Cr  Cr31  1  -0.00513250  0.32861434  0.65939432  1
  Cr  Cr32  1  0.16203308  0.49706588  0.82767234  1
  Cr  Cr33  1  0.16066757  0.82434990  0.49556440  1
  Fe  Fe34  1  -0.00263121  0.65919831  0.65941935  1
  Ni  Ni35  1  0.16413850  0.82432491  0.82591231  1
  Cr  Cr36  1  0.49243568  0.16235323  0.49446837  1
  Cr  Cr37  1  0.32690864  -0.00610806  0.66143337  1
  Ni  Ni38  1  0.49386083  0.15952020  0.82605989  1
  Cr  Cr39  1  0.49143695  0.49319904  0.49487254  1
  Ni  Ni40  1  0.32571660  0.32887619  0.65939375  1
  Cr  Cr41  1  0.49216013  0.49332697  0.82614088  1
  Cr  Cr42  1  0.49265091  0.82613793  0.49396953  1
  Ni  Ni43  1  0.32611092  0.65858552  0.66297927  1
  Ni  Ni44  1  0.49165392  0.82727638  0.82834904  1
  Cr  Cr45  1  0.82600824  0.16002380  0.49489020  1
  Cr  Cr46  1  0.65763535  0.99234262  0.66237230  1
  Cr  Cr47  1  0.82379237  0.15979598  0.82848913  1
  Ni  Ni48  1  0.83069511  0.49488837  0.49494510  1
  Fe  Fe49  1  0.65791986  0.32731313  0.66054038  1
  Cr  Cr50  1  0.82733994  0.49415959  0.82482568  1
  Cr  Cr51  1  0.82910527  0.82584389  0.49314303  1
  Cr  Cr52  1  0.66011049  0.65961341  0.65905984  1
  Cr  Cr53  1  0.82896559  0.82733665  0.82665801  1
" 