1865,Ni24Cr76_0,-230.775334298312, 153.494001146417,Ni24Cr76,"# generated using pymatgen
 data_Cr2Ni7
_symmetry_space_group_name_H-M   'P 1'
_cell_length_a   7.47836184
_cell_length_b   7.47836184
_cell_length_c   10.57600074
_cell_angle_alpha   90.00000000
_cell_angle_beta   90.00000000
_cell_angle_gamma   90.00000000
_symmetry_Int_Tables_number   1
_chemical_formula_structural   Cr2Ni7
_chemical_formula_sum   'Cr12 Ni42'
_cell_volume   591.47231601
_cell_formula_units_Z   6
loop_
 _symmetry_equiv_pos_site_id
 _symmetry_equiv_pos_as_xyz
  1  'x, y, z'
loop_
 _atom_site_type_symbol
 _atom_site_label
 _atom_site_symmetry_multiplicity
 _atom_site_fract_x
 _atom_site_fract_y
 _atom_site_fract_z
 _atom_site_occupancy
  Ni  Ni0  1  0.00081310  -0.00069639  0.99793634  1
  Ni  Ni1  1  0.16533213  0.16573038  0.16465335  1
  Ni  Ni2  1  0.00083947  0.99910645  0.33359191  1
  Ni  Ni3  1  0.00273653  0.33205522  -0.00059607  1
  Ni  Ni4  1  0.16430369  0.49901885  0.16568118  1
  Ni  Ni5  1  0.99821534  0.33327938  0.33338044  1
  Ni  Ni6  1  -0.00061894  0.66637180  0.99924104  1
  Ni  Ni7  1  0.16533318  0.83298200  0.16693844  1
  Ni  Ni8  1  0.00013566  0.66534542  0.33337881  1
  Ni  Ni9  1  0.33060352  0.00105893  0.99763289  1
  Cr  Cr10  1  0.49760702  0.16558264  0.16608822  1
  Ni  Ni11  1  0.33102624  0.99734816  0.33435264  1
  Ni  Ni12  1  0.33020079  0.33181847  0.99837488  1
  Ni  Ni13  1  0.49999952  0.50005431  0.16635043  1
  Cr  Cr14  1  0.33159571  0.33298013  0.33175016  1
  Cr  Cr15  1  0.33219823  0.66446530  0.99882160  1
  Cr  Cr16  1  0.49863811  0.83209494  0.16710961  1
  Ni  Ni17  1  0.33119425  0.66764059  0.33234929  1
  Ni  Ni18  1  0.66631333  0.99770353  0.99550441  1
  Cr  Cr19  1  0.83479136  0.16661058  0.16653929  1
  Ni  Ni20  1  0.66586407  -0.00073185  0.33608798  1
  Cr  Cr21  1  0.66464510  0.33340483  0.99923732  1
  Ni  Ni22  1  0.83342872  0.50005230  0.16707840  1
  Ni  Ni23  1  0.66815855  0.33344698  0.33335515  1
  Ni  Ni24  1  0.66654994  0.66677597  0.99860104  1
  Cr  Cr25  1  0.83375933  0.83107080  0.16505602  1
  Ni  Ni26  1  0.66639927  0.66501541  0.33282396  1
  Ni  Ni27  1  0.16513300  0.16490657  0.49815244  1
  Cr  Cr28  1  0.99888626  0.99906679  0.66596189  1
  Ni  Ni29  1  0.16655863  0.16593631  0.83492311  1
  Ni  Ni30  1  0.16131089  0.50004638  0.49864215  1
  Ni  Ni31  1  0.99824047  0.33364981  0.66494432  1
  Ni  Ni32  1  0.16522960  0.49821480  0.83340717  1
  Ni  Ni33  1  0.16616205  0.83277769  0.49712312  1
  Ni  Ni34  1  0.99840363  0.66477366  0.66510875  1
  Ni  Ni35  1  0.16553075  0.83357935  0.83366851  1
  Ni  Ni36  1  0.50097427  0.16211636  0.49937903  1
  Ni  Ni37  1  0.33458948  -0.00069385  0.66574569  1
  Ni  Ni38  1  0.49894197  0.16387811  0.83250270  1
  Cr  Cr39  1  0.50151887  0.50004537  0.49856722  1
  Cr  Cr40  1  0.33197576  0.33095237  0.66736915  1
  Ni  Ni41  1  0.49924678  0.49924617  0.83329489  1
  Ni  Ni42  1  0.49994577  0.83556665  0.49834951  1
  Cr  Cr43  1  0.33157534  0.66771193  0.66655567  1
  Ni  Ni44  1  0.50100091  0.83460622  0.83250612  1
  Ni  Ni45  1  0.83162410  0.16696514  0.49828980  1
  Ni  Ni46  1  0.66433461  -0.00053053  0.66613746  1
  Ni  Ni47  1  0.83223060  0.16417991  0.83266404  1
  Ni  Ni48  1  0.83441149  0.49901790  0.49898071  1
  Ni  Ni49  1  0.66735507  0.33103180  0.66561317  1
  Cr  Cr50  1  0.83373145  0.50026853  0.83120031  1
  Ni  Ni51  1  0.83162285  0.83174713  0.49851700  1
  Ni  Ni52  1  0.66735411  0.66722872  0.66630513  1
  Ni  Ni53  1  0.83119896  0.83327649  0.83392312  1
" 