893,Ni24Fe6Cr69_10,-211.548640743117, 163.372917601262,Ni24Fe6Cr69,"# generated using pymatgen
 data_Cr38Fe3Ni13
_symmetry_space_group_name_H-M   'P 1'
_cell_length_a   7.55559964
_cell_length_b   7.55559964
_cell_length_c   10.68523148
_cell_angle_alpha   90.00000000
_cell_angle_beta   90.00000000
_cell_angle_gamma   90.00000000
_symmetry_Int_Tables_number   1
_chemical_formula_structural   Cr38Fe3Ni13
_chemical_formula_sum   'Cr38 Fe3 Ni13'
_cell_volume   609.98872704
_cell_formula_units_Z   1
loop_
 _symmetry_equiv_pos_site_id
 _symmetry_equiv_pos_as_xyz
  1  'x, y, z'
loop_
 _atom_site_type_symbol
 _atom_site_label
 _atom_site_symmetry_multiplicity
 _atom_site_fract_x
 _atom_site_fract_y
 _atom_site_fract_z
 _atom_site_occupancy
  Cr  Cr0  1  -0.00343498  -0.00067710  -0.00497569  1
  Ni  Ni1  1  0.16248663  0.16749859  0.15858618  1
  Cr  Cr2  1  -0.00362322  -0.00342895  0.32446107  1
  Ni  Ni3  1  -0.00357267  0.33001902  0.99331247  1
  Cr  Cr4  1  0.16296728  0.49230334  0.16158831  1
  Cr  Cr5  1  -0.00419171  0.32969294  0.32512316  1
  Cr  Cr6  1  -0.00584493  0.65514407  0.99401170  1
  Cr  Cr7  1  0.16089759  0.82474540  0.16150199  1
  Ni  Ni8  1  0.99404700  0.65593856  0.32765827  1
  Cr  Cr9  1  0.32562561  -0.00305374  -0.00461131  1
  Cr  Cr10  1  0.49306979  0.16747649  0.16112374  1
  Cr  Cr11  1  0.32748640  -0.00171378  0.32516919  1
  Ni  Ni12  1  0.32430461  0.32859416  0.99316431  1
  Cr  Cr13  1  0.49327559  0.49128481  0.15833955  1
  Ni  Ni14  1  0.32904967  0.32842456  0.33029262  1
  Ni  Ni15  1  0.32432772  0.65481453  0.99244326  1
  Cr  Cr16  1  0.49170561  0.82367561  0.15648783  1
  Cr  Cr17  1  0.32761533  0.65737090  0.32864668  1
  Cr  Cr18  1  0.66023580  -0.00446700  -0.00509002  1
  Cr  Cr19  1  0.82746551  0.16604173  0.16025020  1
  Cr  Cr20  1  0.65774454  -0.00336456  0.32772475  1
  Ni  Ni21  1  0.66288723  0.33038305  -0.00539121  1
  Ni  Ni22  1  0.82774697  0.48996360  0.16004800  1
  Ni  Ni23  1  0.65809838  0.33027027  0.32798310  1
  Cr  Cr24  1  0.66191301  0.65785389  0.99382943  1
  Cr  Cr25  1  0.82938684  0.82485061  0.16379553  1
  Cr  Cr26  1  0.66081997  0.65703257  0.32614388  1
  Cr  Cr27  1  0.16138693  0.16419742  0.49448683  1
  Cr  Cr28  1  -0.00356323  -0.00253052  0.66307321  1
  Ni  Ni29  1  0.16263681  0.16892836  0.82970916  1
  Fe  Fe30  1  0.16214827  0.49223227  0.49351621  1
  Cr  Cr31  1  -0.00239681  0.32920863  0.66474007  1
  Ni  Ni32  1  0.16301350  0.48861961  0.82785460  1
  Cr  Cr33  1  0.15913373  0.82500389  0.49266049  1
  Cr  Cr34  1  -0.00501382  0.65511047  0.66120297  1
  Cr  Cr35  1  0.16152336  0.82481507  0.82808098  1
  Fe  Fe36  1  0.49282194  0.16497705  0.49314139  1
  Cr  Cr37  1  0.32713595  -0.00082546  0.66170947  1
  Cr  Cr38  1  0.49307445  0.16562945  0.82764892  1
  Ni  Ni39  1  0.49100453  0.48765676  0.49315922  1
  Ni  Ni40  1  0.32675305  0.32963934  0.65923038  1
  Cr  Cr41  1  0.49133146  0.49160212  0.83062426  1
  Cr  Cr42  1  0.49305109  0.82416376  0.49536983  1
  Cr  Cr43  1  0.32728258  0.65535516  0.66060793  1
  Cr  Cr44  1  0.49242286  0.82524349  0.83013297  1
  Cr  Cr45  1  0.82691680  0.16262222  0.49345828  1
  Cr  Cr46  1  0.65838175  -0.00462644  0.65958698  1
  Cr  Cr47  1  0.82814061  0.16375865  0.82885649  1
  Cr  Cr48  1  0.82703216  0.49265046  0.49218732  1
  Cr  Cr49  1  0.65901864  0.32963498  0.65935376  1
  Fe  Fe50  1  0.82913100  0.49109820  0.83029320  1
  Cr  Cr51  1  0.83008310  0.82758863  0.49384174  1
  Cr  Cr52  1  0.66029364  0.65734009  0.66246086  1
  Cr  Cr53  1  0.82832466  0.82779130  0.82495407  1
" 