1302,Ni24Fe50Cr24_7,-228.869425050637, 191.1682050317,Ni24Fe50Cr24,"# generated using pymatgen
 data_Cr14Fe27Ni13
_symmetry_space_group_name_H-M   'P 1'
_cell_length_a   7.46431026
_cell_length_b   7.46431026
_cell_length_c   10.55612880
_cell_angle_alpha   90.00000000
_cell_angle_beta   90.00000000
_cell_angle_gamma   90.00000000
_symmetry_Int_Tables_number   1
_chemical_formula_structural   Cr14Fe27Ni13
_chemical_formula_sum   'Cr14 Fe27 Ni13'
_cell_volume   588.14450887
_cell_formula_units_Z   1
loop_
 _symmetry_equiv_pos_site_id
 _symmetry_equiv_pos_as_xyz
  1  'x, y, z'
loop_
 _atom_site_type_symbol
 _atom_site_label
 _atom_site_symmetry_multiplicity
 _atom_site_fract_x
 _atom_site_fract_y
 _atom_site_fract_z
 _atom_site_occupancy
  Ni  Ni0  1  0.00096429  0.99700224  0.00020201  1
  Cr  Cr1  1  0.16588910  0.16545738  0.16644771  1
  Cr  Cr2  1  0.00280509  0.00071768  0.33653645  1
  Fe  Fe3  1  0.99868259  0.33636166  0.99943256  1
  Fe  Fe4  1  0.16494250  0.50240625  0.16638996  1
  Fe  Fe5  1  0.99707503  0.33571064  0.33632055  1
  Fe  Fe6  1  0.00171176  0.66830064  0.00092526  1
  Ni  Ni7  1  0.16870366  0.83135282  0.16496638  1
  Cr  Cr8  1  0.99601238  0.66925836  0.33262245  1
  Fe  Fe9  1  0.33377324  0.99553973  0.99982523  1
  Fe  Fe10  1  0.50081996  0.16307978  0.16706506  1
  Fe  Fe11  1  0.33604312  0.99509922  0.33368856  1
  Cr  Cr12  1  0.33486740  0.33423242  0.99923456  1
  Fe  Fe13  1  0.50092611  0.50210010  0.16851659  1
  Cr  Cr14  1  0.33208785  0.33160045  0.33447665  1
  Fe  Fe15  1  0.33228207  0.66874822  0.99953830  1
  Fe  Fe16  1  0.50104224  0.83361154  0.16694891  1
  Fe  Fe17  1  0.33356347  0.66787547  0.33306070  1
  Fe  Fe18  1  0.66762964  0.99715687  0.99968035  1
  Cr  Cr19  1  0.83167784  0.16756474  0.16620173  1
  Fe  Fe20  1  0.66865296  0.99702910  0.33451263  1
  Fe  Fe21  1  0.66811846  0.33417103  0.99960272  1
  Fe  Fe22  1  0.83391254  0.50195835  0.16725556  1
  Fe  Fe23  1  0.66837298  0.33612236  0.33506849  1
  Cr  Cr24  1  0.66841689  0.66591144  0.99916980  1
  Ni  Ni25  1  0.83405032  0.83354192  0.16595310  1
  Ni  Ni26  1  0.66512711  0.66704737  0.33361155  1
  Fe  Fe27  1  0.16540710  0.16807338  0.50261129  1
  Ni  Ni28  1  0.00052397  0.99776085  0.66489598  1
  Cr  Cr29  1  0.16458072  0.16813992  0.83241588  1
  Fe  Fe30  1  0.16444355  0.50059725  0.50151985  1
  Ni  Ni31  1  0.00138058  0.33310955  0.66420448  1
  Fe  Fe32  1  0.16520442  0.50309374  0.83137995  1
  Fe  Fe33  1  0.16785862  0.83185825  0.50040278  1
  Fe  Fe34  1  0.00133857  0.66652690  0.66593963  1
  Fe  Fe35  1  0.16630642  0.83219230  0.83464813  1
  Cr  Cr36  1  0.50303072  0.16790275  0.50088178  1
  Cr  Cr37  1  0.33203426  0.99953878  0.66665394  1
  Cr  Cr38  1  0.50164797  0.16608906  0.83426234  1
  Ni  Ni39  1  0.49567684  0.50298693  0.49941361  1
  Ni  Ni40  1  0.33085898  0.33646658  0.66678784  1
  Ni  Ni41  1  0.49613600  0.50252429  0.83305629  1
  Fe  Fe42  1  0.50255983  0.83237639  0.49943812  1
  Fe  Fe43  1  0.33163268  0.66480095  0.66691299  1
  Ni  Ni44  1  0.50054672  0.82979919  0.83281073  1
  Ni  Ni45  1  0.83606393  0.16550821  0.50148154  1
  Fe  Fe46  1  0.67035427  1.00012505  0.66663728  1
  Cr  Cr47  1  0.83514911  0.16444782  0.83335998  1
  Fe  Fe48  1  0.83102396  0.49996027  0.49952309  1
  Cr  Cr49  1  0.66492730  0.33919939  0.66845822  1
  Fe  Fe50  1  0.83541406  0.50128864  0.83340875  1
  Ni  Ni51  1  0.83431327  0.83451318  0.50148848  1
  Cr  Cr52  1  0.66717896  0.66932488  0.66699288  1
  Ni  Ni53  1  0.83615816  0.83273930  0.83306192  1
" 