8181,Ni24Cr76_9,-230.699013744903, 151.426701421539,Ni24Cr76,"# generated using pymatgen
 data_Cr2Ni7
_symmetry_space_group_name_H-M   'P 1'
_cell_length_a   7.47885916
_cell_length_b   7.47885916
_cell_length_c   10.57670406
_cell_angle_alpha   90.00000000
_cell_angle_beta   90.00000000
_cell_angle_gamma   90.00000000
_symmetry_Int_Tables_number   1
_chemical_formula_structural   Cr2Ni7
_chemical_formula_sum   'Cr12 Ni42'
_cell_volume   591.59032442
_cell_formula_units_Z   6
loop_
 _symmetry_equiv_pos_site_id
 _symmetry_equiv_pos_as_xyz
  1  'x, y, z'
loop_
 _atom_site_type_symbol
 _atom_site_label
 _atom_site_symmetry_multiplicity
 _atom_site_fract_x
 _atom_site_fract_y
 _atom_site_fract_z
 _atom_site_occupancy
  Ni  Ni0  1  -0.00075878  0.99902538  0.00130915  1
  Ni  Ni1  1  0.16527925  0.16680467  0.16587830  1
  Cr  Cr2  1  0.00182591  0.99912067  0.33168071  1
  Ni  Ni3  1  0.00214664  0.33128914  0.00057608  1
  Ni  Ni4  1  0.16843915  0.49823113  0.16454323  1
  Ni  Ni5  1  0.00168398  0.33266534  0.33233888  1
  Ni  Ni6  1  0.00304459  0.66725523  -0.00009323  1
  Ni  Ni7  1  0.16826140  0.83263675  0.16351175  1
  Cr  Cr8  1  0.00096342  0.66644388  0.33433712  1
  Ni  Ni9  1  0.33140221  0.99819685  0.00049115  1
  Cr  Cr10  1  0.49593717  0.16576425  0.16665185  1
  Ni  Ni11  1  0.33037480  0.99683648  0.33277462  1
  Ni  Ni12  1  0.33077910  0.33480394  0.99907219  1
  Ni  Ni13  1  0.49627947  0.50239502  0.16693783  1
  Ni  Ni14  1  0.33045797  0.33526679  0.33241002  1
  Ni  Ni15  1  0.33124529  0.66459638  0.00015016  1
  Ni  Ni16  1  0.49787116  0.82989643  0.16537390  1
  Ni  Ni17  1  0.33421517  0.66552434  0.33230509  1
  Ni  Ni18  1  0.66698891  0.99871348  0.00003721  1
  Ni  Ni19  1  0.83559396  0.16537310  0.16426579  1
  Cr  Cr20  1  0.66616781  0.99558796  0.33106392  1
  Cr  Cr21  1  0.66362760  0.33133947  0.99705380  1
  Cr  Cr22  1  0.83310028  0.49972685  0.16667748  1
  Ni  Ni23  1  0.66549022  0.33650388  0.33278482  1
  Ni  Ni24  1  0.66335119  0.66763911  0.00197133  1
  Ni  Ni25  1  0.83147070  0.83272482  0.16259421  1
  Ni  Ni26  1  0.66274449  0.66479542  0.33351468  1
  Ni  Ni27  1  0.16697730  0.16696360  0.49929837  1
  Ni  Ni28  1  0.00013185  0.99800339  0.66481179  1
  Cr  Cr29  1  0.16625846  0.16526738  0.83213545  1
  Ni  Ni30  1  0.16666031  0.49819680  0.50024055  1
  Ni  Ni31  1  0.00034184  0.33357761  0.66468373  1
  Ni  Ni32  1  0.16754540  0.50078863  0.83292907  1
  Ni  Ni33  1  0.16839108  0.83242860  0.50176694  1
  Ni  Ni34  1  0.00183466  0.66595236  0.66406841  1
  Ni  Ni35  1  0.16612043  0.83073279  0.83248103  1
  Cr  Cr36  1  0.49537381  0.16631803  0.50012692  1
  Ni  Ni37  1  0.33143921  0.99810246  0.66439553  1
  Ni  Ni38  1  0.49928623  0.16619201  0.83122635  1
  Ni  Ni39  1  0.49907547  0.50122972  0.49892046  1
  Ni  Ni40  1  0.33283051  0.33491858  0.66617438  1
  Ni  Ni41  1  0.49635259  0.49883405  0.83166123  1
  Ni  Ni42  1  0.49783449  0.82967343  0.49953689  1
  Ni  Ni43  1  0.33131651  0.66449388  0.66510200  1
  Cr  Cr44  1  0.49697003  0.83259088  0.83274737  1
  Cr  Cr45  1  0.83428775  0.16872072  0.50078193  1
  Ni  Ni46  1  0.66601014  -0.00055628  0.66650991  1
  Ni  Ni47  1  0.83225238  0.16505093  0.83196465  1
  Ni  Ni48  1  0.83187040  0.50046446  0.49999507  1
  Ni  Ni49  1  0.66455803  0.33360154  0.66700477  1
  Cr  Cr50  1  0.83501192  0.50006371  0.83112698  1
  Ni  Ni51  1  0.83130364  0.82909437  0.50241560  1
  Ni  Ni52  1  0.66449298  0.66456186  0.66223258  1
  Cr  Cr53  1  0.83484775  0.83293592  0.83280822  1
" 