5984,Ni24Fe6Cr69_4,-211.449879834116, 163.004521937238,Ni24Fe6Cr69,"# generated using pymatgen
 data_Cr38Fe3Ni13
_symmetry_space_group_name_H-M   'P 1'
_cell_length_a   7.55344661
_cell_length_b   7.55344661
_cell_length_c   10.68218664
_cell_angle_alpha   90.00000000
_cell_angle_beta   90.00000000
_cell_angle_gamma   90.00000000
_symmetry_Int_Tables_number   1
_chemical_formula_structural   Cr38Fe3Ni13
_chemical_formula_sum   'Cr38 Fe3 Ni13'
_cell_volume   609.46741240
_cell_formula_units_Z   1
loop_
 _symmetry_equiv_pos_site_id
 _symmetry_equiv_pos_as_xyz
  1  'x, y, z'
loop_
 _atom_site_type_symbol
 _atom_site_label
 _atom_site_symmetry_multiplicity
 _atom_site_fract_x
 _atom_site_fract_y
 _atom_site_fract_z
 _atom_site_occupancy
  Cr  Cr0  1  0.99247138  -0.00302527  -0.00503798  1
  Ni  Ni1  1  0.15948097  0.15970841  0.16081159  1
  Ni  Ni2  1  0.99061144  -0.00250635  0.32756336  1
  Cr  Cr3  1  0.99306873  0.32455480  0.99393375  1
  Cr  Cr4  1  0.15836996  0.49337789  0.16169105  1
  Cr  Cr5  1  -0.00535972  0.32334234  0.32717822  1
  Cr  Cr6  1  0.99306955  0.66129500  0.99117516  1
  Cr  Cr7  1  0.15941492  0.83094116  0.16040006  1
  Cr  Cr8  1  -0.00410990  0.66278964  0.33080789  1
  Fe  Fe9  1  0.32744494  -0.00364078  -0.00484432  1
  Cr  Cr10  1  0.49677065  0.16009130  0.16183119  1
  Cr  Cr11  1  0.32737395  -0.00426508  0.32675673  1
  Cr  Cr12  1  0.32722055  0.32697747  -0.00342664  1
  Fe  Fe13  1  0.49633219  0.49163434  0.16226071  1
  Cr  Cr14  1  0.32843289  0.32760285  0.32839050  1
  Cr  Cr15  1  0.32870498  0.66029220  -0.00248548  1
  Cr  Cr16  1  0.49595418  0.82934863  0.16005612  1
  Cr  Cr17  1  0.32768507  0.65931460  0.32695595  1
  Cr  Cr18  1  0.66356628  -0.00444433  0.99219055  1
  Ni  Ni19  1  0.82765119  0.16045958  0.16397535  1
  Ni  Ni20  1  0.66400962  -0.00110514  0.32998904  1
  Cr  Cr21  1  0.66247696  0.32588139  0.99409799  1
  Cr  Cr22  1  0.82576779  0.49201540  0.16141815  1
  Ni  Ni23  1  0.66090597  0.32230056  0.32716517  1
  Cr  Cr24  1  0.66101548  0.66105812  0.99198244  1
  Cr  Cr25  1  0.82739585  0.82935775  0.16411991  1
  Cr  Cr26  1  0.65899142  0.66213625  0.32779899  1
  Cr  Cr27  1  0.16146575  0.16081361  0.49579063  1
  Cr  Cr28  1  0.99058069  -0.00497573  0.66067329  1
  Cr  Cr29  1  0.16290199  0.16005170  0.82751234  1
  Ni  Ni30  1  0.16142267  0.49231388  0.49562114  1
  Cr  Cr31  1  0.99283570  0.32608826  0.66185815  1
  Cr  Cr32  1  0.16022275  0.49287755  0.82516893  1
  Cr  Cr33  1  0.15911879  0.82916831  0.49399338  1
  Cr  Cr34  1  0.99273123  0.66180783  0.66078191  1
  Cr  Cr35  1  0.16210337  0.82985286  0.82842097  1
  Ni  Ni36  1  0.49638862  0.16071258  0.49447171  1
  Ni  Ni37  1  0.32841682  -0.00335431  0.66092940  1
  Cr  Cr38  1  0.49244782  0.16023022  0.82519567  1
  Cr  Cr39  1  0.49582658  0.49028228  0.49369327  1
  Fe  Fe40  1  0.32818661  0.32565547  0.65867320  1
  Cr  Cr41  1  0.49490201  0.49246145  0.82764755  1
  Cr  Cr42  1  0.49597282  0.83181988  0.49441120  1
  Cr  Cr43  1  0.32752301  0.66050292  0.65814436  1
  Cr  Cr44  1  0.49263031  0.83000914  0.82800986  1
  Ni  Ni45  1  0.82469072  0.15900556  0.49054144  1
  Cr  Cr46  1  0.66280973  -0.00462883  0.65975756  1
  Ni  Ni47  1  0.82737465  0.16135469  0.82798608  1
  Cr  Cr48  1  0.82819021  0.49272435  0.49315296  1
  Cr  Cr49  1  0.66250181  0.32457574  0.66129811  1
  Ni  Ni50  1  0.82754469  0.49350310  0.82789775  1
  Ni  Ni51  1  0.82718709  0.83160387  0.49200994  1
  Cr  Cr52  1  0.66277000  0.66316942  0.66336475  1
  Ni  Ni53  1  0.82770069  0.82804593  0.82740344  1
" 