8006,Ni25Fe15Cr59_16,-215.378276183559, 164.701471586111,Ni25Fe15Cr59,"# generated using pymatgen
 data_Cr33Fe8Ni13
_symmetry_space_group_name_H-M   'P 1'
_cell_length_a   7.52934637
_cell_length_b   7.52934637
_cell_length_c   10.64810375
_cell_angle_alpha   90.00000000
_cell_angle_beta   90.00000000
_cell_angle_gamma   90.00000000
_symmetry_Int_Tables_number   1
_chemical_formula_structural   Cr33Fe8Ni13
_chemical_formula_sum   'Cr33 Fe8 Ni13'
_cell_volume   603.65225316
_cell_formula_units_Z   1
loop_
 _symmetry_equiv_pos_site_id
 _symmetry_equiv_pos_as_xyz
  1  'x, y, z'
loop_
 _atom_site_type_symbol
 _atom_site_label
 _atom_site_symmetry_multiplicity
 _atom_site_fract_x
 _atom_site_fract_y
 _atom_site_fract_z
 _atom_site_occupancy
  Ni  Ni0  1  0.99297938  -0.00110252  -0.00216996  1
  Ni  Ni1  1  0.15862764  0.15876193  0.16221488  1
  Ni  Ni2  1  0.99565271  -0.00179175  0.32659404  1
  Ni  Ni3  1  -0.00344834  0.32500827  -0.00366454  1
  Fe  Fe4  1  0.16161217  0.49274486  0.16305539  1
  Ni  Ni5  1  -0.00274630  0.32626640  0.32724885  1
  Cr  Cr6  1  0.99585453  0.66582970  0.00076577  1
  Ni  Ni7  1  0.16111190  0.83364030  0.16356170  1
  Cr  Cr8  1  -0.00315890  0.66506073  0.32517216  1
  Fe  Fe9  1  0.32562217  0.99534532  -0.00159779  1
  Cr  Cr10  1  0.49792407  0.16146525  0.16353572  1
  Ni  Ni11  1  0.32568752  -0.00369089  0.32584755  1
  Cr  Cr12  1  0.32766142  0.32886059  -0.00340786  1
  Cr  Cr13  1  0.50049064  0.49634485  0.16316455  1
  Cr  Cr14  1  0.32644179  0.32974099  0.32846695  1
  Cr  Cr15  1  0.32825198  0.66013083  -0.00298667  1
  Cr  Cr16  1  0.49176859  0.83009973  0.16362428  1
  Ni  Ni17  1  0.32754476  0.66244089  0.32657367  1
  Cr  Cr18  1  0.66725293  -0.00407522  0.99573443  1
  Ni  Ni19  1  0.83446285  0.16471239  0.16203621  1
  Cr  Cr20  1  0.66861043  -0.00364073  0.32910206  1
  Fe  Fe21  1  0.66663286  0.32736928  -0.00392529  1
  Cr  Cr22  1  0.83038057  0.49155222  0.16202536  1
  Fe  Fe23  1  0.66587992  0.32803458  0.32770180  1
  Cr  Cr24  1  0.66358513  0.66523051  0.99323595  1
  Fe  Fe25  1  0.83108462  0.83423410  0.16233036  1
  Cr  Cr26  1  0.66528676  0.66549410  0.32971020  1
  Cr  Cr27  1  0.16086968  0.16018152  0.49659582  1
  Cr  Cr28  1  0.99081562  0.99485267  0.66303933  1
  Cr  Cr29  1  0.15859137  0.16083085  0.82956284  1
  Cr  Cr30  1  0.15915950  0.49606590  0.49520412  1
  Fe  Fe31  1  0.99373356  0.32738230  0.66352521  1
  Cr  Cr32  1  0.15784605  0.49521510  0.82928599  1
  Cr  Cr33  1  0.16319869  0.83172481  0.49288073  1
  Cr  Cr34  1  0.99331063  0.66577069  0.66199632  1
  Cr  Cr35  1  0.16325235  0.83196698  0.83196903  1
  Cr  Cr36  1  0.49501599  0.16078284  0.49053476  1
  Cr  Cr37  1  0.33181901  -0.00253571  0.66380166  1
  Cr  Cr38  1  0.49591546  0.15935640  0.83347522  1
  Cr  Cr39  1  0.49856688  0.49737877  0.49409799  1
  Cr  Cr40  1  0.32821208  0.32987316  0.66280003  1
  Fe  Fe41  1  0.49763064  0.49624361  0.83006436  1
  Cr  Cr42  1  0.49368772  0.82970100  0.49421815  1
  Cr  Cr43  1  0.32960956  0.66029213  0.66414588  1
  Ni  Ni44  1  0.49753823  0.82751556  0.82920151  1
  Cr  Cr45  1  0.83188519  0.16498111  0.49410860  1
  Cr  Cr46  1  0.66527222  0.99419114  0.66267942  1
  Ni  Ni47  1  0.82973867  0.16295324  0.83170253  1
  Cr  Cr48  1  0.82988243  0.49496743  0.49602945  1
  Cr  Cr49  1  0.65963095  0.32574943  0.66371722  1
  Cr  Cr50  1  0.82938613  0.49369158  0.82929427  1
  Ni  Ni51  1  0.83000549  0.82893045  0.49453717  1
  Fe  Fe52  1  0.66297692  0.66446022  0.66387391  1
  Ni  Ni53  1  0.82799380  0.83000871  0.83030736  1
" 