1902,Ni25Cr75_3,-229.978601100307, 151.470352683072,Ni25Cr75,"# generated using pymatgen
 data_Cr13Ni41
_symmetry_space_group_name_H-M   'P 1'
_cell_length_a   7.48108203
_cell_length_b   7.48108203
_cell_length_c   10.57984767
_cell_angle_alpha   90.00000000
_cell_angle_beta   90.00000000
_cell_angle_gamma   90.00000000
_symmetry_Int_Tables_number   1
_chemical_formula_structural   Cr13Ni41
_chemical_formula_sum   'Cr13 Ni41'
_cell_volume   592.11797974
_cell_formula_units_Z   1
loop_
 _symmetry_equiv_pos_site_id
 _symmetry_equiv_pos_as_xyz
  1  'x, y, z'
loop_
 _atom_site_type_symbol
 _atom_site_label
 _atom_site_symmetry_multiplicity
 _atom_site_fract_x
 _atom_site_fract_y
 _atom_site_fract_z
 _atom_site_occupancy
  Ni  Ni0  1  0.99863288  0.00008959  0.00042209  1
  Ni  Ni1  1  0.16447476  0.16591217  0.16575548  1
  Ni  Ni2  1  0.00037724  0.99901694  0.33035622  1
  Ni  Ni3  1  0.99853978  0.33286457  -0.00073311  1
  Ni  Ni4  1  0.16628712  0.49894818  0.16404876  1
  Cr  Cr5  1  0.99590856  0.33280210  0.33097110  1
  Ni  Ni6  1  -0.00007071  0.66420786  -0.00056752  1
  Ni  Ni7  1  0.16527139  0.83232007  0.16613886  1
  Cr  Cr8  1  0.99889320  0.66463296  0.33214106  1
  Cr  Cr9  1  0.33324263  0.99739582  0.99750707  1
  Cr  Cr10  1  0.49771253  0.16802527  0.16584773  1
  Ni  Ni11  1  0.33170179  0.99680864  0.33260120  1
  Ni  Ni12  1  0.33058013  0.33395337  0.99675804  1
  Cr  Cr13  1  0.49836892  0.49955015  0.16560467  1
  Ni  Ni14  1  0.33260908  0.33377596  0.33363973  1
  Ni  Ni15  1  0.33176634  0.66522396  0.99844801  1
  Ni  Ni16  1  0.49916783  0.83052711  0.16564447  1
  Ni  Ni17  1  0.33311822  0.66666221  0.33293814  1
  Ni  Ni18  1  0.66696909  -0.00079028  0.99860546  1
  Ni  Ni19  1  0.83383770  0.16557177  0.16394046  1
  Cr  Cr20  1  0.66593413  -0.00086526  0.33168927  1
  Ni  Ni21  1  0.66810390  0.33256305  0.99739379  1
  Ni  Ni22  1  0.83167453  0.49949725  0.16385930  1
  Ni  Ni23  1  0.66609178  0.33407429  0.33438590  1
  Ni  Ni24  1  0.66554262  0.66543986  -0.00059144  1
  Ni  Ni25  1  0.83284655  0.83204971  0.16383227  1
  Ni  Ni26  1  0.66396279  0.66404536  0.33229648  1
  Cr  Cr27  1  0.16795060  0.16576877  0.49673443  1
  Cr  Cr28  1  -0.00049288  -0.00029691  0.66634955  1
  Ni  Ni29  1  0.16578407  0.16788578  0.83458335  1
  Ni  Ni30  1  0.16809271  0.50044798  0.49924650  1
  Cr  Cr31  1  0.99783531  0.33544477  0.66651094  1
  Ni  Ni32  1  0.16590392  0.49895418  0.83408286  1
  Ni  Ni33  1  0.16706240  0.83059487  0.49740474  1
  Ni  Ni34  1  -0.00051888  0.66312486  0.66571887  1
  Ni  Ni35  1  0.16461302  0.83035755  0.83390285  1
  Ni  Ni36  1  0.50024907  0.16783142  0.49940519  1
  Cr  Cr37  1  0.33567640  0.99890067  0.66750452  1
  Ni  Ni38  1  0.50085467  0.16839209  0.83188907  1
  Ni  Ni39  1  0.49970778  0.49803911  0.49815424  1
  Ni  Ni40  1  0.33508281  0.33361077  0.66675155  1
  Ni  Ni41  1  0.49997080  0.49791727  0.83326932  1
  Ni  Ni42  1  0.49890235  0.83130493  0.49807951  1
  Cr  Cr43  1  0.33237642  0.66471826  0.66648618  1
  Ni  Ni44  1  0.50105001  0.83089348  0.83342996  1
  Ni  Ni45  1  0.82894641  0.16695872  0.49899746  1
  Ni  Ni46  1  0.66351246  0.00102006  0.66615506  1
  Ni  Ni47  1  0.83059357  0.16689607  0.83396655  1
  Ni  Ni48  1  0.82919825  0.49897271  0.50026597  1
  Ni  Ni49  1  0.66455946  0.33265845  0.66533636  1
  Ni  Ni50  1  0.83136938  0.49877504  0.83290885  1
  Cr  Cr51  1  0.83265426  0.83157012  0.50124575  1
  Ni  Ni52  1  0.66466881  0.66344006  0.66550045  1
  Cr  Cr53  1  0.83220037  0.83086453  0.83253474  1
" 