7154,Ni25Cr75_11,-229.869982608351, 148.193391208495,Ni25Cr75,"# generated using pymatgen
 data_Cr13Ni41
_symmetry_space_group_name_H-M   'P 1'
_cell_length_a   7.48402777
_cell_length_b   7.48402777
_cell_length_c   10.58401357
_cell_angle_alpha   90.00000000
_cell_angle_beta   90.00000000
_cell_angle_gamma   90.00000000
_symmetry_Int_Tables_number   1
_chemical_formula_structural   Cr13Ni41
_chemical_formula_sum   'Cr13 Ni41'
_cell_volume   592.81770878
_cell_formula_units_Z   1
loop_
 _symmetry_equiv_pos_site_id
 _symmetry_equiv_pos_as_xyz
  1  'x, y, z'
loop_
 _atom_site_type_symbol
 _atom_site_label
 _atom_site_symmetry_multiplicity
 _atom_site_fract_x
 _atom_site_fract_y
 _atom_site_fract_z
 _atom_site_occupancy
  Ni  Ni0  1  -0.00063822  0.99765373  0.99867583  1
  Ni  Ni1  1  0.16464291  0.16400297  0.16639629  1
  Ni  Ni2  1  0.00042978  0.99666623  0.33181477  1
  Ni  Ni3  1  0.99806355  0.33125943  0.99766828  1
  Ni  Ni4  1  0.16432220  0.50029198  0.16644759  1
  Ni  Ni5  1  -0.00110777  0.33242005  0.33204797  1
  Ni  Ni6  1  0.99863538  0.66761870  0.99855972  1
  Ni  Ni7  1  0.16549597  0.83241564  0.16580105  1
  Ni  Ni8  1  0.99871287  0.66744746  0.33245880  1
  Ni  Ni9  1  0.33117358  0.99616608  0.99749950  1
  Cr  Cr10  1  0.49856483  0.16297980  0.16549409  1
  Ni  Ni11  1  0.33080987  0.99682914  0.33244897  1
  Cr  Cr12  1  0.33014299  0.33114747  0.99882971  1
  Cr  Cr13  1  0.49923427  0.50161655  0.16630763  1
  Ni  Ni14  1  0.33209876  0.33250730  0.33203343  1
  Ni  Ni15  1  0.33106088  0.67027083  0.00023316  1
  Ni  Ni16  1  0.49777152  0.83137988  0.16418563  1
  Ni  Ni17  1  0.33217788  0.66714051  0.33177980  1
  Ni  Ni18  1  0.66608119  0.99639196  0.99678134  1
  Cr  Cr19  1  0.83422426  0.16399552  0.16482961  1
  Cr  Cr20  1  0.66706074  0.99621753  0.33399373  1
  Ni  Ni21  1  0.66834906  0.33112492  0.99545912  1
  Cr  Cr22  1  0.83284521  0.50027897  0.16492114  1
  Ni  Ni23  1  0.66555820  0.33390254  0.33654206  1
  Ni  Ni24  1  0.66688200  0.66899765  0.99805972  1
  Ni  Ni25  1  0.83336166  0.83112385  0.16460719  1
  Ni  Ni26  1  0.66566231  0.66583468  0.33393393  1
  Cr  Cr27  1  0.16513008  0.16303353  0.49717058  1
  Cr  Cr28  1  0.99730062  0.99731248  0.66591686  1
  Ni  Ni29  1  0.16423621  0.16220472  0.83340022  1
  Cr  Cr30  1  0.16312516  0.50088684  0.49787319  1
  Ni  Ni31  1  0.99368429  0.33262702  0.66699708  1
  Cr  Cr32  1  0.16054261  0.50110581  0.83242178  1
  Ni  Ni33  1  0.16562202  0.83224994  0.49737445  1
  Ni  Ni34  1  0.99453455  0.66612569  0.66556581  1
  Ni  Ni35  1  0.16540260  0.83448839  0.83351195  1
  Ni  Ni36  1  0.50062080  0.16490161  0.49924944  1
  Ni  Ni37  1  0.33490141  0.99776298  0.66666519  1
  Ni  Ni38  1  0.50109750  0.16137447  0.83180835  1
  Ni  Ni39  1  0.50272168  0.49929606  0.49656714  1
  Cr  Cr40  1  0.33413841  0.32903569  0.66607482  1
  Cr  Cr41  1  0.50365633  0.50135859  0.83344136  1
  Ni  Ni42  1  0.49897892  0.83238781  0.49903632  1
  Cr  Cr43  1  0.33291100  0.66965207  0.66495906  1
  Ni  Ni44  1  0.49987077  0.83541905  0.83327236  1
  Ni  Ni45  1  0.83038081  0.16710260  0.49877018  1
  Ni  Ni46  1  0.66437915  0.99866062  0.66567849  1
  Ni  Ni47  1  0.83122662  0.16592940  0.83311890  1
  Ni  Ni48  1  0.83035138  0.49923054  0.49948349  1
  Ni  Ni49  1  0.66833490  0.33126340  0.66448219  1
  Ni  Ni50  1  0.83216114  0.49911842  0.83182276  1
  Ni  Ni51  1  0.83212039  0.83033081  0.49858959  1
  Ni  Ni52  1  0.66840580  0.66670319  0.66441769  1
  Ni  Ni53  1  0.83128994  0.83149790  0.83326166  1
" 