4317,Ni25Fe53Cr21_15,-228.643499564242, 188.980319231583,Ni25Fe53Cr21,"# generated using pymatgen
 data_Cr13Fe28Ni13
_symmetry_space_group_name_H-M   'P 1'
_cell_length_a   7.45376267
_cell_length_b   7.45376267
_cell_length_c   10.54121227
_cell_angle_alpha   90.00000000
_cell_angle_beta   90.00000000
_cell_angle_gamma   90.00000000
_symmetry_Int_Tables_number   1
_chemical_formula_structural   Cr13Fe28Ni13
_chemical_formula_sum   'Cr13 Fe28 Ni13'
_cell_volume   585.65476402
_cell_formula_units_Z   1
loop_
 _symmetry_equiv_pos_site_id
 _symmetry_equiv_pos_as_xyz
  1  'x, y, z'
loop_
 _atom_site_type_symbol
 _atom_site_label
 _atom_site_symmetry_multiplicity
 _atom_site_fract_x
 _atom_site_fract_y
 _atom_site_fract_z
 _atom_site_occupancy
  Fe  Fe0  1  0.99710214  0.99867160  0.00115213  1
  Cr  Cr1  1  0.16504430  0.16888429  0.16762181  1
  Ni  Ni2  1  0.99895327  1.00043033  0.33557596  1
  Fe  Fe3  1  0.99964033  0.33806682  1.00064934  1
  Ni  Ni4  1  0.16644182  0.50212592  0.16972670  1
  Ni  Ni5  1  0.99947540  0.33467230  0.33557745  1
  Ni  Ni6  1  0.99887256  0.66776005  0.99898799  1
  Cr  Cr7  1  0.16237221  0.83107074  0.16775409  1
  Ni  Ni8  1  0.99999242  0.66770617  0.33642524  1
  Cr  Cr9  1  0.33377794  0.99966619  0.99788121  1
  Cr  Cr10  1  0.50470960  0.16870054  0.16864664  1
  Cr  Cr11  1  0.33461054  0.99924922  0.33568972  1
  Cr  Cr12  1  0.33386309  0.33605392  0.00142126  1
  Fe  Fe13  1  0.50243581  0.50297764  0.16930798  1
  Fe  Fe14  1  0.33166337  0.33666176  0.33432181  1
  Cr  Cr15  1  0.33500322  0.66700095  1.00026546  1
  Fe  Fe16  1  0.50365611  0.83148847  0.16808499  1
  Fe  Fe17  1  0.33274246  0.66540950  0.33395179  1
  Fe  Fe18  1  0.66977814  0.99747608  0.00094971  1
  Fe  Fe19  1  0.83532812  0.16732884  0.16820035  1
  Fe  Fe20  1  0.67275297  0.99986508  0.33497877  1
  Ni  Ni21  1  0.66894418  0.33658753  0.99957006  1
  Cr  Cr22  1  0.83602460  0.50308832  0.16722799  1
  Ni  Ni23  1  0.66979603  0.33462942  0.33501297  1
  Ni  Ni24  1  0.66997840  0.66765470  1.00015158  1
  Ni  Ni25  1  0.83373576  0.83423580  0.16763245  1
  Fe  Fe26  1  0.67044247  0.66934121  0.33418212  1
  Fe  Fe27  1  0.16435837  0.16780567  0.50058557  1
  Fe  Fe28  1  0.99937658  0.99938377  0.66648253  1
  Fe  Fe29  1  0.16323622  0.16673192  0.83354577  1
  Fe  Fe30  1  0.16553022  0.50163012  0.49952414  1
  Fe  Fe31  1  0.99776145  0.33536940  0.66637628  1
  Fe  Fe32  1  0.16336905  0.50231413  0.83439610  1
  Fe  Fe33  1  0.16639630  0.83294845  0.50108375  1
  Fe  Fe34  1  0.99928169  0.66790467  0.66766869  1
  Fe  Fe35  1  0.16408814  0.83351490  0.83287432  1
  Cr  Cr36  1  0.50271930  0.16710833  0.50188878  1
  Fe  Fe37  1  0.33383330  0.99691362  0.66749424  1
  Cr  Cr38  1  0.50185770  0.16714529  0.83220481  1
  Cr  Cr39  1  0.50229091  0.50158999  0.49975591  1
  Cr  Cr40  1  0.33130957  0.33468743  0.66884595  1
  Fe  Fe41  1  0.50573600  0.50336149  0.83335143  1
  Fe  Fe42  1  0.50233015  0.83267885  0.50252752  1
  Fe  Fe43  1  0.33495916  0.66985472  0.66830120  1
  Fe  Fe44  1  0.50521966  0.83212710  0.83226665  1
  Fe  Fe45  1  0.83536503  0.16785162  0.50085219  1
  Ni  Ni46  1  0.66912281  0.99759624  0.66661994  1
  Cr  Cr47  1  0.83310524  0.16747865  0.83577017  1
  Fe  Fe48  1  0.83525996  0.50110026  0.50118481  1
  Fe  Fe49  1  0.67094936  0.33613239  0.66750293  1
  Ni  Ni50  1  0.83476652  0.50324252  0.83273485  1
  Fe  Fe51  1  0.83382308  0.83362617  0.50109471  1
  Ni  Ni52  1  0.66946663  0.66896615  0.66798341  1
  Ni  Ni53  1  0.83547281  0.83225521  0.83425823  1
" 