7609,Ni25Cr75_5,-230.153938858426, 153.270795742683,Ni25Cr75,"# generated using pymatgen
 data_Cr13Ni41
_symmetry_space_group_name_H-M   'P 1'
_cell_length_a   7.48113461
_cell_length_b   7.48113461
_cell_length_c   10.57992203
_cell_angle_alpha   90.00000000
_cell_angle_beta   90.00000000
_cell_angle_gamma   90.00000000
_symmetry_Int_Tables_number   1
_chemical_formula_structural   Cr13Ni41
_chemical_formula_sum   'Cr13 Ni41'
_cell_volume   592.13046394
_cell_formula_units_Z   1
loop_
 _symmetry_equiv_pos_site_id
 _symmetry_equiv_pos_as_xyz
  1  'x, y, z'
loop_
 _atom_site_type_symbol
 _atom_site_label
 _atom_site_symmetry_multiplicity
 _atom_site_fract_x
 _atom_site_fract_y
 _atom_site_fract_z
 _atom_site_occupancy
  Ni  Ni0  1  0.99818859  0.99818796  0.99896359  1
  Cr  Cr1  1  0.16374710  0.16422566  0.16457807  1
  Ni  Ni2  1  -0.00069821  0.99731092  0.33297766  1
  Ni  Ni3  1  0.99836204  0.33333004  0.99835316  1
  Ni  Ni4  1  0.16675646  0.50213859  0.16365263  1
  Cr  Cr5  1  0.99680885  0.33168218  0.33225419  1
  Ni  Ni6  1  -0.00087513  0.66565780  -0.00038413  1
  Ni  Ni7  1  0.16675909  0.83081968  0.16628651  1
  Cr  Cr8  1  -0.00044322  0.66817445  0.33227846  1
  Ni  Ni9  1  0.33201514  0.99742655  0.99745799  1
  Cr  Cr10  1  0.50195781  0.16490152  0.16590367  1
  Ni  Ni11  1  0.33048470  0.99575051  0.33343589  1
  Ni  Ni12  1  0.33201784  0.33426662  0.99741641  1
  Ni  Ni13  1  0.49903721  0.50101640  0.16512235  1
  Cr  Cr14  1  0.33351340  0.33305079  0.33161771  1
  Ni  Ni15  1  0.33201580  0.66548276  0.00003655  1
  Ni  Ni16  1  0.49809146  0.83099865  0.16582375  1
  Ni  Ni17  1  0.33160155  0.66871197  0.32984236  1
  Ni  Ni18  1  0.66697063  0.99819035  0.99857309  1
  Ni  Ni19  1  0.83120449  0.16516329  0.16589117  1
  Ni  Ni20  1  0.66738869  -0.00078209  0.33096039  1
  Ni  Ni21  1  0.66679535  0.33332927  -0.00089920  1
  Ni  Ni22  1  0.83138170  0.49799725  0.16422718  1
  Ni  Ni23  1  0.66722128  0.33210629  0.33102535  1
  Ni  Ni24  1  0.66603492  0.66565642  -0.00077756  1
  Ni  Ni25  1  0.83232485  0.83401382  0.16492685  1
  Cr  Cr26  1  0.66592030  0.66524805  0.33120384  1
  Ni  Ni27  1  0.16604900  0.16295573  0.49984330  1
  Cr  Cr28  1  0.00016719  -0.00046303  0.66575157  1
  Ni  Ni29  1  0.16672708  0.16683684  0.83223987  1
  Cr  Cr30  1  0.16568395  0.49924378  0.50075091  1
  Ni  Ni31  1  -0.00077111  0.33269811  0.66656980  1
  Ni  Ni32  1  0.16672820  0.49781390  0.83302483  1
  Ni  Ni33  1  0.16637774  0.83506994  0.49714403  1
  Cr  Cr34  1  0.99750652  0.66520299  0.66554449  1
  Ni  Ni35  1  0.16784289  0.83252549  0.83374614  1
  Cr  Cr36  1  0.49855940  0.16486580  0.49941874  1
  Ni  Ni37  1  0.33260031  -0.00037722  0.66628047  1
  Ni  Ni38  1  0.49899268  0.16555057  0.83158984  1
  Cr  Cr39  1  0.50063682  0.49923987  0.50049533  1
  Ni  Ni40  1  0.33181525  0.33140651  0.66762051  1
  Ni  Ni41  1  0.49881593  0.49892457  0.83180707  1
  Cr  Cr42  1  0.49814260  0.83306800  0.49987255  1
  Ni  Ni43  1  0.33371518  0.66614662  0.66729739  1
  Ni  Ni44  1  0.49898971  0.83270040  0.83173749  1
  Cr  Cr45  1  0.83223335  0.16598379  0.49808418  1
  Ni  Ni46  1  0.66440313  0.99815872  0.66764210  1
  Ni  Ni47  1  0.83145560  0.16666297  0.83320163  1
  Ni  Ni48  1  0.83118487  0.49881912  0.50066816  1
  Ni  Ni49  1  0.66613141  0.33381568  0.66704887  1
  Ni  Ni50  1  0.83163119  0.49781071  0.83228053  1
  Ni  Ni51  1  0.83292135  0.83254061  0.49867977  1
  Ni  Ni52  1  0.66569309  0.66520137  0.66650059  1
  Ni  Ni53  1  0.83034290  0.83270138  0.83357079  1
" 