137,Ni25Fe53Cr21_14,-228.331041270874, 185.580885929472,Ni25Fe53Cr21,"# generated using pymatgen
 data_Cr13Fe28Ni13
_symmetry_space_group_name_H-M   'P 1'
_cell_length_a   7.45631597
_cell_length_b   7.45631597
_cell_length_c   10.54482317
_cell_angle_alpha   90.00000000
_cell_angle_beta   90.00000000
_cell_angle_gamma   90.00000000
_symmetry_Int_Tables_number   1
_chemical_formula_structural   Cr13Fe28Ni13
_chemical_formula_sum   'Cr13 Fe28 Ni13'
_cell_volume   586.25682105
_cell_formula_units_Z   1
loop_
 _symmetry_equiv_pos_site_id
 _symmetry_equiv_pos_as_xyz
  1  'x, y, z'
loop_
 _atom_site_type_symbol
 _atom_site_label
 _atom_site_symmetry_multiplicity
 _atom_site_fract_x
 _atom_site_fract_y
 _atom_site_fract_z
 _atom_site_occupancy
  Cr  Cr0  1  0.99683341  1.00065618  0.00163957  1
  Fe  Fe1  1  0.16842313  0.16620693  0.16767831  1
  Fe  Fe2  1  0.99983752  1.00016148  0.33485260  1
  Fe  Fe3  1  0.99929137  0.33459034  0.99999088  1
  Cr  Cr4  1  0.16653285  0.49831913  0.16579969  1
  Fe  Fe5  1  0.99706666  0.33241424  0.33660195  1
  Cr  Cr6  1  0.00083765  0.66743150  0.99786575  1
  Ni  Ni7  1  0.16749520  0.83569089  0.16697939  1
  Fe  Fe8  1  0.99926247  0.67061269  0.33485714  1
  Fe  Fe9  1  0.33494055  0.99716340  0.00147351  1
  Fe  Fe10  1  0.49922253  0.16602292  0.16843168  1
  Cr  Cr11  1  0.33439044  0.00104338  0.33572985  1
  Fe  Fe12  1  0.33586552  0.33480991  0.99884550  1
  Cr  Cr13  1  0.50176136  0.50399450  0.16872857  1
  Cr  Cr14  1  0.33330500  0.33201521  0.34200210  1
  Ni  Ni15  1  0.33255766  0.66790611  0.99858863  1
  Ni  Ni16  1  0.50238557  0.83484213  0.16642620  1
  Cr  Cr17  1  0.33111331  0.66788315  0.33809416  1
  Cr  Cr18  1  0.66830473  0.00201326  0.99907135  1
  Fe  Fe19  1  0.83568656  0.16805584  0.17191602  1
  Ni  Ni20  1  0.67124963  0.00209105  0.33264910  1
  Cr  Cr21  1  0.67035138  0.33215433  1.00057054  1
  Fe  Fe22  1  0.83512267  0.50254134  0.17062616  1
  Fe  Fe23  1  0.66900201  0.33294145  0.33674835  1
  Cr  Cr24  1  0.66800466  0.66852180  0.99679560  1
  Fe  Fe25  1  0.83418376  0.83207807  0.17126587  1
  Ni  Ni26  1  0.67117566  0.66752169  0.33519974  1
  Ni  Ni27  1  0.16306094  0.16742051  0.50249107  1
  Fe  Fe28  1  0.00101576  0.99960425  0.66589690  1
  Cr  Cr29  1  0.16518691  0.16652917  0.83562112  1
  Fe  Fe30  1  0.16021111  0.49897040  0.50344598  1
  Fe  Fe31  1  0.00095553  0.33349835  0.66594228  1
  Ni  Ni32  1  0.16873754  0.49766012  0.83331967  1
  Fe  Fe33  1  0.16309026  0.83833100  0.50195966  1
  Fe  Fe34  1  0.99771489  0.66947588  0.66801631  1
  Fe  Fe35  1  0.17047350  0.83233363  0.83305193  1
  Fe  Fe36  1  0.50645400  0.16510469  0.50422804  1
  Ni  Ni37  1  0.33374127  0.00237656  0.66599219  1
  Fe  Fe38  1  0.49888838  0.16950636  0.83048421  1
  Ni  Ni39  1  0.50392109  0.49902667  0.50171337  1
  Fe  Fe40  1  0.33567917  0.33176895  0.66500005  1
  Ni  Ni41  1  0.49976497  0.50197699  0.83314062  1
  Cr  Cr42  1  0.50777986  0.83333381  0.50086645  1
  Cr  Cr43  1  0.32986355  0.66487039  0.66390288  1
  Fe  Fe44  1  0.49673651  0.83527586  0.83112361  1
  Ni  Ni45  1  0.83620945  0.16575051  0.50182398  1
  Ni  Ni46  1  0.66989721  0.00385540  0.66926355  1
  Fe  Fe47  1  0.83304446  0.17079105  0.82895405  1
  Fe  Fe48  1  0.83302364  0.50099291  0.50085622  1
  Fe  Fe49  1  0.66540595  0.33454809  0.66693893  1
  Fe  Fe50  1  0.83603706  0.49831787  0.82944137  1
  Ni  Ni51  1  0.83499583  0.83627963  0.50062098  1
  Fe  Fe52  1  0.66820256  0.66801649  0.66728167  1
  Fe  Fe53  1  0.83456560  0.83356179  0.82805496  1
" 