3300,Ni25Cr75_4,-229.902476919208, 149.845380415328,Ni25Cr75,"# generated using pymatgen
 data_Cr13Ni41
_symmetry_space_group_name_H-M   'P 1'
_cell_length_a   7.48309590
_cell_length_b   7.48309590
_cell_length_c   10.58269572
_cell_angle_alpha   90.00000000
_cell_angle_beta   90.00000000
_cell_angle_gamma   90.00000000
_symmetry_Int_Tables_number   1
_chemical_formula_structural   Cr13Ni41
_chemical_formula_sum   'Cr13 Ni41'
_cell_volume   592.59629440
_cell_formula_units_Z   1
loop_
 _symmetry_equiv_pos_site_id
 _symmetry_equiv_pos_as_xyz
  1  'x, y, z'
loop_
 _atom_site_type_symbol
 _atom_site_label
 _atom_site_symmetry_multiplicity
 _atom_site_fract_x
 _atom_site_fract_y
 _atom_site_fract_z
 _atom_site_occupancy
  Cr  Cr0  1  -0.00001101  0.99791760  0.99867466  1
  Ni  Ni1  1  0.16749871  0.16752272  0.16666695  1
  Ni  Ni2  1  0.00172705  -0.00002310  0.33350306  1
  Ni  Ni3  1  0.99875969  0.33419444  -0.00058937  1
  Ni  Ni4  1  0.16871979  0.49790125  0.16477276  1
  Ni  Ni5  1  0.00062838  0.33075355  0.33225680  1
  Ni  Ni6  1  -0.00018127  0.66466724  0.99790554  1
  Ni  Ni7  1  0.16858831  0.83138172  0.16479889  1
  Cr  Cr8  1  -0.00036632  0.66656896  0.33317570  1
  Ni  Ni9  1  0.33495106  0.99805931  0.00005729  1
  Ni  Ni10  1  0.49680395  0.16737747  0.16362435  1
  Cr  Cr11  1  0.33000788  0.99820717  0.33141450  1
  Ni  Ni12  1  0.33426861  0.33221570  0.00133245  1
  Ni  Ni13  1  0.49653208  0.49900119  0.16625731  1
  Ni  Ni14  1  0.33133857  0.33292838  0.32942160  1
  Ni  Ni15  1  0.33307464  0.66650848  0.00044204  1
  Ni  Ni16  1  0.49680995  0.83040675  0.16426396  1
  Ni  Ni17  1  0.33404332  0.66545208  0.33030747  1
  Ni  Ni18  1  0.66189813  -0.00092527  0.99722069  1
  Cr  Cr19  1  0.83208617  0.16641836  0.16580142  1
  Cr  Cr20  1  0.66502496  0.99705242  0.33204507  1
  Ni  Ni21  1  0.66376565  0.33236580  0.99728812  1
  Cr  Cr22  1  0.83148159  0.49843155  0.16515815  1
  Ni  Ni23  1  0.66479732  0.33517753  0.33129125  1
  Ni  Ni24  1  0.66388336  0.66535279  0.99762979  1
  Cr  Cr25  1  0.83092711  0.83191047  0.16485476  1
  Ni  Ni26  1  0.66319275  0.66428909  0.33354196  1
  Ni  Ni27  1  0.16418245  0.16450768  0.49913128  1
  Ni  Ni28  1  -0.00079660  0.99713786  0.66452933  1
  Cr  Cr29  1  0.16666472  0.16510069  0.83064851  1
  Cr  Cr30  1  0.16589010  0.49775651  0.50017125  1
  Ni  Ni31  1  0.99699285  0.33224183  0.66508363  1
  Cr  Cr32  1  0.16611213  0.50078716  0.83245181  1
  Ni  Ni33  1  0.16534173  0.83398640  0.50063906  1
  Ni  Ni34  1  0.99708602  0.66738740  0.66575372  1
  Ni  Ni35  1  0.16635299  0.83127637  0.83136996  1
  Cr  Cr36  1  0.49727745  0.16589619  0.50102486  1
  Ni  Ni37  1  0.33209963  0.99722316  0.66533072  1
  Ni  Ni38  1  0.50113825  0.16540991  0.83245877  1
  Cr  Cr39  1  0.49993457  0.50063266  0.49853375  1
  Ni  Ni40  1  0.33321798  0.33097721  0.66610028  1
  Ni  Ni41  1  0.50082964  0.49898973  0.83221738  1
  Ni  Ni42  1  0.49907768  0.83030900  0.50026611  1
  Ni  Ni43  1  0.33307056  0.66856031  0.66609996  1
  Ni  Ni44  1  0.49937213  0.83236801  0.83224807  1
  Cr  Cr45  1  0.83437993  0.16605568  0.49882635  1
  Ni  Ni46  1  0.66546591  0.99726418  0.66750295  1
  Ni  Ni47  1  0.82938101  0.16626959  0.83153630  1
  Ni  Ni48  1  0.83158949  0.49997708  0.49960664  1
  Ni  Ni49  1  0.66654007  0.33322827  0.66819253  1
  Ni  Ni50  1  0.83055111  0.49896798  0.83204037  1
  Ni  Ni51  1  0.83238961  0.83084181  0.50028757  1
  Ni  Ni52  1  0.66665434  0.66627489  0.66558129  1
  Ni  Ni53  1  0.83104945  0.83155441  0.83134600  1
" 