8891,Ni25Cr75_7,-230.210267381824, 153.986321765005,Ni25Cr75,"# generated using pymatgen
 data_Cr13Ni41
_symmetry_space_group_name_H-M   'P 1'
_cell_length_a   7.47866966
_cell_length_b   7.47866966
_cell_length_c   10.57643606
_cell_angle_alpha   90.00000000
_cell_angle_beta   90.00000000
_cell_angle_gamma   90.00000000
_symmetry_Int_Tables_number   1
_chemical_formula_structural   Cr13Ni41
_chemical_formula_sum   'Cr13 Ni41'
_cell_volume   591.54535545
_cell_formula_units_Z   1
loop_
 _symmetry_equiv_pos_site_id
 _symmetry_equiv_pos_as_xyz
  1  'x, y, z'
loop_
 _atom_site_type_symbol
 _atom_site_label
 _atom_site_symmetry_multiplicity
 _atom_site_fract_x
 _atom_site_fract_y
 _atom_site_fract_z
 _atom_site_occupancy
  Cr  Cr0  1  0.99734652  0.00000676  0.99889264  1
  Cr  Cr1  1  0.16633519  0.16753285  0.16523905  1
  Ni  Ni2  1  0.99611111  0.00091298  0.33216390  1
  Ni  Ni3  1  0.99784613  0.33425281  0.99764722  1
  Cr  Cr4  1  0.16591075  0.49776433  0.16612804  1
  Ni  Ni5  1  0.99672641  0.33138815  0.33310774  1
  Ni  Ni6  1  0.99487367  0.66349727  0.99900646  1
  Cr  Cr7  1  0.16412444  0.83237104  0.16677173  1
  Cr  Cr8  1  0.00042288  0.66553179  0.33270286  1
  Ni  Ni9  1  0.33502466  0.00180188  0.99858204  1
  Ni  Ni10  1  0.50197335  0.16821749  0.16517740  1
  Cr  Cr11  1  0.33378878  0.99871378  0.33379608  1
  Ni  Ni12  1  0.33332468  0.33159696  0.99897676  1
  Ni  Ni13  1  0.50105143  0.49573369  0.16620027  1
  Ni  Ni14  1  0.33505337  0.33513836  0.33262570  1
  Cr  Cr15  1  0.33424431  0.66443978  0.99822387  1
  Cr  Cr16  1  0.50156845  0.83345887  0.16461142  1
  Ni  Ni17  1  0.33287452  0.66348699  0.33544849  1
  Ni  Ni18  1  0.66572431  0.99882932  0.00000675  1
  Ni  Ni19  1  0.82978153  0.16634068  0.16764071  1
  Ni  Ni20  1  0.66776912  0.00308824  0.33200935  1
  Ni  Ni21  1  0.66649857  0.33364384  0.00116987  1
  Ni  Ni22  1  0.83087260  0.49778161  0.16387238  1
  Ni  Ni23  1  0.66588935  0.33047567  0.33218109  1
  Ni  Ni24  1  0.66837945  0.66519597  0.99853188  1
  Ni  Ni25  1  0.83164097  0.83354629  0.16464829  1
  Cr  Cr26  1  0.66411250  0.66401940  0.33203053  1
  Cr  Cr27  1  0.16482644  0.16667248  0.50000663  1
  Ni  Ni28  1  0.99861317  -0.00005634  0.66635405  1
  Ni  Ni29  1  0.16515581  0.16844963  0.83242642  1
  Ni  Ni30  1  0.16726199  0.50053800  0.49949803  1
  Ni  Ni31  1  0.99843914  0.33323243  0.66691351  1
  Ni  Ni32  1  0.16465073  0.49656755  0.83203934  1
  Ni  Ni33  1  0.16803258  0.83054802  0.50003638  1
  Ni  Ni34  1  -0.00046868  0.66449156  0.66596759  1
  Cr  Cr35  1  0.16591179  0.83281701  0.83111213  1
  Ni  Ni36  1  0.50156695  0.16658267  0.49914287  1
  Ni  Ni37  1  0.33316967  0.99776264  0.66529103  1
  Cr  Cr38  1  0.49867708  0.16558050  0.83308640  1
  Ni  Ni39  1  0.49768894  0.49867531  0.49928493  1
  Ni  Ni40  1  0.33225141  0.33432267  0.66606587  1
  Ni  Ni41  1  0.49984932  0.50029348  0.83218425  1
  Ni  Ni42  1  0.49691792  0.83241111  0.50094271  1
  Ni  Ni43  1  0.33334097  0.66558466  0.66399523  1
  Ni  Ni44  1  0.50171756  0.83188960  0.83186516  1
  Ni  Ni45  1  0.83085493  0.16735291  0.49836477  1
  Ni  Ni46  1  0.66588641  0.99885428  0.66565169  1
  Ni  Ni47  1  0.83393361  0.16658075  0.83166247  1
  Ni  Ni48  1  0.83271828  0.49588685  0.50062336  1
  Ni  Ni49  1  0.66697883  0.33340516  0.66431762  1
  Ni  Ni50  1  0.83316867  0.49970288  0.83317304  1
  Cr  Cr51  1  0.83262467  0.83433408  0.50063507  1
  Ni  Ni52  1  0.66479591  0.66540942  0.66736910  1
  Ni  Ni53  1  0.83020817  0.83138519  0.83263913  1
" 