3792,Ni25Fe15Cr59_14,-215.685927522393, 166.35421616224,Ni25Fe15Cr59,"# generated using pymatgen
 data_Cr33Fe8Ni13
_symmetry_space_group_name_H-M   'P 1'
_cell_length_a   7.53167509
_cell_length_b   7.53167509
_cell_length_c   10.65139706
_cell_angle_alpha   90.00000000
_cell_angle_beta   90.00000000
_cell_angle_gamma   90.00000000
_symmetry_Int_Tables_number   1
_chemical_formula_structural   Cr33Fe8Ni13
_chemical_formula_sum   'Cr33 Fe8 Ni13'
_cell_volume   604.21253011
_cell_formula_units_Z   1
loop_
 _symmetry_equiv_pos_site_id
 _symmetry_equiv_pos_as_xyz
  1  'x, y, z'
loop_
 _atom_site_type_symbol
 _atom_site_label
 _atom_site_symmetry_multiplicity
 _atom_site_fract_x
 _atom_site_fract_y
 _atom_site_fract_z
 _atom_site_occupancy
  Cr  Cr0  1  0.00104203  -0.00259489  0.99506506  1
  Ni  Ni1  1  0.16300083  0.16359991  0.16375107  1
  Ni  Ni2  1  -0.00180295  0.99557261  0.33055184  1
  Cr  Cr3  1  -0.00058132  0.33054506  0.99517425  1
  Ni  Ni4  1  0.15926937  0.49427061  0.16548409  1
  Ni  Ni5  1  -0.00210923  0.32931158  0.32800184  1
  Cr  Cr6  1  -0.00312876  0.65938940  -0.00420113  1
  Cr  Cr7  1  0.16254814  0.82866276  0.16488078  1
  Ni  Ni8  1  -0.00406927  0.66180574  0.32782681  1
  Ni  Ni9  1  0.32658637  -0.00100788  -0.00318204  1
  Ni  Ni10  1  0.49263485  0.16144340  0.16209738  1
  Ni  Ni11  1  0.32664126  -0.00234534  0.32675306  1
  Cr  Cr12  1  0.32671496  0.32718460  -0.00236136  1
  Cr  Cr13  1  0.49503278  0.49620749  0.16396827  1
  Cr  Cr14  1  0.32819370  0.32799484  0.32639714  1
  Cr  Cr15  1  0.32653162  0.65917527  0.99531463  1
  Cr  Cr16  1  0.49361036  0.83104808  0.16140868  1
  Fe  Fe17  1  0.32630279  0.66236398  0.32813917  1
  Cr  Cr18  1  0.66086717  -0.00311166  -0.00280475  1
  Cr  Cr19  1  0.83052198  0.16387447  0.16481853  1
  Cr  Cr20  1  0.66231938  -0.00416011  0.33138500  1
  Cr  Cr21  1  0.66099684  0.33082703  -0.00250065  1
  Fe  Fe22  1  0.83270734  0.49455365  0.16475774  1
  Cr  Cr23  1  0.66070289  0.32866380  0.32916254  1
  Cr  Cr24  1  0.66386049  0.65945964  0.99448018  1
  Cr  Cr25  1  0.83046930  0.82799111  0.16263910  1
  Cr  Cr26  1  0.66274621  0.66236183  0.33040373  1
  Cr  Cr27  1  0.16220552  0.16447466  0.49646892  1
  Cr  Cr28  1  -0.00300798  0.99538514  0.66096181  1
  Ni  Ni29  1  0.16474467  0.16667369  0.82709786  1
  Cr  Cr30  1  0.16328444  0.49515351  0.49505868  1
  Fe  Fe31  1  -0.00138371  0.32925786  0.66298949  1
  Ni  Ni32  1  0.16266834  0.49265092  0.82603900  1
  Cr  Cr33  1  0.16297905  0.82779835  0.49337235  1
  Cr  Cr34  1  -0.00411263  0.66303740  0.66405868  1
  Cr  Cr35  1  0.16526858  0.82989961  0.82859140  1
  Cr  Cr36  1  0.49318984  0.16308737  0.49598061  1
  Ni  Ni37  1  0.32756336  -0.00086350  0.66403576  1
  Cr  Cr38  1  0.49440174  0.16160360  0.83023095  1
  Fe  Fe39  1  0.49313093  0.49607501  0.49612357  1
  Ni  Ni40  1  0.32812702  0.33060264  0.66449201  1
  Fe  Fe41  1  0.49189590  0.49440279  0.82802841  1
  Cr  Cr42  1  0.49153275  0.82825858  0.49577738  1
  Fe  Fe43  1  0.32896688  0.66089184  0.66321508  1
  Cr  Cr44  1  0.49399689  0.82969423  0.82984207  1
  Fe  Fe45  1  0.83211811  0.16195563  0.49362396  1
  Cr  Cr46  1  0.66412210  0.99466244  0.65852424  1
  Cr  Cr47  1  0.83027428  0.16491124  0.82687731  1
  Cr  Cr48  1  0.83260082  0.49307759  0.49388001  1
  Cr  Cr49  1  0.65993196  0.33034955  0.66071086  1
  Fe  Fe50  1  0.83119047  0.49361164  0.82801301  1
  Ni  Ni51  1  0.83054413  0.82751799  0.49365967  1
  Cr  Cr52  1  0.66220722  0.66163115  0.66249351  1
  Cr  Cr53  1  0.82826973  0.82943163  0.83076199  1
" 