4271,Ni25Cr75_6,-229.721663493648, 147.529453087355,Ni25Cr75,"# generated using pymatgen
 data_Cr13Ni41
_symmetry_space_group_name_H-M   'P 1'
_cell_length_a   7.48242481
_cell_length_b   7.48242481
_cell_length_c   10.58174665
_cell_angle_alpha   90.00000000
_cell_angle_beta   90.00000000
_cell_angle_gamma   90.00000000
_symmetry_Int_Tables_number   1
_chemical_formula_structural   Cr13Ni41
_chemical_formula_sum   'Cr13 Ni41'
_cell_volume   592.43687455
_cell_formula_units_Z   1
loop_
 _symmetry_equiv_pos_site_id
 _symmetry_equiv_pos_as_xyz
  1  'x, y, z'
loop_
 _atom_site_type_symbol
 _atom_site_label
 _atom_site_symmetry_multiplicity
 _atom_site_fract_x
 _atom_site_fract_y
 _atom_site_fract_z
 _atom_site_occupancy
  Ni  Ni0  1  0.99740733  0.00030910  0.99605318  1
  Cr  Cr1  1  0.16258818  0.16749381  0.16405768  1
  Ni  Ni2  1  0.99627760  0.00010585  0.33348986  1
  Ni  Ni3  1  0.99757763  0.33324040  0.99830179  1
  Ni  Ni4  1  0.16471779  0.49792529  0.16690957  1
  Ni  Ni5  1  0.99745279  0.33348203  0.33146815  1
  Ni  Ni6  1  0.99756018  0.66347222  0.99725094  1
  Cr  Cr7  1  0.16408939  0.83286012  0.16552718  1
  Ni  Ni8  1  0.00083552  0.66339941  0.33200310  1
  Ni  Ni9  1  0.33270162  0.00030823  0.99673377  1
  Cr  Cr10  1  0.49988819  0.16667669  0.16377301  1
  Cr  Cr11  1  0.33494589  0.99739102  0.33362424  1
  Ni  Ni12  1  0.33148341  0.33190474  0.99810022  1
  Ni  Ni13  1  0.50009025  0.49927224  0.16650682  1
  Ni  Ni14  1  0.33272839  0.33575644  0.33209429  1
  Cr  Cr15  1  0.33117049  0.66469238  0.00041183  1
  Ni  Ni16  1  0.50102255  0.83058813  0.16592012  1
  Ni  Ni17  1  0.33232711  0.66409015  0.33269787  1
  Ni  Ni18  1  0.66675583  0.00045185  0.99846612  1
  Ni  Ni19  1  0.83231428  0.16721815  0.16635030  1
  Ni  Ni20  1  0.66631584  0.00033889  0.33319916  1
  Ni  Ni21  1  0.66780227  0.33186198  -0.00096876  1
  Ni  Ni22  1  0.83220131  0.49787045  0.16534662  1
  Ni  Ni23  1  0.66670194  0.33106735  0.33153480  1
  Ni  Ni24  1  0.66834681  0.66450811  -0.00005163  1
  Cr  Cr25  1  0.83186388  0.83299522  0.16524076  1
  Ni  Ni26  1  0.66386483  0.66544281  0.33028751  1
  Cr  Cr27  1  0.16402770  0.16729866  0.49917590  1
  Ni  Ni28  1  0.99871179  0.00071717  0.66703148  1
  Ni  Ni29  1  0.16550763  0.16573019  0.83272163  1
  Ni  Ni30  1  0.16660752  0.49933606  0.49795054  1
  Ni  Ni31  1  0.99860237  0.33064396  0.66715815  1
  Ni  Ni32  1  0.16441327  0.49665804  0.83210026  1
  Ni  Ni33  1  0.16677794  0.83139743  0.49905072  1
  Cr  Cr34  1  0.00051834  0.66498735  0.66818760  1
  Ni  Ni35  1  0.16396315  0.83447253  0.83212450  1
  Ni  Ni36  1  0.50079135  0.16539284  0.50034334  1
  Ni  Ni37  1  0.33255443  -0.00089394  0.66589962  1
  Ni  Ni38  1  0.49874574  0.16580056  0.83213868  1
  Cr  Cr39  1  0.49858039  0.49833691  0.50038060  1
  Ni  Ni40  1  0.33124703  0.33103350  0.66650900  1
  Cr  Cr41  1  0.50047955  0.49620999  0.83071145  1
  Ni  Ni42  1  0.49870321  0.83256618  0.49947438  1
  Ni  Ni43  1  0.33073226  0.66679440  0.66400325  1
  Cr  Cr44  1  0.50056336  0.83374681  0.83190143  1
  Ni  Ni45  1  0.83101494  0.16553100  0.49846467  1
  Ni  Ni46  1  0.66555592  0.00126201  0.66521890  1
  Ni  Ni47  1  0.83264539  0.16560056  0.83214449  1
  Cr  Cr48  1  0.83263235  0.49664912  0.49888060  1
  Ni  Ni49  1  0.66709944  0.32867628  0.66661549  1
  Ni  Ni50  1  0.83270842  0.49805813  0.83327807  1
  Cr  Cr51  1  0.83201024  0.83371732  0.49843086  1
  Ni  Ni52  1  0.66525067  0.66680829  0.66697384  1
  Ni  Ni53  1  0.83303632  0.83325761  0.83331408  1
" 