1113,Ni25Fe53Cr21_2,-228.568609536235, 189.983946829989,Ni25Fe53Cr21,"# generated using pymatgen
 data_Cr13Fe28Ni13
_symmetry_space_group_name_H-M   'P 1'
_cell_length_a   7.45382562
_cell_length_b   7.45382562
_cell_length_c   10.54130128
_cell_angle_alpha   90.00000000
_cell_angle_beta   90.00000000
_cell_angle_gamma   90.00000000
_symmetry_Int_Tables_number   1
_chemical_formula_structural   Cr13Fe28Ni13
_chemical_formula_sum   'Cr13 Fe28 Ni13'
_cell_volume   585.66960034
_cell_formula_units_Z   1
loop_
 _symmetry_equiv_pos_site_id
 _symmetry_equiv_pos_as_xyz
  1  'x, y, z'
loop_
 _atom_site_type_symbol
 _atom_site_label
 _atom_site_symmetry_multiplicity
 _atom_site_fract_x
 _atom_site_fract_y
 _atom_site_fract_z
 _atom_site_occupancy
  Fe  Fe0  1  1.00080439  0.00159460  0.00143574  1
  Cr  Cr1  1  0.16701884  0.16655516  0.16575761  1
  Cr  Cr2  1  0.99977506  1.00048687  0.33514832  1
  Ni  Ni3  1  0.99957139  0.33469090  1.00043523  1
  Fe  Fe4  1  0.16505905  0.50352542  0.16728179  1
  Ni  Ni5  1  0.00131829  0.33559230  0.33457017  1
  Ni  Ni6  1  1.00005456  0.66691644  0.00304215  1
  Fe  Fe7  1  0.16747317  0.83125248  0.16656796  1
  Fe  Fe8  1  0.00093940  0.66655896  0.33277337  1
  Fe  Fe9  1  0.33380193  1.00003289  1.00062814  1
  Fe  Fe10  1  0.50328016  0.16818889  0.16787044  1
  Fe  Fe11  1  0.33366930  1.00077255  0.33478086  1
  Cr  Cr12  1  0.33467755  0.33507132  1.00066621  1
  Ni  Ni13  1  0.50412899  0.50269401  0.16836597  1
  Cr  Cr14  1  0.33432412  0.33586689  0.33527456  1
  Fe  Fe15  1  0.33614806  0.66743613  0.00201838  1
  Fe  Fe16  1  0.50072235  0.83202479  0.16752581  1
  Fe  Fe17  1  0.33344487  0.66770953  0.33346172  1
  Cr  Cr18  1  0.66756056  1.00046916  1.00085773  1
  Fe  Fe19  1  0.83338946  0.17060166  0.16674586  1
  Cr  Cr20  1  0.66831283  0.00094011  0.33437793  1
  Ni  Ni21  1  0.66843916  0.33601438  0.00098601  1
  Ni  Ni22  1  0.83291707  0.50200570  0.16621893  1
  Fe  Fe23  1  0.66843837  0.33494335  0.33294099  1
  Ni  Ni24  1  0.66722958  0.66632339  0.00165785  1
  Ni  Ni25  1  0.83465200  0.83070864  0.16761503  1
  Fe  Fe26  1  0.66827620  0.66566995  0.33194785  1
  Ni  Ni27  1  0.16891261  0.16777565  0.50214724  1
  Cr  Cr28  1  0.99966610  0.00206764  0.66578746  1
  Ni  Ni29  1  0.16779314  0.16730068  0.83413807  1
  Fe  Fe30  1  0.16841687  0.50044974  0.50138926  1
  Fe  Fe31  1  1.00087040  0.33334178  0.66747244  1
  Cr  Cr32  1  0.16632535  0.49951270  0.83402449  1
  Fe  Fe33  1  0.16794046  0.83377272  0.50104981  1
  Fe  Fe34  1  0.00156218  0.66699772  0.66669913  1
  Cr  Cr35  1  0.16897048  0.83602390  0.83577809  1
  Ni  Ni36  1  0.49952773  0.16768048  0.50229682  1
  Fe  Fe37  1  0.33577321  0.00270633  0.66725551  1
  Fe  Fe38  1  0.50072405  0.16779521  0.83247723  1
  Fe  Fe39  1  0.49917113  0.49877667  0.50092841  1
  Fe  Fe40  1  0.33530757  0.33267016  0.66690441  1
  Ni  Ni41  1  0.50329473  0.50061419  0.83359759  1
  Cr  Cr42  1  0.50025338  0.83538161  0.50125088  1
  Fe  Fe43  1  0.33423304  0.66728451  0.66718174  1
  Fe  Fe44  1  0.49951212  0.83404533  0.83392733  1
  Fe  Fe45  1  0.83342148  0.16799085  0.50151701  1
  Ni  Ni46  1  0.66657419  0.00268538  0.66705541  1
  Fe  Fe47  1  0.83435552  0.17066056  0.83439683  1
  Cr  Cr48  1  0.83465172  0.50075145  0.50019565  1
  Fe  Fe49  1  0.66648402  0.33180281  0.66856237  1
  Fe  Fe50  1  0.83381547  0.49876339  0.83613218  1
  Fe  Fe51  1  0.83509680  0.83542930  0.50096681  1
  Cr  Cr52  1  0.66654894  0.66840578  0.66940643  1
  Cr  Cr53  1  0.83326459  0.83256104  0.83440280  1
" 