8822,Ni25Cr75_13,-230.085229718483, 152.391689188162,Ni25Cr75,"# generated using pymatgen
 data_Cr13Ni41
_symmetry_space_group_name_H-M   'P 1'
_cell_length_a   7.48150847
_cell_length_b   7.48150847
_cell_length_c   10.58045074
_cell_angle_alpha   90.00000000
_cell_angle_beta   90.00000000
_cell_angle_gamma   90.00000000
_symmetry_Int_Tables_number   1
_chemical_formula_structural   Cr13Ni41
_chemical_formula_sum   'Cr13 Ni41'
_cell_volume   592.21924131
_cell_formula_units_Z   1
loop_
 _symmetry_equiv_pos_site_id
 _symmetry_equiv_pos_as_xyz
  1  'x, y, z'
loop_
 _atom_site_type_symbol
 _atom_site_label
 _atom_site_symmetry_multiplicity
 _atom_site_fract_x
 _atom_site_fract_y
 _atom_site_fract_z
 _atom_site_occupancy
  Ni  Ni0  1  0.99870536  0.00082837  0.00049225  1
  Ni  Ni1  1  0.16467127  0.16748675  0.16782808  1
  Ni  Ni2  1  0.00142564  0.00066401  0.33181101  1
  Ni  Ni3  1  0.99790551  0.33259610  0.00022529  1
  Ni  Ni4  1  0.16580087  0.49660409  0.16517183  1
  Ni  Ni5  1  -0.00019652  0.33179881  0.33132154  1
  Ni  Ni6  1  -0.00048532  0.66333157  0.99855129  1
  Ni  Ni7  1  0.16561368  0.83300773  0.16639362  1
  Cr  Cr8  1  0.00052500  0.66429530  0.33360625  1
  Cr  Cr9  1  0.33150092  0.00115566  0.00162322  1
  Ni  Ni10  1  0.49954897  0.16729207  0.16626649  1
  Ni  Ni11  1  0.33108700  0.99842731  0.33126938  1
  Ni  Ni12  1  0.33200671  0.33184276  0.00074701  1
  Ni  Ni13  1  0.49936159  0.49778961  0.16702319  1
  Ni  Ni14  1  0.33098345  0.33296049  0.33110862  1
  Cr  Cr15  1  0.32939052  0.66574491  0.00184922  1
  Ni  Ni16  1  0.49977493  0.83216489  0.16810059  1
  Ni  Ni17  1  0.33315880  0.66596464  0.33210783  1
  Ni  Ni18  1  0.66632258  0.00312000  -0.00012366  1
  Ni  Ni19  1  0.83292889  0.16715155  0.16582650  1
  Ni  Ni20  1  0.66479129  -0.00095556  0.33142445  1
  Ni  Ni21  1  0.66723574  0.33073670  -0.00010173  1
  Ni  Ni22  1  0.83197093  0.49661019  0.16471675  1
  Ni  Ni23  1  0.66625635  0.33395591  0.33021385  1
  Ni  Ni24  1  0.66744108  0.66293416  0.00172159  1
  Cr  Cr25  1  0.83207530  0.83268631  0.16486465  1
  Ni  Ni26  1  0.66377960  0.66437081  0.33376203  1
  Ni  Ni27  1  0.16556642  0.16626125  0.49847374  1
  Ni  Ni28  1  -0.00010992  0.99859315  0.66451540  1
  Cr  Cr29  1  0.16540897  0.16748847  0.83033414  1
  Ni  Ni30  1  0.16586079  0.49671612  0.49944054  1
  Ni  Ni31  1  0.00022839  0.33390678  0.66504353  1
  Ni  Ni32  1  0.16172673  0.49814530  0.83247963  1
  Ni  Ni33  1  0.16539785  0.83416334  0.49931218  1
  Ni  Ni34  1  0.00018715  0.66457196  0.66525796  1
  Ni  Ni35  1  0.16221665  0.83195859  0.83172548  1
  Cr  Cr36  1  0.49541220  0.16641564  0.49873703  1
  Ni  Ni37  1  0.33098029  -0.00031256  0.66478933  1
  Ni  Ni38  1  0.50013657  0.16610988  0.83219461  1
  Ni  Ni39  1  0.49711680  0.49945590  0.49523236  1
  Ni  Ni40  1  0.32973686  0.33153656  0.66496476  1
  Cr  Cr41  1  0.49696065  0.49563110  0.83493850  1
  Ni  Ni42  1  0.49886921  0.83315566  0.49652424  1
  Cr  Cr43  1  0.32931794  0.66597682  0.66373948  1
  Cr  Cr44  1  0.49966901  0.83477654  0.83284139  1
  Cr  Cr45  1  0.83593906  0.16465930  0.49663729  1
  Ni  Ni46  1  0.66608298  -0.00025411  0.66594557  1
  Ni  Ni47  1  0.83300423  0.16615838  0.83362387  1
  Ni  Ni48  1  0.83427738  0.49947804  0.49750632  1
  Cr  Cr49  1  0.66820269  0.33170720  0.66662452  1
  Ni  Ni50  1  0.83633254  0.49726434  0.83461976  1
  Ni  Ni51  1  0.83286718  0.83277073  0.49900582  1
  Cr  Cr52  1  0.66850721  0.66445819  0.66153035  1
  Cr  Cr53  1  0.83433623  0.83245450  0.83397330  1
" 