768,Ni25Fe15Cr59_8,-215.510974245658, 164.674621160307,Ni25Fe15Cr59,"# generated using pymatgen
 data_Cr33Fe8Ni13
_symmetry_space_group_name_H-M   'P 1'
_cell_length_a   7.53602066
_cell_length_b   7.53602066
_cell_length_c   10.65754263
_cell_angle_alpha   90.00000000
_cell_angle_beta   90.00000000
_cell_angle_gamma   90.00000000
_symmetry_Int_Tables_number   1
_chemical_formula_structural   Cr33Fe8Ni13
_chemical_formula_sum   'Cr33 Fe8 Ni13'
_cell_volume   605.25897718
_cell_formula_units_Z   1
loop_
 _symmetry_equiv_pos_site_id
 _symmetry_equiv_pos_as_xyz
  1  'x, y, z'
loop_
 _atom_site_type_symbol
 _atom_site_label
 _atom_site_symmetry_multiplicity
 _atom_site_fract_x
 _atom_site_fract_y
 _atom_site_fract_z
 _atom_site_occupancy
  Ni  Ni0  1  -0.00289030  -0.00341458  -0.00419674  1
  Cr  Cr1  1  0.16122769  0.16304148  0.16253889  1
  Ni  Ni2  1  -0.00230927  0.99234721  0.32761080  1
  Ni  Ni3  1  -0.00114744  0.32564565  0.99406579  1
  Fe  Fe4  1  0.16115322  0.49483187  0.16394698  1
  Cr  Cr5  1  -0.00241232  0.33062980  0.33039587  1
  Cr  Cr6  1  -0.00301612  0.66223984  -0.00302059  1
  Fe  Fe7  1  0.16062442  0.83017502  0.16303700  1
  Ni  Ni8  1  -0.00361669  0.66135559  0.32840925  1
  Fe  Fe9  1  0.32867885  -0.00392537  -0.00272576  1
  Ni  Ni10  1  0.49241112  0.16261849  0.16208254  1
  Cr  Cr11  1  0.32900548  -0.00185886  0.32746071  1
  Cr  Cr12  1  0.32823839  0.32912874  0.00045528  1
  Fe  Fe13  1  0.49687752  0.49511064  0.16402469  1
  Ni  Ni14  1  0.32882873  0.33223565  0.32704617  1
  Cr  Cr15  1  0.32820800  0.66046297  -0.00210018  1
  Cr  Cr16  1  0.49615740  0.82804865  0.16075487  1
  Cr  Cr17  1  0.32762385  0.65880768  0.32755784  1
  Ni  Ni18  1  0.66136878  0.99539450  -0.00328521  1
  Cr  Cr19  1  0.82952953  0.16179659  0.16140017  1
  Cr  Cr20  1  0.66263500  -0.00411979  0.32852734  1
  Cr  Cr21  1  0.66042416  0.32826594  -0.00251099  1
  Cr  Cr22  1  0.82988086  0.49652938  0.16104136  1
  Cr  Cr23  1  0.65744226  0.32938746  0.32922308  1
  Ni  Ni24  1  0.65967350  0.66429960  -0.00338858  1
  Cr  Cr25  1  0.82920253  0.82786914  0.16320480  1
  Ni  Ni26  1  0.66214985  0.65878479  0.32967939  1
  Cr  Cr27  1  0.16170666  0.16387296  0.49545113  1
  Cr  Cr28  1  -0.00445579  -0.00436250  0.66259439  1
  Fe  Fe29  1  0.16148436  0.16237807  0.82989351  1
  Ni  Ni30  1  0.16287471  0.49502386  0.49397296  1
  Ni  Ni31  1  -0.00337524  0.32993806  0.66144124  1
  Cr  Cr32  1  0.16095914  0.49269610  0.82846751  1
  Cr  Cr33  1  0.16289860  0.82748886  0.49330713  1
  Cr  Cr34  1  -0.00321543  0.66110036  0.65980394  1
  Cr  Cr35  1  0.16559956  0.83038261  0.82840536  1
  Cr  Cr36  1  0.49368658  0.16420779  0.49461094  1
  Fe  Fe37  1  0.32772076  -0.00304053  0.66166962  1
  Cr  Cr38  1  0.49340071  0.16094888  0.82900297  1
  Ni  Ni39  1  0.49362645  0.49538737  0.49407226  1
  Cr  Cr40  1  0.32867778  0.32995196  0.66083246  1
  Cr  Cr41  1  0.49606305  0.49668114  0.82910286  1
  Cr  Cr42  1  0.49400970  0.82581464  0.49810953  1
  Fe  Fe43  1  0.32783736  0.65846795  0.66007707  1
  Cr  Cr44  1  0.49374017  0.82844181  0.82761268  1
  Cr  Cr45  1  0.83065173  0.16471418  0.49428567  1
  Cr  Cr46  1  0.66294089  -0.00271121  0.66111923  1
  Cr  Cr47  1  0.83034075  0.16479936  0.83031684  1
  Fe  Fe48  1  0.82895260  0.49531753  0.49464671  1
  Ni  Ni49  1  0.66209762  0.33110725  0.65922484  1
  Cr  Cr50  1  0.82913656  0.49295928  0.82950688  1
  Cr  Cr51  1  0.82930193  0.82693784  0.48905301  1
  Cr  Cr52  1  0.66283867  0.66055772  0.66104887  1
  Cr  Cr53  1  0.82743493  0.82813444  0.83401945  1
" 