6345,Ni25Cr75_0,-230.085245552596, 152.356469703216,Ni25Cr75,"# generated using pymatgen
 data_Cr13Ni41
_symmetry_space_group_name_H-M   'P 1'
_cell_length_a   7.48034055
_cell_length_b   7.48034055
_cell_length_c   10.57879906
_cell_angle_alpha   90.00000000
_cell_angle_beta   90.00000000
_cell_angle_gamma   90.00000000
_symmetry_Int_Tables_number   1
_chemical_formula_structural   Cr13Ni41
_chemical_formula_sum   'Cr13 Ni41'
_cell_volume   591.94193493
_cell_formula_units_Z   1
loop_
 _symmetry_equiv_pos_site_id
 _symmetry_equiv_pos_as_xyz
  1  'x, y, z'
loop_
 _atom_site_type_symbol
 _atom_site_label
 _atom_site_symmetry_multiplicity
 _atom_site_fract_x
 _atom_site_fract_y
 _atom_site_fract_z
 _atom_site_occupancy
  Ni  Ni0  1  0.99881911  0.99831420  -0.00074612  1
  Ni  Ni1  1  0.16538612  0.16538543  0.16769080  1
  Ni  Ni2  1  0.99811322  0.00016261  0.33180113  1
  Ni  Ni3  1  0.99685645  0.33085480  -0.00056526  1
  Ni  Ni4  1  0.16565262  0.49920760  0.16678900  1
  Ni  Ni5  1  0.00239665  0.32924835  0.33186379  1
  Ni  Ni6  1  0.99863925  0.66816405  -0.00056491  1
  Ni  Ni7  1  0.16359579  0.83274112  0.16461164  1
  Ni  Ni8  1  0.99908817  0.66792351  0.33056814  1
  Ni  Ni9  1  0.33060072  0.99865182  -0.00081891  1
  Ni  Ni10  1  0.49881441  0.16565426  0.16601642  1
  Ni  Ni11  1  0.33105689  0.00214223  0.33161780  1
  Cr  Cr12  1  0.33369418  0.33165943  0.00076166  1
  Ni  Ni13  1  0.49684014  0.49723573  0.16428805  1
  Ni  Ni14  1  0.33041884  0.33091796  0.33087113  1
  Ni  Ni15  1  0.33212008  0.66648540  0.00017961  1
  Cr  Cr16  1  0.49907875  0.83507225  0.16426631  1
  Cr  Cr17  1  0.33246357  0.66410414  0.33180007  1
  Ni  Ni18  1  0.66791431  0.00043567  -0.00031110  1
  Ni  Ni19  1  0.83313372  0.16359400  0.16538402  1
  Ni  Ni20  1  0.66816586  0.99883504  0.33288318  1
  Ni  Ni21  1  0.66623459  0.33237282  0.99787708  1
  Cr  Cr22  1  0.83492628  0.49893309  0.16380137  1
  Cr  Cr23  1  0.66434798  0.33066306  0.33154428  1
  Ni  Ni24  1  0.66657438  0.66452577  0.99846429  1
  Ni  Ni25  1  0.83510684  0.83471244  0.16570883  1
  Cr  Cr26  1  0.66623106  0.66828117  0.33431587  1
  Ni  Ni27  1  0.16431792  0.16605663  0.49878639  1
  Ni  Ni28  1  0.99861653  0.00016254  0.66627996  1
  Ni  Ni29  1  0.16491141  0.16316876  0.83085666  1
  Cr  Cr30  1  0.16565731  0.49664783  0.49952535  1
  Ni  Ni31  1  0.99862034  0.32947376  0.66603497  1
  Cr  Cr32  1  0.16400702  0.50052997  0.83102571  1
  Cr  Cr33  1  0.16558280  0.83418682  0.50046365  1
  Ni  Ni34  1  -0.00074623  0.66769786  0.66733074  1
  Ni  Ni35  1  0.16427798  0.83380324  0.83252610  1
  Cr  Cr36  1  0.49844091  0.16400050  0.49975696  1
  Ni  Ni37  1  0.33103061  0.00016379  0.66653569  1
  Ni  Ni38  1  0.50041435  0.16655201  0.83155886  1
  Ni  Ni39  1  0.49745171  0.49959350  0.50092654  1
  Ni  Ni40  1  0.33351812  0.33196875  0.66569226  1
  Ni  Ni41  1  0.50122590  0.49724644  0.83212092  1
  Ni  Ni42  1  0.50040065  0.83338207  0.49976618  1
  Ni  Ni43  1  0.33288570  0.66520260  0.66535720  1
  Cr  Cr44  1  0.49749144  0.83416754  0.83330425  1
  Ni  Ni45  1  0.83440191  0.16310904  0.49983104  1
  Ni  Ni46  1  0.66768867  0.00079713  0.66476250  1
  Ni  Ni47  1  0.83200843  0.16646590  0.83211978  1
  Cr  Cr48  1  0.83439300  0.49806377  0.49999715  1
  Ni  Ni49  1  0.66519547  0.33133065  0.66791284  1
  Ni  Ni50  1  0.83174322  0.49787860  0.83327152  1
  Ni  Ni51  1  0.83162425  0.83562208  0.49842555  1
  Cr  Cr52  1  0.66546565  0.66547959  0.66455264  1
  Ni  Ni53  1  0.83512461  0.83299032  0.83320008  1
" 