8092,Ni25Cr75_16,-229.942696046287, 151.362565896037,Ni25Cr75,"# generated using pymatgen
 data_Cr13Ni41
_symmetry_space_group_name_H-M   'P 1'
_cell_length_a   7.48114313
_cell_length_b   7.48114313
_cell_length_c   10.57993408
_cell_angle_alpha   90.00000000
_cell_angle_beta   90.00000000
_cell_angle_gamma   90.00000000
_symmetry_Int_Tables_number   1
_chemical_formula_structural   Cr13Ni41
_chemical_formula_sum   'Cr13 Ni41'
_cell_volume   592.13248730
_cell_formula_units_Z   1
loop_
 _symmetry_equiv_pos_site_id
 _symmetry_equiv_pos_as_xyz
  1  'x, y, z'
loop_
 _atom_site_type_symbol
 _atom_site_label
 _atom_site_symmetry_multiplicity
 _atom_site_fract_x
 _atom_site_fract_y
 _atom_site_fract_z
 _atom_site_occupancy
  Cr  Cr0  1  -0.00008176  0.99713582  0.00014213  1
  Ni  Ni1  1  0.16486197  0.16642628  0.16683381  1
  Ni  Ni2  1  0.99658994  0.00028902  0.33115175  1
  Cr  Cr3  1  -0.00068163  0.33336358  0.00051485  1
  Ni  Ni4  1  0.16641811  0.50007993  0.16652769  1
  Ni  Ni5  1  0.00108216  0.33204104  0.33255022  1
  Ni  Ni6  1  -0.00009637  0.66617432  -0.00051339  1
  Ni  Ni7  1  0.16540694  0.83067483  0.16504138  1
  Ni  Ni8  1  -0.00026657  0.66485567  0.33135322  1
  Ni  Ni9  1  0.33285467  0.99738324  0.99853954  1
  Cr  Cr10  1  0.49828595  0.16678898  0.16422669  1
  Cr  Cr11  1  0.33246919  -0.00077292  0.33216209  1
  Ni  Ni12  1  0.33346220  0.33359052  0.00026586  1
  Ni  Ni13  1  0.49749667  0.50060521  0.16381736  1
  Ni  Ni14  1  0.32932776  0.33480078  0.33299816  1
  Ni  Ni15  1  0.33208055  0.66621372  -0.00027618  1
  Ni  Ni16  1  0.49820630  0.82982495  0.16481040  1
  Ni  Ni17  1  0.33169348  0.66312533  0.33166679  1
  Cr  Cr18  1  0.66547745  0.99797063  0.99824894  1
  Ni  Ni19  1  0.83404599  0.16577052  0.16741299  1
  Ni  Ni20  1  0.66849389  0.99793165  0.33359340  1
  Ni  Ni21  1  0.66452360  0.33350936  -0.00061984  1
  Ni  Ni22  1  0.83324415  0.50002918  0.16439960  1
  Cr  Cr23  1  0.66632432  0.33223282  0.33342840  1
  Ni  Ni24  1  0.66519364  0.66554464  0.00115508  1
  Ni  Ni25  1  0.83358397  0.83137408  0.16669510  1
  Cr  Cr26  1  0.66524330  0.66762485  0.33239206  1
  Ni  Ni27  1  0.16422174  0.16764138  0.49856704  1
  Ni  Ni28  1  0.99713511  -0.00073655  0.66589859  1
  Cr  Cr29  1  0.16678560  0.16453824  0.83175041  1
  Ni  Ni30  1  0.16505204  0.49821691  0.49839883  1
  Ni  Ni31  1  0.99746178  0.33222006  0.66385939  1
  Ni  Ni32  1  0.16559999  0.50285316  0.83220415  1
  Cr  Cr33  1  0.16479821  0.83157788  0.50011643  1
  Ni  Ni34  1  0.00059849  0.66571135  0.66630992  1
  Ni  Ni35  1  0.16658986  0.83012824  0.83177615  1
  Ni  Ni36  1  0.50026777  0.16521328  0.50052937  1
  Ni  Ni37  1  0.33413463  0.99753736  0.66646692  1
  Ni  Ni38  1  0.50083498  0.16380333  0.83240981  1
  Ni  Ni39  1  0.49746109  0.49867073  0.49873666  1
  Cr  Cr40  1  0.33198393  0.33271121  0.66362813  1
  Cr  Cr41  1  0.49823143  0.49841693  0.83491209  1
  Ni  Ni42  1  0.49987566  0.83327666  0.49997899  1
  Ni  Ni43  1  0.33067000  0.66744799  0.66580737  1
  Ni  Ni44  1  0.49703051  0.83447093  0.83238990  1
  Ni  Ni45  1  0.83268123  0.16523048  0.50014744  1
  Ni  Ni46  1  0.66589896  0.00063370  0.66559984  1
  Ni  Ni47  1  0.82956418  0.16483257  0.82963854  1
  Ni  Ni48  1  0.83462907  0.49782169  0.50015838  1
  Ni  Ni49  1  0.66761167  0.32872290  0.66466171  1
  Cr  Cr50  1  0.83363563  0.49882637  0.83258535  1
  Ni  Ni51  1  0.83216653  0.83410931  0.49888931  1
  Cr  Cr52  1  0.66540931  0.66737498  0.66359150  1
  Ni  Ni53  1  0.83355897  0.83328910  0.83159793  1
" 