4145,Ni25Fe15Cr59_7,-215.271642913082, 159.140826023145,Ni25Fe15Cr59,"# generated using pymatgen
 data_Cr33Fe8Ni13
_symmetry_space_group_name_H-M   'P 1'
_cell_length_a   7.53651048
_cell_length_b   7.53651048
_cell_length_c   10.65823533
_cell_angle_alpha   90.00000000
_cell_angle_beta   90.00000000
_cell_angle_gamma   90.00000000
_symmetry_Int_Tables_number   1
_chemical_formula_structural   Cr33Fe8Ni13
_chemical_formula_sum   'Cr33 Fe8 Ni13'
_cell_volume   605.37700331
_cell_formula_units_Z   1
loop_
 _symmetry_equiv_pos_site_id
 _symmetry_equiv_pos_as_xyz
  1  'x, y, z'
loop_
 _atom_site_type_symbol
 _atom_site_label
 _atom_site_symmetry_multiplicity
 _atom_site_fract_x
 _atom_site_fract_y
 _atom_site_fract_z
 _atom_site_occupancy
  Cr  Cr0  1  0.99489088  -0.00354940  -0.00439766  1
  Fe  Fe1  1  0.16261105  0.16264542  0.16291947  1
  Cr  Cr2  1  0.99525432  0.99342854  0.32961058  1
  Cr  Cr3  1  0.99418486  0.33052687  0.99397774  1
  Cr  Cr4  1  0.16114152  0.49515635  0.16435328  1
  Fe  Fe5  1  0.99345321  0.32778759  0.32714223  1
  Ni  Ni6  1  -0.00435626  0.66182806  0.99338257  1
  Cr  Cr7  1  0.16043035  0.82656371  0.16019106  1
  Ni  Ni8  1  -0.00397935  0.66076815  0.33012486  1
  Cr  Cr9  1  0.33070351  -0.00242738  0.99274959  1
  Ni  Ni10  1  0.49836514  0.16178968  0.16191332  1
  Cr  Cr11  1  0.32857644  -0.00379172  0.32882676  1
  Cr  Cr12  1  0.32972299  0.32769379  -0.00455945  1
  Cr  Cr13  1  0.49274080  0.49591589  0.16501275  1
  Fe  Fe14  1  0.32860786  0.32718634  0.32776672  1
  Cr  Cr15  1  0.32589896  0.66076444  0.99245395  1
  Cr  Cr16  1  0.49686200  0.82936631  0.15934791  1
  Fe  Fe17  1  0.32704978  0.66424460  0.32967011  1
  Ni  Ni18  1  0.66375995  -0.00061898  -0.00157843  1
  Ni  Ni19  1  0.82916388  0.16087387  0.16145107  1
  Cr  Cr20  1  0.66282625  -0.00426409  0.32660187  1
  Cr  Cr21  1  0.66192523  0.32679519  0.99490790  1
  Cr  Cr22  1  0.83156539  0.49538840  0.16174738  1
  Cr  Cr23  1  0.66212180  0.32845174  0.32775526  1
  Cr  Cr24  1  0.66453992  0.66041298  -0.00355978  1
  Fe  Fe25  1  0.82995307  0.82903541  0.16077290  1
  Cr  Cr26  1  0.66516671  0.66195354  0.33038366  1
  Cr  Cr27  1  0.16069614  0.16297103  0.49453944  1
  Cr  Cr28  1  -0.00291786  0.99282468  0.66042331  1
  Cr  Cr29  1  0.16053058  0.16342432  0.82646995  1
  Cr  Cr30  1  0.16128305  0.49406223  0.49146415  1
  Cr  Cr31  1  0.99322716  0.33123473  0.66450493  1
  Ni  Ni32  1  0.15966415  0.49668311  0.82937167  1
  Ni  Ni33  1  0.15917538  0.82476602  0.49378791  1
  Cr  Cr34  1  0.99425323  0.66204172  0.66311558  1
  Ni  Ni35  1  0.15880812  0.82507280  0.82982553  1
  Cr  Cr36  1  0.49556368  0.16430621  0.49962882  1
  Cr  Cr37  1  0.32652396  0.99499675  0.66360390  1
  Ni  Ni38  1  0.50028064  0.16434769  0.82658576  1
  Cr  Cr39  1  0.49514064  0.49517004  0.49590620  1
  Ni  Ni40  1  0.32997930  0.32983351  0.66365298  1
  Cr  Cr41  1  0.49499480  0.49488996  0.82565821  1
  Cr  Cr42  1  0.49592040  0.82695198  0.49698020  1
  Cr  Cr43  1  0.32633645  0.66263892  0.66324140  1
  Cr  Cr44  1  0.49758438  0.82981306  0.82959285  1
  Cr  Cr45  1  0.82861263  0.16407081  0.49748215  1
  Cr  Cr46  1  0.66365855  0.99531797  0.66179558  1
  Ni  Ni47  1  0.82515725  0.16361200  0.82861773  1
  Fe  Fe48  1  0.82925656  0.49623797  0.49555749  1
  Ni  Ni49  1  0.66236812  0.33166143  0.66423889  1
  Fe  Fe50  1  0.82846998  0.49590704  0.82857212  1
  Fe  Fe51  1  0.83023119  0.82593422  0.49542639  1
  Ni  Ni52  1  0.66495637  0.65786694  0.66022670  1
  Cr  Cr53  1  0.82821002  0.83058268  0.83190769  1
" 