757,Ni25Fe53Cr21_18,-228.589748679233, 189.179156454668,Ni25Fe53Cr21,"# generated using pymatgen
 data_Cr13Fe28Ni13
_symmetry_space_group_name_H-M   'P 1'
_cell_length_a   7.45089752
_cell_length_b   7.45089752
_cell_length_c   10.53716033
_cell_angle_alpha   90.00000000
_cell_angle_beta   90.00000000
_cell_angle_gamma   90.00000000
_symmetry_Int_Tables_number   1
_chemical_formula_structural   Cr13Fe28Ni13
_chemical_formula_sum   'Cr13 Fe28 Ni13'
_cell_volume   584.97966444
_cell_formula_units_Z   1
loop_
 _symmetry_equiv_pos_site_id
 _symmetry_equiv_pos_as_xyz
  1  'x, y, z'
loop_
 _atom_site_type_symbol
 _atom_site_label
 _atom_site_symmetry_multiplicity
 _atom_site_fract_x
 _atom_site_fract_y
 _atom_site_fract_z
 _atom_site_occupancy
  Cr  Cr0  1  0.00141670  0.99953852  0.00259716  1
  Fe  Fe1  1  0.16842193  0.16932846  0.16835069  1
  Fe  Fe2  1  0.00130993  0.00157975  0.33290566  1
  Fe  Fe3  1  1.00072453  0.33540092  0.00151995  1
  Ni  Ni4  1  0.16818882  0.49961634  0.16925371  1
  Fe  Fe5  1  0.00329106  0.33517911  0.33435332  1
  Cr  Cr6  1  0.00203142  0.66886904  1.00055128  1
  Fe  Fe7  1  0.16904771  0.83354478  0.16993382  1
  Fe  Fe8  1  0.00167446  0.66648590  0.33247588  1
  Fe  Fe9  1  0.33475798  0.00194692  0.00110117  1
  Cr  Cr10  1  0.50052468  0.16841475  0.16564950  1
  Ni  Ni11  1  0.33207461  1.00072215  0.33582882  1
  Ni  Ni12  1  0.33739086  0.33642448  0.00164620  1
  Ni  Ni13  1  0.49947327  0.50250922  0.16634512  1
  Fe  Fe14  1  0.33219176  0.33556971  0.33333865  1
  Fe  Fe15  1  0.33459069  0.66415571  1.00106156  1
  Cr  Cr16  1  0.50204572  0.83204618  0.16917078  1
  Ni  Ni17  1  0.33379104  0.66825059  0.33307334  1
  Fe  Fe18  1  0.66865965  0.00301508  0.99999767  1
  Fe  Fe19  1  0.83532812  0.16904262  0.16681988  1
  Fe  Fe20  1  0.66697480  0.99908266  0.33539922  1
  Ni  Ni21  1  0.66646312  0.33537193  0.99981658  1
  Fe  Fe22  1  0.83340255  0.50113466  0.16784371  1
  Cr  Cr23  1  0.66779778  0.33585637  0.33448175  1
  Fe  Fe24  1  0.66693914  0.66495468  0.00172722  1
  Fe  Fe25  1  0.83403772  0.83314548  0.16962910  1
  Ni  Ni26  1  0.66837468  0.66730999  0.33337643  1
  Fe  Fe27  1  0.16879231  0.16789342  0.49983818  1
  Cr  Cr28  1  0.00142553  1.00020367  0.66945100  1
  Cr  Cr29  1  0.16715502  0.17008534  0.83582513  1
  Fe  Fe30  1  0.16633429  0.50168321  0.50045241  1
  Fe  Fe31  1  0.00149940  0.33639986  0.66742724  1
  Ni  Ni32  1  0.16790034  0.50160739  0.83312806  1
  Cr  Cr33  1  0.17110856  0.83337340  0.50126380  1
  Fe  Fe34  1  0.00250367  0.66486251  0.66966564  1
  Fe  Fe35  1  0.16898423  0.83189608  0.83293321  1
  Fe  Fe36  1  0.49982222  0.16273113  0.50017514  1
  Ni  Ni37  1  0.33536933  0.99905386  0.66722877  1
  Fe  Fe38  1  0.50215543  0.16917257  0.83637659  1
  Cr  Cr39  1  0.49933928  0.50524366  0.49908420  1
  Cr  Cr40  1  0.33567017  0.33462073  0.66650124  1
  Ni  Ni41  1  0.50031232  0.50250558  0.83746376  1
  Ni  Ni42  1  0.50142427  0.83601929  0.50079779  1
  Ni  Ni43  1  0.33301264  0.66915183  0.66915039  1
  Cr  Cr44  1  0.50115590  0.83386323  0.83335576  1
  Fe  Fe45  1  0.83469597  0.16803606  0.50102473  1
  Fe  Fe46  1  0.66513593  1.00087608  0.66777482  1
  Ni  Ni47  1  0.83340224  0.16816271  0.83529021  1
  Fe  Fe48  1  0.83654586  0.50209170  0.50076945  1
  Cr  Cr49  1  0.66858579  0.33406448  0.66883641  1
  Fe  Fe50  1  0.83413212  0.50017533  0.83460325  1
  Cr  Cr51  1  0.83058924  0.83391765  0.50043542  1
  Fe  Fe52  1  0.66659149  0.66895240  0.66778147  1
  Fe  Fe53  1  0.83395517  0.83338427  0.83364121  1
" 