3469,Ni25Fe53Cr21_10,-228.41404073335, 189.915233765666,Ni25Fe53Cr21,"# generated using pymatgen
 data_Cr13Fe28Ni13
_symmetry_space_group_name_H-M   'P 1'
_cell_length_a   7.45249495
_cell_length_b   7.45249495
_cell_length_c   10.53941943
_cell_angle_alpha   90.00000000
_cell_angle_beta   90.00000000
_cell_angle_gamma   90.00000000
_symmetry_Int_Tables_number   1
_chemical_formula_structural   Cr13Fe28Ni13
_chemical_formula_sum   'Cr13 Fe28 Ni13'
_cell_volume   585.35599245
_cell_formula_units_Z   1
loop_
 _symmetry_equiv_pos_site_id
 _symmetry_equiv_pos_as_xyz
  1  'x, y, z'
loop_
 _atom_site_type_symbol
 _atom_site_label
 _atom_site_symmetry_multiplicity
 _atom_site_fract_x
 _atom_site_fract_y
 _atom_site_fract_z
 _atom_site_occupancy
  Cr  Cr0  1  0.00431539  1.00074197  0.99846141  1
  Fe  Fe1  1  0.17002957  0.16938874  0.16889449  1
  Fe  Fe2  1  1.00046261  0.00238371  0.33531282  1
  Fe  Fe3  1  0.00390918  0.33411304  0.00190817  1
  Fe  Fe4  1  0.16768132  0.49996206  0.16830738  1
  Fe  Fe5  1  0.99919435  0.33653637  0.33313405  1
  Fe  Fe6  1  0.00404806  0.66503236  1.00087361  1
  Cr  Cr7  1  0.16985594  0.83392864  0.17130055  1
  Ni  Ni8  1  0.00288241  0.66800479  0.33590657  1
  Ni  Ni9  1  0.33300386  0.00148913  0.99895258  1
  Fe  Fe10  1  0.49866214  0.16804160  0.16895243  1
  Fe  Fe11  1  0.33444164  0.00219382  0.33628911  1
  Fe  Fe12  1  0.33242912  0.33462475  0.00134888  1
  Ni  Ni13  1  0.49855442  0.49933317  0.16749363  1
  Ni  Ni14  1  0.33630937  0.33485895  0.33238622  1
  Fe  Fe15  1  0.33472483  0.66641865  0.99827321  1
  Cr  Cr16  1  0.49819884  0.83182789  0.16786200  1
  Fe  Fe17  1  0.33557708  0.66407321  0.33696501  1
  Cr  Cr18  1  0.66520875  0.00249905  0.99904330  1
  Ni  Ni19  1  0.83691450  0.17125717  0.17038099  1
  Cr  Cr20  1  0.66734668  0.00345816  0.33667353  1
  Cr  Cr21  1  0.66480640  0.33651713  0.00512952  1
  Fe  Fe22  1  0.83558723  0.50095902  0.16851932  1
  Ni  Ni23  1  0.66575250  0.33453743  0.33467224  1
  Fe  Fe24  1  0.66392146  0.66770463  0.99975010  1
  Cr  Cr25  1  0.83433593  0.83563365  0.16473425  1
  Cr  Cr26  1  0.66828733  0.66396120  0.33536575  1
  Cr  Cr27  1  0.16679739  0.16765277  0.49951806  1
  Cr  Cr28  1  0.00243810  0.99832533  0.66843955  1
  Fe  Fe29  1  0.17296923  0.17011296  0.83299865  1
  Cr  Cr30  1  0.17054441  0.50196222  0.50060691  1
  Fe  Fe31  1  0.00443286  0.33573983  0.66807605  1
  Ni  Ni32  1  0.16944946  0.50026376  0.83395504  1
  Ni  Ni33  1  0.16868346  0.83470334  0.49906729  1
  Fe  Fe34  1  0.00403605  0.66754333  0.66664511  1
  Fe  Fe35  1  0.17150343  0.83028607  0.83317801  1
  Fe  Fe36  1  0.49861234  0.16969803  0.50193672  1
  Ni  Ni37  1  0.33468620  0.99972033  0.66853827  1
  Fe  Fe38  1  0.49738531  0.16972249  0.83254514  1
  Ni  Ni39  1  0.50297284  0.50062507  0.50224436  1
  Fe  Fe40  1  0.33580310  0.33518799  0.66816264  1
  Ni  Ni41  1  0.49832250  0.50305035  0.83308366  1
  Fe  Fe42  1  0.49719114  0.83347729  0.50326466  1
  Ni  Ni43  1  0.33459945  0.66726947  0.66733706  1
  Ni  Ni44  1  0.49902642  0.83451467  0.83336904  1
  Fe  Fe45  1  0.83267347  0.17095675  0.50190326  1
  Fe  Fe46  1  0.66375257  0.99881538  0.66661236  1
  Cr  Cr47  1  0.83445974  0.16758501  0.83123862  1
  Fe  Fe48  1  0.83518691  0.50011006  0.50243710  1
  Fe  Fe49  1  0.66344063  0.33508696  0.66559474  1
  Cr  Cr50  1  0.83445913  0.50016351  0.83321129  1
  Fe  Fe51  1  0.83612384  0.83172891  0.50123100  1
  Fe  Fe52  1  0.66429870  0.66918725  0.66681792  1
  Fe  Fe53  1  0.83243395  0.82975409  0.83381991  1
" 