5053,Ni25Fe15Cr59_1,-215.418921084497, 160.980302409206,Ni25Fe15Cr59,"# generated using pymatgen
 data_Cr33Fe8Ni13
_symmetry_space_group_name_H-M   'P 1'
_cell_length_a   7.53634908
_cell_length_b   7.53634908
_cell_length_c   10.65800709
_cell_angle_alpha   90.00000000
_cell_angle_beta   90.00000000
_cell_angle_gamma   90.00000000
_symmetry_Int_Tables_number   1
_chemical_formula_structural   Cr33Fe8Ni13
_chemical_formula_sum   'Cr33 Fe8 Ni13'
_cell_volume   605.33811259
_cell_formula_units_Z   1
loop_
 _symmetry_equiv_pos_site_id
 _symmetry_equiv_pos_as_xyz
  1  'x, y, z'
loop_
 _atom_site_type_symbol
 _atom_site_label
 _atom_site_symmetry_multiplicity
 _atom_site_fract_x
 _atom_site_fract_y
 _atom_site_fract_z
 _atom_site_occupancy
  Cr  Cr0  1  0.99422091  -0.00307392  0.99340970  1
  Cr  Cr1  1  0.16336659  0.16493976  0.15614999  1
  Cr  Cr2  1  -0.00389766  -0.00335317  0.32921370  1
  Ni  Ni3  1  -0.00190169  0.33157971  0.99183431  1
  Cr  Cr4  1  0.16162070  0.49715085  0.15915181  1
  Cr  Cr5  1  -0.00393943  0.32658739  0.33118487  1
  Ni  Ni6  1  -0.00360357  0.66215253  0.99273544  1
  Cr  Cr7  1  0.16051134  0.82581409  0.16217895  1
  Ni  Ni8  1  0.99183599  0.65975907  0.33142245  1
  Fe  Fe9  1  0.32760137  -0.00384609  0.99297882  1
  Ni  Ni10  1  0.49225408  0.16192075  0.15843581  1
  Cr  Cr11  1  0.32911476  -0.00168591  0.32986942  1
  Ni  Ni12  1  0.32928757  0.32989723  0.99162793  1
  Cr  Cr13  1  0.49140043  0.49262522  0.15954593  1
  Cr  Cr14  1  0.32921143  0.32478480  0.33261683  1
  Ni  Ni15  1  0.32864007  0.66166026  0.99147765  1
  Cr  Cr16  1  0.49055199  0.82782369  0.15913315  1
  Cr  Cr17  1  0.32777723  0.66154661  0.33032137  1
  Cr  Cr18  1  0.66136272  0.99379242  -0.00108578  1
  Fe  Fe19  1  0.83055278  0.16380612  0.15971781  1
  Cr  Cr20  1  0.66023708  -0.00255198  0.32212032  1
  Cr  Cr21  1  0.66331811  0.32869673  -0.00306097  1
  Cr  Cr22  1  0.83258881  0.49455923  0.16193807  1
  Cr  Cr23  1  0.66066731  0.32641628  0.32665254  1
  Cr  Cr24  1  0.66210489  0.66187027  0.99133271  1
  Cr  Cr25  1  0.83110055  0.82653426  0.16276959  1
  Cr  Cr26  1  0.66157554  0.66128776  0.32940448  1
  Ni  Ni27  1  0.16352412  0.15748234  0.50249409  1
  Ni  Ni28  1  0.99480492  -0.00384273  0.66382071  1
  Fe  Fe29  1  0.16254303  0.16425157  0.82803622  1
  Cr  Cr30  1  0.15979815  0.49507185  0.49293414  1
  Cr  Cr31  1  0.99490160  0.32835794  0.66291661  1
  Cr  Cr32  1  0.16322942  0.49700564  0.83272311  1
  Cr  Cr33  1  0.16153796  0.83006884  0.49506560  1
  Cr  Cr34  1  0.99327885  0.66242341  0.66231741  1
  Cr  Cr35  1  0.16241124  0.83197430  0.82878000  1
  Ni  Ni36  1  0.49630734  0.16022819  0.49929043  1
  Ni  Ni37  1  0.33014661  -0.00256182  0.66416747  1
  Cr  Cr38  1  0.49484830  0.16197252  0.82857975  1
  Cr  Cr39  1  0.49972103  0.49285473  0.49749326  1
  Cr  Cr40  1  0.32941842  0.32880225  0.66124369  1
  Ni  Ni41  1  0.49896381  0.49576096  0.82901802  1
  Cr  Cr42  1  0.49702740  0.83239809  0.49811025  1
  Cr  Cr43  1  0.33266697  0.66292452  0.66291379  1
  Fe  Fe44  1  0.49621503  0.82787614  0.82813713  1
  Cr  Cr45  1  0.82519638  0.16169103  0.49745385  1
  Fe  Fe46  1  0.66189109  0.99464863  0.66468225  1
  Cr  Cr47  1  0.82851427  0.16294051  0.82882183  1
  Ni  Ni48  1  0.82656597  0.49421380  0.49754129  1
  Fe  Fe49  1  0.66250076  0.32975215  0.66418476  1
  Ni  Ni50  1  0.82808628  0.49673764  0.82858192  1
  Cr  Cr51  1  0.82830235  0.82889033  0.49644477  1
  Fe  Fe52  1  0.66376455  0.66139352  0.66531140  1
  Fe  Fe53  1  0.82799229  0.82770769  0.82757734  1
" 