843,Ni25Fe53Cr21_0,-228.13626469889, 187.616183457294,Ni25Fe53Cr21,"# generated using pymatgen
 data_Cr13Fe28Ni13
_symmetry_space_group_name_H-M   'P 1'
_cell_length_a   7.45288715
_cell_length_b   7.45288715
_cell_length_c   10.53997409
_cell_angle_alpha   90.00000000
_cell_angle_beta   90.00000000
_cell_angle_gamma   90.00000000
_symmetry_Int_Tables_number   1
_chemical_formula_structural   Cr13Fe28Ni13
_chemical_formula_sum   'Cr13 Fe28 Ni13'
_cell_volume   585.44841424
_cell_formula_units_Z   1
loop_
 _symmetry_equiv_pos_site_id
 _symmetry_equiv_pos_as_xyz
  1  'x, y, z'
loop_
 _atom_site_type_symbol
 _atom_site_label
 _atom_site_symmetry_multiplicity
 _atom_site_fract_x
 _atom_site_fract_y
 _atom_site_fract_z
 _atom_site_occupancy
  Cr  Cr0  1  0.00250651  0.00327348  0.00139384  1
  Ni  Ni1  1  0.16859543  0.16821980  0.16932623  1
  Fe  Fe2  1  0.00408548  1.00080549  0.33529630  1
  Ni  Ni3  1  0.00214557  0.33477286  0.99987290  1
  Ni  Ni4  1  0.16606085  0.50081740  0.16838870  1
  Ni  Ni5  1  0.00365567  0.33320274  0.33463221  1
  Fe  Fe6  1  0.00360600  0.66675586  0.00174694  1
  Ni  Ni7  1  0.16904980  0.83371654  0.16999627  1
  Fe  Fe8  1  0.00363233  0.66607871  0.33567971  1
  Fe  Fe9  1  0.33315670  0.00105591  1.00043577  1
  Cr  Cr10  1  0.49941415  0.16759860  0.16780540  1
  Fe  Fe11  1  0.33152194  1.00084993  0.33467045  1
  Cr  Cr12  1  0.32969256  0.33537483  0.00112928  1
  Fe  Fe13  1  0.49925202  0.50113094  0.16869138  1
  Fe  Fe14  1  0.33345892  0.33663765  0.33553086  1
  Cr  Cr15  1  0.33350861  0.66851601  1.00023396  1
  Fe  Fe16  1  0.49761690  0.83512686  0.16753113  1
  Ni  Ni17  1  0.33141594  0.66643613  0.33526831  1
  Ni  Ni18  1  0.66609313  0.99915044  0.99842011  1
  Cr  Cr19  1  0.83487866  0.16945130  0.16744257  1
  Cr  Cr20  1  0.67005206  0.00095653  0.33703063  1
  Fe  Fe21  1  0.66784051  0.33335296  0.00143723  1
  Fe  Fe22  1  0.83770158  0.49877579  0.16743252  1
  Ni  Ni23  1  0.66790852  0.33466999  0.33562190  1
  Fe  Fe24  1  0.66760874  0.66686721  0.00260762  1
  Cr  Cr25  1  0.83641920  0.83233290  0.16787138  1
  Cr  Cr26  1  0.66493131  0.66711826  0.33333098  1
  Fe  Fe27  1  0.16717843  0.16756731  0.50037435  1
  Fe  Fe28  1  0.00346982  0.00185586  0.66676255  1
  Fe  Fe29  1  0.16756394  0.16852611  0.83273799  1
  Ni  Ni30  1  0.16863914  0.50039059  0.50198992  1
  Fe  Fe31  1  0.00337237  0.33291297  0.66746130  1
  Fe  Fe32  1  0.16653417  0.50180662  0.83208595  1
  Ni  Ni33  1  0.16657388  0.83429733  0.50009041  1
  Fe  Fe34  1  0.00479058  0.66816956  0.66655939  1
  Ni  Ni35  1  0.16901452  0.83569281  0.83256883  1
  Fe  Fe36  1  0.49915645  0.17026562  0.50158983  1
  Fe  Fe37  1  0.33205240  0.00275299  0.66820021  1
  Fe  Fe38  1  0.50051239  0.16515490  0.83329642  1
  Fe  Fe39  1  0.49789116  0.50034072  0.50148266  1
  Ni  Ni40  1  0.33248787  0.33436664  0.66587206  1
  Cr  Cr41  1  0.50110029  0.49884856  0.83155003  1
  Cr  Cr42  1  0.49812862  0.83525644  0.50270578  1
  Fe  Fe43  1  0.33097367  0.66751854  0.66688349  1
  Fe  Fe44  1  0.49980579  0.83583411  0.83291469  1
  Fe  Fe45  1  0.83733037  0.16732298  0.50110768  1
  Fe  Fe46  1  0.66755469  0.00366441  0.66748451  1
  Fe  Fe47  1  0.83388290  0.16788868  0.83404625  1
  Cr  Cr48  1  0.83540820  0.50090528  0.50059909  1
  Fe  Fe49  1  0.66658975  0.33149127  0.66574112  1
  Cr  Cr50  1  0.83570557  0.49983644  0.83609589  1
  Ni  Ni51  1  0.83676757  0.83518199  0.50323483  1
  Fe  Fe52  1  0.66726578  0.66752680  0.66636060  1
  Cr  Cr53  1  0.83574049  0.83287924  0.83267948  1
" 