6279,Ni25Cr75_17,-229.74124653361, 145.234614226451,Ni25Cr75,"# generated using pymatgen
 data_Cr13Ni41
_symmetry_space_group_name_H-M   'P 1'
_cell_length_a   7.48407401
_cell_length_b   7.48407401
_cell_length_c   10.58407896
_cell_angle_alpha   90.00000000
_cell_angle_beta   90.00000000
_cell_angle_gamma   90.00000000
_symmetry_Int_Tables_number   1
_chemical_formula_structural   Cr13Ni41
_chemical_formula_sum   'Cr13 Ni41'
_cell_volume   592.82869694
_cell_formula_units_Z   1
loop_
 _symmetry_equiv_pos_site_id
 _symmetry_equiv_pos_as_xyz
  1  'x, y, z'
loop_
 _atom_site_type_symbol
 _atom_site_label
 _atom_site_symmetry_multiplicity
 _atom_site_fract_x
 _atom_site_fract_y
 _atom_site_fract_z
 _atom_site_occupancy
  Ni  Ni0  1  0.99491585  0.99859572  -0.00096560  1
  Ni  Ni1  1  0.16421833  0.16773056  0.16629691  1
  Ni  Ni2  1  0.99626861  0.00029482  0.33222201  1
  Ni  Ni3  1  0.99823459  0.33251563  0.99878408  1
  Ni  Ni4  1  0.16754692  0.49633727  0.16446233  1
  Ni  Ni5  1  -0.00054926  0.33000803  0.33137967  1
  Ni  Ni6  1  0.99840646  0.66557010  0.99700805  1
  Cr  Cr7  1  0.16405951  0.83275341  0.16602972  1
  Cr  Cr8  1  0.99847633  0.66598892  0.33307319  1
  Cr  Cr9  1  0.33289456  -0.00048435  0.99800865  1
  Ni  Ni10  1  0.49987646  0.16755419  0.16649675  1
  Ni  Ni11  1  0.33258111  0.00111036  0.33243906  1
  Ni  Ni12  1  0.33155608  0.33510062  0.00208362  1
  Ni  Ni13  1  0.49784253  0.49753298  0.16590078  1
  Ni  Ni14  1  0.33335025  0.33320768  0.33108637  1
  Ni  Ni15  1  0.33108191  0.66272438  0.99758034  1
  Cr  Cr16  1  0.50147714  0.83036187  0.16577561  1
  Ni  Ni17  1  0.33241556  0.66218190  0.33345617  1
  Ni  Ni18  1  0.66938710  -0.00089236  0.99859693  1
  Ni  Ni19  1  0.83254304  0.16465030  0.16548873  1
  Ni  Ni20  1  0.66768572  0.00104794  0.33206642  1
  Ni  Ni21  1  0.66680024  0.33115841  -0.00039479  1
  Cr  Cr22  1  0.83099208  0.49869928  0.16416990  1
  Ni  Ni23  1  0.66386782  0.33025394  0.33250269  1
  Ni  Ni24  1  0.66708339  0.66631256  0.99822242  1
  Ni  Ni25  1  0.83118308  0.83479038  0.16488090  1
  Ni  Ni26  1  0.66425079  0.66545772  0.33196980  1
  Cr  Cr27  1  0.16258530  0.16504748  0.49732076  1
  Ni  Ni28  1  0.99469894  0.99643718  0.66543306  1
  Cr  Cr29  1  0.16026408  0.16696877  0.83350942  1
  Ni  Ni30  1  0.16656429  0.50009702  0.49902282  1
  Ni  Ni31  1  0.99599289  0.33359941  0.66655380  1
  Ni  Ni32  1  0.16278424  0.50134229  0.83311338  1
  Ni  Ni33  1  0.16400033  0.83092695  0.49921471  1
  Ni  Ni34  1  -0.00079265  0.66649522  0.66643805  1
  Ni  Ni35  1  0.16335554  0.82903557  0.83165985  1
  Ni  Ni36  1  0.50231446  0.16676068  0.49703512  1
  Cr  Cr37  1  0.33282306  0.99598476  0.66615060  1
  Cr  Cr38  1  0.50343847  0.16521484  0.83238996  1
  Ni  Ni39  1  0.49873752  0.49860064  0.49765489  1
  Cr  Cr40  1  0.33275654  0.33519075  0.66387404  1
  Cr  Cr41  1  0.50097754  0.50061691  0.83312579  1
  Cr  Cr42  1  0.50009445  0.83128274  0.49817963  1
  Ni  Ni43  1  0.33035444  0.66520439  0.66556930  1
  Ni  Ni44  1  0.50099459  0.82987264  0.83218765  1
  Ni  Ni45  1  0.83092962  0.16419875  0.49923815  1
  Ni  Ni46  1  0.66957043  0.99870197  0.66572399  1
  Ni  Ni47  1  0.83255316  0.16577969  0.83189009  1
  Cr  Cr48  1  0.83110357  0.49764335  0.50027059  1
  Ni  Ni49  1  0.66841700  0.33128808  0.66447652  1
  Ni  Ni50  1  0.83370541  0.49879695  0.83206670  1
  Ni  Ni51  1  0.83267517  0.83445297  0.49914039  1
  Ni  Ni52  1  0.66704479  0.66651156  0.66623088  1
  Ni  Ni53  1  0.83218515  0.83196070  0.83248369  1
" 