7560,Ni25Fe15Cr59_13,-215.451503441205, 166.166874957017,Ni25Fe15Cr59,"# generated using pymatgen
 data_Cr33Fe8Ni13
_symmetry_space_group_name_H-M   'P 1'
_cell_length_a   7.53336824
_cell_length_b   7.53336824
_cell_length_c   10.65379154
_cell_angle_alpha   90.00000000
_cell_angle_beta   90.00000000
_cell_angle_gamma   90.00000000
_symmetry_Int_Tables_number   1
_chemical_formula_structural   Cr33Fe8Ni13
_chemical_formula_sum   'Cr33 Fe8 Ni13'
_cell_volume   604.62011136
_cell_formula_units_Z   1
loop_
 _symmetry_equiv_pos_site_id
 _symmetry_equiv_pos_as_xyz
  1  'x, y, z'
loop_
 _atom_site_type_symbol
 _atom_site_label
 _atom_site_symmetry_multiplicity
 _atom_site_fract_x
 _atom_site_fract_y
 _atom_site_fract_z
 _atom_site_occupancy
  Ni  Ni0  1  -0.00395017  0.99320558  0.99515880  1
  Cr  Cr1  1  0.16103617  0.16125911  0.16041492  1
  Cr  Cr2  1  -0.00386380  0.99449346  0.32556790  1
  Cr  Cr3  1  0.99451318  0.32856467  0.99350769  1
  Cr  Cr4  1  0.16336196  0.49497823  0.16318822  1
  Ni  Ni5  1  0.99433452  0.33036864  0.32801889  1
  Cr  Cr6  1  -0.00279922  0.66300566  -0.00301132  1
  Ni  Ni7  1  0.16124324  0.82805685  0.16205255  1
  Fe  Fe8  1  -0.00426309  0.65972650  0.32764161  1
  Cr  Cr9  1  0.32810769  0.99317427  -0.00345098  1
  Cr  Cr10  1  0.49560306  0.16465662  0.16422112  1
  Fe  Fe11  1  0.32921089  0.99544495  0.32903604  1
  Ni  Ni12  1  0.32887059  0.33107929  -0.00426780  1
  Cr  Cr13  1  0.49735839  0.49579807  0.15730498  1
  Cr  Cr14  1  0.32989522  0.32978918  0.33016743  1
  Fe  Fe15  1  0.32736515  0.66398141  0.99513016  1
  Cr  Cr16  1  0.49469948  0.82748027  0.16068580  1
  Cr  Cr17  1  0.32720222  0.66472120  0.32919235  1
  Cr  Cr18  1  0.66435843  -0.00422292  0.99482293  1
  Ni  Ni19  1  0.83081105  0.16398200  0.16296288  1
  Cr  Cr20  1  0.65924096  -0.00309847  0.33052584  1
  Cr  Cr21  1  0.66410362  0.32857041  -0.00424215  1
  Fe  Fe22  1  0.83014163  0.49340548  0.16343975  1
  Ni  Ni23  1  0.66462836  0.32857259  0.32804253  1
  Fe  Fe24  1  0.66333548  0.66334509  0.99360616  1
  Cr  Cr25  1  0.83022701  0.82872234  0.16242210  1
  Cr  Cr26  1  0.66098152  0.66236023  0.32770043  1
  Cr  Cr27  1  0.16226850  0.16206545  0.49553701  1
  Cr  Cr28  1  -0.00387965  0.99496588  0.66747827  1
  Cr  Cr29  1  0.16208913  0.16029713  0.83125519  1
  Fe  Fe30  1  0.16228966  0.49557516  0.49419374  1
  Cr  Cr31  1  0.99530002  0.33037649  0.66444878  1
  Cr  Cr32  1  0.16491152  0.49642028  0.82823715  1
  Cr  Cr33  1  0.16167277  0.82963345  0.49526056  1
  Cr  Cr34  1  -0.00233406  0.66084970  0.66099892  1
  Ni  Ni35  1  0.16504157  0.82798078  0.83011688  1
  Ni  Ni36  1  0.49366408  0.16077932  0.49377595  1
  Fe  Fe37  1  0.32996573  0.99264361  0.66277296  1
  Cr  Cr38  1  0.49373632  0.16231276  0.82916377  1
  Cr  Cr39  1  0.49757150  0.49653278  0.49719965  1
  Cr  Cr40  1  0.32888497  0.32973624  0.66072821  1
  Cr  Cr41  1  0.49621464  0.49826971  0.83194402  1
  Ni  Ni42  1  0.49242648  0.82954990  0.49788450  1
  Fe  Fe43  1  0.33078891  0.66573264  0.66258447  1
  Ni  Ni44  1  0.49295562  0.82595022  0.82767958  1
  Cr  Cr45  1  0.82957499  0.16259005  0.49497972  1
  Cr  Cr46  1  0.65907110  0.99506798  0.66151056  1
  Ni  Ni47  1  0.82981456  0.16278144  0.83035525  1
  Cr  Cr48  1  0.82936645  0.49637014  0.49355335  1
  Cr  Cr49  1  0.66289461  0.32859941  0.66339327  1
  Ni  Ni50  1  0.82732433  0.49715368  0.82915608  1
  Cr  Cr51  1  0.82732793  0.82686320  0.49587143  1
  Ni  Ni52  1  0.65923031  0.66387273  0.66415811  1
  Cr  Cr53  1  0.82837769  0.82791244  0.82822704  1
" 