5889,Ni25Cr75_10,-230.01499418715, 149.963539051021,Ni25Cr75,"# generated using pymatgen
 data_Cr13Ni41
_symmetry_space_group_name_H-M   'P 1'
_cell_length_a   7.47985698
_cell_length_b   7.47985698
_cell_length_c   10.57811519
_cell_angle_alpha   90.00000000
_cell_angle_beta   90.00000000
_cell_angle_gamma   90.00000000
_symmetry_Int_Tables_number   1
_chemical_formula_structural   Cr13Ni41
_chemical_formula_sum   'Cr13 Ni41'
_cell_volume   591.82714394
_cell_formula_units_Z   1
loop_
 _symmetry_equiv_pos_site_id
 _symmetry_equiv_pos_as_xyz
  1  'x, y, z'
loop_
 _atom_site_type_symbol
 _atom_site_label
 _atom_site_symmetry_multiplicity
 _atom_site_fract_x
 _atom_site_fract_y
 _atom_site_fract_z
 _atom_site_occupancy
  Ni  Ni0  1  0.00193530  0.00017899  0.99865471  1
  Ni  Ni1  1  0.16623385  0.16568963  0.16562743  1
  Ni  Ni2  1  -0.00042236  0.99884031  0.33274747  1
  Ni  Ni3  1  0.00311088  0.33065043  0.99709098  1
  Ni  Ni4  1  0.16798965  0.49758216  0.16613011  1
  Ni  Ni5  1  0.00077172  0.33212901  0.33454550  1
  Cr  Cr6  1  -0.00039148  0.66725595  -0.00083551  1
  Ni  Ni7  1  0.16606344  0.83415905  0.16594177  1
  Ni  Ni8  1  -0.00045557  0.66644817  0.33378322  1
  Ni  Ni9  1  0.32978900  0.99840259  0.99841751  1
  Cr  Cr10  1  0.49595795  0.16603991  0.16839379  1
  Ni  Ni11  1  0.33094677  -0.00019970  0.33249002  1
  Ni  Ni12  1  0.32990604  0.33368199  0.99888743  1
  Ni  Ni13  1  0.49635374  0.50031114  0.16448605  1
  Ni  Ni14  1  0.32992252  0.33139295  0.33085196  1
  Ni  Ni15  1  0.33473510  0.66534767  0.99913859  1
  Ni  Ni16  1  0.49809553  0.83129559  0.16490509  1
  Cr  Cr17  1  0.32984201  0.66655846  0.33183225  1
  Cr  Cr18  1  0.66657888  0.99567129  0.99732403  1
  Cr  Cr19  1  0.83580271  0.16423032  0.16765066  1
  Ni  Ni20  1  0.66690632  0.99862893  0.33383001  1
  Cr  Cr21  1  0.66492992  0.33495774  0.99586706  1
  Cr  Cr22  1  0.83319658  0.49995094  0.16673056  1
  Ni  Ni23  1  0.66674633  0.33140941  0.33359702  1
  Ni  Ni24  1  0.66270451  0.66649839  0.99864829  1
  Ni  Ni25  1  0.83326975  0.83302853  0.16685148  1
  Cr  Cr26  1  0.66739404  0.66767851  0.33151000  1
  Ni  Ni27  1  0.16294534  0.16495646  0.49767591  1
  Ni  Ni28  1  0.99903564  0.99897865  0.66601797  1
  Ni  Ni29  1  0.16487201  0.16516908  0.83410938  1
  Ni  Ni30  1  0.16158203  0.49943395  0.49902866  1
  Ni  Ni31  1  0.99906428  0.33253618  0.66576585  1
  Ni  Ni32  1  0.16582298  0.49885148  0.83229844  1
  Ni  Ni33  1  0.16472686  0.83304211  0.50012671  1
  Ni  Ni34  1  0.00096664  0.66591424  0.66503390  1
  Ni  Ni35  1  0.16697499  0.83340724  0.83140857  1
  Cr  Cr36  1  0.49932806  0.16237878  0.49701586  1
  Ni  Ni37  1  0.33168525  0.99607229  0.66653697  1
  Ni  Ni38  1  0.49771718  0.16415077  0.83228399  1
  Cr  Cr39  1  0.49815881  0.49963375  0.49795222  1
  Cr  Cr40  1  0.32912608  0.33243521  0.66742782  1
  Ni  Ni41  1  0.49772250  0.50080645  0.83527617  1
  Ni  Ni42  1  0.49830312  0.83548780  0.50018208  1
  Ni  Ni43  1  0.32975638  0.66881065  0.66678328  1
  Ni  Ni44  1  0.49759462  0.83247025  0.83235163  1
  Ni  Ni45  1  0.83485006  0.16513820  0.49816696  1
  Ni  Ni46  1  0.66670024  0.99794906  0.66631258  1
  Ni  Ni47  1  0.83485970  0.16531259  0.83129844  1
  Ni  Ni48  1  0.83732880  0.49811811  0.49808546  1
  Cr  Cr49  1  0.66909686  0.33056408  0.66768101  1
  Ni  Ni50  1  0.83388427  0.49869937  0.83231680  1
  Ni  Ni51  1  0.83439428  0.83416108  0.49859016  1
  Cr  Cr52  1  0.66649479  0.66806218  0.66694417  1
  Ni  Ni53  1  0.83285715  0.83340367  0.83199358  1
" 