1173,Ni25Fe53Cr21_12,-228.414150796447, 186.5191230535,Ni25Fe53Cr21,"# generated using pymatgen
 data_Cr13Fe28Ni13
_symmetry_space_group_name_H-M   'P 1'
_cell_length_a   7.45407008
_cell_length_b   7.45407008
_cell_length_c   10.54164701
_cell_angle_alpha   90.00000000
_cell_angle_beta   90.00000000
_cell_angle_gamma   90.00000000
_symmetry_Int_Tables_number   1
_chemical_formula_structural   Cr13Fe28Ni13
_chemical_formula_sum   'Cr13 Fe28 Ni13'
_cell_volume   585.72722777
_cell_formula_units_Z   1
loop_
 _symmetry_equiv_pos_site_id
 _symmetry_equiv_pos_as_xyz
  1  'x, y, z'
loop_
 _atom_site_type_symbol
 _atom_site_label
 _atom_site_symmetry_multiplicity
 _atom_site_fract_x
 _atom_site_fract_y
 _atom_site_fract_z
 _atom_site_occupancy
  Fe  Fe0  1  0.00166309  0.00178825  0.00136077  1
  Ni  Ni1  1  0.16917809  0.16724425  0.16459848  1
  Cr  Cr2  1  0.00191324  0.00105571  0.33490072  1
  Fe  Fe3  1  1.00085867  0.33329645  0.00180329  1
  Fe  Fe4  1  0.16692788  0.50100047  0.16616167  1
  Cr  Cr5  1  0.99871184  0.33449059  0.33473041  1
  Ni  Ni6  1  0.00208116  0.66956553  0.00298557  1
  Fe  Fe7  1  0.16747671  0.83467665  0.16708059  1
  Fe  Fe8  1  0.00128320  0.66656690  0.33382308  1
  Fe  Fe9  1  0.33322985  0.00294340  0.00193577  1
  Fe  Fe10  1  0.50090932  0.16747972  0.16740773  1
  Ni  Ni11  1  0.33565135  0.99837413  0.33479858  1
  Ni  Ni12  1  0.33574000  0.33196188  1.00050242  1
  Fe  Fe13  1  0.50125643  0.49900573  0.16773762  1
  Cr  Cr14  1  0.33560385  0.33397947  0.33523024  1
  Cr  Cr15  1  0.33210190  0.66740487  0.00198275  1
  Fe  Fe16  1  0.50015900  0.83612012  0.16894098  1
  Fe  Fe17  1  0.33448133  0.66887850  0.33415692  1
  Fe  Fe18  1  0.66772086  0.00383384  0.00151409  1
  Fe  Fe19  1  0.83298090  0.16802890  0.16581366  1
  Fe  Fe20  1  0.66494414  0.00245772  0.33405390  1
  Ni  Ni21  1  0.66647162  0.33135015  0.00106274  1
  Fe  Fe22  1  0.83442639  0.50025481  0.16766356  1
  Ni  Ni23  1  0.66755777  0.33439964  0.33454116  1
  Cr  Cr24  1  0.66811257  0.66641166  0.99981342  1
  Fe  Fe25  1  0.83497752  0.83432809  0.16724966  1
  Fe  Fe26  1  0.66684702  0.66648227  0.33375373  1
  Ni  Ni27  1  0.17018169  0.16739171  0.50397244  1
  Fe  Fe28  1  0.00348878  0.00231974  0.66775365  1
  Fe  Fe29  1  0.16692301  0.16616553  0.83417172  1
  Fe  Fe30  1  0.16610263  0.50063918  0.50224405  1
  Ni  Ni31  1  0.00136530  0.33298121  0.66603278  1
  Cr  Cr32  1  0.16680862  0.49930973  0.83467461  1
  Fe  Fe33  1  0.16875264  0.83470576  0.50134732  1
  Ni  Ni34  1  0.00213157  0.66776109  0.66614333  1
  Ni  Ni35  1  0.16668444  0.83662558  0.83436085  1
  Ni  Ni36  1  0.49837930  0.16679925  0.49932481  1
  Fe  Fe37  1  0.33138823  0.00294511  0.66612532  1
  Fe  Fe38  1  0.50000869  0.16892580  0.83551822  1
  Fe  Fe39  1  0.50202260  0.50034627  0.50001089  1
  Fe  Fe40  1  0.33275222  0.33228475  0.66674197  1
  Fe  Fe41  1  0.50098785  0.49812921  0.83485966  1
  Fe  Fe42  1  0.49944142  0.83507012  0.49953996  1
  Cr  Cr43  1  0.33375277  0.66804973  0.66684355  1
  Cr  Cr44  1  0.50029174  0.83528713  0.83374307  1
  Fe  Fe45  1  0.83412109  0.16984133  0.50137239  1
  Cr  Cr46  1  0.66773607  0.00236679  0.66689352  1
  Ni  Ni47  1  0.83496214  0.16794801  0.83555966  1
  Ni  Ni48  1  0.83429399  0.50201123  0.50080509  1
  Cr  Cr49  1  0.66786468  0.33419706  0.66714228  1
  Cr  Cr50  1  0.83455237  0.50058883  0.83399523  1
  Cr  Cr51  1  0.83371095  0.83138855  0.50207839  1
  Fe  Fe52  1  0.66872496  0.66565328  0.66618755  1
  Cr  Cr53  1  0.83631151  0.83389528  0.83396112  1
" 