4390,Ni25Fe15Cr59_15,-215.658780765089, 162.969325253495,Ni25Fe15Cr59,"# generated using pymatgen
 data_Cr33Fe8Ni13
_symmetry_space_group_name_H-M   'P 1'
_cell_length_a   7.53512220
_cell_length_b   7.53512220
_cell_length_c   10.65627201
_cell_angle_alpha   90.00000000
_cell_angle_beta   90.00000000
_cell_angle_gamma   90.00000000
_symmetry_Int_Tables_number   1
_chemical_formula_structural   Cr33Fe8Ni13
_chemical_formula_sum   'Cr33 Fe8 Ni13'
_cell_volume   605.04252180
_cell_formula_units_Z   1
loop_
 _symmetry_equiv_pos_site_id
 _symmetry_equiv_pos_as_xyz
  1  'x, y, z'
loop_
 _atom_site_type_symbol
 _atom_site_label
 _atom_site_symmetry_multiplicity
 _atom_site_fract_x
 _atom_site_fract_y
 _atom_site_fract_z
 _atom_site_occupancy
  Fe  Fe0  1  0.99518354  -0.00430595  0.99504381  1
  Cr  Cr1  1  0.16312320  0.16104577  0.16171868  1
  Cr  Cr2  1  0.99399266  -0.00107428  0.32874537  1
  Cr  Cr3  1  -0.00409385  0.32688344  -0.00296190  1
  Cr  Cr4  1  0.16071530  0.49383817  0.16123074  1
  Ni  Ni5  1  0.99268232  0.32500944  0.33082694  1
  Cr  Cr6  1  0.99523837  0.66267498  0.99190911  1
  Cr  Cr7  1  0.16280467  0.83201754  0.16119124  1
  Cr  Cr8  1  0.99522814  0.66108462  0.33089716  1
  Cr  Cr9  1  0.33381153  -0.00250346  -0.00304893  1
  Ni  Ni10  1  0.49796753  0.16360670  0.16248959  1
  Ni  Ni11  1  0.33211733  0.00089031  0.32900968  1
  Ni  Ni12  1  0.33107961  0.32673463  0.99244490  1
  Cr  Cr13  1  0.49895589  0.49220500  0.16400283  1
  Cr  Cr14  1  0.32674120  0.32638874  0.32955067  1
  Cr  Cr15  1  0.33060905  0.65906787  -0.00439951  1
  Cr  Cr16  1  0.49620823  0.83177977  0.16775951  1
  Cr  Cr17  1  0.33021768  0.66293270  0.32637817  1
  Cr  Cr18  1  0.66325311  -0.00225113  0.99477750  1
  Fe  Fe19  1  0.82566871  0.16257717  0.16399624  1
  Ni  Ni20  1  0.66187154  -0.00197669  0.32950617  1
  Fe  Fe21  1  0.65762538  0.32865903  0.99512976  1
  Cr  Cr22  1  0.82602113  0.49271619  0.16479845  1
  Fe  Fe23  1  0.66261835  0.32403482  0.32901764  1
  Cr  Cr24  1  0.65992307  0.66426444  0.99176876  1
  Cr  Cr25  1  0.82871124  0.82890735  0.16160317  1
  Ni  Ni26  1  0.66415561  0.66550920  0.33016242  1
  Ni  Ni27  1  0.16072662  0.16070453  0.49537019  1
  Cr  Cr28  1  0.99037113  -0.00284392  0.66000864  1
  Cr  Cr29  1  0.16395515  0.16218205  0.82710889  1
  Cr  Cr30  1  0.16218477  0.49287857  0.49615090  1
  Cr  Cr31  1  -0.00232987  0.32749896  0.65799239  1
  Ni  Ni32  1  0.16633898  0.49222332  0.82909758  1
  Cr  Cr33  1  0.16552975  0.83322605  0.49423407  1
  Cr  Cr34  1  -0.00446134  0.66298798  0.66292982  1
  Cr  Cr35  1  0.16217822  0.83102734  0.83082386  1
  Cr  Cr36  1  0.49486607  0.15959170  0.49789502  1
  Fe  Fe37  1  0.33014196  -0.00436362  0.66214636  1
  Fe  Fe38  1  0.49507098  0.16166887  0.82846051  1
  Cr  Cr39  1  0.49832389  0.49506067  0.49322411  1
  Fe  Fe40  1  0.32998781  0.32694711  0.66354705  1
  Ni  Ni41  1  0.49328083  0.49319529  0.82989748  1
  Cr  Cr42  1  0.49680183  0.83054155  0.49295714  1
  Cr  Cr43  1  0.33007121  0.65923838  0.66523455  1
  Ni  Ni44  1  0.49651003  0.83029125  0.82663409  1
  Ni  Ni45  1  0.82804827  0.16056247  0.49254053  1
  Ni  Ni46  1  0.65973738  -0.00383603  0.66310539  1
  Cr  Cr47  1  0.82793929  0.16142899  0.83133806  1
  Cr  Cr48  1  0.82668562  0.49388055  0.49247737  1
  Cr  Cr49  1  0.66101259  0.32547879  0.66404694  1
  Cr  Cr50  1  0.82797019  0.49511820  0.82936762  1
  Fe  Fe51  1  0.82653076  0.83262925  0.49519623  1
  Cr  Cr52  1  0.66123265  0.66570460  0.66373267  1
  Ni  Ni53  1  0.82493843  0.83233448  0.82700813  1
" 