5473,Ni25Fe53Cr21_16,-228.328219989282, 187.518185040628,Ni25Fe53Cr21,"# generated using pymatgen
 data_Cr13Fe28Ni13
_symmetry_space_group_name_H-M   'P 1'
_cell_length_a   7.45375459
_cell_length_b   7.45375459
_cell_length_c   10.54120083
_cell_angle_alpha   90.00000000
_cell_angle_beta   90.00000000
_cell_angle_gamma   90.00000000
_symmetry_Int_Tables_number   1
_chemical_formula_structural   Cr13Fe28Ni13
_chemical_formula_sum   'Cr13 Fe28 Ni13'
_cell_volume   585.65285877
_cell_formula_units_Z   1
loop_
 _symmetry_equiv_pos_site_id
 _symmetry_equiv_pos_as_xyz
  1  'x, y, z'
loop_
 _atom_site_type_symbol
 _atom_site_label
 _atom_site_symmetry_multiplicity
 _atom_site_fract_x
 _atom_site_fract_y
 _atom_site_fract_z
 _atom_site_occupancy
  Ni  Ni0  1  1.00006073  0.00334138  0.00266649  1
  Ni  Ni1  1  0.16604600  0.16494304  0.16804593  1
  Ni  Ni2  1  0.99962344  0.00185800  0.33461118  1
  Ni  Ni3  1  0.99968769  0.33117058  1.00087758  1
  Cr  Cr4  1  0.16313987  0.50137559  0.16624409  1
  Fe  Fe5  1  0.99993598  0.33408993  0.33435340  1
  Ni  Ni6  1  0.99926751  0.66827102  0.00102330  1
  Fe  Fe7  1  0.16380582  0.83733063  0.16758935  1
  Ni  Ni8  1  0.99975569  0.67072749  0.33562585  1
  Fe  Fe9  1  0.33184230  1.00080650  0.00125211  1
  Cr  Cr10  1  0.50210596  0.16735970  0.16745891  1
  Fe  Fe11  1  0.33159259  1.00007031  0.33522222  1
  Cr  Cr12  1  0.33408396  0.33413106  0.99923785  1
  Fe  Fe13  1  0.50402274  0.49818454  0.16902206  1
  Cr  Cr14  1  0.33412558  0.33402644  0.33635536  1
  Cr  Cr15  1  0.33639976  0.66807798  0.00257181  1
  Fe  Fe16  1  0.50193352  0.83703149  0.16878993  1
  Cr  Cr17  1  0.33594469  0.66750498  0.33283786  1
  Fe  Fe18  1  0.66948944  0.00208720  0.00103998  1
  Ni  Ni19  1  0.83440240  0.16702641  0.16762338  1
  Fe  Fe20  1  0.66903111  1.00005178  0.33511444  1
  Fe  Fe21  1  0.67116001  0.33356094  0.99973459  1
  Fe  Fe22  1  0.83491407  0.49821766  0.16829511  1
  Fe  Fe23  1  0.67081887  0.33443241  0.33587508  1
  Cr  Cr24  1  0.66687255  0.66719911  0.00356301  1
  Fe  Fe25  1  0.83711673  0.83616690  0.16819635  1
  Fe  Fe26  1  0.67010260  0.66763770  0.33449176  1
  Fe  Fe27  1  0.16851983  0.16865890  0.49889977  1
  Cr  Cr28  1  0.99951826  0.00275468  0.66459329  1
  Fe  Fe29  1  0.16676753  0.16796846  0.83572166  1
  Ni  Ni30  1  0.16649739  0.50327487  0.50323971  1
  Cr  Cr31  1  0.00092229  0.33284171  0.66716581  1
  Fe  Fe32  1  0.16555374  0.50083586  0.83408259  1
  Fe  Fe33  1  0.16772970  0.83305114  0.50027747  1
  Fe  Fe34  1  1.00012681  0.66567288  0.66627664  1
  Cr  Cr35  1  0.16677604  0.83356854  0.83481902  1
  Ni  Ni36  1  0.50130243  0.16497911  0.50132538  1
  Fe  Fe37  1  0.33622282  0.00212569  0.66673153  1
  Fe  Fe38  1  0.50169178  0.16561454  0.83363829  1
  Ni  Ni39  1  0.50114503  0.49917716  0.49984333  1
  Fe  Fe40  1  0.33489008  0.33450932  0.66645511  1
  Ni  Ni41  1  0.50062022  0.49890186  0.83373903  1
  Fe  Fe42  1  0.50067602  0.83415049  0.50059357  1
  Fe  Fe43  1  0.33357538  0.66530788  0.66674521  1
  Fe  Fe44  1  0.50120776  0.83480875  0.83347593  1
  Fe  Fe45  1  0.83240636  0.16964376  0.49732792  1
  Fe  Fe46  1  0.66591286  0.00201452  0.66637828  1
  Fe  Fe47  1  0.83362130  0.16859823  0.83727422  1
  Ni  Ni48  1  0.83593080  0.50244841  0.49801847  1
  Cr  Cr49  1  0.66846011  0.33492494  0.66793996  1
  Ni  Ni50  1  0.83545649  0.50039653  0.83685465  1
  Fe  Fe51  1  0.83363327  0.83356743  0.49898705  1
  Cr  Cr52  1  0.66650740  0.66713660  0.66582822  1
  Cr  Cr53  1  0.83519849  0.83453872  0.83420068  1
" 