6294,Ni25Fe53Cr21_13,-228.68207902405, 191.353495295311,Ni25Fe53Cr21,"# generated using pymatgen
 data_Cr13Fe28Ni13
_symmetry_space_group_name_H-M   'P 1'
_cell_length_a   7.45374798
_cell_length_b   7.45374798
_cell_length_c   10.54119148
_cell_angle_alpha   90.00000000
_cell_angle_beta   90.00000000
_cell_angle_gamma   90.00000000
_symmetry_Int_Tables_number   1
_chemical_formula_structural   Cr13Fe28Ni13
_chemical_formula_sum   'Cr13 Fe28 Ni13'
_cell_volume   585.65130005
_cell_formula_units_Z   1
loop_
 _symmetry_equiv_pos_site_id
 _symmetry_equiv_pos_as_xyz
  1  'x, y, z'
loop_
 _atom_site_type_symbol
 _atom_site_label
 _atom_site_symmetry_multiplicity
 _atom_site_fract_x
 _atom_site_fract_y
 _atom_site_fract_z
 _atom_site_occupancy
  Fe  Fe0  1  0.00160538  0.99969608  1.00049791  1
  Fe  Fe1  1  0.16856117  0.16906947  0.16705511  1
  Cr  Cr2  1  0.99985954  0.00170197  0.33368812  1
  Cr  Cr3  1  1.00067097  0.33509858  0.00183517  1
  Ni  Ni4  1  0.16630571  0.50140328  0.16975129  1
  Fe  Fe5  1  1.00081454  0.33586368  0.33314162  1
  Fe  Fe6  1  1.00071931  0.66837942  0.00092322  1
  Fe  Fe7  1  0.16649045  0.83192623  0.16603410  1
  Fe  Fe8  1  0.00163805  0.66495715  0.33245821  1
  Ni  Ni9  1  0.33132255  0.00145048  1.00074222  1
  Fe  Fe10  1  0.50086770  0.17029760  0.16756789  1
  Cr  Cr11  1  0.33592152  0.00134858  0.33491885  1
  Fe  Fe12  1  0.33545136  0.33390969  1.00075706  1
  Cr  Cr13  1  0.49991431  0.49930571  0.16622813  1
  Ni  Ni14  1  0.33303718  0.33399198  0.33361229  1
  Fe  Fe15  1  0.33262583  0.66682321  1.00046209  1
  Cr  Cr16  1  0.49998360  0.83490659  0.16795002  1
  Ni  Ni17  1  0.33236668  0.66666004  0.33368390  1
  Cr  Cr18  1  0.66772022  0.00140035  0.00260440  1
  Fe  Fe19  1  0.83324737  0.16970743  0.16776008  1
  Fe  Fe20  1  0.66698147  0.00296139  0.33525995  1
  Ni  Ni21  1  0.66796182  0.33603351  0.99919291  1
  Ni  Ni22  1  0.83623913  0.49944734  0.16799593  1
  Ni  Ni23  1  0.66954938  0.33272358  0.33454191  1
  Ni  Ni24  1  0.66991655  0.66523275  0.99929151  1
  Fe  Fe25  1  0.83617634  0.83214250  0.16673158  1
  Cr  Cr26  1  0.66879389  0.66810331  0.33555006  1
  Fe  Fe27  1  0.16932867  0.16775531  0.50152046  1
  Fe  Fe28  1  0.00194667  1.00035081  0.66851167  1
  Fe  Fe29  1  0.16890978  0.16553276  0.83410139  1
  Cr  Cr30  1  0.16755504  0.50055043  0.49809368  1
  Cr  Cr31  1  1.00078361  0.33422608  0.66722534  1
  Ni  Ni32  1  0.16901728  0.50268426  0.83421382  1
  Cr  Cr33  1  0.16894067  0.83371653  0.50245252  1
  Fe  Fe34  1  1.00056407  0.66933584  0.66929637  1
  Ni  Ni35  1  0.16676461  0.83410671  0.83459116  1
  Fe  Fe36  1  0.50030721  0.16728062  0.50059408  1
  Ni  Ni37  1  0.33303219  0.00135121  0.66693649  1
  Fe  Fe38  1  0.49898779  0.16976494  0.83451238  1
  Cr  Cr39  1  0.50054216  0.50092446  0.50136400  1
  Fe  Fe40  1  0.33520011  0.33261634  0.66852113  1
  Fe  Fe41  1  0.50099563  0.49963330  0.83471836  1
  Ni  Ni42  1  0.50163183  0.83560728  0.50104095  1
  Fe  Fe43  1  0.33392407  0.66838920  0.66849910  1
  Cr  Cr44  1  0.49889211  0.83292064  0.83422373  1
  Fe  Fe45  1  0.83304047  0.16807301  0.50051133  1
  Cr  Cr46  1  0.66670288  1.00016398  0.66524242  1
  Ni  Ni47  1  0.83395694  0.16803482  0.83453216  1
  Fe  Fe48  1  0.83354777  0.50129521  0.50019459  1
  Fe  Fe49  1  0.66686750  0.33400066  0.66844901  1
  Fe  Fe50  1  0.83325146  0.50216842  0.83516979  1
  Fe  Fe51  1  0.83307201  0.83330773  0.50149966  1
  Fe  Fe52  1  0.66818969  0.66704652  0.66748068  1
  Fe  Fe53  1  0.83748149  0.83279677  0.83444396  1
" 