4813,Ni25Fe15Cr59_0,-215.27229866326, 156.535140132667,Ni25Fe15Cr59,"# generated using pymatgen
 data_Cr33Fe8Ni13
_symmetry_space_group_name_H-M   'P 1'
_cell_length_a   7.54264938
_cell_length_b   7.54264938
_cell_length_c   10.66691704
_cell_angle_alpha   90.00000000
_cell_angle_beta   90.00000000
_cell_angle_gamma   90.00000000
_symmetry_Int_Tables_number   1
_chemical_formula_structural   Cr33Fe8Ni13
_chemical_formula_sum   'Cr33 Fe8 Ni13'
_cell_volume   606.85754682
_cell_formula_units_Z   1
loop_
 _symmetry_equiv_pos_site_id
 _symmetry_equiv_pos_as_xyz
  1  'x, y, z'
loop_
 _atom_site_type_symbol
 _atom_site_label
 _atom_site_symmetry_multiplicity
 _atom_site_fract_x
 _atom_site_fract_y
 _atom_site_fract_z
 _atom_site_occupancy
  Cr  Cr0  1  0.99473770  0.99213151  0.99465332  1
  Cr  Cr1  1  0.16260564  0.15896480  0.16051381  1
  Ni  Ni2  1  0.99400674  0.99221748  0.32944513  1
  Cr  Cr3  1  -0.00491987  0.32778796  0.99337666  1
  Cr  Cr4  1  0.16022085  0.49587112  0.16215547  1
  Cr  Cr5  1  0.99454758  0.32658896  0.32997558  1
  Ni  Ni6  1  0.99255821  0.66442628  -0.00344458  1
  Cr  Cr7  1  0.16121900  0.82949750  0.16326931  1
  Ni  Ni8  1  0.99494776  0.66810533  0.32818323  1
  Ni  Ni9  1  0.33040746  0.99370031  -0.00319404  1
  Fe  Fe10  1  0.49585935  0.15807688  0.16199403  1
  Fe  Fe11  1  0.32892921  0.99385441  0.32726983  1
  Cr  Cr12  1  0.32980139  0.32738009  -0.00233576  1
  Ni  Ni13  1  0.49603625  0.49774421  0.16067880  1
  Cr  Cr14  1  0.33108556  0.32746255  0.32564164  1
  Cr  Cr15  1  0.32970031  0.66264309  0.99476182  1
  Ni  Ni16  1  0.49609267  0.82957022  0.16115187  1
  Cr  Cr17  1  0.32846206  0.66213755  0.33013108  1
  Cr  Cr18  1  0.66189085  0.99242576  -0.00319675  1
  Cr  Cr19  1  0.82942220  0.15895858  0.16348540  1
  Fe  Fe20  1  0.66276033  0.99417879  0.32832402  1
  Cr  Cr21  1  0.66025482  0.32888262  -0.00425404  1
  Cr  Cr22  1  0.82878109  0.49772222  0.16098691  1
  Cr  Cr23  1  0.65982257  0.32577532  0.32980041  1
  Ni  Ni24  1  0.66201911  0.66319099  -0.00192294  1
  Ni  Ni25  1  0.82645094  0.82866131  0.16275538  1
  Cr  Cr26  1  0.66126576  0.66330527  0.32495211  1
  Cr  Cr27  1  0.16117943  0.15833266  0.49424588  1
  Ni  Ni28  1  0.99485463  0.99318323  0.65993193  1
  Cr  Cr29  1  0.16209190  0.15946527  0.82975261  1
  Cr  Cr30  1  0.16002949  0.49728132  0.49505251  1
  Fe  Fe31  1  0.99267297  0.32669124  0.66035938  1
  Cr  Cr32  1  0.15957846  0.49602900  0.82764546  1
  Fe  Fe33  1  0.15891607  0.82965084  0.49535295  1
  Ni  Ni34  1  -0.00249575  0.66564733  0.66037663  1
  Cr  Cr35  1  0.16277588  0.82937802  0.82630419  1
  Fe  Fe36  1  0.49730792  0.16036782  0.49614025  1
  Fe  Fe37  1  0.32783428  0.99479506  0.66106173  1
  Cr  Cr38  1  0.49513449  0.15866343  0.82742292  1
  Cr  Cr39  1  0.49570386  0.49580529  0.49691569  1
  Cr  Cr40  1  0.32856634  0.32879444  0.66156207  1
  Cr  Cr41  1  0.49672393  0.49619184  0.82782632  1
  Cr  Cr42  1  0.49281529  0.83168303  0.49677833  1
  Fe  Fe43  1  0.32653266  0.66421182  0.66086527  1
  Cr  Cr44  1  0.49520226  0.83002365  0.82775684  1
  Ni  Ni45  1  0.82809684  0.15824347  0.49705658  1
  Ni  Ni46  1  0.66334669  -0.00198581  0.65893996  1
  Cr  Cr47  1  0.82781418  0.16124563  0.82418612  1
  Cr  Cr48  1  0.82880597  0.49396285  0.49587321  1
  Ni  Ni49  1  0.66125667  0.32407828  0.65935628  1
  Cr  Cr50  1  0.82822497  0.49556433  0.82799250  1
  Cr  Cr51  1  0.82766015  0.82987694  0.49320303  1
  Cr  Cr52  1  0.66262317  0.66301955  0.66269456  1
  Cr  Cr53  1  0.82715428  0.82791094  0.82956168  1
" 