7524,Ni25Fe15Cr59_17,-215.545785157045, 164.313234653775,Ni25Fe15Cr59,"# generated using pymatgen
 data_Cr33Fe8Ni13
_symmetry_space_group_name_H-M   'P 1'
_cell_length_a   7.53600105
_cell_length_b   7.53600105
_cell_length_c   10.65751489
_cell_angle_alpha   90.00000000
_cell_angle_beta   90.00000000
_cell_angle_gamma   90.00000000
_symmetry_Int_Tables_number   1
_chemical_formula_structural   Cr33Fe8Ni13
_chemical_formula_sum   'Cr33 Fe8 Ni13'
_cell_volume   605.25425103
_cell_formula_units_Z   1
loop_
 _symmetry_equiv_pos_site_id
 _symmetry_equiv_pos_as_xyz
  1  'x, y, z'
loop_
 _atom_site_type_symbol
 _atom_site_label
 _atom_site_symmetry_multiplicity
 _atom_site_fract_x
 _atom_site_fract_y
 _atom_site_fract_z
 _atom_site_occupancy
  Cr  Cr0  1  0.99484163  0.99539888  -0.00188038  1
  Fe  Fe1  1  0.16433235  0.16046006  0.16279911  1
  Cr  Cr2  1  -0.00180391  -0.00396578  0.32626951  1
  Cr  Cr3  1  0.99199088  0.32743061  -0.00453430  1
  Cr  Cr4  1  0.16453683  0.49179490  0.16081906  1
  Cr  Cr5  1  0.99479973  0.32517195  0.32790044  1
  Cr  Cr6  1  -0.00063384  0.66391862  -0.00398332  1
  Ni  Ni7  1  0.16430805  0.83194732  0.16389779  1
  Cr  Cr8  1  -0.00108628  0.66484264  0.32807719  1
  Cr  Cr9  1  0.32867818  0.99238037  -0.00382845  1
  Ni  Ni10  1  0.49293953  0.16117756  0.16204113  1
  Fe  Fe11  1  0.32899339  -0.00200634  0.32781805  1
  Fe  Fe12  1  0.32935450  0.32447836  -0.00253758  1
  Cr  Cr13  1  0.49406616  0.49381361  0.16230211  1
  Ni  Ni14  1  0.32876599  0.32344270  0.32679504  1
  Cr  Cr15  1  0.32708244  0.66409358  0.99205420  1
  Cr  Cr16  1  0.49780562  0.83011217  0.16044878  1
  Cr  Cr17  1  0.32666960  0.66521335  0.32975925  1
  Ni  Ni18  1  0.66048939  -0.00194452  -0.00450483  1
  Ni  Ni19  1  0.82634565  0.16012689  0.15921164  1
  Cr  Cr20  1  0.66071417  0.00025262  0.32689821  1
  Cr  Cr21  1  0.66288154  0.32509175  0.99514162  1
  Cr  Cr22  1  0.82742981  0.49771354  0.16438429  1
  Cr  Cr23  1  0.66006261  0.32494165  0.33054425  1
  Fe  Fe24  1  0.66362839  0.66323050  0.99404145  1
  Cr  Cr25  1  0.82717720  0.82984133  0.16302061  1
  Ni  Ni26  1  0.65891826  0.66338551  0.32788061  1
  Ni  Ni27  1  0.16579184  0.15845956  0.49562768  1
  Ni  Ni28  1  -0.00148754  -0.00317948  0.66263309  1
  Cr  Cr29  1  0.16177195  0.16099247  0.82761606  1
  Cr  Cr30  1  0.16181869  0.48889072  0.49560424  1
  Ni  Ni31  1  -0.00436436  0.32479418  0.66363278  1
  Cr  Cr32  1  0.16094713  0.49105147  0.82947373  1
  Fe  Fe33  1  0.16287175  0.83387325  0.49676027  1
  Cr  Cr34  1  -0.00203379  0.66316228  0.66210743  1
  Ni  Ni35  1  0.16127059  0.83269493  0.82560141  1
  Ni  Ni36  1  0.48826142  0.15934281  0.49386699  1
  Fe  Fe37  1  0.32604647  -0.00382579  0.66093202  1
  Cr  Cr38  1  0.49275507  0.15947229  0.82934956  1
  Cr  Cr39  1  0.49556370  0.49583290  0.49269981  1
  Cr  Cr40  1  0.33113628  0.32864973  0.66049473  1
  Cr  Cr41  1  0.49655997  0.49536767  0.83127296  1
  Cr  Cr42  1  0.49756217  0.83124341  0.49651691  1
  Cr  Cr43  1  0.32904771  0.66677083  0.66436395  1
  Fe  Fe44  1  0.49583849  0.82924364  0.82936851  1
  Cr  Cr45  1  0.83316651  0.15950017  0.49977177  1
  Cr  Cr46  1  0.66023372  -0.00188667  0.66397685  1
  Fe  Fe47  1  0.83048277  0.16234073  0.82820640  1
  Cr  Cr48  1  0.82836422  0.49896949  0.49576502  1
  Cr  Cr49  1  0.66353517  0.32846003  0.66088536  1
  Ni  Ni50  1  0.82813586  0.49709038  0.82645821  1
  Cr  Cr51  1  0.82794007  0.82858569  0.49370515  1
  Ni  Ni52  1  0.66111803  0.66355162  0.66542917  1
  Cr  Cr53  1  0.82733172  0.83116134  0.82999800  1
" 