7152,Ni25Fe53Cr21_5,-228.850008359497, 188.241334088467,Ni25Fe53Cr21,"# generated using pymatgen
 data_Cr13Fe28Ni13
_symmetry_space_group_name_H-M   'P 1'
_cell_length_a   7.46175719
_cell_length_b   7.46175719
_cell_length_c   10.55251822
_cell_angle_alpha   90.00000000
_cell_angle_beta   90.00000000
_cell_angle_gamma   90.00000000
_symmetry_Int_Tables_number   1
_chemical_formula_structural   Cr13Fe28Ni13
_chemical_formula_sum   'Cr13 Fe28 Ni13'
_cell_volume   587.54121414
_cell_formula_units_Z   1
loop_
 _symmetry_equiv_pos_site_id
 _symmetry_equiv_pos_as_xyz
  1  'x, y, z'
loop_
 _atom_site_type_symbol
 _atom_site_label
 _atom_site_symmetry_multiplicity
 _atom_site_fract_x
 _atom_site_fract_y
 _atom_site_fract_z
 _atom_site_occupancy
  Fe  Fe0  1  0.00102206  0.99923347  0.99911941  1
  Ni  Ni1  1  0.16894989  0.16797141  0.16738628  1
  Fe  Fe2  1  0.99996294  0.00236458  0.33325237  1
  Cr  Cr3  1  0.00313605  0.33185456  0.00092934  1
  Fe  Fe4  1  0.16861131  0.49867019  0.16878146  1
  Ni  Ni5  1  0.00171012  0.33376224  0.33414720  1
  Fe  Fe6  1  0.00090989  0.66883678  0.99846499  1
  Cr  Cr7  1  0.16752288  0.83463575  0.16860572  1
  Fe  Fe8  1  0.00127286  0.66496567  0.33529205  1
  Fe  Fe9  1  0.33249022  0.00085821  1.00015693  1
  Fe  Fe10  1  0.49989162  0.16680815  0.16791246  1
  Fe  Fe11  1  0.33489864  0.00202699  0.33352197  1
  Fe  Fe12  1  0.33427093  0.33425198  0.00095677  1
  Fe  Fe13  1  0.49899909  0.50059244  0.16724827  1
  Ni  Ni14  1  0.33154996  0.33386638  0.33191490  1
  Fe  Fe15  1  0.33386037  0.66595482  0.99994068  1
  Fe  Fe16  1  0.50096657  0.83366543  0.16732441  1
  Fe  Fe17  1  0.33331792  0.66557230  0.33351172  1
  Fe  Fe18  1  0.66755091  0.99964364  0.00177921  1
  Fe  Fe19  1  0.83395204  0.16626447  0.16802470  1
  Ni  Ni20  1  0.66642303  0.00082203  0.33284659  1
  Fe  Fe21  1  0.66466930  0.33436165  0.00143791  1
  Cr  Cr22  1  0.83245969  0.50072071  0.16905079  1
  Fe  Fe23  1  0.66680938  0.33215561  0.33399382  1
  Ni  Ni24  1  0.66531286  0.66843487  0.99927290  1
  Cr  Cr25  1  0.83242844  0.83341967  0.16547979  1
  Ni  Ni26  1  0.66631844  0.66825385  0.33319296  1
  Cr  Cr27  1  0.16901583  0.16757017  0.50103447  1
  Fe  Fe28  1  0.00244204  0.99969568  0.66869335  1
  Ni  Ni29  1  0.16882090  0.16602733  0.83302105  1
  Ni  Ni30  1  0.16458152  0.49976044  0.49876132  1
  Fe  Fe31  1  0.00268857  0.33400764  0.66609814  1
  Fe  Fe32  1  0.16812111  0.50037417  0.83288069  1
  Fe  Fe33  1  0.16734876  0.83304792  0.50044657  1
  Fe  Fe34  1  0.00163570  0.66735882  0.66730683  1
  Ni  Ni35  1  0.16452423  0.83490921  0.83367863  1
  Ni  Ni36  1  0.50077083  0.16735047  0.50040410  1
  Ni  Ni37  1  0.33236698  0.00227047  0.66688041  1
  Cr  Cr38  1  0.49715652  0.16887814  0.83226306  1
  Cr  Cr39  1  0.50100488  0.49769840  0.50018606  1
  Ni  Ni40  1  0.33244149  0.33232638  0.66907147  1
  Fe  Fe41  1  0.49956880  0.50012068  0.83426765  1
  Cr  Cr42  1  0.49996155  0.83628146  0.49896692  1
  Cr  Cr43  1  0.33213967  0.66669280  0.66765580  1
  Cr  Cr44  1  0.50135322  0.83321391  0.83415382  1
  Fe  Fe45  1  0.83203612  0.16868556  0.49989591  1
  Fe  Fe46  1  0.66639411  0.00135604  0.66584626  1
  Cr  Cr47  1  0.83468392  0.16530500  0.83331674  1
  Fe  Fe48  1  0.83501367  0.49876020  0.49979224  1
  Fe  Fe49  1  0.66546493  0.33302895  0.66563143  1
  Cr  Cr50  1  0.83224815  0.50352666  0.83205359  1
  Cr  Cr51  1  0.83442081  0.83241482  0.50070610  1
  Fe  Fe52  1  0.66817229  0.66667917  0.66801879  1
  Ni  Ni53  1  0.83549912  0.83183476  0.83456611  1
" 