2516,Ni25Cr75_19,-230.076210804574, 151.372239938327,Ni25Cr75,"# generated using pymatgen
 data_Cr13Ni41
_symmetry_space_group_name_H-M   'P 1'
_cell_length_a   7.47846672
_cell_length_b   7.47846672
_cell_length_c   10.57614906
_cell_angle_alpha   90.00000000
_cell_angle_beta   90.00000000
_cell_angle_gamma   90.00000000
_symmetry_Int_Tables_number   1
_chemical_formula_structural   Cr13Ni41
_chemical_formula_sum   'Cr13 Ni41'
_cell_volume   591.49720031
_cell_formula_units_Z   1
loop_
 _symmetry_equiv_pos_site_id
 _symmetry_equiv_pos_as_xyz
  1  'x, y, z'
loop_
 _atom_site_type_symbol
 _atom_site_label
 _atom_site_symmetry_multiplicity
 _atom_site_fract_x
 _atom_site_fract_y
 _atom_site_fract_z
 _atom_site_occupancy
  Ni  Ni0  1  0.00003576  0.99839695  0.00090957  1
  Ni  Ni1  1  0.16527720  0.16616632  0.16404314  1
  Ni  Ni2  1  0.00020000  0.00048438  0.33221172  1
  Ni  Ni3  1  0.00006267  0.33370370  -0.00015616  1
  Ni  Ni4  1  0.16515025  0.49788598  0.16508299  1
  Cr  Cr5  1  -0.00029184  0.32958020  0.33258585  1
  Ni  Ni6  1  0.99765657  0.66569613  -0.00062542  1
  Ni  Ni7  1  0.16294398  0.83372459  0.16548057  1
  Cr  Cr8  1  0.00110150  0.66714908  0.33009057  1
  Ni  Ni9  1  0.33194314  0.00201552  0.99814858  1
  Ni  Ni10  1  0.49878296  0.16835361  0.16332205  1
  Cr  Cr11  1  0.32837948  0.00122813  0.33080171  1
  Ni  Ni12  1  0.33180806  0.32987588  0.99858859  1
  Cr  Cr13  1  0.49881745  0.49738648  0.16796293  1
  Ni  Ni14  1  0.33219314  0.33394090  0.33247681  1
  Cr  Cr15  1  0.33031562  0.66582821  0.99636822  1
  Cr  Cr16  1  0.49919589  0.83223749  0.16524837  1
  Ni  Ni17  1  0.33068570  0.66304776  0.33456261  1
  Ni  Ni18  1  0.66576805  -0.00023592  0.99919011  1
  Ni  Ni19  1  0.83360252  0.16612917  0.16505725  1
  Cr  Cr20  1  0.66992483  0.00282076  0.33028367  1
  Ni  Ni21  1  0.66584139  0.33218103  -0.00034153  1
  Ni  Ni22  1  0.83243692  0.49884909  0.16354780  1
  Ni  Ni23  1  0.66528990  0.33313918  0.33174357  1
  Ni  Ni24  1  0.66940432  0.66589402  0.99719755  1
  Ni  Ni25  1  0.83466576  0.83276561  0.16400266  1
  Ni  Ni26  1  0.66570814  0.66306389  0.33162103  1
  Ni  Ni27  1  0.16435947  0.16602486  0.50129745  1
  Ni  Ni28  1  0.00142239  0.00076202  0.66463103  1
  Ni  Ni29  1  0.16729475  0.16600309  0.83246174  1
  Ni  Ni30  1  0.17071715  0.49773397  0.50002443  1
  Ni  Ni31  1  0.00138167  0.33108983  0.66577113  1
  Ni  Ni32  1  0.16584936  0.49663941  0.83271448  1
  Ni  Ni33  1  0.16686547  0.83380852  0.49978033  1
  Cr  Cr34  1  0.00144139  0.66460001  0.66909578  1
  Ni  Ni35  1  0.16557246  0.83498288  0.83237306  1
  Cr  Cr36  1  0.49914087  0.16951432  0.50094380  1
  Ni  Ni37  1  0.33093280  -0.00061786  0.66829500  1
  Ni  Ni38  1  0.49755489  0.16619375  0.83334705  1
  Ni  Ni39  1  0.49693375  0.49880290  0.49887067  1
  Ni  Ni40  1  0.33194253  0.33351686  0.66668693  1
  Ni  Ni41  1  0.49993901  0.49795846  0.83067930  1
  Cr  Cr42  1  0.49779032  0.82816621  0.50060720  1
  Ni  Ni43  1  0.33331416  0.66475965  0.66583403  1
  Ni  Ni44  1  0.49989850  0.83361825  0.83118224  1
  Ni  Ni45  1  0.83501129  0.16613265  0.50100471  1
  Ni  Ni46  1  0.66555008  -0.00021745  0.66799764  1
  Cr  Cr47  1  0.83489292  0.16643778  0.83129599  1
  Cr  Cr48  1  0.82920057  0.49670476  0.50079873  1
  Ni  Ni49  1  0.66460965  0.33328135  0.66631821  1
  Ni  Ni50  1  0.83192256  0.49937195  0.83408445  1
  Cr  Cr51  1  0.83322977  0.83522122  0.50045862  1
  Ni  Ni52  1  0.66292812  0.66453447  0.66900840  1
  Ni  Ni53  1  0.83217759  0.83244085  0.83380566  1
" 