4005,Ni25Fe53Cr21_11,-228.857253364191, 193.450907246401,Ni25Fe53Cr21,"# generated using pymatgen
 data_Cr13Fe28Ni13
_symmetry_space_group_name_H-M   'P 1'
_cell_length_a   7.45409570
_cell_length_b   7.45409570
_cell_length_c   10.54168323
_cell_angle_alpha   90.00000000
_cell_angle_beta   90.00000000
_cell_angle_gamma   90.00000000
_symmetry_Int_Tables_number   1
_chemical_formula_structural   Cr13Fe28Ni13
_chemical_formula_sum   'Cr13 Fe28 Ni13'
_cell_volume   585.73326582
_cell_formula_units_Z   1
loop_
 _symmetry_equiv_pos_site_id
 _symmetry_equiv_pos_as_xyz
  1  'x, y, z'
loop_
 _atom_site_type_symbol
 _atom_site_label
 _atom_site_symmetry_multiplicity
 _atom_site_fract_x
 _atom_site_fract_y
 _atom_site_fract_z
 _atom_site_occupancy
  Ni  Ni0  1  0.99950189  1.00067179  0.00112049  1
  Ni  Ni1  1  0.16897863  0.16761576  0.16793337  1
  Fe  Fe2  1  1.00034866  0.00192074  0.33423324  1
  Cr  Cr3  1  0.00110040  0.33132300  0.00130257  1
  Fe  Fe4  1  0.16786989  0.50036595  0.16698622  1
  Ni  Ni5  1  0.00185505  0.33093869  0.33460208  1
  Fe  Fe6  1  1.00042828  0.67126065  1.00008999  1
  Cr  Cr7  1  0.16594573  0.83560978  0.16537353  1
  Fe  Fe8  1  0.99939720  0.66765264  0.33460866  1
  Fe  Fe9  1  0.33476992  1.00032147  0.00165109  1
  Fe  Fe10  1  0.50170459  0.16548205  0.16651113  1
  Fe  Fe11  1  0.33388973  0.00121246  0.33458094  1
  Fe  Fe12  1  0.33631316  0.33411457  0.00309579  1
  Fe  Fe13  1  0.50029335  0.50128454  0.16665784  1
  Cr  Cr14  1  0.33115895  0.33422011  0.33306283  1
  Fe  Fe15  1  0.33463240  0.66817275  0.00098740  1
  Ni  Ni16  1  0.50291861  0.83635248  0.16767155  1
  Cr  Cr17  1  0.33763434  0.66756020  0.33515080  1
  Ni  Ni18  1  0.66886717  0.99962829  0.00106411  1
  Fe  Fe19  1  0.83407470  0.16413177  0.16784197  1
  Fe  Fe20  1  0.66836742  0.99935786  0.33242850  1
  Fe  Fe21  1  0.66628236  0.33214934  0.99989046  1
  Cr  Cr22  1  0.83435687  0.50276211  0.16876942  1
  Fe  Fe23  1  0.66854391  0.33451950  0.33414989  1
  Cr  Cr24  1  0.66526835  0.66919205  1.00009136  1
  Ni  Ni25  1  0.83286049  0.83482319  0.16930455  1
  Ni  Ni26  1  0.66647077  0.67036843  0.33376771  1
  Ni  Ni27  1  0.16762292  0.16735788  0.50104318  1
  Cr  Cr28  1  0.00099129  0.00290457  0.66752113  1
  Cr  Cr29  1  0.16917022  0.16585177  0.83367562  1
  Fe  Fe30  1  0.16698791  0.49959007  0.50230339  1
  Ni  Ni31  1  1.00040132  0.33345790  0.66632873  1
  Cr  Cr32  1  0.16710564  0.50271495  0.83311104  1
  Fe  Fe33  1  0.16798927  0.83505908  0.50117105  1
  Fe  Fe34  1  0.00185973  0.66729448  0.66790586  1
  Fe  Fe35  1  0.16830913  0.83363340  0.83494328  1
  Cr  Cr36  1  0.50017604  0.16661176  0.50247468  1
  Ni  Ni37  1  0.33364985  0.99834126  0.66661742  1
  Cr  Cr38  1  0.50164985  0.16769789  0.83397001  1
  Fe  Fe39  1  0.50037414  0.50104242  0.50203473  1
  Fe  Fe40  1  0.33424038  0.33494268  0.66608945  1
  Ni  Ni41  1  0.50175094  0.50004233  0.83369790  1
  Fe  Fe42  1  0.50037307  0.83460909  0.50027202  1
  Fe  Fe43  1  0.33371251  0.66756440  0.66704566  1
  Fe  Fe44  1  0.49968617  0.83418997  0.83463659  1
  Fe  Fe45  1  0.83569779  0.16795856  0.50058534  1
  Fe  Fe46  1  0.66777436  0.00164618  0.66834819  1
  Fe  Fe47  1  0.83242818  0.16775791  0.83418068  1
  Cr  Cr48  1  0.83516628  0.50113247  0.50063642  1
  Ni  Ni49  1  0.66872087  0.33529467  0.66916820  1
  Fe  Fe50  1  0.83298241  0.49982791  0.83280648  1
  Fe  Fe51  1  0.83424347  0.83578333  0.49919390  1
  Cr  Cr52  1  0.66493776  0.66775635  0.66884183  1
  Ni  Ni53  1  0.83507970  0.83383856  0.83538370  1
" 