8021,Ni25Cr75_2,-230.102520887615, 150.603299859355,Ni25Cr75,"# generated using pymatgen
 data_Cr13Ni41
_symmetry_space_group_name_H-M   'P 1'
_cell_length_a   7.47952751
_cell_length_b   7.47952751
_cell_length_c   10.57764924
_cell_angle_alpha   90.00000000
_cell_angle_beta   90.00000000
_cell_angle_gamma   90.00000000
_symmetry_Int_Tables_number   1
_chemical_formula_structural   Cr13Ni41
_chemical_formula_sum   'Cr13 Ni41'
_cell_volume   591.74894054
_cell_formula_units_Z   1
loop_
 _symmetry_equiv_pos_site_id
 _symmetry_equiv_pos_as_xyz
  1  'x, y, z'
loop_
 _atom_site_type_symbol
 _atom_site_label
 _atom_site_symmetry_multiplicity
 _atom_site_fract_x
 _atom_site_fract_y
 _atom_site_fract_z
 _atom_site_occupancy
  Ni  Ni0  1  0.00348299  0.99735007  0.99800849  1
  Ni  Ni1  1  0.16476732  0.16332708  0.16505502  1
  Ni  Ni2  1  -0.00032841  0.99893264  0.33378656  1
  Cr  Cr3  1  0.99781551  0.33213869  0.99777257  1
  Cr  Cr4  1  0.16549454  0.50185154  0.16555368  1
  Ni  Ni5  1  0.99880600  0.33263949  0.33445244  1
  Ni  Ni6  1  0.99911639  0.66759015  0.99709642  1
  Ni  Ni7  1  0.16471210  0.83312609  0.16474228  1
  Ni  Ni8  1  0.99904234  0.66589975  0.33405817  1
  Ni  Ni9  1  0.32863055  0.99883794  0.99731009  1
  Cr  Cr10  1  0.49763136  0.16731206  0.16308546  1
  Cr  Cr11  1  0.32991624  0.99637935  0.33331650  1
  Ni  Ni12  1  0.33299111  0.33155833  0.99849199  1
  Ni  Ni13  1  0.50050882  0.50128523  0.16406916  1
  Cr  Cr14  1  0.32978389  0.33511142  0.33359452  1
  Ni  Ni15  1  0.33158940  0.66718327  0.99914145  1
  Cr  Cr16  1  0.49793734  0.82924328  0.16633506  1
  Ni  Ni17  1  0.33242856  0.66620052  0.33398325  1
  Cr  Cr18  1  0.66687942  -0.00079539  0.99529991  1
  Cr  Cr19  1  0.83525777  0.16538167  0.16805848  1
  Ni  Ni20  1  0.66899788  0.99591989  0.33606677  1
  Ni  Ni21  1  0.66508263  0.33571779  0.99866754  1
  Ni  Ni22  1  0.83093399  0.50139088  0.16559569  1
  Cr  Cr23  1  0.66867191  0.33522624  0.33209600  1
  Ni  Ni24  1  0.66675029  0.66291035  0.99869316  1
  Cr  Cr25  1  0.83604395  0.83001963  0.16701153  1
  Ni  Ni26  1  0.66602776  0.66546904  0.33410510  1
  Ni  Ni27  1  0.16174401  0.16588048  0.50059939  1
  Ni  Ni28  1  0.99909482  -0.00076009  0.66585034  1
  Ni  Ni29  1  0.16682137  0.16485113  0.83192944  1
  Ni  Ni30  1  0.16357586  0.49930534  0.49930162  1
  Ni  Ni31  1  0.99884738  0.33243678  0.66515375  1
  Ni  Ni32  1  0.16391018  0.49917073  0.83219701  1
  Ni  Ni33  1  0.16334542  0.83222782  0.49835264  1
  Ni  Ni34  1  0.99722768  0.66580710  0.66629986  1
  Ni  Ni35  1  0.16438924  0.83340734  0.83444557  1
  Cr  Cr36  1  0.50044282  0.16475611  0.50316221  1
  Ni  Ni37  1  0.33141344  -0.00028055  0.66725799  1
  Ni  Ni38  1  0.49808847  0.16512486  0.83191139  1
  Ni  Ni39  1  0.50002380  0.50198892  0.49914639  1
  Ni  Ni40  1  0.33016407  0.33077026  0.66579737  1
  Cr  Cr41  1  0.49910664  0.49804343  0.83339196  1
  Ni  Ni42  1  0.50138341  0.83053158  0.49889485  1
  Cr  Cr43  1  0.33093531  0.66765023  0.66371021  1
  Ni  Ni44  1  0.49920630  0.83436305  0.83238659  1
  Ni  Ni45  1  0.83557411  0.16462770  0.49955858  1
  Ni  Ni46  1  0.66700831  0.99803533  0.66640311  1
  Ni  Ni47  1  0.83260960  0.16562370  0.83043472  1
  Ni  Ni48  1  0.83388136  0.50035373  0.49967710  1
  Ni  Ni49  1  0.66837626  0.33252258  0.66634526  1
  Ni  Ni50  1  0.83340553  0.50041843  0.83210060  1
  Ni  Ni51  1  0.83286292  0.83242219  0.49886454  1
  Ni  Ni52  1  0.66861338  0.66694678  0.66467234  1
  Ni  Ni53  1  0.83392608  0.83151745  0.83165727  1
" 