5047,Ni25Fe15Cr59_4,-215.803040545775, 166.728499477261,Ni25Fe15Cr59,"# generated using pymatgen
 data_Cr33Fe8Ni13
_symmetry_space_group_name_H-M   'P 1'
_cell_length_a   7.53629022
_cell_length_b   7.53629022
_cell_length_c   10.65792384
_cell_angle_alpha   90.00000000
_cell_angle_beta   90.00000000
_cell_angle_gamma   90.00000000
_symmetry_Int_Tables_number   1
_chemical_formula_structural   Cr33Fe8Ni13
_chemical_formula_sum   'Cr33 Fe8 Ni13'
_cell_volume   605.32392844
_cell_formula_units_Z   1
loop_
 _symmetry_equiv_pos_site_id
 _symmetry_equiv_pos_as_xyz
  1  'x, y, z'
loop_
 _atom_site_type_symbol
 _atom_site_label
 _atom_site_symmetry_multiplicity
 _atom_site_fract_x
 _atom_site_fract_y
 _atom_site_fract_z
 _atom_site_occupancy
  Fe  Fe0  1  0.99268671  -0.00330195  -0.00436910  1
  Cr  Cr1  1  0.16056880  0.16213424  0.16111156  1
  Cr  Cr2  1  0.99307301  0.99359407  0.32791149  1
  Ni  Ni3  1  0.99150395  0.32743462  0.99441122  1
  Cr  Cr4  1  0.16114977  0.49409385  0.16246426  1
  Fe  Fe5  1  0.99490404  0.32876995  0.32842544  1
  Cr  Cr6  1  0.99234176  0.66300940  -0.00400823  1
  Cr  Cr7  1  0.16118824  0.83013044  0.16245000  1
  Fe  Fe8  1  0.99431929  0.66385534  0.32920496  1
  Cr  Cr9  1  0.32973471  -0.00439639  0.99399057  1
  Cr  Cr10  1  0.49686080  0.16125071  0.16506833  1
  Ni  Ni11  1  0.32997762  -0.00293036  0.33004106  1
  Cr  Cr12  1  0.32938420  0.32888823  -0.00398034  1
  Ni  Ni13  1  0.49772096  0.49532855  0.16169967  1
  Cr  Cr14  1  0.33095119  0.32771334  0.32786019  1
  Cr  Cr15  1  0.33272083  0.66170855  -0.00389976  1
  Cr  Cr16  1  0.49818007  0.82935303  0.16043431  1
  Cr  Cr17  1  0.32989012  0.66210816  0.32691700  1
  Fe  Fe18  1  0.66314545  0.99495973  0.99344301  1
  Cr  Cr19  1  0.82849798  0.16097416  0.16094339  1
  Fe  Fe20  1  0.66097921  0.99502939  0.33019103  1
  Cr  Cr21  1  0.66251673  0.32902601  0.99363456  1
  Cr  Cr22  1  0.82794828  0.49514173  0.16306313  1
  Fe  Fe23  1  0.66091244  0.32714767  0.32927806  1
  Fe  Fe24  1  0.66281252  0.66236364  -0.00456244  1
  Ni  Ni25  1  0.82738101  0.82934018  0.16149105  1
  Cr  Cr26  1  0.66423004  0.66296030  0.32645996  1
  Cr  Cr27  1  0.16503823  0.16100077  0.49460794  1
  Cr  Cr28  1  0.99311401  0.99392861  0.66267239  1
  Cr  Cr29  1  0.16157306  0.16148690  0.83073584  1
  Cr  Cr30  1  0.15929716  0.49654458  0.49588053  1
  Cr  Cr31  1  0.99207116  0.32912133  0.66426040  1
  Cr  Cr32  1  0.15820932  0.49547183  0.82794596  1
  Cr  Cr33  1  0.16175860  0.82849850  0.49704520  1
  Ni  Ni34  1  0.99195398  0.66271843  0.66047466  1
  Cr  Cr35  1  0.16380783  0.82933373  0.82663476  1
  Ni  Ni36  1  0.49718849  0.15978657  0.49581204  1
  Ni  Ni37  1  0.33353437  -0.00318419  0.66249265  1
  Ni  Ni38  1  0.49859391  0.15844900  0.82562617  1
  Cr  Cr39  1  0.49768795  0.49212334  0.49573871  1
  Cr  Cr40  1  0.33213458  0.32549585  0.66252388  1
  Cr  Cr41  1  0.49900800  0.49587641  0.82889465  1
  Cr  Cr42  1  0.49651999  0.83387430  0.49720904  1
  Cr  Cr43  1  0.32861025  0.66392945  0.66335162  1
  Ni  Ni44  1  0.49785056  0.83375534  0.82868197  1
  Cr  Cr45  1  0.82377389  0.16217041  0.49532098  1
  Ni  Ni46  1  0.65973059  -0.00212099  0.66228144  1
  Fe  Fe47  1  0.82510770  0.16308047  0.82876510  1
  Cr  Cr48  1  0.82944216  0.49590274  0.49576350  1
  Ni  Ni49  1  0.66222661  0.32489067  0.66300365  1
  Ni  Ni50  1  0.82875071  0.49378319  0.82817384  1
  Ni  Ni51  1  0.82854203  0.82881962  0.49507138  1
  Cr  Cr52  1  0.66455509  0.66281244  0.66381783  1
  Cr  Cr53  1  0.82626699  0.82869106  0.82946642  1
" 