1362,Ni25Fe53Cr21_9,-228.48559620837, 189.858379887778,Ni25Fe53Cr21,"# generated using pymatgen
 data_Cr13Fe28Ni13
_symmetry_space_group_name_H-M   'P 1'
_cell_length_a   7.45018584
_cell_length_b   7.45018584
_cell_length_c   10.53615386
_cell_angle_alpha   90.00000000
_cell_angle_beta   90.00000000
_cell_angle_gamma   90.00000000
_symmetry_Int_Tables_number   1
_chemical_formula_structural   Cr13Fe28Ni13
_chemical_formula_sum   'Cr13 Fe28 Ni13'
_cell_volume   584.81205447
_cell_formula_units_Z   1
loop_
 _symmetry_equiv_pos_site_id
 _symmetry_equiv_pos_as_xyz
  1  'x, y, z'
loop_
 _atom_site_type_symbol
 _atom_site_label
 _atom_site_symmetry_multiplicity
 _atom_site_fract_x
 _atom_site_fract_y
 _atom_site_fract_z
 _atom_site_occupancy
  Ni  Ni0  1  0.99985174  0.99968525  0.00152747  1
  Cr  Cr1  1  0.16741771  0.16697495  0.16900103  1
  Ni  Ni2  1  1.00051873  1.00019026  0.33585690  1
  Fe  Fe3  1  1.00054339  0.33493842  1.00058328  1
  Fe  Fe4  1  0.16957312  0.50175410  0.16943223  1
  Fe  Fe5  1  0.00186987  0.33297714  0.33511904  1
  Fe  Fe6  1  0.99978193  0.66832655  0.99947620  1
  Fe  Fe7  1  0.16855126  0.83501345  0.16946010  1
  Fe  Fe8  1  0.00218554  0.66947079  0.33529648  1
  Fe  Fe9  1  0.33705281  0.00147501  1.00094844  1
  Ni  Ni10  1  0.50125724  0.16708782  0.16587570  1
  Fe  Fe11  1  0.33479119  1.00103563  0.33512197  1
  Fe  Fe12  1  0.33620358  0.33217654  0.00297498  1
  Fe  Fe13  1  0.50057163  0.49981450  0.16915414  1
  Ni  Ni14  1  0.33552872  0.33790449  0.33392176  1
  Cr  Cr15  1  0.33304052  0.66691075  0.00450914  1
  Ni  Ni16  1  0.50134084  0.83564927  0.16850499  1
  Fe  Fe17  1  0.33558133  0.66980940  0.33395874  1
  Ni  Ni18  1  0.66763705  0.00271019  0.00158537  1
  Fe  Fe19  1  0.83158749  0.16607258  0.16751092  1
  Ni  Ni20  1  0.66834642  1.00060610  0.33268137  1
  Ni  Ni21  1  0.66703880  0.33266246  0.00288150  1
  Cr  Cr22  1  0.83421004  0.50074022  0.16750571  1
  Fe  Fe23  1  0.66584571  0.33352183  0.33276389  1
  Fe  Fe24  1  0.66839109  0.66944228  1.00052874  1
  Cr  Cr25  1  0.83387982  0.83549489  0.16696497  1
  Fe  Fe26  1  0.66572810  0.66858990  0.33582227  1
  Ni  Ni27  1  0.16834521  0.16599778  0.50144367  1
  Cr  Cr28  1  0.00215337  1.00067154  0.66508398  1
  Cr  Cr29  1  0.17065808  0.16761416  0.83252911  1
  Cr  Cr30  1  0.16817617  0.49951725  0.50108144  1
  Ni  Ni31  1  1.00042576  0.33778551  0.66731345  1
  Fe  Fe32  1  0.16458601  0.50089959  0.83412817  1
  Ni  Ni33  1  0.16702108  0.83625633  0.49924433  1
  Fe  Fe34  1  0.99944256  0.66798862  0.66823248  1
  Fe  Fe35  1  0.16709172  0.83414943  0.83475299  1
  Cr  Cr36  1  0.49761107  0.16912067  0.50299567  1
  Ni  Ni37  1  0.33465407  0.99935138  0.66757836  1
  Fe  Fe38  1  0.50080784  0.16667295  0.83615410  1
  Ni  Ni39  1  0.50434868  0.50271991  0.49930961  1
  Fe  Fe40  1  0.33393193  0.33241748  0.66646844  1
  Cr  Cr41  1  0.50287336  0.49973323  0.83449296  1
  Fe  Fe42  1  0.49984170  0.83391910  0.49874209  1
  Cr  Cr43  1  0.33458988  0.66892571  0.66621092  1
  Fe  Fe44  1  0.50141844  0.83737201  0.83629609  1
  Cr  Cr45  1  0.83642807  0.16875498  0.49744889  1
  Cr  Cr46  1  0.66663740  0.99983440  0.66863586  1
  Cr  Cr47  1  0.83407283  0.16839709  0.83799237  1
  Fe  Fe48  1  0.83372385  0.50234870  0.50127622  1
  Fe  Fe49  1  0.66823068  0.33695509  0.66798042  1
  Fe  Fe50  1  0.83632569  0.50181490  0.83488266  1
  Fe  Fe51  1  0.83470451  0.83185755  0.49838646  1
  Fe  Fe52  1  0.67020360  0.66690287  0.66647634  1
  Fe  Fe53  1  0.83447902  0.83209529  0.83700381  1
" 