4422,Ni25Fe53Cr21_8,-228.334100858883, 184.724981837583,Ni25Fe53Cr21,"# generated using pymatgen
 data_Cr13Fe28Ni13
_symmetry_space_group_name_H-M   'P 1'
_cell_length_a   7.45223162
_cell_length_b   7.45223162
_cell_length_c   10.53904702
_cell_angle_alpha   90.00000000
_cell_angle_beta   90.00000000
_cell_angle_gamma   90.00000000
_symmetry_Int_Tables_number   1
_chemical_formula_structural   Cr13Fe28Ni13
_chemical_formula_sum   'Cr13 Fe28 Ni13'
_cell_volume   585.29394467
_cell_formula_units_Z   1
loop_
 _symmetry_equiv_pos_site_id
 _symmetry_equiv_pos_as_xyz
  1  'x, y, z'
loop_
 _atom_site_type_symbol
 _atom_site_label
 _atom_site_symmetry_multiplicity
 _atom_site_fract_x
 _atom_site_fract_y
 _atom_site_fract_z
 _atom_site_occupancy
  Cr  Cr0  1  0.00373730  0.00170139  0.00181056  1
  Fe  Fe1  1  0.16971860  0.17297991  0.16717094  1
  Cr  Cr2  1  0.00189760  0.99851209  0.33169894  1
  Fe  Fe3  1  1.00094535  0.33722491  0.00229309  1
  Ni  Ni4  1  0.16748099  0.50336819  0.16841034  1
  Cr  Cr5  1  1.00030657  0.33592083  0.33327739  1
  Fe  Fe6  1  1.00025411  0.66686610  0.00197059  1
  Fe  Fe7  1  0.16828384  0.82868082  0.16761998  1
  Fe  Fe8  1  0.00361632  0.66627942  0.33444354  1
  Cr  Cr9  1  0.33295865  0.00202990  0.99922952  1
  Cr  Cr10  1  0.50443652  0.16970324  0.17039055  1
  Cr  Cr11  1  0.33271651  1.00041468  0.33555520  1
  Fe  Fe12  1  0.33529879  0.33649332  0.00106572  1
  Ni  Ni13  1  0.49830430  0.50131741  0.16585210  1
  Ni  Ni14  1  0.33650856  0.33791529  0.33447953  1
  Fe  Fe15  1  0.33459102  0.66574491  0.00209890  1
  Cr  Cr16  1  0.50313910  0.83198290  0.16771329  1
  Ni  Ni17  1  0.33411783  0.66548150  0.33447366  1
  Fe  Fe18  1  0.66774893  0.99895388  0.99900229  1
  Fe  Fe19  1  0.83321028  0.17022608  0.16674799  1
  Fe  Fe20  1  0.66722077  0.00167638  0.33633539  1
  Fe  Fe21  1  0.66661677  0.33565653  1.00096102  1
  Fe  Fe22  1  0.83161648  0.50154916  0.16531875  1
  Ni  Ni23  1  0.66614857  0.33804895  0.33409796  1
  Ni  Ni24  1  0.66817145  0.66432487  0.99814631  1
  Fe  Fe25  1  0.83357845  0.83060450  0.16597378  1
  Cr  Cr26  1  0.66727104  0.66430768  0.33705374  1
  Cr  Cr27  1  0.16965472  0.17028861  0.50539612  1
  Fe  Fe28  1  0.00167993  0.99990262  0.66865892  1
  Fe  Fe29  1  0.16959728  0.16869341  0.83090025  1
  Fe  Fe30  1  0.17005375  0.50193097  0.50163457  1
  Ni  Ni31  1  0.00148809  0.33712766  0.66892604  1
  Cr  Cr32  1  0.16824141  0.50249765  0.83320459  1
  Fe  Fe33  1  0.16966300  0.83153894  0.50289711  1
  Fe  Fe34  1  1.00030194  0.66837309  0.66667055  1
  Fe  Fe35  1  0.16816926  0.83486734  0.83170510  1
  Ni  Ni36  1  0.50151683  0.16842285  0.50066369  1
  Ni  Ni37  1  0.33539853  0.99977467  0.66938513  1
  Ni  Ni38  1  0.50119511  0.16660266  0.83308616  1
  Ni  Ni39  1  0.49730034  0.50136235  0.50064138  1
  Ni  Ni40  1  0.33543802  0.33334829  0.66819742  1
  Fe  Fe41  1  0.50142424  0.50033949  0.83521275  1
  Fe  Fe42  1  0.50004446  0.83497874  0.50275259  1
  Fe  Fe43  1  0.33630969  0.66715797  0.66570354  1
  Fe  Fe44  1  0.50208925  0.83342485  0.83376864  1
  Cr  Cr45  1  0.83123081  0.16602484  0.50155529  1
  Ni  Ni46  1  0.66450814  0.99739148  0.66783763  1
  Cr  Cr47  1  0.83338549  0.16702194  0.83295478  1
  Fe  Fe48  1  0.83459951  0.50118329  0.50243441  1
  Cr  Cr49  1  0.66548218  0.33818910  0.66689431  1
  Fe  Fe50  1  0.83337942  0.50231849  0.83485405  1
  Fe  Fe51  1  0.83302987  0.83283035  0.50325667  1
  Fe  Fe52  1  0.66602279  0.66841300  0.66774461  1
  Fe  Fe53  1  0.83258065  0.83170995  0.83355206  1
" 