6634,Ni25Fe53Cr21_1,-228.783888748513, 188.133438368267,Ni25Fe53Cr21,"# generated using pymatgen
 data_Cr13Fe28Ni13
_symmetry_space_group_name_H-M   'P 1'
_cell_length_a   7.45384248
_cell_length_b   7.45384248
_cell_length_c   10.54132513
_cell_angle_alpha   90.00000000
_cell_angle_beta   90.00000000
_cell_angle_gamma   90.00000000
_symmetry_Int_Tables_number   1
_chemical_formula_structural   Cr13Fe28Ni13
_chemical_formula_sum   'Cr13 Fe28 Ni13'
_cell_volume   585.67357623
_cell_formula_units_Z   1
loop_
 _symmetry_equiv_pos_site_id
 _symmetry_equiv_pos_as_xyz
  1  'x, y, z'
loop_
 _atom_site_type_symbol
 _atom_site_label
 _atom_site_symmetry_multiplicity
 _atom_site_fract_x
 _atom_site_fract_y
 _atom_site_fract_z
 _atom_site_occupancy
  Fe  Fe0  1  0.00429484  0.00359576  0.00465771  1
  Fe  Fe1  1  0.16660336  0.16882519  0.16928804  1
  Ni  Ni2  1  0.00094277  0.00334596  0.33439340  1
  Fe  Fe3  1  0.00128490  0.33380689  0.00383691  1
  Fe  Fe4  1  0.16513538  0.50018032  0.16851315  1
  Ni  Ni5  1  0.00294748  0.33326356  0.33383044  1
  Fe  Fe6  1  0.00215735  0.66504955  0.00430925  1
  Fe  Fe7  1  0.16706664  0.83385964  0.16837380  1
  Fe  Fe8  1  1.00068685  0.66677473  0.33343861  1
  Fe  Fe9  1  0.33387549  0.00461939  0.00216412  1
  Fe  Fe10  1  0.50095260  0.16689135  0.16666131  1
  Fe  Fe11  1  0.33214147  0.00486527  0.33296140  1
  Ni  Ni12  1  0.33074262  0.33425576  0.99944456  1
  Cr  Cr13  1  0.50036227  0.49645631  0.16570476  1
  Fe  Fe14  1  0.33248640  0.33267243  0.33461637  1
  Ni  Ni15  1  0.32984505  0.66595663  0.00221973  1
  Fe  Fe16  1  0.49927873  0.83420686  0.16868900  1
  Fe  Fe17  1  0.33063065  0.66422354  0.33362567  1
  Cr  Cr18  1  0.67098709  0.00224762  0.00344512  1
  Fe  Fe19  1  0.83565326  0.17015641  0.16931454  1
  Fe  Fe20  1  0.67136599  0.00349995  0.33279057  1
  Ni  Ni21  1  0.66781049  0.33199681  1.00040163  1
  Ni  Ni22  1  0.83551719  0.50011671  0.16815160  1
  Fe  Fe23  1  0.67008901  0.33191562  0.33394340  1
  Cr  Cr24  1  0.66625195  0.66729229  1.00083963  1
  Ni  Ni25  1  0.83793270  0.83472359  0.16847153  1
  Cr  Cr26  1  0.66722613  0.66776883  0.33500027  1
  Ni  Ni27  1  0.16823418  0.16965938  0.50130594  1
  Fe  Fe28  1  0.00198149  0.00473398  0.66497640  1
  Fe  Fe29  1  0.16677392  0.16972465  0.83328883  1
  Ni  Ni30  1  0.16796707  0.49726763  0.49895192  1
  Fe  Fe31  1  0.00260602  0.33347721  0.66506893  1
  Fe  Fe32  1  0.16839717  0.49874940  0.83483777  1
  Cr  Cr33  1  0.16500493  0.83632413  0.50021930  1
  Fe  Fe34  1  0.00153919  0.66530965  0.66467812  1
  Cr  Cr35  1  0.16661257  0.83622726  0.83403289  1
  Fe  Fe36  1  0.49869142  0.16932253  0.50045450  1
  Ni  Ni37  1  0.33211712  0.00512548  0.66798212  1
  Ni  Ni38  1  0.49870417  0.17231994  0.83497940  1
  Ni  Ni39  1  0.50101949  0.49497010  0.50051287  1
  Fe  Fe40  1  0.33380113  0.33175124  0.66734285  1
  Fe  Fe41  1  0.49782544  0.49788599  0.83652249  1
  Cr  Cr42  1  0.49963493  0.83597992  0.49796020  1
  Cr  Cr43  1  0.33392817  0.66361158  0.66683088  1
  Cr  Cr44  1  0.49783516  0.83745413  0.83634295  1
  Fe  Fe45  1  0.83664220  0.16946680  0.49885500  1
  Cr  Cr46  1  0.66816606  0.00256655  0.66589216  1
  Fe  Fe47  1  0.83526262  0.16825611  0.83455048  1
  Fe  Fe48  1  0.83705336  0.49892518  0.49945335  1
  Fe  Fe49  1  0.66524695  0.33292179  0.66783155  1
  Cr  Cr50  1  0.83557686  0.49777999  0.83542852  1
  Ni  Ni51  1  0.83627849  0.83520075  0.50043648  1
  Cr  Cr52  1  0.66731821  0.66567020  0.66680372  1
  Cr  Cr53  1  0.83934587  0.83458430  0.83320666  1
" 