159,Ni25Fe53Cr21_17,-228.538650761381, 188.0766559467,Ni25Fe53Cr21,"# generated using pymatgen
 data_Cr13Fe28Ni13
_symmetry_space_group_name_H-M   'P 1'
_cell_length_a   7.45365532
_cell_length_b   7.45365532
_cell_length_c   10.54106044
_cell_angle_alpha   90.00000000
_cell_angle_beta   90.00000000
_cell_angle_gamma   90.00000000
_symmetry_Int_Tables_number   1
_chemical_formula_structural   Cr13Fe28Ni13
_chemical_formula_sum   'Cr13 Fe28 Ni13'
_cell_volume   585.62945952
_cell_formula_units_Z   1
loop_
 _symmetry_equiv_pos_site_id
 _symmetry_equiv_pos_as_xyz
  1  'x, y, z'
loop_
 _atom_site_type_symbol
 _atom_site_label
 _atom_site_symmetry_multiplicity
 _atom_site_fract_x
 _atom_site_fract_y
 _atom_site_fract_z
 _atom_site_occupancy
  Fe  Fe0  1  0.99992879  0.00182043  0.00360908  1
  Fe  Fe1  1  0.16755650  0.16812185  0.16722099  1
  Fe  Fe2  1  0.99929810  0.99922175  0.33478143  1
  Ni  Ni3  1  0.00251523  0.33597190  0.00469501  1
  Ni  Ni4  1  0.16674373  0.50171776  0.16734994  1
  Fe  Fe5  1  0.99879182  0.33335733  0.33171622  1
  Cr  Cr6  1  0.99697962  0.66994039  0.00229395  1
  Ni  Ni7  1  0.16761636  0.83369426  0.17071881  1
  Fe  Fe8  1  1.00048616  0.66966510  0.33214573  1
  Cr  Cr9  1  0.33760906  0.00104394  0.00628115  1
  Ni  Ni10  1  0.50343005  0.16780261  0.16808309  1
  Fe  Fe11  1  0.33680786  0.99812599  0.33282001  1
  Ni  Ni12  1  0.33560702  0.33470728  0.00136809  1
  Fe  Fe13  1  0.49960184  0.50151669  0.16764460  1
  Cr  Cr14  1  0.33354615  0.33229050  0.33480573  1
  Fe  Fe15  1  0.33381927  0.66567931  0.00356931  1
  Fe  Fe16  1  0.50141943  0.83295643  0.16986367  1
  Fe  Fe17  1  0.33601954  0.66927223  0.33281292  1
  Fe  Fe18  1  0.66956287  1.00017398  0.00370305  1
  Fe  Fe19  1  0.83544445  0.16684587  0.16796417  1
  Ni  Ni20  1  0.66789707  0.99855589  0.33422774  1
  Fe  Fe21  1  0.66665212  0.33368086  0.00373287  1
  Fe  Fe22  1  0.83327757  0.50032030  0.16894620  1
  Fe  Fe23  1  0.66750899  0.33272977  0.33238649  1
  Fe  Fe24  1  0.66388301  0.66834372  0.00214607  1
  Fe  Fe25  1  0.83350260  0.83579575  0.16954274  1
  Ni  Ni26  1  0.66893447  0.66933289  0.33197522  1
  Fe  Fe27  1  0.16512090  0.16371755  0.49892627  1
  Ni  Ni28  1  0.99957997  0.99824803  0.66588548  1
  Cr  Cr29  1  0.16691862  0.16875715  0.83844743  1
  Fe  Fe30  1  0.16915698  0.50505537  0.49766044  1
  Cr  Cr31  1  0.00363410  0.33429458  0.66512978  1
  Fe  Fe32  1  0.16945691  0.50236315  0.83777947  1
  Fe  Fe33  1  0.16664903  0.83429817  0.49822452  1
  Cr  Cr34  1  0.99824380  0.66987799  0.66753670  1
  Cr  Cr35  1  0.16945814  0.83484553  0.83321429  1
  Fe  Fe36  1  0.50406982  0.16492229  0.49655248  1
  Cr  Cr37  1  0.33761527  0.00240663  0.66445862  1
  Fe  Fe38  1  0.50299590  0.16540313  0.83771720  1
  Fe  Fe39  1  0.50110566  0.50652008  0.49858346  1
  Cr  Cr40  1  0.33530164  0.33499111  0.66792790  1
  Fe  Fe41  1  0.50015344  0.50407557  0.83602735  1
  Ni  Ni42  1  0.50146872  0.83395174  0.49883917  1
  Fe  Fe43  1  0.33649868  0.66839388  0.66602333  1
  Ni  Ni44  1  0.50308487  0.83268370  0.83487242  1
  Fe  Fe45  1  0.83374168  0.16273017  0.49884799  1
  Fe  Fe46  1  0.66895020  0.99730355  0.66557673  1
  Cr  Cr47  1  0.83440519  0.16572948  0.83433664  1
  Cr  Cr48  1  0.83294247  0.50058370  0.49638849  1
  Cr  Cr49  1  0.66386586  0.33390857  0.66434814  1
  Cr  Cr50  1  0.83260578  0.49991720  0.83571824  1
  Ni  Ni51  1  0.83192327  0.83458991  0.50086188  1
  Ni  Ni52  1  0.66571942  0.67066477  0.66829107  1
  Ni  Ni53  1  0.82940599  0.83559422  0.83393229  1
" 