5925,Ni25Cr75_1,-229.931169137591, 148.265434731672,Ni25Cr75,"# generated using pymatgen
 data_Cr13Ni41
_symmetry_space_group_name_H-M   'P 1'
_cell_length_a   7.48197398
_cell_length_b   7.48197398
_cell_length_c   10.58110908
_cell_angle_alpha   90.00000000
_cell_angle_beta   90.00000000
_cell_angle_gamma   90.00000000
_symmetry_Int_Tables_number   1
_chemical_formula_structural   Cr13Ni41
_chemical_formula_sum   'Cr13 Ni41'
_cell_volume   592.32979485
_cell_formula_units_Z   1
loop_
 _symmetry_equiv_pos_site_id
 _symmetry_equiv_pos_as_xyz
  1  'x, y, z'
loop_
 _atom_site_type_symbol
 _atom_site_label
 _atom_site_symmetry_multiplicity
 _atom_site_fract_x
 _atom_site_fract_y
 _atom_site_fract_z
 _atom_site_occupancy
  Ni  Ni0  1  0.99899295  -0.00098905  0.00118835  1
  Ni  Ni1  1  0.16550234  0.16755538  0.16441194  1
  Cr  Cr2  1  0.99792877  0.99791726  0.33148097  1
  Ni  Ni3  1  0.99804407  0.33267192  -0.00032205  1
  Ni  Ni4  1  0.16565090  0.49849701  0.16627267  1
  Ni  Ni5  1  -0.00001528  0.33531352  0.33216258  1
  Ni  Ni6  1  0.00185625  0.66535229  -0.00008327  1
  Ni  Ni7  1  0.16376801  0.83096151  0.16376512  1
  Ni  Ni8  1  -0.00080355  0.66391953  0.33265584  1
  Ni  Ni9  1  0.33222925  -0.00084002  0.99843492  1
  Ni  Ni10  1  0.49794608  0.16823832  0.16324385  1
  Cr  Cr11  1  0.33231458  -0.00054668  0.33347990  1
  Ni  Ni12  1  0.33343063  0.33277953  0.00067293  1
  Ni  Ni13  1  0.49725993  0.49717224  0.16588533  1
  Ni  Ni14  1  0.33076262  0.33442568  0.33027426  1
  Ni  Ni15  1  0.32948740  0.66505307  0.99775437  1
  Cr  Cr16  1  0.49897584  0.83099373  0.16525838  1
  Ni  Ni17  1  0.33037184  0.66364034  0.33263886  1
  Ni  Ni18  1  0.66580202  0.00293392  -0.00078702  1
  Ni  Ni19  1  0.83354707  0.16639728  0.16288874  1
  Cr  Cr20  1  0.66676938  0.99840345  0.33344702  1
  Ni  Ni21  1  0.66551232  0.32987017  0.99843662  1
  Ni  Ni22  1  0.83409239  0.49897025  0.16610063  1
  Cr  Cr23  1  0.66594342  0.33267260  0.33145446  1
  Cr  Cr24  1  0.66567003  0.66349843  -0.00076506  1
  Ni  Ni25  1  0.83484401  0.83165684  0.16544784  1
  Ni  Ni26  1  0.66744281  0.66551304  0.33281024  1
  Cr  Cr27  1  0.16567128  0.16787928  0.49878211  1
  Cr  Cr28  1  -0.00009750  0.99805818  0.66432491  1
  Cr  Cr29  1  0.16508380  0.16541356  0.83385494  1
  Ni  Ni30  1  0.16280875  0.50142644  0.49793757  1
  Ni  Ni31  1  0.99517511  0.33605928  0.66517306  1
  Ni  Ni32  1  0.16492830  0.50151161  0.83281435  1
  Ni  Ni33  1  0.16661491  0.82863264  0.50031069  1
  Ni  Ni34  1  0.00007036  0.66303831  0.66447014  1
  Ni  Ni35  1  0.16876974  0.82984596  0.83293668  1
  Ni  Ni36  1  0.49978696  0.16418362  0.49993523  1
  Ni  Ni37  1  0.33436458  0.99525910  0.66538062  1
  Ni  Ni38  1  0.50060527  0.16558629  0.83383088  1
  Cr  Cr39  1  0.49918671  0.50090448  0.49807237  1
  Cr  Cr40  1  0.33323970  0.33329552  0.66631532  1
  Ni  Ni41  1  0.49916875  0.49916813  0.83247198  1
  Ni  Ni42  1  0.49844048  0.83173160  0.50029131  1
  Ni  Ni43  1  0.33127565  0.66840129  0.66657120  1
  Ni  Ni44  1  0.49545595  0.83223808  0.83145841  1
  Ni  Ni45  1  0.83171786  0.16799177  0.50025130  1
  Cr  Cr46  1  0.66337117  0.00032273  0.66413954  1
  Ni  Ni47  1  0.83046257  0.16940981  0.83382691  1
  Ni  Ni48  1  0.83480592  0.50001400  0.50029032  1
  Ni  Ni49  1  0.66833105  0.33297129  0.66679804  1
  Ni  Ni50  1  0.83288119  0.49629869  0.83060845  1
  Ni  Ni51  1  0.83197315  0.82901319  0.49821431  1
  Ni  Ni52  1  0.66566848  0.66394614  0.66496106  1
  Cr  Cr53  1  0.83304934  0.83150306  0.83390548  1
" 