8648,Ni25Fe15Cr59_5,-215.444864957431, 166.112235823899,Ni25Fe15Cr59,"# generated using pymatgen
 data_Cr33Fe8Ni13
_symmetry_space_group_name_H-M   'P 1'
_cell_length_a   7.53365729
_cell_length_b   7.53365729
_cell_length_c   10.65420032
_cell_angle_alpha   90.00000000
_cell_angle_beta   90.00000000
_cell_angle_gamma   90.00000000
_symmetry_Int_Tables_number   1
_chemical_formula_structural   Cr33Fe8Ni13
_chemical_formula_sum   'Cr33 Fe8 Ni13'
_cell_volume   604.68971023
_cell_formula_units_Z   1
loop_
 _symmetry_equiv_pos_site_id
 _symmetry_equiv_pos_as_xyz
  1  'x, y, z'
loop_
 _atom_site_type_symbol
 _atom_site_label
 _atom_site_symmetry_multiplicity
 _atom_site_fract_x
 _atom_site_fract_y
 _atom_site_fract_z
 _atom_site_occupancy
  Ni  Ni0  1  0.99496440  0.99164347  -0.00399278  1
  Ni  Ni1  1  0.16219736  0.15890000  0.15977746  1
  Fe  Fe2  1  -0.00313237  -0.00269747  0.32533354  1
  Cr  Cr3  1  0.99512546  0.32761111  -0.00312945  1
  Cr  Cr4  1  0.16539982  0.49719895  0.15972759  1
  Cr  Cr5  1  -0.00383156  0.32825376  0.32685471  1
  Cr  Cr6  1  0.99328453  0.66228783  0.99466535  1
  Ni  Ni7  1  0.15982120  0.83219985  0.15943082  1
  Cr  Cr8  1  0.99521980  0.66280432  0.32633338  1
  Cr  Cr9  1  0.33090152  -0.00346220  -0.00372425  1
  Ni  Ni10  1  0.49757878  0.16215915  0.16000405  1
  Cr  Cr11  1  0.32984612  -0.00231647  0.32692212  1
  Ni  Ni12  1  0.33067576  0.32693518  -0.00230505  1
  Cr  Cr13  1  0.49548008  0.49392802  0.16050839  1
  Cr  Cr14  1  0.32823987  0.32407497  0.32751333  1
  Fe  Fe15  1  0.32976035  0.66470255  0.99557113  1
  Cr  Cr16  1  0.49763658  0.82945662  0.16109220  1
  Cr  Cr17  1  0.32757312  0.66544793  0.32768012  1
  Ni  Ni18  1  0.66261582  0.99409248  0.99557904  1
  Cr  Cr19  1  0.82715010  0.15904480  0.16070554  1
  Ni  Ni20  1  0.66269438  -0.00185073  0.32576878  1
  Ni  Ni21  1  0.65968759  0.32774275  -0.00426251  1
  Cr  Cr22  1  0.82570676  0.49477356  0.16071236  1
  Ni  Ni23  1  0.66181230  0.32458878  0.32758943  1
  Fe  Fe24  1  0.66211510  0.66345426  0.99403754  1
  Fe  Fe25  1  0.82950104  0.83156981  0.16041609  1
  Cr  Cr26  1  0.66422078  0.66286071  0.32846401  1
  Ni  Ni27  1  0.16059946  0.16070692  0.49746565  1
  Fe  Fe28  1  0.99382847  0.99450638  0.66462687  1
  Cr  Cr29  1  0.16040646  0.16204910  0.82931385  1
  Cr  Cr30  1  0.16442662  0.49537461  0.49631783  1
  Cr  Cr31  1  0.99422954  0.32979897  0.66285150  1
  Cr  Cr32  1  0.16528479  0.49603641  0.83104895  1
  Cr  Cr33  1  0.15942999  0.83171508  0.49578129  1
  Cr  Cr34  1  0.99297224  0.66255364  0.66530824  1
  Fe  Fe35  1  0.16206478  0.83037670  0.83146573  1
  Cr  Cr36  1  0.49784835  0.16350721  0.49629685  1
  Cr  Cr37  1  0.32890210  -0.00307560  0.66375278  1
  Cr  Cr38  1  0.49718302  0.16337724  0.83082010  1
  Cr  Cr39  1  0.49546249  0.49460654  0.49534675  1
  Fe  Fe40  1  0.33038079  0.32870478  0.66282609  1
  Cr  Cr41  1  0.49471498  0.49544628  0.83131383  1
  Cr  Cr42  1  0.49688242  0.82944856  0.49395980  1
  Cr  Cr43  1  0.32969435  0.66731984  0.66341733  1
  Ni  Ni44  1  0.49851288  0.82721313  0.83231270  1
  Cr  Cr45  1  0.82987971  0.16003950  0.49509440  1
  Cr  Cr46  1  0.65998997  0.99402390  0.66472663  1
  Cr  Cr47  1  0.82837438  0.15957200  0.83049619  1
  Cr  Cr48  1  0.82713829  0.49375488  0.49499485  1
  Ni  Ni49  1  0.66300967  0.32878652  0.66358780  1
  Fe  Fe50  1  0.82568509  0.49446618  0.83124415  1
  Cr  Cr51  1  0.82969952  0.83328825  0.49203597  1
  Cr  Cr52  1  0.66416640  0.66249765  0.66488343  1
  Ni  Ni53  1  0.82826499  0.82977775  0.83271394  1
" 