8129,Ni25Fe53Cr21_7,-228.684892555396, 188.554343985161,Ni25Fe53Cr21,"# generated using pymatgen
 data_Cr13Fe28Ni13
_symmetry_space_group_name_H-M   'P 1'
_cell_length_a   7.45631402
_cell_length_b   7.45631402
_cell_length_c   10.54482041
_cell_angle_alpha   90.00000000
_cell_angle_beta   90.00000000
_cell_angle_gamma   90.00000000
_symmetry_Int_Tables_number   1
_chemical_formula_structural   Cr13Fe28Ni13
_chemical_formula_sum   'Cr13 Fe28 Ni13'
_cell_volume   586.25636081
_cell_formula_units_Z   1
loop_
 _symmetry_equiv_pos_site_id
 _symmetry_equiv_pos_as_xyz
  1  'x, y, z'
loop_
 _atom_site_type_symbol
 _atom_site_label
 _atom_site_symmetry_multiplicity
 _atom_site_fract_x
 _atom_site_fract_y
 _atom_site_fract_z
 _atom_site_occupancy
  Cr  Cr0  1  1.00064999  0.99639889  0.99568819  1
  Cr  Cr1  1  0.16740763  0.16713720  0.16483729  1
  Fe  Fe2  1  0.00201061  0.99918210  0.33487616  1
  Fe  Fe3  1  0.99894855  0.33662204  0.99895370  1
  Ni  Ni4  1  0.16916205  0.50321121  0.16671121  1
  Cr  Cr5  1  1.00004460  0.33815006  0.33419458  1
  Ni  Ni6  1  0.00102382  0.66477349  0.00132885  1
  Fe  Fe7  1  0.16808962  0.83041990  0.16794852  1
  Fe  Fe8  1  0.00103438  0.66685919  0.33428393  1
  Cr  Cr9  1  0.33675208  0.99699663  0.99735842  1
  Fe  Fe10  1  0.50226780  0.16626449  0.16668883  1
  Fe  Fe11  1  0.33579666  0.99821488  0.33440425  1
  Cr  Cr12  1  0.33490671  0.33521570  0.99892105  1
  Cr  Cr13  1  0.50225345  0.50391379  0.16508999  1
  Cr  Cr14  1  0.33479992  0.33514849  0.33499196  1
  Ni  Ni15  1  0.33126026  0.66784363  1.00016166  1
  Fe  Fe16  1  0.49915588  0.83436074  0.16791792  1
  Fe  Fe17  1  0.33473558  0.66776875  0.33521092  1
  Ni  Ni18  1  0.66707661  0.00185483  0.99985315  1
  Cr  Cr19  1  0.83433754  0.16540557  0.16717933  1
  Fe  Fe20  1  0.66392624  0.99980331  0.33525707  1
  Ni  Ni21  1  0.66962081  0.33333750  0.99874063  1
  Fe  Fe22  1  0.83485697  0.50179960  0.16634149  1
  Cr  Cr23  1  0.66736234  0.33526435  0.33669676  1
  Fe  Fe24  1  0.66663955  0.66823350  0.99772640  1
  Cr  Cr25  1  0.83159528  0.83251360  0.16707613  1
  Ni  Ni26  1  0.66694437  0.66857567  0.33612014  1
  Cr  Cr27  1  0.16661110  0.16503322  0.50460523  1
  Fe  Fe28  1  0.00217675  0.99704809  0.67115483  1
  Fe  Fe29  1  0.16754055  0.16909212  0.83040659  1
  Fe  Fe30  1  0.16621325  0.50343221  0.50201358  1
  Fe  Fe31  1  0.99884643  0.33715699  0.66783969  1
  Fe  Fe32  1  0.16535944  0.50348082  0.83372550  1
  Fe  Fe33  1  0.16916195  0.82999421  0.50167232  1
  Ni  Ni34  1  0.00131706  0.66638906  0.66683273  1
  Fe  Fe35  1  0.16703650  0.82846378  0.83170038  1
  Fe  Fe36  1  0.50133369  0.16811781  0.50306852  1
  Fe  Fe37  1  0.33318696  0.99690734  0.66969680  1
  Fe  Fe38  1  0.50499635  0.16947554  0.83344742  1
  Ni  Ni39  1  0.49975670  0.50234350  0.50323741  1
  Fe  Fe40  1  0.33514996  0.33729831  0.66856412  1
  Ni  Ni41  1  0.49870181  0.50312809  0.83343490  1
  Fe  Fe42  1  0.49881177  0.83149376  0.50095949  1
  Ni  Ni43  1  0.33272825  0.66662792  0.66674256  1
  Fe  Fe44  1  0.50273538  0.83065950  0.83342872  1
  Fe  Fe45  1  0.83337341  0.17056452  0.50350982  1
  Cr  Cr46  1  0.66712924  0.00148341  0.66789525  1
  Ni  Ni47  1  0.83623407  0.16699925  0.83278269  1
  Ni  Ni48  1  0.83121626  0.50359984  0.50261869  1
  Fe  Fe49  1  0.66745129  0.33882841  0.66898867  1
  Fe  Fe50  1  0.83300896  0.50201105  0.83328614  1
  Cr  Cr51  1  0.83555311  0.83479934  0.50105165  1
  Fe  Fe52  1  0.66687990  0.66648809  0.66781734  1
  Ni  Ni53  1  0.83369786  0.83268199  0.83382774  1
" 