3220,Ni25Fe15Cr59_10,-215.489248535182, 160.744639639079,Ni25Fe15Cr59,"# generated using pymatgen
 data_Cr33Fe8Ni13
_symmetry_space_group_name_H-M   'P 1'
_cell_length_a   7.53854726
_cell_length_b   7.53854726
_cell_length_c   10.66111578
_cell_angle_alpha   90.00000000
_cell_angle_beta   90.00000000
_cell_angle_gamma   90.00000000
_symmetry_Int_Tables_number   1
_chemical_formula_structural   Cr33Fe8Ni13
_chemical_formula_sum   'Cr33 Fe8 Ni13'
_cell_volume   605.86795580
_cell_formula_units_Z   1
loop_
 _symmetry_equiv_pos_site_id
 _symmetry_equiv_pos_as_xyz
  1  'x, y, z'
loop_
 _atom_site_type_symbol
 _atom_site_label
 _atom_site_symmetry_multiplicity
 _atom_site_fract_x
 _atom_site_fract_y
 _atom_site_fract_z
 _atom_site_occupancy
  Cr  Cr0  1  0.99461955  -0.00466357  -0.00433947  1
  Ni  Ni1  1  0.16259363  0.16256276  0.16410326  1
  Cr  Cr2  1  -0.00277297  -0.00321276  0.32957279  1
  Ni  Ni3  1  0.99309532  0.32699994  -0.00346881  1
  Cr  Cr4  1  0.16122272  0.49264622  0.16011896  1
  Ni  Ni5  1  -0.00106324  0.32413601  0.32737274  1
  Fe  Fe6  1  0.99300821  0.66111539  0.99300873  1
  Cr  Cr7  1  0.16260893  0.82986994  0.16052883  1
  Cr  Cr8  1  0.99484812  0.66394431  0.32912256  1
  Cr  Cr9  1  0.32898655  -0.00372874  -0.00338065  1
  Ni  Ni10  1  0.49427210  0.15878722  0.16041754  1
  Fe  Fe11  1  0.32857649  -0.00157788  0.32808364  1
  Cr  Cr12  1  0.33026241  0.32690976  0.99515223  1
  Cr  Cr13  1  0.49344902  0.49647771  0.16468884  1
  Ni  Ni14  1  0.32728229  0.32489630  0.32751728  1
  Cr  Cr15  1  0.32705420  0.66357178  0.99411953  1
  Fe  Fe16  1  0.49609202  0.83167424  0.16161899  1
  Cr  Cr17  1  0.32878917  0.66551169  0.32975092  1
  Ni  Ni18  1  0.66218074  -0.00434175  0.99502851  1
  Ni  Ni19  1  0.82945181  0.16111814  0.16072719  1
  Cr  Cr20  1  0.66126302  -0.00374734  0.32595375  1
  Cr  Cr21  1  0.66287979  0.32594222  -0.00340435  1
  Cr  Cr22  1  0.83083500  0.49522828  0.16396698  1
  Cr  Cr23  1  0.66237295  0.32770340  0.32495590  1
  Cr  Cr24  1  0.66240264  0.66080785  -0.00428014  1
  Cr  Cr25  1  0.82662742  0.82994236  0.15961336  1
  Ni  Ni26  1  0.65869808  0.66571433  0.32973706  1
  Ni  Ni27  1  0.16369973  0.16035487  0.49321946  1
  Cr  Cr28  1  -0.00325353  0.99413951  0.65989638  1
  Cr  Cr29  1  0.16086201  0.16165397  0.82799548  1
  Cr  Cr30  1  0.16171613  0.49101141  0.49389431  1
  Ni  Ni31  1  0.99375759  0.32832905  0.66102328  1
  Cr  Cr32  1  0.15898826  0.49422137  0.83161474  1
  Ni  Ni33  1  0.16411103  0.83150521  0.49471480  1
  Cr  Cr34  1  -0.00403498  0.66307200  0.66464215  1
  Ni  Ni35  1  0.16108164  0.82896761  0.83002224  1
  Cr  Cr36  1  0.49438777  0.16095553  0.49709829  1
  Cr  Cr37  1  0.32668543  0.99422269  0.66082836  1
  Fe  Fe38  1  0.49597207  0.15990935  0.82955480  1
  Cr  Cr39  1  0.49605655  0.49657154  0.49443663  1
  Cr  Cr40  1  0.32808727  0.32763775  0.66346416  1
  Cr  Cr41  1  0.49601125  0.49565813  0.82747335  1
  Fe  Fe42  1  0.49448163  0.83028579  0.49501706  1
  Cr  Cr43  1  0.32733516  0.66380765  0.66118938  1
  Cr  Cr44  1  0.49710712  0.83154719  0.82799214  1
  Cr  Cr45  1  0.83114272  0.16259824  0.49546166  1
  Fe  Fe46  1  0.66224986  0.99480903  0.66318230  1
  Cr  Cr47  1  0.82795844  0.16029279  0.82798113  1
  Cr  Cr48  1  0.82855672  0.49510665  0.49361394  1
  Cr  Cr49  1  0.66316972  0.32909030  0.66481914  1
  Ni  Ni50  1  0.82981266  0.49526870  0.82896233  1
  Cr  Cr51  1  0.82518613  0.82896247  0.49702637  1
  Fe  Fe52  1  0.66367064  0.66223851  0.66281692  1
  Fe  Fe53  1  0.82948242  0.82741234  0.82969048  1
" 