6398,Ni25Fe15Cr59_11,-215.717462917013, 163.956871908442,Ni25Fe15Cr59,"# generated using pymatgen
 data_Cr33Fe8Ni13
_symmetry_space_group_name_H-M   'P 1'
_cell_length_a   7.53803789
_cell_length_b   7.53803789
_cell_length_c   10.66039542
_cell_angle_alpha   90.00000000
_cell_angle_beta   90.00000000
_cell_angle_gamma   90.00000000
_symmetry_Int_Tables_number   1
_chemical_formula_structural   Cr33Fe8Ni13
_chemical_formula_sum   'Cr33 Fe8 Ni13'
_cell_volume   605.74515165
_cell_formula_units_Z   1
loop_
 _symmetry_equiv_pos_site_id
 _symmetry_equiv_pos_as_xyz
  1  'x, y, z'
loop_
 _atom_site_type_symbol
 _atom_site_label
 _atom_site_symmetry_multiplicity
 _atom_site_fract_x
 _atom_site_fract_y
 _atom_site_fract_z
 _atom_site_occupancy
  Cr  Cr0  1  -0.00418793  -0.00289951  -0.00281532  1
  Ni  Ni1  1  0.15868440  0.16526895  0.16090086  1
  Cr  Cr2  1  0.99492598  -0.00448919  0.32779064  1
  Ni  Ni3  1  -0.00312524  0.32884509  -0.00216778  1
  Ni  Ni4  1  0.16121701  0.49308055  0.16187178  1
  Cr  Cr5  1  -0.00466290  0.32871573  0.32753578  1
  Cr  Cr6  1  0.99479899  0.66011349  -0.00310980  1
  Fe  Fe7  1  0.16128804  0.82869975  0.16279428  1
  Cr  Cr8  1  -0.00429715  0.66199128  0.32823037  1
  Cr  Cr9  1  0.32718717  -0.00185027  -0.00302292  1
  Fe  Fe10  1  0.49671037  0.16305542  0.16377303  1
  Cr  Cr11  1  0.32629081  -0.00282316  0.32776103  1
  Cr  Cr12  1  0.32604297  0.32807870  0.99501860  1
  Cr  Cr13  1  0.49497753  0.49537165  0.16374011  1
  Cr  Cr14  1  0.32786609  0.32798548  0.32880317  1
  Cr  Cr15  1  0.32709586  0.66049576  -0.00211534  1
  Cr  Cr16  1  0.49384907  0.82914197  0.16387389  1
  Ni  Ni17  1  0.32549946  0.66265063  0.32615677  1
  Cr  Cr18  1  0.66273579  0.99499328  -0.00397265  1
  Ni  Ni19  1  0.82911419  0.16495985  0.16210842  1
  Ni  Ni20  1  0.66193092  -0.00197409  0.32866693  1
  Fe  Fe21  1  0.66432855  0.32825638  -0.00111506  1
  Fe  Fe22  1  0.82975495  0.49198910  0.16225919  1
  Ni  Ni23  1  0.66259547  0.32538742  0.32720291  1
  Cr  Cr24  1  0.66427118  0.66186681  0.99192013  1
  Cr  Cr25  1  0.82769959  0.83248814  0.16263099  1
  Cr  Cr26  1  0.66442961  0.66144831  0.33126891  1
  Fe  Fe27  1  0.16232458  0.16043469  0.49462042  1
  Cr  Cr28  1  -0.00398819  0.99473236  0.66087107  1
  Fe  Fe29  1  0.15998568  0.16334894  0.82989935  1
  Cr  Cr30  1  0.16122094  0.49740960  0.49527767  1
  Cr  Cr31  1  -0.00253838  0.32958490  0.66124195  1
  Ni  Ni32  1  0.15915675  0.49415494  0.82947430  1
  Fe  Fe33  1  0.16077587  0.82815511  0.49537499  1
  Ni  Ni34  1  -0.00442701  0.66319938  0.66132806  1
  Cr  Cr35  1  0.16128107  0.82769923  0.82818911  1
  Ni  Ni36  1  0.49445949  0.15938526  0.49221861  1
  Fe  Fe37  1  0.32732836  -0.00440675  0.65978545  1
  Cr  Cr38  1  0.49615687  0.16164386  0.82865224  1
  Cr  Cr39  1  0.49514572  0.49381844  0.49293297  1
  Cr  Cr40  1  0.32705705  0.32412396  0.66199986  1
  Cr  Cr41  1  0.49323465  0.49426675  0.82936089  1
  Cr  Cr42  1  0.49325409  0.82967793  0.49379176  1
  Cr  Cr43  1  0.32784140  0.65977399  0.66278200  1
  Cr  Cr44  1  0.49451213  0.82956092  0.82863110  1
  Cr  Cr45  1  0.82754733  0.16262977  0.49240634  1
  Cr  Cr46  1  0.66244371  0.99416620  0.66141366  1
  Cr  Cr47  1  0.83063084  0.16210823  0.83191785  1
  Ni  Ni48  1  0.83135500  0.49670267  0.49402242  1
  Cr  Cr49  1  0.66089400  0.32922880  0.65869207  1
  Cr  Cr50  1  0.83224850  0.49262417  0.82910039  1
  Ni  Ni51  1  0.83084970  0.82905527  0.49591407  1
  Cr  Cr52  1  0.66737804  0.66273413  0.66267459  1
  Ni  Ni53  1  0.83257558  0.82906431  0.82716247  1
" 