8252,Ni25Cr75_18,-230.028205250179, 152.199545961183,Ni25Cr75,"# generated using pymatgen
 data_Cr13Ni41
_symmetry_space_group_name_H-M   'P 1'
_cell_length_a   7.47860135
_cell_length_b   7.47860135
_cell_length_c   10.57633946
_cell_angle_alpha   90.00000000
_cell_angle_beta   90.00000000
_cell_angle_gamma   90.00000000
_symmetry_Int_Tables_number   1
_chemical_formula_structural   Cr13Ni41
_chemical_formula_sum   'Cr13 Ni41'
_cell_volume   591.52914659
_cell_formula_units_Z   1
loop_
 _symmetry_equiv_pos_site_id
 _symmetry_equiv_pos_as_xyz
  1  'x, y, z'
loop_
 _atom_site_type_symbol
 _atom_site_label
 _atom_site_symmetry_multiplicity
 _atom_site_fract_x
 _atom_site_fract_y
 _atom_site_fract_z
 _atom_site_occupancy
  Ni  Ni0  1  -0.00043804  0.00002290  0.00163047  1
  Ni  Ni1  1  0.16490794  0.16253697  0.16516926  1
  Ni  Ni2  1  0.00058773  0.99887446  0.33096128  1
  Ni  Ni3  1  0.99758305  0.33285648  0.00007632  1
  Ni  Ni4  1  0.16474622  0.50197053  0.16464426  1
  Cr  Cr5  1  0.99814683  0.33293919  0.33340885  1
  Ni  Ni6  1  0.00019406  0.66480343  0.00182992  1
  Ni  Ni7  1  0.16560790  0.83317450  0.16583099  1
  Ni  Ni8  1  0.99916801  0.66595032  0.33076269  1
  Ni  Ni9  1  0.33260385  0.99756953  0.00099065  1
  Ni  Ni10  1  0.49906491  0.16593239  0.16583093  1
  Ni  Ni11  1  0.33200070  0.99817126  0.33166210  1
  Cr  Cr12  1  0.33315300  0.33355981  -0.00040371  1
  Ni  Ni13  1  0.50143653  0.50078510  0.16583054  1
  Cr  Cr14  1  0.33381818  0.33254250  0.33298815  1
  Ni  Ni15  1  0.33283824  0.66639124  -0.00058776  1
  Ni  Ni16  1  0.49718113  0.83096406  0.16576754  1
  Ni  Ni17  1  0.33325864  0.66681365  0.33198859  1
  Cr  Cr18  1  0.66512133  0.00009498  0.99897215  1
  Ni  Ni19  1  0.83371055  0.16679440  0.16464422  1
  Cr  Cr20  1  0.66509660  0.00006765  0.33219354  1
  Ni  Ni21  1  0.66710192  0.33309046  0.00032696  1
  Ni  Ni22  1  0.83150005  0.50008553  0.16517044  1
  Ni  Ni23  1  0.66595851  0.33411753  0.33226198  1
  Ni  Ni24  1  0.66464959  0.66441045  0.00050458  1
  Ni  Ni25  1  0.83489325  0.83080267  0.16583058  1
  Ni  Ni26  1  0.66525571  0.66380874  0.33215007  1
  Ni  Ni27  1  0.16567915  0.16593094  0.50126591  1
  Ni  Ni28  1  0.99801349  0.00358490  0.66509022  1
  Cr  Cr29  1  0.16501101  0.16629389  0.83149292  1
  Ni  Ni30  1  0.16654703  0.49799860  0.50098732  1
  Ni  Ni31  1  0.00127424  0.33069930  0.66443046  1
  Ni  Ni32  1  0.16770094  0.49914449  0.83205155  1
  Cr  Cr33  1  0.16789237  0.83398672  0.49804380  1
  Cr  Cr34  1  0.00023537  0.66325098  0.66509088  1
  Cr  Cr35  1  0.16792561  0.83232608  0.83357000  1
  Ni  Ni36  1  0.49826653  0.16553048  0.50021406  1
  Ni  Ni37  1  0.33534996  0.00009157  0.66503019  1
  Ni  Ni38  1  0.50001739  0.16510842  0.83163731  1
  Ni  Ni39  1  0.49961593  0.50061444  0.49941702  1
  Ni  Ni40  1  0.33122520  0.33332484  0.66509598  1
  Ni  Ni41  1  0.49786240  0.50103677  0.83243433  1
  Ni  Ni42  1  0.49842629  0.83153750  0.50082994  1
  Ni  Ni43  1  0.33559610  0.66426616  0.66628123  1
  Ni  Ni44  1  0.49842531  0.83153723  0.83108490  1
  Ni  Ni45  1  0.83373790  0.16712143  0.50076739  1
  Ni  Ni46  1  0.66431851  0.99920930  0.66628157  1
  Ni  Ni47  1  0.83258614  0.16597140  0.83227110  1
  Ni  Ni48  1  0.83151976  0.49815568  0.49818897  1
  Cr  Cr49  1  0.66534109  0.33111481  0.66509807  1
  Cr  Cr50  1  0.83219232  0.49779467  0.83455581  1
  Cr  Cr51  1  0.83136066  0.83216754  0.49951719  1
  Ni  Ni52  1  0.66169145  0.66752549  0.66502814  1
  Cr  Cr53  1  0.83132899  0.83383318  0.83209568  1
" 