2079,Ni25Fe15Cr59_18,-215.249139625785, 162.259530282835,Ni25Fe15Cr59,"# generated using pymatgen
 data_Cr33Fe8Ni13
_symmetry_space_group_name_H-M   'P 1'
_cell_length_a   7.54154161
_cell_length_b   7.54154161
_cell_length_c   10.66535042
_cell_angle_alpha   90.00000000
_cell_angle_beta   90.00000000
_cell_angle_gamma   90.00000000
_symmetry_Int_Tables_number   1
_chemical_formula_structural   Cr33Fe8Ni13
_chemical_formula_sum   'Cr33 Fe8 Ni13'
_cell_volume   606.59020304
_cell_formula_units_Z   1
loop_
 _symmetry_equiv_pos_site_id
 _symmetry_equiv_pos_as_xyz
  1  'x, y, z'
loop_
 _atom_site_type_symbol
 _atom_site_label
 _atom_site_symmetry_multiplicity
 _atom_site_fract_x
 _atom_site_fract_y
 _atom_site_fract_z
 _atom_site_occupancy
  Ni  Ni0  1  0.99227756  -0.00175356  -0.00486603  1
  Ni  Ni1  1  0.16285603  0.16101630  0.15756983  1
  Cr  Cr2  1  -0.00380965  -0.00286802  0.32647962  1
  Ni  Ni3  1  0.99370264  0.32911355  0.99408528  1
  Cr  Cr4  1  0.16162025  0.49349415  0.15911702  1
  Cr  Cr5  1  0.99475349  0.32751004  0.32974674  1
  Cr  Cr6  1  0.99495553  0.66157705  0.99264484  1
  Cr  Cr7  1  0.16231493  0.83073376  0.16470885  1
  Cr  Cr8  1  -0.00307283  0.66090594  0.32694921  1
  Cr  Cr9  1  0.33071873  0.99402852  -0.00159893  1
  Ni  Ni10  1  0.49552605  0.16196627  0.15947280  1
  Ni  Ni11  1  0.33121508  0.99489224  0.32518428  1
  Fe  Fe12  1  0.32684726  0.32544688  -0.00410601  1
  Cr  Cr13  1  0.49748748  0.49333285  0.16267464  1
  Cr  Cr14  1  0.32668369  0.32592302  0.32478298  1
  Cr  Cr15  1  0.32882867  0.65955607  0.99330256  1
  Cr  Cr16  1  0.49732230  0.82703512  0.16265384  1
  Ni  Ni17  1  0.33065017  0.66288630  0.32782701  1
  Ni  Ni18  1  0.66248041  -0.00368500  0.99362711  1
  Cr  Cr19  1  0.82883638  0.16307705  0.15944111  1
  Cr  Cr20  1  0.66096893  -0.00346326  0.32921657  1
  Fe  Fe21  1  0.66316476  0.32731830  -0.00471199  1
  Cr  Cr22  1  0.82521347  0.49497864  0.16153590  1
  Ni  Ni23  1  0.65986155  0.32597309  0.32690530  1
  Fe  Fe24  1  0.66327602  0.66398663  0.99242353  1
  Cr  Cr25  1  0.82845392  0.82869382  0.15784799  1
  Fe  Fe26  1  0.66104397  0.66226950  0.32795328  1
  Cr  Cr27  1  0.16198452  0.15649307  0.49827513  1
  Ni  Ni28  1  0.99421149  0.99247723  0.66238731  1
  Cr  Cr29  1  0.16034165  0.15937918  0.82973009  1
  Cr  Cr30  1  0.16331246  0.50036633  0.49901115  1
  Cr  Cr31  1  0.99332784  0.33061385  0.66027651  1
  Fe  Fe32  1  0.15882335  0.49411124  0.82848174  1
  Cr  Cr33  1  0.16334913  0.82918033  0.49590784  1
  Ni  Ni34  1  -0.00481249  0.66250839  0.66627585  1
  Cr  Cr35  1  0.16047883  0.83023628  0.82544539  1
  Cr  Cr36  1  0.49344036  0.16176130  0.49585327  1
  Ni  Ni37  1  0.32819037  0.99131765  0.66377387  1
  Cr  Cr38  1  0.49488497  0.16058477  0.83019020  1
  Cr  Cr39  1  0.49445797  0.49610966  0.49136340  1
  Cr  Cr40  1  0.32769764  0.32995725  0.66523443  1
  Cr  Cr41  1  0.49694734  0.49396383  0.83035901  1
  Cr  Cr42  1  0.49144805  0.82699239  0.49568323  1
  Ni  Ni43  1  0.32720393  0.66426427  0.66557492  1
  Fe  Fe44  1  0.49577853  0.82883172  0.82951899  1
  Fe  Fe45  1  0.82832385  0.16045313  0.49497802  1
  Cr  Cr46  1  0.66134320  0.99458183  0.66291432  1
  Cr  Cr47  1  0.82947663  0.16337059  0.82829303  1
  Cr  Cr48  1  0.82548016  0.49520765  0.49177801  1
  Cr  Cr49  1  0.66235633  0.32836623  0.65888861  1
  Ni  Ni50  1  0.82854088  0.49728827  0.83046137  1
  Cr  Cr51  1  0.83177317  0.82772963  0.49624646  1
  Cr  Cr52  1  0.66216368  0.66280434  0.66538413  1
  Fe  Fe53  1  0.82859818  0.83040316  0.83014522  1
" 