1825,Ni25Fe53Cr21_4,-228.393123168592, 189.458409944805,Ni25Fe53Cr21,"# generated using pymatgen
 data_Cr13Fe28Ni13
_symmetry_space_group_name_H-M   'P 1'
_cell_length_a   7.45302467
_cell_length_b   7.45302467
_cell_length_c   10.54016857
_cell_angle_alpha   90.00000000
_cell_angle_beta   90.00000000
_cell_angle_gamma   90.00000000
_symmetry_Int_Tables_number   1
_chemical_formula_structural   Cr13Fe28Ni13
_chemical_formula_sum   'Cr13 Fe28 Ni13'
_cell_volume   585.48082334
_cell_formula_units_Z   1
loop_
 _symmetry_equiv_pos_site_id
 _symmetry_equiv_pos_as_xyz
  1  'x, y, z'
loop_
 _atom_site_type_symbol
 _atom_site_label
 _atom_site_symmetry_multiplicity
 _atom_site_fract_x
 _atom_site_fract_y
 _atom_site_fract_z
 _atom_site_occupancy
  Fe  Fe0  1  1.00043301  0.00121246  1.00050955  1
  Fe  Fe1  1  0.16568882  0.16864857  0.16921241  1
  Ni  Ni2  1  0.99913472  0.00150638  0.33497772  1
  Fe  Fe3  1  0.99936725  0.33452768  0.00301670  1
  Ni  Ni4  1  0.16410470  0.49935469  0.16818360  1
  Ni  Ni5  1  1.00036861  0.33419207  0.33316028  1
  Fe  Fe6  1  1.00068397  0.66615062  1.00026839  1
  Cr  Cr7  1  0.16711717  0.83615347  0.16843249  1
  Fe  Fe8  1  0.99955248  0.66507623  0.33588937  1
  Fe  Fe9  1  0.33516452  0.00143105  0.99902868  1
  Fe  Fe10  1  0.50120546  0.16687541  0.16779624  1
  Fe  Fe11  1  0.33407288  0.00345476  0.33602823  1
  Cr  Cr12  1  0.33382812  0.33487128  0.00228846  1
  Cr  Cr13  1  0.50381630  0.50126689  0.16773459  1
  Fe  Fe14  1  0.33233826  0.33386406  0.33512517  1
  Cr  Cr15  1  0.33294527  0.66817769  0.99675761  1
  Cr  Cr16  1  0.50203154  0.83658614  0.16872418  1
  Cr  Cr17  1  0.33361761  0.66597592  0.33757043  1
  Fe  Fe18  1  0.66753221  0.00263665  0.99886376  1
  Fe  Fe19  1  0.83608050  0.16802235  0.16735270  1
  Fe  Fe20  1  0.66953853  0.00145176  0.33693565  1
  Fe  Fe21  1  0.66946167  0.33240627  1.00051587  1
  Ni  Ni22  1  0.83586104  0.50014264  0.16752033  1
  Cr  Cr23  1  0.66944943  0.33426684  0.33506703  1
  Fe  Fe24  1  0.66886668  0.66722323  0.99939407  1
  Cr  Cr25  1  0.83390914  0.83188764  0.16762270  1
  Fe  Fe26  1  0.67125877  0.66727562  0.33739053  1
  Cr  Cr27  1  0.16655603  0.16748339  0.50025556  1
  Fe  Fe28  1  0.99745334  0.99851745  0.66658903  1
  Cr  Cr29  1  0.16623520  0.16696743  0.83285929  1
  Ni  Ni30  1  0.16536656  0.50215990  0.50209502  1
  Fe  Fe31  1  0.99766393  0.33496797  0.66569160  1
  Fe  Fe32  1  0.16621348  0.50172666  0.83265308  1
  Ni  Ni33  1  0.16425332  0.83371792  0.50114837  1
  Fe  Fe34  1  1.00064099  0.66904517  0.66708846  1
  Ni  Ni35  1  0.16504327  0.83394477  0.83349645  1
  Ni  Ni36  1  0.50364137  0.16757553  0.50028122  1
  Cr  Cr37  1  0.33546256  0.99826857  0.66749812  1
  Ni  Ni38  1  0.50332688  0.16755771  0.83495675  1
  Ni  Ni39  1  0.50371972  0.50047406  0.50300738  1
  Cr  Cr40  1  0.33563646  0.33682319  0.66649935  1
  Fe  Fe41  1  0.50186351  0.50110957  0.83205222  1
  Fe  Fe42  1  0.50168801  0.83403041  0.50133115  1
  Fe  Fe43  1  0.33536276  0.66848822  0.66684111  1
  Fe  Fe44  1  0.50363399  0.83499847  0.83348032  1
  Fe  Fe45  1  0.83457278  0.16782879  0.50162227  1
  Ni  Ni46  1  0.66973220  0.00118898  0.66698210  1
  Fe  Fe47  1  0.83313407  0.16558089  0.83355932  1
  Fe  Fe48  1  0.83521521  0.50064180  0.50194704  1
  Ni  Ni49  1  0.66847141  0.33297306  0.66805046  1
  Cr  Cr50  1  0.83300681  0.50065581  0.83392484  1
  Fe  Fe51  1  0.83391565  0.83429834  0.50100156  1
  Ni  Ni52  1  0.66769661  0.66867330  0.66676468  1
  Fe  Fe53  1  0.83386596  0.83646498  0.83375726  1
" 