8472,Ni25Cr75_14,-229.921310646114, 151.472588462118,Ni25Cr75,"# generated using pymatgen
 data_Cr13Ni41
_symmetry_space_group_name_H-M   'P 1'
_cell_length_a   7.47914755
_cell_length_b   7.47914755
_cell_length_c   10.57711190
_cell_angle_alpha   90.00000000
_cell_angle_beta   90.00000000
_cell_angle_gamma   90.00000000
_symmetry_Int_Tables_number   1
_chemical_formula_structural   Cr13Ni41
_chemical_formula_sum   'Cr13 Ni41'
_cell_volume   591.65876227
_cell_formula_units_Z   1
loop_
 _symmetry_equiv_pos_site_id
 _symmetry_equiv_pos_as_xyz
  1  'x, y, z'
loop_
 _atom_site_type_symbol
 _atom_site_label
 _atom_site_symmetry_multiplicity
 _atom_site_fract_x
 _atom_site_fract_y
 _atom_site_fract_z
 _atom_site_occupancy
  Ni  Ni0  1  0.00037757  0.99687211  0.99847456  1
  Cr  Cr1  1  0.16627678  0.16478674  0.16593068  1
  Ni  Ni2  1  -0.00064316  0.99761223  0.33281708  1
  Ni  Ni3  1  0.99916002  0.33454748  0.99785730  1
  Cr  Cr4  1  0.16556134  0.49980813  0.16486498  1
  Ni  Ni5  1  0.99813960  0.33357934  0.33320333  1
  Ni  Ni6  1  0.00006692  0.66615457  0.99816738  1
  Ni  Ni7  1  0.16677595  0.83347417  0.16527258  1
  Cr  Cr8  1  0.99855665  0.66662229  0.33338922  1
  Ni  Ni9  1  0.33313944  0.99880707  0.99853987  1
  Ni  Ni10  1  0.49979193  0.16372565  0.16608889  1
  Ni  Ni11  1  0.33354713  0.99880533  0.33154252  1
  Ni  Ni12  1  0.33314397  0.33139743  0.99610472  1
  Cr  Cr13  1  0.49946989  0.49933815  0.16695260  1
  Ni  Ni14  1  0.33459790  0.33221677  0.33502351  1
  Ni  Ni15  1  0.33030256  0.66737090  0.99802290  1
  Ni  Ni16  1  0.49857755  0.83493076  0.16683122  1
  Ni  Ni17  1  0.33324004  0.66655292  0.33310688  1
  Ni  Ni18  1  0.66405562  -0.00028562  -0.00064223  1
  Cr  Cr19  1  0.83166639  0.16607774  0.16590950  1
  Ni  Ni20  1  0.66466862  0.99896944  0.33160481  1
  Ni  Ni21  1  0.66526876  0.33170891  0.99874400  1
  Ni  Ni22  1  0.83238278  0.49900001  0.16598804  1
  Ni  Ni23  1  0.66483594  0.33326881  0.33326510  1
  Cr  Cr24  1  0.66695361  0.66639215  0.99855448  1
  Ni  Ni25  1  0.83221982  0.83305986  0.16615414  1
  Ni  Ni26  1  0.66602783  0.66533512  0.33296120  1
  Cr  Cr27  1  0.16732793  0.16529727  0.49853357  1
  Ni  Ni28  1  -0.00004906  0.99443205  0.66628168  1
  Ni  Ni29  1  0.16834335  0.16549623  0.83311425  1
  Ni  Ni30  1  0.16678225  0.49955614  0.49827629  1
  Cr  Cr31  1  0.00148343  0.33504788  0.66626713  1
  Ni  Ni32  1  0.16616692  0.49881033  0.83418823  1
  Ni  Ni33  1  0.16394006  0.83231626  0.49889428  1
  Ni  Ni34  1  0.99710816  0.66799875  0.66576586  1
  Ni  Ni35  1  0.16511490  0.83326590  0.83340591  1
  Ni  Ni36  1  0.49830270  0.16732398  0.49830593  1
  Ni  Ni37  1  0.33252567  0.00100602  0.66749266  1
  Ni  Ni38  1  0.49654158  0.16533120  0.83317842  1
  Ni  Ni39  1  0.49902196  0.49751662  0.49739817  1
  Ni  Ni40  1  0.33357645  0.33124707  0.66644443  1
  Ni  Ni41  1  0.49800219  0.49826017  0.83297494  1
  Cr  Cr42  1  0.50023232  0.83255864  0.49850540  1
  Cr  Cr43  1  0.33147915  0.66500565  0.66643983  1
  Ni  Ni44  1  0.49921850  0.83398119  0.83272865  1
  Cr  Cr45  1  0.83168925  0.16383907  0.49745069  1
  Ni  Ni46  1  0.66509637  0.99653556  0.66661257  1
  Cr  Cr47  1  0.83293470  0.16404132  0.83421207  1
  Ni  Ni48  1  0.83176967  0.50149109  0.49806849  1
  Cr  Cr49  1  0.66251860  0.33399607  0.66580917  1
  Ni  Ni50  1  0.83340507  0.50148840  0.83351644  1
  Ni  Ni51  1  0.83339573  0.83159661  0.50050440  1
  Ni  Ni52  1  0.66898997  0.66694701  0.66630516  1
  Ni  Ni53  1  0.83323951  0.83180386  0.83091492  1
" 