3088,Ni25Fe53Cr21_6,-228.095185570291, 188.38957119865,Ni25Fe53Cr21,"# generated using pymatgen
 data_Cr13Fe28Ni13
_symmetry_space_group_name_H-M   'P 1'
_cell_length_a   7.45027915
_cell_length_b   7.45027915
_cell_length_c   10.53628582
_cell_angle_alpha   90.00000000
_cell_angle_beta   90.00000000
_cell_angle_gamma   90.00000000
_symmetry_Int_Tables_number   1
_chemical_formula_structural   Cr13Fe28Ni13
_chemical_formula_sum   'Cr13 Fe28 Ni13'
_cell_volume   584.83402873
_cell_formula_units_Z   1
loop_
 _symmetry_equiv_pos_site_id
 _symmetry_equiv_pos_as_xyz
  1  'x, y, z'
loop_
 _atom_site_type_symbol
 _atom_site_label
 _atom_site_symmetry_multiplicity
 _atom_site_fract_x
 _atom_site_fract_y
 _atom_site_fract_z
 _atom_site_occupancy
  Fe  Fe0  1  0.00241393  0.00157310  0.00205062  1
  Fe  Fe1  1  0.16458926  0.16566770  0.16700467  1
  Fe  Fe2  1  0.00274358  1.00105173  0.33319217  1
  Ni  Ni3  1  0.00235056  0.33434654  0.00350565  1
  Fe  Fe4  1  0.16598091  0.50249268  0.16793543  1
  Fe  Fe5  1  1.00088456  0.33527746  0.33306792  1
  Cr  Cr6  1  0.99864212  0.66779259  0.99910694  1
  Fe  Fe7  1  0.16818634  0.83519448  0.16690550  1
  Cr  Cr8  1  0.99978409  0.66851077  0.33699633  1
  Ni  Ni9  1  0.33499431  0.00119368  1.00088204  1
  Fe  Fe10  1  0.50311830  0.16466468  0.16813141  1
  Fe  Fe11  1  0.33401361  0.99840236  0.33360548  1
  Cr  Cr12  1  0.33285330  0.33398704  1.00090495  1
  Fe  Fe13  1  0.50326007  0.50525795  0.16868489  1
  Cr  Cr14  1  0.33414877  0.33393721  0.33283467  1
  Fe  Fe15  1  0.33596879  0.66945239  0.00133402  1
  Fe  Fe16  1  0.50202990  0.83352310  0.16727764  1
  Ni  Ni17  1  0.33457208  0.66933444  0.33190562  1
  Fe  Fe18  1  0.66695149  0.99849424  0.00172526  1
  Fe  Fe19  1  0.83571799  0.16698976  0.16843714  1
  Fe  Fe20  1  0.66640250  0.99882890  0.33392018  1
  Cr  Cr21  1  0.66745170  0.33621732  0.00134457  1
  Ni  Ni22  1  0.83378472  0.49942846  0.16911883  1
  Fe  Fe23  1  0.66943934  0.33626923  0.33220327  1
  Ni  Ni24  1  0.66802871  0.67009616  0.00174384  1
  Ni  Ni25  1  0.83294491  0.83585358  0.16711776  1
  Fe  Fe26  1  0.66707700  0.66857397  0.33281554  1
  Fe  Fe27  1  0.16863364  0.16744316  0.50055263  1
  Cr  Cr28  1  0.00188803  0.99685684  0.66824873  1
  Fe  Fe29  1  0.16763538  0.16638236  0.83581325  1
  Fe  Fe30  1  0.16544924  0.50170501  0.50121101  1
  Ni  Ni31  1  0.00311007  0.33742260  0.66691202  1
  Fe  Fe32  1  0.16439399  0.50190294  0.83423154  1
  Fe  Fe33  1  0.16874062  0.83380131  0.50082170  1
  Ni  Ni34  1  1.00019760  0.66604413  0.66715247  1
  Ni  Ni35  1  0.17157925  0.83572609  0.83542092  1
  Fe  Fe36  1  0.50115772  0.16574884  0.50000615  1
  Fe  Fe37  1  0.33359006  0.99949768  0.66886274  1
  Fe  Fe38  1  0.49955552  0.16478277  0.83520957  1
  Cr  Cr39  1  0.50384971  0.50369428  0.49987230  1
  Cr  Cr40  1  0.33477584  0.33077464  0.66979981  1
  Fe  Fe41  1  0.50276321  0.50417640  0.83552573  1
  Ni  Ni42  1  0.49663691  0.83657313  0.49765103  1
  Cr  Cr43  1  0.33196763  0.66863700  0.66910896  1
  Ni  Ni44  1  0.49724312  0.83499905  0.83837137  1
  Cr  Cr45  1  0.83572592  0.17185246  0.49897676  1
  Cr  Cr46  1  0.66462184  0.99977828  0.66900064  1
  Cr  Cr47  1  0.83681985  0.17110090  0.83705568  1
  Ni  Ni48  1  0.83657026  0.49893483  0.50180345  1
  Fe  Fe49  1  0.67054397  0.33626688  0.66879394  1
  Ni  Ni50  1  0.83579967  0.49931630  0.83244902  1
  Fe  Fe51  1  0.83272716  0.83257067  0.49898766  1
  Cr  Cr52  1  0.67205472  0.67010053  0.66838103  1
  Fe  Fe53  1  0.83440559  0.83226871  0.83679687  1
" 