6157,Ni25Cr75_9,-229.653364395227, 145.531077985855,Ni25Cr75,"# generated using pymatgen
 data_Cr13Ni41
_symmetry_space_group_name_H-M   'P 1'
_cell_length_a   7.48167500
_cell_length_b   7.48167500
_cell_length_c   10.58068626
_cell_angle_alpha   90.00000000
_cell_angle_beta   90.00000000
_cell_angle_gamma   90.00000000
_symmetry_Int_Tables_number   1
_chemical_formula_structural   Cr13Ni41
_chemical_formula_sum   'Cr13 Ni41'
_cell_volume   592.25878951
_cell_formula_units_Z   1
loop_
 _symmetry_equiv_pos_site_id
 _symmetry_equiv_pos_as_xyz
  1  'x, y, z'
loop_
 _atom_site_type_symbol
 _atom_site_label
 _atom_site_symmetry_multiplicity
 _atom_site_fract_x
 _atom_site_fract_y
 _atom_site_fract_z
 _atom_site_occupancy
  Ni  Ni0  1  0.99882774  0.99885840  0.00124359  1
  Ni  Ni1  1  0.16365072  0.16352844  0.16590908  1
  Ni  Ni2  1  -0.00043635  0.99781790  0.33141883  1
  Ni  Ni3  1  0.99659137  0.33372635  -0.00025574  1
  Ni  Ni4  1  0.16571608  0.50067008  0.16371703  1
  Cr  Cr5  1  0.99810304  0.33149384  0.33132122  1
  Ni  Ni6  1  0.00168536  0.66446886  -0.00002453  1
  Ni  Ni7  1  0.16570316  0.83285177  0.16552660  1
  Cr  Cr8  1  -0.00026502  0.66757301  0.33221271  1
  Cr  Cr9  1  0.33297549  0.99702140  -0.00008011  1
  Ni  Ni10  1  0.49981468  0.16678062  0.16658771  1
  Ni  Ni11  1  0.33199558  0.99650055  0.33121774  1
  Cr  Cr12  1  0.33343651  0.33429106  -0.00010084  1
  Ni  Ni13  1  0.50026173  0.49993730  0.16690749  1
  Cr  Cr14  1  0.33424051  0.33301718  0.33168163  1
  Ni  Ni15  1  0.32986809  0.66550575  0.99890155  1
  Ni  Ni16  1  0.49699520  0.83033116  0.16744137  1
  Ni  Ni17  1  0.33389778  0.66729249  0.33228504  1
  Cr  Cr18  1  0.66554115  0.00155220  -0.00077973  1
  Ni  Ni19  1  0.83361380  0.16677463  0.16461897  1
  Cr  Cr20  1  0.66573157  -0.00090294  0.33232122  1
  Ni  Ni21  1  0.66784505  0.33218720  -0.00073709  1
  Ni  Ni22  1  0.83108725  0.49791850  0.16447301  1
  Ni  Ni23  1  0.66449780  0.33284821  0.33103585  1
  Cr  Cr24  1  0.66504361  0.66423078  -0.00033173  1
  Ni  Ni25  1  0.83432014  0.83235890  0.16608008  1
  Ni  Ni26  1  0.66318912  0.66532993  0.33156575  1
  Cr  Cr27  1  0.16557327  0.16394428  0.50036282  1
  Ni  Ni28  1  0.99778560  -0.00012419  0.66443235  1
  Cr  Cr29  1  0.16394398  0.16513158  0.83084124  1
  Ni  Ni30  1  0.16932589  0.50068341  0.50111109  1
  Ni  Ni31  1  0.99827328  0.33162305  0.66679507  1
  Ni  Ni32  1  0.16587495  0.50060372  0.83233564  1
  Ni  Ni33  1  0.16750680  0.83294064  0.49884378  1
  Cr  Cr34  1  0.00077834  0.66519068  0.66542049  1
  Ni  Ni35  1  0.16763831  0.83076915  0.83272324  1
  Ni  Ni36  1  0.50050844  0.16572195  0.50075206  1
  Ni  Ni37  1  0.33460859  0.99756525  0.66568885  1
  Ni  Ni38  1  0.50155091  0.16681689  0.82966401  1
  Ni  Ni39  1  0.49844536  0.50023543  0.49951952  1
  Ni  Ni40  1  0.33414790  0.33398422  0.66546887  1
  Ni  Ni41  1  0.49922662  0.49920070  0.83059538  1
  Ni  Ni42  1  0.49807618  0.83111400  0.49991664  1
  Ni  Ni43  1  0.33374738  0.66554658  0.66586908  1
  Ni  Ni44  1  0.49623212  0.83104655  0.82961370  1
  Ni  Ni45  1  0.83110908  0.16392445  0.50098305  1
  Ni  Ni46  1  0.66467571  0.00027990  0.66498737  1
  Ni  Ni47  1  0.83166828  0.16854457  0.83148892  1
  Cr  Cr48  1  0.82905565  0.49827365  0.49949289  1
  Ni  Ni49  1  0.66468189  0.33078752  0.66675072  1
  Ni  Ni50  1  0.83196492  0.49541941  0.83289125  1
  Ni  Ni51  1  0.83146301  0.83493956  0.49955197  1
  Ni  Ni52  1  0.66234925  0.66600568  0.66529800  1
  Cr  Cr53  1  0.83306955  0.83308021  0.83165772  1
" 