2353,Ni25Cr75_15,-229.975922594024, 148.559564256018,Ni25Cr75,"# generated using pymatgen
 data_Cr13Ni41
_symmetry_space_group_name_H-M   'P 1'
_cell_length_a   7.47992405
_cell_length_b   7.47992405
_cell_length_c   10.57821004
_cell_angle_alpha   90.00000000
_cell_angle_beta   90.00000000
_cell_angle_gamma   90.00000000
_symmetry_Int_Tables_number   1
_chemical_formula_structural   Cr13Ni41
_chemical_formula_sum   'Cr13 Ni41'
_cell_volume   591.84306499
_cell_formula_units_Z   1
loop_
 _symmetry_equiv_pos_site_id
 _symmetry_equiv_pos_as_xyz
  1  'x, y, z'
loop_
 _atom_site_type_symbol
 _atom_site_label
 _atom_site_symmetry_multiplicity
 _atom_site_fract_x
 _atom_site_fract_y
 _atom_site_fract_z
 _atom_site_occupancy
  Cr  Cr0  1  0.99495859  -0.00021633  0.99868714  1
  Cr  Cr1  1  0.16484614  0.16596286  0.16549905  1
  Cr  Cr2  1  0.99790973  -0.00079966  0.33215883  1
  Ni  Ni3  1  0.99412144  0.33308732  0.99813843  1
  Cr  Cr4  1  0.16434932  0.50095737  0.16517932  1
  Ni  Ni5  1  0.99558538  0.33374697  0.33412163  1
  Ni  Ni6  1  0.99544703  0.66542771  0.00045275  1
  Ni  Ni7  1  0.16663349  0.82988050  0.16690091  1
  Ni  Ni8  1  -0.00002813  0.66440640  0.33259287  1
  Cr  Cr9  1  0.33531374  0.99856129  0.99894995  1
  Ni  Ni10  1  0.50386458  0.16475808  0.16691990  1
  Ni  Ni11  1  0.33448939  0.99690666  0.33356443  1
  Cr  Cr12  1  0.33632922  0.33248005  0.99665269  1
  Ni  Ni13  1  0.50193439  0.49992376  0.16446966  1
  Cr  Cr14  1  0.33415621  0.33190462  0.33390318  1
  Ni  Ni15  1  0.33592845  0.66669968  0.00073782  1
  Ni  Ni16  1  0.49984547  0.83279637  0.16601639  1
  Ni  Ni17  1  0.33154323  0.66882226  0.33197727  1
  Ni  Ni18  1  0.66602725  0.99907094  -0.00057363  1
  Ni  Ni19  1  0.82831658  0.16749095  0.16588203  1
  Ni  Ni20  1  0.66366751  0.00122497  0.33134010  1
  Ni  Ni21  1  0.66763824  0.33275447  -0.00042764  1
  Ni  Ni22  1  0.83156873  0.49821456  0.16528158  1
  Ni  Ni23  1  0.66855274  0.33049738  0.33149103  1
  Ni  Ni24  1  0.66614513  0.66561680  0.99847621  1
  Ni  Ni25  1  0.83089945  0.83164464  0.16449586  1
  Cr  Cr26  1  0.66642160  0.66530436  0.33186524  1
  Ni  Ni27  1  0.16571207  0.16570921  0.50137029  1
  Ni  Ni28  1  0.99870244  0.00097387  0.66617133  1
  Ni  Ni29  1  0.16464562  0.16679062  0.82948903  1
  Ni  Ni30  1  0.16285070  0.49901472  0.49889490  1
  Ni  Ni31  1  0.99782479  0.33149084  0.66494313  1
  Cr  Cr32  1  0.16383998  0.49789952  0.83315258  1
  Ni  Ni33  1  0.16679386  0.83264839  0.49851050  1
  Ni  Ni34  1  0.99655652  0.66488218  0.66466773  1
  Cr  Cr35  1  0.16439353  0.83278978  0.83221618  1
  Ni  Ni36  1  0.50065999  0.16330457  0.49967278  1
  Ni  Ni37  1  0.33329865  0.00147330  0.66467856  1
  Ni  Ni38  1  0.50188918  0.16562849  0.83066812  1
  Cr  Cr39  1  0.50167297  0.49784944  0.50023811  1
  Ni  Ni40  1  0.33281179  0.32933754  0.66620368  1
  Ni  Ni41  1  0.50283953  0.49884826  0.83298125  1
  Ni  Ni42  1  0.49777194  0.83627779  0.49920684  1
  Cr  Cr43  1  0.33453587  0.66588305  0.66482362  1
  Ni  Ni44  1  0.50276768  0.83298837  0.83234549  1
  Ni  Ni45  1  0.83090254  0.16791881  0.49948766  1
  Ni  Ni46  1  0.66525843  0.00023312  0.66673054  1
  Ni  Ni47  1  0.83076709  0.16659733  0.83190163  1
  Ni  Ni48  1  0.83495530  0.49650919  0.50003964  1
  Ni  Ni49  1  0.66693401  0.33179327  0.66638076  1
  Ni  Ni50  1  0.83075528  0.49892396  0.83225951  1
  Cr  Cr51  1  0.83065600  0.83322779  0.50198115  1
  Ni  Ni52  1  0.66770790  0.66539951  0.66796603  1
  Ni  Ni53  1  0.82955180  0.83200251  0.83178634  1
" 