5364,Ni25Fe53Cr21_19,-228.451983380535, 191.226018178095,Ni25Fe53Cr21,"# generated using pymatgen
 data_Cr13Fe28Ni13
_symmetry_space_group_name_H-M   'P 1'
_cell_length_a   7.45548894
_cell_length_b   7.45548894
_cell_length_c   10.54365357
_cell_angle_alpha   90.00000000
_cell_angle_beta   90.00000000
_cell_angle_gamma   90.00000000
_symmetry_Int_Tables_number   1
_chemical_formula_structural   Cr13Fe28Ni13
_chemical_formula_sum   'Cr13 Fe28 Ni13'
_cell_volume   586.06176505
_cell_formula_units_Z   1
loop_
 _symmetry_equiv_pos_site_id
 _symmetry_equiv_pos_as_xyz
  1  'x, y, z'
loop_
 _atom_site_type_symbol
 _atom_site_label
 _atom_site_symmetry_multiplicity
 _atom_site_fract_x
 _atom_site_fract_y
 _atom_site_fract_z
 _atom_site_occupancy
  Ni  Ni0  1  0.99981944  0.99951522  0.00200477  1
  Cr  Cr1  1  0.16489006  0.16792385  0.16763146  1
  Fe  Fe2  1  0.99989447  0.00264158  0.33451597  1
  Ni  Ni3  1  1.00053348  0.33566430  0.00084223  1
  Cr  Cr4  1  0.16831650  0.50081027  0.16610301  1
  Fe  Fe5  1  0.99922678  0.33087648  0.33441685  1
  Fe  Fe6  1  0.99917895  0.66884067  0.99971493  1
  Fe  Fe7  1  0.16651883  0.83376177  0.16612010  1
  Cr  Cr8  1  0.99972076  0.66953850  0.33373921  1
  Cr  Cr9  1  0.33468121  1.00076043  0.99964776  1
  Fe  Fe10  1  0.50275902  0.16985354  0.16717894  1
  Cr  Cr11  1  0.33231871  0.00166972  0.33461727  1
  Fe  Fe12  1  0.33532266  0.33486582  0.99998259  1
  Fe  Fe13  1  0.50207935  0.50038547  0.16797695  1
  Ni  Ni14  1  0.33671979  0.33506420  0.33521691  1
  Fe  Fe15  1  0.33454710  0.66766781  0.99970248  1
  Fe  Fe16  1  0.50171326  0.83208763  0.16637546  1
  Fe  Fe17  1  0.33671154  0.66579527  0.33364044  1
  Ni  Ni18  1  0.66794465  0.99856858  0.00178638  1
  Fe  Fe19  1  0.83369938  0.16815970  0.16659683  1
  Cr  Cr20  1  0.66944075  0.00198804  0.33288832  1
  Fe  Fe21  1  0.66801727  0.33440921  0.00118270  1
  Fe  Fe22  1  0.83203594  0.49972018  0.16617059  1
  Ni  Ni23  1  0.66591656  0.33543948  0.33352337  1
  Ni  Ni24  1  0.66807554  0.66764230  0.00175742  1
  Fe  Fe25  1  0.83409301  0.83444744  0.16529587  1
  Fe  Fe26  1  0.66537450  0.66512607  0.33238039  1
  Fe  Fe27  1  0.16580810  0.16642746  0.50077583  1
  Fe  Fe28  1  0.00120583  0.00098040  0.66707375  1
  Fe  Fe29  1  0.16636850  0.16742847  0.83439522  1
  Cr  Cr30  1  0.16829819  0.49987115  0.50018372  1
  Ni  Ni31  1  0.99976562  0.33384151  0.66715743  1
  Fe  Fe32  1  0.16473678  0.50058112  0.83542106  1
  Fe  Fe33  1  0.16508647  0.83666190  0.50217412  1
  Fe  Fe34  1  1.00052098  0.66849295  0.66907532  1
  Ni  Ni35  1  0.16794435  0.83358318  0.83397270  1
  Fe  Fe36  1  0.50234743  0.17001324  0.50171085  1
  Ni  Ni37  1  0.33323697  0.00138687  0.66796606  1
  Fe  Fe38  1  0.50127689  0.16675298  0.83343317  1
  Fe  Fe39  1  0.50218292  0.49746476  0.49824450  1
  Cr  Cr40  1  0.33435620  0.33127721  0.66839046  1
  Fe  Fe41  1  0.50223415  0.50057270  0.83611034  1
  Cr  Cr42  1  0.50022094  0.83404485  0.50131054  1
  Cr  Cr43  1  0.33235246  0.66898737  0.66835855  1
  Fe  Fe44  1  0.50207026  0.83499369  0.83457917  1
  Ni  Ni45  1  0.83453896  0.16731163  0.50080308  1
  Ni  Ni46  1  0.66721304  0.00197281  0.66744067  1
  Cr  Cr47  1  0.83325514  0.16832286  0.83430164  1
  Cr  Cr48  1  0.83270195  0.49735300  0.50130336  1
  Ni  Ni49  1  0.66874257  0.33249119  0.66704638  1
  Ni  Ni50  1  0.83495329  0.50046264  0.83491574  1
  Fe  Fe51  1  0.83595266  0.83681423  0.50153907  1
  Cr  Cr52  1  0.67025209  0.66718765  0.66767206  1
  Fe  Fe53  1  0.83468737  0.83335828  0.83549567  1
" 