1808,Ni25Fe15Cr59_9,-215.7868478072, 173.094246795111,Ni25Fe15Cr59,"# generated using pymatgen
 data_Cr33Fe8Ni13
_symmetry_space_group_name_H-M   'P 1'
_cell_length_a   7.53774266
_cell_length_b   7.53774266
_cell_length_c   10.65997790
_cell_angle_alpha   90.00000000
_cell_angle_beta   90.00000000
_cell_angle_gamma   90.00000000
_symmetry_Int_Tables_number   1
_chemical_formula_structural   Cr33Fe8Ni13
_chemical_formula_sum   'Cr33 Fe8 Ni13'
_cell_volume   605.67398047
_cell_formula_units_Z   1
loop_
 _symmetry_equiv_pos_site_id
 _symmetry_equiv_pos_as_xyz
  1  'x, y, z'
loop_
 _atom_site_type_symbol
 _atom_site_label
 _atom_site_symmetry_multiplicity
 _atom_site_fract_x
 _atom_site_fract_y
 _atom_site_fract_z
 _atom_site_occupancy
  Ni  Ni0  1  -0.00299840  0.99452258  -0.00435398  1
  Cr  Cr1  1  0.16335842  0.15819948  0.16340695  1
  Ni  Ni2  1  -0.00388844  0.99191409  0.33037079  1
  Cr  Cr3  1  -0.00253426  0.32982525  0.99472434  1
  Fe  Fe4  1  0.16215123  0.49598293  0.16333903  1
  Cr  Cr5  1  -0.00208995  0.32882938  0.32918774  1
  Fe  Fe6  1  -0.00313353  0.66278853  0.99478487  1
  Cr  Cr7  1  0.16158800  0.83178136  0.16014264  1
  Fe  Fe8  1  0.99429708  0.66403913  0.33143402  1
  Ni  Ni9  1  0.32803411  0.99414508  -0.00458325  1
  Cr  Cr10  1  0.49164441  0.16217049  0.16338831  1
  Fe  Fe11  1  0.32905864  0.99355312  0.32921727  1
  Cr  Cr12  1  0.32665378  0.33098680  0.99460211  1
  Cr  Cr13  1  0.49768911  0.49555483  0.16571740  1
  Ni  Ni14  1  0.32761671  0.33073252  0.32808232  1
  Cr  Cr15  1  0.32661897  0.66111462  -0.00320407  1
  Ni  Ni16  1  0.49308013  0.82823253  0.16260213  1
  Cr  Cr17  1  0.32774105  0.66197803  0.32899058  1
  Cr  Cr18  1  0.66214013  0.99490953  0.99511301  1
  Cr  Cr19  1  0.83101145  0.16227843  0.16314034  1
  Cr  Cr20  1  0.66400715  0.99193619  0.32943421  1
  Cr  Cr21  1  0.66197445  0.32609007  0.99473640  1
  Cr  Cr22  1  0.82709194  0.49743066  0.16364504  1
  Ni  Ni23  1  0.66008294  0.33005636  0.32814161  1
  Cr  Cr24  1  0.66008398  0.66466106  -0.00328447  1
  Cr  Cr25  1  0.83142092  0.82630207  0.16135024  1
  Ni  Ni26  1  0.66069642  0.66483324  0.33003977  1
  Cr  Cr27  1  0.16358733  0.15906093  0.49394376  1
  Cr  Cr28  1  0.99333230  0.99446317  0.65885387  1
  Cr  Cr29  1  0.16376375  0.15867072  0.82846018  1
  Fe  Fe30  1  0.16058614  0.49771165  0.49562275  1
  Ni  Ni31  1  -0.00174278  0.33221459  0.66232979  1
  Fe  Fe32  1  0.15914307  0.49678346  0.82700669  1
  Ni  Ni33  1  0.16084584  0.82898876  0.49469175  1
  Ni  Ni34  1  -0.00360789  0.66100569  0.65998979  1
  Cr  Cr35  1  0.16117379  0.83057563  0.83044423  1
  Cr  Cr36  1  0.49161418  0.16265517  0.49404909  1
  Fe  Fe37  1  0.32831948  0.99300623  0.66070938  1
  Fe  Fe38  1  0.49353691  0.15988719  0.82912756  1
  Cr  Cr39  1  0.49866688  0.49599875  0.49318547  1
  Cr  Cr40  1  0.32496692  0.33052254  0.66352808  1
  Cr  Cr41  1  0.49768436  0.49556591  0.82719005  1
  Ni  Ni42  1  0.49421480  0.82709181  0.49544691  1
  Cr  Cr43  1  0.32675442  0.66253744  0.66015796  1
  Cr  Cr44  1  0.49275722  0.82895377  0.82795066  1
  Cr  Cr45  1  0.83057840  0.16372305  0.49381681  1
  Cr  Cr46  1  0.66142240  0.99226566  0.66137085  1
  Cr  Cr47  1  0.83135441  0.16300088  0.82897320  1
  Cr  Cr48  1  0.82687019  0.49838375  0.49649337  1
  Cr  Cr49  1  0.66315232  0.32632238  0.66386888  1
  Cr  Cr50  1  0.82895793  0.49800616  0.82607013  1
  Ni  Ni51  1  0.83076436  0.82407842  0.49474623  1
  Ni  Ni52  1  0.66301273  0.66546856  0.65943306  1
  Cr  Cr53  1  0.83166624  0.82498153  0.82914633  1
" 