108,Ni25Fe15Cr59_6,-215.371442715167, 161.427665559889,Ni25Fe15Cr59,"# generated using pymatgen
 data_Cr33Fe8Ni13
_symmetry_space_group_name_H-M   'P 1'
_cell_length_a   7.54022133
_cell_length_b   7.54022133
_cell_length_c   10.66348327
_cell_angle_alpha   90.00000000
_cell_angle_beta   90.00000000
_cell_angle_gamma   90.00000000
_symmetry_Int_Tables_number   1
_chemical_formula_structural   Cr33Fe8Ni13
_chemical_formula_sum   'Cr33 Fe8 Ni13'
_cell_volume   606.27167742
_cell_formula_units_Z   1
loop_
 _symmetry_equiv_pos_site_id
 _symmetry_equiv_pos_as_xyz
  1  'x, y, z'
loop_
 _atom_site_type_symbol
 _atom_site_label
 _atom_site_symmetry_multiplicity
 _atom_site_fract_x
 _atom_site_fract_y
 _atom_site_fract_z
 _atom_site_occupancy
  Cr  Cr0  1  0.99264373  0.99386841  0.99333764  1
  Cr  Cr1  1  0.16075775  0.16166956  0.16072692  1
  Cr  Cr2  1  0.99468800  0.99407374  0.33118578  1
  Cr  Cr3  1  0.99195759  0.32861828  -0.00431259  1
  Cr  Cr4  1  0.16023496  0.49547984  0.15994162  1
  Fe  Fe5  1  -0.00449929  0.32893805  0.32830067  1
  Ni  Ni6  1  0.99125185  0.66325957  -0.00457378  1
  Fe  Fe7  1  0.16113022  0.82801436  0.16061721  1
  Cr  Cr8  1  -0.00387049  0.66274757  0.32991954  1
  Cr  Cr9  1  0.33269689  -0.00397291  -0.00378456  1
  Ni  Ni10  1  0.49988581  0.16175858  0.15942257  1
  Cr  Cr11  1  0.32806692  0.99397929  0.32573161  1
  Cr  Cr12  1  0.33291039  0.32737677  0.99401638  1
  Ni  Ni13  1  0.49683994  0.49562081  0.15983761  1
  Cr  Cr14  1  0.33272140  0.33005821  0.32554988  1
  Cr  Cr15  1  0.33005308  0.66238633  -0.00462453  1
  Cr  Cr16  1  0.49787574  0.82801073  0.16200528  1
  Cr  Cr17  1  0.32708617  0.66152666  0.33104894  1
  Ni  Ni18  1  0.66132878  0.99409053  0.99273220  1
  Ni  Ni19  1  0.82705692  0.16082552  0.16325826  1
  Cr  Cr20  1  0.66242728  -0.00206586  0.32860529  1
  Cr  Cr21  1  0.65984718  0.32670389  -0.00316692  1
  Fe  Fe22  1  0.82622727  0.49457984  0.15962238  1
  Cr  Cr23  1  0.66256110  0.32777230  0.32535797  1
  Ni  Ni24  1  0.66215905  0.66347241  0.99469449  1
  Cr  Cr25  1  0.82742705  0.82844233  0.15766242  1
  Cr  Cr26  1  0.66070522  0.65882700  0.32631146  1
  Cr  Cr27  1  0.16323594  0.16343244  0.49498715  1
  Cr  Cr28  1  -0.00482943  0.99353991  0.66137510  1
  Cr  Cr29  1  0.16551715  0.16293685  0.82806374  1
  Ni  Ni30  1  0.16170211  0.49551089  0.49748175  1
  Cr  Cr31  1  0.99445178  0.32900149  0.65994009  1
  Cr  Cr32  1  0.16144920  0.49400616  0.82782257  1
  Ni  Ni33  1  0.16222307  0.82796602  0.49672657  1
  Cr  Cr34  1  0.99340825  0.66309946  0.66239451  1
  Cr  Cr35  1  0.16320620  0.82837496  0.83120961  1
  Cr  Cr36  1  0.49644929  0.16046741  0.49804779  1
  Ni  Ni37  1  0.33083744  0.99507956  0.66318692  1
  Ni  Ni38  1  0.49759991  0.15776874  0.82598473  1
  Cr  Cr39  1  0.49445874  0.49612000  0.49960509  1
  Ni  Ni40  1  0.33171462  0.32627388  0.66242348  1
  Cr  Cr41  1  0.49575625  0.49674773  0.82515311  1
  Cr  Cr42  1  0.49450155  0.82886585  0.49737380  1
  Fe  Fe43  1  0.32763754  0.66410778  0.66186829  1
  Ni  Ni44  1  0.49898467  0.83035685  0.82688433  1
  Fe  Fe45  1  0.82862130  0.16258636  0.49561083  1
  Fe  Fe46  1  0.65940102  0.99439833  0.66464719  1
  Cr  Cr47  1  0.82674093  0.16025090  0.82654399  1
  Cr  Cr48  1  0.82717973  0.49435290  0.49417000  1
  Fe  Fe49  1  0.66064124  0.32806384  0.66317033  1
  Cr  Cr50  1  0.82722003  0.49855160  0.83174417  1
  Cr  Cr51  1  0.82383613  0.82883242  0.49775754  1
  Ni  Ni52  1  0.66005245  0.66349476  0.66449602  1
  Fe  Fe53  1  0.82381213  0.82773088  0.82988735  1
" 