2704,Ni25Fe53Cr21_3,-228.445880895821, 191.695928096677,Ni25Fe53Cr21,"# generated using pymatgen
 data_Cr13Fe28Ni13
_symmetry_space_group_name_H-M   'P 1'
_cell_length_a   7.45357795
_cell_length_b   7.45357795
_cell_length_c   10.54095102
_cell_angle_alpha   90.00000000
_cell_angle_beta   90.00000000
_cell_angle_gamma   90.00000000
_symmetry_Int_Tables_number   1
_chemical_formula_structural   Cr13Fe28Ni13
_chemical_formula_sum   'Cr13 Fe28 Ni13'
_cell_volume   585.61122160
_cell_formula_units_Z   1
loop_
 _symmetry_equiv_pos_site_id
 _symmetry_equiv_pos_as_xyz
  1  'x, y, z'
loop_
 _atom_site_type_symbol
 _atom_site_label
 _atom_site_symmetry_multiplicity
 _atom_site_fract_x
 _atom_site_fract_y
 _atom_site_fract_z
 _atom_site_occupancy
  Cr  Cr0  1  1.00012598  1.00031820  0.00128176  1
  Fe  Fe1  1  0.16925651  0.16845946  0.16512548  1
  Cr  Cr2  1  0.00129247  1.00067474  0.33156619  1
  Ni  Ni3  1  0.99984112  0.33171464  0.99875752  1
  Cr  Cr4  1  0.16824259  0.50415591  0.16344430  1
  Cr  Cr5  1  0.00237661  0.33270865  0.33428615  1
  Ni  Ni6  1  0.99961141  0.67068829  0.99883997  1
  Fe  Fe7  1  0.17149812  0.83326890  0.16602602  1
  Cr  Cr8  1  1.00041919  0.66949568  0.33622102  1
  Fe  Fe9  1  0.33490451  1.00072271  0.99880694  1
  Cr  Cr10  1  0.50244915  0.16573585  0.16742858  1
  Fe  Fe11  1  0.33451258  0.99690767  0.33427914  1
  Ni  Ni12  1  0.33629562  0.33315880  1.00083356  1
  Ni  Ni13  1  0.50161314  0.50187173  0.16727829  1
  Cr  Cr14  1  0.33524360  0.33659716  0.33373761  1
  Ni  Ni15  1  0.33719142  0.66935314  0.00097835  1
  Fe  Fe16  1  0.50075840  0.83102192  0.16688763  1
  Ni  Ni17  1  0.33805007  0.66862388  0.33606413  1
  Fe  Fe18  1  0.66627692  1.00060259  0.99920104  1
  Fe  Fe19  1  0.83252670  0.16833967  0.16600896  1
  Fe  Fe20  1  0.66625941  0.99692766  0.33322861  1
  Ni  Ni21  1  0.66650045  0.33329189  1.00011417  1
  Cr  Cr22  1  0.83389063  0.50121005  0.16529975  1
  Fe  Fe23  1  0.66708654  0.33856023  0.33315658  1
  Fe  Fe24  1  0.66685553  0.66778132  1.00045275  1
  Fe  Fe25  1  0.83039548  0.83334673  0.16672895  1
  Ni  Ni26  1  0.66459774  0.66883539  0.33430877  1
  Fe  Fe27  1  0.16898738  0.16717094  0.50288485  1
  Cr  Cr28  1  1.00083911  1.00041353  0.66928621  1
  Fe  Fe29  1  0.17199144  0.16772106  0.83450253  1
  Fe  Fe30  1  0.16917372  0.50141209  0.50321266  1
  Fe  Fe31  1  1.00038843  0.33624890  0.66771920  1
  Cr  Cr32  1  0.16518251  0.50295141  0.83637840  1
  Fe  Fe33  1  0.17055529  0.83428427  0.50232425  1
  Fe  Fe34  1  1.00018539  0.66667463  0.66755760  1
  Ni  Ni35  1  0.16824399  0.83317538  0.83462576  1
  Cr  Cr36  1  0.50188561  0.16497147  0.50156708  1
  Fe  Fe37  1  0.33595894  0.99945928  0.66963157  1
  Ni  Ni38  1  0.50253148  0.16583318  0.83344633  1
  Fe  Fe39  1  0.50233605  0.50293814  0.50202337  1
  Ni  Ni40  1  0.33480832  0.33337952  0.66764188  1
  Cr  Cr41  1  0.49984481  0.50047764  0.83597981  1
  Fe  Fe42  1  0.50199450  0.83242425  0.50211878  1
  Fe  Fe43  1  0.33541684  0.66892984  0.66769887  1
  Ni  Ni44  1  0.50036279  0.83639497  0.83435626  1
  Cr  Cr45  1  0.83091099  0.16754697  0.49999226  1
  Fe  Fe46  1  0.66569379  0.99922333  0.66967254  1
  Fe  Fe47  1  0.83233115  0.16870089  0.83456274  1
  Fe  Fe48  1  0.83135423  0.50293321  0.50216739  1
  Fe  Fe49  1  0.66735144  0.33554496  0.66965003  1
  Fe  Fe50  1  0.83281638  0.50205002  0.83529088  1
  Fe  Fe51  1  0.83055000  0.83304935  0.50206082  1
  Ni  Ni52  1  0.66712767  0.66858523  0.66803719  1
  Fe  Fe53  1  0.83189863  0.83192548  0.83406130  1
" 