8455,Ni25Fe15Cr59_3,-215.626111350789, 163.715746261804,Ni25Fe15Cr59,"# generated using pymatgen
 data_Cr33Fe8Ni13
_symmetry_space_group_name_H-M   'P 1'
_cell_length_a   7.53435888
_cell_length_b   7.53435888
_cell_length_c   10.65519251
_cell_angle_alpha   90.00000000
_cell_angle_beta   90.00000000
_cell_angle_gamma   90.00000000
_symmetry_Int_Tables_number   1
_chemical_formula_structural   Cr33Fe8Ni13
_chemical_formula_sum   'Cr33 Fe8 Ni13'
_cell_volume   604.85866459
_cell_formula_units_Z   1
loop_
 _symmetry_equiv_pos_site_id
 _symmetry_equiv_pos_as_xyz
  1  'x, y, z'
loop_
 _atom_site_type_symbol
 _atom_site_label
 _atom_site_symmetry_multiplicity
 _atom_site_fract_x
 _atom_site_fract_y
 _atom_site_fract_z
 _atom_site_occupancy
  Ni  Ni0  1  0.99509613  -0.00313079  0.99339977  1
  Cr  Cr1  1  0.16281505  0.16141785  0.16288823  1
  Ni  Ni2  1  0.99436970  -0.00297510  0.32906538  1
  Fe  Fe3  1  -0.00410328  0.32410374  0.99368853  1
  Cr  Cr4  1  0.16311688  0.49227008  0.16310018  1
  Fe  Fe5  1  0.99552824  0.32787602  0.33006231  1
  Cr  Cr6  1  -0.00312101  0.66657983  -0.00304873  1
  Cr  Cr7  1  0.16172731  0.83222491  0.16360908  1
  Cr  Cr8  1  -0.00316620  0.66265883  0.32806129  1
  Cr  Cr9  1  0.32766173  -0.00320391  0.99158166  1
  Ni  Ni10  1  0.49450958  0.16282888  0.16440431  1
  Ni  Ni11  1  0.32914431  -0.00365924  0.32719865  1
  Cr  Cr12  1  0.33073176  0.32663466  -0.00396069  1
  Ni  Ni13  1  0.49403157  0.49343753  0.16517431  1
  Fe  Fe14  1  0.32955481  0.32839296  0.32820328  1
  Cr  Cr15  1  0.32799327  0.66350557  -0.00433895  1
  Cr  Cr16  1  0.49543612  0.83079013  0.16470854  1
  Ni  Ni17  1  0.32865037  0.65934383  0.32960835  1
  Cr  Cr18  1  0.66298489  -0.00226389  -0.00300021  1
  Cr  Cr19  1  0.83123149  0.16038915  0.16355680  1
  Ni  Ni20  1  0.66319606  -0.00180632  0.32727622  1
  Cr  Cr21  1  0.66095900  0.32568585  -0.00400431  1
  Cr  Cr22  1  0.82945656  0.49444712  0.15787248  1
  Cr  Cr23  1  0.66193548  0.32709899  0.32868874  1
  Cr  Cr24  1  0.66157171  0.66315159  -0.00117931  1
  Ni  Ni25  1  0.82967879  0.83228184  0.16362774  1
  Cr  Cr26  1  0.66286246  0.66199323  0.32651747  1
  Cr  Cr27  1  0.16156668  0.16157353  0.49294555  1
  Ni  Ni28  1  -0.00440011  -0.00281231  0.66363030  1
  Ni  Ni29  1  0.15892094  0.15910986  0.82957716  1
  Fe  Fe30  1  0.16420887  0.49537037  0.49326009  1
  Cr  Cr31  1  -0.00418837  0.32560502  0.66157118  1
  Cr  Cr32  1  0.16126576  0.49346748  0.83008645  1
  Cr  Cr33  1  0.16344028  0.83238547  0.49426774  1
  Cr  Cr34  1  -0.00289183  0.66478034  0.66153744  1
  Ni  Ni35  1  0.16092453  0.83326606  0.82829994  1
  Cr  Cr36  1  0.49399515  0.16058459  0.49294984  1
  Cr  Cr37  1  0.32641066  -0.00333202  0.66804057  1
  Fe  Fe38  1  0.49611653  0.16191172  0.82936591  1
  Fe  Fe39  1  0.49412471  0.49664390  0.49433514  1
  Cr  Cr40  1  0.32867189  0.32770877  0.66133961  1
  Cr  Cr41  1  0.49737280  0.49750575  0.82742451  1
  Cr  Cr42  1  0.49587224  0.82895879  0.49523717  1
  Cr  Cr43  1  0.32753406  0.66298219  0.66201592  1
  Fe  Fe44  1  0.49597111  0.82931282  0.82844824  1
  Fe  Fe45  1  0.82986440  0.15947253  0.49439933  1
  Cr  Cr46  1  0.66351581  -0.00251458  0.66315865  1
  Ni  Ni47  1  0.83235735  0.16004426  0.82812601  1
  Cr  Cr48  1  0.82780696  0.49463207  0.49836318  1
  Cr  Cr49  1  0.66201888  0.32665782  0.66187612  1
  Cr  Cr50  1  0.82807373  0.49397696  0.83020981  1
  Cr  Cr51  1  0.82754015  0.83094799  0.49536545  1
  Ni  Ni52  1  0.66073784  0.66174512  0.66208098  1
  Cr  Cr53  1  0.82810069  0.82872666  0.82811109  1
" 