4438,Ni25Fe15Cr59_2,-215.298046066669, 159.336972808558,Ni25Fe15Cr59,"# generated using pymatgen
 data_Cr33Fe8Ni13
_symmetry_space_group_name_H-M   'P 1'
_cell_length_a   7.54324836
_cell_length_b   7.54324836
_cell_length_c   10.66776413
_cell_angle_alpha   90.00000000
_cell_angle_beta   90.00000000
_cell_angle_gamma   90.00000000
_symmetry_Int_Tables_number   1
_chemical_formula_structural   Cr33Fe8Ni13
_chemical_formula_sum   'Cr33 Fe8 Ni13'
_cell_volume   607.00213522
_cell_formula_units_Z   1
loop_
 _symmetry_equiv_pos_site_id
 _symmetry_equiv_pos_as_xyz
  1  'x, y, z'
loop_
 _atom_site_type_symbol
 _atom_site_label
 _atom_site_symmetry_multiplicity
 _atom_site_fract_x
 _atom_site_fract_y
 _atom_site_fract_z
 _atom_site_occupancy
  Ni  Ni0  1  0.99406464  -0.00484095  -0.00282083  1
  Cr  Cr1  1  0.16134607  0.15966691  0.16212003  1
  Cr  Cr2  1  0.99293685  0.99486732  0.32897236  1
  Cr  Cr3  1  -0.00493178  0.32957244  0.99482839  1
  Ni  Ni4  1  0.15785081  0.49670458  0.16565992  1
  Ni  Ni5  1  0.99308477  0.32604247  0.33027185  1
  Cr  Cr6  1  -0.00299337  0.66341163  -0.00035352  1
  Ni  Ni7  1  0.15915067  0.82795372  0.16102771  1
  Cr  Cr8  1  0.99378238  0.66177943  0.32649909  1
  Cr  Cr9  1  0.32751816  0.99050740  -0.00500316  1
  Cr  Cr10  1  0.49792055  0.16094402  0.16251819  1
  Cr  Cr11  1  0.32726845  0.99354122  0.33086169  1
  Cr  Cr12  1  0.32732420  0.33335004  -0.00443682  1
  Cr  Cr13  1  0.49623982  0.49551668  0.16327935  1
  Cr  Cr14  1  0.32337402  0.32934319  0.32842663  1
  Cr  Cr15  1  0.32680923  0.65944007  0.99401825  1
  Cr  Cr16  1  0.49471019  0.82883318  0.16497750  1
  Cr  Cr17  1  0.32732750  0.66127385  0.32866713  1
  Cr  Cr18  1  0.66554474  0.99404550  0.99394103  1
  Ni  Ni19  1  0.83185761  0.15968263  0.16143709  1
  Fe  Fe20  1  0.66606140  -0.00500393  0.32937271  1
  Cr  Cr21  1  0.66197744  0.32826614  0.99083063  1
  Cr  Cr22  1  0.82688344  0.49433259  0.16425689  1
  Cr  Cr23  1  0.66425708  0.32775672  0.32733900  1
  Cr  Cr24  1  0.66030114  0.66164618  0.99367045  1
  Fe  Fe25  1  0.82857804  0.83043604  0.16236918  1
  Ni  Ni26  1  0.66303215  0.66768559  0.33029696  1
  Fe  Fe27  1  0.15804502  0.16378331  0.49511392  1
  Cr  Cr28  1  0.99327314  -0.00291074  0.66083211  1
  Cr  Cr29  1  0.15907438  0.16160162  0.82796419  1
  Fe  Fe30  1  0.15903161  0.49309436  0.49537128  1
  Ni  Ni31  1  -0.00357839  0.33063745  0.65886831  1
  Ni  Ni32  1  0.16102070  0.49691841  0.82257779  1
  Cr  Cr33  1  0.16103278  0.82628358  0.49848089  1
  Ni  Ni34  1  0.99476685  0.66015787  0.65958857  1
  Cr  Cr35  1  0.16149114  0.82776425  0.82852338  1
  Cr  Cr36  1  0.49620157  0.16042652  0.49114356  1
  Cr  Cr37  1  0.32972847  0.99353939  0.65960313  1
  Cr  Cr38  1  0.49224161  0.15970760  0.83105481  1
  Cr  Cr39  1  0.49796189  0.49706905  0.49492750  1
  Cr  Cr40  1  0.32684587  0.32934254  0.66030504  1
  Ni  Ni41  1  0.49313059  0.49867660  0.82513685  1
  Fe  Fe42  1  0.49853320  0.82687982  0.49513216  1
  Fe  Fe43  1  0.32845334  0.65976198  0.66186732  1
  Ni  Ni44  1  0.49568031  0.82366966  0.82313323  1
  Ni  Ni45  1  0.83054720  0.16249210  0.49574916  1
  Cr  Cr46  1  0.66208373  0.99351147  0.66023399  1
  Fe  Fe47  1  0.83062629  0.16136071  0.82791294  1
  Cr  Cr48  1  0.82937740  0.49561097  0.49610290  1
  Cr  Cr49  1  0.66232994  0.32700515  0.66623794  1
  Cr  Cr50  1  0.82998250  0.49660742  0.82440481  1
  Fe  Fe51  1  0.82644302  0.82807360  0.49593582  1
  Ni  Ni52  1  0.66102406  0.66277067  0.66057819  1
  Cr  Cr53  1  0.83062568  0.82666005  0.82744260  1
" 