4199,Ni25Fe15Cr59_19,-215.428534107826, 164.988621960778,Ni25Fe15Cr59,"# generated using pymatgen
 data_Cr33Fe8Ni13
_symmetry_space_group_name_H-M   'P 1'
_cell_length_a   7.53699094
_cell_length_b   7.53699094
_cell_length_c   10.65891481
_cell_angle_alpha   90.00000000
_cell_angle_beta   90.00000000
_cell_angle_gamma   90.00000000
_symmetry_Int_Tables_number   1
_chemical_formula_structural   Cr33Fe8Ni13
_chemical_formula_sum   'Cr33 Fe8 Ni13'
_cell_volume   605.49279184
_cell_formula_units_Z   1
loop_
 _symmetry_equiv_pos_site_id
 _symmetry_equiv_pos_as_xyz
  1  'x, y, z'
loop_
 _atom_site_type_symbol
 _atom_site_label
 _atom_site_symmetry_multiplicity
 _atom_site_fract_x
 _atom_site_fract_y
 _atom_site_fract_z
 _atom_site_occupancy
  Ni  Ni0  1  0.00083920  0.99465216  0.99455776  1
  Fe  Fe1  1  0.16290429  0.15930319  0.16080953  1
  Cr  Cr2  1  -0.00345231  0.99528036  0.32835411  1
  Fe  Fe3  1  -0.00338434  0.32572469  0.99471528  1
  Cr  Cr4  1  0.16461109  0.49609595  0.16382202  1
  Cr  Cr5  1  -0.00283987  0.33025861  0.33044268  1
  Cr  Cr6  1  0.99522916  0.66346003  0.99361297  1
  Ni  Ni7  1  0.16581909  0.83015559  0.15971092  1
  Cr  Cr8  1  -0.00310575  0.66060773  0.33014502  1
  Ni  Ni9  1  0.32381862  0.99463733  -0.00444896  1
  Cr  Cr10  1  0.49421631  0.16182710  0.16174554  1
  Cr  Cr11  1  0.32942354  0.99429494  0.32694557  1
  Cr  Cr12  1  0.32748778  0.32494402  0.99475468  1
  Cr  Cr13  1  0.49216970  0.49730210  0.16300346  1
  Ni  Ni14  1  0.32677650  0.33055283  0.32894269  1
  Fe  Fe15  1  0.32747058  0.66727252  -0.00386387  1
  Ni  Ni16  1  0.48963568  0.82874055  0.16212612  1
  Ni  Ni17  1  0.32815241  0.66174223  0.32772520  1
  Cr  Cr18  1  0.65949575  0.99360212  -0.00391536  1
  Cr  Cr19  1  0.83151359  0.16094144  0.16249937  1
  Cr  Cr20  1  0.66019036  0.99398372  0.32940969  1
  Cr  Cr21  1  0.66208100  0.33013886  0.99357746  1
  Cr  Cr22  1  0.82932589  0.49372323  0.15984715  1
  Cr  Cr23  1  0.66202585  0.32913794  0.32988825  1
  Cr  Cr24  1  0.66285217  0.66247382  -0.00432389  1
  Cr  Cr25  1  0.83044171  0.83131867  0.16089038  1
  Cr  Cr26  1  0.66088182  0.66312276  0.32763307  1
  Cr  Cr27  1  0.16140093  0.16377406  0.49409034  1
  Cr  Cr28  1  -0.00332199  0.99422784  0.66305621  1
  Fe  Fe29  1  0.16189843  0.15833355  0.83086723  1
  Ni  Ni30  1  0.16336574  0.49606648  0.49409578  1
  Cr  Cr31  1  0.99449824  0.33093296  0.66069648  1
  Cr  Cr32  1  0.16341836  0.49720922  0.82823509  1
  Cr  Cr33  1  0.16421717  0.82515900  0.49625799  1
  Cr  Cr34  1  0.99462552  0.66118270  0.66234813  1
  Ni  Ni35  1  0.16150595  0.83035338  0.83051341  1
  Cr  Cr36  1  0.49718615  0.16314550  0.49650350  1
  Cr  Cr37  1  0.32845135  0.99457978  0.66449813  1
  Fe  Fe38  1  0.49442152  0.16073992  0.82873644  1
  Cr  Cr39  1  0.49296463  0.49679844  0.49584908  1
  Cr  Cr40  1  0.32890045  0.32805297  0.66245235  1
  Cr  Cr41  1  0.49578193  0.49518605  0.82696406  1
  Fe  Fe42  1  0.49403899  0.82467914  0.49595449  1
  Ni  Ni43  1  0.32951517  0.66242954  0.66143948  1
  Cr  Cr44  1  0.49368549  0.82725675  0.82742309  1
  Fe  Fe45  1  0.82843266  0.16546312  0.49643750  1
  Cr  Cr46  1  0.66085724  0.99496200  0.66074215  1
  Cr  Cr47  1  0.82912770  0.16144401  0.82868634  1
  Ni  Ni48  1  0.82780417  0.49401518  0.49854262  1
  Ni  Ni49  1  0.66342892  0.33131189  0.66223650  1
  Fe  Fe50  1  0.82780939  0.49771139  0.82672194  1
  Cr  Cr51  1  0.82744265  0.82955148  0.49635837  1
  Ni  Ni52  1  0.66249776  0.65986680  0.66225191  1
  Ni  Ni53  1  0.83090549  0.82971216  0.82887432  1
" 