2857,Ni25Cr75_12,-230.052867686821, 148.4029663126,Ni25Cr75,"# generated using pymatgen
 data_Cr13Ni41
_symmetry_space_group_name_H-M   'P 1'
_cell_length_a   7.48116913
_cell_length_b   7.48116913
_cell_length_c   10.57997084
_cell_angle_alpha   90.00000000
_cell_angle_beta   90.00000000
_cell_angle_gamma   90.00000000
_symmetry_Int_Tables_number   1
_chemical_formula_structural   Cr13Ni41
_chemical_formula_sum   'Cr13 Ni41'
_cell_volume   592.13866052
_cell_formula_units_Z   1
loop_
 _symmetry_equiv_pos_site_id
 _symmetry_equiv_pos_as_xyz
  1  'x, y, z'
loop_
 _atom_site_type_symbol
 _atom_site_label
 _atom_site_symmetry_multiplicity
 _atom_site_fract_x
 _atom_site_fract_y
 _atom_site_fract_z
 _atom_site_occupancy
  Ni  Ni0  1  0.99854649  0.00246960  0.99812969  1
  Ni  Ni1  1  0.16625936  0.16649463  0.16500694  1
  Ni  Ni2  1  0.99830689  -0.00068440  0.33296784  1
  Ni  Ni3  1  0.00021109  0.32915595  -0.00025600  1
  Ni  Ni4  1  0.16516874  0.49562987  0.16580226  1
  Cr  Cr5  1  0.00067153  0.33067418  0.33277729  1
  Cr  Cr6  1  -0.00031593  0.66646043  0.99881774  1
  Cr  Cr7  1  0.16387750  0.83695952  0.16649338  1
  Ni  Ni8  1  0.99848766  0.66639874  0.33330285  1
  Ni  Ni9  1  0.33119613  0.00432107  0.99800544  1
  Ni  Ni10  1  0.49828999  0.16653305  0.16524072  1
  Ni  Ni11  1  0.33185690  0.00335168  0.33434494  1
  Ni  Ni12  1  0.33189275  0.32977542  -0.00054173  1
  Ni  Ni13  1  0.49809915  0.49412662  0.16409612  1
  Ni  Ni14  1  0.33131034  0.32878294  0.33133118  1
  Cr  Cr15  1  0.33112583  0.66328889  0.99699173  1
  Cr  Cr16  1  0.49933250  0.83761178  0.16644238  1
  Cr  Cr17  1  0.33002206  0.66413518  0.33339667  1
  Ni  Ni18  1  0.66754113  0.00325559  -0.00076358  1
  Ni  Ni19  1  0.83258535  0.16396047  0.16390462  1
  Ni  Ni20  1  0.66695866  0.00051240  0.33334186  1
  Ni  Ni21  1  0.66499578  0.32894527  -0.00035021  1
  Ni  Ni22  1  0.83391395  0.49732192  0.16516448  1
  Cr  Cr23  1  0.66565861  0.32881281  0.33232184  1
  Cr  Cr24  1  0.66628332  0.66524051  0.00037417  1
  Ni  Ni25  1  0.83363346  0.83588565  0.16656146  1
  Cr  Cr26  1  0.66868612  0.66665238  0.33179047  1
  Ni  Ni27  1  0.16630965  0.16479708  0.49949380  1
  Ni  Ni28  1  -0.00053988  -0.00012770  0.66607665  1
  Ni  Ni29  1  0.16545141  0.16595690  0.83274114  1
  Ni  Ni30  1  0.16381907  0.49861545  0.50068599  1
  Ni  Ni31  1  0.00061623  0.33005827  0.66482063  1
  Ni  Ni32  1  0.16675259  0.49640155  0.83040903  1
  Ni  Ni33  1  0.16457896  0.83374376  0.49996065  1
  Ni  Ni34  1  0.00186675  0.66716135  0.66440425  1
  Ni  Ni35  1  0.16391675  0.83495045  0.83037531  1
  Ni  Ni36  1  0.49795716  0.16302435  0.49979381  1
  Ni  Ni37  1  0.33107020  0.00066758  0.66487491  1
  Ni  Ni38  1  0.49905399  0.16745291  0.83230891  1
  Cr  Cr39  1  0.49736929  0.49587045  0.50163831  1
  Ni  Ni40  1  0.33088965  0.33026785  0.66648462  1
  Ni  Ni41  1  0.49660183  0.49389351  0.83183244  1
  Ni  Ni42  1  0.49791143  0.83692121  0.49969678  1
  Ni  Ni43  1  0.32871336  0.66612987  0.66620507  1
  Cr  Cr44  1  0.49794172  0.83641195  0.83150941  1
  Ni  Ni45  1  0.83289949  0.16383096  0.50129951  1
  Ni  Ni46  1  0.66667651  0.00220829  0.66472292  1
  Ni  Ni47  1  0.83264356  0.16433501  0.83231760  1
  Ni  Ni48  1  0.83622569  0.49874196  0.50086067  1
  Ni  Ni49  1  0.66566211  0.32790270  0.66581945  1
  Cr  Cr50  1  0.83370888  0.49418361  0.83037750  1
  Ni  Ni51  1  0.83468352  0.83468137  0.49864588  1
  Cr  Cr52  1  0.66640578  0.66798228  0.66510537  1
  Ni  Ni53  1  0.83525349  0.83689944  0.83187941  1
" 