7526,Ni25Fe15Cr59_12,-215.382773963926, 158.721382010349,Ni25Fe15Cr59,"# generated using pymatgen
 data_Cr33Fe8Ni13
_symmetry_space_group_name_H-M   'P 1'
_cell_length_a   7.53618121
_cell_length_b   7.53618121
_cell_length_c   10.65776968
_cell_angle_alpha   90.00000000
_cell_angle_beta   90.00000000
_cell_angle_gamma   90.00000000
_symmetry_Int_Tables_number   1
_chemical_formula_structural   Cr33Fe8Ni13
_chemical_formula_sum   'Cr33 Fe8 Ni13'
_cell_volume   605.29766173
_cell_formula_units_Z   1
loop_
 _symmetry_equiv_pos_site_id
 _symmetry_equiv_pos_as_xyz
  1  'x, y, z'
loop_
 _atom_site_type_symbol
 _atom_site_label
 _atom_site_symmetry_multiplicity
 _atom_site_fract_x
 _atom_site_fract_y
 _atom_site_fract_z
 _atom_site_occupancy
  Fe  Fe0  1  -0.00198363  -0.00311426  0.99367982  1
  Cr  Cr1  1  0.16305484  0.16189439  0.15958552  1
  Cr  Cr2  1  -0.00142228  0.99422496  0.32869352  1
  Ni  Ni3  1  -0.00199700  0.32707372  0.99154636  1
  Cr  Cr4  1  0.16317808  0.49387331  0.16048640  1
  Cr  Cr5  1  0.99329552  0.32901304  0.33028192  1
  Cr  Cr6  1  -0.00395598  0.66045015  -0.00359078  1
  Fe  Fe7  1  0.16366929  0.83212042  0.16100634  1
  Cr  Cr8  1  -0.00405898  0.66419914  0.33040811  1
  Ni  Ni9  1  0.32826884  -0.00257788  0.99420276  1
  Cr  Cr10  1  0.49503916  0.16219733  0.16586263  1
  Ni  Ni11  1  0.32835529  0.99431620  0.32964222  1
  Ni  Ni12  1  0.32633809  0.32518305  -0.00416794  1
  Fe  Fe13  1  0.49548733  0.49324577  0.16137088  1
  Fe  Fe14  1  0.32673278  0.32827733  0.32813365  1
  Cr  Cr15  1  0.32876696  0.66243817  -0.00333200  1
  Cr  Cr16  1  0.49645968  0.83127248  0.15861914  1
  Cr  Cr17  1  0.32712955  0.66428741  0.32480421  1
  Ni  Ni18  1  0.65903279  -0.00448795  0.99337024  1
  Cr  Cr19  1  0.82924584  0.16050365  0.15759470  1
  Cr  Cr20  1  0.66513361  0.99504488  0.33056694  1
  Cr  Cr21  1  0.66249275  0.32799989  0.99481470  1
  Cr  Cr22  1  0.82965559  0.49438003  0.16097141  1
  Fe  Fe23  1  0.66307212  0.32975031  0.32904730  1
  Cr  Cr24  1  0.66154431  0.66240134  0.99294378  1
  Cr  Cr25  1  0.83042038  0.83079872  0.15889431  1
  Cr  Cr26  1  0.66322247  0.66106285  0.32872627  1
  Cr  Cr27  1  0.16290036  0.16083481  0.49790624  1
  Ni  Ni28  1  -0.00231536  -0.00368588  0.66176487  1
  Ni  Ni29  1  0.16176495  0.16000238  0.82909512  1
  Cr  Cr30  1  0.15936722  0.49803795  0.49874586  1
  Ni  Ni31  1  0.99318876  0.32846843  0.66458487  1
  Cr  Cr32  1  0.15883426  0.49162006  0.82798356  1
  Ni  Ni33  1  0.16104966  0.83056843  0.49598298  1
  Fe  Fe34  1  0.99427586  0.66411831  0.66192203  1
  Cr  Cr35  1  0.16235472  0.83082875  0.82958123  1
  Cr  Cr36  1  0.49321534  0.16122074  0.49217425  1
  Ni  Ni37  1  0.32354737  0.99255809  0.66279666  1
  Cr  Cr38  1  0.49139729  0.15876044  0.82887862  1
  Cr  Cr39  1  0.49568343  0.49523026  0.49218895  1
  Cr  Cr40  1  0.32610942  0.32528018  0.66365685  1
  Cr  Cr41  1  0.49540615  0.49640608  0.82979082  1
  Cr  Cr42  1  0.49398851  0.82906458  0.49913924  1
  Cr  Cr43  1  0.33041325  0.66366714  0.66416343  1
  Fe  Fe44  1  0.49482040  0.83022651  0.82866660  1
  Cr  Cr45  1  0.82937600  0.16351608  0.49617209  1
  Cr  Cr46  1  0.66071741  0.99463340  0.66282103  1
  Cr  Cr47  1  0.83211847  0.16184277  0.83165168  1
  Ni  Ni48  1  0.82879307  0.49905261  0.49954795  1
  Cr  Cr49  1  0.66368027  0.33091761  0.66178401  1
  Ni  Ni50  1  0.83010798  0.49598569  0.82661292  1
  Fe  Fe51  1  0.83149415  0.82733654  0.49929157  1
  Ni  Ni52  1  0.66618562  0.66177336  0.66311536  1
  Cr  Cr53  1  0.82766197  0.82822015  0.82813273  1
" 