3585,Ni25Cr75_8,-230.058781252206, 151.23293504275,Ni25Cr75,"# generated using pymatgen
 data_Cr13Ni41
_symmetry_space_group_name_H-M   'P 1'
_cell_length_a   7.48141663
_cell_length_b   7.48141663
_cell_length_c   10.58032087
_cell_angle_alpha   90.00000000
_cell_angle_beta   90.00000000
_cell_angle_gamma   90.00000000
_symmetry_Int_Tables_number   1
_chemical_formula_structural   Cr13Ni41
_chemical_formula_sum   'Cr13 Ni41'
_cell_volume   592.19743313
_cell_formula_units_Z   1
loop_
 _symmetry_equiv_pos_site_id
 _symmetry_equiv_pos_as_xyz
  1  'x, y, z'
loop_
 _atom_site_type_symbol
 _atom_site_label
 _atom_site_symmetry_multiplicity
 _atom_site_fract_x
 _atom_site_fract_y
 _atom_site_fract_z
 _atom_site_occupancy
  Cr  Cr0  1  0.99771248  -0.00095631  -0.00043538  1
  Ni  Ni1  1  0.16370233  0.16362920  0.16744212  1
  Ni  Ni2  1  0.99796976  0.00121399  0.33253474  1
  Ni  Ni3  1  0.99686226  0.33090718  0.99646667  1
  Cr  Cr4  1  0.16201365  0.49710878  0.16524065  1
  Ni  Ni5  1  0.99831199  0.32846563  0.33453525  1
  Ni  Ni6  1  0.99685249  0.66717436  0.99670828  1
  Ni  Ni7  1  0.16501781  0.83596359  0.16552814  1
  Cr  Cr8  1  0.99677213  0.67000384  0.33453406  1
  Ni  Ni9  1  0.33203232  0.99718136  0.99889867  1
  Cr  Cr10  1  0.50023505  0.16471579  0.16703155  1
  Ni  Ni11  1  0.32944735  -0.00053906  0.33118768  1
  Cr  Cr12  1  0.33190195  0.33141403  0.99729141  1
  Ni  Ni13  1  0.50232877  0.49964851  0.16683861  1
  Ni  Ni14  1  0.33049256  0.33059331  0.33245377  1
  Cr  Cr15  1  0.33345160  0.66750020  0.99834875  1
  Ni  Ni16  1  0.50115143  0.83357050  0.16554644  1
  Cr  Cr17  1  0.33273695  0.66628996  0.33160487  1
  Ni  Ni18  1  0.66673348  0.99730252  0.99885645  1
  Ni  Ni19  1  0.83328276  0.16510850  0.16639253  1
  Ni  Ni20  1  0.66955343  0.99814640  0.33156315  1
  Ni  Ni21  1  0.66852169  0.33288942  0.99763885  1
  Cr  Cr22  1  0.83226934  0.49862569  0.16385415  1
  Ni  Ni23  1  0.66854225  0.33198124  0.33263252  1
  Ni  Ni24  1  0.66659152  0.66721810  0.99864702  1
  Ni  Ni25  1  0.83086210  0.83382722  0.16569049  1
  Ni  Ni26  1  0.66692175  0.66713978  0.33130886  1
  Ni  Ni27  1  0.16293750  0.16418095  0.49794033  1
  Ni  Ni28  1  0.99794307  -0.00086633  0.66508967  1
  Ni  Ni29  1  0.16258113  0.16408651  0.83160842  1
  Ni  Ni30  1  0.16197680  0.49830499  0.50024537  1
  Ni  Ni31  1  0.99687692  0.33162593  0.66581494  1
  Ni  Ni32  1  0.16140847  0.50045921  0.83137974  1
  Ni  Ni33  1  0.16357262  0.83451406  0.50117551  1
  Ni  Ni34  1  0.99824723  0.66627197  0.66570688  1
  Ni  Ni35  1  0.16488359  0.83233829  0.83053987  1
  Cr  Cr36  1  0.50025427  0.16336246  0.49894034  1
  Ni  Ni37  1  0.32874974  0.99653926  0.66736515  1
  Cr  Cr38  1  0.50168863  0.16174978  0.83086894  1
  Cr  Cr39  1  0.50168092  0.49917890  0.49852475  1
  Cr  Cr40  1  0.32991894  0.33371670  0.66670107  1
  Ni  Ni41  1  0.50268304  0.50176273  0.83160586  1
  Cr  Cr42  1  0.50001537  0.83445822  0.50150438  1
  Ni  Ni43  1  0.33062410  0.66716575  0.66770405  1
  Ni  Ni44  1  0.50011097  0.83165149  0.83136747  1
  Ni  Ni45  1  0.83422476  0.16538376  0.49918571  1
  Ni  Ni46  1  0.67028726  0.99794992  0.66692121  1
  Ni  Ni47  1  0.83358527  0.16635801  0.83158879  1
  Ni  Ni48  1  0.83408788  0.49851040  0.50003702  1
  Ni  Ni49  1  0.67081579  0.33324715  0.66669893  1
  Ni  Ni50  1  0.83331472  0.49959012  0.83254262  1
  Ni  Ni51  1  0.83332899  0.83323280  0.49993162  1
  Ni  Ni52  1  0.66816095  0.66600316  0.66729301  1
  Ni  Ni53  1  0.83191292  0.83124308  0.83152105  1
" 