1832,Ni26Fe65Cr8_6,-232.331679335742, 193.147869050506,Ni26Fe65Cr8,"# generated using pymatgen
 data_Cr5(Fe5Ni2)7
_symmetry_space_group_name_H-M   'P 1'
_cell_length_a   7.41677081
_cell_length_b   7.41677081
_cell_length_c   10.48889787
_cell_angle_alpha   90.00000000
_cell_angle_beta   90.00000000
_cell_angle_gamma   90.00000000
_symmetry_Int_Tables_number   1
_chemical_formula_structural   Cr5(Fe5Ni2)7
_chemical_formula_sum   'Cr5 Fe35 Ni14'
_cell_volume   576.97842523
_cell_formula_units_Z   1
loop_
 _symmetry_equiv_pos_site_id
 _symmetry_equiv_pos_as_xyz
  1  'x, y, z'
loop_
 _atom_site_type_symbol
 _atom_site_label
 _atom_site_symmetry_multiplicity
 _atom_site_fract_x
 _atom_site_fract_y
 _atom_site_fract_z
 _atom_site_occupancy
  Fe  Fe0  1  0.00558994  0.00341943  0.00358909  1
  Fe  Fe1  1  0.17081802  0.16923522  0.16959194  1
  Ni  Ni2  1  0.00485800  1.00219808  0.33765206  1
  Fe  Fe3  1  0.00486433  0.33717125  0.00380913  1
  Fe  Fe4  1  0.16862998  0.50441060  0.17077111  1
  Fe  Fe5  1  0.00366285  0.33691747  0.33677750  1
  Ni  Ni6  1  0.00347572  0.66921032  1.00257820  1
  Fe  Fe7  1  0.17151737  0.83651615  0.16999938  1
  Ni  Ni8  1  0.00404848  0.67032009  0.33703883  1
  Ni  Ni9  1  0.33675266  1.00303555  0.00509704  1
  Fe  Fe10  1  0.50344163  0.16836231  0.17054169  1
  Fe  Fe11  1  0.33704179  0.00359611  0.33656754  1
  Fe  Fe12  1  0.33429180  0.33645770  0.00359052  1
  Cr  Cr13  1  0.50251389  0.50440473  0.17078089  1
  Ni  Ni14  1  0.33814758  0.33507514  0.33801162  1
  Fe  Fe15  1  0.33618779  0.67182994  1.00263114  1
  Ni  Ni16  1  0.50243325  0.83810986  0.17007279  1
  Fe  Fe17  1  0.33580794  0.67053849  0.33769913  1
  Fe  Fe18  1  0.66875757  1.00153101  0.00413068  1
  Fe  Fe19  1  0.83591496  0.17124382  0.17030773  1
  Fe  Fe20  1  0.66911800  0.00429465  0.33768582  1
  Fe  Fe21  1  0.67100979  0.33753059  0.00416251  1
  Fe  Fe22  1  0.83782915  0.50266614  0.17008124  1
  Ni  Ni23  1  0.66937809  0.33588517  0.33689640  1
  Fe  Fe24  1  0.66947064  0.67110288  1.00187609  1
  Cr  Cr25  1  0.83613667  0.83691270  0.16995212  1
  Fe  Fe26  1  0.67000746  0.67017347  0.33800258  1
  Fe  Fe27  1  0.17037919  0.17066942  0.50270723  1
  Fe  Fe28  1  1.00229764  1.00308931  0.66915651  1
  Ni  Ni29  1  0.16840815  0.17177796  0.83701034  1
  Ni  Ni30  1  0.16941180  0.50301464  0.50310236  1
  Fe  Fe31  1  0.00431984  0.33772316  0.66957981  1
  Fe  Fe32  1  0.17005195  0.50354935  0.83624644  1
  Fe  Fe33  1  0.16934790  0.83567783  0.50239929  1
  Ni  Ni34  1  1.00284465  0.67027199  0.67054780  1
  Fe  Fe35  1  0.16940413  0.83667536  0.83777597  1
  Ni  Ni36  1  0.50478041  0.17034893  0.50216032  1
  Cr  Cr37  1  0.33609562  0.00357163  0.66893343  1
  Cr  Cr38  1  0.50243478  0.17006687  0.83801758  1
  Fe  Fe39  1  0.50311764  0.50241928  0.50300894  1
  Fe  Fe40  1  0.33556303  0.33920163  0.66863449  1
  Fe  Fe41  1  0.50343727  0.50423397  0.83672080  1
  Ni  Ni42  1  0.50505149  0.83654815  0.50171932  1
  Fe  Fe43  1  0.33710302  0.66835388  0.66984115  1
  Ni  Ni44  1  0.50458412  0.83371927  0.83837714  1
  Fe  Fe45  1  0.83582183  0.17017497  0.50337185  1
  Fe  Fe46  1  0.67128992  1.00155143  0.66834921  1
  Cr  Cr47  1  0.83909474  0.16923794  0.83638425  1
  Fe  Fe48  1  0.83617033  0.50346025  0.50348196  1
  Ni  Ni49  1  0.66942199  0.33829300  0.66880979  1
  Fe  Fe50  1  0.83667318  0.50492753  0.83660187  1
  Fe  Fe51  1  0.83721854  0.83653448  0.50301535  1
  Fe  Fe52  1  0.66980301  0.67037908  0.67029135  1
  Fe  Fe53  1  0.83719607  0.83540745  0.83688827  1
" 