6568,Ni26Fe65Cr8_16,-232.611761611519, 191.399981898961,Ni26Fe65Cr8,"# generated using pymatgen
 data_Cr5(Fe5Ni2)7
_symmetry_space_group_name_H-M   'P 1'
_cell_length_a   7.41824807
_cell_length_b   7.41824807
_cell_length_c   10.49098703
_cell_angle_alpha   90.00000000
_cell_angle_beta   90.00000000
_cell_angle_gamma   90.00000000
_symmetry_Int_Tables_number   1
_chemical_formula_structural   Cr5(Fe5Ni2)7
_chemical_formula_sum   'Cr5 Fe35 Ni14'
_cell_volume   577.32325988
_cell_formula_units_Z   1
loop_
 _symmetry_equiv_pos_site_id
 _symmetry_equiv_pos_as_xyz
  1  'x, y, z'
loop_
 _atom_site_type_symbol
 _atom_site_label
 _atom_site_symmetry_multiplicity
 _atom_site_fract_x
 _atom_site_fract_y
 _atom_site_fract_z
 _atom_site_occupancy
  Ni  Ni0  1  1.00212163  0.00395573  0.00373465  1
  Fe  Fe1  1  0.16863654  0.17161895  0.16897259  1
  Fe  Fe2  1  1.00322394  0.00420441  0.33744090  1
  Ni  Ni3  1  1.00298614  0.33654665  0.00520107  1
  Fe  Fe4  1  0.17043734  0.50090114  0.17016653  1
  Fe  Fe5  1  0.00364054  0.33717556  0.33644517  1
  Fe  Fe6  1  0.00359444  0.66910708  1.00223813  1
  Cr  Cr7  1  0.17004831  0.83679089  0.16842966  1
  Fe  Fe8  1  0.00333954  0.66849299  0.33849711  1
  Ni  Ni9  1  0.33727992  1.00293430  1.00305401  1
  Cr  Cr10  1  0.50267977  0.16992758  0.16802744  1
  Fe  Fe11  1  0.33680643  0.00366162  0.33826529  1
  Ni  Ni12  1  0.33646469  0.33761175  1.00307539  1
  Fe  Fe13  1  0.50270364  0.50457843  0.17001984  1
  Ni  Ni14  1  0.33588716  0.33736815  0.33785282  1
  Fe  Fe15  1  0.33658704  0.66954160  1.00224936  1
  Fe  Fe16  1  0.50468324  0.83522940  0.16927374  1
  Fe  Fe17  1  0.33684607  0.66887458  0.33786146  1
  Fe  Fe18  1  0.67014985  0.00355215  1.00222158  1
  Fe  Fe19  1  0.83883642  0.16964407  0.16948429  1
  Fe  Fe20  1  0.66983597  0.00336135  0.33744373  1
  Fe  Fe21  1  0.67058091  0.33611776  1.00238270  1
  Fe  Fe22  1  0.83672339  0.50318886  0.17019107  1
  Fe  Fe23  1  0.67021804  0.33721425  0.33779377  1
  Fe  Fe24  1  0.66968795  0.67019883  1.00275476  1
  Fe  Fe25  1  0.83516099  0.83703572  0.16979445  1
  Fe  Fe26  1  0.66967795  0.66929036  0.33704332  1
  Fe  Fe27  1  0.16927793  0.17112238  0.50260492  1
  Ni  Ni28  1  1.00095815  1.00245114  0.66873896  1
  Cr  Cr29  1  0.17059865  0.17012371  0.83751855  1
  Ni  Ni30  1  0.16773972  0.50386094  0.50271735  1
  Fe  Fe31  1  1.00230502  0.33844269  0.66924177  1
  Fe  Fe32  1  0.17005878  0.50368656  0.83723289  1
  Ni  Ni33  1  0.16796786  0.83582512  0.50284954  1
  Ni  Ni34  1  1.00069113  0.67024488  0.66997841  1
  Fe  Fe35  1  0.16896318  0.83621167  0.83778940  1
  Ni  Ni36  1  0.50398630  0.17043612  0.50358948  1
  Cr  Cr37  1  0.33663276  0.00419324  0.66879038  1
  Ni  Ni38  1  0.50515839  0.16997496  0.83761449  1
  Fe  Fe39  1  0.50353493  0.50248175  0.50238426  1
  Fe  Fe40  1  0.33717083  0.33757673  0.66894317  1
  Fe  Fe41  1  0.50386713  0.50241474  0.83746303  1
  Fe  Fe42  1  0.50454537  0.83589232  0.50235569  1
  Cr  Cr43  1  0.33714847  0.66863647  0.66983177  1
  Ni  Ni44  1  0.50490355  0.83762159  0.83913619  1
  Fe  Fe45  1  0.83736896  0.17011168  0.50341796  1
  Fe  Fe46  1  0.67137091  1.00249605  0.67020584  1
  Fe  Fe47  1  0.83500022  0.16919189  0.83697238  1
  Ni  Ni48  1  0.83759214  0.50392417  0.50351846  1
  Fe  Fe49  1  0.67039439  0.33676541  0.66968691  1
  Fe  Fe50  1  0.83594270  0.50340809  0.83591227  1
  Fe  Fe51  1  0.83737789  0.83593149  0.50392790  1
  Ni  Ni52  1  0.67195871  0.66919889  0.66913532  1
  Fe  Fe53  1  0.83626245  0.83726555  0.83614226  1
" 