2051,Ni26Fe69Cr3_16,-233.760304868981, 190.930646366116,Ni26Fe69Cr3,"# generated using pymatgen
 data_Cr3Fe37Ni14
_symmetry_space_group_name_H-M   'P 1'
_cell_length_a   7.41524676
_cell_length_b   7.41524676
_cell_length_c   10.48674254
_cell_angle_alpha   90.00000000
_cell_angle_beta   90.00000000
_cell_angle_gamma   90.00000000
_symmetry_Int_Tables_number   1
_chemical_formula_structural   Cr3Fe37Ni14
_chemical_formula_sum   'Cr3 Fe37 Ni14'
_cell_volume   576.62281471
_cell_formula_units_Z   1
loop_
 _symmetry_equiv_pos_site_id
 _symmetry_equiv_pos_as_xyz
  1  'x, y, z'
loop_
 _atom_site_type_symbol
 _atom_site_label
 _atom_site_symmetry_multiplicity
 _atom_site_fract_x
 _atom_site_fract_y
 _atom_site_fract_z
 _atom_site_occupancy
  Fe  Fe0  1  1.00308232  0.00386622  1.00270804  1
  Fe  Fe1  1  0.17032569  0.17072179  0.16976562  1
  Fe  Fe2  1  1.00297113  1.00342884  0.33753710  1
  Ni  Ni3  1  0.00477822  0.33812756  0.00392021  1
  Fe  Fe4  1  0.16908690  0.50242240  0.16910790  1
  Fe  Fe5  1  1.00313037  0.33652827  0.33738630  1
  Ni  Ni6  1  0.00358438  0.66876130  1.00344363  1
  Fe  Fe7  1  0.16918833  0.83733561  0.16925845  1
  Fe  Fe8  1  1.00162679  0.67052143  0.33648447  1
  Fe  Fe9  1  0.33648254  0.00420698  1.00298006  1
  Fe  Fe10  1  0.50357200  0.16981009  0.16953110  1
  Fe  Fe11  1  0.33648908  0.00582141  0.33636483  1
  Ni  Ni12  1  0.33566345  0.33752945  0.00403777  1
  Fe  Fe13  1  0.50400324  0.50252190  0.16925823  1
  Fe  Fe14  1  0.33725351  0.33505358  0.33645255  1
  Fe  Fe15  1  0.33629518  0.66953183  0.00388263  1
  Fe  Fe16  1  0.50480858  0.83814324  0.16982767  1
  Cr  Cr17  1  0.33593434  0.66864049  0.33625952  1
  Ni  Ni18  1  0.66972323  1.00267869  1.00272016  1
  Fe  Fe19  1  0.83658124  0.16991304  0.17018542  1
  Ni  Ni20  1  0.67118859  0.00414046  0.33711880  1
  Fe  Fe21  1  0.67052762  0.33650775  1.00310960  1
  Fe  Fe22  1  0.83738987  0.50365921  0.16976566  1
  Fe  Fe23  1  0.67009365  0.33639886  0.33713178  1
  Fe  Fe24  1  0.67086714  0.66974603  1.00320410  1
  Fe  Fe25  1  0.83647972  0.83690518  0.16953128  1
  Fe  Fe26  1  0.67248660  0.66975773  0.33614387  1
  Fe  Fe27  1  0.16966016  0.17033845  0.50405632  1
  Ni  Ni28  1  1.00324980  0.00457434  0.66997456  1
  Fe  Fe29  1  0.16954290  0.16998121  0.83665916  1
  Ni  Ni30  1  0.16934933  0.50306490  0.50417843  1
  Ni  Ni31  1  0.00430326  0.33666919  0.67008905  1
  Fe  Fe32  1  0.16916078  0.50252317  0.83692377  1
  Fe  Fe33  1  0.16732164  0.83798054  0.50469053  1
  Fe  Fe34  1  0.00531153  0.67127034  0.67053966  1
  Fe  Fe35  1  0.16952414  0.83797942  0.83652479  1
  Fe  Fe36  1  0.50365634  0.17158897  0.50403075  1
  Ni  Ni37  1  0.33653360  0.00433647  0.67027857  1
  Ni  Ni38  1  0.50444067  0.16988137  0.83618183  1
  Fe  Fe39  1  0.50343621  0.49983175  0.50328180  1
  Fe  Fe40  1  0.33664727  0.33571167  0.67053935  1
  Fe  Fe41  1  0.50343109  0.50203055  0.83793828  1
  Cr  Cr42  1  0.50377335  0.83938013  0.50433272  1
  Fe  Fe43  1  0.33360107  0.67008169  0.67025290  1
  Fe  Fe44  1  0.50397431  0.83938210  0.83713026  1
  Ni  Ni45  1  0.83650246  0.16995076  0.50380810  1
  Ni  Ni46  1  0.67069165  0.00528501  0.67064050  1
  Ni  Ni47  1  0.83586093  0.16930853  0.83738406  1
  Fe  Fe48  1  0.83824932  0.50216956  0.50267588  1
  Fe  Fe49  1  0.67080819  0.33301663  0.67023701  1
  Fe  Fe50  1  0.83788976  0.50204802  0.83803734  1
  Fe  Fe51  1  0.83949623  0.83820518  0.50317846  1
  Cr  Cr52  1  0.67092015  0.67083467  0.67052597  1
  Ni  Ni53  1  0.83766460  0.83851053  0.83740767  1
" 