6527,Ni26Fe69Cr3_18,-233.061985086527, 192.229015501466,Ni26Fe69Cr3,"# generated using pymatgen
 data_Cr3Fe37Ni14
_symmetry_space_group_name_H-M   'P 1'
_cell_length_a   7.40727425
_cell_length_b   7.40727425
_cell_length_c   10.47546770
_cell_angle_alpha   90.00000000
_cell_angle_beta   90.00000000
_cell_angle_gamma   90.00000000
_symmetry_Int_Tables_number   1
_chemical_formula_structural   Cr3Fe37Ni14
_chemical_formula_sum   'Cr3 Fe37 Ni14'
_cell_volume   574.76494263
_cell_formula_units_Z   1
loop_
 _symmetry_equiv_pos_site_id
 _symmetry_equiv_pos_as_xyz
  1  'x, y, z'
loop_
 _atom_site_type_symbol
 _atom_site_label
 _atom_site_symmetry_multiplicity
 _atom_site_fract_x
 _atom_site_fract_y
 _atom_site_fract_z
 _atom_site_occupancy
  Ni  Ni0  1  1.00391192  1.00348626  0.00410700  1
  Fe  Fe1  1  0.17079213  0.17011741  0.17050458  1
  Fe  Fe2  1  1.00352164  0.00420025  0.33726851  1
  Fe  Fe3  1  0.00410540  0.33729798  0.00407069  1
  Fe  Fe4  1  0.17089012  0.50448793  0.17115839  1
  Ni  Ni5  1  1.00350347  0.33794541  0.33751599  1
  Fe  Fe6  1  1.00373374  0.67093922  1.00373142  1
  Fe  Fe7  1  0.17086189  0.83749941  0.17099396  1
  Ni  Ni8  1  0.00403481  0.67067184  0.33810316  1
  Fe  Fe9  1  0.33644897  0.00466120  0.00528639  1
  Fe  Fe10  1  0.50424475  0.17055555  0.17084676  1
  Fe  Fe11  1  0.33728134  1.00392340  0.33740668  1
  Fe  Fe12  1  0.33666489  0.33699431  1.00327449  1
  Fe  Fe13  1  0.50431074  0.50421374  0.17094415  1
  Fe  Fe14  1  0.33585618  0.33718923  0.33712417  1
  Fe  Fe15  1  0.33623790  0.67044788  0.00445646  1
  Ni  Ni16  1  0.50442573  0.83773121  0.17155372  1
  Fe  Fe17  1  0.33619581  0.67099248  0.33736507  1
  Fe  Fe18  1  0.67182822  0.00429085  0.00478271  1
  Fe  Fe19  1  0.83706684  0.17052480  0.17091288  1
  Fe  Fe20  1  0.67130203  1.00386293  0.33763248  1
  Fe  Fe21  1  0.67133570  0.33708992  0.00428480  1
  Fe  Fe22  1  0.83690338  0.50414540  0.17098254  1
  Ni  Ni23  1  0.67155400  0.33658049  0.33715864  1
  Fe  Fe24  1  0.67213417  0.67072472  0.00440600  1
  Fe  Fe25  1  0.83734224  0.83743349  0.17047343  1
  Fe  Fe26  1  0.67220777  0.67123125  0.33679785  1
  Fe  Fe27  1  0.17088977  0.17027968  0.50403053  1
  Fe  Fe28  1  0.00447001  1.00324520  0.67110521  1
  Fe  Fe29  1  0.16991983  0.17092363  0.83757053  1
  Ni  Ni30  1  0.16925585  0.50342385  0.50375036  1
  Fe  Fe31  1  0.00505976  0.33867508  0.67055958  1
  Ni  Ni32  1  0.17015730  0.50276341  0.83716072  1
  Ni  Ni33  1  0.17074884  0.83689546  0.50458666  1
  Fe  Fe34  1  0.00645353  0.67018276  0.67031472  1
  Fe  Fe35  1  0.16814808  0.83652845  0.83708980  1
  Fe  Fe36  1  0.50367489  0.16868261  0.50415822  1
  Fe  Fe37  1  0.33701114  0.00433097  0.66941112  1
  Fe  Fe38  1  0.50437368  0.17313710  0.83710111  1
  Cr  Cr39  1  0.50211877  0.50383995  0.50349258  1
  Ni  Ni40  1  0.33669956  0.33692590  0.67162458  1
  Fe  Fe41  1  0.50335769  0.50203897  0.83760068  1
  Ni  Ni42  1  0.50366665  0.84007279  0.50274123  1
  Ni  Ni43  1  0.33461693  0.67035606  0.67077244  1
  Cr  Cr44  1  0.50384149  0.83849049  0.83711795  1
  Fe  Fe45  1  0.83753836  0.17038325  0.50350839  1
  Fe  Fe46  1  0.67062234  0.00573038  0.66968859  1
  Fe  Fe47  1  0.83781264  0.17074641  0.83768447  1
  Fe  Fe48  1  0.84025444  0.50431006  0.50280885  1
  Fe  Fe49  1  0.67065161  0.33557499  0.67139209  1
  Ni  Ni50  1  0.83938343  0.50270895  0.83781621  1
  Ni  Ni51  1  0.83769150  0.83914104  0.50276295  1
  Cr  Cr52  1  0.67190971  0.67086226  0.66990896  1
  Ni  Ni53  1  0.83885427  0.83838954  0.83897637  1
" 