388,Ni26Fe69Cr3_17,-234.256602213609, 193.85108578181,Ni26Fe69Cr3,"# generated using pymatgen
 data_Cr3Fe37Ni14
_symmetry_space_group_name_H-M   'P 1'
_cell_length_a   7.41875314
_cell_length_b   7.41875314
_cell_length_c   10.49170130
_cell_angle_alpha   90.00000000
_cell_angle_beta   90.00000000
_cell_angle_gamma   90.00000000
_symmetry_Int_Tables_number   1
_chemical_formula_structural   Cr3Fe37Ni14
_chemical_formula_sum   'Cr3 Fe37 Ni14'
_cell_volume   577.44118766
_cell_formula_units_Z   1
loop_
 _symmetry_equiv_pos_site_id
 _symmetry_equiv_pos_as_xyz
  1  'x, y, z'
loop_
 _atom_site_type_symbol
 _atom_site_label
 _atom_site_symmetry_multiplicity
 _atom_site_fract_x
 _atom_site_fract_y
 _atom_site_fract_z
 _atom_site_occupancy
  Cr  Cr0  1  0.00372367  0.00419063  1.00282906  1
  Fe  Fe1  1  0.17038769  0.17092504  0.17134832  1
  Ni  Ni2  1  1.00288460  0.00350575  0.33744339  1
  Fe  Fe3  1  0.00346670  0.33791740  1.00318624  1
  Fe  Fe4  1  0.16995972  0.50380031  0.17072772  1
  Ni  Ni5  1  0.00439514  0.33564981  0.33612174  1
  Fe  Fe6  1  0.00378519  0.66791804  0.00435378  1
  Fe  Fe7  1  0.17049489  0.83503772  0.17112491  1
  Ni  Ni8  1  1.00285706  0.67060797  0.33547072  1
  Fe  Fe9  1  0.33806432  0.00377180  1.00249325  1
  Fe  Fe10  1  0.50362665  0.17012883  0.16939447  1
  Fe  Fe11  1  0.33522745  1.00314371  0.33679841  1
  Fe  Fe12  1  0.33669312  0.33608362  0.00337981  1
  Ni  Ni13  1  0.50274491  0.50286717  0.17022220  1
  Ni  Ni14  1  0.33628041  0.33681378  0.33609272  1
  Fe  Fe15  1  0.33653688  0.66991077  0.00386221  1
  Fe  Fe16  1  0.50375959  0.83558767  0.17015366  1
  Ni  Ni17  1  0.33719830  0.66882223  0.33693696  1
  Fe  Fe18  1  0.66761003  0.00409226  0.00347884  1
  Fe  Fe19  1  0.83574896  0.17066451  0.17095041  1
  Fe  Fe20  1  0.67096430  1.00230355  0.33697778  1
  Fe  Fe21  1  0.66960379  0.33638598  1.00316607  1
  Fe  Fe22  1  0.83630424  0.50393181  0.17032780  1
  Fe  Fe23  1  0.67003021  0.33785993  0.33615253  1
  Fe  Fe24  1  0.66943981  0.66928289  0.00448094  1
  Ni  Ni25  1  0.83616599  0.83535378  0.17149747  1
  Ni  Ni26  1  0.66971004  0.67033148  0.33665000  1
  Ni  Ni27  1  0.17020214  0.17061381  0.50316037  1
  Fe  Fe28  1  0.00330159  0.00525632  0.66869073  1
  Ni  Ni29  1  0.17187207  0.17148451  0.83557973  1
  Fe  Fe30  1  0.17020849  0.50242265  0.50158013  1
  Fe  Fe31  1  1.00273604  0.33460664  0.66968414  1
  Fe  Fe32  1  0.17088264  0.50172791  0.83745139  1
  Fe  Fe33  1  0.17001158  0.83760104  0.50185064  1
  Cr  Cr34  1  0.00361528  0.66975442  0.66888265  1
  Fe  Fe35  1  0.17361448  0.83748450  0.83678222  1
  Fe  Fe36  1  0.50325656  0.16937925  0.50392568  1
  Fe  Fe37  1  0.33714063  0.00332634  0.67047294  1
  Ni  Ni38  1  0.50159758  0.17061369  0.83678885  1
  Fe  Fe39  1  0.50318766  0.50381894  0.50230932  1
  Fe  Fe40  1  0.33718468  0.33601406  0.66979724  1
  Fe  Fe41  1  0.50314279  0.50276165  0.83687788  1
  Fe  Fe42  1  0.50374928  0.83656800  0.50356486  1
  Fe  Fe43  1  0.33914771  0.67042997  0.66965496  1
  Fe  Fe44  1  0.50156935  0.83762071  0.83605174  1
  Fe  Fe45  1  0.83740068  0.16917890  0.50313314  1
  Ni  Ni46  1  0.66895878  0.00403220  0.67033810  1
  Fe  Fe47  1  0.83560457  0.17212401  0.83568092  1
  Fe  Fe48  1  0.83636610  0.50291596  0.50228236  1
  Fe  Fe49  1  0.66984256  0.33661662  0.67044688  1
  Fe  Fe50  1  0.83573824  0.50008072  0.83714910  1
  Ni  Ni51  1  0.83554873  0.83652022  0.50186252  1
  Ni  Ni52  1  0.66750369  0.66993525  0.66996022  1
  Cr  Cr53  1  0.83471654  0.83598737  0.83618400  1
" 