4521,Ni26Fe69Cr3_4,-233.366199121047, 192.194949357445,Ni26Fe69Cr3,"# generated using pymatgen
 data_Cr3Fe37Ni14
_symmetry_space_group_name_H-M   'P 1'
_cell_length_a   7.40885002
_cell_length_b   7.40885002
_cell_length_c   10.47769618
_cell_angle_alpha   90.00000000
_cell_angle_beta   90.00000000
_cell_angle_gamma   90.00000000
_symmetry_Int_Tables_number   1
_chemical_formula_structural   Cr3Fe37Ni14
_chemical_formula_sum   'Cr3 Fe37 Ni14'
_cell_volume   575.13183598
_cell_formula_units_Z   1
loop_
 _symmetry_equiv_pos_site_id
 _symmetry_equiv_pos_as_xyz
  1  'x, y, z'
loop_
 _atom_site_type_symbol
 _atom_site_label
 _atom_site_symmetry_multiplicity
 _atom_site_fract_x
 _atom_site_fract_y
 _atom_site_fract_z
 _atom_site_occupancy
  Ni  Ni0  1  1.00181924  0.00631713  0.00456534  1
  Ni  Ni1  1  0.17165356  0.17175551  0.17039274  1
  Fe  Fe2  1  1.00291027  0.00491041  0.33753010  1
  Fe  Fe3  1  1.00364828  0.33777053  0.00433999  1
  Ni  Ni4  1  0.17054093  0.50239063  0.16922058  1
  Fe  Fe5  1  0.00431218  0.33758121  0.33711046  1
  Fe  Fe6  1  1.00134708  0.66946846  0.00424318  1
  Cr  Cr7  1  0.17048269  0.83729260  0.17013093  1
  Fe  Fe8  1  1.00313325  0.66929107  0.33787850  1
  Fe  Fe9  1  0.33918397  0.00497150  0.00408753  1
  Fe  Fe10  1  0.50391709  0.17071258  0.17051131  1
  Fe  Fe11  1  0.33797405  0.00507699  0.33796951  1
  Fe  Fe12  1  0.33716958  0.33701447  0.00450298  1
  Fe  Fe13  1  0.50366729  0.50456286  0.17022835  1
  Fe  Fe14  1  0.33650471  0.33734621  0.33693953  1
  Ni  Ni15  1  0.33885035  0.66817087  0.00442798  1
  Fe  Fe16  1  0.50566846  0.83650530  0.16997520  1
  Fe  Fe17  1  0.33751476  0.66936015  0.33828597  1
  Ni  Ni18  1  0.67198861  1.00340188  0.00439137  1
  Fe  Fe19  1  0.83843722  0.17036441  0.17076744  1
  Fe  Fe20  1  0.67089753  1.00389902  0.33689610  1
  Fe  Fe21  1  0.67096519  0.33763250  1.00332593  1
  Ni  Ni22  1  0.83670307  0.50436465  0.17108727  1
  Fe  Fe23  1  0.67096738  0.33712297  0.33793583  1
  Ni  Ni24  1  0.67003665  0.67131820  0.00401924  1
  Ni  Ni25  1  0.83520853  0.83684548  0.16963535  1
  Fe  Fe26  1  0.67113277  0.67076060  0.33675283  1
  Fe  Fe27  1  0.17004864  0.17083741  0.50342052  1
  Fe  Fe28  1  1.00250779  0.00606489  0.66997771  1
  Fe  Fe29  1  0.16980807  0.17227692  0.83801697  1
  Ni  Ni30  1  0.17203004  0.50406949  0.50398251  1
  Fe  Fe31  1  1.00329349  0.33689348  0.67033185  1
  Fe  Fe32  1  0.17152502  0.50200283  0.83794844  1
  Fe  Fe33  1  0.17120603  0.83794165  0.50348412  1
  Cr  Cr34  1  1.00340552  0.66980684  0.67019242  1
  Cr  Cr35  1  0.17197945  0.83755093  0.83880673  1
  Fe  Fe36  1  0.50419168  0.17128833  0.50408081  1
  Fe  Fe37  1  0.33886710  0.00408920  0.66972766  1
  Fe  Fe38  1  0.50464142  0.17093311  0.83719029  1
  Fe  Fe39  1  0.50412047  0.50369838  0.50468194  1
  Fe  Fe40  1  0.33772317  0.33851615  0.67033808  1
  Fe  Fe41  1  0.50439007  0.50481041  0.83686903  1
  Fe  Fe42  1  0.50373385  0.83679434  0.50439229  1
  Ni  Ni43  1  0.33948487  0.66958101  0.66890730  1
  Fe  Fe44  1  0.50605025  0.83603514  0.83741297  1
  Ni  Ni45  1  0.83643054  0.17048396  0.50455577  1
  Fe  Fe46  1  0.67040994  1.00351718  0.67066883  1
  Fe  Fe47  1  0.83733298  0.17061639  0.83676797  1
  Fe  Fe48  1  0.83639255  0.50254534  0.50364003  1
  Ni  Ni49  1  0.67064746  0.33698602  0.67016865  1
  Ni  Ni50  1  0.83530504  0.50283086  0.83721970  1
  Fe  Fe51  1  0.83684317  0.83801275  0.50274256  1
  Ni  Ni52  1  0.66855678  0.66994829  0.67034958  1
  Fe  Fe53  1  0.83452885  0.83774943  0.83906265  1
" 