3256,Ni26Fe69Cr3_8,-233.268629036636, 196.7568582096,Ni26Fe69Cr3,"# generated using pymatgen
 data_Cr3Fe37Ni14
_symmetry_space_group_name_H-M   'P 1'
_cell_length_a   7.40986631
_cell_length_b   7.40986631
_cell_length_c   10.47913343
_cell_angle_alpha   90.00000000
_cell_angle_beta   90.00000000
_cell_angle_gamma   90.00000000
_symmetry_Int_Tables_number   1
_chemical_formula_structural   Cr3Fe37Ni14
_chemical_formula_sum   'Cr3 Fe37 Ni14'
_cell_volume   575.36854482
_cell_formula_units_Z   1
loop_
 _symmetry_equiv_pos_site_id
 _symmetry_equiv_pos_as_xyz
  1  'x, y, z'
loop_
 _atom_site_type_symbol
 _atom_site_label
 _atom_site_symmetry_multiplicity
 _atom_site_fract_x
 _atom_site_fract_y
 _atom_site_fract_z
 _atom_site_occupancy
  Fe  Fe0  1  0.00434047  1.00327776  1.00378855  1
  Fe  Fe1  1  0.17094569  0.16962425  0.17021408  1
  Ni  Ni2  1  0.00523653  1.00309934  0.33657284  1
  Fe  Fe3  1  0.00440663  0.33640195  1.00333946  1
  Fe  Fe4  1  0.17122833  0.50405156  0.17064058  1
  Fe  Fe5  1  0.00419032  0.33848310  0.33683193  1
  Fe  Fe6  1  0.00437497  0.67189788  1.00382905  1
  Ni  Ni7  1  0.17130122  0.83686585  0.16989211  1
  Fe  Fe8  1  1.00353710  0.67085111  0.33747617  1
  Ni  Ni9  1  0.33638551  0.00408120  0.00469399  1
  Ni  Ni10  1  0.50443637  0.16979132  0.17046666  1
  Fe  Fe11  1  0.33634321  0.00428832  0.33547840  1
  Fe  Fe12  1  0.33770497  0.33632749  0.00389712  1
  Fe  Fe13  1  0.50337540  0.50439882  0.17100434  1
  Fe  Fe14  1  0.33744860  0.33731638  0.33754796  1
  Ni  Ni15  1  0.33589661  0.67010537  0.00477587  1
  Fe  Fe16  1  0.50333470  0.83764096  0.17000142  1
  Fe  Fe17  1  0.33605338  0.66996771  0.33619434  1
  Ni  Ni18  1  0.67128256  0.00523071  0.00466390  1
  Fe  Fe19  1  0.83722718  0.16966925  0.17031970  1
  Fe  Fe20  1  0.67082471  1.00363379  0.33479593  1
  Fe  Fe21  1  0.66946438  0.33629320  1.00341643  1
  Fe  Fe22  1  0.83697072  0.50397774  0.17132848  1
  Fe  Fe23  1  0.66993856  0.33819417  0.33711913  1
  Fe  Fe24  1  0.67062955  0.67087070  0.00492600  1
  Fe  Fe25  1  0.83687895  0.83792768  0.17043926  1
  Ni  Ni26  1  0.67136290  0.66880245  0.33703157  1
  Fe  Fe27  1  0.17211834  0.17150955  0.50411193  1
  Fe  Fe28  1  0.00396243  1.00369977  0.67152986  1
  Ni  Ni29  1  0.16937233  0.17118046  0.83777724  1
  Ni  Ni30  1  0.17048820  0.50389796  0.50331652  1
  Fe  Fe31  1  0.00428587  0.33799917  0.67140477  1
  Fe  Fe32  1  0.16992610  0.50383977  0.83700978  1
  Fe  Fe33  1  0.16857923  0.83620854  0.50311420  1
  Fe  Fe34  1  1.00312599  0.66987959  0.67026727  1
  Fe  Fe35  1  0.16846514  0.83812544  0.83809528  1
  Fe  Fe36  1  0.50239838  0.17381777  0.50362945  1
  Fe  Fe37  1  0.33582666  0.00628247  0.67113497  1
  Fe  Fe38  1  0.50466364  0.17133156  0.83784246  1
  Ni  Ni39  1  0.50346059  0.50351938  0.50365662  1
  Fe  Fe40  1  0.33747174  0.33738817  0.67013035  1
  Fe  Fe41  1  0.50433407  0.50186706  0.83661690  1
  Cr  Cr42  1  0.50412757  0.83668360  0.50272739  1
  Fe  Fe43  1  0.33605223  0.66790624  0.67048776  1
  Cr  Cr44  1  0.50412699  0.83684956  0.83882373  1
  Cr  Cr45  1  0.83727460  0.17124845  0.50340713  1
  Fe  Fe46  1  0.67178617  0.00512181  0.67240591  1
  Ni  Ni47  1  0.83815952  0.17037985  0.83830903  1
  Ni  Ni48  1  0.83762504  0.50453414  0.50397633  1
  Ni  Ni49  1  0.66937900  0.33835796  0.67107697  1
  Fe  Fe50  1  0.83731223  0.50325421  0.83645991  1
  Fe  Fe51  1  0.83878138  0.83409963  0.50384915  1
  Fe  Fe52  1  0.67239644  0.66823400  0.66965027  1
  Ni  Ni53  1  0.83773725  0.83807050  0.83686025  1
" 