3893,Ni26Fe65Cr8_9,-233.19545484367, 190.693623619535,Ni26Fe65Cr8,"# generated using pymatgen
 data_Cr5(Fe5Ni2)7
_symmetry_space_group_name_H-M   'P 1'
_cell_length_a   7.42674574
_cell_length_b   7.42674574
_cell_length_c   10.50300455
_cell_angle_alpha   90.00000000
_cell_angle_beta   90.00000000
_cell_angle_gamma   90.00000000
_symmetry_Int_Tables_number   1
_chemical_formula_structural   Cr5(Fe5Ni2)7
_chemical_formula_sum   'Cr5 Fe35 Ni14'
_cell_volume   579.30952029
_cell_formula_units_Z   1
loop_
 _symmetry_equiv_pos_site_id
 _symmetry_equiv_pos_as_xyz
  1  'x, y, z'
loop_
 _atom_site_type_symbol
 _atom_site_label
 _atom_site_symmetry_multiplicity
 _atom_site_fract_x
 _atom_site_fract_y
 _atom_site_fract_z
 _atom_site_occupancy
  Ni  Ni0  1  0.00340279  0.00284403  0.00285764  1
  Fe  Fe1  1  0.16983821  0.16798279  0.16958946  1
  Fe  Fe2  1  0.00374150  0.00471134  0.33647930  1
  Fe  Fe3  1  0.00294598  0.33476834  1.00056267  1
  Cr  Cr4  1  0.16968546  0.50288307  0.16883123  1
  Fe  Fe5  1  0.00283059  0.33474233  0.33899660  1
  Ni  Ni6  1  0.00404250  0.67207128  0.99982093  1
  Fe  Fe7  1  0.17058001  0.83785368  0.16871670  1
  Fe  Fe8  1  0.00340292  0.66869358  0.33808622  1
  Fe  Fe9  1  0.33546391  1.00268838  0.00308668  1
  Ni  Ni10  1  0.50230621  0.16855879  0.16807726  1
  Fe  Fe11  1  0.33582830  0.00339775  0.33510759  1
  Ni  Ni12  1  0.33705752  0.33469342  1.00254414  1
  Fe  Fe13  1  0.50187267  0.50076912  0.17086547  1
  Ni  Ni14  1  0.33673332  0.33605873  0.33652911  1
  Fe  Fe15  1  0.33414214  0.67025744  1.00149142  1
  Fe  Fe16  1  0.50047245  0.83701229  0.17017886  1
  Fe  Fe17  1  0.33736279  0.66880474  0.33771828  1
  Fe  Fe18  1  0.66889694  0.00527437  1.00222732  1
  Fe  Fe19  1  0.83555624  0.16937859  0.16931328  1
  Fe  Fe20  1  0.66856761  0.00397051  0.33555319  1
  Fe  Fe21  1  0.66893126  0.33344181  0.00288042  1
  Cr  Cr22  1  0.83674712  0.50150953  0.16953593  1
  Ni  Ni23  1  0.66861474  0.33664109  0.33558731  1
  Cr  Cr24  1  0.66833546  0.66923810  1.00245136  1
  Cr  Cr25  1  0.83716992  0.83709323  0.16930343  1
  Fe  Fe26  1  0.66737714  0.66790059  0.33840075  1
  Ni  Ni27  1  0.16878280  0.16983910  0.50279806  1
  Fe  Fe28  1  0.00347663  0.00307263  0.66966035  1
  Fe  Fe29  1  0.16934669  0.16986184  0.83553785  1
  Ni  Ni30  1  0.16857417  0.50246757  0.50361893  1
  Ni  Ni31  1  0.00377046  0.33470289  0.66852633  1
  Fe  Fe32  1  0.16968480  0.50247193  0.83572247  1
  Fe  Fe33  1  0.16975681  0.83501972  0.50279165  1
  Fe  Fe34  1  0.00312869  0.66783480  0.66945833  1
  Fe  Fe35  1  0.16904493  0.83580474  0.83662698  1
  Cr  Cr36  1  0.50133730  0.17010546  0.50468851  1
  Fe  Fe37  1  0.33508620  1.00207928  0.66994887  1
  Fe  Fe38  1  0.50228596  0.16983574  0.83662055  1
  Ni  Ni39  1  0.50288434  0.50398611  0.50231686  1
  Ni  Ni40  1  0.33432076  0.33704879  0.66906832  1
  Fe  Fe41  1  0.50143079  0.50198056  0.83434248  1
  Fe  Fe42  1  0.50229726  0.83294048  0.50333253  1
  Ni  Ni43  1  0.33781025  0.66877195  0.66912175  1
  Fe  Fe44  1  0.50210119  0.83632565  0.83462597  1
  Fe  Fe45  1  0.83820292  0.17129523  0.50266544  1
  Fe  Fe46  1  0.66957507  1.00178764  0.67036154  1
  Fe  Fe47  1  0.83650810  0.16919152  0.83615853  1
  Ni  Ni48  1  0.83668419  0.50423577  0.50302774  1
  Fe  Fe49  1  0.66976962  0.33838450  0.66927501  1
  Fe  Fe50  1  0.83702731  0.50228879  0.83488627  1
  Fe  Fe51  1  0.83608747  0.83501805  0.50267695  1
  Ni  Ni52  1  0.66864114  0.67026419  0.66792188  1
  Fe  Fe53  1  0.83699626  0.83666390  0.83594508  1
" 