1632,Ni26Fe65Cr8_10,-232.799344565951, 198.003067074143,Ni26Fe65Cr8,"# generated using pymatgen
 data_Cr5(Fe5Ni2)7
_symmetry_space_group_name_H-M   'P 1'
_cell_length_a   7.41793453
_cell_length_b   7.41793453
_cell_length_c   10.49054361
_cell_angle_alpha   90.00000000
_cell_angle_beta   90.00000000
_cell_angle_gamma   90.00000000
_symmetry_Int_Tables_number   1
_chemical_formula_structural   Cr5(Fe5Ni2)7
_chemical_formula_sum   'Cr5 Fe35 Ni14'
_cell_volume   577.25005769
_cell_formula_units_Z   1
loop_
 _symmetry_equiv_pos_site_id
 _symmetry_equiv_pos_as_xyz
  1  'x, y, z'
loop_
 _atom_site_type_symbol
 _atom_site_label
 _atom_site_symmetry_multiplicity
 _atom_site_fract_x
 _atom_site_fract_y
 _atom_site_fract_z
 _atom_site_occupancy
  Ni  Ni0  1  0.00411067  0.00514400  0.00335038  1
  Fe  Fe1  1  0.16786427  0.17052908  0.17109832  1
  Ni  Ni2  1  0.00390966  0.00457479  0.33676884  1
  Ni  Ni3  1  1.00174683  0.33744350  0.00410360  1
  Fe  Fe4  1  0.16816383  0.50393877  0.17014936  1
  Fe  Fe5  1  1.00266531  0.33340770  0.33404288  1
  Fe  Fe6  1  1.00313798  0.67092081  0.00425624  1
  Fe  Fe7  1  0.16837770  0.83604122  0.17080326  1
  Fe  Fe8  1  1.00263967  0.67327967  0.33381647  1
  Cr  Cr9  1  0.33765833  1.00232867  0.00456011  1
  Fe  Fe10  1  0.50545735  0.17036992  0.17092503  1
  Ni  Ni11  1  0.33601903  1.00297374  0.33704419  1
  Fe  Fe12  1  0.33509808  0.33751522  0.00412111  1
  Ni  Ni13  1  0.50227852  0.50322153  0.17020065  1
  Fe  Fe14  1  0.33568695  0.33267890  0.33404540  1
  Fe  Fe15  1  0.33524443  0.66749089  1.00313793  1
  Fe  Fe16  1  0.50572231  0.83509642  0.17060043  1
  Fe  Fe17  1  0.33640090  0.67309370  0.33434659  1
  Fe  Fe18  1  0.67360330  0.00415004  1.00292088  1
  Fe  Fe19  1  0.83675474  0.17054719  0.16805168  1
  Fe  Fe20  1  0.67095950  0.00355488  0.33569240  1
  Fe  Fe21  1  0.66993465  0.33605972  0.00345561  1
  Ni  Ni22  1  0.83547815  0.50424499  0.16948161  1
  Fe  Fe23  1  0.67050261  0.33396919  0.33374683  1
  Fe  Fe24  1  0.67038451  0.66969143  0.00377224  1
  Ni  Ni25  1  0.83782853  0.83891792  0.16826026  1
  Fe  Fe26  1  0.67107506  0.67366556  0.33413130  1
  Ni  Ni27  1  0.16874042  0.16773565  0.50435246  1
  Fe  Fe28  1  1.00291442  1.00209116  0.67054514  1
  Fe  Fe29  1  0.17096930  0.17029704  0.83623529  1
  Cr  Cr30  1  0.16960752  0.50073957  0.50104498  1
  Fe  Fe31  1  0.00353945  0.33500246  0.67270287  1
  Fe  Fe32  1  0.16888446  0.50267256  0.83772510  1
  Fe  Fe33  1  0.17026470  0.83895160  0.50172799  1
  Fe  Fe34  1  1.00257337  0.67218706  0.67163605  1
  Fe  Fe35  1  0.16904714  0.83799052  0.83735431  1
  Fe  Fe36  1  0.50171652  0.16853671  0.50285357  1
  Ni  Ni37  1  0.33644556  0.00473474  0.66919947  1
  Fe  Fe38  1  0.50526655  0.16952248  0.83643298  1
  Cr  Cr39  1  0.50420665  0.50417559  0.50098878  1
  Fe  Fe40  1  0.33775982  0.33525138  0.67159222  1
  Ni  Ni41  1  0.50264689  0.50378579  0.83802196  1
  Ni  Ni42  1  0.50493058  0.83935031  0.50127402  1
  Cr  Cr43  1  0.33887122  0.67345574  0.67043003  1
  Ni  Ni44  1  0.50381433  0.83548391  0.83854963  1
  Fe  Fe45  1  0.83610529  0.16794637  0.50474288  1
  Fe  Fe46  1  0.66836198  1.00056476  0.67130830  1
  Ni  Ni47  1  0.83937022  0.16877884  0.83770255  1
  Cr  Cr48  1  0.83682844  0.50301137  0.50322488  1
  Fe  Fe49  1  0.66898322  0.33487335  0.67279039  1
  Fe  Fe50  1  0.83479875  0.50285876  0.83759988  1
  Fe  Fe51  1  0.83697184  0.83815187  0.50236594  1
  Ni  Ni52  1  0.67134133  0.66939198  0.67100751  1
  Fe  Fe53  1  0.83510028  0.83637213  0.83847034  1
" 