93,Ni26Fe69Cr3_13,-233.198361735213, 184.766946340179,Ni26Fe69Cr3,"# generated using pymatgen
 data_Cr3Fe37Ni14
_symmetry_space_group_name_H-M   'P 1'
_cell_length_a   7.41099502
_cell_length_b   7.41099502
_cell_length_c   10.48072967
_cell_angle_alpha   90.00000000
_cell_angle_beta   90.00000000
_cell_angle_gamma   90.00000000
_symmetry_Int_Tables_number   1
_chemical_formula_structural   Cr3Fe37Ni14
_chemical_formula_sum   'Cr3 Fe37 Ni14'
_cell_volume   575.63151461
_cell_formula_units_Z   1
loop_
 _symmetry_equiv_pos_site_id
 _symmetry_equiv_pos_as_xyz
  1  'x, y, z'
loop_
 _atom_site_type_symbol
 _atom_site_label
 _atom_site_symmetry_multiplicity
 _atom_site_fract_x
 _atom_site_fract_y
 _atom_site_fract_z
 _atom_site_occupancy
  Ni  Ni0  1  0.00424507  0.00514138  0.00409504  1
  Ni  Ni1  1  0.16989787  0.16792920  0.17072063  1
  Fe  Fe2  1  0.00452760  1.00321999  0.33646777  1
  Fe  Fe3  1  1.00327124  0.33676152  0.00402080  1
  Cr  Cr4  1  0.16983275  0.50495094  0.16906470  1
  Ni  Ni5  1  1.00172861  0.33560095  0.33675301  1
  Ni  Ni6  1  1.00251776  0.67139827  0.00422252  1
  Ni  Ni7  1  0.16945948  0.83852866  0.17051053  1
  Fe  Fe8  1  1.00357001  0.67065410  0.33773568  1
  Ni  Ni9  1  0.33634870  1.00290927  0.00416855  1
  Cr  Cr10  1  0.50311539  0.17004830  0.16935031  1
  Fe  Fe11  1  0.33477523  1.00315717  0.33790903  1
  Fe  Fe12  1  0.33518505  0.33721711  1.00061966  1
  Cr  Cr13  1  0.50494222  0.50417367  0.17024670  1
  Fe  Fe14  1  0.33441020  0.33695175  0.33945259  1
  Ni  Ni15  1  0.33787044  0.67300391  1.00220454  1
  Fe  Fe16  1  0.50206662  0.83645504  0.17020967  1
  Ni  Ni17  1  0.33802121  0.67288677  0.33814087  1
  Fe  Fe18  1  0.67158793  1.00026273  1.00245294  1
  Fe  Fe19  1  0.83959642  0.17138838  0.17062853  1
  Fe  Fe20  1  0.67154040  1.00262855  0.33860421  1
  Fe  Fe21  1  0.67251011  0.33786640  1.00132937  1
  Ni  Ni22  1  0.83660040  0.50450406  0.17035978  1
  Fe  Fe23  1  0.67198727  0.33809847  0.33900190  1
  Ni  Ni24  1  0.67071979  0.66964009  1.00352755  1
  Fe  Fe25  1  0.83777545  0.83683918  0.16952785  1
  Fe  Fe26  1  0.67242775  0.67092412  0.33746403  1
  Fe  Fe27  1  0.16999231  0.17022047  0.50321408  1
  Fe  Fe28  1  0.00562957  1.00203227  0.67148031  1
  Fe  Fe29  1  0.17144390  0.16990391  0.83785660  1
  Fe  Fe30  1  0.17023306  0.50466102  0.50330718  1
  Fe  Fe31  1  0.00543653  0.33739553  0.66936988  1
  Fe  Fe32  1  0.17052342  0.50557986  0.83700499  1
  Fe  Fe33  1  0.17085127  0.83639350  0.50420817  1
  Ni  Ni34  1  1.00355571  0.66916353  0.66980104  1
  Fe  Fe35  1  0.17076709  0.83625310  0.83787375  1
  Fe  Fe36  1  0.50387136  0.16989184  0.50401511  1
  Ni  Ni37  1  0.33786250  0.00399006  0.66983624  1
  Fe  Fe38  1  0.50329264  0.16990434  0.83713002  1
  Fe  Fe39  1  0.50307487  0.50480530  0.50450841  1
  Fe  Fe40  1  0.33659183  0.33817088  0.67078348  1
  Ni  Ni41  1  0.50380250  0.50403138  0.83657242  1
  Fe  Fe42  1  0.50320715  0.83699904  0.50417113  1
  Ni  Ni43  1  0.33680682  0.67147350  0.67087808  1
  Fe  Fe44  1  0.50303472  0.83671399  0.83709823  1
  Fe  Fe45  1  0.83737925  0.17024785  0.50404275  1
  Fe  Fe46  1  0.67016525  1.00221603  0.67009453  1
  Fe  Fe47  1  0.83678554  0.17066329  0.83678755  1
  Fe  Fe48  1  0.83790652  0.50380043  0.50313419  1
  Fe  Fe49  1  0.66935550  0.33826784  0.67073664  1
  Fe  Fe50  1  0.83735573  0.50476238  0.83782022  1
  Fe  Fe51  1  0.83754420  0.83698654  0.50469855  1
  Fe  Fe52  1  0.66957986  0.67080117  0.67147970  1
  Fe  Fe53  1  0.83763267  0.83574375  0.83752078  1
" 