585,Ni26Fe65Cr8_15,-233.099883485752, 188.934088834878,Ni26Fe65Cr8,"# generated using pymatgen
 data_Cr5(Fe5Ni2)7
_symmetry_space_group_name_H-M   'P 1'
_cell_length_a   7.42562490
_cell_length_b   7.42562490
_cell_length_c   10.50141944
_cell_angle_alpha   90.00000000
_cell_angle_beta   90.00000000
_cell_angle_gamma   90.00000000
_symmetry_Int_Tables_number   1
_chemical_formula_structural   Cr5(Fe5Ni2)7
_chemical_formula_sum   'Cr5 Fe35 Ni14'
_cell_volume   579.04727192
_cell_formula_units_Z   1
loop_
 _symmetry_equiv_pos_site_id
 _symmetry_equiv_pos_as_xyz
  1  'x, y, z'
loop_
 _atom_site_type_symbol
 _atom_site_label
 _atom_site_symmetry_multiplicity
 _atom_site_fract_x
 _atom_site_fract_y
 _atom_site_fract_z
 _atom_site_occupancy
  Cr  Cr0  1  1.00212447  1.00243224  1.00188410  1
  Ni  Ni1  1  0.16952220  0.17412573  0.17010840  1
  Ni  Ni2  1  1.00140828  0.00356719  0.33845577  1
  Fe  Fe3  1  0.00356481  0.33946006  1.00218106  1
  Fe  Fe4  1  0.16959234  0.50226023  0.16918565  1
  Fe  Fe5  1  0.00429376  0.33609876  0.33695545  1
  Ni  Ni6  1  1.00164650  0.66709557  1.00265054  1
  Cr  Cr7  1  0.16940380  0.83364272  0.16970307  1
  Fe  Fe8  1  1.00264317  0.66978201  0.33640629  1
  Cr  Cr9  1  0.33733269  1.00271505  0.00293545  1
  Fe  Fe10  1  0.50285566  0.17012700  0.16906134  1
  Cr  Cr11  1  0.33568264  1.00246057  0.33700761  1
  Fe  Fe12  1  0.33609314  0.33847241  0.00304429  1
  Fe  Fe13  1  0.50274338  0.50363704  0.16896019  1
  Fe  Fe14  1  0.33524812  0.33726563  0.33574397  1
  Ni  Ni15  1  0.33708491  0.66733179  1.00253911  1
  Ni  Ni16  1  0.50579301  0.83330905  0.16831085  1
  Ni  Ni17  1  0.33711935  0.66749449  0.33663046  1
  Fe  Fe18  1  0.66861903  1.00048788  1.00196286  1
  Cr  Cr19  1  0.83623162  0.16939591  0.16898553  1
  Fe  Fe20  1  0.67019909  1.00104432  0.33742030  1
  Ni  Ni21  1  0.66910091  0.33767582  1.00167515  1
  Fe  Fe22  1  0.83603324  0.50514009  0.16856670  1
  Fe  Fe23  1  0.66882592  0.33648422  0.33675914  1
  Ni  Ni24  1  0.66963531  0.66775120  0.00315238  1
  Ni  Ni25  1  0.83302311  0.83420637  0.17027217  1
  Fe  Fe26  1  0.66902934  0.67083446  0.33528867  1
  Fe  Fe27  1  0.16830150  0.16901200  0.50269507  1
  Fe  Fe28  1  0.00282735  1.00242740  0.66866769  1
  Fe  Fe29  1  0.16943302  0.17099595  0.83522131  1
  Fe  Fe30  1  0.17004031  0.50386979  0.50286780  1
  Fe  Fe31  1  1.00253980  0.33584937  0.66923172  1
  Fe  Fe32  1  0.16970977  0.50356013  0.83631468  1
  Ni  Ni33  1  0.17009582  0.83469659  0.50415765  1
  Fe  Fe34  1  0.00304608  0.67009209  0.66984806  1
  Fe  Fe35  1  0.16964858  0.83381086  0.83444791  1
  Fe  Fe36  1  0.50401507  0.16909021  0.50394787  1
  Fe  Fe37  1  0.33666189  1.00185255  0.66911160  1
  Fe  Fe38  1  0.50412656  0.17030135  0.83536055  1
  Fe  Fe39  1  0.50220619  0.50371658  0.50276888  1
  Fe  Fe40  1  0.33654752  0.33602102  0.66957969  1
  Fe  Fe41  1  0.50269728  0.50310303  0.83663703  1
  Ni  Ni42  1  0.50211609  0.83440421  0.50412302  1
  Ni  Ni43  1  0.33585735  0.66967622  0.66919639  1
  Fe  Fe44  1  0.50345402  0.83496067  0.83529312  1
  Ni  Ni45  1  0.83622402  0.17022450  0.50335485  1
  Ni  Ni46  1  0.66987529  0.00392558  0.66936334  1
  Fe  Fe47  1  0.83480946  0.17024209  0.83485511  1
  Fe  Fe48  1  0.83612112  0.50305321  0.50282371  1
  Fe  Fe49  1  0.66928064  0.33580460  0.66969175  1
  Fe  Fe50  1  0.83595977  0.50288532  0.83697704  1
  Fe  Fe51  1  0.83620078  0.83729656  0.50229415  1
  Fe  Fe52  1  0.66870684  0.67020729  0.66969617  1
  Fe  Fe53  1  0.83526346  0.83523839  0.83624270  1
" 