6031,Ni26Fe69Cr3_0,-233.780661371645, 191.454051583006,Ni26Fe69Cr3,"# generated using pymatgen
 data_Cr3Fe37Ni14
_symmetry_space_group_name_H-M   'P 1'
_cell_length_a   7.41266836
_cell_length_b   7.41266836
_cell_length_c   10.48309613
_cell_angle_alpha   90.00000000
_cell_angle_beta   90.00000000
_cell_angle_gamma   90.00000000
_symmetry_Int_Tables_number   1
_chemical_formula_structural   Cr3Fe37Ni14
_chemical_formula_sum   'Cr3 Fe37 Ni14'
_cell_volume   576.02152079
_cell_formula_units_Z   1
loop_
 _symmetry_equiv_pos_site_id
 _symmetry_equiv_pos_as_xyz
  1  'x, y, z'
loop_
 _atom_site_type_symbol
 _atom_site_label
 _atom_site_symmetry_multiplicity
 _atom_site_fract_x
 _atom_site_fract_y
 _atom_site_fract_z
 _atom_site_occupancy
  Ni  Ni0  1  1.00286312  0.00450195  0.00480147  1
  Ni  Ni1  1  0.16962420  0.17084771  0.17124065  1
  Ni  Ni2  1  1.00357313  1.00336523  0.33717414  1
  Ni  Ni3  1  1.00241278  0.33675598  1.00366610  1
  Fe  Fe4  1  0.16819230  0.50358434  0.16983558  1
  Ni  Ni5  1  1.00306354  0.33708000  0.33744522  1
  Fe  Fe6  1  0.00401541  0.67044604  0.00433118  1
  Ni  Ni7  1  0.16936579  0.83770756  0.16857802  1
  Ni  Ni8  1  1.00351184  0.67073489  0.33541825  1
  Fe  Fe9  1  0.33623080  1.00341206  0.00596544  1
  Fe  Fe10  1  0.50458959  0.17155716  0.16946059  1
  Cr  Cr11  1  0.33666665  1.00314832  0.33591071  1
  Fe  Fe12  1  0.33630428  0.33758242  0.00429395  1
  Fe  Fe13  1  0.50216629  0.50440082  0.16913507  1
  Fe  Fe14  1  0.33489994  0.33845384  0.33689816  1
  Ni  Ni15  1  0.33895514  0.67034925  1.00300368  1
  Fe  Fe16  1  0.50424594  0.83507400  0.16895965  1
  Fe  Fe17  1  0.33352455  0.66959824  0.33599874  1
  Fe  Fe18  1  0.67083824  1.00354397  1.00354243  1
  Fe  Fe19  1  0.83966923  0.17091843  0.17053508  1
  Fe  Fe20  1  0.67340605  0.00387268  0.33687358  1
  Fe  Fe21  1  0.67037558  0.33755938  0.00385425  1
  Ni  Ni22  1  0.83487945  0.50381453  0.16984422  1
  Fe  Fe23  1  0.67176214  0.33674861  0.33663596  1
  Fe  Fe24  1  0.67177591  0.66984206  1.00232554  1
  Fe  Fe25  1  0.83861893  0.83715209  0.16987019  1
  Fe  Fe26  1  0.67202423  0.67040462  0.33743949  1
  Fe  Fe27  1  0.16856900  0.17096409  0.50393445  1
  Ni  Ni28  1  1.00351602  0.00429399  0.66922739  1
  Cr  Cr29  1  0.17014118  0.16843736  0.83600350  1
  Fe  Fe30  1  0.17046980  0.50434373  0.50241931  1
  Fe  Fe31  1  1.00125200  0.33710465  0.66928028  1
  Fe  Fe32  1  0.17187894  0.50448105  0.83916203  1
  Ni  Ni33  1  0.16963548  0.83718333  0.50432023  1
  Cr  Cr34  1  1.00211127  0.67041358  0.67310889  1
  Fe  Fe35  1  0.17084705  0.83644626  0.83873018  1
  Fe  Fe36  1  0.50410891  0.17055456  0.50450342  1
  Fe  Fe37  1  0.33785279  1.00137485  0.66834880  1
  Fe  Fe38  1  0.50613427  0.17019109  0.83679450  1
  Fe  Fe39  1  0.50303555  0.50486701  0.50468893  1
  Fe  Fe40  1  0.33805562  0.33874238  0.66973693  1
  Ni  Ni41  1  0.50484315  0.50316409  0.83677627  1
  Fe  Fe42  1  0.50422343  0.83552838  0.50428283  1
  Fe  Fe43  1  0.33777867  0.67116058  0.67125015  1
  Fe  Fe44  1  0.50400228  0.83637428  0.83725647  1
  Fe  Fe45  1  0.83813424  0.16950911  0.50342295  1
  Fe  Fe46  1  0.67198526  1.00201685  0.67075923  1
  Fe  Fe47  1  0.83540585  0.16945650  0.83724528  1
  Fe  Fe48  1  0.83673083  0.50455350  0.50180570  1
  Fe  Fe49  1  0.67147723  0.33757221  0.67029691  1
  Fe  Fe50  1  0.83540864  0.50276189  0.83894371  1
  Fe  Fe51  1  0.83706011  0.83729284  0.50400559  1
  Ni  Ni52  1  0.66907353  0.66913262  0.67084926  1
  Ni  Ni53  1  0.83678555  0.83769474  0.83788118  1
" 