3392,Ni26Fe69Cr3_6,-233.520681931735, 194.0295165128,Ni26Fe69Cr3,"# generated using pymatgen
 data_Cr3Fe37Ni14
_symmetry_space_group_name_H-M   'P 1'
_cell_length_a   7.40705391
_cell_length_b   7.40705391
_cell_length_c   10.47515609
_cell_angle_alpha   90.00000000
_cell_angle_beta   90.00000000
_cell_angle_gamma   90.00000000
_symmetry_Int_Tables_number   1
_chemical_formula_structural   Cr3Fe37Ni14
_chemical_formula_sum   'Cr3 Fe37 Ni14'
_cell_volume   574.71365218
_cell_formula_units_Z   1
loop_
 _symmetry_equiv_pos_site_id
 _symmetry_equiv_pos_as_xyz
  1  'x, y, z'
loop_
 _atom_site_type_symbol
 _atom_site_label
 _atom_site_symmetry_multiplicity
 _atom_site_fract_x
 _atom_site_fract_y
 _atom_site_fract_z
 _atom_site_occupancy
  Ni  Ni0  1  1.00232117  1.00360502  1.00368208  1
  Fe  Fe1  1  0.16978704  0.16942276  0.16993599  1
  Ni  Ni2  1  1.00299994  0.00426652  0.33845312  1
  Fe  Fe3  1  1.00306100  0.33817120  0.00459478  1
  Fe  Fe4  1  0.17089854  0.50484801  0.16943081  1
  Fe  Fe5  1  1.00278939  0.33726592  0.33773629  1
  Fe  Fe6  1  1.00366180  0.67079663  1.00380378  1
  Fe  Fe7  1  0.17107712  0.83787891  0.17085401  1
  Fe  Fe8  1  0.00461673  0.67088350  0.33724441  1
  Fe  Fe9  1  0.33943351  1.00365929  0.00446188  1
  Ni  Ni10  1  0.50483167  0.16944267  0.17021358  1
  Fe  Fe11  1  0.33730669  1.00210745  0.33758218  1
  Fe  Fe12  1  0.33876430  0.33730558  0.00486799  1
  Fe  Fe13  1  0.50462420  0.50456079  0.17037704  1
  Cr  Cr14  1  0.33863827  0.33873007  0.33852640  1
  Ni  Ni15  1  0.33696130  0.67002268  1.00325846  1
  Fe  Fe16  1  0.50373547  0.83745682  0.17059298  1
  Ni  Ni17  1  0.33782801  0.67158071  0.33858318  1
  Ni  Ni18  1  0.67197402  0.00590843  1.00310470  1
  Fe  Fe19  1  0.83704991  0.17031080  0.17081642  1
  Fe  Fe20  1  0.67024353  1.00393512  0.33723601  1
  Ni  Ni21  1  0.67054911  0.33620502  1.00385860  1
  Fe  Fe22  1  0.83662887  0.50326944  0.17052956  1
  Fe  Fe23  1  0.67215221  0.33723667  0.33713847  1
  Fe  Fe24  1  0.67080154  0.67146647  1.00390352  1
  Fe  Fe25  1  0.83733636  0.83857038  0.17050083  1
  Fe  Fe26  1  0.67025368  0.67097810  0.33794820  1
  Fe  Fe27  1  0.16913616  0.17043672  0.50395548  1
  Fe  Fe28  1  1.00191331  1.00307387  0.66950301  1
  Cr  Cr29  1  0.17041905  0.17235917  0.83927500  1
  Fe  Fe30  1  0.17088699  0.50524533  0.50543376  1
  Fe  Fe31  1  1.00401384  0.33857976  0.66982112  1
  Ni  Ni32  1  0.17012194  0.50559375  0.83733204  1
  Fe  Fe33  1  0.17052987  0.83646584  0.50289680  1
  Fe  Fe34  1  0.00485726  0.67049760  0.67110080  1
  Fe  Fe35  1  0.17097580  0.83475009  0.83839604  1
  Fe  Fe36  1  0.50618765  0.17085801  0.50407443  1
  Cr  Cr37  1  0.33825941  1.00226052  0.66951675  1
  Ni  Ni38  1  0.50659801  0.17033240  0.83776867  1
  Ni  Ni39  1  0.50399384  0.50627032  0.50517043  1
  Fe  Fe40  1  0.33818881  0.34034288  0.66993876  1
  Fe  Fe41  1  0.50310120  0.50406978  0.83704075  1
  Ni  Ni42  1  0.50431708  0.83555704  0.50189992  1
  Ni  Ni43  1  0.33726756  0.66866118  0.67030701  1
  Ni  Ni44  1  0.50560594  0.83686677  0.83912491  1
  Ni  Ni45  1  0.83857874  0.17063287  0.50383694  1
  Fe  Fe46  1  0.67134560  1.00354065  0.67120585  1
  Fe  Fe47  1  0.83521839  0.17047368  0.83746650  1
  Fe  Fe48  1  0.83634563  0.50391175  0.50401811  1
  Fe  Fe49  1  0.66994741  0.33740185  0.67082310  1
  Fe  Fe50  1  0.83693077  0.50356404  0.83760123  1
  Fe  Fe51  1  0.83676756  0.83773799  0.50379353  1
  Fe  Fe52  1  0.66957000  0.67120560  0.67029802  1
  Fe  Fe53  1  0.83728426  0.83811308  0.83785326  1
" 