2970,Ni26Fe69Cr3_9,-233.748239737833, 193.730280454835,Ni26Fe69Cr3,"# generated using pymatgen
 data_Cr3Fe37Ni14
_symmetry_space_group_name_H-M   'P 1'
_cell_length_a   7.41398196
_cell_length_b   7.41398196
_cell_length_c   10.48495383
_cell_angle_alpha   90.00000000
_cell_angle_beta   90.00000000
_cell_angle_gamma   90.00000000
_symmetry_Int_Tables_number   1
_chemical_formula_structural   Cr3Fe37Ni14
_chemical_formula_sum   'Cr3 Fe37 Ni14'
_cell_volume   576.32780427
_cell_formula_units_Z   1
loop_
 _symmetry_equiv_pos_site_id
 _symmetry_equiv_pos_as_xyz
  1  'x, y, z'
loop_
 _atom_site_type_symbol
 _atom_site_label
 _atom_site_symmetry_multiplicity
 _atom_site_fract_x
 _atom_site_fract_y
 _atom_site_fract_z
 _atom_site_occupancy
  Ni  Ni0  1  1.00269234  0.00405055  0.00464237  1
  Ni  Ni1  1  0.17042908  0.16934683  0.17171146  1
  Fe  Fe2  1  0.00624221  1.00344013  0.33577872  1
  Fe  Fe3  1  0.00438587  0.33656659  0.00397702  1
  Fe  Fe4  1  0.16962768  0.50303062  0.16977882  1
  Fe  Fe5  1  0.00453812  0.33643327  0.33693712  1
  Fe  Fe6  1  0.00400040  0.67116997  1.00332786  1
  Ni  Ni7  1  0.16928679  0.83902126  0.16989003  1
  Fe  Fe8  1  1.00261087  0.67086531  0.33745152  1
  Fe  Fe9  1  0.33611527  1.00301947  0.00457989  1
  Fe  Fe10  1  0.50167096  0.17039398  0.16998233  1
  Ni  Ni11  1  0.33522336  0.00523703  0.33642183  1
  Fe  Fe12  1  0.33636321  0.33692064  1.00347047  1
  Fe  Fe13  1  0.50333537  0.50296267  0.16871915  1
  Fe  Fe14  1  0.33665981  0.33456918  0.33711144  1
  Ni  Ni15  1  0.33668876  0.66945994  1.00322560  1
  Fe  Fe16  1  0.50211389  0.83738224  0.16840298  1
  Cr  Cr17  1  0.33582107  0.67017757  0.33743877  1
  Fe  Fe18  1  0.67036134  1.00264045  1.00284340  1
  Fe  Fe19  1  0.83885869  0.17045959  0.16923136  1
  Cr  Cr20  1  0.67047509  0.00404708  0.33579591  1
  Fe  Fe21  1  0.66998796  0.33717720  1.00307147  1
  Fe  Fe22  1  0.83777107  0.50347558  0.17050479  1
  Fe  Fe23  1  0.66953608  0.33820151  0.33728350  1
  Fe  Fe24  1  0.67000625  0.67091887  1.00267256  1
  Fe  Fe25  1  0.83892211  0.83680401  0.16885044  1
  Fe  Fe26  1  0.67139145  0.66916673  0.33718645  1
  Fe  Fe27  1  0.16971952  0.16972756  0.50184164  1
  Fe  Fe28  1  1.00245531  1.00268197  0.67099546  1
  Fe  Fe29  1  0.16964878  0.16875787  0.83859797  1
  Ni  Ni30  1  0.16877795  0.50325894  0.50326043  1
  Fe  Fe31  1  1.00138854  0.33807631  0.66982417  1
  Fe  Fe32  1  0.17021631  0.50600113  0.83691992  1
  Fe  Fe33  1  0.16971644  0.83697252  0.50391609  1
  Ni  Ni34  1  0.00429062  0.67043852  0.67062136  1
  Fe  Fe35  1  0.17074763  0.83598135  0.83749975  1
  Fe  Fe36  1  0.50337293  0.17048925  0.50358357  1
  Fe  Fe37  1  0.33817599  1.00096878  0.66974021  1
  Fe  Fe38  1  0.50542397  0.16905254  0.83716573  1
  Fe  Fe39  1  0.50494559  0.50368007  0.50458164  1
  Cr  Cr40  1  0.33754791  0.33884479  0.67020339  1
  Ni  Ni41  1  0.50442382  0.50485992  0.83681122  1
  Fe  Fe42  1  0.50301163  0.83657451  0.50590496  1
  Ni  Ni43  1  0.33615000  0.67103534  0.67041347  1
  Ni  Ni44  1  0.50439440  0.83604359  0.83636060  1
  Fe  Fe45  1  0.83764646  0.17165706  0.50477871  1
  Ni  Ni46  1  0.67120176  0.00416878  0.67103512  1
  Fe  Fe47  1  0.83566782  0.16958381  0.83672606  1
  Fe  Fe48  1  0.83724100  0.50367956  0.50397251  1
  Ni  Ni49  1  0.67179683  0.33585180  0.67000040  1
  Fe  Fe50  1  0.83568267  0.50458916  0.83625809  1
  Fe  Fe51  1  0.83800435  0.83540330  0.50543084  1
  Ni  Ni52  1  0.67029654  0.67071317  0.66979476  1
  Ni  Ni53  1  0.83619291  0.83722290  0.83672745  1
" 