6792,Ni26Fe65Cr8_5,-232.830707089567, 188.734313929723,Ni26Fe65Cr8,"# generated using pymatgen
 data_Cr5(Fe5Ni2)7
_symmetry_space_group_name_H-M   'P 1'
_cell_length_a   7.42543260
_cell_length_b   7.42543260
_cell_length_c   10.50114748
_cell_angle_alpha   90.00000000
_cell_angle_beta   90.00000000
_cell_angle_gamma   90.00000000
_symmetry_Int_Tables_number   1
_chemical_formula_structural   Cr5(Fe5Ni2)7
_chemical_formula_sum   'Cr5 Fe35 Ni14'
_cell_volume   579.00228565
_cell_formula_units_Z   1
loop_
 _symmetry_equiv_pos_site_id
 _symmetry_equiv_pos_as_xyz
  1  'x, y, z'
loop_
 _atom_site_type_symbol
 _atom_site_label
 _atom_site_symmetry_multiplicity
 _atom_site_fract_x
 _atom_site_fract_y
 _atom_site_fract_z
 _atom_site_occupancy
  Fe  Fe0  1  1.00250768  1.00218946  1.00145505  1
  Cr  Cr1  1  0.16974984  0.16862249  0.16970552  1
  Fe  Fe2  1  1.00231994  1.00181555  0.33757195  1
  Ni  Ni3  1  1.00013646  0.33590926  1.00160998  1
  Cr  Cr4  1  0.16850995  0.50347796  0.16970471  1
  Fe  Fe5  1  1.00117051  0.33566786  0.33781408  1
  Fe  Fe6  1  1.00258401  0.66956804  1.00279997  1
  Fe  Fe7  1  0.16965725  0.83573966  0.16966179  1
  Ni  Ni8  1  1.00206530  0.66914189  0.33651911  1
  Fe  Fe9  1  0.33663365  1.00175579  1.00192450  1
  Fe  Fe10  1  0.50426703  0.16922878  0.17025664  1
  Ni  Ni11  1  0.33689563  1.00117260  0.33520100  1
  Fe  Fe12  1  0.33708483  0.33672565  1.00082683  1
  Fe  Fe13  1  0.50380515  0.50269938  0.16904223  1
  Fe  Fe14  1  0.33664705  0.33600939  0.33759697  1
  Ni  Ni15  1  0.33717437  0.67082766  0.00306981  1
  Fe  Fe16  1  0.50213419  0.83648261  0.16968725  1
  Fe  Fe17  1  0.33715333  0.67159183  0.33683997  1
  Fe  Fe18  1  0.66926572  1.00265343  0.00318052  1
  Fe  Fe19  1  0.83464721  0.16967371  0.16923713  1
  Ni  Ni20  1  0.66937950  0.00287590  0.33550850  1
  Fe  Fe21  1  0.66962351  0.33664660  1.00274985  1
  Fe  Fe22  1  0.83538100  0.50253250  0.16997972  1
  Fe  Fe23  1  0.67058541  0.33664561  0.33561356  1
  Fe  Fe24  1  0.66919362  0.66910762  1.00196422  1
  Fe  Fe25  1  0.83661807  0.83619988  0.16998948  1
  Fe  Fe26  1  0.66957424  0.67045382  0.33718905  1
  Ni  Ni27  1  0.16899932  0.16934911  0.50246462  1
  Ni  Ni28  1  0.00341846  1.00202133  0.66858378  1
  Fe  Fe29  1  0.17064033  0.16823775  0.83605911  1
  Fe  Fe30  1  0.17064153  0.50351117  0.50195186  1
  Cr  Cr31  1  0.00387937  0.33501052  0.66820985  1
  Fe  Fe32  1  0.17132854  0.50404269  0.83743588  1
  Fe  Fe33  1  0.16980250  0.83660985  0.50290472  1
  Fe  Fe34  1  0.00323307  0.67099216  0.66863457  1
  Fe  Fe35  1  0.17042949  0.83612200  0.83583416  1
  Cr  Cr36  1  0.50039152  0.16674189  0.50348432  1
  Ni  Ni37  1  0.33479803  1.00106461  0.67068650  1
  Fe  Fe38  1  0.50161041  0.16824936  0.83637934  1
  Fe  Fe39  1  0.50181608  0.50523012  0.50286883  1
  Ni  Ni40  1  0.33526105  0.33692703  0.67070808  1
  Fe  Fe41  1  0.50147676  0.50459115  0.83649343  1
  Ni  Ni42  1  0.50340710  0.83499943  0.50324258  1
  Ni  Ni43  1  0.33775420  0.67042120  0.66839485  1
  Ni  Ni44  1  0.50330329  0.83634526  0.83568208  1
  Fe  Fe45  1  0.83769879  0.16747485  0.50116290  1
  Fe  Fe46  1  0.66890473  0.99958305  0.66993009  1
  Fe  Fe47  1  0.83614792  0.16734040  0.83799588  1
  Ni  Ni48  1  0.83715487  0.50520935  0.50087143  1
  Cr  Cr49  1  0.66908779  0.33748306  0.66994934  1
  Fe  Fe50  1  0.83559905  0.50480564  0.83731690  1
  Fe  Fe51  1  0.83597724  0.83627382  0.50272875  1
  Ni  Ni52  1  0.66818108  0.67100646  0.66896251  1
  Fe  Fe53  1  0.83561151  0.83626033  0.83568276  1
" 