7454,Ni26Fe65Cr8_8,-232.605377769794, 189.20249139425,Ni26Fe65Cr8,"# generated using pymatgen
 data_Cr5(Fe5Ni2)7
_symmetry_space_group_name_H-M   'P 1'
_cell_length_a   7.41863471
_cell_length_b   7.41863471
_cell_length_c   10.49153383
_cell_angle_alpha   90.00000000
_cell_angle_beta   90.00000000
_cell_angle_gamma   90.00000000
_symmetry_Int_Tables_number   1
_chemical_formula_structural   Cr5(Fe5Ni2)7
_chemical_formula_sum   'Cr5 Fe35 Ni14'
_cell_volume   577.41353494
_cell_formula_units_Z   1
loop_
 _symmetry_equiv_pos_site_id
 _symmetry_equiv_pos_as_xyz
  1  'x, y, z'
loop_
 _atom_site_type_symbol
 _atom_site_label
 _atom_site_symmetry_multiplicity
 _atom_site_fract_x
 _atom_site_fract_y
 _atom_site_fract_z
 _atom_site_occupancy
  Ni  Ni0  1  1.00305877  1.00310598  0.00386452  1
  Fe  Fe1  1  0.16907485  0.17069575  0.16981199  1
  Ni  Ni2  1  1.00121618  1.00210540  0.33692746  1
  Fe  Fe3  1  0.00330702  0.33596416  1.00297475  1
  Fe  Fe4  1  0.16957209  0.50430182  0.17045878  1
  Fe  Fe5  1  0.00388286  0.33648582  0.33682980  1
  Fe  Fe6  1  0.00447149  0.66885425  0.00469535  1
  Ni  Ni7  1  0.16791113  0.83583437  0.17004407  1
  Ni  Ni8  1  1.00293153  0.67000124  0.33659854  1
  Cr  Cr9  1  0.33662621  1.00308912  0.00413224  1
  Fe  Fe10  1  0.50438095  0.16973775  0.16984467  1
  Cr  Cr11  1  0.33690236  1.00321321  0.33532297  1
  Ni  Ni12  1  0.33619730  0.33630326  1.00271782  1
  Cr  Cr13  1  0.50214090  0.50380273  0.17104546  1
  Ni  Ni14  1  0.33638137  0.33771471  0.33744998  1
  Fe  Fe15  1  0.33529307  0.67022221  0.00399258  1
  Ni  Ni16  1  0.50448711  0.83589682  0.16940891  1
  Ni  Ni17  1  0.33525137  0.66856611  0.33751971  1
  Fe  Fe18  1  0.67013024  0.00465809  0.00454930  1
  Fe  Fe19  1  0.83633456  0.16845301  0.16984060  1
  Ni  Ni20  1  0.67163046  1.00323049  0.33607157  1
  Ni  Ni21  1  0.67135118  0.33624631  1.00226447  1
  Fe  Fe22  1  0.83803995  0.50433809  0.16974776  1
  Fe  Fe23  1  0.67070363  0.33556574  0.33687631  1
  Fe  Fe24  1  0.67001918  0.67076469  0.00327757  1
  Fe  Fe25  1  0.83708052  0.83699519  0.17021838  1
  Fe  Fe26  1  0.67001724  0.67187016  0.33799169  1
  Fe  Fe27  1  0.16989667  0.17008120  0.50404651  1
  Fe  Fe28  1  0.00414978  0.00373522  0.66929060  1
  Fe  Fe29  1  0.16988996  0.16995979  0.83593160  1
  Fe  Fe30  1  0.17074081  0.50386845  0.50250760  1
  Fe  Fe31  1  1.00316831  0.33669038  0.66998423  1
  Fe  Fe32  1  0.16897599  0.50365425  0.83682447  1
  Fe  Fe33  1  0.16942698  0.83583722  0.50314290  1
  Fe  Fe34  1  0.00397282  0.66936484  0.66876414  1
  Fe  Fe35  1  0.17118055  0.83617274  0.83631323  1
  Fe  Fe36  1  0.50378479  0.17020795  0.50385093  1
  Ni  Ni37  1  0.33661011  1.00325288  0.67051297  1
  Fe  Fe38  1  0.50392956  0.16894131  0.83608900  1
  Fe  Fe39  1  0.50299471  0.50379222  0.50305831  1
  Fe  Fe40  1  0.33612422  0.33571102  0.66916106  1
  Cr  Cr41  1  0.50270743  0.50398057  0.83656587  1
  Ni  Ni42  1  0.50428982  0.83508728  0.50416555  1
  Fe  Fe43  1  0.33686236  0.67188523  0.66876011  1
  Ni  Ni44  1  0.50279843  0.83670444  0.83621195  1
  Fe  Fe45  1  0.83610737  0.16889416  0.50277647  1
  Fe  Fe46  1  0.66797318  1.00299552  0.66862932  1
  Fe  Fe47  1  0.83597099  0.17114736  0.83716891  1
  Fe  Fe48  1  0.83605406  0.50426534  0.50354535  1
  Fe  Fe49  1  0.67049627  0.33588592  0.66974491  1
  Fe  Fe50  1  0.83706525  0.50229237  0.83648882  1
  Fe  Fe51  1  0.83618171  0.83662613  0.50301349  1
  Ni  Ni52  1  0.67061617  0.66924414  0.66819559  1
  Cr  Cr53  1  0.83583618  0.83790353  0.83697680  1
" 