5464,Ni26Fe65Cr8_3,-232.773478280575, 193.855286165857,Ni26Fe65Cr8,"# generated using pymatgen
 data_Cr5(Fe5Ni2)7
_symmetry_space_group_name_H-M   'P 1'
_cell_length_a   7.41912562
_cell_length_b   7.41912562
_cell_length_c   10.49222807
_cell_angle_alpha   90.00000000
_cell_angle_beta   90.00000000
_cell_angle_gamma   90.00000000
_symmetry_Int_Tables_number   1
_chemical_formula_structural   Cr5(Fe5Ni2)7
_chemical_formula_sum   'Cr5 Fe35 Ni14'
_cell_volume   577.52816839
_cell_formula_units_Z   1
loop_
 _symmetry_equiv_pos_site_id
 _symmetry_equiv_pos_as_xyz
  1  'x, y, z'
loop_
 _atom_site_type_symbol
 _atom_site_label
 _atom_site_symmetry_multiplicity
 _atom_site_fract_x
 _atom_site_fract_y
 _atom_site_fract_z
 _atom_site_occupancy
  Ni  Ni0  1  0.00513860  0.00349007  0.00349869  1
  Ni  Ni1  1  0.16993587  0.17019280  0.16962186  1
  Ni  Ni2  1  0.00364583  0.00361554  0.33661554  1
  Fe  Fe3  1  0.00385128  0.33532080  0.00337049  1
  Fe  Fe4  1  0.17112530  0.50281683  0.17052634  1
  Ni  Ni5  1  0.00469208  0.33563517  0.33476918  1
  Ni  Ni6  1  0.00494469  0.66783604  0.00420643  1
  Fe  Fe7  1  0.17065751  0.83705315  0.16882454  1
  Fe  Fe8  1  0.00673576  0.66877414  0.33700292  1
  Ni  Ni9  1  0.33510731  0.00424733  0.00364817  1
  Fe  Fe10  1  0.50098118  0.17251622  0.17076835  1
  Fe  Fe11  1  0.33363453  0.00584110  0.33656506  1
  Fe  Fe12  1  0.33577740  0.33600751  0.00472643  1
  Ni  Ni13  1  0.50337011  0.50180368  0.17043876  1
  Ni  Ni14  1  0.33690044  0.33748172  0.33703083  1
  Fe  Fe15  1  0.33492063  0.66955092  1.00155701  1
  Cr  Cr16  1  0.50116469  0.83521790  0.16952867  1
  Fe  Fe17  1  0.33440935  0.66815012  0.33810851  1
  Cr  Cr18  1  0.66926253  0.00585391  1.00227443  1
  Fe  Fe19  1  0.83773721  0.17214672  0.17070821  1
  Fe  Fe20  1  0.67004629  0.00637455  0.33814491  1
  Fe  Fe21  1  0.67027188  0.33846498  1.00233982  1
  Fe  Fe22  1  0.83688290  0.50089618  0.17009557  1
  Fe  Fe23  1  0.66982381  0.33513679  0.33640320  1
  Fe  Fe24  1  0.67005129  0.66684829  1.00212910  1
  Cr  Cr25  1  0.83883066  0.83595467  0.17109276  1
  Fe  Fe26  1  0.66896152  0.66794837  0.33762727  1
  Fe  Fe27  1  0.16877716  0.17146573  0.50170626  1
  Fe  Fe28  1  0.00452390  1.00322829  0.66890054  1
  Fe  Fe29  1  0.16971055  0.16920432  0.83752754  1
  Fe  Fe30  1  0.17106556  0.50196231  0.50373694  1
  Ni  Ni31  1  0.00382049  0.33551781  0.67081863  1
  Fe  Fe32  1  0.16889791  0.50490929  0.83555824  1
  Fe  Fe33  1  0.16940938  0.83636229  0.50431839  1
  Ni  Ni34  1  0.00534339  0.66950375  0.66862808  1
  Ni  Ni35  1  0.17020593  0.83747239  0.83754997  1
  Fe  Fe36  1  0.50322542  0.17098492  0.50365166  1
  Fe  Fe37  1  0.33601240  1.00276189  0.67088485  1
  Fe  Fe38  1  0.50094143  0.17011828  0.83532678  1
  Fe  Fe39  1  0.50163508  0.50304188  0.50345639  1
  Fe  Fe40  1  0.33630641  0.33885450  0.66901202  1
  Fe  Fe41  1  0.50271326  0.50396807  0.83649574  1
  Fe  Fe42  1  0.50341629  0.83584990  0.50341192  1
  Ni  Ni43  1  0.33637372  0.67077926  0.67003583  1
  Fe  Fe44  1  0.49990008  0.83602505  0.83600185  1
  Fe  Fe45  1  0.83768064  0.16945942  0.50353461  1
  Fe  Fe46  1  0.66936772  0.00344904  0.66888998  1
  Fe  Fe47  1  0.83885905  0.17141214  0.83552505  1
  Cr  Cr48  1  0.83701829  0.50280974  0.50398505  1
  Ni  Ni49  1  0.66923658  0.33566916  0.67061343  1
  Fe  Fe50  1  0.83822164  0.50229875  0.83503880  1
  Fe  Fe51  1  0.83670135  0.83794658  0.50351127  1
  Ni  Ni52  1  0.66758169  0.66949262  0.67030770  1
  Cr  Cr53  1  0.83859377  0.83467684  0.83434916  1
" 