3764,Ni26Fe69Cr3_11,-233.611667661752, 196.440071829667,Ni26Fe69Cr3,"# generated using pymatgen
 data_Cr3Fe37Ni14
_symmetry_space_group_name_H-M   'P 1'
_cell_length_a   7.40989400
_cell_length_b   7.40989400
_cell_length_c   10.47917259
_cell_angle_alpha   90.00000000
_cell_angle_beta   90.00000000
_cell_angle_gamma   90.00000000
_symmetry_Int_Tables_number   1
_chemical_formula_structural   Cr3Fe37Ni14
_chemical_formula_sum   'Cr3 Fe37 Ni14'
_cell_volume   575.37499380
_cell_formula_units_Z   1
loop_
 _symmetry_equiv_pos_site_id
 _symmetry_equiv_pos_as_xyz
  1  'x, y, z'
loop_
 _atom_site_type_symbol
 _atom_site_label
 _atom_site_symmetry_multiplicity
 _atom_site_fract_x
 _atom_site_fract_y
 _atom_site_fract_z
 _atom_site_occupancy
  Fe  Fe0  1  0.00481653  0.00451108  0.00416185  1
  Fe  Fe1  1  0.17032664  0.16723838  0.16959832  1
  Fe  Fe2  1  0.00434957  1.00174505  0.33698792  1
  Fe  Fe3  1  1.00329653  0.33614953  1.00300236  1
  Cr  Cr4  1  0.17186760  0.50551348  0.16826461  1
  Cr  Cr5  1  1.00304744  0.33667508  0.33777017  1
  Fe  Fe6  1  0.00397659  0.67091146  1.00215101  1
  Ni  Ni7  1  0.16946588  0.83823253  0.17157607  1
  Fe  Fe8  1  1.00351315  0.67399467  0.33852807  1
  Ni  Ni9  1  0.33584926  1.00316801  1.00266177  1
  Cr  Cr10  1  0.50396703  0.17138177  0.17041003  1
  Ni  Ni11  1  0.33664600  1.00249895  0.33828210  1
  Ni  Ni12  1  0.33735861  0.33666634  1.00335411  1
  Fe  Fe13  1  0.50518518  0.50559686  0.16966798  1
  Fe  Fe14  1  0.33910514  0.33655958  0.33931151  1
  Fe  Fe15  1  0.33816164  0.67094851  1.00271609  1
  Fe  Fe16  1  0.50271112  0.83578707  0.17066524  1
  Fe  Fe17  1  0.33761737  0.67184499  0.33762405  1
  Fe  Fe18  1  0.67046477  0.00412601  1.00259431  1
  Fe  Fe19  1  0.83855579  0.16969928  0.16944742  1
  Fe  Fe20  1  0.67117056  1.00323784  0.33920260  1
  Ni  Ni21  1  0.67144988  0.33908661  1.00336427  1
  Fe  Fe22  1  0.83473030  0.50475432  0.16909901  1
  Fe  Fe23  1  0.66901808  0.33739876  0.33758782  1
  Fe  Fe24  1  0.66942941  0.66942418  1.00366425  1
  Fe  Fe25  1  0.83768037  0.83711824  0.17126463  1
  Fe  Fe26  1  0.67044170  0.67093841  0.33728990  1
  Fe  Fe27  1  0.17190659  0.16936158  0.50442223  1
  Fe  Fe28  1  1.00374128  1.00337359  0.67042035  1
  Fe  Fe29  1  0.17125141  0.17185385  0.83755064  1
  Fe  Fe30  1  0.17128954  0.50455826  0.50538149  1
  Fe  Fe31  1  1.00382994  0.33763209  0.67063733  1
  Ni  Ni32  1  0.17047563  0.50469691  0.83703804  1
  Fe  Fe33  1  0.17044447  0.83764729  0.50358646  1
  Ni  Ni34  1  1.00333116  0.67005069  0.66988645  1
  Ni  Ni35  1  0.17011190  0.83662360  0.83697598  1
  Ni  Ni36  1  0.50403751  0.17114791  0.50393255  1
  Fe  Fe37  1  0.33716489  1.00382873  0.67038096  1
  Fe  Fe38  1  0.50313112  0.17171335  0.83712958  1
  Fe  Fe39  1  0.50408737  0.50351652  0.50427836  1
  Ni  Ni40  1  0.33689450  0.33720739  0.66999614  1
  Ni  Ni41  1  0.50383936  0.50218637  0.83790118  1
  Fe  Fe42  1  0.50454720  0.83830339  0.50361598  1
  Fe  Fe43  1  0.33691088  0.67024487  0.67122880  1
  Fe  Fe44  1  0.50346259  0.83622700  0.83728901  1
  Fe  Fe45  1  0.83554017  0.16890671  0.50475992  1
  Ni  Ni46  1  0.67040883  1.00337761  0.67059470  1
  Fe  Fe47  1  0.83718639  0.17148076  0.83736153  1
  Fe  Fe48  1  0.83619055  0.50497684  0.50511078  1
  Fe  Fe49  1  0.67034615  0.33737624  0.67114879  1
  Ni  Ni50  1  0.83725394  0.50352795  0.83719301  1
  Ni  Ni51  1  0.83821008  0.83723956  0.50356616  1
  Fe  Fe52  1  0.67080051  0.67033340  0.67061514  1
  Fe  Fe53  1  0.83765890  0.83565558  0.83600602  1
" 