3899,Ni26Fe69Cr3_10,-233.111122820325, 194.423266685705,Ni26Fe69Cr3,"# generated using pymatgen
 data_Cr3Fe37Ni14
_symmetry_space_group_name_H-M   'P 1'
_cell_length_a   7.40334494
_cell_length_b   7.40334494
_cell_length_c   10.46991082
_cell_angle_alpha   90.00000000
_cell_angle_beta   90.00000000
_cell_angle_gamma   90.00000000
_symmetry_Int_Tables_number   1
_chemical_formula_structural   Cr3Fe37Ni14
_chemical_formula_sum   'Cr3 Fe37 Ni14'
_cell_volume   573.85074754
_cell_formula_units_Z   1
loop_
 _symmetry_equiv_pos_site_id
 _symmetry_equiv_pos_as_xyz
  1  'x, y, z'
loop_
 _atom_site_type_symbol
 _atom_site_label
 _atom_site_symmetry_multiplicity
 _atom_site_fract_x
 _atom_site_fract_y
 _atom_site_fract_z
 _atom_site_occupancy
  Fe  Fe0  1  0.00633514  0.00591559  0.00463801  1
  Fe  Fe1  1  0.17092746  0.17026501  0.17127143  1
  Fe  Fe2  1  0.00608667  1.00419968  0.33750334  1
  Fe  Fe3  1  1.00424856  0.33763711  0.00474698  1
  Fe  Fe4  1  0.17098501  0.50456270  0.17063026  1
  Ni  Ni5  1  0.00478730  0.33832218  0.33689865  1
  Fe  Fe6  1  0.00638037  0.66935748  1.00410090  1
  Ni  Ni7  1  0.17358472  0.83724224  0.17021650  1
  Fe  Fe8  1  0.00549970  0.67050912  0.33857509  1
  Fe  Fe9  1  0.33824670  1.00357453  0.00487947  1
  Fe  Fe10  1  0.50427785  0.16979311  0.17072913  1
  Ni  Ni11  1  0.33747229  1.00380191  0.33709519  1
  Ni  Ni12  1  0.33704702  0.33839174  1.00421701  1
  Fe  Fe13  1  0.50422068  0.50503649  0.17076427  1
  Fe  Fe14  1  0.33760956  0.33764146  0.33728455  1
  Ni  Ni15  1  0.33737246  0.67133363  0.00445063  1
  Ni  Ni16  1  0.50186050  0.83724090  0.17064020  1
  Fe  Fe17  1  0.33759869  0.67184282  0.33722997  1
  Ni  Ni18  1  0.66995183  0.00545269  1.00422375  1
  Ni  Ni19  1  0.83780221  0.17340362  0.16983961  1
  Fe  Fe20  1  0.66924737  1.00421365  0.33692513  1
  Fe  Fe21  1  0.67063905  0.33761331  1.00372432  1
  Fe  Fe22  1  0.83769860  0.50325534  0.17113166  1
  Fe  Fe23  1  0.67058934  0.33823217  0.33720874  1
  Fe  Fe24  1  0.66829733  0.66958747  0.00447987  1
  Cr  Cr25  1  0.83723833  0.83861099  0.17188245  1
  Ni  Ni26  1  0.67061665  0.67075277  0.33885781  1
  Fe  Fe27  1  0.17302726  0.17011840  0.50395744  1
  Fe  Fe28  1  0.00567939  0.00461025  0.67076386  1
  Fe  Fe29  1  0.17095418  0.17111421  0.83767421  1
  Fe  Fe30  1  0.17102396  0.50468494  0.50416594  1
  Fe  Fe31  1  0.00430922  0.33861254  0.67152771  1
  Fe  Fe32  1  0.17122802  0.50487398  0.83811038  1
  Ni  Ni33  1  0.17207185  0.83710692  0.50448796  1
  Fe  Fe34  1  0.00460344  0.66968033  0.67023319  1
  Fe  Fe35  1  0.17244378  0.83691863  0.83773447  1
  Fe  Fe36  1  0.50217909  0.17018304  0.50450199  1
  Fe  Fe37  1  0.33821954  1.00413328  0.67011892  1
  Fe  Fe38  1  0.50516310  0.17115341  0.83767614  1
  Fe  Fe39  1  0.50445052  0.50488752  0.50437108  1
  Fe  Fe40  1  0.33804158  0.33753989  0.67145300  1
  Fe  Fe41  1  0.50462494  0.50457141  0.83777673  1
  Ni  Ni42  1  0.50335994  0.83710022  0.50413761  1
  Fe  Fe43  1  0.33821887  0.67123231  0.67124088  1
  Ni  Ni44  1  0.50249162  0.83761881  0.83812667  1
  Cr  Cr45  1  0.83756619  0.17165538  0.50452357  1
  Fe  Fe46  1  0.66900410  0.00443464  0.67154222  1
  Fe  Fe47  1  0.83678824  0.17237010  0.83785240  1
  Fe  Fe48  1  0.83743531  0.50665538  0.50461204  1
  Ni  Ni49  1  0.67095855  0.33849700  0.67219002  1
  Ni  Ni50  1  0.83790525  0.50161964  0.83785862  1
  Fe  Fe51  1  0.83749883  0.83583214  0.50423453  1
  Fe  Fe52  1  0.67008175  0.66986053  0.66985883  1
  Cr  Cr53  1  0.83637372  0.83746903  0.83744833  1
" 