5913,Ni26Fe69Cr3_2,-233.785914611987, 190.333216081033,Ni26Fe69Cr3,"# generated using pymatgen
 data_Cr3Fe37Ni14
_symmetry_space_group_name_H-M   'P 1'
_cell_length_a   7.41551017
_cell_length_b   7.41551017
_cell_length_c   10.48711506
_cell_angle_alpha   90.00000000
_cell_angle_beta   90.00000000
_cell_angle_gamma   90.00000000
_symmetry_Int_Tables_number   1
_chemical_formula_structural   Cr3Fe37Ni14
_chemical_formula_sum   'Cr3 Fe37 Ni14'
_cell_volume   576.68426678
_cell_formula_units_Z   1
loop_
 _symmetry_equiv_pos_site_id
 _symmetry_equiv_pos_as_xyz
  1  'x, y, z'
loop_
 _atom_site_type_symbol
 _atom_site_label
 _atom_site_symmetry_multiplicity
 _atom_site_fract_x
 _atom_site_fract_y
 _atom_site_fract_z
 _atom_site_occupancy
  Ni  Ni0  1  1.00110953  1.00242355  1.00227775  1
  Cr  Cr1  1  0.16989940  0.17119319  0.16944433  1
  Fe  Fe2  1  1.00182199  0.00391461  0.33760320  1
  Fe  Fe3  1  1.00266427  0.33837686  1.00263024  1
  Ni  Ni4  1  0.17061363  0.50260035  0.16979444  1
  Fe  Fe5  1  0.00367767  0.33673199  0.33704500  1
  Ni  Ni6  1  1.00197316  0.67042580  1.00344472  1
  Cr  Cr7  1  0.17040494  0.83606927  0.16945056  1
  Fe  Fe8  1  0.00381018  0.66972565  0.33616447  1
  Fe  Fe9  1  0.33802131  1.00257594  1.00180780  1
  Fe  Fe10  1  0.50418149  0.17024097  0.17044373  1
  Fe  Fe11  1  0.33940183  0.00369399  0.33811304  1
  Ni  Ni12  1  0.33751075  0.33768295  1.00328159  1
  Ni  Ni13  1  0.50374022  0.50353548  0.16983574  1
  Ni  Ni14  1  0.33684264  0.33886485  0.33790854  1
  Fe  Fe15  1  0.33742691  0.66903973  1.00330070  1
  Ni  Ni16  1  0.50593694  0.83648171  0.16939370  1
  Fe  Fe17  1  0.33858237  0.66881708  0.33736618  1
  Fe  Fe18  1  0.67048367  1.00286483  0.00374060  1
  Fe  Fe19  1  0.83494556  0.16954330  0.17013955  1
  Ni  Ni20  1  0.67112278  1.00244770  0.33602647  1
  Fe  Fe21  1  0.67064965  0.33774031  0.00348058  1
  Fe  Fe22  1  0.83687760  0.50516782  0.16982150  1
  Fe  Fe23  1  0.66822015  0.33579182  0.33611307  1
  Ni  Ni24  1  0.67111943  0.67103850  0.00399332  1
  Ni  Ni25  1  0.83504075  0.83745651  0.16988022  1
  Fe  Fe26  1  0.66808873  0.67061917  0.33508266  1
  Fe  Fe27  1  0.17092657  0.17184506  0.50327107  1
  Fe  Fe28  1  0.00374671  0.00411402  0.67075980  1
  Fe  Fe29  1  0.17066454  0.17041486  0.83748491  1
  Ni  Ni30  1  0.17141888  0.50307022  0.50376634  1
  Fe  Fe31  1  0.00431158  0.33556594  0.67067796  1
  Fe  Fe32  1  0.17037550  0.50319413  0.83696801  1
  Fe  Fe33  1  0.17026864  0.83542321  0.50342070  1
  Fe  Fe34  1  0.00467732  0.67067074  0.67119421  1
  Fe  Fe35  1  0.16960193  0.83687370  0.83749630  1
  Fe  Fe36  1  0.50351265  0.17127494  0.50364492  1
  Fe  Fe37  1  0.33751589  0.00391481  0.67027697  1
  Fe  Fe38  1  0.50310277  0.17047464  0.83623554  1
  Ni  Ni39  1  0.50236054  0.50326832  0.50465217  1
  Ni  Ni40  1  0.33617968  0.33777370  0.66935899  1
  Fe  Fe41  1  0.50335556  0.50309166  0.83703237  1
  Fe  Fe42  1  0.50406350  0.83612290  0.50305782  1
  Fe  Fe43  1  0.33736901  0.67010324  0.66964882  1
  Fe  Fe44  1  0.50412147  0.83692585  0.83720390  1
  Fe  Fe45  1  0.83613190  0.16897004  0.50357115  1
  Ni  Ni46  1  0.67128506  1.00241383  0.67010123  1
  Fe  Fe47  1  0.83663554  0.16963911  0.83653312  1
  Cr  Cr48  1  0.83528520  0.50311766  0.50372552  1
  Fe  Fe49  1  0.66855499  0.33540327  0.67097225  1
  Fe  Fe50  1  0.83665197  0.50412488  0.83688060  1
  Fe  Fe51  1  0.83635893  0.83748820  0.50296152  1
  Fe  Fe52  1  0.66833231  0.67063473  0.67152652  1
  Fe  Fe53  1  0.83667250  0.83667109  0.83764227  1
" 