6687,Ni26Fe65Cr8_7,-232.789186697109, 194.070606196167,Ni26Fe65Cr8,"# generated using pymatgen
 data_Cr5(Fe5Ni2)7
_symmetry_space_group_name_H-M   'P 1'
_cell_length_a   7.42004849
_cell_length_b   7.42004849
_cell_length_c   10.49353321
_cell_angle_alpha   90.00000000
_cell_angle_beta   90.00000000
_cell_angle_gamma   90.00000000
_symmetry_Int_Tables_number   1
_chemical_formula_structural   Cr5(Fe5Ni2)7
_chemical_formula_sum   'Cr5 Fe35 Ni14'
_cell_volume   577.74371380
_cell_formula_units_Z   1
loop_
 _symmetry_equiv_pos_site_id
 _symmetry_equiv_pos_as_xyz
  1  'x, y, z'
loop_
 _atom_site_type_symbol
 _atom_site_label
 _atom_site_symmetry_multiplicity
 _atom_site_fract_x
 _atom_site_fract_y
 _atom_site_fract_z
 _atom_site_occupancy
  Ni  Ni0  1  1.00153627  1.00267912  1.00290409  1
  Cr  Cr1  1  0.17054312  0.16873703  0.16946481  1
  Fe  Fe2  1  0.00360638  1.00222727  0.33723531  1
  Fe  Fe3  1  1.00312648  0.33637268  1.00284717  1
  Fe  Fe4  1  0.16966898  0.50420849  0.17062112  1
  Fe  Fe5  1  0.00337455  0.33721222  0.33751501  1
  Ni  Ni6  1  1.00253823  0.67126519  0.00425170  1
  Fe  Fe7  1  0.16802329  0.83516919  0.17052270  1
  Fe  Fe8  1  0.00392753  0.67006254  0.33567108  1
  Fe  Fe9  1  0.33539979  0.00464727  1.00165406  1
  Ni  Ni10  1  0.50313431  0.17087443  0.16971617  1
  Ni  Ni11  1  0.33624642  1.00272712  0.33758748  1
  Fe  Fe12  1  0.33679145  0.33583935  1.00236314  1
  Ni  Ni13  1  0.50561462  0.50205920  0.17111969  1
  Fe  Fe14  1  0.33743643  0.33702887  0.33689125  1
  Cr  Cr15  1  0.33584613  0.66789903  1.00250185  1
  Cr  Cr16  1  0.50326397  0.83679728  0.17041486  1
  Ni  Ni17  1  0.33599594  0.66928858  0.33755632  1
  Fe  Fe18  1  0.67156196  0.00373680  1.00246052  1
  Fe  Fe19  1  0.83393461  0.17044528  0.16909829  1
  Fe  Fe20  1  0.66918330  0.00345738  0.33725015  1
  Fe  Fe21  1  0.66958880  0.33617261  0.00432096  1
  Ni  Ni22  1  0.83614562  0.50428578  0.16960462  1
  Fe  Fe23  1  0.66869173  0.33671013  0.33555261  1
  Fe  Fe24  1  0.67209026  0.66959840  1.00286611  1
  Fe  Fe25  1  0.83775802  0.83611083  0.16919064  1
  Fe  Fe26  1  0.66936653  0.66933343  0.33758559  1
  Ni  Ni27  1  0.17016684  0.17015613  0.50268483  1
  Cr  Cr28  1  0.00370460  0.00406078  0.66978543  1
  Ni  Ni29  1  0.16997787  0.16936480  0.83719445  1
  Fe  Fe30  1  0.17030312  0.50337485  0.50289722  1
  Fe  Fe31  1  0.00414661  0.33646510  0.66913949  1
  Fe  Fe32  1  0.17029603  0.50167482  0.83598528  1
  Fe  Fe33  1  0.17178899  0.83650635  0.50201807  1
  Fe  Fe34  1  0.00380922  0.66951471  0.66953162  1
  Fe  Fe35  1  0.16936122  0.83705134  0.83696680  1
  Fe  Fe36  1  0.50218755  0.16869921  0.50254154  1
  Ni  Ni37  1  0.33735886  0.00359994  0.67041475  1
  Fe  Fe38  1  0.50307276  0.17027712  0.83685630  1
  Fe  Fe39  1  0.50278275  0.50373020  0.50329551  1
  Fe  Fe40  1  0.33647658  0.33617837  0.67024791  1
  Ni  Ni41  1  0.50331507  0.50420939  0.83562034  1
  Ni  Ni42  1  0.50319388  0.83609585  0.50378463  1
  Fe  Fe43  1  0.33743790  0.67042331  0.66957674  1
  Fe  Fe44  1  0.50410990  0.83755755  0.83472277  1
  Fe  Fe45  1  0.83584823  0.17018758  0.50290271  1
  Fe  Fe46  1  0.66797368  1.00256246  0.66979435  1
  Ni  Ni47  1  0.83794647  0.16910303  0.83751429  1
  Fe  Fe48  1  0.83641427  0.50340432  0.50315350  1
  Fe  Fe49  1  0.66887828  0.33568181  0.66962667  1
  Cr  Cr50  1  0.83607876  0.50371800  0.83622892  1
  Fe  Fe51  1  0.83549352  0.83590872  0.50273079  1
  Ni  Ni52  1  0.66847630  0.66912232  0.66945602  1
  Fe  Fe53  1  0.83602594  0.83744635  0.83758166  1
" 