5238,Ni26Fe65Cr8_17,-233.043448947481, 196.408670836122,Ni26Fe65Cr8,"# generated using pymatgen
 data_Cr5(Fe5Ni2)7
_symmetry_space_group_name_H-M   'P 1'
_cell_length_a   7.41868353
_cell_length_b   7.41868353
_cell_length_c   10.49160286
_cell_angle_alpha   90.00000000
_cell_angle_beta   90.00000000
_cell_angle_gamma   90.00000000
_symmetry_Int_Tables_number   1
_chemical_formula_structural   Cr5(Fe5Ni2)7
_chemical_formula_sum   'Cr5 Fe35 Ni14'
_cell_volume   577.42493399
_cell_formula_units_Z   1
loop_
 _symmetry_equiv_pos_site_id
 _symmetry_equiv_pos_as_xyz
  1  'x, y, z'
loop_
 _atom_site_type_symbol
 _atom_site_label
 _atom_site_symmetry_multiplicity
 _atom_site_fract_x
 _atom_site_fract_y
 _atom_site_fract_z
 _atom_site_occupancy
  Fe  Fe0  1  1.00102486  1.00267291  1.00182581  1
  Cr  Cr1  1  0.17121317  0.17168059  0.16865247  1
  Cr  Cr2  1  1.00185665  1.00162920  0.33700455  1
  Fe  Fe3  1  1.00135722  0.33733261  1.00294367  1
  Fe  Fe4  1  0.17063282  0.50461978  0.17097235  1
  Ni  Ni5  1  0.00379888  0.33846936  0.33624856  1
  Fe  Fe6  1  1.00205833  0.66977883  0.00349708  1
  Fe  Fe7  1  0.17163213  0.83445553  0.16934799  1
  Ni  Ni8  1  0.00441648  0.66941088  0.33703457  1
  Fe  Fe9  1  0.33952712  1.00301227  1.00308297  1
  Ni  Ni10  1  0.50423581  0.16870642  0.17024348  1
  Fe  Fe11  1  0.34030364  1.00062751  0.33641948  1
  Ni  Ni12  1  0.33761223  0.33711534  1.00222282  1
  Fe  Fe13  1  0.50361522  0.50296764  0.16863007  1
  Fe  Fe14  1  0.33736784  0.33924064  0.33613324  1
  Fe  Fe15  1  0.33862524  0.66929575  1.00321368  1
  Ni  Ni16  1  0.50459219  0.83712418  0.16873569  1
  Fe  Fe17  1  0.33584062  0.66992551  0.33703781  1
  Ni  Ni18  1  0.67051540  1.00288969  1.00312957  1
  Fe  Fe19  1  0.83273176  0.17054732  0.16890761  1
  Fe  Fe20  1  0.66852199  1.00256221  0.33590349  1
  Ni  Ni21  1  0.66827438  0.33651990  0.00345070  1
  Fe  Fe22  1  0.83553128  0.50331784  0.17066141  1
  Fe  Fe23  1  0.67032392  0.33613900  0.33498357  1
  Ni  Ni24  1  0.66961133  0.67036599  1.00301166  1
  Fe  Fe25  1  0.83437161  0.83591285  0.16845370  1
  Ni  Ni26  1  0.66837377  0.67087925  0.33560598  1
  Cr  Cr27  1  0.17107082  0.17302394  0.50247799  1
  Cr  Cr28  1  1.00245778  1.00223482  0.66937721  1
  Fe  Fe29  1  0.17099242  0.17098754  0.83758936  1
  Ni  Ni30  1  0.16955423  0.50357319  0.50301301  1
  Fe  Fe31  1  1.00304765  0.33896924  0.67059710  1
  Fe  Fe32  1  0.17013940  0.50340402  0.83618587  1
  Fe  Fe33  1  0.17179834  0.83226912  0.50304102  1
  Fe  Fe34  1  0.00374408  0.66916811  0.67026272  1
  Fe  Fe35  1  0.17057720  0.83538421  0.83739231  1
  Fe  Fe36  1  0.50449684  0.17002899  0.50274761  1
  Fe  Fe37  1  0.33990832  1.00157456  0.67027143  1
  Fe  Fe38  1  0.50387841  0.17031159  0.83794102  1
  Fe  Fe39  1  0.50133180  0.50413819  0.50410408  1
  Fe  Fe40  1  0.33772030  0.33836339  0.67139627  1
  Ni  Ni41  1  0.50380359  0.50326452  0.83648607  1
  Ni  Ni42  1  0.50429391  0.83740060  0.50401356  1
  Fe  Fe43  1  0.33708951  0.66984615  0.66952494  1
  Fe  Fe44  1  0.50463485  0.83572212  0.83662738  1
  Fe  Fe45  1  0.83355572  0.17029252  0.50303760  1
  Fe  Fe46  1  0.66832963  1.00226805  0.67024670  1
  Fe  Fe47  1  0.83490621  0.17074930  0.83783213  1
  Cr  Cr48  1  0.83835323  0.50432915  0.50424693  1
  Fe  Fe49  1  0.66901102  0.33615466  0.67158601  1
  Fe  Fe50  1  0.83523696  0.50415965  0.83654343  1
  Fe  Fe51  1  0.83478868  0.83542298  0.50369416  1
  Ni  Ni52  1  0.66810844  0.67052531  0.67116264  1
  Ni  Ni53  1  0.83522391  0.83525422  0.83726662  1
" 