3216,Ni26Fe69Cr3_7,-233.474704689952, 191.812794715905,Ni26Fe69Cr3,"# generated using pymatgen
 data_Cr3Fe37Ni14
_symmetry_space_group_name_H-M   'P 1'
_cell_length_a   7.41252435
_cell_length_b   7.41252435
_cell_length_c   10.48289247
_cell_angle_alpha   90.00000000
_cell_angle_beta   90.00000000
_cell_angle_gamma   90.00000000
_symmetry_Int_Tables_number   1
_chemical_formula_structural   Cr3Fe37Ni14
_chemical_formula_sum   'Cr3 Fe37 Ni14'
_cell_volume   575.98794966
_cell_formula_units_Z   1
loop_
 _symmetry_equiv_pos_site_id
 _symmetry_equiv_pos_as_xyz
  1  'x, y, z'
loop_
 _atom_site_type_symbol
 _atom_site_label
 _atom_site_symmetry_multiplicity
 _atom_site_fract_x
 _atom_site_fract_y
 _atom_site_fract_z
 _atom_site_occupancy
  Fe  Fe0  1  1.00293803  0.00423867  1.00356920  1
  Fe  Fe1  1  0.17087191  0.17092324  0.17247102  1
  Fe  Fe2  1  1.00289266  0.00392955  0.33838109  1
  Fe  Fe3  1  0.00508331  0.33723846  0.00374960  1
  Ni  Ni4  1  0.16788624  0.50167443  0.17157941  1
  Fe  Fe5  1  1.00269628  0.33643668  0.33727030  1
  Fe  Fe6  1  1.00292167  0.66888938  0.00368156  1
  Fe  Fe7  1  0.16985553  0.83703889  0.17257267  1
  Fe  Fe8  1  1.00241286  0.67061104  0.33719261  1
  Cr  Cr9  1  0.33757534  0.00484463  1.00276510  1
  Ni  Ni10  1  0.50449201  0.16993669  0.17097591  1
  Fe  Fe11  1  0.33859303  1.00359695  0.33715915  1
  Ni  Ni12  1  0.33541346  0.33641539  0.00506557  1
  Fe  Fe13  1  0.50360654  0.50193307  0.17125174  1
  Fe  Fe14  1  0.33743602  0.33601131  0.33678632  1
  Cr  Cr15  1  0.33537140  0.66926725  0.00446911  1
  Ni  Ni16  1  0.50624353  0.83810961  0.17185278  1
  Fe  Fe17  1  0.33828012  0.67142618  0.33612913  1
  Fe  Fe18  1  0.67092235  1.00361773  0.00410362  1
  Fe  Fe19  1  0.83625224  0.16998974  0.17070948  1
  Ni  Ni20  1  0.67111121  0.00398537  0.33697893  1
  Fe  Fe21  1  0.67041198  0.33578394  0.00406441  1
  Fe  Fe22  1  0.83560187  0.50355913  0.16960177  1
  Fe  Fe23  1  0.67054954  0.33620023  0.33766384  1
  Fe  Fe24  1  0.67179015  0.67191968  0.00426533  1
  Fe  Fe25  1  0.83721134  0.83745878  0.17168608  1
  Fe  Fe26  1  0.67031223  0.67136252  0.33773530  1
  Ni  Ni27  1  0.17005296  0.17224873  0.50297598  1
  Fe  Fe28  1  1.00320938  0.00557476  0.66902527  1
  Fe  Fe29  1  0.17035475  0.17240054  0.83496619  1
  Fe  Fe30  1  0.17085673  0.50503206  0.50356483  1
  Fe  Fe31  1  1.00239682  0.33595041  0.66960261  1
  Ni  Ni32  1  0.16783934  0.50093620  0.83532364  1
  Fe  Fe33  1  0.16999733  0.83833879  0.50362620  1
  Fe  Fe34  1  1.00213880  0.66920566  0.66997608  1
  Fe  Fe35  1  0.16877946  0.83473550  0.83477424  1
  Fe  Fe36  1  0.50411673  0.16874582  0.50345609  1
  Fe  Fe37  1  0.33866117  0.00541704  0.66981365  1
  Fe  Fe38  1  0.50493321  0.17246526  0.83605402  1
  Fe  Fe39  1  0.50337666  0.50344838  0.50463268  1
  Ni  Ni40  1  0.33625500  0.33746078  0.66960467  1
  Cr  Cr41  1  0.50419816  0.50398286  0.83729283  1
  Ni  Ni42  1  0.50517656  0.83759790  0.50387225  1
  Fe  Fe43  1  0.33787030  0.67138089  0.67006106  1
  Ni  Ni44  1  0.50602062  0.83971537  0.83514910  1
  Fe  Fe45  1  0.83602975  0.16779105  0.50361947  1
  Ni  Ni46  1  0.67143595  0.00395290  0.67098928  1
  Fe  Fe47  1  0.83587963  0.17130190  0.83658140  1
  Fe  Fe48  1  0.83672893  0.50399257  0.50459102  1
  Ni  Ni49  1  0.67106222  0.33543175  0.66873502  1
  Ni  Ni50  1  0.83891879  0.50265003  0.83705948  1
  Ni  Ni51  1  0.83545659  0.83713378  0.50409676  1
  Fe  Fe52  1  0.67096142  0.66995373  0.66955421  1
  Fe  Fe53  1  0.83715995  0.83535690  0.83587099  1
" 