2972,Ni26Fe65Cr8_4,-233.048588820055, 193.519077516883,Ni26Fe65Cr8,"# generated using pymatgen
 data_Cr5(Fe5Ni2)7
_symmetry_space_group_name_H-M   'P 1'
_cell_length_a   7.42081543
_cell_length_b   7.42081543
_cell_length_c   10.49461782
_cell_angle_alpha   90.00000000
_cell_angle_beta   90.00000000
_cell_angle_gamma   90.00000000
_symmetry_Int_Tables_number   1
_chemical_formula_structural   Cr5(Fe5Ni2)7
_chemical_formula_sum   'Cr5 Fe35 Ni14'
_cell_volume   577.92287854
_cell_formula_units_Z   1
loop_
 _symmetry_equiv_pos_site_id
 _symmetry_equiv_pos_as_xyz
  1  'x, y, z'
loop_
 _atom_site_type_symbol
 _atom_site_label
 _atom_site_symmetry_multiplicity
 _atom_site_fract_x
 _atom_site_fract_y
 _atom_site_fract_z
 _atom_site_occupancy
  Fe  Fe0  1  0.00315178  0.00341423  1.00290883  1
  Fe  Fe1  1  0.17089303  0.17205816  0.16910429  1
  Fe  Fe2  1  0.99991264  1.00185203  0.33462530  1
  Ni  Ni3  1  1.00107048  0.33686775  1.00209769  1
  Ni  Ni4  1  0.16962392  0.50483763  0.16775448  1
  Cr  Cr5  1  1.00065594  0.33779415  0.33649779  1
  Ni  Ni6  1  1.00249198  0.66895920  0.00358758  1
  Ni  Ni7  1  0.16667534  0.83602447  0.16823927  1
  Fe  Fe8  1  0.99951663  0.67003686  0.33444983  1
  Cr  Cr9  1  0.33835237  1.00184774  0.00386799  1
  Ni  Ni10  1  0.50631580  0.17144998  0.16921408  1
  Fe  Fe11  1  0.33929375  0.00537858  0.33321841  1
  Ni  Ni12  1  0.33564997  0.33730441  0.00390333  1
  Ni  Ni13  1  0.50433710  0.50158393  0.16745739  1
  Fe  Fe14  1  0.34027793  0.33628788  0.33335323  1
  Ni  Ni15  1  0.33615444  0.66973961  1.00229528  1
  Fe  Fe16  1  0.50409519  0.83447686  0.16826006  1
  Cr  Cr17  1  0.33700412  0.67018055  0.33512614  1
  Fe  Fe18  1  0.67157576  0.00319688  1.00262288  1
  Fe  Fe19  1  0.83584196  0.17025792  0.16880560  1
  Fe  Fe20  1  0.66919294  0.00441075  0.33634306  1
  Fe  Fe21  1  0.66922622  0.33711546  1.00290122  1
  Fe  Fe22  1  0.83501815  0.50349958  0.16860359  1
  Ni  Ni23  1  0.67029400  0.33532032  0.33677787  1
  Fe  Fe24  1  0.66887491  0.66879350  1.00229816  1
  Fe  Fe25  1  0.83483325  0.83527148  0.16862061  1
  Fe  Fe26  1  0.67146963  0.66725595  0.33614985  1
  Cr  Cr27  1  0.17207537  0.16916372  0.50220418  1
  Fe  Fe28  1  0.99964654  0.00471284  0.67164884  1
  Fe  Fe29  1  0.16993858  0.17086178  0.83619117  1
  Fe  Fe30  1  0.16936456  0.50163350  0.50468036  1
  Fe  Fe31  1  1.00096194  0.33749566  0.67072134  1
  Fe  Fe32  1  0.17030553  0.50362974  0.83883228  1
  Cr  Cr33  1  0.16907832  0.83563974  0.50496996  1
  Fe  Fe34  1  1.00033412  0.66720133  0.67172043  1
  Fe  Fe35  1  0.16906348  0.83467546  0.83606245  1
  Ni  Ni36  1  0.50499922  0.17039357  0.50382373  1
  Fe  Fe37  1  0.34017558  0.00413174  0.67247786  1
  Fe  Fe38  1  0.50437601  0.17112146  0.83644520  1
  Fe  Fe39  1  0.50490927  0.50013921  0.50306004  1
  Fe  Fe40  1  0.33884584  0.33718241  0.67185059  1
  Fe  Fe41  1  0.50357889  0.50287411  0.83777792  1
  Fe  Fe42  1  0.50648979  0.83810569  0.50518589  1
  Fe  Fe43  1  0.33910868  0.66779757  0.67199773  1
  Ni  Ni44  1  0.50402652  0.83550591  0.83665371  1
  Ni  Ni45  1  0.83441387  0.17070866  0.50450024  1
  Fe  Fe46  1  0.66932514  0.00367668  0.67091488  1
  Fe  Fe47  1  0.83514720  0.16982194  0.83610789  1
  Ni  Ni48  1  0.83499561  0.50441293  0.50403880  1
  Ni  Ni49  1  0.67060836  0.33604282  0.66985069  1
  Fe  Fe50  1  0.83529584  0.50364866  0.83617981  1
  Fe  Fe51  1  0.83402650  0.83804825  0.50328150  1
  Fe  Fe52  1  0.66960332  0.66869847  0.67042477  1
  Fe  Fe53  1  0.83571855  0.83567211  0.83752573  1
" 