4371,Ni26Fe69Cr3_12,-232.971535654188, 194.127153408432,Ni26Fe69Cr3,"# generated using pymatgen
 data_Cr3Fe37Ni14
_symmetry_space_group_name_H-M   'P 1'
_cell_length_a   7.40569892
_cell_length_b   7.40569892
_cell_length_c   10.47323985
_cell_angle_alpha   90.00000000
_cell_angle_beta   90.00000000
_cell_angle_gamma   90.00000000
_symmetry_Int_Tables_number   1
_chemical_formula_structural   Cr3Fe37Ni14
_chemical_formula_sum   'Cr3 Fe37 Ni14'
_cell_volume   574.39830981
_cell_formula_units_Z   1
loop_
 _symmetry_equiv_pos_site_id
 _symmetry_equiv_pos_as_xyz
  1  'x, y, z'
loop_
 _atom_site_type_symbol
 _atom_site_label
 _atom_site_symmetry_multiplicity
 _atom_site_fract_x
 _atom_site_fract_y
 _atom_site_fract_z
 _atom_site_occupancy
  Ni  Ni0  1  1.00303852  1.00299952  1.00412880  1
  Fe  Fe1  1  0.17151189  0.17042794  0.17052160  1
  Fe  Fe2  1  1.00263545  1.00319888  0.33582663  1
  Fe  Fe3  1  1.00364891  0.33637369  1.00385061  1
  Fe  Fe4  1  0.17025970  0.50402048  0.16976840  1
  Fe  Fe5  1  1.00219094  0.33826783  0.33669034  1
  Ni  Ni6  1  0.00459339  0.67169068  1.00332060  1
  Ni  Ni7  1  0.17054416  0.83826247  0.17008900  1
  Ni  Ni8  1  1.00383140  0.67098313  0.33883071  1
  Fe  Fe9  1  0.33706564  1.00325601  0.00425668  1
  Fe  Fe10  1  0.50443612  0.17045681  0.17157933  1
  Fe  Fe11  1  0.33892866  0.00460746  0.33676458  1
  Ni  Ni12  1  0.33797937  0.33804854  0.00448714  1
  Ni  Ni13  1  0.50511610  0.50445362  0.17001519  1
  Fe  Fe14  1  0.33922542  0.33670792  0.33635126  1
  Fe  Fe15  1  0.33757549  0.67178786  0.00469973  1
  Ni  Ni16  1  0.50396713  0.83686069  0.17047907  1
  Cr  Cr17  1  0.33619486  0.67029892  0.33794575  1
  Ni  Ni18  1  0.67140565  0.00423711  1.00304066  1
  Ni  Ni19  1  0.83849011  0.17142915  0.17193432  1
  Ni  Ni20  1  0.67084399  0.00592221  0.33891634  1
  Fe  Fe21  1  0.67172068  0.33688525  0.00475393  1
  Fe  Fe22  1  0.83732244  0.50507569  0.17128739  1
  Ni  Ni23  1  0.67015178  0.33553624  0.33845096  1
  Fe  Fe24  1  0.67033757  0.67142102  1.00389600  1
  Fe  Fe25  1  0.83734971  0.83757005  0.17068401  1
  Fe  Fe26  1  0.67241503  0.67066339  0.33745482  1
  Cr  Cr27  1  0.17064038  0.17073621  0.50270263  1
  Fe  Fe28  1  1.00300506  1.00345976  0.67236928  1
  Fe  Fe29  1  0.17091858  0.17046097  0.83750471  1
  Fe  Fe30  1  0.17015733  0.50474613  0.50501597  1
  Fe  Fe31  1  1.00286007  0.33830291  0.67187793  1
  Fe  Fe32  1  0.17081058  0.50406822  0.83764781  1
  Fe  Fe33  1  0.17008298  0.83679849  0.50437764  1
  Fe  Fe34  1  0.00596397  0.67066506  0.67052558  1
  Fe  Fe35  1  0.17016772  0.83789656  0.83813687  1
  Ni  Ni36  1  0.50600192  0.17098941  0.50414941  1
  Fe  Fe37  1  0.33890834  1.00291013  0.67139943  1
  Fe  Fe38  1  0.50452908  0.17042709  0.83708556  1
  Fe  Fe39  1  0.50408404  0.50134492  0.50356737  1
  Fe  Fe40  1  0.33861207  0.33840792  0.67181220  1
  Fe  Fe41  1  0.50349607  0.50296121  0.83889233  1
  Fe  Fe42  1  0.50415557  0.84019990  0.50420289  1
  Fe  Fe43  1  0.33605659  0.67110745  0.67079109  1
  Ni  Ni44  1  0.50270892  0.83745941  0.83822816  1
  Fe  Fe45  1  0.83478597  0.17080739  0.50379794  1
  Fe  Fe46  1  0.67051251  0.00601369  0.67100838  1
  Ni  Ni47  1  0.83821334  0.17143410  0.83570211  1
  Fe  Fe48  1  0.83818360  0.50276884  0.50295712  1
  Fe  Fe49  1  0.67095743  0.33545329  0.67014203  1
  Fe  Fe50  1  0.83812216  0.50371213  0.83818241  1
  Fe  Fe51  1  0.83818625  0.83885047  0.50295892  1
  Cr  Cr52  1  0.67068356  0.67131384  0.66982774  1
  Fe  Fe53  1  0.83808339  0.83892954  0.83878021  1
" 