269,Ni26Fe65Cr8_18,-232.458845398281, 198.599300808455,Ni26Fe65Cr8,"# generated using pymatgen
 data_Cr5(Fe5Ni2)7
_symmetry_space_group_name_H-M   'P 1'
_cell_length_a   7.41688671
_cell_length_b   7.41688671
_cell_length_c   10.48906178
_cell_angle_alpha   90.00000000
_cell_angle_beta   90.00000000
_cell_angle_gamma   90.00000000
_symmetry_Int_Tables_number   1
_chemical_formula_structural   Cr5(Fe5Ni2)7
_chemical_formula_sum   'Cr5 Fe35 Ni14'
_cell_volume   577.00547587
_cell_formula_units_Z   1
loop_
 _symmetry_equiv_pos_site_id
 _symmetry_equiv_pos_as_xyz
  1  'x, y, z'
loop_
 _atom_site_type_symbol
 _atom_site_label
 _atom_site_symmetry_multiplicity
 _atom_site_fract_x
 _atom_site_fract_y
 _atom_site_fract_z
 _atom_site_occupancy
  Ni  Ni0  1  0.00403456  1.00321699  0.00468224  1
  Fe  Fe1  1  0.16951068  0.17047496  0.16877719  1
  Fe  Fe2  1  1.00192558  0.00377442  0.33677963  1
  Fe  Fe3  1  0.00613423  0.33420807  0.00365181  1
  Ni  Ni4  1  0.17253673  0.50282048  0.17073528  1
  Fe  Fe5  1  1.00299574  0.33582097  0.33718957  1
  Cr  Cr6  1  0.00391146  0.67161778  1.00169810  1
  Fe  Fe7  1  0.17018405  0.83762211  0.17039067  1
  Fe  Fe8  1  1.00298064  0.67054230  0.33766478  1
  Ni  Ni9  1  0.33651049  0.00509460  1.00288295  1
  Fe  Fe10  1  0.50365488  0.17068720  0.16964024  1
  Fe  Fe11  1  0.33701646  0.00461558  0.33548824  1
  Ni  Ni12  1  0.33791216  0.33613135  0.00355843  1
  Fe  Fe13  1  0.50182099  0.50257846  0.17052184  1
  Fe  Fe14  1  0.33766630  0.33671399  0.33624925  1
  Fe  Fe15  1  0.33751810  0.67027041  1.00326751  1
  Fe  Fe16  1  0.50350671  0.83688124  0.17021855  1
  Fe  Fe17  1  0.33684690  0.66881541  0.33640294  1
  Fe  Fe18  1  0.66896570  1.00322207  0.00470405  1
  Ni  Ni19  1  0.83696806  0.16830541  0.16977472  1
  Ni  Ni20  1  0.67150173  0.00522362  0.33565442  1
  Fe  Fe21  1  0.66826180  0.33557075  0.00378386  1
  Cr  Cr22  1  0.83665564  0.50125937  0.17052995  1
  Ni  Ni23  1  0.66860408  0.33551819  0.33786895  1
  Fe  Fe24  1  0.66740975  0.67134436  1.00243548  1
  Fe  Fe25  1  0.83646041  0.83943969  0.17121766  1
  Fe  Fe26  1  0.67032493  0.66988875  0.33746142  1
  Fe  Fe27  1  0.16943865  0.17002953  0.50426164  1
  Ni  Ni28  1  0.00365477  1.00309536  0.66882056  1
  Ni  Ni29  1  0.17141335  0.16969460  0.83769131  1
  Fe  Fe30  1  0.17080352  0.50364382  0.50227901  1
  Fe  Fe31  1  0.00468330  0.33606905  0.66931134  1
  Fe  Fe32  1  0.17233239  0.50073205  0.83728144  1
  Fe  Fe33  1  0.16886154  0.83647218  0.50312917  1
  Cr  Cr34  1  0.00359081  0.67128895  0.66970419  1
  Fe  Fe35  1  0.17187715  0.83988383  0.83661866  1
  Fe  Fe36  1  0.50485778  0.17206900  0.50330284  1
  Fe  Fe37  1  0.33524160  0.00396986  0.67181453  1
  Ni  Ni38  1  0.50094194  0.16918896  0.83651301  1
  Ni  Ni39  1  0.50374764  0.50274369  0.50311004  1
  Fe  Fe40  1  0.33623917  0.33663133  0.67080322  1
  Fe  Fe41  1  0.50275059  0.50233066  0.83618547  1
  Cr  Cr42  1  0.50364429  0.83610218  0.50429344  1
  Ni  Ni43  1  0.33703940  0.66848853  0.67147449  1
  Fe  Fe44  1  0.50265257  0.83772021  0.83658443  1
  Fe  Fe45  1  0.83584776  0.17012482  0.50275230  1
  Fe  Fe46  1  0.67022488  1.00259581  0.66957890  1
  Cr  Cr47  1  0.83835498  0.17005063  0.83721635  1
  Ni  Ni48  1  0.83581483  0.50273605  0.50287498  1
  Fe  Fe49  1  0.66922681  0.33801414  0.66856688  1
  Fe  Fe50  1  0.83505977  0.50243334  0.83643768  1
  Ni  Ni51  1  0.83721922  0.83721359  0.50228121  1
  Fe  Fe52  1  0.66965803  0.66952785  0.67024800  1
  Fe  Fe53  1  0.83560728  0.83809424  0.83623800  1
" 