4793,Ni26Fe65Cr8_19,-232.982886411341, 198.806235483301,Ni26Fe65Cr8,"# generated using pymatgen
 data_Cr5(Fe5Ni2)7
_symmetry_space_group_name_H-M   'P 1'
_cell_length_a   7.41769124
_cell_length_b   7.41769124
_cell_length_c   10.49019956
_cell_angle_alpha   90.00000000
_cell_angle_beta   90.00000000
_cell_angle_gamma   90.00000000
_symmetry_Int_Tables_number   1
_chemical_formula_structural   Cr5(Fe5Ni2)7
_chemical_formula_sum   'Cr5 Fe35 Ni14'
_cell_volume   577.19326375
_cell_formula_units_Z   1
loop_
 _symmetry_equiv_pos_site_id
 _symmetry_equiv_pos_as_xyz
  1  'x, y, z'
loop_
 _atom_site_type_symbol
 _atom_site_label
 _atom_site_symmetry_multiplicity
 _atom_site_fract_x
 _atom_site_fract_y
 _atom_site_fract_z
 _atom_site_occupancy
  Fe  Fe0  1  0.00365183  0.00406575  0.00391227  1
  Ni  Ni1  1  0.17015573  0.16937290  0.17014821  1
  Fe  Fe2  1  0.00449441  1.00216701  0.33551802  1
  Fe  Fe3  1  1.00320005  0.33659041  1.00307036  1
  Fe  Fe4  1  0.17002302  0.50342174  0.17011039  1
  Fe  Fe5  1  0.00442275  0.33769079  0.33607644  1
  Fe  Fe6  1  1.00291784  0.66932552  0.00394223  1
  Ni  Ni7  1  0.16916337  0.83770365  0.16969235  1
  Fe  Fe8  1  0.00476605  0.67012401  0.33643705  1
  Fe  Fe9  1  0.33681952  0.00409134  0.00348696  1
  Fe  Fe10  1  0.50312696  0.17083585  0.17039443  1
  Fe  Fe11  1  0.33654668  0.00396123  0.33648168  1
  Ni  Ni12  1  0.33750030  0.33658219  0.00366140  1
  Ni  Ni13  1  0.50311482  0.50168364  0.16799779  1
  Ni  Ni14  1  0.33567029  0.33489936  0.33560992  1
  Fe  Fe15  1  0.33748192  0.66936804  1.00287747  1
  Fe  Fe16  1  0.50252987  0.83684954  0.16865143  1
  Fe  Fe17  1  0.33426725  0.67033968  0.33595864  1
  Fe  Fe18  1  0.66951075  0.00380725  1.00305885  1
  Fe  Fe19  1  0.83695949  0.17017450  0.16984210  1
  Fe  Fe20  1  0.66893891  0.00430357  0.33649145  1
  Ni  Ni21  1  0.66906318  0.33689735  0.00455333  1
  Ni  Ni22  1  0.83587770  0.50267563  0.16986473  1
  Fe  Fe23  1  0.66915321  0.33540353  0.33430872  1
  Fe  Fe24  1  0.66957994  0.66891724  0.00401106  1
  Ni  Ni25  1  0.83852882  0.83710551  0.16845409  1
  Cr  Cr26  1  0.67172894  0.67131476  0.33586775  1
  Fe  Fe27  1  0.17273020  0.17130710  0.50230426  1
  Cr  Cr28  1  0.00343006  0.00373025  0.67072516  1
  Fe  Fe29  1  0.17136346  0.17103703  0.83766503  1
  Fe  Fe30  1  0.16947652  0.50184732  0.50329594  1
  Ni  Ni31  1  0.00460235  0.33711165  0.67059962  1
  Fe  Fe32  1  0.17180105  0.50260741  0.83656617  1
  Fe  Fe33  1  0.17178602  0.83681929  0.50145185  1
  Cr  Cr34  1  1.00247909  0.66929147  0.66841818  1
  Fe  Fe35  1  0.17239917  0.83633502  0.83850665  1
  Ni  Ni36  1  0.50138458  0.16936909  0.50416382  1
  Fe  Fe37  1  0.33805533  0.00358874  0.67001078  1
  Fe  Fe38  1  0.50323846  0.17011539  0.83632756  1
  Cr  Cr39  1  0.50187494  0.50172362  0.50596036  1
  Ni  Ni40  1  0.33635627  0.33586051  0.67071504  1
  Fe  Fe41  1  0.50275874  0.50347968  0.83700472  1
  Fe  Fe42  1  0.50312153  0.83955444  0.50513060  1
  Ni  Ni43  1  0.33841884  0.67027954  0.67016714  1
  Ni  Ni44  1  0.50302528  0.83599062  0.83529556  1
  Cr  Cr45  1  0.83598205  0.17066588  0.50215538  1
  Fe  Fe46  1  0.66703340  1.00249033  0.67042154  1
  Fe  Fe47  1  0.83537786  0.17072067  0.83716355  1
  Fe  Fe48  1  0.83807422  0.50306247  0.50315760  1
  Fe  Fe49  1  0.66978470  0.33694105  0.67181994  1
  Fe  Fe50  1  0.83542447  0.50244283  0.83788060  1
  Ni  Ni51  1  0.83697388  0.83624458  0.50354890  1
  Fe  Fe52  1  0.66900555  0.67054878  0.67056154  1
  Fe  Fe53  1  0.83450290  0.83681779  0.83815792  1
" 