6036,Ni26Fe69Cr3_14,-233.060597122631, 193.777756108436,Ni26Fe69Cr3,"# generated using pymatgen
 data_Cr3Fe37Ni14
_symmetry_space_group_name_H-M   'P 1'
_cell_length_a   7.40754386
_cell_length_b   7.40754386
_cell_length_c   10.47584899
_cell_angle_alpha   90.00000000
_cell_angle_beta   90.00000000
_cell_angle_gamma   90.00000000
_symmetry_Int_Tables_number   1
_chemical_formula_structural   Cr3Fe37Ni14
_chemical_formula_sum   'Cr3 Fe37 Ni14'
_cell_volume   574.82770607
_cell_formula_units_Z   1
loop_
 _symmetry_equiv_pos_site_id
 _symmetry_equiv_pos_as_xyz
  1  'x, y, z'
loop_
 _atom_site_type_symbol
 _atom_site_label
 _atom_site_symmetry_multiplicity
 _atom_site_fract_x
 _atom_site_fract_y
 _atom_site_fract_z
 _atom_site_occupancy
  Fe  Fe0  1  1.00371501  0.00418941  0.00432028  1
  Ni  Ni1  1  0.16958349  0.16950739  0.16966242  1
  Fe  Fe2  1  1.00373351  0.00494849  0.33718989  1
  Fe  Fe3  1  0.00427162  0.33691308  0.00449461  1
  Fe  Fe4  1  0.17031655  0.50315335  0.16975623  1
  Fe  Fe5  1  1.00345518  0.33585367  0.33751318  1
  Ni  Ni6  1  0.00438625  0.67014087  1.00398094  1
  Fe  Fe7  1  0.17077323  0.83778436  0.17009643  1
  Fe  Fe8  1  1.00300379  0.67111780  0.33738003  1
  Ni  Ni9  1  0.33819952  0.00426356  1.00348732  1
  Fe  Fe10  1  0.50430894  0.17101329  0.16952962  1
  Fe  Fe11  1  0.33716140  0.00459266  0.33666697  1
  Fe  Fe12  1  0.33638630  0.33636335  0.00439986  1
  Ni  Ni13  1  0.50406121  0.50513389  0.17051045  1
  Fe  Fe14  1  0.33786207  0.33669265  0.33811084  1
  Fe  Fe15  1  0.33644445  0.67106988  0.00498473  1
  Fe  Fe16  1  0.50383036  0.83876293  0.17093587  1
  Fe  Fe17  1  0.33877281  0.67074879  0.33761200  1
  Fe  Fe18  1  0.67113734  0.00420345  0.00423464  1
  Ni  Ni19  1  0.83891756  0.16902644  0.17077119  1
  Ni  Ni20  1  0.67053318  0.00514538  0.33649853  1
  Ni  Ni21  1  0.67155302  0.33560993  0.00562774  1
  Fe  Fe22  1  0.83750370  0.50265524  0.17073530  1
  Fe  Fe23  1  0.67072124  0.33748795  0.33645320  1
  Fe  Fe24  1  0.67168445  0.67168211  0.00502729  1
  Fe  Fe25  1  0.83746847  0.83778744  0.17017266  1
  Fe  Fe26  1  0.67023637  0.67062391  0.33783107  1
  Ni  Ni27  1  0.17052734  0.16918368  0.50517123  1
  Fe  Fe28  1  0.00475685  0.00621422  0.67059736  1
  Fe  Fe29  1  0.17154182  0.17076465  0.83710390  1
  Fe  Fe30  1  0.17083755  0.50098052  0.50298251  1
  Fe  Fe31  1  0.00524694  0.33581008  0.67013712  1
  Ni  Ni32  1  0.16982726  0.50201192  0.83909430  1
  Fe  Fe33  1  0.17066134  0.83850859  0.50177785  1
  Cr  Cr34  1  1.00311898  0.66975096  0.67018277  1
  Fe  Fe35  1  0.17080578  0.83882482  0.84006386  1
  Fe  Fe36  1  0.50412802  0.17176689  0.50488335  1
  Fe  Fe37  1  0.33701200  0.00664172  0.67135121  1
  Ni  Ni38  1  0.50322565  0.16948826  0.83748433  1
  Ni  Ni39  1  0.50582259  0.50417863  0.50385975  1
  Ni  Ni40  1  0.33727797  0.33453040  0.66983094  1
  Cr  Cr41  1  0.50387714  0.50290418  0.83785932  1
  Fe  Fe42  1  0.50527338  0.83822029  0.50253722  1
  Cr  Cr43  1  0.33640234  0.67056282  0.67050517  1
  Fe  Fe44  1  0.50473889  0.84059352  0.83850839  1
  Fe  Fe45  1  0.83698225  0.17165599  0.50287887  1
  Fe  Fe46  1  0.67018199  1.00394878  0.67074278  1
  Fe  Fe47  1  0.83652961  0.17126989  0.83825609  1
  Ni  Ni48  1  0.83450899  0.50451023  0.50381744  1
  Fe  Fe49  1  0.67083036  0.33712574  0.67011813  1
  Fe  Fe50  1  0.83837088  0.50308788  0.83838044  1
  Fe  Fe51  1  0.83603259  0.83822695  0.50339141  1
  Fe  Fe52  1  0.67116950  0.67103913  0.66926934  1
  Ni  Ni53  1  0.83717814  0.83861514  0.83811884  1
" 