1396,Ni26Fe65Cr8_2,-232.806114567084, 196.959316201962,Ni26Fe65Cr8,"# generated using pymatgen
 data_Cr5(Fe5Ni2)7
_symmetry_space_group_name_H-M   'P 1'
_cell_length_a   7.41502127
_cell_length_b   7.41502127
_cell_length_c   10.48642365
_cell_angle_alpha   90.00000000
_cell_angle_beta   90.00000000
_cell_angle_gamma   90.00000000
_symmetry_Int_Tables_number   1
_chemical_formula_structural   Cr5(Fe5Ni2)7
_chemical_formula_sum   'Cr5 Fe35 Ni14'
_cell_volume   576.57021233
_cell_formula_units_Z   1
loop_
 _symmetry_equiv_pos_site_id
 _symmetry_equiv_pos_as_xyz
  1  'x, y, z'
loop_
 _atom_site_type_symbol
 _atom_site_label
 _atom_site_symmetry_multiplicity
 _atom_site_fract_x
 _atom_site_fract_y
 _atom_site_fract_z
 _atom_site_occupancy
  Fe  Fe0  1  0.00498262  1.00067975  0.00515369  1
  Ni  Ni1  1  0.17137363  0.17000248  0.17088106  1
  Cr  Cr2  1  0.00407037  0.00390692  0.33609706  1
  Cr  Cr3  1  1.00148729  0.33774083  0.00697404  1
  Fe  Fe4  1  0.17145126  0.50528344  0.17161751  1
  Fe  Fe5  1  0.00548977  0.33899215  0.33673151  1
  Ni  Ni6  1  0.00433147  0.67019401  1.00345857  1
  Fe  Fe7  1  0.17106807  0.83532304  0.16892331  1
  Fe  Fe8  1  1.00304924  0.66856757  0.33619757  1
  Ni  Ni9  1  0.33767318  1.00069943  0.00406625  1
  Cr  Cr10  1  0.50087158  0.16944267  0.16848564  1
  Fe  Fe11  1  0.33823173  1.00318907  0.33795830  1
  Fe  Fe12  1  0.33646574  0.33961286  1.00281594  1
  Ni  Ni13  1  0.50357752  0.50499086  0.16990044  1
  Fe  Fe14  1  0.33502609  0.33735363  0.33834068  1
  Ni  Ni15  1  0.33730153  0.67140944  0.00372937  1
  Fe  Fe16  1  0.50370220  0.83462864  0.17081442  1
  Fe  Fe17  1  0.33719079  0.66977747  0.33766335  1
  Fe  Fe18  1  0.67131270  1.00104225  1.00247503  1
  Fe  Fe19  1  0.83576893  0.16974834  0.16983147  1
  Fe  Fe20  1  0.66922546  1.00140319  0.33772544  1
  Fe  Fe21  1  0.66814329  0.33954884  1.00336402  1
  Ni  Ni22  1  0.83645775  0.50738777  0.17065058  1
  Cr  Cr23  1  0.67103063  0.33735693  0.33779661  1
  Fe  Fe24  1  0.66989169  0.67025695  0.00376630  1
  Ni  Ni25  1  0.83637410  0.83479256  0.16922738  1
  Fe  Fe26  1  0.67027028  0.67241279  0.33632518  1
  Fe  Fe27  1  0.17219992  0.17084694  0.50463331  1
  Fe  Fe28  1  0.00455581  1.00270451  0.66884309  1
  Cr  Cr29  1  0.17209395  0.17012946  0.83517491  1
  Ni  Ni30  1  0.16866176  0.50329980  0.50395573  1
  Ni  Ni31  1  1.00126273  0.33705395  0.66749903  1
  Fe  Fe32  1  0.17033759  0.50560103  0.83499484  1
  Fe  Fe33  1  0.17258466  0.83533585  0.50440527  1
  Fe  Fe34  1  0.00554241  0.66958548  0.67057214  1
  Fe  Fe35  1  0.17136455  0.83517687  0.83708558  1
  Ni  Ni36  1  0.50234148  0.16891260  0.50549753  1
  Ni  Ni37  1  0.33789494  1.00150913  0.66849245  1
  Fe  Fe38  1  0.50456603  0.16937838  0.83624950  1
  Fe  Fe39  1  0.50110301  0.50480414  0.50394921  1
  Ni  Ni40  1  0.33730554  0.33806119  0.66926912  1
  Fe  Fe41  1  0.50217881  0.50378783  0.83736499  1
  Ni  Ni42  1  0.50497464  0.83727051  0.50268110  1
  Ni  Ni43  1  0.33797593  0.67118671  0.66980156  1
  Fe  Fe44  1  0.50202101  0.83726985  0.83590338  1
  Fe  Fe45  1  0.83612613  0.16980627  0.50558105  1
  Fe  Fe46  1  0.66889669  0.00352094  0.66972294  1
  Fe  Fe47  1  0.83550074  0.17011650  0.83543131  1
  Fe  Fe48  1  0.83666005  0.50510497  0.50404074  1
  Fe  Fe49  1  0.66796679  0.33703136  0.66975354  1
  Fe  Fe50  1  0.83725381  0.50387296  0.83649934  1
  Fe  Fe51  1  0.83605578  0.83562255  0.50363864  1
  Fe  Fe52  1  0.66862531  0.66994934  0.66989395  1
  Fe  Fe53  1  0.83757230  0.83675826  0.83753629  1
" 