2656,Ni26Fe65Cr8_14,-232.466380915801, 195.473204070277,Ni26Fe65Cr8,"# generated using pymatgen
 data_Cr5(Fe5Ni2)7
_symmetry_space_group_name_H-M   'P 1'
_cell_length_a   7.41684664
_cell_length_b   7.41684664
_cell_length_c   10.48900510
_cell_angle_alpha   90.00000000
_cell_angle_beta   90.00000000
_cell_angle_gamma   90.00000000
_symmetry_Int_Tables_number   1
_chemical_formula_structural   Cr5(Fe5Ni2)7
_chemical_formula_sum   'Cr5 Fe35 Ni14'
_cell_volume   576.99612254
_cell_formula_units_Z   1
loop_
 _symmetry_equiv_pos_site_id
 _symmetry_equiv_pos_as_xyz
  1  'x, y, z'
loop_
 _atom_site_type_symbol
 _atom_site_label
 _atom_site_symmetry_multiplicity
 _atom_site_fract_x
 _atom_site_fract_y
 _atom_site_fract_z
 _atom_site_occupancy
  Ni  Ni0  1  0.00376802  1.00331354  1.00223943  1
  Fe  Fe1  1  0.16863004  0.17004935  0.17070461  1
  Ni  Ni2  1  0.00403665  0.00483095  0.33719340  1
  Fe  Fe3  1  1.00320265  0.33758397  0.00472396  1
  Ni  Ni4  1  0.16943694  0.50438035  0.17058097  1
  Ni  Ni5  1  1.00240652  0.33522314  0.33546098  1
  Ni  Ni6  1  1.00270119  0.67071089  0.00386528  1
  Fe  Fe7  1  0.16875003  0.83679729  0.17008334  1
  Fe  Fe8  1  0.00340703  0.67004668  0.33560766  1
  Fe  Fe9  1  0.33400265  1.00232342  0.00491597  1
  Fe  Fe10  1  0.50272691  0.17095829  0.17032610  1
  Fe  Fe11  1  0.33680633  1.00297300  0.33736039  1
  Fe  Fe12  1  0.33335771  0.33673805  0.00592947  1
  Fe  Fe13  1  0.50259273  0.50359166  0.16991265  1
  Fe  Fe14  1  0.33580258  0.33766051  0.33610389  1
  Fe  Fe15  1  0.33323901  0.67099054  0.00613571  1
  Fe  Fe16  1  0.50263673  0.83565062  0.17055382  1
  Ni  Ni17  1  0.33854930  0.67069743  0.33684027  1
  Fe  Fe18  1  0.67321041  1.00252810  0.00654318  1
  Fe  Fe19  1  0.83882356  0.16984543  0.17113430  1
  Fe  Fe20  1  0.67108734  1.00244010  0.33692094  1
  Fe  Fe21  1  0.67413852  0.33686089  0.00466860  1
  Fe  Fe22  1  0.83764846  0.50364906  0.17158387  1
  Fe  Fe23  1  0.67057482  0.33682124  0.33774407  1
  Fe  Fe24  1  0.67299008  0.67080445  0.00659130  1
  Fe  Fe25  1  0.83910590  0.83661256  0.17158045  1
  Ni  Ni26  1  0.66880474  0.66906720  0.33601606  1
  Fe  Fe27  1  0.16676124  0.16997395  0.50084150  1
  Ni  Ni28  1  1.00292410  1.00225067  0.67113300  1
  Fe  Fe29  1  0.16955793  0.16847516  0.83885698  1
  Fe  Fe30  1  0.16895982  0.50291265  0.50004188  1
  Cr  Cr31  1  1.00202533  0.33527643  0.67168172  1
  Fe  Fe32  1  0.16939134  0.50469792  0.83924848  1
  Fe  Fe33  1  0.16730683  0.83622094  0.50208207  1
  Fe  Fe34  1  1.00281765  0.67102099  0.67050339  1
  Ni  Ni35  1  0.16747311  0.83508304  0.83792519  1
  Ni  Ni36  1  0.50354216  0.17124896  0.50211127  1
  Cr  Cr37  1  0.33404369  1.00205942  0.66729664  1
  Cr  Cr38  1  0.50495258  0.17074020  0.83734683  1
  Fe  Fe39  1  0.50594391  0.50362565  0.50299491  1
  Fe  Fe40  1  0.33619370  0.33682482  0.66729170  1
  Cr  Cr41  1  0.50264387  0.50305308  0.83655031  1
  Fe  Fe42  1  0.50692185  0.83611543  0.50178551  1
  Fe  Fe43  1  0.33327905  0.66775862  0.66736230  1
  Cr  Cr44  1  0.50406010  0.83634813  0.83686844  1
  Ni  Ni45  1  0.83518381  0.16932433  0.50250222  1
  Fe  Fe46  1  0.67339314  0.00537628  0.66714437  1
  Fe  Fe47  1  0.83737603  0.16807774  0.83710434  1
  Ni  Ni48  1  0.83806810  0.50437101  0.50105347  1
  Ni  Ni49  1  0.67023052  0.33891350  0.66806939  1
  Fe  Fe50  1  0.83670315  0.50543984  0.83713199  1
  Ni  Ni51  1  0.83881173  0.83684742  0.50316572  1
  Fe  Fe52  1  0.67331266  0.67066874  0.66674365  1
  Fe  Fe53  1  0.83843541  0.83689603  0.83659169  1
" 