4352,Ni26Fe69Cr3_1,-233.432860030502, 196.883587061667,Ni26Fe69Cr3,"# generated using pymatgen
 data_Cr3Fe37Ni14
_symmetry_space_group_name_H-M   'P 1'
_cell_length_a   7.40854168
_cell_length_b   7.40854168
_cell_length_c   10.47726012
_cell_angle_alpha   90.00000000
_cell_angle_beta   90.00000000
_cell_angle_gamma   90.00000000
_symmetry_Int_Tables_number   1
_chemical_formula_structural   Cr3Fe37Ni14
_chemical_formula_sum   'Cr3 Fe37 Ni14'
_cell_volume   575.06003149
_cell_formula_units_Z   1
loop_
 _symmetry_equiv_pos_site_id
 _symmetry_equiv_pos_as_xyz
  1  'x, y, z'
loop_
 _atom_site_type_symbol
 _atom_site_label
 _atom_site_symmetry_multiplicity
 _atom_site_fract_x
 _atom_site_fract_y
 _atom_site_fract_z
 _atom_site_occupancy
  Fe  Fe0  1  1.00242326  0.00448924  1.00384345  1
  Ni  Ni1  1  0.16910865  0.17193729  0.17140720  1
  Fe  Fe2  1  0.00464246  0.00444764  0.33773097  1
  Ni  Ni3  1  1.00351497  0.33768581  0.00448110  1
  Fe  Fe4  1  0.17049428  0.50327677  0.17041895  1
  Ni  Ni5  1  0.00426259  0.33784188  0.33727350  1
  Fe  Fe6  1  1.00389082  0.67015716  0.00396429  1
  Fe  Fe7  1  0.16996880  0.83650206  0.17210033  1
  Ni  Ni8  1  1.00372640  0.66992466  0.33763980  1
  Cr  Cr9  1  0.33725177  1.00244639  1.00220063  1
  Cr  Cr10  1  0.50343673  0.17118901  0.17162605  1
  Fe  Fe11  1  0.33526113  1.00333831  0.33748783  1
  Fe  Fe12  1  0.33560853  0.33962578  1.00338723  1
  Fe  Fe13  1  0.50367456  0.50535382  0.17073584  1
  Ni  Ni14  1  0.33583863  0.33787635  0.33774998  1
  Fe  Fe15  1  0.33697831  0.66861984  1.00357317  1
  Ni  Ni16  1  0.50450532  0.83544720  0.17139960  1
  Fe  Fe17  1  0.33646841  0.67024455  0.33742603  1
  Fe  Fe18  1  0.67340493  1.00312017  1.00254946  1
  Fe  Fe19  1  0.83920847  0.17100003  0.17085176  1
  Fe  Fe20  1  0.67193845  1.00340423  0.33873787  1
  Fe  Fe21  1  0.67187294  0.33816369  1.00330684  1
  Ni  Ni22  1  0.83794918  0.50417601  0.17008274  1
  Fe  Fe23  1  0.67248268  0.33890730  0.33836524  1
  Fe  Fe24  1  0.67097834  0.67056344  0.00423645  1
  Fe  Fe25  1  0.83713292  0.83732029  0.17060291  1
  Fe  Fe26  1  0.67137756  0.66953379  0.33708174  1
  Fe  Fe27  1  0.16936005  0.17061864  0.50297414  1
  Fe  Fe28  1  1.00329207  1.00324255  0.67027131  1
  Fe  Fe29  1  0.16925351  0.17173922  0.83737862  1
  Fe  Fe30  1  0.16828505  0.50344420  0.50310660  1
  Fe  Fe31  1  1.00345964  0.33716492  0.67059852  1
  Ni  Ni32  1  0.17043069  0.50256916  0.83859065  1
  Ni  Ni33  1  0.16998065  0.83811206  0.50343331  1
  Fe  Fe34  1  1.00174045  0.67143653  0.66999663  1
  Fe  Fe35  1  0.16864457  0.83669856  0.83673759  1
  Fe  Fe36  1  0.50489733  0.17014141  0.50398475  1
  Fe  Fe37  1  0.33757296  0.00531850  0.67066525  1
  Fe  Fe38  1  0.50493734  0.17119428  0.83629673  1
  Fe  Fe39  1  0.50536286  0.50330879  0.50304308  1
  Fe  Fe40  1  0.33773299  0.33541650  0.67059986  1
  Fe  Fe41  1  0.50453951  0.50359346  0.83806708  1
  Fe  Fe42  1  0.50590744  0.83839631  0.50294331  1
  Cr  Cr43  1  0.33670962  0.67118472  0.67025853  1
  Fe  Fe44  1  0.50573401  0.83705561  0.83769079  1
  Ni  Ni45  1  0.83661212  0.17113087  0.50335414  1
  Ni  Ni46  1  0.67066539  1.00385539  0.67123104  1
  Fe  Fe47  1  0.83765373  0.17054716  0.83687253  1
  Ni  Ni48  1  0.83722049  0.50408339  0.50544286  1
  Fe  Fe49  1  0.67065115  0.33697303  0.67017435  1
  Fe  Fe50  1  0.83801351  0.50420023  0.83767485  1
  Ni  Ni51  1  0.83766536  0.83663316  0.50385628  1
  Fe  Fe52  1  0.67272285  0.67127856  0.67053112  1
  Ni  Ni53  1  0.83677505  0.83729154  0.83718660  1
" 