5167,Ni26Fe69Cr3_3,-233.341606769202, 194.476480318701,Ni26Fe69Cr3,"# generated using pymatgen
 data_Cr3Fe37Ni14
_symmetry_space_group_name_H-M   'P 1'
_cell_length_a   7.41245611
_cell_length_b   7.41245611
_cell_length_c   10.48279597
_cell_angle_alpha   90.00000000
_cell_angle_beta   90.00000000
_cell_angle_gamma   90.00000000
_symmetry_Int_Tables_number   1
_chemical_formula_structural   Cr3Fe37Ni14
_chemical_formula_sum   'Cr3 Fe37 Ni14'
_cell_volume   575.97204215
_cell_formula_units_Z   1
loop_
 _symmetry_equiv_pos_site_id
 _symmetry_equiv_pos_as_xyz
  1  'x, y, z'
loop_
 _atom_site_type_symbol
 _atom_site_label
 _atom_site_symmetry_multiplicity
 _atom_site_fract_x
 _atom_site_fract_y
 _atom_site_fract_z
 _atom_site_occupancy
  Fe  Fe0  1  1.00312617  0.00503131  1.00270000  1
  Fe  Fe1  1  0.17053594  0.17090071  0.16996245  1
  Fe  Fe2  1  1.00353311  1.00352830  0.33735709  1
  Fe  Fe3  1  1.00283458  0.33543141  1.00308134  1
  Ni  Ni4  1  0.17023636  0.50312617  0.17052849  1
  Fe  Fe5  1  1.00347474  0.33759141  0.33719189  1
  Cr  Cr6  1  0.00450646  0.66987213  1.00270260  1
  Fe  Fe7  1  0.17084365  0.83650503  0.17095098  1
  Ni  Ni8  1  1.00351228  0.66994641  0.33747819  1
  Fe  Fe9  1  0.33728817  1.00309466  1.00353052  1
  Fe  Fe10  1  0.50386084  0.17060545  0.17023688  1
  Fe  Fe11  1  0.33620013  1.00201496  0.33628865  1
  Fe  Fe12  1  0.33709509  0.33688329  0.00380416  1
  Fe  Fe13  1  0.50281951  0.50325020  0.17153382  1
  Fe  Fe14  1  0.33577383  0.33861823  0.33622300  1
  Fe  Fe15  1  0.33737850  0.67107040  0.00395966  1
  Ni  Ni16  1  0.50254418  0.83810889  0.17105963  1
  Fe  Fe17  1  0.33703600  0.67041398  0.33704813  1
  Ni  Ni18  1  0.66956247  0.00526913  1.00346012  1
  Fe  Fe19  1  0.83664941  0.17055548  0.17023281  1
  Fe  Fe20  1  0.67131441  1.00226140  0.33602736  1
  Fe  Fe21  1  0.67111791  0.33552431  1.00353106  1
  Ni  Ni22  1  0.83798746  0.50172671  0.17234981  1
  Fe  Fe23  1  0.67180192  0.33843050  0.33653924  1
  Cr  Cr24  1  0.67031397  0.67130317  0.00387474  1
  Fe  Fe25  1  0.83703995  0.83754956  0.17143729  1
  Fe  Fe26  1  0.67028764  0.67035497  0.33688946  1
  Fe  Fe27  1  0.16926803  0.17056348  0.50434547  1
  Fe  Fe28  1  1.00359517  0.00446194  0.67099293  1
  Ni  Ni29  1  0.16994302  0.16980413  0.83699643  1
  Fe  Fe30  1  0.17065962  0.50349251  0.50311021  1
  Ni  Ni31  1  0.00393938  0.33700667  0.67010253  1
  Fe  Fe32  1  0.16955031  0.50275118  0.83653782  1
  Fe  Fe33  1  0.17081129  0.83699049  0.50385345  1
  Fe  Fe34  1  1.00350820  0.67013324  0.67082000  1
  Ni  Ni35  1  0.17143645  0.83811076  0.83709189  1
  Cr  Cr36  1  0.50426234  0.17015609  0.50399561  1
  Fe  Fe37  1  0.33549834  1.00312376  0.67123109  1
  Fe  Fe38  1  0.50430708  0.16968989  0.83725356  1
  Ni  Ni39  1  0.50332319  0.50592383  0.50261731  1
  Fe  Fe40  1  0.33585354  0.33780954  0.67101845  1
  Fe  Fe41  1  0.50330671  0.50288267  0.83570547  1
  Ni  Ni42  1  0.50302198  0.83500728  0.50394001  1
  Fe  Fe43  1  0.33693375  0.67011461  0.67003875  1
  Fe  Fe44  1  0.50360839  0.83847848  0.83655235  1
  Ni  Ni45  1  0.83897300  0.17073705  0.50364017  1
  Fe  Fe46  1  0.67195709  1.00337585  0.67142695  1
  Ni  Ni47  1  0.83735625  0.17084281  0.83784873  1
  Fe  Fe48  1  0.83631774  0.50351199  0.50362143  1
  Fe  Fe49  1  0.67193922  0.33789455  0.67097739  1
  Ni  Ni50  1  0.83683775  0.50173296  0.83517931  1
  Fe  Fe51  1  0.83609937  0.83703613  0.50379046  1
  Fe  Fe52  1  0.67060304  0.66977729  0.67047107  1
  Ni  Ni53  1  0.83726552  0.83847310  0.83571227  1
" 