8463,Ni26Fe69Cr3_15,-233.494099666695, 191.636930476384,Ni26Fe69Cr3,"# generated using pymatgen
 data_Cr3Fe37Ni14
_symmetry_space_group_name_H-M   'P 1'
_cell_length_a   7.41167739
_cell_length_b   7.41167739
_cell_length_c   10.48169468
_cell_angle_alpha   90.00000000
_cell_angle_beta   90.00000000
_cell_angle_gamma   90.00000000
_symmetry_Int_Tables_number   1
_chemical_formula_structural   Cr3Fe37Ni14
_chemical_formula_sum   'Cr3 Fe37 Ni14'
_cell_volume   575.79053303
_cell_formula_units_Z   1
loop_
 _symmetry_equiv_pos_site_id
 _symmetry_equiv_pos_as_xyz
  1  'x, y, z'
loop_
 _atom_site_type_symbol
 _atom_site_label
 _atom_site_symmetry_multiplicity
 _atom_site_fract_x
 _atom_site_fract_y
 _atom_site_fract_z
 _atom_site_occupancy
  Fe  Fe0  1  1.00254861  1.00320048  0.00545786  1
  Fe  Fe1  1  0.17128251  0.17103999  0.16888326  1
  Fe  Fe2  1  1.00351112  1.00300355  0.33710533  1
  Ni  Ni3  1  1.00179830  0.33925332  0.00479476  1
  Fe  Fe4  1  0.17126904  0.50508904  0.17075686  1
  Fe  Fe5  1  1.00334956  0.33732130  0.33546723  1
  Fe  Fe6  1  1.00246815  0.67102537  1.00364334  1
  Fe  Fe7  1  0.17167157  0.83554724  0.17039755  1
  Ni  Ni8  1  0.00415225  0.67042740  0.33691903  1
  Ni  Ni9  1  0.33895382  1.00101832  0.00460549  1
  Fe  Fe10  1  0.50522130  0.17131592  0.17003805  1
  Fe  Fe11  1  0.33712032  0.00385682  0.33600941  1
  Fe  Fe12  1  0.33949480  0.33803880  0.00474315  1
  Ni  Ni13  1  0.50415975  0.50386181  0.17034586  1
  Fe  Fe14  1  0.33935913  0.33825416  0.33605792  1
  Ni  Ni15  1  0.33621230  0.67109596  1.00290430  1
  Fe  Fe16  1  0.50352181  0.83595541  0.16963838  1
  Ni  Ni17  1  0.33737790  0.67263136  0.33746934  1
  Ni  Ni18  1  0.66953827  0.00413323  0.00376987  1
  Fe  Fe19  1  0.83500304  0.17157847  0.17001055  1
  Fe  Fe20  1  0.67068503  1.00190534  0.33645817  1
  Ni  Ni21  1  0.67157057  0.33665135  1.00244126  1
  Fe  Fe22  1  0.83549709  0.50321949  0.17013948  1
  Ni  Ni23  1  0.67108171  0.33582522  0.33829468  1
  Fe  Fe24  1  0.66855480  0.66977666  1.00368805  1
  Fe  Fe25  1  0.83578826  0.83646852  0.17128233  1
  Fe  Fe26  1  0.66995597  0.66907441  0.33743124  1
  Fe  Fe27  1  0.17164194  0.16757618  0.50327836  1
  Fe  Fe28  1  1.00283341  1.00155165  0.66934037  1
  Cr  Cr29  1  0.17034912  0.16898964  0.83893941  1
  Cr  Cr30  1  0.17274496  0.50359078  0.50311291  1
  Cr  Cr31  1  0.99970731  0.33893939  0.66926835  1
  Fe  Fe32  1  0.16989489  0.50550368  0.83798141  1
  Fe  Fe33  1  0.17040529  0.83697705  0.50355184  1
  Ni  Ni34  1  0.00413623  0.67136368  0.67118389  1
  Fe  Fe35  1  0.17086839  0.83395555  0.83757397  1
  Fe  Fe36  1  0.50458292  0.17006364  0.50362843  1
  Fe  Fe37  1  0.33710989  1.00238968  0.67046101  1
  Fe  Fe38  1  0.50600528  0.17073610  0.83743333  1
  Ni  Ni39  1  0.50477928  0.50376170  0.50357276  1
  Fe  Fe40  1  0.33975012  0.33766645  0.67078096  1
  Ni  Ni41  1  0.50438369  0.50405246  0.83736766  1
  Fe  Fe42  1  0.50409076  0.83595924  0.50369763  1
  Fe  Fe43  1  0.33863978  0.67046150  0.67140321  1
  Fe  Fe44  1  0.50413456  0.83675604  0.83787994  1
  Fe  Fe45  1  0.83497823  0.16999908  0.50212692  1
  Fe  Fe46  1  0.67183158  1.00289568  0.67069959  1
  Fe  Fe47  1  0.83451170  0.17136579  0.83838526  1
  Fe  Fe48  1  0.83490615  0.50745356  0.50294481  1
  Fe  Fe49  1  0.66810155  0.33889204  0.67062894  1
  Ni  Ni50  1  0.83509472  0.50568038  0.83774669  1
  Ni  Ni51  1  0.83738605  0.83769162  0.50336717  1
  Fe  Fe52  1  0.67156683  0.66986296  0.67008352  1
  Fe  Fe53  1  0.83612651  0.83700372  0.83651706  1
" 