600,Ni26Fe65Cr8_13,-232.39981215491, 196.325956066678,Ni26Fe65Cr8,"# generated using pymatgen
 data_Cr5(Fe5Ni2)7
_symmetry_space_group_name_H-M   'P 1'
_cell_length_a   7.41634759
_cell_length_b   7.41634759
_cell_length_c   10.48829935
_cell_angle_alpha   90.00000000
_cell_angle_beta   90.00000000
_cell_angle_gamma   90.00000000
_symmetry_Int_Tables_number   1
_chemical_formula_structural   Cr5(Fe5Ni2)7
_chemical_formula_sum   'Cr5 Fe35 Ni14'
_cell_volume   576.87966065
_cell_formula_units_Z   1
loop_
 _symmetry_equiv_pos_site_id
 _symmetry_equiv_pos_as_xyz
  1  'x, y, z'
loop_
 _atom_site_type_symbol
 _atom_site_label
 _atom_site_symmetry_multiplicity
 _atom_site_fract_x
 _atom_site_fract_y
 _atom_site_fract_z
 _atom_site_occupancy
  Fe  Fe0  1  1.00340861  1.00168950  0.00348977  1
  Fe  Fe1  1  0.17235745  0.16845835  0.17028699  1
  Fe  Fe2  1  1.00306146  1.00149505  0.33685826  1
  Cr  Cr3  1  0.00499830  0.33576054  1.00234305  1
  Fe  Fe4  1  0.17233456  0.50465688  0.16972973  1
  Cr  Cr5  1  0.00560398  0.33628439  0.33757213  1
  Fe  Fe6  1  1.00224138  0.67246688  0.00371177  1
  Ni  Ni7  1  0.16884735  0.83629945  0.17048816  1
  Fe  Fe8  1  1.00269596  0.67226523  0.33693370  1
  Fe  Fe9  1  0.33648763  1.00276732  0.00473246  1
  Ni  Ni10  1  0.50399356  0.17070755  0.17108970  1
  Fe  Fe11  1  0.33734960  1.00300372  0.33677993  1
  Ni  Ni12  1  0.33652601  0.33701486  0.00603453  1
  Fe  Fe13  1  0.50295986  0.50352491  0.16932063  1
  Fe  Fe14  1  0.33922935  0.33628811  0.33672136  1
  Fe  Fe15  1  0.33823586  0.67080789  0.00422883  1
  Fe  Fe16  1  0.50395400  0.83731649  0.17067238  1
  Fe  Fe17  1  0.33750771  0.67096399  0.33675455  1
  Ni  Ni18  1  0.67082178  1.00067836  0.00424249  1
  Fe  Fe19  1  0.83478851  0.16746367  0.17013208  1
  Ni  Ni20  1  0.66972712  1.00165123  0.33699959  1
  Fe  Fe21  1  0.66870326  0.33784367  0.00396206  1
  Fe  Fe22  1  0.83496368  0.50549730  0.16971535  1
  Fe  Fe23  1  0.66854586  0.33665277  0.33642315  1
  Ni  Ni24  1  0.66945235  0.67169510  1.00238237  1
  Fe  Fe25  1  0.83591797  0.83729221  0.17009168  1
  Ni  Ni26  1  0.66950638  0.67212731  0.33723080  1
  Ni  Ni27  1  0.17167106  0.17028884  0.50366827  1
  Cr  Cr28  1  1.00238532  0.00383692  0.67061035  1
  Fe  Fe29  1  0.17056767  0.17015798  0.83619814  1
  Fe  Fe30  1  0.17130665  0.50407760  0.50487572  1
  Fe  Fe31  1  1.00256151  0.33740968  0.66920354  1
  Cr  Cr32  1  0.16995857  0.50444665  0.83561238  1
  Fe  Fe33  1  0.17099822  0.83611919  0.50239917  1
  Ni  Ni34  1  1.00270509  0.66864054  0.66905632  1
  Fe  Fe35  1  0.17060041  0.83640173  0.83786350  1
  Fe  Fe36  1  0.50312891  0.16931091  0.50336518  1
  Fe  Fe37  1  0.33728725  1.00256090  0.66874395  1
  Cr  Cr38  1  0.50353484  0.17029814  0.83599008  1
  Fe  Fe39  1  0.50272087  0.50336088  0.50385512  1
  Ni  Ni40  1  0.33569486  0.33739769  0.66802846  1
  Ni  Ni41  1  0.50581536  0.50422492  0.83713454  1
  Ni  Ni42  1  0.50396376  0.83748161  0.50365703  1
  Fe  Fe43  1  0.33777427  0.67120932  0.66927211  1
  Fe  Fe44  1  0.50459205  0.83433832  0.83641089  1
  Fe  Fe45  1  0.83476188  0.16900726  0.50337063  1
  Ni  Ni46  1  0.66943784  1.00180545  0.66901344  1
  Fe  Fe47  1  0.83598701  0.17062439  0.83675056  1
  Fe  Fe48  1  0.83622860  0.50472075  0.50458181  1
  Fe  Fe49  1  0.67125183  0.33788967  0.66986898  1
  Ni  Ni50  1  0.83488136  0.50484681  0.83559537  1
  Fe  Fe51  1  0.83548235  0.83652541  0.50261083  1
  Fe  Fe52  1  0.67000021  0.66988563  0.67036462  1
  Fe  Fe53  1  0.83506149  0.83503887  0.83755028  1
" 