6272,Ni26Fe65Cr8_11,-232.808671404034, 195.458513646383,Ni26Fe65Cr8,"# generated using pymatgen
 data_Cr5(Fe5Ni2)7
_symmetry_space_group_name_H-M   'P 1'
_cell_length_a   7.41731057
_cell_length_b   7.41731057
_cell_length_c   10.48966120
_cell_angle_alpha   90.00000000
_cell_angle_beta   90.00000000
_cell_angle_gamma   90.00000000
_symmetry_Int_Tables_number   1
_chemical_formula_structural   Cr5(Fe5Ni2)7
_chemical_formula_sum   'Cr5 Fe35 Ni14'
_cell_volume   577.10440428
_cell_formula_units_Z   1
loop_
 _symmetry_equiv_pos_site_id
 _symmetry_equiv_pos_as_xyz
  1  'x, y, z'
loop_
 _atom_site_type_symbol
 _atom_site_label
 _atom_site_symmetry_multiplicity
 _atom_site_fract_x
 _atom_site_fract_y
 _atom_site_fract_z
 _atom_site_occupancy
  Ni  Ni0  1  1.00103551  0.00450745  1.00294207  1
  Fe  Fe1  1  0.16844262  0.17138409  0.16697809  1
  Fe  Fe2  1  1.00300324  0.00422112  0.33694366  1
  Fe  Fe3  1  0.00513011  0.33591219  1.00225344  1
  Fe  Fe4  1  0.17113040  0.50435693  0.16992784  1
  Fe  Fe5  1  0.00345464  0.33674282  0.33850379  1
  Fe  Fe6  1  0.00361605  0.67041875  1.00165759  1
  Cr  Cr7  1  0.16898075  0.83741051  0.16895360  1
  Ni  Ni8  1  1.00303417  0.67126808  0.33723661  1
  Fe  Fe9  1  0.33672888  0.00397542  1.00196335  1
  Fe  Fe10  1  0.50506917  0.16902752  0.16959748  1
  Fe  Fe11  1  0.33766985  1.00192410  0.33789333  1
  Fe  Fe12  1  0.33608853  0.33591981  1.00264835  1
  Ni  Ni13  1  0.50362087  0.50385445  0.16840305  1
  Cr  Cr14  1  0.33751696  0.33567934  0.33463129  1
  Ni  Ni15  1  0.33755202  0.66797355  1.00218741  1
  Fe  Fe16  1  0.50421223  0.83438150  0.16979950  1
  Ni  Ni17  1  0.33629955  0.67039121  0.33743196  1
  Fe  Fe18  1  0.66935206  1.00264345  0.00336325  1
  Fe  Fe19  1  0.83649987  0.16855214  0.17045926  1
  Fe  Fe20  1  0.66950238  1.00296441  0.33747638  1
  Fe  Fe21  1  0.66869458  0.33570124  1.00232046  1
  Cr  Cr22  1  0.83622835  0.50462125  0.17121593  1
  Fe  Fe23  1  0.67103094  0.33517965  0.33781160  1
  Fe  Fe24  1  0.66894345  0.67143888  1.00162785  1
  Fe  Fe25  1  0.83445367  0.83825853  0.16990325  1
  Fe  Fe26  1  0.66864938  0.67197366  0.33743983  1
  Fe  Fe27  1  0.16964951  0.16997099  0.50573480  1
  Fe  Fe28  1  1.00130464  0.00522537  0.67151734  1
  Ni  Ni29  1  0.17035113  0.16957831  0.83638028  1
  Ni  Ni30  1  0.17003923  0.50384957  0.50303002  1
  Fe  Fe31  1  1.00308845  0.33606782  0.66968228  1
  Fe  Fe32  1  0.17083188  0.50233926  0.83644455  1
  Fe  Fe33  1  0.17062900  0.83804652  0.50165647  1
  Cr  Cr34  1  1.00252654  0.67290109  0.67067382  1
  Fe  Fe35  1  0.17038438  0.83887576  0.83915739  1
  Ni  Ni36  1  0.50405807  0.16912785  0.50427250  1
  Fe  Fe37  1  0.33767477  0.00355282  0.67031564  1
  Fe  Fe38  1  0.50373111  0.16934236  0.83537532  1
  Cr  Cr39  1  0.50338601  0.50308956  0.50483568  1
  Ni  Ni40  1  0.33670400  0.33496419  0.67132338  1
  Fe  Fe41  1  0.50383171  0.50307488  0.83627430  1
  Fe  Fe42  1  0.50406541  0.83838932  0.50368782  1
  Fe  Fe43  1  0.33804171  0.66913345  0.67105661  1
  Fe  Fe44  1  0.50296965  0.83689671  0.83661428  1
  Ni  Ni45  1  0.83650755  0.16865081  0.50403579  1
  Fe  Fe46  1  0.67110649  1.00225291  0.66960868  1
  Fe  Fe47  1  0.83727953  0.16943165  0.83620264  1
  Fe  Fe48  1  0.83694473  0.50188833  0.50279068  1
  Ni  Ni49  1  0.66976574  0.33523063  0.67048640  1
  Fe  Fe50  1  0.83536181  0.50179337  0.83724694  1
  Ni  Ni51  1  0.83728016  0.83796345  0.50146745  1
  Ni  Ni52  1  0.67161821  0.67143172  0.67045395  1
  Ni  Ni53  1  0.83597780  0.83729869  0.83915429  1
" 