91,Ni26Fe65Cr8_12,-232.809719423036, 191.77902273185,Ni26Fe65Cr8,"# generated using pymatgen
 data_Cr5(Fe5Ni2)7
_symmetry_space_group_name_H-M   'P 1'
_cell_length_a   7.41966914
_cell_length_b   7.41966914
_cell_length_c   10.49299673
_cell_angle_alpha   90.00000000
_cell_angle_beta   90.00000000
_cell_angle_gamma   90.00000000
_symmetry_Int_Tables_number   1
_chemical_formula_structural   Cr5(Fe5Ni2)7
_chemical_formula_sum   'Cr5 Fe35 Ni14'
_cell_volume   577.65510661
_cell_formula_units_Z   1
loop_
 _symmetry_equiv_pos_site_id
 _symmetry_equiv_pos_as_xyz
  1  'x, y, z'
loop_
 _atom_site_type_symbol
 _atom_site_label
 _atom_site_symmetry_multiplicity
 _atom_site_fract_x
 _atom_site_fract_y
 _atom_site_fract_z
 _atom_site_occupancy
  Ni  Ni0  1  0.00445767  0.00444373  0.00357221  1
  Fe  Fe1  1  0.16950319  0.16925626  0.16991665  1
  Fe  Fe2  1  1.00294145  1.00114088  0.33588030  1
  Fe  Fe3  1  1.00318047  0.33617936  0.00358630  1
  Fe  Fe4  1  0.16959604  0.50376373  0.17031689  1
  Fe  Fe5  1  1.00196897  0.33733034  0.33483371  1
  Fe  Fe6  1  0.00504531  0.67116486  1.00315428  1
  Ni  Ni7  1  0.16998832  0.83670870  0.17118913  1
  Fe  Fe8  1  1.00260738  0.67110416  0.33545989  1
  Ni  Ni9  1  0.33506570  0.00389108  1.00215161  1
  Fe  Fe10  1  0.50273011  0.16953490  0.16924088  1
  Ni  Ni11  1  0.33600508  1.00230808  0.33667654  1
  Fe  Fe12  1  0.33585969  0.33470466  0.00358380  1
  Fe  Fe13  1  0.50255332  0.50338087  0.17087767  1
  Fe  Fe14  1  0.33846085  0.33691938  0.33511719  1
  Fe  Fe15  1  0.33329891  0.67192823  0.00383820  1
  Fe  Fe16  1  0.50194960  0.83665882  0.17166251  1
  Ni  Ni17  1  0.33876101  0.67104336  0.33560521  1
  Fe  Fe18  1  0.66976810  0.00481432  1.00256349  1
  Fe  Fe19  1  0.83734199  0.16985571  0.16963481  1
  Fe  Fe20  1  0.66880581  1.00184706  0.33718715  1
  Fe  Fe21  1  0.67053678  0.33335769  0.00390991  1
  Ni  Ni22  1  0.83686180  0.50222736  0.17075216  1
  Fe  Fe23  1  0.66915424  0.33725155  0.33622277  1
  Cr  Cr24  1  0.67017890  0.67011568  0.00357569  1
  Fe  Fe25  1  0.83771565  0.83674081  0.17052936  1
  Ni  Ni26  1  0.66944096  0.66852079  0.33718293  1
  Cr  Cr27  1  0.17066506  0.16847192  0.50309566  1
  Ni  Ni28  1  1.00310847  0.00382753  0.67019785  1
  Fe  Fe29  1  0.16975277  0.16852894  0.83653644  1
  Cr  Cr30  1  0.17043386  0.50494791  0.50318343  1
  Fe  Fe31  1  1.00205628  0.33687908  0.67116300  1
  Fe  Fe32  1  0.16873148  0.50384045  0.83589923  1
  Fe  Fe33  1  0.17037517  0.83657140  0.50321367  1
  Fe  Fe34  1  0.00413027  0.67160205  0.67096289  1
  Ni  Ni35  1  0.16844434  0.83639329  0.83505299  1
  Fe  Fe36  1  0.50479193  0.16899024  0.50347985  1
  Fe  Fe37  1  0.33728477  1.00177304  0.67081666  1
  Ni  Ni38  1  0.50333962  0.16934918  0.83610823  1
  Fe  Fe39  1  0.50396943  0.50392549  0.50247575  1
  Fe  Fe40  1  0.33720626  0.33578975  0.67087104  1
  Cr  Cr41  1  0.50149681  0.50085960  0.83649264  1
  Ni  Ni42  1  0.50371088  0.83713575  0.50300576  1
  Ni  Ni43  1  0.33618075  0.67114274  0.67006226  1
  Fe  Fe44  1  0.50127746  0.83979022  0.83607198  1
  Fe  Fe45  1  0.83512185  0.16896240  0.50350235  1
  Fe  Fe46  1  0.66990062  0.00385328  0.66982370  1
  Fe  Fe47  1  0.83677645  0.16873288  0.83644355  1
  Fe  Fe48  1  0.83520969  0.50322597  0.50166125  1
  Fe  Fe49  1  0.67031177  0.33405858  0.66944452  1
  Fe  Fe50  1  0.83935901  0.50206187  0.83709316  1
  Ni  Ni51  1  0.83608959  0.83711300  0.50143576  1
  Cr  Cr52  1  0.66941267  0.67009534  0.66867498  1
  Ni  Ni53  1  0.83949455  0.83829484  0.83741931  1
" 