3988,Ni26Fe69Cr3_5,-233.620882109187, 194.762836167599,Ni26Fe69Cr3,"# generated using pymatgen
 data_Cr3Fe37Ni14
_symmetry_space_group_name_H-M   'P 1'
_cell_length_a   7.41080209
_cell_length_b   7.41080209
_cell_length_c   10.48045682
_cell_angle_alpha   90.00000000
_cell_angle_beta   90.00000000
_cell_angle_gamma   90.00000000
_symmetry_Int_Tables_number   1
_chemical_formula_structural   Cr3Fe37Ni14
_chemical_formula_sum   'Cr3 Fe37 Ni14'
_cell_volume   575.58655807
_cell_formula_units_Z   1
loop_
 _symmetry_equiv_pos_site_id
 _symmetry_equiv_pos_as_xyz
  1  'x, y, z'
loop_
 _atom_site_type_symbol
 _atom_site_label
 _atom_site_symmetry_multiplicity
 _atom_site_fract_x
 _atom_site_fract_y
 _atom_site_fract_z
 _atom_site_occupancy
  Fe  Fe0  1  0.00425613  1.00274951  1.00283527  1
  Fe  Fe1  1  0.17207881  0.16959876  0.17118520  1
  Ni  Ni2  1  0.00546935  0.00390602  0.33737886  1
  Fe  Fe3  1  1.00343245  0.33677390  1.00202474  1
  Cr  Cr4  1  0.17010238  0.50429549  0.17050148  1
  Ni  Ni5  1  0.00388018  0.33719196  0.33963678  1
  Fe  Fe6  1  1.00321883  0.67197200  1.00247432  1
  Fe  Fe7  1  0.17085945  0.83954778  0.17041246  1
  Ni  Ni8  1  0.00394864  0.67026402  0.33648195  1
  Fe  Fe9  1  0.33738743  1.00310110  1.00349556  1
  Ni  Ni10  1  0.50368694  0.17035033  0.16989919  1
  Fe  Fe11  1  0.33590132  0.00453880  0.33777343  1
  Fe  Fe12  1  0.33838088  0.33626430  1.00271371  1
  Fe  Fe13  1  0.50518059  0.50313260  0.16994644  1
  Fe  Fe14  1  0.33689140  0.33542374  0.33802919  1
  Ni  Ni15  1  0.33717159  0.67035547  1.00261534  1
  Fe  Fe16  1  0.50373143  0.83766302  0.16939487  1
  Fe  Fe17  1  0.33636060  0.67177683  0.33731706  1
  Ni  Ni18  1  0.67021893  0.00424558  1.00241650  1
  Cr  Cr19  1  0.83709898  0.17010812  0.17220609  1
  Fe  Fe20  1  0.66928590  0.00384842  0.33681515  1
  Fe  Fe21  1  0.66922269  0.33742837  1.00260368  1
  Fe  Fe22  1  0.83536661  0.50432285  0.17135548  1
  Fe  Fe23  1  0.67030769  0.33793327  0.33850229  1
  Fe  Fe24  1  0.66986392  0.67125014  1.00365384  1
  Fe  Fe25  1  0.83678375  0.83607781  0.17092179  1
  Fe  Fe26  1  0.67136996  0.66941798  0.33638385  1
  Ni  Ni27  1  0.17130046  0.17043434  0.50296811  1
  Fe  Fe28  1  0.00677962  0.00434783  0.67101253  1
  Ni  Ni29  1  0.16985357  0.17079143  0.83875145  1
  Fe  Fe30  1  0.17024037  0.50406364  0.50411151  1
  Fe  Fe31  1  0.00481597  0.33659129  0.67073500  1
  Ni  Ni32  1  0.17133691  0.50433944  0.83650396  1
  Ni  Ni33  1  0.17029014  0.83546968  0.50336667  1
  Ni  Ni34  1  0.00500295  0.66943954  0.67123689  1
  Ni  Ni35  1  0.17078314  0.83610759  0.83736978  1
  Ni  Ni36  1  0.50486189  0.17126432  0.50397891  1
  Fe  Fe37  1  0.33486052  0.00385976  0.66992695  1
  Fe  Fe38  1  0.50211236  0.17022673  0.83696109  1
  Fe  Fe39  1  0.50257257  0.50408237  0.50397261  1
  Fe  Fe40  1  0.33577917  0.33660226  0.67040116  1
  Fe  Fe41  1  0.50235455  0.50326179  0.83715824  1
  Fe  Fe42  1  0.50134871  0.83870107  0.50404279  1
  Fe  Fe43  1  0.33616691  0.67101876  0.67146040  1
  Fe  Fe44  1  0.50257341  0.83789580  0.83755432  1
  Fe  Fe45  1  0.83821377  0.17089190  0.50402429  1
  Fe  Fe46  1  0.66976590  0.00442435  0.67195003  1
  Ni  Ni47  1  0.83584752  0.17014276  0.83583206  1
  Fe  Fe48  1  0.83864238  0.50227758  0.50390685  1
  Fe  Fe49  1  0.67088221  0.33764494  0.67032841  1
  Fe  Fe50  1  0.83940163  0.50322502  0.83665513  1
  Cr  Cr51  1  0.83847652  0.83715490  0.50391832  1
  Fe  Fe52  1  0.67034024  0.66926767  0.67128192  1
  Fe  Fe53  1  0.83886081  0.83785605  0.83653714  1
" 