3798,Ni26Fe65Cr8_0,-232.87434093148, 196.633331521174,Ni26Fe65Cr8,"# generated using pymatgen
 data_Cr5(Fe5Ni2)7
_symmetry_space_group_name_H-M   'P 1'
_cell_length_a   7.41753426
_cell_length_b   7.41753426
_cell_length_c   10.48997755
_cell_angle_alpha   90.00000000
_cell_angle_beta   90.00000000
_cell_angle_gamma   90.00000000
_symmetry_Int_Tables_number   1
_chemical_formula_structural   Cr5(Fe5Ni2)7
_chemical_formula_sum   'Cr5 Fe35 Ni14'
_cell_volume   577.15661812
_cell_formula_units_Z   1
loop_
 _symmetry_equiv_pos_site_id
 _symmetry_equiv_pos_as_xyz
  1  'x, y, z'
loop_
 _atom_site_type_symbol
 _atom_site_label
 _atom_site_symmetry_multiplicity
 _atom_site_fract_x
 _atom_site_fract_y
 _atom_site_fract_z
 _atom_site_occupancy
  Fe  Fe0  1  0.00368881  1.00329082  0.00354419  1
  Ni  Ni1  1  0.16833900  0.16929930  0.17090486  1
  Ni  Ni2  1  0.00537851  0.00381806  0.33521403  1
  Fe  Fe3  1  1.00236410  0.33578897  0.00389175  1
  Ni  Ni4  1  0.16864535  0.50429003  0.17090535  1
  Fe  Fe5  1  0.00349133  0.33633054  0.33620481  1
  Fe  Fe6  1  0.00384915  0.67092974  0.00349117  1
  Ni  Ni7  1  0.16974495  0.83643237  0.16945923  1
  Fe  Fe8  1  1.00281085  0.67089533  0.33629777  1
  Ni  Ni9  1  0.33495307  1.00265996  0.00376774  1
  Cr  Cr10  1  0.50275008  0.16925468  0.16963152  1
  Fe  Fe11  1  0.33393204  1.00266273  0.33695468  1
  Cr  Cr12  1  0.33532146  0.33728429  1.00239215  1
  Fe  Fe13  1  0.50289425  0.50600264  0.17109011  1
  Fe  Fe14  1  0.33560266  0.33683019  0.33751650  1
  Fe  Fe15  1  0.33585710  0.67166775  0.00460348  1
  Fe  Fe16  1  0.50117028  0.83444513  0.16862277  1
  Fe  Fe17  1  0.33640203  0.67052316  0.33602092  1
  Ni  Ni18  1  0.67197791  1.00237076  1.00291363  1
  Fe  Fe19  1  0.84054370  0.17051603  0.16906849  1
  Cr  Cr20  1  0.67230134  1.00132478  0.33840697  1
  Fe  Fe21  1  0.67172264  0.33630873  1.00196689  1
  Fe  Fe22  1  0.83767365  0.50321694  0.17024702  1
  Fe  Fe23  1  0.67091498  0.33880341  0.33819325  1
  Fe  Fe24  1  0.67030603  0.67034155  0.00386407  1
  Fe  Fe25  1  0.83845494  0.83626990  0.16950928  1
  Ni  Ni26  1  0.66961161  0.66831491  0.33586880  1
  Ni  Ni27  1  0.17055526  0.16963907  0.50176620  1
  Ni  Ni28  1  1.00326681  1.00239981  0.67048717  1
  Fe  Fe29  1  0.16811314  0.16725716  0.83661875  1
  Fe  Fe30  1  0.16935744  0.50355486  0.50213365  1
  Fe  Fe31  1  1.00122144  0.33654599  0.66991567  1
  Fe  Fe32  1  0.16815143  0.50566281  0.83722505  1
  Fe  Fe33  1  0.16962394  0.83831550  0.50293720  1
  Fe  Fe34  1  1.00206667  0.67025093  0.67022878  1
  Fe  Fe35  1  0.16807962  0.83709427  0.83716082  1
  Ni  Ni36  1  0.50258514  0.17034067  0.50457950  1
  Fe  Fe37  1  0.33640804  1.00321595  0.66923182  1
  Fe  Fe38  1  0.50570058  0.16933374  0.83675097  1
  Fe  Fe39  1  0.50493564  0.50387415  0.50284648  1
  Cr  Cr40  1  0.33737232  0.33656109  0.67067550  1
  Fe  Fe41  1  0.50594687  0.50388391  0.83607585  1
  Fe  Fe42  1  0.50295384  0.83627220  0.50426032  1
  Fe  Fe43  1  0.33631646  0.67054943  0.66938366  1
  Cr  Cr44  1  0.50428276  0.83767277  0.83633092  1
  Fe  Fe45  1  0.83775880  0.17012420  0.50436947  1
  Fe  Fe46  1  0.67133706  0.00406380  0.66940137  1
  Fe  Fe47  1  0.83620158  0.16924168  0.83657572  1
  Fe  Fe48  1  0.83571673  0.50298731  0.50357936  1
  Ni  Ni49  1  0.67006362  0.33781608  0.67020820  1
  Fe  Fe50  1  0.83591332  0.50391614  0.83618234  1
  Ni  Ni51  1  0.83683706  0.83471139  0.50474938  1
  Ni  Ni52  1  0.67126475  0.66895545  0.66910367  1
  Ni  Ni53  1  0.83749764  0.83611671  0.83690051  1
" 