1384,Ni26Fe69Cr3_19,-233.35358169403, 192.762755550311,Ni26Fe69Cr3,"# generated using pymatgen
 data_Cr3Fe37Ni14
_symmetry_space_group_name_H-M   'P 1'
_cell_length_a   7.40761225
_cell_length_b   7.40761225
_cell_length_c   10.47594570
_cell_angle_alpha   90.00000000
_cell_angle_beta   90.00000000
_cell_angle_gamma   90.00000000
_symmetry_Int_Tables_number   1
_chemical_formula_structural   Cr3Fe37Ni14
_chemical_formula_sum   'Cr3 Fe37 Ni14'
_cell_volume   574.84362702
_cell_formula_units_Z   1
loop_
 _symmetry_equiv_pos_site_id
 _symmetry_equiv_pos_as_xyz
  1  'x, y, z'
loop_
 _atom_site_type_symbol
 _atom_site_label
 _atom_site_symmetry_multiplicity
 _atom_site_fract_x
 _atom_site_fract_y
 _atom_site_fract_z
 _atom_site_occupancy
  Fe  Fe0  1  1.00330639  1.00334260  1.00373524  1
  Fe  Fe1  1  0.16881471  0.16813188  0.16998492  1
  Fe  Fe2  1  0.00447069  1.00353424  0.33742231  1
  Fe  Fe3  1  1.00291018  0.33702790  1.00376410  1
  Cr  Cr4  1  0.17007243  0.50572585  0.17055749  1
  Ni  Ni5  1  1.00183448  0.33631372  0.33870706  1
  Fe  Fe6  1  1.00295800  0.67166673  1.00342064  1
  Fe  Fe7  1  0.16989083  0.83911498  0.17112752  1
  Ni  Ni8  1  1.00329254  0.67187252  0.33785202  1
  Fe  Fe9  1  0.33768682  1.00353586  1.00382883  1
  Fe  Fe10  1  0.50546272  0.16958434  0.16984246  1
  Fe  Fe11  1  0.33633160  1.00193797  0.33748965  1
  Fe  Fe12  1  0.33842137  0.33717472  1.00303015  1
  Fe  Fe13  1  0.50729111  0.50520322  0.16970849  1
  Cr  Cr14  1  0.33736009  0.33759836  0.33883611  1
  Fe  Fe15  1  0.33818069  0.67132556  1.00268807  1
  Fe  Fe16  1  0.50479801  0.83724777  0.17063966  1
  Ni  Ni17  1  0.33781568  0.67269359  0.33766950  1
  Fe  Fe18  1  0.67103933  1.00358559  0.00463286  1
  Ni  Ni19  1  0.83592163  0.16999530  0.17118662  1
  Fe  Fe20  1  0.67123011  1.00381649  0.33672452  1
  Fe  Fe21  1  0.67070223  0.33751999  1.00373287  1
  Fe  Fe22  1  0.83588685  0.50413116  0.17130567  1
  Fe  Fe23  1  0.67296178  0.33814604  0.33786292  1
  Ni  Ni24  1  0.67068568  0.67073833  0.00438402  1
  Ni  Ni25  1  0.83653461  0.83870334  0.17089594  1
  Fe  Fe26  1  0.67136698  0.67007180  0.33666189  1
  Fe  Fe27  1  0.16826039  0.16954488  0.50392682  1
  Ni  Ni28  1  1.00352105  1.00356305  0.67066090  1
  Fe  Fe29  1  0.16969655  0.16965842  0.83812702  1
  Ni  Ni30  1  0.16887447  0.50640239  0.50465485  1
  Fe  Fe31  1  1.00261527  0.33793807  0.67005457  1
  Ni  Ni32  1  0.17032169  0.50559639  0.83722735  1
  Ni  Ni33  1  0.17191872  0.83628593  0.50338296  1
  Fe  Fe34  1  0.00480947  0.67032151  0.67008299  1
  Ni  Ni35  1  0.17144063  0.83619836  0.83768594  1
  Fe  Fe36  1  0.50538075  0.16979758  0.50429459  1
  Fe  Fe37  1  0.33707599  1.00218022  0.67071635  1
  Fe  Fe38  1  0.50401986  0.17018683  0.83789980  1
  Fe  Fe39  1  0.50493103  0.50622256  0.50426614  1
  Cr  Cr40  1  0.33724649  0.33895248  0.67010030  1
  Fe  Fe41  1  0.50408919  0.50544579  0.83806353  1
  Fe  Fe42  1  0.50304824  0.83601809  0.50394886  1
  Ni  Ni43  1  0.33724150  0.67165113  0.67092540  1
  Fe  Fe44  1  0.50304254  0.83640381  0.83744737  1
  Fe  Fe45  1  0.83839242  0.17142576  0.50390886  1
  Fe  Fe46  1  0.67039224  0.00436949  0.67067959  1
  Fe  Fe47  1  0.83831846  0.17070609  0.83727684  1
  Ni  Ni48  1  0.83791193  0.50268457  0.50333012  1
  Ni  Ni49  1  0.67163148  0.33717281  0.67071596  1
  Fe  Fe50  1  0.83769446  0.50437051  0.83695849  1
  Fe  Fe51  1  0.83857913  0.83653680  0.50356146  1
  Fe  Fe52  1  0.67072993  0.67030350  0.67105295  1
  Fe  Fe53  1  0.83822451  0.83695903  0.83799435  1
" 