6534,Ni26Fe65Cr8_1,-232.629788907025, 195.226301981245,Ni26Fe65Cr8,"# generated using pymatgen
 data_Cr5(Fe5Ni2)7
_symmetry_space_group_name_H-M   'P 1'
_cell_length_a   7.41605291
_cell_length_b   7.41605291
_cell_length_c   10.48788260
_cell_angle_alpha   90.00000000
_cell_angle_beta   90.00000000
_cell_angle_gamma   90.00000000
_symmetry_Int_Tables_number   1
_chemical_formula_structural   Cr5(Fe5Ni2)7
_chemical_formula_sum   'Cr5 Fe35 Ni14'
_cell_volume   576.81089729
_cell_formula_units_Z   1
loop_
 _symmetry_equiv_pos_site_id
 _symmetry_equiv_pos_as_xyz
  1  'x, y, z'
loop_
 _atom_site_type_symbol
 _atom_site_label
 _atom_site_symmetry_multiplicity
 _atom_site_fract_x
 _atom_site_fract_y
 _atom_site_fract_z
 _atom_site_occupancy
  Fe  Fe0  1  1.00182634  0.00548234  0.00452143  1
  Fe  Fe1  1  0.16919982  0.17013246  0.17095531  1
  Ni  Ni2  1  0.00382649  0.00428373  0.33634796  1
  Ni  Ni3  1  1.00127156  0.33654102  0.00366210  1
  Fe  Fe4  1  0.16840556  0.50152443  0.17028096  1
  Fe  Fe5  1  1.00313059  0.33532116  0.33521551  1
  Fe  Fe6  1  1.00242592  0.66958502  0.00487400  1
  Fe  Fe7  1  0.16820133  0.83857303  0.17203604  1
  Fe  Fe8  1  1.00308157  0.67156483  0.33576743  1
  Cr  Cr9  1  0.33574738  0.00377098  1.00201844  1
  Ni  Ni10  1  0.50281263  0.17171979  0.17078110  1
  Ni  Ni11  1  0.33490460  0.00353421  0.33791301  1
  Fe  Fe12  1  0.33651712  0.33634466  0.00365266  1
  Fe  Fe13  1  0.50535732  0.50145702  0.17189072  1
  Fe  Fe14  1  0.33761084  0.33596828  0.33680807  1
  Cr  Cr15  1  0.33725654  0.67005255  0.00368346  1
  Cr  Cr16  1  0.50546707  0.83807882  0.17240209  1
  Fe  Fe17  1  0.33612142  0.66943748  0.33822718  1
  Ni  Ni18  1  0.67110519  0.00541123  0.00442202  1
  Ni  Ni19  1  0.83674199  0.16945503  0.17027831  1
  Fe  Fe20  1  0.67177130  0.00508977  0.33625572  1
  Fe  Fe21  1  0.67009357  0.33531078  0.00417656  1
  Fe  Fe22  1  0.83599786  0.50277958  0.17057440  1
  Ni  Ni23  1  0.67101306  0.33722559  0.33592380  1
  Fe  Fe24  1  0.67251850  0.66898745  0.00464948  1
  Ni  Ni25  1  0.83828318  0.83676891  0.17038046  1
  Ni  Ni26  1  0.67017433  0.66794757  0.33679237  1
  Fe  Fe27  1  0.17035616  0.16996021  0.50358103  1
  Ni  Ni28  1  0.00372040  0.00524394  0.66969315  1
  Fe  Fe29  1  0.16791128  0.17095339  0.83566691  1
  Fe  Fe30  1  0.17199369  0.50327641  0.50383653  1
  Fe  Fe31  1  0.00543659  0.33541211  0.67181341  1
  Fe  Fe32  1  0.16817321  0.50223730  0.83617070  1
  Fe  Fe33  1  0.17034017  0.83711439  0.50392573  1
  Fe  Fe34  1  0.00670259  0.67182939  0.67006750  1
  Fe  Fe35  1  0.16975212  0.83725632  0.83392841  1
  Fe  Fe36  1  0.50314646  0.17064607  0.50215804  1
  Ni  Ni37  1  0.33631666  1.00252777  0.67066081  1
  Fe  Fe38  1  0.50548666  0.17024435  0.83646505  1
  Ni  Ni39  1  0.50207605  0.50315994  0.50275344  1
  Fe  Fe40  1  0.33657095  0.33605201  0.66977634  1
  Fe  Fe41  1  0.50525208  0.50254591  0.83438902  1
  Fe  Fe42  1  0.50316695  0.83622682  0.50284234  1
  Ni  Ni43  1  0.33768049  0.66994751  0.66969042  1
  Fe  Fe44  1  0.50448396  0.83768041  0.83521203  1
  Fe  Fe45  1  0.83651782  0.16915098  0.50305983  1
  Fe  Fe46  1  0.66897280  0.00436396  0.67031148  1
  Ni  Ni47  1  0.83703270  0.17065206  0.83624365  1
  Cr  Cr48  1  0.83749115  0.50311965  0.50464979  1
  Fe  Fe49  1  0.66808167  0.33490033  0.66957920  1
  Fe  Fe50  1  0.83683566  0.50112182  0.83619604  1
  Fe  Fe51  1  0.83651044  0.83851033  0.50236312  1
  Fe  Fe52  1  0.66767442  0.67148172  0.66885196  1
  Cr  Cr53  1  0.83711279  0.83769612  0.83728249  1
" 