7406,Ni27Cr73_10,-229.130997416256, 148.140734842078,Ni27Cr73,"# generated using pymatgen
 data_Cr7Ni20
_symmetry_space_group_name_H-M   'P 1'
_cell_length_a   7.48274261
_cell_length_b   7.48274261
_cell_length_c   10.58219608
_cell_angle_alpha   90.00000000
_cell_angle_beta   90.00000000
_cell_angle_gamma   90.00000000
_symmetry_Int_Tables_number   1
_chemical_formula_structural   Cr7Ni20
_chemical_formula_sum   'Cr14 Ni40'
_cell_volume   592.51236528
_cell_formula_units_Z   2
loop_
 _symmetry_equiv_pos_site_id
 _symmetry_equiv_pos_as_xyz
  1  'x, y, z'
loop_
 _atom_site_type_symbol
 _atom_site_label
 _atom_site_symmetry_multiplicity
 _atom_site_fract_x
 _atom_site_fract_y
 _atom_site_fract_z
 _atom_site_occupancy
  Cr  Cr0  1  -0.00082610  -0.00037871  0.00106731  1
  Ni  Ni1  1  0.16630481  0.16681593  0.16511635  1
  Ni  Ni2  1  -0.00026913  0.99677970  0.33146544  1
  Ni  Ni3  1  0.99802898  0.33317335  -0.00103314  1
  Ni  Ni4  1  0.16531794  0.49744995  0.16426084  1
  Cr  Cr5  1  0.00101270  0.33441897  0.33071225  1
  Cr  Cr6  1  0.00141888  0.66224827  0.00020727  1
  Ni  Ni7  1  0.16418641  0.83237178  0.16539251  1
  Ni  Ni8  1  0.99762143  0.66673240  0.33165836  1
  Ni  Ni9  1  0.33405739  -0.00075277  0.99887111  1
  Ni  Ni10  1  0.49842244  0.16789812  0.16371570  1
  Cr  Cr11  1  0.33082667  0.00122985  0.33254450  1
  Ni  Ni12  1  0.33226758  0.33242860  -0.00052533  1
  Cr  Cr13  1  0.49946724  0.49762558  0.16560284  1
  Ni  Ni14  1  0.33330184  0.33173524  0.33332561  1
  Ni  Ni15  1  0.33199103  0.66519543  0.99636487  1
  Cr  Cr16  1  0.49992858  0.83064668  0.16170931  1
  Cr  Cr17  1  0.32882263  0.66387211  0.33405486  1
  Ni  Ni18  1  0.66362487  0.00125886  0.99876827  1
  Ni  Ni19  1  0.83192760  0.16672797  0.16418828  1
  Cr  Cr20  1  0.66514882  0.00044314  0.33233509  1
  Ni  Ni21  1  0.66587711  0.33146350  0.99829631  1
  Ni  Ni22  1  0.83187951  0.49900149  0.16567223  1
  Ni  Ni23  1  0.66455264  0.33383111  0.33240784  1
  Ni  Ni24  1  0.66560929  0.66429487  0.99710465  1
  Ni  Ni25  1  0.83279253  0.83130112  0.16755888  1
  Ni  Ni26  1  0.66876611  0.66398463  0.33515526  1
  Ni  Ni27  1  0.16786576  0.16588658  0.50078777  1
  Ni  Ni28  1  0.00148555  0.99891036  0.66411533  1
  Cr  Cr29  1  0.16522701  0.16618769  0.82956355  1
  Ni  Ni30  1  0.16666062  0.49768354  0.50016086  1
  Ni  Ni31  1  0.00049936  0.33314944  0.66671581  1
  Ni  Ni32  1  0.16821376  0.49773165  0.83252932  1
  Ni  Ni33  1  0.16467591  0.83302335  0.50027434  1
  Cr  Cr34  1  0.00021003  0.66309311  0.66587736  1
  Ni  Ni35  1  0.17056117  0.83172350  0.83127824  1
  Ni  Ni36  1  0.49527662  0.16815696  0.49860076  1
  Ni  Ni37  1  0.33193431  0.99801215  0.66458227  1
  Ni  Ni38  1  0.49754706  0.16627375  0.83471243  1
  Ni  Ni39  1  0.49853720  0.49919622  0.49857371  1
  Ni  Ni40  1  0.33177286  0.33339109  0.66394085  1
  Ni  Ni41  1  0.49783226  0.49989478  0.83311734  1
  Ni  Ni42  1  0.49874481  0.82969036  0.50139300  1
  Ni  Ni43  1  0.33335403  0.66523241  0.66633236  1
  Ni  Ni44  1  0.49654656  0.83079029  0.83334487  1
  Cr  Cr45  1  0.83610402  0.16582157  0.50043697  1
  Cr  Cr46  1  0.66220166  -0.00083707  0.66640458  1
  Ni  Ni47  1  0.83172386  0.16859066  0.83318736  1
  Ni  Ni48  1  0.83160409  0.50137780  0.49794611  1
  Cr  Cr49  1  0.66438801  0.33485923  0.66648372  1
  Ni  Ni50  1  0.83103363  0.49648033  0.83326764  1
  Ni  Ni51  1  0.83331777  0.82957583  0.49769216  1
  Ni  Ni52  1  0.66303966  0.66466413  0.66451368  1
  Cr  Cr53  1  0.83095029  0.83301081  0.83153779  1
" 