6885,Ni27Fe66Cr5_15,-233.178545575226, 198.505494840954,Ni27Fe66Cr5,"# generated using pymatgen
 data_Cr2Fe18Ni7
_symmetry_space_group_name_H-M   'P 1'
_cell_length_a   7.41210755
_cell_length_b   7.41210755
_cell_length_c   10.48230302
_cell_angle_alpha   90.00000000
_cell_angle_beta   90.00000000
_cell_angle_gamma   90.00000000
_symmetry_Int_Tables_number   1
_chemical_formula_structural   Cr2Fe18Ni7
_chemical_formula_sum   'Cr4 Fe36 Ni14'
_cell_volume   575.89079175
_cell_formula_units_Z   2
loop_
 _symmetry_equiv_pos_site_id
 _symmetry_equiv_pos_as_xyz
  1  'x, y, z'
loop_
 _atom_site_type_symbol
 _atom_site_label
 _atom_site_symmetry_multiplicity
 _atom_site_fract_x
 _atom_site_fract_y
 _atom_site_fract_z
 _atom_site_occupancy
  Ni  Ni0  1  1.00327310  1.00314215  0.00473476  1
  Fe  Fe1  1  0.16885151  0.17010313  0.17009057  1
  Fe  Fe2  1  0.00493846  1.00312724  0.33646409  1
  Fe  Fe3  1  1.00210289  0.33806799  0.00453972  1
  Fe  Fe4  1  0.16892009  0.50380656  0.17084721  1
  Fe  Fe5  1  0.00461574  0.33752119  0.33742250  1
  Ni  Ni6  1  1.00332824  0.67058725  0.00407259  1
  Fe  Fe7  1  0.17072521  0.83720959  0.17077505  1
  Fe  Fe8  1  0.00501067  0.67047007  0.33780491  1
  Fe  Fe9  1  0.33674625  1.00126344  0.00406670  1
  Cr  Cr10  1  0.50349514  0.16882168  0.16888053  1
  Ni  Ni11  1  0.33655693  1.00260648  0.33783656  1
  Fe  Fe12  1  0.33620627  0.33845456  1.00228834  1
  Cr  Cr13  1  0.50378410  0.50534020  0.17191179  1
  Fe  Fe14  1  0.33540241  0.33696651  0.33901069  1
  Fe  Fe15  1  0.33593836  0.67140115  1.00321052  1
  Fe  Fe16  1  0.50353983  0.83672434  0.17126047  1
  Ni  Ni17  1  0.33650883  0.67192890  0.33792890  1
  Fe  Fe18  1  0.67230520  1.00241601  1.00236541  1
  Fe  Fe19  1  0.83890357  0.17034528  0.16959902  1
  Fe  Fe20  1  0.66956537  1.00254104  0.33835546  1
  Fe  Fe21  1  0.67280648  0.33726276  1.00108292  1
  Fe  Fe22  1  0.83841890  0.50397993  0.17046851  1
  Fe  Fe23  1  0.67109920  0.33689312  0.33933355  1
  Ni  Ni24  1  0.67124409  0.67000006  1.00234668  1
  Fe  Fe25  1  0.83685322  0.83679343  0.16936528  1
  Fe  Fe26  1  0.67012182  0.67168515  0.33764446  1
  Fe  Fe27  1  0.17112651  0.17015554  0.50353821  1
  Fe  Fe28  1  1.00259516  1.00259770  0.67025406  1
  Cr  Cr29  1  0.16967872  0.16995708  0.83646176  1
  Ni  Ni30  1  0.16902187  0.50459030  0.50378341  1
  Fe  Fe31  1  0.00421301  0.33866948  0.66915595  1
  Fe  Fe32  1  0.17053653  0.50467175  0.83653406  1
  Ni  Ni33  1  0.17049804  0.83635095  0.50364219  1
  Ni  Ni34  1  0.00446073  0.67070023  0.67039780  1
  Fe  Fe35  1  0.17007702  0.83578305  0.83684587  1
  Ni  Ni36  1  0.50285435  0.16869274  0.50295422  1
  Fe  Fe37  1  0.33813001  1.00258045  0.66848179  1
  Ni  Ni38  1  0.50517151  0.17021419  0.83901310  1
  Fe  Fe39  1  0.50220542  0.50525256  0.50282771  1
  Fe  Fe40  1  0.33619277  0.33837505  0.66982139  1
  Ni  Ni41  1  0.50334295  0.50452588  0.83771713  1
  Ni  Ni42  1  0.50312615  0.83816199  0.50287348  1
  Fe  Fe43  1  0.33659486  0.67016564  0.66940676  1
  Fe  Fe44  1  0.50433647  0.83751436  0.83687510  1
  Fe  Fe45  1  0.83789155  0.16959230  0.50331339  1
  Fe  Fe46  1  0.67039087  1.00219884  0.67039887  1
  Ni  Ni47  1  0.83605421  0.16906759  0.83886633  1
  Ni  Ni48  1  0.83897853  0.50486244  0.50238806  1
  Cr  Cr49  1  0.66956659  0.33658709  0.67078775  1
  Fe  Fe50  1  0.83717315  0.50406575  0.83762956  1
  Fe  Fe51  1  0.83725539  0.83624142  0.50405233  1
  Fe  Fe52  1  0.67068822  0.67178426  0.67069957  1
  Fe  Fe53  1  0.83670708  0.83731169  0.83770250  1
" 