5063,Ni27Fe46Cr26_15,-227.482780222976, 183.161778211556,Ni27Fe46Cr26,"# generated using pymatgen
 data_Cr8Fe12Ni7
_symmetry_space_group_name_H-M   'P 1'
_cell_length_a   7.46929390
_cell_length_b   7.46929390
_cell_length_c   10.56317673
_cell_angle_alpha   90.00000000
_cell_angle_beta   90.00000000
_cell_angle_gamma   90.00000000
_symmetry_Int_Tables_number   1
_chemical_formula_structural   Cr8Fe12Ni7
_chemical_formula_sum   'Cr16 Fe24 Ni14'
_cell_volume   589.32334117
_cell_formula_units_Z   2
loop_
 _symmetry_equiv_pos_site_id
 _symmetry_equiv_pos_as_xyz
  1  'x, y, z'
loop_
 _atom_site_type_symbol
 _atom_site_label
 _atom_site_symmetry_multiplicity
 _atom_site_fract_x
 _atom_site_fract_y
 _atom_site_fract_z
 _atom_site_occupancy
  Fe  Fe0  1  0.00207355  0.00028243  0.99850491  1
  Ni  Ni1  1  0.16870075  0.16703018  0.16444873  1
  Fe  Fe2  1  0.00128449  0.00152276  0.33314039  1
  Ni  Ni3  1  0.00283281  0.33309733  0.99863080  1
  Fe  Fe4  1  0.16604349  0.49705008  0.16680210  1
  Fe  Fe5  1  0.00306319  0.33327489  0.33420997  1
  Fe  Fe6  1  0.00040416  0.66737306  0.99727309  1
  Cr  Cr7  1  0.16512416  0.83324582  0.16746593  1
  Fe  Fe8  1  0.00127838  0.66490687  0.33490330  1
  Ni  Ni9  1  0.33174506  0.00140908  0.00086969  1
  Ni  Ni10  1  0.49531772  0.16475662  0.16628478  1
  Fe  Fe11  1  0.33440543  0.00116903  0.33243517  1
  Fe  Fe12  1  0.33075519  0.33043225  0.00064962  1
  Cr  Cr13  1  0.49696559  0.49682023  0.16454646  1
  Ni  Ni14  1  0.32774082  0.33283161  0.33181920  1
  Cr  Cr15  1  0.33348841  0.66712131  0.99870344  1
  Ni  Ni16  1  0.49826195  0.83650390  0.16751383  1
  Fe  Fe17  1  0.33421863  0.66600707  0.33486816  1
  Cr  Cr18  1  0.66584808  0.99759681  0.00271856  1
  Cr  Cr19  1  0.83439116  0.16565654  0.16698981  1
  Ni  Ni20  1  0.66468757  0.99625174  0.33108200  1
  Fe  Fe21  1  0.66683276  0.33245259  0.99895785  1
  Cr  Cr22  1  0.83759906  0.50139200  0.16541345  1
  Cr  Cr23  1  0.66484553  0.33350643  0.33374851  1
  Cr  Cr24  1  0.66790938  0.66797102  0.00124865  1
  Ni  Ni25  1  0.83616843  0.83326840  0.16644623  1
  Cr  Cr26  1  0.66599043  0.66921402  0.33172728  1
  Ni  Ni27  1  0.16588512  0.16743230  0.49823586  1
  Cr  Cr28  1  0.00175246  0.00180611  0.66861312  1
  Fe  Fe29  1  0.16426690  0.16804395  0.83552550  1
  Fe  Fe30  1  0.16569306  0.50041724  0.49917898  1
  Ni  Ni31  1  0.99941283  0.33616822  0.66537370  1
  Fe  Fe32  1  0.16364526  0.49925988  0.83297283  1
  Fe  Fe33  1  0.16766088  0.83077141  0.49875862  1
  Ni  Ni34  1  0.99920091  0.66405360  0.66784958  1
  Fe  Fe35  1  0.16608207  0.83247259  0.83409760  1
  Cr  Cr36  1  0.49924638  0.16595379  0.49820783  1
  Cr  Cr37  1  0.33245367  0.99802893  0.66528241  1
  Cr  Cr38  1  0.49990194  0.16778478  0.83437570  1
  Ni  Ni39  1  0.49882949  0.50266814  0.50269094  1
  Cr  Cr40  1  0.32946241  0.33439529  0.66575911  1
  Fe  Fe41  1  0.50081387  0.50103563  0.83177582  1
  Ni  Ni42  1  0.49759843  0.83026441  0.50124348  1
  Fe  Fe43  1  0.33082727  0.66604858  0.66665743  1
  Fe  Fe44  1  0.49937403  0.83252482  0.83204668  1
  Cr  Cr45  1  0.83487480  0.16851041  0.50110699  1
  Fe  Fe46  1  0.66739916  0.99781163  0.66719842  1
  Fe  Fe47  1  0.83518320  0.16940958  0.83361916  1
  Ni  Ni48  1  0.83548674  0.50096094  0.50299376  1
  Fe  Fe49  1  0.66930035  0.33670600  0.66660546  1
  Fe  Fe50  1  0.83492138  0.49808571  0.83200191  1
  Cr  Cr51  1  0.83408715  0.83200789  0.49917392  1
  Fe  Fe52  1  0.66657514  0.66499836  0.66649517  1
  Fe  Fe53  1  0.83396902  0.83211582  0.83263822  1
" 