6450,Ni27Fe46Cr26_16,-227.009561454158, 185.059828900341,Ni27Fe46Cr26,"# generated using pymatgen
 data_Cr8Fe12Ni7
_symmetry_space_group_name_H-M   'P 1'
_cell_length_a   7.46075492
_cell_length_b   7.46075492
_cell_length_c   10.55110079
_cell_angle_alpha   90.00000000
_cell_angle_beta   90.00000000
_cell_angle_gamma   90.00000000
_symmetry_Int_Tables_number   1
_chemical_formula_structural   Cr8Fe12Ni7
_chemical_formula_sum   'Cr16 Fe24 Ni14'
_cell_volume   587.30448776
_cell_formula_units_Z   2
loop_
 _symmetry_equiv_pos_site_id
 _symmetry_equiv_pos_as_xyz
  1  'x, y, z'
loop_
 _atom_site_type_symbol
 _atom_site_label
 _atom_site_symmetry_multiplicity
 _atom_site_fract_x
 _atom_site_fract_y
 _atom_site_fract_z
 _atom_site_occupancy
  Ni  Ni0  1  0.00043722  0.99932057  1.00036037  1
  Fe  Fe1  1  0.16661262  0.16501562  0.16760306  1
  Ni  Ni2  1  0.99939257  0.00169725  0.33318544  1
  Cr  Cr3  1  0.00288405  0.33151465  1.00018593  1
  Fe  Fe4  1  0.16898942  0.50071676  0.16666604  1
  Cr  Cr5  1  0.00149796  0.33215432  0.33495237  1
  Fe  Fe6  1  1.00009317  0.66898152  0.00082286  1
  Fe  Fe7  1  0.16648089  0.83568732  0.16712462  1
  Cr  Cr8  1  0.99950473  0.66874608  0.33181206  1
  Cr  Cr9  1  0.33047147  0.00202977  0.99721036  1
  Cr  Cr10  1  0.49917272  0.16799068  0.16864566  1
  Fe  Fe11  1  0.33262391  0.00094760  0.33466042  1
  Ni  Ni12  1  0.33178686  0.33581651  0.00118817  1
  Ni  Ni13  1  0.49861734  0.49956515  0.16778274  1
  Fe  Fe14  1  0.33383603  0.33513385  0.33437793  1
  Cr  Cr15  1  0.33515636  0.66558955  0.99895259  1
  Cr  Cr16  1  0.50030561  0.83402674  0.16754516  1
  Fe  Fe17  1  0.33342942  0.66550842  0.33384892  1
  Cr  Cr18  1  0.67052235  0.99752700  1.00031816  1
  Fe  Fe19  1  0.83473198  0.16469381  0.16818152  1
  Fe  Fe20  1  0.67053208  0.00097894  0.33597484  1
  Cr  Cr21  1  0.66514625  0.33558608  0.00171398  1
  Fe  Fe22  1  0.83139610  0.50225951  0.16621968  1
  Fe  Fe23  1  0.66746692  0.33249725  0.33415931  1
  Ni  Ni24  1  0.66755198  0.66719834  0.99977780  1
  Ni  Ni25  1  0.83741448  0.83451432  0.16583241  1
  Cr  Cr26  1  0.66642023  0.66890511  0.33502179  1
  Fe  Fe27  1  0.16562791  0.16478698  0.50079517  1
  Ni  Ni28  1  0.99832615  0.00186228  0.66744294  1
  Fe  Fe29  1  0.16467831  0.16816385  0.83272567  1
  Fe  Fe30  1  0.16898614  0.50034672  0.50086243  1
  Fe  Fe31  1  0.99993008  0.32949966  0.66771050  1
  Ni  Ni32  1  0.16780486  0.50161888  0.83357674  1
  Cr  Cr33  1  0.16724575  0.83439235  0.49890883  1
  Cr  Cr34  1  0.00090171  0.66836620  0.66664840  1
  Fe  Fe35  1  0.16499638  0.83462476  0.83238808  1
  Fe  Fe36  1  0.50235891  0.16481250  0.50012697  1
  Fe  Fe37  1  0.33376153  0.99892131  0.66736723  1
  Cr  Cr38  1  0.50184291  0.16712442  0.83433493  1
  Fe  Fe39  1  0.50006207  0.50149158  0.50048922  1
  Cr  Cr40  1  0.33252323  0.33481128  0.66732265  1
  Ni  Ni41  1  0.49904084  0.50175703  0.83314191  1
  Ni  Ni42  1  0.49915359  0.83493730  0.50136810  1
  Fe  Fe43  1  0.33586472  0.66972623  0.66829358  1
  Fe  Fe44  1  0.50261642  0.83135045  0.83080788  1
  Ni  Ni45  1  0.83348907  0.16558813  0.50087543  1
  Ni  Ni46  1  0.66812271  0.99889787  0.66535887  1
  Ni  Ni47  1  0.83596353  0.16433861  0.83207020  1
  Cr  Cr48  1  0.83408105  0.49852445  0.50355199  1
  Fe  Fe49  1  0.66800466  0.33058681  0.66762726  1
  Cr  Cr50  1  0.83345806  0.49985471  0.83346421  1
  Ni  Ni51  1  0.83318381  0.83720405  0.50116800  1
  Fe  Fe52  1  0.66421878  0.67003294  0.66705562  1
  Fe  Fe53  1  0.83405496  0.83454879  0.83316589  1
" 