8789,Ni27Fe23Cr48_9,-219.564873404985, 176.045100500333,Ni27Fe23Cr48,"# generated using pymatgen
 data_Cr14Fe6Ni7
_symmetry_space_group_name_H-M   'P 1'
_cell_length_a   7.51386157
_cell_length_b   7.51386157
_cell_length_c   10.62620494
_cell_angle_alpha   90.00000000
_cell_angle_beta   90.00000000
_cell_angle_gamma   90.00000000
_symmetry_Int_Tables_number   1
_chemical_formula_structural   Cr14Fe6Ni7
_chemical_formula_sum   'Cr28 Fe12 Ni14'
_cell_volume   599.93550736
_cell_formula_units_Z   2
loop_
 _symmetry_equiv_pos_site_id
 _symmetry_equiv_pos_as_xyz
  1  'x, y, z'
loop_
 _atom_site_type_symbol
 _atom_site_label
 _atom_site_symmetry_multiplicity
 _atom_site_fract_x
 _atom_site_fract_y
 _atom_site_fract_z
 _atom_site_occupancy
  Cr  Cr0  1  0.99558320  -0.00054264  -0.00117183  1
  Cr  Cr1  1  0.16480745  0.16244764  0.16475359  1
  Ni  Ni2  1  0.99384178  0.99611772  0.33248102  1
  Cr  Cr3  1  0.99587137  0.33288840  0.99593541  1
  Fe  Fe4  1  0.16567197  0.49916957  0.16473370  1
  Cr  Cr5  1  0.99277691  0.33181319  0.32893670  1
  Cr  Cr6  1  -0.00012209  0.65923032  -0.00074626  1
  Ni  Ni7  1  0.16391198  0.82974582  0.16599903  1
  Cr  Cr8  1  0.00007201  0.66371834  0.32995525  1
  Cr  Cr9  1  0.33285228  0.99055772  0.99638666  1
  Cr  Cr10  1  0.49642632  0.16680024  0.16687989  1
  Cr  Cr11  1  0.33213568  0.98955948  0.33197549  1
  Fe  Fe12  1  0.32914871  0.33447333  -0.00227068  1
  Cr  Cr13  1  0.49784765  0.49637224  0.16545331  1
  Ni  Ni14  1  0.33038192  0.33284589  0.32864991  1
  Ni  Ni15  1  0.33077637  0.66393409  -0.00144083  1
  Fe  Fe16  1  0.49614929  0.82699657  0.16471189  1
  Ni  Ni17  1  0.32955348  0.66515319  0.32892999  1
  Cr  Cr18  1  0.66164933  0.99588071  -0.00164628  1
  Fe  Fe19  1  0.82947044  0.16389039  0.16711760  1
  Ni  Ni20  1  0.66582646  -0.00148334  0.33082090  1
  Cr  Cr21  1  0.66911329  0.32938338  0.99630372  1
  Ni  Ni22  1  0.82693013  0.49800299  0.16314451  1
  Ni  Ni23  1  0.66683191  0.32765902  0.33118649  1
  Ni  Ni24  1  0.66020095  0.66277704  0.99471911  1
  Cr  Cr25  1  0.83113306  0.82892969  0.16355934  1
  Cr  Cr26  1  0.66266359  0.66551275  0.33293336  1
  Cr  Cr27  1  0.16330957  0.16008024  0.49732030  1
  Fe  Fe28  1  0.99572095  0.99456133  0.66041757  1
  Cr  Cr29  1  0.16422068  0.16261222  0.82902166  1
  Cr  Cr30  1  0.16401307  0.49639354  0.49488190  1
  Cr  Cr31  1  0.99344374  0.33371562  0.66550524  1
  Fe  Fe32  1  0.16242960  0.49998166  0.83026582  1
  Fe  Fe33  1  0.16147428  0.82889384  0.49635091  1
  Ni  Ni34  1  0.99567385  0.66384852  0.66215313  1
  Cr  Cr35  1  0.15987339  0.83145130  0.82748702  1
  Cr  Cr36  1  0.49478249  0.16581706  0.49345807  1
  Fe  Fe37  1  0.32998067  0.99421491  0.66165468  1
  Cr  Cr38  1  0.49359745  0.16493571  0.83058701  1
  Cr  Cr39  1  0.49949688  0.49585375  0.49349328  1
  Cr  Cr40  1  0.32932878  0.33134237  0.66484608  1
  Cr  Cr41  1  0.49926861  0.49830649  0.83122667  1
  Ni  Ni42  1  0.50000336  0.83100882  0.49713354  1
  Cr  Cr43  1  0.33027967  0.66763143  0.66125437  1
  Fe  Fe44  1  0.49734443  0.82694033  0.82997600  1
  Fe  Fe45  1  0.82908978  0.16142069  0.49429383  1
  Cr  Cr46  1  0.66093892  0.99573933  0.66352529  1
  Fe  Fe47  1  0.83053312  0.16357362  0.82955405  1
  Ni  Ni48  1  0.82949153  0.50161210  0.49836651  1
  Cr  Cr49  1  0.66764567  0.32983532  0.66192761  1
  Ni  Ni50  1  0.82927256  0.50117249  0.82891787  1
  Ni  Ni51  1  0.83169599  0.83008546  0.49824540  1
  Fe  Fe52  1  0.66685628  0.66334623  0.66176848  1
  Cr  Cr53  1  0.83050993  0.82557252  0.82985738  1
" 