3638,Ni27Cr73_1,-229.082348040707, 146.731761480866,Ni27Cr73,"# generated using pymatgen
 data_Cr7Ni20
_symmetry_space_group_name_H-M   'P 1'
_cell_length_a   7.48570520
_cell_length_b   7.48570520
_cell_length_c   10.58638582
_cell_angle_alpha   90.00000000
_cell_angle_beta   90.00000000
_cell_angle_gamma   90.00000000
_symmetry_Int_Tables_number   1
_chemical_formula_structural   Cr7Ni20
_chemical_formula_sum   'Cr14 Ni40'
_cell_volume   593.21641213
_cell_formula_units_Z   2
loop_
 _symmetry_equiv_pos_site_id
 _symmetry_equiv_pos_as_xyz
  1  'x, y, z'
loop_
 _atom_site_type_symbol
 _atom_site_label
 _atom_site_symmetry_multiplicity
 _atom_site_fract_x
 _atom_site_fract_y
 _atom_site_fract_z
 _atom_site_occupancy
  Cr  Cr0  1  -0.00122332  0.99637747  -0.00033555  1
  Ni  Ni1  1  0.16628550  0.16485722  0.16609908  1
  Ni  Ni2  1  0.99623109  0.99765326  0.33140186  1
  Cr  Cr3  1  0.99642921  0.33310913  0.99674448  1
  Cr  Cr4  1  0.16342724  0.49823987  0.16708511  1
  Ni  Ni5  1  0.99500341  0.33113340  0.33127919  1
  Ni  Ni6  1  0.99666697  0.66645823  0.99774398  1
  Ni  Ni7  1  0.16278645  0.83352321  0.16552069  1
  Ni  Ni8  1  0.99554809  0.66778978  0.33213366  1
  Ni  Ni9  1  0.33215727  0.99778384  0.00115038  1
  Ni  Ni10  1  0.49840921  0.16583300  0.16612133  1
  Cr  Cr11  1  0.33311891  0.99655852  0.33052974  1
  Ni  Ni12  1  0.33310999  0.33236923  -0.00014154  1
  Ni  Ni13  1  0.50168039  0.49819680  0.16633037  1
  Ni  Ni14  1  0.33536080  0.33134128  0.33125601  1
  Cr  Cr15  1  0.33325260  0.66774972  -0.00105242  1
  Ni  Ni16  1  0.50196094  0.83216397  0.16492075  1
  Cr  Cr17  1  0.33480916  0.66725765  0.33348256  1
  Cr  Cr18  1  0.66563722  0.99642938  -0.00045346  1
  Ni  Ni19  1  0.83158138  0.16489390  0.16931812  1
  Ni  Ni20  1  0.66704797  0.99859176  0.33246724  1
  Cr  Cr21  1  0.66610171  0.33432692  0.99823775  1
  Ni  Ni22  1  0.83003514  0.50143073  0.16707185  1
  Ni  Ni23  1  0.66600529  0.33223358  0.33244147  1
  Ni  Ni24  1  0.66661803  0.66547192  -0.00115138  1
  Ni  Ni25  1  0.83132960  0.82993716  0.16716641  1
  Ni  Ni26  1  0.66681584  0.66538076  0.33191733  1
  Cr  Cr27  1  0.16550582  0.16449824  0.49884960  1
  Ni  Ni28  1  0.99685409  0.99512008  0.66522054  1
  Cr  Cr29  1  0.16770903  0.16426135  0.83115762  1
  Cr  Cr30  1  0.16449495  0.50033844  0.49840703  1
  Cr  Cr31  1  0.99549393  0.33354352  0.66743480  1
  Ni  Ni32  1  0.16634964  0.50184907  0.83119370  1
  Ni  Ni33  1  0.16290442  0.83214710  0.50083699  1
  Ni  Ni34  1  0.99811268  0.66826121  0.66634847  1
  Ni  Ni35  1  0.16496138  0.83022094  0.83023694  1
  Ni  Ni36  1  0.50051028  0.16484021  0.49884272  1
  Ni  Ni37  1  0.33308623  0.99464979  0.66438896  1
  Cr  Cr38  1  0.49822911  0.16293906  0.83099989  1
  Ni  Ni39  1  0.50095025  0.49908548  0.49872745  1
  Ni  Ni40  1  0.33418094  0.33454704  0.66533096  1
  Ni  Ni41  1  0.49833154  0.50153877  0.83142685  1
  Ni  Ni42  1  0.50190645  0.83211823  0.50113930  1
  Ni  Ni43  1  0.33304845  0.66703715  0.66560703  1
  Ni  Ni44  1  0.49969983  0.82994055  0.83063196  1
  Ni  Ni45  1  0.83006502  0.16291807  0.49711195  1
  Ni  Ni46  1  0.66640043  0.99601935  0.66419461  1
  Ni  Ni47  1  0.83194330  0.16221389  0.82953084  1
  Ni  Ni48  1  0.83015046  0.50158762  0.49624067  1
  Cr  Cr49  1  0.66611069  0.33334290  0.66465424  1
  Ni  Ni50  1  0.83173411  0.50457228  0.83238820  1
  Ni  Ni51  1  0.83127779  0.83154594  0.49860513  1
  Ni  Ni52  1  0.66500235  0.66703004  0.66549300  1
  Ni  Ni53  1  0.83150515  0.82944642  0.83041996  1
" 