4270,Ni27Fe46Cr26_10,-227.87223220137, 190.173484013161,Ni27Fe46Cr26,"# generated using pymatgen
 data_Cr8Fe12Ni7
_symmetry_space_group_name_H-M   'P 1'
_cell_length_a   7.47646865
_cell_length_b   7.47646865
_cell_length_c   10.57332336
_cell_angle_alpha   90.00000000
_cell_angle_beta   90.00000000
_cell_angle_gamma   90.00000000
_symmetry_Int_Tables_number   1
_chemical_formula_structural   Cr8Fe12Ni7
_chemical_formula_sum   'Cr16 Fe24 Ni14'
_cell_volume   591.02322419
_cell_formula_units_Z   2
loop_
 _symmetry_equiv_pos_site_id
 _symmetry_equiv_pos_as_xyz
  1  'x, y, z'
loop_
 _atom_site_type_symbol
 _atom_site_label
 _atom_site_symmetry_multiplicity
 _atom_site_fract_x
 _atom_site_fract_y
 _atom_site_fract_z
 _atom_site_occupancy
  Cr  Cr0  1  0.99740070  0.99837225  0.00063725  1
  Cr  Cr1  1  0.16719169  0.16570277  0.16684517  1
  Fe  Fe2  1  -0.00029826  -0.00036192  0.33101855  1
  Ni  Ni3  1  0.99733603  0.33476934  0.99775407  1
  Cr  Cr4  1  0.16622125  0.49996422  0.16406681  1
  Fe  Fe5  1  0.99817431  0.33317572  0.33363364  1
  Fe  Fe6  1  0.99796266  0.66359557  0.99914188  1
  Fe  Fe7  1  0.16718668  0.83320203  0.16609062  1
  Cr  Cr8  1  0.99866932  0.66516398  0.33168235  1
  Fe  Fe9  1  0.33532339  0.00030850  0.00105368  1
  Ni  Ni10  1  0.50008308  0.16576407  0.16491518  1
  Fe  Fe11  1  0.33315935  0.99817342  0.33211759  1
  Ni  Ni12  1  0.33410272  0.33377785  0.99763905  1
  Cr  Cr13  1  0.50043141  0.49772789  0.16693876  1
  Fe  Fe14  1  0.33259519  0.33254315  0.33275275  1
  Fe  Fe15  1  0.33299547  0.66436309  0.99754457  1
  Fe  Fe16  1  0.49938100  0.83363941  0.16649376  1
  Fe  Fe17  1  0.33460654  0.66739037  0.33396079  1
  Fe  Fe18  1  0.66614615  0.00053896  0.00009564  1
  Fe  Fe19  1  0.83095378  0.16746311  0.16505484  1
  Cr  Cr20  1  0.66453379  0.99894684  0.33034118  1
  Ni  Ni21  1  0.66666737  0.33217972  0.00059288  1
  Fe  Fe22  1  0.83139609  0.49849332  0.16585482  1
  Fe  Fe23  1  0.66734684  0.33462132  0.33123412  1
  Fe  Fe24  1  0.66715137  0.66546488  0.99905441  1
  Ni  Ni25  1  0.83231781  0.83261238  0.16576264  1
  Ni  Ni26  1  0.66580858  0.66575886  0.33368870  1
  Fe  Fe27  1  0.16598444  0.16779064  0.49929574  1
  Fe  Fe28  1  0.99843700  0.00075528  0.66745701  1
  Cr  Cr29  1  0.16516931  0.16899652  0.83088211  1
  Ni  Ni30  1  0.16648467  0.49668857  0.49971617  1
  Fe  Fe31  1  0.00109079  0.33380532  0.66634808  1
  Ni  Ni32  1  0.16808357  0.49881516  0.83364903  1
  Cr  Cr33  1  0.16765879  0.83356860  0.49826648  1
  Cr  Cr34  1  -0.00044182  0.66371185  0.66718170  1
  Cr  Cr35  1  0.16552817  0.83079061  0.83408800  1
  Cr  Cr36  1  0.49721146  0.16546384  0.49919482  1
  Fe  Fe37  1  0.33365614  0.99777964  0.66493978  1
  Cr  Cr38  1  0.50024056  0.16724691  0.83442231  1
  Cr  Cr39  1  0.49880537  0.50186953  0.49774669  1
  Fe  Fe40  1  0.32986093  0.33564647  0.66681683  1
  Ni  Ni41  1  0.49764350  0.50087612  0.83337523  1
  Ni  Ni42  1  0.49849959  0.83142343  0.50030802  1
  Ni  Ni43  1  0.33396514  0.66606235  0.66606550  1
  Fe  Fe44  1  0.50064129  0.83069293  0.83164138  1
  Cr  Cr45  1  0.83528341  0.16630619  0.49917058  1
  Fe  Fe46  1  0.66601031  0.99607471  0.66737755  1
  Ni  Ni47  1  0.83233189  0.16468881  0.83351163  1
  Ni  Ni48  1  0.83382064  0.49883111  0.49771172  1
  Cr  Cr49  1  0.66731784  0.33341012  0.66704031  1
  Fe  Fe50  1  0.83281650  0.49850799  0.83400532  1
  Cr  Cr51  1  0.83058807  0.83197459  0.50131509  1
  Fe  Fe52  1  0.66418112  0.66734117  0.66656390  1
  Ni  Ni53  1  0.83026452  0.83350798  0.83192081  1
" 