7086,Ni27Cr73_15,-229.145738455194, 149.618256030017,Ni27Cr73,"# generated using pymatgen
 data_Cr7Ni20
_symmetry_space_group_name_H-M   'P 1'
_cell_length_a   7.48127212
_cell_length_b   7.48127212
_cell_length_c   10.58011650
_cell_angle_alpha   90.00000000
_cell_angle_beta   90.00000000
_cell_angle_gamma   90.00000000
_symmetry_Int_Tables_number   1
_chemical_formula_structural   Cr7Ni20
_chemical_formula_sum   'Cr14 Ni40'
_cell_volume   592.16311735
_cell_formula_units_Z   2
loop_
 _symmetry_equiv_pos_site_id
 _symmetry_equiv_pos_as_xyz
  1  'x, y, z'
loop_
 _atom_site_type_symbol
 _atom_site_label
 _atom_site_symmetry_multiplicity
 _atom_site_fract_x
 _atom_site_fract_y
 _atom_site_fract_z
 _atom_site_occupancy
  Ni  Ni0  1  0.99897028  0.00009479  -0.00042573  1
  Ni  Ni1  1  0.16414044  0.16421817  0.16146426  1
  Cr  Cr2  1  -0.00052252  0.99841316  0.33063998  1
  Ni  Ni3  1  0.99893113  0.33006753  0.99801919  1
  Cr  Cr4  1  0.16554934  0.49966183  0.16383001  1
  Cr  Cr5  1  0.99732653  0.33179614  0.33257264  1
  Cr  Cr6  1  0.99719127  0.66728717  0.99764116  1
  Ni  Ni7  1  0.16622176  0.83241649  0.16500118  1
  Ni  Ni8  1  -0.00093063  0.66591168  0.33277468  1
  Ni  Ni9  1  0.33149689  0.99732567  0.99811319  1
  Cr  Cr10  1  0.49915163  0.16389385  0.16451207  1
  Cr  Cr11  1  0.33096581  0.99573293  0.33298617  1
  Ni  Ni12  1  0.33063601  0.33159200  0.99560531  1
  Cr  Cr13  1  0.49926318  0.50161001  0.16578266  1
  Cr  Cr14  1  0.33232792  0.33330262  0.33469100  1
  Ni  Ni15  1  0.33390341  0.66819630  0.99779592  1
  Ni  Ni16  1  0.50021310  0.83188420  0.16521308  1
  Ni  Ni17  1  0.33276477  0.66765134  0.33366363  1
  Ni  Ni18  1  0.66660627  0.99694395  0.99828239  1
  Ni  Ni19  1  0.83264401  0.16437682  0.16503632  1
  Ni  Ni20  1  0.66661924  0.99785608  0.33156242  1
  Cr  Cr21  1  0.66809420  0.33385868  0.99759229  1
  Ni  Ni22  1  0.83207853  0.50058024  0.16687127  1
  Ni  Ni23  1  0.66837985  0.33364526  0.33317257  1
  Ni  Ni24  1  0.66469207  0.66804284  0.99803138  1
  Ni  Ni25  1  0.83079357  0.83223299  0.16550463  1
  Ni  Ni26  1  0.66559233  0.66579378  0.33225396  1
  Ni  Ni27  1  0.16511344  0.16684981  0.50214837  1
  Cr  Cr28  1  0.00034149  -0.00079493  0.66659607  1
  Ni  Ni29  1  0.16635963  0.16645542  0.83329516  1
  Ni  Ni30  1  0.16456126  0.50017046  0.50006255  1
  Ni  Ni31  1  -0.00013778  0.33364617  0.66587005  1
  Ni  Ni32  1  0.16533590  0.49743421  0.83227143  1
  Ni  Ni33  1  0.16658144  0.83007298  0.49896863  1
  Ni  Ni34  1  0.99876067  0.66341814  0.66635859  1
  Ni  Ni35  1  0.16611017  0.83311910  0.83319267  1
  Cr  Cr36  1  0.50072021  0.16378265  0.50041324  1
  Ni  Ni37  1  0.33291581  0.99901163  0.66636138  1
  Ni  Ni38  1  0.49715014  0.16363662  0.83231816  1
  Ni  Ni39  1  0.49995035  0.50145116  0.49800299  1
  Ni  Ni40  1  0.33058993  0.33225249  0.66670780  1
  Ni  Ni41  1  0.49770496  0.50001661  0.83355430  1
  Ni  Ni42  1  0.49982345  0.83077821  0.49886085  1
  Cr  Cr43  1  0.33315720  0.66635511  0.66588133  1
  Ni  Ni44  1  0.50017093  0.83362634  0.83323291  1
  Ni  Ni45  1  0.83231643  0.16685225  0.49888412  1
  Ni  Ni46  1  0.66411042  0.99776395  0.66764228  1
  Ni  Ni47  1  0.83340317  0.16427084  0.83309303  1
  Ni  Ni48  1  0.83282130  0.49990931  0.49887000  1
  Cr  Cr49  1  0.66631404  0.33426087  0.66682775  1
  Ni  Ni50  1  0.83390741  0.50034575  0.83136925  1
  Cr  Cr51  1  0.83076605  0.83114207  0.50028223  1
  Ni  Ni52  1  0.66584087  0.66601023  0.66715892  1
  Ni  Ni53  1  0.83087426  0.83243963  0.83225187  1
" 