5251,Ni27Fe23Cr48_6,-219.313180221604, 166.062437598196,Ni27Fe23Cr48,"# generated using pymatgen
 data_Cr14Fe6Ni7
_symmetry_space_group_name_H-M   'P 1'
_cell_length_a   7.51530377
_cell_length_b   7.51530377
_cell_length_c   10.62824452
_cell_angle_alpha   90.00000000
_cell_angle_beta   90.00000000
_cell_angle_gamma   90.00000000
_symmetry_Int_Tables_number   1
_chemical_formula_structural   Cr14Fe6Ni7
_chemical_formula_sum   'Cr28 Fe12 Ni14'
_cell_volume   600.28102757
_cell_formula_units_Z   2
loop_
 _symmetry_equiv_pos_site_id
 _symmetry_equiv_pos_as_xyz
  1  'x, y, z'
loop_
 _atom_site_type_symbol
 _atom_site_label
 _atom_site_symmetry_multiplicity
 _atom_site_fract_x
 _atom_site_fract_y
 _atom_site_fract_z
 _atom_site_occupancy
  Fe  Fe0  1  -0.00288541  0.00126442  0.99639579  1
  Ni  Ni1  1  0.16185283  0.16629280  0.16155661  1
  Cr  Cr2  1  -0.00171260  -0.00243451  0.32986806  1
  Ni  Ni3  1  0.00008651  0.32938227  0.99634966  1
  Cr  Cr4  1  0.16339302  0.49436809  0.16219947  1
  Fe  Fe5  1  0.99666820  0.32807469  0.32996123  1
  Cr  Cr6  1  0.99502435  0.66151930  -0.00237976  1
  Cr  Cr7  1  0.16436406  0.83146362  0.16154714  1
  Cr  Cr8  1  0.99646469  0.66002997  0.33008239  1
  Cr  Cr9  1  0.32955156  -0.00060215  -0.00148398  1
  Fe  Fe10  1  0.49541369  0.16514835  0.16256278  1
  Cr  Cr11  1  0.32912041  -0.00138922  0.32844482  1
  Ni  Ni12  1  0.32659043  0.33039736  0.99577647  1
  Fe  Fe13  1  0.49624403  0.49448667  0.16131508  1
  Cr  Cr14  1  0.32742946  0.32851764  0.32978395  1
  Fe  Fe15  1  0.33295496  0.66096372  -0.00312324  1
  Ni  Ni16  1  0.49809440  0.82658736  0.16161030  1
  Cr  Cr17  1  0.32910534  0.66236330  0.33021514  1
  Cr  Cr18  1  0.66284104  0.99510707  0.99470335  1
  Cr  Cr19  1  0.83123140  0.16651687  0.16240284  1
  Cr  Cr20  1  0.66313562  -0.00232144  0.33028736  1
  Cr  Cr21  1  0.66290391  0.33227465  0.99528626  1
  Fe  Fe22  1  0.82938282  0.49553377  0.16194851  1
  Ni  Ni23  1  0.66486963  0.33025941  0.32808487  1
  Ni  Ni24  1  0.66211688  0.66365104  -0.00125117  1
  Fe  Fe25  1  0.82994413  0.83100734  0.16175978  1
  Cr  Cr26  1  0.66458078  0.66208544  0.32618924  1
  Ni  Ni27  1  0.15997191  0.16596779  0.49694021  1
  Fe  Fe28  1  -0.00188836  0.00317358  0.66370321  1
  Ni  Ni29  1  0.16014942  0.16573281  0.83181609  1
  Fe  Fe30  1  0.16272944  0.49336747  0.49866766  1
  Ni  Ni31  1  0.00126518  0.33000064  0.66278804  1
  Fe  Fe32  1  0.16461531  0.49351816  0.83086844  1
  Cr  Cr33  1  0.16343749  0.82895551  0.49907195  1
  Fe  Fe34  1  -0.00089946  0.65955722  0.66415463  1
  Cr  Cr35  1  0.16451799  0.83043583  0.83064290  1
  Cr  Cr36  1  0.49788448  0.16651291  0.49534034  1
  Cr  Cr37  1  0.32902149  -0.00009559  0.66298558  1
  Cr  Cr38  1  0.49470108  0.16645526  0.83027547  1
  Cr  Cr39  1  0.49578354  0.49544196  0.49758724  1
  Ni  Ni40  1  0.32390205  0.33159532  0.66514421  1
  Ni  Ni41  1  0.49283722  0.49904755  0.83257406  1
  Cr  Cr42  1  0.49543388  0.82845406  0.49819165  1
  Fe  Fe43  1  0.32879623  0.65930897  0.66582613  1
  Ni  Ni44  1  0.49484202  0.82477656  0.83123094  1
  Ni  Ni45  1  0.83466651  0.16673946  0.49718731  1
  Cr  Cr46  1  0.66495322  -0.00213766  0.66478805  1
  Ni  Ni47  1  0.83704490  0.16539287  0.82934352  1
  Cr  Cr48  1  0.83059131  0.49346347  0.49492611  1
  Cr  Cr49  1  0.66478168  0.32963275  0.66521350  1
  Cr  Cr50  1  0.83098020  0.49426838  0.83158120  1
  Cr  Cr51  1  0.83186715  0.83144357  0.49858560  1
  Cr  Cr52  1  0.66401525  0.66286686  0.66625032  1
  Cr  Cr53  1  0.83186430  0.83220802  0.83085427  1
" 