6947,Ni27Fe23Cr48_17,-219.319217552821, 172.766731075149,Ni27Fe23Cr48,"# generated using pymatgen
 data_Cr14Fe6Ni7
_symmetry_space_group_name_H-M   'P 1'
_cell_length_a   7.50813133
_cell_length_b   7.50813133
_cell_length_c   10.61810116
_cell_angle_alpha   90.00000000
_cell_angle_beta   90.00000000
_cell_angle_gamma   90.00000000
_symmetry_Int_Tables_number   1
_chemical_formula_structural   Cr14Fe6Ni7
_chemical_formula_sum   'Cr28 Fe12 Ni14'
_cell_volume   598.56398186
_cell_formula_units_Z   2
loop_
 _symmetry_equiv_pos_site_id
 _symmetry_equiv_pos_as_xyz
  1  'x, y, z'
loop_
 _atom_site_type_symbol
 _atom_site_label
 _atom_site_symmetry_multiplicity
 _atom_site_fract_x
 _atom_site_fract_y
 _atom_site_fract_z
 _atom_site_occupancy
  Ni  Ni0  1  -0.00269472  0.99547685  -0.00209239  1
  Cr  Cr1  1  0.16107536  0.16193183  0.16420947  1
  Ni  Ni2  1  -0.00162072  0.99706298  0.33166761  1
  Fe  Fe3  1  0.99686370  0.32974949  -0.00097244  1
  Cr  Cr4  1  0.16256787  0.49526918  0.16465630  1
  Ni  Ni5  1  0.99403792  0.32988564  0.33178257  1
  Cr  Cr6  1  0.99716254  0.66667658  0.99505059  1
  Fe  Fe7  1  0.16314325  0.83038245  0.16781503  1
  Ni  Ni8  1  -0.00029881  0.66418569  0.33185917  1
  Cr  Cr9  1  0.32904668  0.99474619  0.99686292  1
  Cr  Cr10  1  0.49385480  0.16355085  0.16298728  1
  Ni  Ni11  1  0.32680285  0.99340245  0.33327227  1
  Ni  Ni12  1  0.33118030  0.33003502  0.99538329  1
  Cr  Cr13  1  0.49687861  0.49825721  0.16782073  1
  Cr  Cr14  1  0.33029519  0.33050394  0.33492465  1
  Cr  Cr15  1  0.32897016  0.66400036  -0.00198570  1
  Cr  Cr16  1  0.49630944  0.83022139  0.17115904  1
  Ni  Ni17  1  0.32762670  0.66728305  0.33310376  1
  Cr  Cr18  1  0.66649017  0.99680942  0.99496375  1
  Fe  Fe19  1  0.83191058  0.16467023  0.16554106  1
  Cr  Cr20  1  0.66376582  -0.00012931  0.33274989  1
  Cr  Cr21  1  0.66455065  0.33095552  -0.00061657  1
  Fe  Fe22  1  0.83248566  0.49640066  0.16831103  1
  Ni  Ni23  1  0.66782860  0.33106324  0.32986380  1
  Cr  Cr24  1  0.66590281  0.66368785  0.00091227  1
  Cr  Cr25  1  0.83369680  0.83126958  0.16673695  1
  Fe  Fe26  1  0.66558518  0.66399934  0.33231801  1
  Fe  Fe27  1  0.16166002  0.16086604  0.49341792  1
  Cr  Cr28  1  -0.00249249  0.99592353  0.66171560  1
  Cr  Cr29  1  0.16447747  0.16448836  0.83459364  1
  Fe  Fe30  1  0.16392792  0.50251437  0.49551988  1
  Cr  Cr31  1  0.99706714  0.33053987  0.65774958  1
  Cr  Cr32  1  0.16400951  0.49630630  0.82860407  1
  Ni  Ni33  1  0.16360670  0.83051699  0.49442946  1
  Fe  Fe34  1  -0.00083333  0.66480816  0.66222917  1
  Fe  Fe35  1  0.16174369  0.82981555  0.82826165  1
  Cr  Cr36  1  0.49801562  0.16233320  0.49911037  1
  Cr  Cr37  1  0.32890476  0.99547150  0.66211318  1
  Fe  Fe38  1  0.49877868  0.16470398  0.82901271  1
  Cr  Cr39  1  0.49889969  0.50070147  0.49697165  1
  Cr  Cr40  1  0.33041524  0.33170060  0.66161333  1
  Cr  Cr41  1  0.49653422  0.49720101  0.82894881  1
  Ni  Ni42  1  0.49423125  0.82980152  0.49621702  1
  Ni  Ni43  1  0.32985884  0.66649625  0.66085608  1
  Cr  Cr44  1  0.50031399  0.82976786  0.82714291  1
  Fe  Fe45  1  0.83069342  0.16373655  0.49564605  1
  Fe  Fe46  1  0.66320830  0.99637721  0.66295067  1
  Cr  Cr47  1  0.83244103  0.16205673  0.82933622  1
  Cr  Cr48  1  0.83161666  0.49768152  0.49627208  1
  Ni  Ni49  1  0.66501750  0.33084517  0.66352711  1
  Cr  Cr50  1  0.83114861  0.50014604  0.82822925  1
  Cr  Cr51  1  0.82981611  0.83002463  0.49920818  1
  Ni  Ni52  1  0.66326271  0.66479414  0.66323332  1
  Ni  Ni53  1  0.83251810  0.83129255  0.82706449  1
" 