439,Ni27Fe46Cr26_14,-227.692783953732, 194.157760870305,Ni27Fe46Cr26,"# generated using pymatgen
 data_Cr8Fe12Ni7
_symmetry_space_group_name_H-M   'P 1'
_cell_length_a   7.45764522
_cell_length_b   7.45764522
_cell_length_c   10.54670302
_cell_angle_alpha   90.00000000
_cell_angle_beta   90.00000000
_cell_angle_gamma   90.00000000
_symmetry_Int_Tables_number   1
_chemical_formula_structural   Cr8Fe12Ni7
_chemical_formula_sum   'Cr16 Fe24 Ni14'
_cell_volume   586.57041562
_cell_formula_units_Z   2
loop_
 _symmetry_equiv_pos_site_id
 _symmetry_equiv_pos_as_xyz
  1  'x, y, z'
loop_
 _atom_site_type_symbol
 _atom_site_label
 _atom_site_symmetry_multiplicity
 _atom_site_fract_x
 _atom_site_fract_y
 _atom_site_fract_z
 _atom_site_occupancy
  Fe  Fe0  1  0.99923924  0.99994065  1.00004304  1
  Cr  Cr1  1  0.16715457  0.16729725  0.16739481  1
  Fe  Fe2  1  0.99978731  0.00076965  0.33404031  1
  Cr  Cr3  1  0.99977962  0.33338061  0.00196687  1
  Fe  Fe4  1  0.16766069  0.49957692  0.16789368  1
  Ni  Ni5  1  0.00205346  0.33507956  0.33288343  1
  Cr  Cr6  1  0.99931286  0.66735065  1.00027772  1
  Cr  Cr7  1  0.16724018  0.83436119  0.16701426  1
  Cr  Cr8  1  1.00057278  0.66548605  0.33515270  1
  Fe  Fe9  1  0.33429088  0.99957716  1.00058640  1
  Ni  Ni10  1  0.50008238  0.16869065  0.16751980  1
  Fe  Fe11  1  0.33440156  0.00067641  0.33445945  1
  Fe  Fe12  1  0.33635943  0.33501879  0.00142214  1
  Fe  Fe13  1  0.50083115  0.50046170  0.16625320  1
  Fe  Fe14  1  0.33344153  0.33430424  0.33362214  1
  Fe  Fe15  1  0.33611178  0.66729792  1.00024146  1
  Fe  Fe16  1  0.50136443  0.83383809  0.16661481  1
  Fe  Fe17  1  0.33376133  0.66691271  0.33435106  1
  Cr  Cr18  1  0.66759759  0.99992797  0.00185000  1
  Ni  Ni19  1  0.83375545  0.16753326  0.16727147  1
  Cr  Cr20  1  0.66617833  0.99985091  0.33364677  1
  Fe  Fe21  1  0.66731848  0.33543300  0.00164039  1
  Ni  Ni22  1  0.83241607  0.50059625  0.16708092  1
  Cr  Cr23  1  0.66822698  0.33292919  0.33251575  1
  Ni  Ni24  1  0.66603887  0.66708790  0.00163241  1
  Ni  Ni25  1  0.83340673  0.83376136  0.16667531  1
  Cr  Cr26  1  0.66770088  0.66911188  0.33254154  1
  Cr  Cr27  1  0.16792112  0.16729298  0.50076690  1
  Ni  Ni28  1  0.99992920  1.00012919  0.66846739  1
  Cr  Cr29  1  0.16645632  0.16543315  0.83373035  1
  Fe  Fe30  1  0.16641479  0.50087685  0.50155948  1
  Ni  Ni31  1  1.00037182  0.33472334  0.66702015  1
  Cr  Cr32  1  0.16904920  0.50173901  0.83231723  1
  Fe  Fe33  1  0.16760083  0.83370722  0.50154367  1
  Fe  Fe34  1  0.00169566  0.66831246  0.66659175  1
  Fe  Fe35  1  0.16777887  0.83511224  0.83309748  1
  Fe  Fe36  1  0.49984841  0.16581484  0.50184791  1
  Ni  Ni37  1  0.33489970  0.99946393  0.66669010  1
  Cr  Cr38  1  0.50119845  0.16845681  0.83178687  1
  Cr  Cr39  1  0.49926396  0.50019312  0.50172567  1
  Ni  Ni40  1  0.33329784  0.33422818  0.66653140  1
  Fe  Fe41  1  0.50107757  0.50088160  0.83413530  1
  Fe  Fe42  1  0.49951521  0.83567077  0.50168472  1
  Ni  Ni43  1  0.33303852  0.66819978  0.66745751  1
  Fe  Fe44  1  0.49981644  0.83334568  0.83359139  1
  Cr  Cr45  1  0.83423896  0.16664718  0.50169998  1
  Ni  Ni46  1  0.66706218  1.00039110  0.66676968  1
  Ni  Ni47  1  0.83396476  0.16677586  0.83280264  1
  Fe  Fe48  1  0.83626310  0.50054451  0.50106889  1
  Fe  Fe49  1  0.66753823  0.33249900  0.66786986  1
  Fe  Fe50  1  0.83260692  0.49948394  0.83395960  1
  Ni  Ni51  1  0.83497319  0.83396383  0.50171624  1
  Cr  Cr52  1  0.66784119  0.66873589  0.66765684  1
  Fe  Fe53  1  0.83429384  0.83516646  0.83336002  1
" 