2284,Ni27Fe23Cr48_10,-219.243182946766, 168.601789496049,Ni27Fe23Cr48,"# generated using pymatgen
 data_Cr14Fe6Ni7
_symmetry_space_group_name_H-M   'P 1'
_cell_length_a   7.51602668
_cell_length_b   7.51602668
_cell_length_c   10.62926686
_cell_angle_alpha   90.00000000
_cell_angle_beta   90.00000000
_cell_angle_gamma   90.00000000
_symmetry_Int_Tables_number   1
_chemical_formula_structural   Cr14Fe6Ni7
_chemical_formula_sum   'Cr28 Fe12 Ni14'
_cell_volume   600.45426853
_cell_formula_units_Z   2
loop_
 _symmetry_equiv_pos_site_id
 _symmetry_equiv_pos_as_xyz
  1  'x, y, z'
loop_
 _atom_site_type_symbol
 _atom_site_label
 _atom_site_symmetry_multiplicity
 _atom_site_fract_x
 _atom_site_fract_y
 _atom_site_fract_z
 _atom_site_occupancy
  Cr  Cr0  1  -0.00228965  0.99606346  -0.00237755  1
  Cr  Cr1  1  0.16597174  0.16178108  0.16064575  1
  Cr  Cr2  1  -0.00035453  0.99547834  0.33055792  1
  Cr  Cr3  1  -0.00137183  0.33056904  -0.00149120  1
  Cr  Cr4  1  0.16761784  0.49910215  0.16113043  1
  Cr  Cr5  1  -0.00232527  0.33314332  0.32980509  1
  Cr  Cr6  1  0.99487786  0.66372762  0.00094797  1
  Ni  Ni7  1  0.16595704  0.82964810  0.16445222  1
  Cr  Cr8  1  -0.00239064  0.66151648  0.33020766  1
  Fe  Fe9  1  0.32995584  0.99634542  0.99609384  1
  Cr  Cr10  1  0.49630537  0.16411794  0.16621956  1
  Ni  Ni11  1  0.32954093  0.99602275  0.33013730  1
  Ni  Ni12  1  0.33305829  0.33110828  0.99413444  1
  Ni  Ni13  1  0.49713421  0.49814334  0.16221706  1
  Cr  Cr14  1  0.32830745  0.33102975  0.33094752  1
  Ni  Ni15  1  0.33320948  0.66280809  -0.00258013  1
  Cr  Cr16  1  0.49373131  0.82934536  0.16367092  1
  Fe  Fe17  1  0.32835194  0.66451743  0.32978213  1
  Cr  Cr18  1  0.66130682  0.99393188  0.99514449  1
  Cr  Cr19  1  0.82826125  0.16312037  0.16651813  1
  Ni  Ni20  1  0.66176084  0.99539510  0.32955444  1
  Cr  Cr21  1  0.66124797  0.33173122  -0.00248272  1
  Ni  Ni22  1  0.82667886  0.49788429  0.16309803  1
  Fe  Fe23  1  0.66410391  0.33215239  0.32940896  1
  Fe  Fe24  1  0.66036054  0.66110708  -0.00301099  1
  Fe  Fe25  1  0.82940486  0.82918423  0.16412979  1
  Cr  Cr26  1  0.66457014  0.66167597  0.32775233  1
  Ni  Ni27  1  0.16337719  0.16393965  0.49934813  1
  Fe  Fe28  1  -0.00033484  0.99633325  0.66244111  1
  Fe  Fe29  1  0.16505835  0.16581212  0.82915963  1
  Ni  Ni30  1  0.16279478  0.49741128  0.49961635  1
  Ni  Ni31  1  -0.00072947  0.33087347  0.66129281  1
  Cr  Cr32  1  0.16545379  0.49747699  0.82964309  1
  Fe  Fe33  1  0.16423511  0.82862631  0.49724242  1
  Ni  Ni34  1  -0.00106972  0.65986408  0.66037499  1
  Cr  Cr35  1  0.16418354  0.82798037  0.82945849  1
  Cr  Cr36  1  0.49767760  0.16332737  0.49338505  1
  Cr  Cr37  1  0.33059345  -0.00174278  0.66432237  1
  Fe  Fe38  1  0.49420052  0.16638653  0.83053629  1
  Cr  Cr39  1  0.49535771  0.49743456  0.49641663  1
  Fe  Fe40  1  0.32897494  0.33201138  0.66334119  1
  Ni  Ni41  1  0.49360155  0.49689612  0.83053848  1
  Cr  Cr42  1  0.49401806  0.82972876  0.49457429  1
  Ni  Ni43  1  0.32838187  0.66211802  0.66199798  1
  Fe  Fe44  1  0.49406542  0.82575810  0.83104297  1
  Cr  Cr45  1  0.82959458  0.16502492  0.49688784  1
  Cr  Cr46  1  0.66053112  -0.00284700  0.66498601  1
  Cr  Cr47  1  0.83214460  0.16439532  0.82679996  1
  Ni  Ni48  1  0.83221016  0.49547463  0.49916442  1
  Fe  Fe49  1  0.66226717  0.33242227  0.66358166  1
  Cr  Cr50  1  0.83082520  0.49653772  0.82882251  1
  Cr  Cr51  1  0.83060969  0.83025239  0.49868053  1
  Cr  Cr52  1  0.66164810  0.66278493  0.66600010  1
  Cr  Cr53  1  0.83139829  0.82912010  0.82978263  1
" 