3518,Ni27Fe49Cr23_15,-227.981109779601, 187.848569092945,Ni27Fe49Cr23,"# generated using pymatgen
 data_Cr7Fe13Ni7
_symmetry_space_group_name_H-M   'P 1'
_cell_length_a   7.45287229
_cell_length_b   7.45287229
_cell_length_c   10.53995307
_cell_angle_alpha   90.00000000
_cell_angle_beta   90.00000000
_cell_angle_gamma   90.00000000
_symmetry_Int_Tables_number   1
_chemical_formula_structural   Cr7Fe13Ni7
_chemical_formula_sum   'Cr14 Fe26 Ni14'
_cell_volume   585.44491194
_cell_formula_units_Z   2
loop_
 _symmetry_equiv_pos_site_id
 _symmetry_equiv_pos_as_xyz
  1  'x, y, z'
loop_
 _atom_site_type_symbol
 _atom_site_label
 _atom_site_symmetry_multiplicity
 _atom_site_fract_x
 _atom_site_fract_y
 _atom_site_fract_z
 _atom_site_occupancy
  Fe  Fe0  1  0.00431272  1.00093202  0.00203890  1
  Ni  Ni1  1  0.16688996  0.16633976  0.16975958  1
  Fe  Fe2  1  0.00254638  0.00164022  0.33335472  1
  Cr  Cr3  1  0.00109252  0.33646850  0.00224962  1
  Fe  Fe4  1  0.16782378  0.50154921  0.16843564  1
  Ni  Ni5  1  0.00137011  0.33570635  0.33422949  1
  Fe  Fe6  1  1.00023371  0.66829100  0.00229190  1
  Ni  Ni7  1  0.16953800  0.83742792  0.16592730  1
  Cr  Cr8  1  0.00180784  0.66673227  0.33303659  1
  Fe  Fe9  1  0.33272442  0.00136488  1.00089358  1
  Fe  Fe10  1  0.49807360  0.16569219  0.16896035  1
  Fe  Fe11  1  0.33264669  0.00116048  0.33402798  1
  Cr  Cr12  1  0.33496420  0.33319363  0.00150744  1
  Fe  Fe13  1  0.49949707  0.50300753  0.16825383  1
  Fe  Fe14  1  0.33175427  0.33447325  0.33482887  1
  Cr  Cr15  1  0.33185533  0.66854057  1.00015651  1
  Ni  Ni16  1  0.50007794  0.83275211  0.16995276  1
  Fe  Fe17  1  0.33473181  0.66779348  0.33430979  1
  Cr  Cr18  1  0.66521787  0.00248909  0.00345004  1
  Fe  Fe19  1  0.83683881  0.16623624  0.16873912  1
  Fe  Fe20  1  0.66827104  0.99862972  0.33339143  1
  Fe  Fe21  1  0.66672592  0.33690389  0.00133568  1
  Ni  Ni22  1  0.83178414  0.50070964  0.16531524  1
  Cr  Cr23  1  0.66862700  0.33230330  0.33141323  1
  Fe  Fe24  1  0.66664174  0.66582062  0.00236644  1
  Fe  Fe25  1  0.83538761  0.83381351  0.16730029  1
  Fe  Fe26  1  0.66848078  0.66670718  0.33396047  1
  Ni  Ni27  1  0.16754562  0.16603661  0.50004955  1
  Fe  Fe28  1  0.00368517  0.00132456  0.66677436  1
  Ni  Ni29  1  0.16652718  0.16650522  0.83417140  1
  Fe  Fe30  1  0.16716014  0.49912083  0.49962125  1
  Fe  Fe31  1  0.00277009  0.33459824  0.66694982  1
  Ni  Ni32  1  0.16795742  0.49880734  0.83396988  1
  Ni  Ni33  1  0.16904684  0.83778080  0.50038561  1
  Cr  Cr34  1  0.00204514  0.66650003  0.66762292  1
  Fe  Fe35  1  0.16742794  0.83476298  0.83585939  1
  Fe  Fe36  1  0.49937926  0.16990230  0.49921871  1
  Cr  Cr37  1  0.33543800  1.00054607  0.67080591  1
  Fe  Fe38  1  0.50097551  0.16874518  0.83522773  1
  Ni  Ni39  1  0.50293809  0.50267299  0.49935112  1
  Cr  Cr40  1  0.33522114  0.33467749  0.66669891  1
  Ni  Ni41  1  0.50343326  0.50273529  0.83495877  1
  Fe  Fe42  1  0.50045089  0.83360469  0.49811333  1
  Cr  Cr43  1  0.33273700  0.66777133  0.66682029  1
  Ni  Ni44  1  0.50140937  0.83136136  0.83470417  1
  Cr  Cr45  1  0.83760193  0.16916164  0.50096675  1
  Cr  Cr46  1  0.66564516  0.00126134  0.66434175  1
  Cr  Cr47  1  0.83669341  0.16886274  0.83327159  1
  Ni  Ni48  1  0.83078816  0.50002778  0.50392959  1
  Ni  Ni49  1  0.66722425  0.33508953  0.66976949  1
  Fe  Fe50  1  0.83333662  0.50124700  0.83426948  1
  Fe  Fe51  1  0.83507422  0.83259375  0.50016251  1
  Fe  Fe52  1  0.66531720  0.66535639  0.66721334  1
  Cr  Cr53  1  0.83360958  0.83362186  0.83463943  1
" 