8927,Ni27Fe49Cr23_13,-228.948038048569, 197.495878933172,Ni27Fe49Cr23,"# generated using pymatgen
 data_Cr7Fe13Ni7
_symmetry_space_group_name_H-M   'P 1'
_cell_length_a   7.45403597
_cell_length_b   7.45403597
_cell_length_c   10.54159876
_cell_angle_alpha   90.00000000
_cell_angle_beta   90.00000000
_cell_angle_gamma   90.00000000
_symmetry_Int_Tables_number   1
_chemical_formula_structural   Cr7Fe13Ni7
_chemical_formula_sum   'Cr14 Fe26 Ni14'
_cell_volume   585.71918512
_cell_formula_units_Z   2
loop_
 _symmetry_equiv_pos_site_id
 _symmetry_equiv_pos_as_xyz
  1  'x, y, z'
loop_
 _atom_site_type_symbol
 _atom_site_label
 _atom_site_symmetry_multiplicity
 _atom_site_fract_x
 _atom_site_fract_y
 _atom_site_fract_z
 _atom_site_occupancy
  Ni  Ni0  1  0.00098152  1.00035920  0.00110975  1
  Fe  Fe1  1  0.16895093  0.16728770  0.16754715  1
  Fe  Fe2  1  1.00065002  0.00258636  0.33620277  1
  Cr  Cr3  1  1.00053036  0.33475217  0.00268805  1
  Fe  Fe4  1  0.16741026  0.50060494  0.16954816  1
  Ni  Ni5  1  1.00071367  0.33420211  0.33297620  1
  Ni  Ni6  1  0.00277947  0.66727327  0.00186889  1
  Cr  Cr7  1  0.16752669  0.83506890  0.16824317  1
  Fe  Fe8  1  1.00050392  0.66689612  0.33538539  1
  Ni  Ni9  1  0.33570817  1.00075988  0.00156482  1
  Ni  Ni10  1  0.49945122  0.16746939  0.16744484  1
  Fe  Fe11  1  0.33323940  0.00364132  0.33462853  1
  Fe  Fe12  1  0.33231978  0.33278760  0.00107734  1
  Cr  Cr13  1  0.50054846  0.50169859  0.16797126  1
  Fe  Fe14  1  0.33244027  0.33266467  0.33394672  1
  Fe  Fe15  1  0.33297451  0.66687009  0.99971524  1
  Cr  Cr16  1  0.50129796  0.83574201  0.16762687  1
  Ni  Ni17  1  0.33183095  0.66796092  0.33419538  1
  Fe  Fe18  1  0.66829297  1.00052266  0.99985555  1
  Fe  Fe19  1  0.83459333  0.16532304  0.16938855  1
  Ni  Ni20  1  0.66764239  0.00292848  0.33381076  1
  Cr  Cr21  1  0.66693003  0.33175297  0.00159812  1
  Fe  Fe22  1  0.83562127  0.50191064  0.16825656  1
  Cr  Cr23  1  0.66890521  0.33289203  0.33507072  1
  Fe  Fe24  1  0.66862868  0.66924334  0.99887421  1
  Cr  Cr25  1  0.83387378  0.83408943  0.16743030  1
  Fe  Fe26  1  0.66909306  0.66747485  0.33542491  1
  Fe  Fe27  1  0.16658389  0.16557952  0.50114501  1
  Ni  Ni28  1  0.00105636  0.99887735  0.66522675  1
  Cr  Cr29  1  0.16628321  0.16768875  0.83137703  1
  Cr  Cr30  1  0.16775600  0.50033519  0.50258529  1
  Fe  Fe31  1  0.00164567  0.33269712  0.66563982  1
  Fe  Fe32  1  0.16920538  0.50229080  0.83324591  1
  Ni  Ni33  1  0.16752297  0.83460238  0.50094937  1
  Ni  Ni34  1  0.00237323  0.66903146  0.66636215  1
  Cr  Cr35  1  0.16776855  0.83560410  0.83368930  1
  Fe  Fe36  1  0.49850298  0.16675931  0.49948663  1
  Ni  Ni37  1  0.33432653  0.99895910  0.66541725  1
  Fe  Fe38  1  0.49856759  0.16528738  0.83563080  1
  Fe  Fe39  1  0.49970170  0.50159299  0.50045630  1
  Fe  Fe40  1  0.33388836  0.33359670  0.66747502  1
  Fe  Fe41  1  0.49799133  0.50231296  0.83422570  1
  Cr  Cr42  1  0.49982039  0.83343684  0.49845616  1
  Ni  Ni43  1  0.33390637  0.66811872  0.66914676  1
  Ni  Ni44  1  0.50109649  0.83381235  0.83646660  1
  Ni  Ni45  1  0.83637507  0.16802315  0.50093004  1
  Cr  Cr46  1  0.66715879  0.00149009  0.66944816  1
  Fe  Fe47  1  0.83539072  0.16411019  0.83397783  1
  Fe  Fe48  1  0.83532390  0.50268396  0.50121290  1
  Cr  Cr49  1  0.66646926  0.33381200  0.66572562  1
  Cr  Cr50  1  0.83609957  0.50141142  0.83211180  1
  Fe  Fe51  1  0.83655495  0.83519043  0.50003905  1
  Fe  Fe52  1  0.66669640  0.67020895  0.66782039  1
  Fe  Fe53  1  0.83562679  0.83485487  0.83543295  1
" 