1793,Ni27Cr73_0,-229.112113555215, 147.900977337483,Ni27Cr73,"# generated using pymatgen
 data_Cr7Ni20
_symmetry_space_group_name_H-M   'P 1'
_cell_length_a   7.48614524
_cell_length_b   7.48614524
_cell_length_c   10.58700813
_cell_angle_alpha   90.00000000
_cell_angle_beta   90.00000000
_cell_angle_gamma   90.00000000
_symmetry_Int_Tables_number   1
_chemical_formula_structural   Cr7Ni20
_chemical_formula_sum   'Cr14 Ni40'
_cell_volume   593.32103294
_cell_formula_units_Z   2
loop_
 _symmetry_equiv_pos_site_id
 _symmetry_equiv_pos_as_xyz
  1  'x, y, z'
loop_
 _atom_site_type_symbol
 _atom_site_label
 _atom_site_symmetry_multiplicity
 _atom_site_fract_x
 _atom_site_fract_y
 _atom_site_fract_z
 _atom_site_occupancy
  Ni  Ni0  1  -0.00103706  0.99651947  0.00051903  1
  Ni  Ni1  1  0.16733065  0.16415281  0.16414121  1
  Cr  Cr2  1  -0.00064703  -0.00060864  0.33132573  1
  Cr  Cr3  1  0.99818094  0.33326532  0.00403444  1
  Ni  Ni4  1  0.16816461  0.49885256  0.16826876  1
  Cr  Cr5  1  -0.00013617  0.33330302  0.33180043  1
  Cr  Cr6  1  0.99814659  0.66742068  -0.00055256  1
  Ni  Ni7  1  0.16484338  0.83309510  0.16660760  1
  Ni  Ni8  1  0.00015413  0.66461333  0.33091075  1
  Ni  Ni9  1  0.33165998  0.99842878  0.99731867  1
  Cr  Cr10  1  0.49777126  0.16542884  0.16420678  1
  Ni  Ni11  1  0.33163627  0.99827278  0.33463365  1
  Ni  Ni12  1  0.33573760  0.33188801  0.00014520  1
  Ni  Ni13  1  0.49891268  0.49855161  0.16535041  1
  Ni  Ni14  1  0.33151684  0.33314406  0.33268787  1
  Cr  Cr15  1  0.33453826  0.66619190  0.99823863  1
  Cr  Cr16  1  0.50038242  0.83126067  0.16872498  1
  Ni  Ni17  1  0.33126514  0.66469712  0.33322175  1
  Ni  Ni18  1  0.66571288  0.99723606  0.99804714  1
  Ni  Ni19  1  0.83114531  0.16294967  0.16330571  1
  Ni  Ni20  1  0.66409822  0.99786811  0.33331452  1
  Ni  Ni21  1  0.66350997  0.33413462  0.99803967  1
  Ni  Ni22  1  0.82932673  0.50145782  0.16563038  1
  Cr  Cr23  1  0.66488096  0.33172423  0.33461600  1
  Ni  Ni24  1  0.66567138  0.66482032  0.99769995  1
  Ni  Ni25  1  0.83181252  0.83154670  0.16509893  1
  Ni  Ni26  1  0.66461376  0.66443217  0.33189034  1
  Ni  Ni27  1  0.16933364  0.16470686  0.49988358  1
  Ni  Ni28  1  0.00134941  0.99536371  0.66465298  1
  Cr  Cr29  1  0.16876264  0.16377816  0.83250918  1
  Ni  Ni30  1  0.16764058  0.50090073  0.49838794  1
  Cr  Cr31  1  0.99661756  0.33253450  0.66031146  1
  Cr  Cr32  1  0.16720420  0.49910626  0.82855405  1
  Ni  Ni33  1  0.16796063  0.83051742  0.50010546  1
  Ni  Ni34  1  -0.00101595  0.66737987  0.66532763  1
  Ni  Ni35  1  0.16527869  0.83402466  0.82948365  1
  Ni  Ni36  1  0.49582759  0.16558842  0.49883033  1
  Ni  Ni37  1  0.33179259  0.99715993  0.66472385  1
  Ni  Ni38  1  0.49793384  0.16646572  0.83300304  1
  Ni  Ni39  1  0.49744619  0.50014202  0.49958965  1
  Ni  Ni40  1  0.33676201  0.33223742  0.66315803  1
  Ni  Ni41  1  0.50142099  0.49763782  0.83140659  1
  Ni  Ni42  1  0.49595529  0.83041392  0.49704780  1
  Ni  Ni43  1  0.33391788  0.66697263  0.66447652  1
  Ni  Ni44  1  0.49917065  0.83206617  0.83175256  1
  Ni  Ni45  1  0.83078790  0.16542184  0.49980111  1
  Cr  Cr46  1  0.66147309  0.99861548  0.66376050  1
  Cr  Cr47  1  0.83041484  0.16516536  0.83279455  1
  Ni  Ni48  1  0.83087510  0.50094215  0.50021063  1
  Ni  Ni49  1  0.66150500  0.33491462  0.66445115  1
  Ni  Ni50  1  0.82692443  0.50222729  0.83046417  1
  Cr  Cr51  1  0.83165144  0.82883978  0.49794557  1
  Ni  Ni52  1  0.66320199  0.66317084  0.66680879  1
  Ni  Ni53  1  0.83173683  0.83018060  0.83245452  1
" 