3095,Ni27Fe23Cr48_12,-219.217921336767, 169.905639797634,Ni27Fe23Cr48,"# generated using pymatgen
 data_Cr14Fe6Ni7
_symmetry_space_group_name_H-M   'P 1'
_cell_length_a   7.51591151
_cell_length_b   7.51591151
_cell_length_c   10.62910399
_cell_angle_alpha   90.00000000
_cell_angle_beta   90.00000000
_cell_angle_gamma   90.00000000
_symmetry_Int_Tables_number   1
_chemical_formula_structural   Cr14Fe6Ni7
_chemical_formula_sum   'Cr28 Fe12 Ni14'
_cell_volume   600.42666679
_cell_formula_units_Z   2
loop_
 _symmetry_equiv_pos_site_id
 _symmetry_equiv_pos_as_xyz
  1  'x, y, z'
loop_
 _atom_site_type_symbol
 _atom_site_label
 _atom_site_symmetry_multiplicity
 _atom_site_fract_x
 _atom_site_fract_y
 _atom_site_fract_z
 _atom_site_occupancy
  Cr  Cr0  1  -0.00199260  -0.00221119  -0.00207926  1
  Ni  Ni1  1  0.16480569  0.16533211  0.16383088  1
  Cr  Cr2  1  -0.00052131  -0.00138471  0.33200447  1
  Ni  Ni3  1  -0.00217769  0.33006822  -0.00219258  1
  Fe  Fe4  1  0.16341434  0.49668945  0.16421720  1
  Cr  Cr5  1  -0.00252225  0.32876224  0.32886963  1
  Ni  Ni6  1  0.99534455  0.66140437  0.99506112  1
  Cr  Cr7  1  0.16530444  0.82800562  0.16349180  1
  Ni  Ni8  1  0.00056272  0.66054316  0.33270269  1
  Ni  Ni9  1  0.33312144  0.00022275  -0.00036716  1
  Fe  Fe10  1  0.49590578  0.16080090  0.16345825  1
  Fe  Fe11  1  0.32931152  -0.00180671  0.32760028  1
  Cr  Cr12  1  0.33007913  0.32777663  -0.00085908  1
  Ni  Ni13  1  0.49324938  0.49833454  0.16719618  1
  Fe  Fe14  1  0.32744954  0.33106899  0.32917766  1
  Cr  Cr15  1  0.32986965  0.66340085  -0.00216862  1
  Ni  Ni16  1  0.49440329  0.82980937  0.16324394  1
  Ni  Ni17  1  0.32892693  0.66029681  0.32981032  1
  Ni  Ni18  1  0.66134902  -0.00158658  0.99672713  1
  Ni  Ni19  1  0.83201159  0.16389635  0.16070309  1
  Cr  Cr20  1  0.66393893  -0.00194625  0.32730269  1
  Cr  Cr21  1  0.66255650  0.32851679  -0.00058894  1
  Cr  Cr22  1  0.83278094  0.49607280  0.16039597  1
  Cr  Cr23  1  0.66225541  0.33006731  0.32694478  1
  Cr  Cr24  1  0.66361777  0.66375392  0.99517780  1
  Cr  Cr25  1  0.82941805  0.82953560  0.16426156  1
  Cr  Cr26  1  0.66411685  0.66066074  0.33349474  1
  Ni  Ni27  1  0.16402720  0.16782638  0.49879928  1
  Fe  Fe28  1  0.99474554  0.99644847  0.66260134  1
  Cr  Cr29  1  0.16284940  0.16579842  0.82781929  1
  Ni  Ni30  1  0.16288565  0.49452310  0.49436387  1
  Fe  Fe31  1  -0.00120857  0.33224457  0.66119006  1
  Cr  Cr32  1  0.16130143  0.49454295  0.83262335  1
  Cr  Cr33  1  0.16547813  0.83052068  0.49442416  1
  Cr  Cr34  1  -0.00306968  0.66455383  0.66355520  1
  Cr  Cr35  1  0.16260768  0.83069145  0.83428250  1
  Cr  Cr36  1  0.49480158  0.16362791  0.49717856  1
  Cr  Cr37  1  0.32742300  -0.00128301  0.66526826  1
  Fe  Fe38  1  0.49703126  0.16168570  0.83081593  1
  Fe  Fe39  1  0.49289219  0.49432430  0.49466046  1
  Fe  Fe40  1  0.32699701  0.33213131  0.66097673  1
  Cr  Cr41  1  0.49629084  0.49406129  0.82784993  1
  Cr  Cr42  1  0.49663953  0.82984569  0.49437228  1
  Cr  Cr43  1  0.32868891  0.66153979  0.66261736  1
  Cr  Cr44  1  0.49735741  0.83206412  0.83203131  1
  Cr  Cr45  1  0.83056966  0.16394968  0.49812314  1
  Fe  Fe46  1  0.66486760  0.99498624  0.66448287  1
  Cr  Cr47  1  0.82989404  0.16538748  0.83027159  1
  Ni  Ni48  1  0.83311752  0.49601271  0.49766493  1
  Cr  Cr49  1  0.66266911  0.33109171  0.66327816  1
  Fe  Fe50  1  0.83224931  0.49783345  0.83113785  1
  Fe  Fe51  1  0.83297754  0.82896783  0.49633855  1
  Cr  Cr52  1  0.66507961  0.66266216  0.66100760  1
  Ni  Ni53  1  0.82871985  0.83234008  0.82931125  1
" 