605,Ni27Cr73_5,-229.122001500499, 148.011265915589,Ni27Cr73,"# generated using pymatgen
 data_Cr7Ni20
_symmetry_space_group_name_H-M   'P 1'
_cell_length_a   7.48345177
_cell_length_b   7.48345177
_cell_length_c   10.58319899
_cell_angle_alpha   90.00000000
_cell_angle_beta   90.00000000
_cell_angle_gamma   90.00000000
_symmetry_Int_Tables_number   1
_chemical_formula_structural   Cr7Ni20
_chemical_formula_sum   'Cr14 Ni40'
_cell_volume   592.68084315
_cell_formula_units_Z   2
loop_
 _symmetry_equiv_pos_site_id
 _symmetry_equiv_pos_as_xyz
  1  'x, y, z'
loop_
 _atom_site_type_symbol
 _atom_site_label
 _atom_site_symmetry_multiplicity
 _atom_site_fract_x
 _atom_site_fract_y
 _atom_site_fract_z
 _atom_site_occupancy
  Ni  Ni0  1  0.00073086  0.99876700  0.99852919  1
  Cr  Cr1  1  0.16416779  0.16380042  0.16452091  1
  Ni  Ni2  1  0.99770507  -0.00063731  0.33103884  1
  Ni  Ni3  1  -0.00056714  0.33078413  0.00089809  1
  Ni  Ni4  1  0.16660836  0.49986686  0.16487408  1
  Ni  Ni5  1  0.99642455  0.33159458  0.33169134  1
  Cr  Cr6  1  0.99787052  0.66829086  0.00085570  1
  Ni  Ni7  1  0.16778925  0.83222130  0.16534916  1
  Cr  Cr8  1  0.99672252  0.66542517  0.33032675  1
  Ni  Ni9  1  0.33063110  0.99760911  0.99851048  1
  Ni  Ni10  1  0.50099105  0.16558215  0.16599115  1
  Ni  Ni11  1  0.33453014  0.99764539  0.33279258  1
  Ni  Ni12  1  0.33319781  0.33303401  -0.00052596  1
  Ni  Ni13  1  0.50010128  0.50029106  0.16386135  1
  Cr  Cr14  1  0.33310539  0.33107015  0.33235784  1
  Ni  Ni15  1  0.33464299  0.66607622  -0.00012593  1
  Ni  Ni16  1  0.49778748  0.83085927  0.16686535  1
  Ni  Ni17  1  0.33488852  0.66822594  0.32899094  1
  Cr  Cr18  1  0.66614468  0.99638389  0.00066520  1
  Ni  Ni19  1  0.83148796  0.16673289  0.16626463  1
  Ni  Ni20  1  0.66448928  0.99785684  0.33168166  1
  Ni  Ni21  1  0.66406252  0.33486730  0.00189525  1
  Ni  Ni22  1  0.83003786  0.49669968  0.16602668  1
  Ni  Ni23  1  0.66701123  0.33199822  0.33039114  1
  Ni  Ni24  1  0.66299648  0.66461390  -0.00061141  1
  Ni  Ni25  1  0.83117514  0.83333295  0.16652240  1
  Ni  Ni26  1  0.66525355  0.66684775  0.33151230  1
  Ni  Ni27  1  0.16494769  0.16335703  0.49958257  1
  Ni  Ni28  1  -0.00033943  0.99755485  0.66709594  1
  Ni  Ni29  1  0.16451875  0.16239235  0.83266074  1
  Cr  Cr30  1  0.16292268  0.49924976  0.49926050  1
  Ni  Ni31  1  0.99837680  0.33145584  0.66418616  1
  Cr  Cr32  1  0.16728663  0.49932037  0.83232429  1
  Cr  Cr33  1  0.16736355  0.83415687  0.49887617  1
  Ni  Ni34  1  0.99652358  0.66759408  0.66531566  1
  Ni  Ni35  1  0.16693748  0.83503092  0.83153263  1
  Ni  Ni36  1  0.49947399  0.16175240  0.49875624  1
  Ni  Ni37  1  0.33228305  0.99745012  0.66534014  1
  Cr  Cr38  1  0.49842098  0.16571469  0.83263450  1
  Cr  Cr39  1  0.50226331  0.50204313  0.49941158  1
  Cr  Cr40  1  0.33250307  0.32964494  0.66520216  1
  Ni  Ni41  1  0.49972080  0.50218869  0.83350896  1
  Ni  Ni42  1  0.50045152  0.83409545  0.49893798  1
  Ni  Ni43  1  0.33402196  0.66906462  0.66770475  1
  Ni  Ni44  1  0.49743898  0.82931209  0.83083846  1
  Cr  Cr45  1  0.83208160  0.16563109  0.49857408  1
  Ni  Ni46  1  0.66471963  0.99572868  0.66429097  1
  Cr  Cr47  1  0.83464588  0.16514319  0.83244976  1
  Ni  Ni48  1  0.83109173  0.49919030  0.50002685  1
  Ni  Ni49  1  0.66618653  0.33324704  0.66457117  1
  Cr  Cr50  1  0.82897918  0.49882119  0.83063262  1
  Ni  Ni51  1  0.82952077  0.83166753  0.50022695  1
  Ni  Ni52  1  0.66618051  0.66776168  0.66578786  1
  Ni  Ni53  1  0.83230698  0.83240581  0.82993508  1
" 