7339,Ni27Fe66Cr5_2,-233.618850951205, 195.616404326622,Ni27Fe66Cr5,"# generated using pymatgen
 data_Cr2Fe18Ni7
_symmetry_space_group_name_H-M   'P 1'
_cell_length_a   7.41797813
_cell_length_b   7.41797813
_cell_length_c   10.49060527
_cell_angle_alpha   90.00000000
_cell_angle_beta   90.00000000
_cell_angle_gamma   90.00000000
_symmetry_Int_Tables_number   1
_chemical_formula_structural   Cr2Fe18Ni7
_chemical_formula_sum   'Cr4 Fe36 Ni14'
_cell_volume   577.26023626
_cell_formula_units_Z   2
loop_
 _symmetry_equiv_pos_site_id
 _symmetry_equiv_pos_as_xyz
  1  'x, y, z'
loop_
 _atom_site_type_symbol
 _atom_site_label
 _atom_site_symmetry_multiplicity
 _atom_site_fract_x
 _atom_site_fract_y
 _atom_site_fract_z
 _atom_site_occupancy
  Fe  Fe0  1  1.00225071  1.00168620  0.00458017  1
  Fe  Fe1  1  0.17050432  0.17047777  0.17076833  1
  Ni  Ni2  1  1.00285112  1.00234125  0.33563652  1
  Fe  Fe3  1  1.00195480  0.33800394  0.00345285  1
  Fe  Fe4  1  0.17060357  0.50318641  0.16925688  1
  Fe  Fe5  1  1.00176942  0.33747355  0.33620454  1
  Ni  Ni6  1  0.00390412  0.67013328  1.00248627  1
  Fe  Fe7  1  0.16991332  0.83625750  0.16946613  1
  Fe  Fe8  1  1.00265711  0.66934946  0.33634071  1
  Fe  Fe9  1  0.33750747  1.00195152  0.00345921  1
  Fe  Fe10  1  0.50343287  0.17071776  0.16971819  1
  Fe  Fe11  1  0.33694963  1.00220396  0.33511275  1
  Fe  Fe12  1  0.33769413  0.33763089  0.00422956  1
  Ni  Ni13  1  0.50422253  0.50300203  0.17013343  1
  Ni  Ni14  1  0.33728110  0.33833158  0.33467773  1
  Fe  Fe15  1  0.33617281  0.67033687  1.00307324  1
  Fe  Fe16  1  0.50387814  0.83616664  0.16993515  1
  Fe  Fe17  1  0.33763668  0.66902674  0.33665535  1
  Ni  Ni18  1  0.66994185  0.00364427  1.00286830  1
  Fe  Fe19  1  0.83598339  0.17002951  0.17025295  1
  Fe  Fe20  1  0.67084812  1.00309127  0.33521172  1
  Fe  Fe21  1  0.67027310  0.33667046  0.00350643  1
  Fe  Fe22  1  0.83589589  0.50363131  0.17015112  1
  Ni  Ni23  1  0.66890490  0.33833531  0.33689421  1
  Fe  Fe24  1  0.67054262  0.67004256  0.00344569  1
  Fe  Fe25  1  0.83613258  0.83626243  0.16997000  1
  Ni  Ni26  1  0.66977937  0.66926053  0.33627622  1
  Cr  Cr27  1  0.16865835  0.16843546  0.50242612  1
  Fe  Fe28  1  1.00177544  1.00117714  0.66941866  1
  Cr  Cr29  1  0.17034401  0.16798703  0.83792885  1
  Fe  Fe30  1  0.16968423  0.50511332  0.50284565  1
  Fe  Fe31  1  0.99924923  0.33947089  0.67026533  1
  Ni  Ni32  1  0.16769582  0.50658997  0.83728301  1
  Fe  Fe33  1  0.16989422  0.83469768  0.50361816  1
  Fe  Fe34  1  1.00313411  0.66926920  0.67117304  1
  Ni  Ni35  1  0.16978018  0.83551706  0.83646412  1
  Cr  Cr36  1  0.50486309  0.16994393  0.50110393  1
  Fe  Fe37  1  0.33795468  0.99869583  0.67134413  1
  Ni  Ni38  1  0.50541944  0.16843377  0.83800360  1
  Ni  Ni39  1  0.50613349  0.50590658  0.50249501  1
  Cr  Cr40  1  0.33730869  0.33940214  0.67127320  1
  Fe  Fe41  1  0.50352871  0.50407680  0.83711651  1
  Fe  Fe42  1  0.50414480  0.83367130  0.50346769  1
  Fe  Fe43  1  0.33679714  0.67155927  0.67019129  1
  Fe  Fe44  1  0.50307420  0.83655856  0.83652098  1
  Fe  Fe45  1  0.83637189  0.17087012  0.50279726  1
  Fe  Fe46  1  0.67019556  1.00258631  0.67173811  1
  Fe  Fe47  1  0.83530712  0.17018915  0.83687147  1
  Ni  Ni48  1  0.83549557  0.50439120  0.50223717  1
  Fe  Fe49  1  0.67247894  0.33832170  0.67028034  1
  Ni  Ni50  1  0.83653212  0.50415557  0.83724342  1
  Fe  Fe51  1  0.83588250  0.83587517  0.50298526  1
  Ni  Ni52  1  0.67031610  0.67029208  0.67078228  1
  Fe  Fe53  1  0.83709809  0.83617118  0.83696515  1
" 