8155,Ni27Fe23Cr48_19,-219.42616154325, 173.049643619468,Ni27Fe23Cr48,"# generated using pymatgen
 data_Cr14Fe6Ni7
_symmetry_space_group_name_H-M   'P 1'
_cell_length_a   7.51094690
_cell_length_b   7.51094690
_cell_length_c   10.62208298
_cell_angle_alpha   90.00000000
_cell_angle_beta   90.00000000
_cell_angle_gamma   90.00000000
_symmetry_Int_Tables_number   1
_chemical_formula_structural   Cr14Fe6Ni7
_chemical_formula_sum   'Cr28 Fe12 Ni14'
_cell_volume   599.23762396
_cell_formula_units_Z   2
loop_
 _symmetry_equiv_pos_site_id
 _symmetry_equiv_pos_as_xyz
  1  'x, y, z'
loop_
 _atom_site_type_symbol
 _atom_site_label
 _atom_site_symmetry_multiplicity
 _atom_site_fract_x
 _atom_site_fract_y
 _atom_site_fract_z
 _atom_site_occupancy
  Cr  Cr0  1  -0.00006106  0.00039325  0.99582327  1
  Cr  Cr1  1  0.16332989  0.16027435  0.16342724  1
  Ni  Ni2  1  0.00014692  0.99691571  0.33009932  1
  Ni  Ni3  1  -0.00177278  0.33035455  -0.00119619  1
  Fe  Fe4  1  0.16453813  0.50205173  0.16449984  1
  Cr  Cr5  1  0.99605750  0.33212513  0.32730182  1
  Cr  Cr6  1  0.99643700  0.66169957  -0.00075021  1
  Ni  Ni7  1  0.16589278  0.82883518  0.16662143  1
  Ni  Ni8  1  -0.00176469  0.66391571  0.33039576  1
  Fe  Fe9  1  0.33024052  0.99351045  -0.00154035  1
  Cr  Cr10  1  0.49899851  0.16219150  0.16736369  1
  Ni  Ni11  1  0.33108950  0.99364836  0.33041726  1
  Cr  Cr12  1  0.32581786  0.32965857  0.99615876  1
  Cr  Cr13  1  0.49549691  0.49804877  0.16332434  1
  Cr  Cr14  1  0.33047194  0.32940476  0.33343427  1
  Ni  Ni15  1  0.33305830  0.66790363  -0.00177106  1
  Ni  Ni16  1  0.49284635  0.82965526  0.16252587  1
  Ni  Ni17  1  0.33041728  0.66876051  0.32906683  1
  Cr  Cr18  1  0.66060419  0.99234459  0.99700056  1
  Fe  Fe19  1  0.83013409  0.16283070  0.16554206  1
  Fe  Fe20  1  0.66086892  0.99569279  0.33099525  1
  Cr  Cr21  1  0.66757898  0.33295128  -0.00019689  1
  Fe  Fe22  1  0.83122537  0.49782596  0.16468673  1
  Ni  Ni23  1  0.66587968  0.32986971  0.33196349  1
  Ni  Ni24  1  0.65950943  0.66571242  0.99700684  1
  Cr  Cr25  1  0.83270026  0.83242095  0.16668738  1
  Cr  Cr26  1  0.66217755  0.66315537  0.32975885  1
  Fe  Fe27  1  0.16460350  0.16219005  0.49573543  1
  Cr  Cr28  1  -0.00149276  -0.00059573  0.66452783  1
  Ni  Ni29  1  0.16562859  0.16440934  0.83115346  1
  Cr  Cr30  1  0.16422539  0.50066689  0.49737109  1
  Cr  Cr31  1  -0.00057712  0.33032835  0.66424159  1
  Cr  Cr32  1  0.16618660  0.49816197  0.82965186  1
  Cr  Cr33  1  0.16353648  0.82985964  0.49325562  1
  Fe  Fe34  1  0.99680381  0.66381562  0.66166357  1
  Cr  Cr35  1  0.16494853  0.82918967  0.83136571  1
  Fe  Fe36  1  0.49776712  0.16061732  0.49600356  1
  Cr  Cr37  1  0.33132314  -0.00218299  0.66381546  1
  Cr  Cr38  1  0.49719980  0.16452314  0.82968629  1
  Cr  Cr39  1  0.49663295  0.49498014  0.49841213  1
  Fe  Fe40  1  0.33119917  0.32812455  0.66310009  1
  Cr  Cr41  1  0.49576553  0.49767348  0.83000444  1
  Ni  Ni42  1  0.49552781  0.83276628  0.49583052  1
  Fe  Fe43  1  0.33141757  0.66663082  0.66265843  1
  Fe  Fe44  1  0.49550231  0.82999499  0.83114684  1
  Cr  Cr45  1  0.82727800  0.16178177  0.49432626  1
  Ni  Ni46  1  0.65951515  0.99590112  0.66176214  1
  Cr  Cr47  1  0.82951888  0.16309683  0.83202336  1
  Ni  Ni48  1  0.83025492  0.49568698  0.49652547  1
  Fe  Fe49  1  0.66371634  0.32753241  0.66114195  1
  Cr  Cr50  1  0.82938300  0.49769121  0.83026797  1
  Cr  Cr51  1  0.83227773  0.83106622  0.49666151  1
  Cr  Cr52  1  0.66247612  0.66548417  0.66378574  1
  Cr  Cr53  1  0.82965496  0.83064792  0.82742839  1
" 