7792,Ni27Cr73_9,-229.103938051192, 146.687550764968,Ni27Cr73,"# generated using pymatgen
 data_Cr7Ni20
_symmetry_space_group_name_H-M   'P 1'
_cell_length_a   7.48503285
_cell_length_b   7.48503285
_cell_length_c   10.58543497
_cell_angle_alpha   90.00000000
_cell_angle_beta   90.00000000
_cell_angle_gamma   90.00000000
_symmetry_Int_Tables_number   1
_chemical_formula_structural   Cr7Ni20
_chemical_formula_sum   'Cr14 Ni40'
_cell_volume   593.05658064
_cell_formula_units_Z   2
loop_
 _symmetry_equiv_pos_site_id
 _symmetry_equiv_pos_as_xyz
  1  'x, y, z'
loop_
 _atom_site_type_symbol
 _atom_site_label
 _atom_site_symmetry_multiplicity
 _atom_site_fract_x
 _atom_site_fract_y
 _atom_site_fract_z
 _atom_site_occupancy
  Ni  Ni0  1  0.00197455  0.99804931  0.99852516  1
  Ni  Ni1  1  0.16418384  0.16458626  0.16432224  1
  Ni  Ni2  1  0.99799430  0.00147303  0.33103027  1
  Ni  Ni3  1  0.00108721  0.33218767  0.99696770  1
  Cr  Cr4  1  0.16767366  0.49673128  0.16365848  1
  Ni  Ni5  1  0.99839743  0.32980126  0.33323582  1
  Ni  Ni6  1  0.00005655  0.66595116  0.99776576  1
  Ni  Ni7  1  0.16573241  0.83289610  0.16306899  1
  Cr  Cr8  1  0.99838631  0.66546384  0.32970744  1
  Ni  Ni9  1  0.32888651  0.99821749  0.99731239  1
  Cr  Cr10  1  0.49684626  0.16772761  0.16401997  1
  Cr  Cr11  1  0.32965855  -0.00082127  0.33302320  1
  Ni  Ni12  1  0.32975307  0.33197708  0.99697084  1
  Ni  Ni13  1  0.49876166  0.50051382  0.16706233  1
  Ni  Ni14  1  0.33248602  0.33242754  0.33290762  1
  Ni  Ni15  1  0.33148375  0.66621336  0.99802935  1
  Ni  Ni16  1  0.49761369  0.83028585  0.16651980  1
  Ni  Ni17  1  0.33630530  0.66474977  0.33147287  1
  Cr  Cr18  1  0.66532832  0.99651843  0.99581496  1
  Cr  Cr19  1  0.83339745  0.16604318  0.16612137  1
  Ni  Ni20  1  0.66532705  0.99794845  0.33286158  1
  Cr  Cr21  1  0.66597774  0.33493003  0.99419103  1
  Ni  Ni22  1  0.83195487  0.49909017  0.16635661  1
  Ni  Ni23  1  0.66534502  0.33416797  0.33466143  1
  Cr  Cr24  1  0.66691940  0.66542498  -0.00082412  1
  Ni  Ni25  1  0.83316578  0.83202325  0.16612083  1
  Ni  Ni26  1  0.66385469  0.66431134  0.33080044  1
  Ni  Ni27  1  0.16332024  0.16576015  0.49848414  1
  Ni  Ni28  1  0.00072278  0.00130019  0.66724593  1
  Ni  Ni29  1  0.16451354  0.16482750  0.83356518  1
  Cr  Cr30  1  0.16542241  0.49877452  0.50017816  1
  Ni  Ni31  1  0.99714379  0.33115346  0.66610442  1
  Ni  Ni32  1  0.16495263  0.49972749  0.83277407  1
  Cr  Cr33  1  0.16618112  0.83178195  0.50313471  1
  Ni  Ni34  1  -0.00061027  0.66408372  0.66935769  1
  Ni  Ni35  1  0.16557670  0.83191822  0.83166101  1
  Ni  Ni36  1  0.50010289  0.16637634  0.49817496  1
  Ni  Ni37  1  0.33060974  0.99851399  0.66635880  1
  Ni  Ni38  1  0.49672534  0.16579159  0.83240995  1
  Ni  Ni39  1  0.50000571  0.49857844  0.49678093  1
  Cr  Cr40  1  0.33255961  0.33004739  0.66575597  1
  Ni  Ni41  1  0.49627547  0.49871997  0.83238084  1
  Ni  Ni42  1  0.49804484  0.83125661  0.49833147  1
  Ni  Ni43  1  0.33266116  0.66644916  0.66730480  1
  Ni  Ni44  1  0.49471534  0.83193374  0.83195370  1
  Ni  Ni45  1  0.83249947  0.16779387  0.49836160  1
  Cr  Cr46  1  0.66339459  0.00153059  0.66778829  1
  Ni  Ni47  1  0.83507212  0.16635688  0.83090609  1
  Ni  Ni48  1  0.83069008  0.49522130  0.49911492  1
  Ni  Ni49  1  0.66701265  0.33233769  0.66585258  1
  Ni  Ni50  1  0.83551693  0.49759298  0.83089489  1
  Cr  Cr51  1  0.83195235  0.83341517  0.49911407  1
  Cr  Cr52  1  0.66521590  0.66250880  0.66716314  1
  Ni  Ni53  1  0.83629517  0.83248302  0.83226701  1
" 