7329,Ni27Cr73_19,-229.174086622363, 148.956043569389,Ni27Cr73,"# generated using pymatgen
 data_Cr7Ni20
_symmetry_space_group_name_H-M   'P 1'
_cell_length_a   7.48486386
_cell_length_b   7.48486386
_cell_length_c   10.58519598
_cell_angle_alpha   90.00000000
_cell_angle_beta   90.00000000
_cell_angle_gamma   90.00000000
_symmetry_Int_Tables_number   1
_chemical_formula_structural   Cr7Ni20
_chemical_formula_sum   'Cr14 Ni40'
_cell_volume   593.01641428
_cell_formula_units_Z   2
loop_
 _symmetry_equiv_pos_site_id
 _symmetry_equiv_pos_as_xyz
  1  'x, y, z'
loop_
 _atom_site_type_symbol
 _atom_site_label
 _atom_site_symmetry_multiplicity
 _atom_site_fract_x
 _atom_site_fract_y
 _atom_site_fract_z
 _atom_site_occupancy
  Ni  Ni0  1  0.99862665  0.99695610  0.99848629  1
  Ni  Ni1  1  0.16576734  0.16449524  0.16695584  1
  Ni  Ni2  1  0.00012043  0.99864565  0.33372577  1
  Cr  Cr3  1  -0.00044679  0.33214594  0.99867723  1
  Ni  Ni4  1  0.16480537  0.49926951  0.16660531  1
  Cr  Cr5  1  -0.00070826  0.33368147  0.33494747  1
  Ni  Ni6  1  -0.00100307  0.66598454  0.99752566  1
  Ni  Ni7  1  0.16356306  0.83240516  0.16768295  1
  Ni  Ni8  1  0.00189263  0.66665381  0.33408833  1
  Cr  Cr9  1  0.33016923  -0.00058746  0.99585050  1
  Ni  Ni10  1  0.49606553  0.16504735  0.16792321  1
  Ni  Ni11  1  0.33071306  -0.00096619  0.33422938  1
  Ni  Ni12  1  0.33093782  0.33145013  -0.00005017  1
  Cr  Cr13  1  0.49739475  0.49878442  0.16629728  1
  Ni  Ni14  1  0.33100849  0.33153547  0.33313653  1
  Cr  Cr15  1  0.33001390  0.66672522  0.99686470  1
  Cr  Cr16  1  0.49833751  0.83261582  0.16885585  1
  Ni  Ni17  1  0.32840145  0.66567329  0.33523431  1
  Cr  Cr18  1  0.66506300  0.99837752  0.99585686  1
  Ni  Ni19  1  0.83363778  0.16373248  0.16725839  1
  Ni  Ni20  1  0.66520927  0.00046520  0.33565693  1
  Cr  Cr21  1  0.66606603  0.33136636  0.00057868  1
  Ni  Ni22  1  0.83574032  0.50026831  0.16473230  1
  Cr  Cr23  1  0.66632885  0.33038164  0.33374711  1
  Ni  Ni24  1  0.66893410  0.66522997  0.99602581  1
  Cr  Cr25  1  0.83455717  0.83191661  0.16708249  1
  Cr  Cr26  1  0.66648498  0.66440909  0.33691802  1
  Ni  Ni27  1  0.16708003  0.16548579  0.49921316  1
  Cr  Cr28  1  -0.00085688  0.99707417  0.66395527  1
  Cr  Cr29  1  0.16610465  0.16804132  0.82818260  1
  Ni  Ni30  1  0.16646854  0.49964231  0.50069870  1
  Ni  Ni31  1  0.99762574  0.33452237  0.66362605  1
  Ni  Ni32  1  0.16367187  0.50089952  0.82938125  1
  Ni  Ni33  1  0.16593981  0.83144534  0.49777214  1
  Ni  Ni34  1  -0.00074987  0.66362100  0.66501208  1
  Ni  Ni35  1  0.16387298  0.83054118  0.83030786  1
  Ni  Ni36  1  0.49752730  0.16512445  0.49999382  1
  Ni  Ni37  1  0.33480302  0.99744837  0.66439016  1
  Ni  Ni38  1  0.49942531  0.16511074  0.82827627  1
  Ni  Ni39  1  0.49680540  0.49877459  0.50082941  1
  Ni  Ni40  1  0.33184409  0.33253637  0.66275734  1
  Cr  Cr41  1  0.49776509  0.49743907  0.82956824  1
  Ni  Ni42  1  0.49802535  0.83286782  0.50006080  1
  Ni  Ni43  1  0.33100207  0.66663161  0.66392827  1
  Ni  Ni44  1  0.50014260  0.83200184  0.82751783  1
  Ni  Ni45  1  0.83176674  0.16436822  0.50043492  1
  Ni  Ni46  1  0.66426663  -0.00113216  0.66473811  1
  Ni  Ni47  1  0.83092362  0.16510225  0.82939464  1
  Ni  Ni48  1  0.83318499  0.50043911  0.50285106  1
  Ni  Ni49  1  0.66645280  0.33149907  0.66369804  1
  Ni  Ni50  1  0.83342059  0.50045507  0.82973237  1
  Ni  Ni51  1  0.83255590  0.83233079  0.49869099  1
  Ni  Ni52  1  0.66614153  0.66632185  0.66434766  1
  Ni  Ni53  1  0.83284130  0.83047709  0.83147974  1
" 