1018,Ni27Fe49Cr23_6,-228.520253291921, 183.891348869395,Ni27Fe49Cr23,"# generated using pymatgen
 data_Cr7Fe13Ni7
_symmetry_space_group_name_H-M   'P 1'
_cell_length_a   7.45910789
_cell_length_b   7.45910789
_cell_length_c   10.54877153
_cell_angle_alpha   90.00000000
_cell_angle_beta   90.00000000
_cell_angle_gamma   90.00000000
_symmetry_Int_Tables_number   1
_chemical_formula_structural   Cr7Fe13Ni7
_chemical_formula_sum   'Cr14 Fe26 Ni14'
_cell_volume   586.91561448
_cell_formula_units_Z   2
loop_
 _symmetry_equiv_pos_site_id
 _symmetry_equiv_pos_as_xyz
  1  'x, y, z'
loop_
 _atom_site_type_symbol
 _atom_site_label
 _atom_site_symmetry_multiplicity
 _atom_site_fract_x
 _atom_site_fract_y
 _atom_site_fract_z
 _atom_site_occupancy
  Cr  Cr0  1  0.00147726  1.00009558  0.00193607  1
  Fe  Fe1  1  0.16946967  0.16695818  0.16773188  1
  Fe  Fe2  1  0.00212509  0.99984995  0.33340957  1
  Fe  Fe3  1  0.99901877  0.33297923  0.00279725  1
  Cr  Cr4  1  0.16632274  0.50062987  0.16464870  1
  Fe  Fe5  1  1.00051358  0.33344838  0.33480581  1
  Ni  Ni6  1  0.99915964  0.66872064  0.00095834  1
  Ni  Ni7  1  0.16874772  0.83518948  0.16940441  1
  Fe  Fe8  1  0.00216726  0.66833629  0.33313388  1
  Ni  Ni9  1  0.33431755  0.00095883  0.00201179  1
  Fe  Fe10  1  0.49799482  0.16714077  0.16677609  1
  Ni  Ni11  1  0.33177112  0.00152293  0.33250819  1
  Fe  Fe12  1  0.33733684  0.33314436  0.00183795  1
  Ni  Ni13  1  0.50098867  0.50075871  0.16865836  1
  Fe  Fe14  1  0.33492266  0.33449299  0.33433708  1
  Cr  Cr15  1  0.33620143  0.67011752  0.99976109  1
  Ni  Ni16  1  0.49976568  0.83595599  0.16626706  1
  Ni  Ni17  1  0.33258279  0.66691560  0.33395454  1
  Ni  Ni18  1  0.66626812  1.00044920  0.99984187  1
  Fe  Fe19  1  0.83417828  0.16759671  0.16746485  1
  Cr  Cr20  1  0.66759347  0.00160902  0.33099387  1
  Cr  Cr21  1  0.66719362  0.33434086  0.00197773  1
  Ni  Ni22  1  0.83493777  0.49838968  0.16803231  1
  Fe  Fe23  1  0.66596815  0.33329176  0.33297866  1
  Ni  Ni24  1  0.66739703  0.66721502  0.00235333  1
  Fe  Fe25  1  0.83399211  0.83069861  0.16507128  1
  Cr  Cr26  1  0.66661954  0.66509710  0.33068326  1
  Fe  Fe27  1  0.16804692  0.16711758  0.49872055  1
  Fe  Fe28  1  0.99857437  0.99771220  0.66703337  1
  Cr  Cr29  1  0.16746450  0.16786511  0.83662441  1
  Ni  Ni30  1  0.16564575  0.49947866  0.49969490  1
  Cr  Cr31  1  0.99988344  0.33246434  0.66800709  1
  Cr  Cr32  1  0.16691800  0.50051628  0.83715656  1
  Fe  Fe33  1  0.16531172  0.83309140  0.49831459  1
  Fe  Fe34  1  0.00144842  0.66964634  0.66652254  1
  Ni  Ni35  1  0.16660351  0.83549390  0.83304163  1
  Fe  Fe36  1  0.49917624  0.16976514  0.49948401  1
  Cr  Cr37  1  0.33268659  0.00055742  0.66791381  1
  Fe  Fe38  1  0.50114975  0.16690613  0.83466371  1
  Fe  Fe39  1  0.49851551  0.49814345  0.49918728  1
  Fe  Fe40  1  0.33602018  0.33460328  0.66596329  1
  Ni  Ni41  1  0.50206363  0.49967589  0.83322456  1
  Cr  Cr42  1  0.50079684  0.83618526  0.49790388  1
  Cr  Cr43  1  0.33308607  0.66670694  0.66789576  1
  Ni  Ni44  1  0.50284362  0.83638443  0.83615290  1
  Fe  Fe45  1  0.83375512  0.16711015  0.50005495  1
  Fe  Fe46  1  0.66873999  0.00208275  0.66834495  1
  Fe  Fe47  1  0.83069254  0.16417783  0.83330411  1
  Fe  Fe48  1  0.83469865  0.50041737  0.49884066  1
  Fe  Fe49  1  0.66419906  0.33170162  0.66693438  1
  Cr  Cr50  1  0.83433844  0.50073694  0.83593337  1
  Fe  Fe51  1  0.83673865  0.83360247  0.50037705  1
  Cr  Cr52  1  0.66669828  0.66644416  0.66802635  1
  Fe  Fe53  1  0.83361253  0.83424939  0.83508379  1
" 