8548,Ni27Fe49Cr23_17,-228.134281513819, 187.456935031455,Ni27Fe49Cr23,"# generated using pymatgen
 data_Cr7Fe13Ni7
_symmetry_space_group_name_H-M   'P 1'
_cell_length_a   7.45907205
_cell_length_b   7.45907205
_cell_length_c   10.54872086
_cell_angle_alpha   90.00000000
_cell_angle_beta   90.00000000
_cell_angle_gamma   90.00000000
_symmetry_Int_Tables_number   1
_chemical_formula_structural   Cr7Fe13Ni7
_chemical_formula_sum   'Cr14 Fe26 Ni14'
_cell_volume   586.90715582
_cell_formula_units_Z   2
loop_
 _symmetry_equiv_pos_site_id
 _symmetry_equiv_pos_as_xyz
  1  'x, y, z'
loop_
 _atom_site_type_symbol
 _atom_site_label
 _atom_site_symmetry_multiplicity
 _atom_site_fract_x
 _atom_site_fract_y
 _atom_site_fract_z
 _atom_site_occupancy
  Ni  Ni0  1  0.99964695  0.00089852  0.00097251  1
  Cr  Cr1  1  0.16722684  0.16982820  0.16669571  1
  Fe  Fe2  1  0.99997080  0.99674120  0.33325562  1
  Ni  Ni3  1  0.99854324  0.33448522  0.99812588  1
  Fe  Fe4  1  0.16859007  0.50319982  0.16497372  1
  Cr  Cr5  1  0.00078237  0.33406865  0.33460676  1
  Fe  Fe6  1  0.99899517  0.66708202  0.00123606  1
  Fe  Fe7  1  0.16551892  0.83163318  0.16498185  1
  Cr  Cr8  1  0.00111464  0.66768628  0.33186438  1
  Cr  Cr9  1  0.33500980  0.00062377  1.00002484  1
  Fe  Fe10  1  0.50255474  0.16937015  0.16697778  1
  Cr  Cr11  1  0.33228901  0.99996147  0.33232030  1
  Fe  Fe12  1  0.33323068  0.33514151  0.99839621  1
  Fe  Fe13  1  0.50094430  0.49984042  0.16686720  1
  Fe  Fe14  1  0.33495872  0.33880875  0.33401402  1
  Ni  Ni15  1  0.33507676  0.66649082  0.00081871  1
  Cr  Cr16  1  0.50217103  0.83104781  0.16596010  1
  Ni  Ni17  1  0.33515184  0.66772974  0.33553399  1
  Fe  Fe18  1  0.66894117  1.00019923  0.99855450  1
  Cr  Cr19  1  0.83319933  0.16601996  0.16788847  1
  Fe  Fe20  1  0.66836656  0.99641004  0.33383424  1
  Ni  Ni21  1  0.66773896  0.33489382  0.00061376  1
  Fe  Fe22  1  0.83172649  0.50185029  0.16540107  1
  Fe  Fe23  1  0.66342310  0.33691338  0.33176150  1
  Fe  Fe24  1  0.66877918  0.66702996  0.99933357  1
  Ni  Ni25  1  0.83300464  0.83240341  0.16688767  1
  Ni  Ni26  1  0.66619477  0.66702324  0.33381549  1
  Fe  Fe27  1  0.16738710  0.16730537  0.50349995  1
  Fe  Fe28  1  0.00211363  0.00096876  0.66956673  1
  Ni  Ni29  1  0.16632622  0.17020771  0.83211282  1
  Fe  Fe30  1  0.17081224  0.49931192  0.50183621  1
  Ni  Ni31  1  0.00156415  0.33224821  0.66930820  1
  Fe  Fe32  1  0.16917333  0.50061153  0.83406843  1
  Fe  Fe33  1  0.16853141  0.83455857  0.50171717  1
  Cr  Cr34  1  1.00005179  0.66554847  0.66786192  1
  Cr  Cr35  1  0.16832480  0.83370344  0.83561276  1
  Cr  Cr36  1  0.50007810  0.16780711  0.49944212  1
  Ni  Ni37  1  0.33438614  1.00026110  0.66759379  1
  Fe  Fe38  1  0.49957654  0.16561218  0.83354594  1
  Fe  Fe39  1  0.49777042  0.50169262  0.50015031  1
  Ni  Ni40  1  0.33260964  0.33322938  0.66803671  1
  Fe  Fe41  1  0.49719852  0.50180810  0.83537764  1
  Fe  Fe42  1  0.50039625  0.83266738  0.50069872  1
  Ni  Ni43  1  0.33491126  0.66826242  0.66538552  1
  Ni  Ni44  1  0.50137845  0.83203800  0.83277030  1
  Cr  Cr45  1  0.83539758  0.16534921  0.50122930  1
  Fe  Fe46  1  0.66579584  1.00027405  0.66907008  1
  Fe  Fe47  1  0.83544188  0.16502236  0.83576940  1
  Cr  Cr48  1  0.83250554  0.50050316  0.49966991  1
  Cr  Cr49  1  0.66836695  0.33429012  0.67038464  1
  Fe  Fe50  1  0.83514467  0.50069914  0.83596103  1
  Fe  Fe51  1  0.83238346  0.83519180  0.49951909  1
  Cr  Cr52  1  0.66614450  0.66758153  0.66787602  1
  Ni  Ni53  1  0.83194905  0.83473505  0.83508896  1
" 