7218,Ni27Fe49Cr23_10,-228.329944086953, 195.168479765211,Ni27Fe49Cr23,"# generated using pymatgen
 data_Cr7Fe13Ni7
_symmetry_space_group_name_H-M   'P 1'
_cell_length_a   7.45259956
_cell_length_b   7.45259956
_cell_length_c   10.53956737
_cell_angle_alpha   90.00000000
_cell_angle_beta   90.00000000
_cell_angle_gamma   90.00000000
_symmetry_Int_Tables_number   1
_chemical_formula_structural   Cr7Fe13Ni7
_chemical_formula_sum   'Cr14 Fe26 Ni14'
_cell_volume   585.38064211
_cell_formula_units_Z   2
loop_
 _symmetry_equiv_pos_site_id
 _symmetry_equiv_pos_as_xyz
  1  'x, y, z'
loop_
 _atom_site_type_symbol
 _atom_site_label
 _atom_site_symmetry_multiplicity
 _atom_site_fract_x
 _atom_site_fract_y
 _atom_site_fract_z
 _atom_site_occupancy
  Fe  Fe0  1  0.00276050  1.00017030  0.99840782  1
  Cr  Cr1  1  0.16524111  0.16424040  0.16564865  1
  Fe  Fe2  1  0.99683600  0.99982887  0.33595808  1
  Fe  Fe3  1  0.00193546  0.33325949  0.99851996  1
  Fe  Fe4  1  0.16996915  0.49838659  0.16573910  1
  Cr  Cr5  1  0.00180652  0.33460290  0.33687577  1
  Fe  Fe6  1  0.00155644  0.67048729  1.00001969  1
  Fe  Fe7  1  0.16774561  0.83278336  0.16508151  1
  Cr  Cr8  1  0.00490543  0.66630853  0.33446434  1
  Ni  Ni9  1  0.33381690  0.00181752  0.99730196  1
  Cr  Cr10  1  0.49954482  0.16964186  0.16801697  1
  Cr  Cr11  1  0.33397561  0.99695458  0.33494819  1
  Ni  Ni12  1  0.33240468  0.33534001  0.99903640  1
  Ni  Ni13  1  0.50227029  0.50153263  0.16935914  1
  Fe  Fe14  1  0.33548805  0.33708311  0.33360637  1
  Cr  Cr15  1  0.33300767  0.66609517  0.00222996  1
  Fe  Fe16  1  0.50227794  0.83323376  0.16842881  1
  Fe  Fe17  1  0.33832158  0.66572281  0.33263094  1
  Cr  Cr18  1  0.66812551  0.99991801  0.99967279  1
  Fe  Fe19  1  0.83237163  0.16739168  0.16711918  1
  Ni  Ni20  1  0.66851695  0.99979357  0.33494814  1
  Fe  Fe21  1  0.66316845  0.33454483  0.99963338  1
  Cr  Cr22  1  0.83314132  0.50084517  0.16420569  1
  Ni  Ni23  1  0.67077253  0.33441685  0.33456947  1
  Fe  Fe24  1  0.66505413  0.66609054  0.00168428  1
  Fe  Fe25  1  0.83407963  0.83590182  0.16895654  1
  Ni  Ni26  1  0.66915977  0.66963642  0.33391859  1
  Fe  Fe27  1  0.16632038  0.16735604  0.50329229  1
  Fe  Fe28  1  0.00185576  0.00449120  0.66838940  1
  Fe  Fe29  1  0.16667330  0.17170546  0.83513116  1
  Fe  Fe30  1  0.16851579  0.50211940  0.50461960  1
  Ni  Ni31  1  0.00100787  0.33758620  0.66708710  1
  Ni  Ni32  1  0.16698695  0.50260579  0.83454040  1
  Fe  Fe33  1  0.16951671  0.83383061  0.50378921  1
  Fe  Fe34  1  0.00303290  0.66931261  0.66736012  1
  Ni  Ni35  1  0.16506971  0.83646979  0.83405585  1
  Cr  Cr36  1  0.49949006  0.16895336  0.50027008  1
  Cr  Cr37  1  0.33552552  0.00192908  0.67129063  1
  Fe  Fe38  1  0.50019892  0.17170854  0.83546229  1
  Cr  Cr39  1  0.50137689  0.50140843  0.50093359  1
  Ni  Ni40  1  0.32987166  0.33709965  0.67058505  1
  Ni  Ni41  1  0.49940872  0.49787127  0.83306840  1
  Ni  Ni42  1  0.50294223  0.83211850  0.49904455  1
  Fe  Fe43  1  0.33249646  0.66581496  0.66849373  1
  Cr  Cr44  1  0.50022931  0.82937255  0.83350559  1
  Fe  Fe45  1  0.83365655  0.16685191  0.50250721  1
  Cr  Cr46  1  0.66866826  0.99898340  0.66820746  1
  Ni  Ni47  1  0.83686152  0.16863340  0.83482358  1
  Fe  Fe48  1  0.83335992  0.50267470  0.50271730  1
  Fe  Fe49  1  0.66688506  0.33276851  0.66867005  1
  Cr  Cr50  1  0.83238674  0.50150404  0.83363209  1
  Ni  Ni51  1  0.83673416  0.83457914  0.50172525  1
  Fe  Fe52  1  0.66762515  0.66531997  0.66525942  1
  Fe  Fe53  1  0.83739359  0.83324723  0.83290069  1
" 