318,Ni27Fe49Cr23_12,-228.316821424644, 195.008740406361,Ni27Fe49Cr23,"# generated using pymatgen
 data_Cr7Fe13Ni7
_symmetry_space_group_name_H-M   'P 1'
_cell_length_a   7.45078527
_cell_length_b   7.45078527
_cell_length_c   10.53700158
_cell_angle_alpha   90.00000000
_cell_angle_beta   90.00000000
_cell_angle_gamma   90.00000000
_symmetry_Int_Tables_number   1
_chemical_formula_structural   Cr7Fe13Ni7
_chemical_formula_sum   'Cr14 Fe26 Ni14'
_cell_volume   584.95322601
_cell_formula_units_Z   2
loop_
 _symmetry_equiv_pos_site_id
 _symmetry_equiv_pos_as_xyz
  1  'x, y, z'
loop_
 _atom_site_type_symbol
 _atom_site_label
 _atom_site_symmetry_multiplicity
 _atom_site_fract_x
 _atom_site_fract_y
 _atom_site_fract_z
 _atom_site_occupancy
  Ni  Ni0  1  1.00084075  0.00118111  0.99946736  1
  Ni  Ni1  1  0.16886911  0.16747512  0.16889357  1
  Fe  Fe2  1  0.00535628  0.00251311  0.33694499  1
  Fe  Fe3  1  0.00352031  0.33204547  0.00200633  1
  Fe  Fe4  1  0.16492449  0.49962080  0.16559508  1
  Fe  Fe5  1  0.00229515  0.33396697  0.33514083  1
  Fe  Fe6  1  1.00081551  0.66763457  0.00112069  1
  Cr  Cr7  1  0.16927737  0.83847007  0.16704903  1
  Cr  Cr8  1  0.00147186  0.66681974  0.33540763  1
  Cr  Cr9  1  0.33490680  0.00332555  0.99932043  1
  Fe  Fe10  1  0.50009433  0.16697942  0.16853778  1
  Ni  Ni11  1  0.33546325  0.00216066  0.33661198  1
  Fe  Fe12  1  0.33152787  0.33341985  0.00148903  1
  Fe  Fe13  1  0.50180196  0.50201709  0.16616805  1
  Cr  Cr14  1  0.33390495  0.33491078  0.33302349  1
  Fe  Fe15  1  0.33548968  0.66765738  1.00065331  1
  Fe  Fe16  1  0.50110303  0.83454131  0.16659157  1
  Cr  Cr17  1  0.33361715  0.66745856  0.33528905  1
  Fe  Fe18  1  0.66851369  0.99988509  0.99883106  1
  Cr  Cr19  1  0.83721826  0.16787113  0.16904173  1
  Cr  Cr20  1  0.66718213  1.00093666  0.33475624  1
  Cr  Cr21  1  0.66595744  0.33239553  1.00003462  1
  Ni  Ni22  1  0.83234427  0.50074468  0.16791063  1
  Fe  Fe23  1  0.66645432  0.33612890  0.33470023  1
  Fe  Fe24  1  0.66684873  0.66974913  0.99993677  1
  Cr  Cr25  1  0.83381631  0.83382186  0.16717707  1
  Fe  Fe26  1  0.66538937  0.66621624  0.33495747  1
  Fe  Fe27  1  0.16847499  0.16799594  0.50244085  1
  Ni  Ni28  1  1.00099556  1.00083374  0.66734134  1
  Ni  Ni29  1  0.16683980  0.16562265  0.83213504  1
  Ni  Ni30  1  0.16704634  0.50122207  0.50370881  1
  Fe  Fe31  1  0.00316040  0.33306545  0.66704562  1
  Cr  Cr32  1  0.16759264  0.50024817  0.83460413  1
  Ni  Ni33  1  0.16895000  0.83645238  0.50343353  1
  Ni  Ni34  1  0.00191513  0.67013115  0.66821726  1
  Fe  Fe35  1  0.16772850  0.83502507  0.83241041  1
  Ni  Ni36  1  0.50074851  0.16751759  0.50257614  1
  Fe  Fe37  1  0.33313417  0.99957967  0.66769464  1
  Fe  Fe38  1  0.49822205  0.16854773  0.83217799  1
  Fe  Fe39  1  0.49849162  0.50023775  0.50391529  1
  Ni  Ni40  1  0.33408136  0.33308303  0.66744778  1
  Cr  Cr41  1  0.50061881  0.50298482  0.83030706  1
  Fe  Fe42  1  0.49953498  0.83421193  0.50326664  1
  Ni  Ni43  1  0.33317297  0.66703656  0.66675322  1
  Ni  Ni44  1  0.50092015  0.83460684  0.83411682  1
  Fe  Fe45  1  0.83656885  0.16691575  0.50124880  1
  Cr  Cr46  1  0.66913631  0.00173619  0.67124306  1
  Fe  Fe47  1  0.83737366  0.16641123  0.83499513  1
  Cr  Cr48  1  0.83301990  0.50028888  0.50263001  1
  Fe  Fe49  1  0.66710730  0.33374496  0.66656634  1
  Cr  Cr50  1  0.83498936  0.50153138  0.83240075  1
  Fe  Fe51  1  0.83601744  0.83557888  0.50269710  1
  Ni  Ni52  1  0.66776370  0.66986224  0.66619709  1
  Fe  Fe53  1  0.83632226  0.83451228  0.83470423  1
" 