3350,Ni27Fe23Cr48_1,-219.127016673929, 169.81147914401,Ni27Fe23Cr48,"# generated using pymatgen
 data_Cr14Fe6Ni7
_symmetry_space_group_name_H-M   'P 1'
_cell_length_a   7.50997961
_cell_length_b   7.50997961
_cell_length_c   10.62071501
_cell_angle_alpha   90.00000000
_cell_angle_beta   90.00000000
_cell_angle_gamma   90.00000000
_symmetry_Int_Tables_number   1
_chemical_formula_structural   Cr14Fe6Ni7
_chemical_formula_sum   'Cr28 Fe12 Ni14'
_cell_volume   599.00613579
_cell_formula_units_Z   2
loop_
 _symmetry_equiv_pos_site_id
 _symmetry_equiv_pos_as_xyz
  1  'x, y, z'
loop_
 _atom_site_type_symbol
 _atom_site_label
 _atom_site_symmetry_multiplicity
 _atom_site_fract_x
 _atom_site_fract_y
 _atom_site_fract_z
 _atom_site_occupancy
  Ni  Ni0  1  0.00077422  0.99583150  0.99624829  1
  Cr  Cr1  1  0.16429778  0.16085979  0.16372277  1
  Fe  Fe2  1  -0.00235376  0.99614943  0.33098044  1
  Cr  Cr3  1  -0.00185658  0.32994729  0.99508202  1
  Cr  Cr4  1  0.16619464  0.49975926  0.16310819  1
  Cr  Cr5  1  -0.00104082  0.32930281  0.33158999  1
  Fe  Fe6  1  0.00072947  0.66774180  0.99605465  1
  Ni  Ni7  1  0.16517272  0.83064869  0.16214955  1
  Cr  Cr8  1  -0.00235724  0.66532641  0.32973481  1
  Ni  Ni9  1  0.32711773  0.99535572  0.99637716  1
  Cr  Cr10  1  0.49570838  0.16361589  0.16228386  1
  Cr  Cr11  1  0.33014387  0.99659499  0.33208901  1
  Fe  Fe12  1  0.33092401  0.32985607  0.99410315  1
  Cr  Cr13  1  0.49481405  0.49788933  0.16357902  1
  Fe  Fe14  1  0.33131356  0.33092661  0.33290581  1
  Ni  Ni15  1  0.32793435  0.66525074  -0.00255395  1
  Fe  Fe16  1  0.49291078  0.83011080  0.16294535  1
  Fe  Fe17  1  0.33205371  0.66415288  0.33042440  1
  Cr  Cr18  1  0.66321573  -0.00226503  0.99670149  1
  Cr  Cr19  1  0.83138574  0.16247622  0.16417342  1
  Cr  Cr20  1  0.66273039  0.99538519  0.33108146  1
  Cr  Cr21  1  0.66277289  0.32994190  0.99644043  1
  Cr  Cr22  1  0.83051328  0.49711445  0.16358382  1
  Cr  Cr23  1  0.66217305  0.33093486  0.33037517  1
  Cr  Cr24  1  0.66288534  0.66379897  -0.00218112  1
  Cr  Cr25  1  0.83335600  0.83190283  0.16253965  1
  Cr  Cr26  1  0.66202625  0.66506544  0.33155445  1
  Ni  Ni27  1  0.16417436  0.16423982  0.49624890  1
  Cr  Cr28  1  0.99665954  -0.00197005  0.66408593  1
  Fe  Fe29  1  0.16449345  0.16264550  0.83175681  1
  Cr  Cr30  1  0.16600725  0.49549556  0.49636591  1
  Fe  Fe31  1  0.99656822  0.32864747  0.66476961  1
  Fe  Fe32  1  0.16627711  0.49751244  0.83187676  1
  Cr  Cr33  1  0.16419256  0.83204205  0.49526231  1
  Cr  Cr34  1  0.99583222  0.66377743  0.66591137  1
  Ni  Ni35  1  0.16275679  0.83079760  0.83463550  1
  Fe  Fe36  1  0.49672996  0.16350906  0.49842425  1
  Cr  Cr37  1  0.33191372  -0.00122759  0.66368005  1
  Ni  Ni38  1  0.49799106  0.16537440  0.83027762  1
  Ni  Ni39  1  0.49732581  0.49800880  0.49711033  1
  Cr  Cr40  1  0.33030823  0.32939592  0.66435491  1
  Ni  Ni41  1  0.49610580  0.49553144  0.83062332  1
  Ni  Ni42  1  0.49965859  0.82894411  0.49734644  1
  Cr  Cr43  1  0.33244225  0.66322215  0.66318991  1
  Cr  Cr44  1  0.49560889  0.83062075  0.83049958  1
  Cr  Cr45  1  0.83112552  0.16224784  0.49786016  1
  Ni  Ni46  1  0.66432728  0.99700037  0.66338225  1
  Ni  Ni47  1  0.83039585  0.16307195  0.82950003  1
  Cr  Cr48  1  0.82816385  0.49758561  0.49929578  1
  Fe  Fe49  1  0.66226326  0.32987603  0.66522710  1
  Cr  Cr50  1  0.82961870  0.49677125  0.82860958  1
  Ni  Ni51  1  0.82722857  0.83181737  0.49884211  1
  Ni  Ni52  1  0.66351295  0.66430930  0.66177078  1
  Fe  Fe53  1  0.83042884  0.83272875  0.82964960  1
" 