2946,Ni27Fe66Cr5_9,-232.957366800957, 192.849175624605,Ni27Fe66Cr5,"# generated using pymatgen
 data_Cr2Fe18Ni7
_symmetry_space_group_name_H-M   'P 1'
_cell_length_a   7.41648203
_cell_length_b   7.41648203
_cell_length_c   10.48848948
_cell_angle_alpha   90.00000000
_cell_angle_beta   90.00000000
_cell_angle_gamma   90.00000000
_symmetry_Int_Tables_number   1
_chemical_formula_structural   Cr2Fe18Ni7
_chemical_formula_sum   'Cr4 Fe36 Ni14'
_cell_volume   576.91103332
_cell_formula_units_Z   2
loop_
 _symmetry_equiv_pos_site_id
 _symmetry_equiv_pos_as_xyz
  1  'x, y, z'
loop_
 _atom_site_type_symbol
 _atom_site_label
 _atom_site_symmetry_multiplicity
 _atom_site_fract_x
 _atom_site_fract_y
 _atom_site_fract_z
 _atom_site_occupancy
  Fe  Fe0  1  0.00481254  1.00290648  1.00305323  1
  Ni  Ni1  1  0.17075088  0.17086775  0.16927429  1
  Fe  Fe2  1  0.00368680  1.00176609  0.33687922  1
  Fe  Fe3  1  0.00505486  0.33748425  1.00279156  1
  Ni  Ni4  1  0.16984669  0.50353042  0.17122497  1
  Fe  Fe5  1  0.00557450  0.33769300  0.33687972  1
  Fe  Fe6  1  1.00251964  0.66983431  0.00380454  1
  Ni  Ni7  1  0.16868929  0.83583062  0.16963745  1
  Fe  Fe8  1  0.00397900  0.67076388  0.33665201  1
  Ni  Ni9  1  0.33603791  0.00477291  0.00361957  1
  Ni  Ni10  1  0.50402128  0.17054813  0.16884365  1
  Cr  Cr11  1  0.33598473  0.00408078  0.33636820  1
  Fe  Fe12  1  0.33698277  0.33489752  0.00369711  1
  Fe  Fe13  1  0.50329018  0.50165030  0.17022718  1
  Fe  Fe14  1  0.33658736  0.33763384  0.33661346  1
  Cr  Cr15  1  0.33630436  0.67125812  0.00372323  1
  Fe  Fe16  1  0.50373241  0.83795010  0.16964660  1
  Fe  Fe17  1  0.33628433  0.66892729  0.33660870  1
  Fe  Fe18  1  0.66817748  1.00295598  1.00313702  1
  Cr  Cr19  1  0.83579636  0.16913317  0.17053329  1
  Ni  Ni20  1  0.66970912  1.00207809  0.33678995  1
  Ni  Ni21  1  0.67026807  0.33771047  1.00238287  1
  Fe  Fe22  1  0.83746536  0.50425152  0.16983781  1
  Fe  Fe23  1  0.66806348  0.33734358  0.33595315  1
  Fe  Fe24  1  0.67077452  0.67009162  1.00227463  1
  Fe  Fe25  1  0.83753076  0.83585232  0.17047001  1
  Fe  Fe26  1  0.66996435  0.67081070  0.33733597  1
  Ni  Ni27  1  0.16966858  0.17089661  0.50361092  1
  Fe  Fe28  1  0.00407243  1.00220346  0.67029378  1
  Fe  Fe29  1  0.17119297  0.17024471  0.83687164  1
  Ni  Ni30  1  0.17079974  0.50427068  0.50325344  1
  Fe  Fe31  1  0.00441323  0.33818678  0.67055290  1
  Ni  Ni32  1  0.16972102  0.50279858  0.83575024  1
  Ni  Ni33  1  0.16962041  0.83506085  0.50489465  1
  Fe  Fe34  1  0.00357652  0.66983412  0.66977252  1
  Fe  Fe35  1  0.17049627  0.83686669  0.83626143  1
  Fe  Fe36  1  0.50143913  0.17063054  0.50331285  1
  Fe  Fe37  1  0.33699629  1.00268410  0.67012618  1
  Fe  Fe38  1  0.50301552  0.17056378  0.83779994  1
  Fe  Fe39  1  0.50243788  0.50344384  0.50417445  1
  Fe  Fe40  1  0.33669035  0.33774401  0.66991181  1
  Ni  Ni41  1  0.50410182  0.50363420  0.83607037  1
  Fe  Fe42  1  0.50348490  0.83615448  0.50475645  1
  Fe  Fe43  1  0.33705278  0.66979944  0.67049106  1
  Ni  Ni44  1  0.50520598  0.83698013  0.83606740  1
  Cr  Cr45  1  0.83626771  0.16920165  0.50248628  1
  Fe  Fe46  1  0.66915866  1.00184533  0.67051194  1
  Fe  Fe47  1  0.83601976  0.17086419  0.83691131  1
  Fe  Fe48  1  0.83795887  0.50518348  0.50361728  1
  Fe  Fe49  1  0.66912314  0.33823648  0.67165016  1
  Fe  Fe50  1  0.83564811  0.50387131  0.83676968  1
  Fe  Fe51  1  0.83772046  0.83522202  0.50335736  1
  Ni  Ni52  1  0.67034733  0.66954976  0.67015096  1
  Fe  Fe53  1  0.83596711  0.83549151  0.83639960  1
" 