3666,Ni27Fe23Cr48_14,-219.523860399437, 174.101083566251,Ni27Fe23Cr48,"# generated using pymatgen
 data_Cr14Fe6Ni7
_symmetry_space_group_name_H-M   'P 1'
_cell_length_a   7.51308301
_cell_length_b   7.51308301
_cell_length_c   10.62510389
_cell_angle_alpha   90.00000000
_cell_angle_beta   90.00000000
_cell_angle_gamma   90.00000000
_symmetry_Int_Tables_number   1
_chemical_formula_structural   Cr14Fe6Ni7
_chemical_formula_sum   'Cr28 Fe12 Ni14'
_cell_volume   599.74903799
_cell_formula_units_Z   2
loop_
 _symmetry_equiv_pos_site_id
 _symmetry_equiv_pos_as_xyz
  1  'x, y, z'
loop_
 _atom_site_type_symbol
 _atom_site_label
 _atom_site_symmetry_multiplicity
 _atom_site_fract_x
 _atom_site_fract_y
 _atom_site_fract_z
 _atom_site_occupancy
  Ni  Ni0  1  0.99112098  -0.00300582  -0.00240345  1
  Cr  Cr1  1  0.16173665  0.16546807  0.16248572  1
  Cr  Cr2  1  0.99458602  0.99434532  0.32723996  1
  Fe  Fe3  1  -0.00197100  0.33231830  -0.00203113  1
  Ni  Ni4  1  0.16339346  0.49756881  0.16466352  1
  Cr  Cr5  1  -0.00120784  0.33475017  0.32855847  1
  Cr  Cr6  1  0.99657415  0.66309628  -0.00290428  1
  Cr  Cr7  1  0.16398623  0.82724946  0.16515399  1
  Ni  Ni8  1  -0.00244458  0.66222950  0.33086693  1
  Cr  Cr9  1  0.32956058  -0.00239487  0.99677718  1
  Cr  Cr10  1  0.49836661  0.16526757  0.16432768  1
  Fe  Fe11  1  0.33076226  -0.00234852  0.33116619  1
  Ni  Ni12  1  0.33057251  0.33489622  0.99582538  1
  Cr  Cr13  1  0.49587563  0.49786505  0.16080301  1
  Ni  Ni14  1  0.32932049  0.33155175  0.33077007  1
  Ni  Ni15  1  0.33086794  0.65789353  0.99640437  1
  Cr  Cr16  1  0.49643960  0.82756925  0.16355754  1
  Fe  Fe17  1  0.32722082  0.66088070  0.33016502  1
  Fe  Fe18  1  0.66633101  0.99578693  -0.00220426  1
  Ni  Ni19  1  0.83001808  0.16446340  0.15934876  1
  Cr  Cr20  1  0.66294857  0.99639907  0.32981552  1
  Fe  Fe21  1  0.66560303  0.33217815  -0.00263525  1
  Ni  Ni22  1  0.83168363  0.49591016  0.16392143  1
  Cr  Cr23  1  0.66321504  0.32911481  0.33134283  1
  Fe  Fe24  1  0.66480408  0.66259791  0.99594229  1
  Fe  Fe25  1  0.83136450  0.82923126  0.16230216  1
  Cr  Cr26  1  0.66772370  0.66534903  0.33138217  1
  Cr  Cr27  1  0.16437992  0.16304637  0.49827303  1
  Ni  Ni28  1  0.99524448  0.99443400  0.66455355  1
  Cr  Cr29  1  0.16125907  0.16327371  0.82993486  1
  Ni  Ni30  1  0.16501798  0.49831288  0.49347041  1
  Cr  Cr31  1  -0.00161851  0.33336261  0.66390324  1
  Ni  Ni32  1  0.16424395  0.49653131  0.83308342  1
  Cr  Cr33  1  0.16323025  0.82949310  0.49673708  1
  Cr  Cr34  1  0.99555381  0.66343726  0.66308923  1
  Cr  Cr35  1  0.16194784  0.83083192  0.82888427  1
  Fe  Fe36  1  0.49419865  0.16210988  0.49581441  1
  Fe  Fe37  1  0.32978889  0.99668735  0.66278250  1
  Cr  Cr38  1  0.49776767  0.16551258  0.83060686  1
  Cr  Cr39  1  0.49670204  0.49739719  0.49542339  1
  Cr  Cr40  1  0.32977914  0.33086762  0.66501574  1
  Fe  Fe41  1  0.49726602  0.49723842  0.83367136  1
  Fe  Fe42  1  0.49613876  0.83123546  0.49633770  1
  Cr  Cr43  1  0.32944491  0.66183435  0.66601968  1
  Cr  Cr44  1  0.49765111  0.82738967  0.83151701  1
  Cr  Cr45  1  0.83074610  0.16377349  0.49889910  1
  Cr  Cr46  1  0.66363283  0.99494620  0.66152574  1
  Cr  Cr47  1  0.83194358  0.16346295  0.83214664  1
  Fe  Fe48  1  0.83391977  0.50002163  0.49581937  1
  Cr  Cr49  1  0.66275392  0.33171886  0.66235962  1
  Ni  Ni50  1  0.82920102  0.49789964  0.83097907  1
  Ni  Ni51  1  0.83032466  0.82961719  0.49677082  1
  Cr  Cr52  1  0.66593295  0.66421810  0.66432050  1
  Ni  Ni53  1  0.82965820  0.82967592  0.83198073  1
" 