5735,Ni27Fe66Cr5_7,-232.832531795163, 192.070229446383,Ni27Fe66Cr5,"# generated using pymatgen
 data_Cr2Fe18Ni7
_symmetry_space_group_name_H-M   'P 1'
_cell_length_a   7.41088905
_cell_length_b   7.41088905
_cell_length_c   10.48057980
_cell_angle_alpha   90.00000000
_cell_angle_beta   90.00000000
_cell_angle_gamma   90.00000000
_symmetry_Int_Tables_number   1
_chemical_formula_structural   Cr2Fe18Ni7
_chemical_formula_sum   'Cr4 Fe36 Ni14'
_cell_volume   575.60682096
_cell_formula_units_Z   2
loop_
 _symmetry_equiv_pos_site_id
 _symmetry_equiv_pos_as_xyz
  1  'x, y, z'
loop_
 _atom_site_type_symbol
 _atom_site_label
 _atom_site_symmetry_multiplicity
 _atom_site_fract_x
 _atom_site_fract_y
 _atom_site_fract_z
 _atom_site_occupancy
  Ni  Ni0  1  1.00279544  0.00418226  0.00441816  1
  Fe  Fe1  1  0.17090138  0.17029475  0.16958395  1
  Cr  Cr2  1  1.00371441  1.00288458  0.33596444  1
  Fe  Fe3  1  1.00175519  0.33537003  0.00457653  1
  Fe  Fe4  1  0.17074249  0.50399374  0.17184140  1
  Ni  Ni5  1  0.00413210  0.33919203  0.33670724  1
  Cr  Cr6  1  0.00390042  0.67193804  1.00273032  1
  Fe  Fe7  1  0.17153036  0.83708049  0.17049956  1
  Ni  Ni8  1  0.00411482  0.66888683  0.33813699  1
  Fe  Fe9  1  0.33780245  1.00209622  0.00546081  1
  Fe  Fe10  1  0.50459183  0.16946564  0.16995692  1
  Fe  Fe11  1  0.33792745  1.00363568  0.33697031  1
  Fe  Fe12  1  0.33751878  0.33813610  0.00514810  1
  Fe  Fe13  1  0.50434064  0.50440720  0.17024736  1
  Fe  Fe14  1  0.33612655  0.33760385  0.33747116  1
  Fe  Fe15  1  0.33974898  0.67113487  1.00351919  1
  Ni  Ni16  1  0.50431200  0.83722672  0.17105921  1
  Fe  Fe17  1  0.33638154  0.67012798  0.33709553  1
  Ni  Ni18  1  0.67126687  0.00431834  0.00381111  1
  Fe  Fe19  1  0.83587371  0.17025643  0.16872784  1
  Fe  Fe20  1  0.66980474  1.00335687  0.33616613  1
  Ni  Ni21  1  0.66965564  0.33713935  0.00382217  1
  Fe  Fe22  1  0.83628299  0.50378068  0.17119245  1
  Fe  Fe23  1  0.67132734  0.33760448  0.33701321  1
  Fe  Fe24  1  0.66903087  0.67113556  1.00308446  1
  Ni  Ni25  1  0.83541997  0.83728577  0.17056333  1
  Fe  Fe26  1  0.67135340  0.67040752  0.33746865  1
  Fe  Fe27  1  0.17137934  0.17166524  0.50476011  1
  Ni  Ni28  1  1.00346761  1.00322859  0.67040730  1
  Cr  Cr29  1  0.16761253  0.16997725  0.83788947  1
  Fe  Fe30  1  0.17049536  0.50369804  0.50309436  1
  Fe  Fe31  1  1.00220004  0.33774606  0.66963767  1
  Fe  Fe32  1  0.17147251  0.50434790  0.83642762  1
  Fe  Fe33  1  0.17122482  0.83600266  0.50463217  1
  Fe  Fe34  1  1.00321489  0.67076722  0.67028056  1
  Fe  Fe35  1  0.17094950  0.83653833  0.83623118  1
  Fe  Fe36  1  0.50363673  0.17093391  0.50378840  1
  Fe  Fe37  1  0.33720690  1.00153386  0.66893885  1
  Cr  Cr38  1  0.50549079  0.16984584  0.83704228  1
  Ni  Ni39  1  0.50366455  0.50386457  0.50351780  1
  Fe  Fe40  1  0.33750164  0.33907805  0.66875274  1
  Ni  Ni41  1  0.50455882  0.50675784  0.83780867  1
  Fe  Fe42  1  0.50395120  0.83657625  0.50400785  1
  Fe  Fe43  1  0.33779910  0.67075172  0.67075576  1
  Ni  Ni44  1  0.50378075  0.83448117  0.83710099  1
  Fe  Fe45  1  0.83635238  0.17166427  0.50505208  1
  Fe  Fe46  1  0.67168309  1.00254928  0.67040019  1
  Ni  Ni47  1  0.83874499  0.17086525  0.83764285  1
  Fe  Fe48  1  0.83692011  0.50401326  0.50387474  1
  Fe  Fe49  1  0.67166395  0.33834152  0.67055767  1
  Ni  Ni50  1  0.83619031  0.50286462  0.83617645  1
  Fe  Fe51  1  0.83619070  0.83568804  0.50423798  1
  Ni  Ni52  1  0.66930677  0.66963691  0.67166082  1
  Fe  Fe53  1  0.83559006  0.83824212  0.83668867  1
" 