8606,Ni27Fe46Cr26_9,-227.16567976496, 187.377445015856,Ni27Fe46Cr26,"# generated using pymatgen
 data_Cr8Fe12Ni7
_symmetry_space_group_name_H-M   'P 1'
_cell_length_a   7.46005813
_cell_length_b   7.46005813
_cell_length_c   10.55011538
_cell_angle_alpha   90.00000000
_cell_angle_beta   90.00000000
_cell_angle_gamma   90.00000000
_symmetry_Int_Tables_number   1
_chemical_formula_structural   Cr8Fe12Ni7
_chemical_formula_sum   'Cr16 Fe24 Ni14'
_cell_volume   587.13995044
_cell_formula_units_Z   2
loop_
 _symmetry_equiv_pos_site_id
 _symmetry_equiv_pos_as_xyz
  1  'x, y, z'
loop_
 _atom_site_type_symbol
 _atom_site_label
 _atom_site_symmetry_multiplicity
 _atom_site_fract_x
 _atom_site_fract_y
 _atom_site_fract_z
 _atom_site_occupancy
  Ni  Ni0  1  0.99807138  0.99840667  0.00100550  1
  Cr  Cr1  1  0.16632801  0.16532753  0.16813771  1
  Fe  Fe2  1  1.00043079  0.99839483  0.33262704  1
  Ni  Ni3  1  0.99981918  0.33484938  0.00176766  1
  Fe  Fe4  1  0.16749542  0.50304946  0.16617573  1
  Fe  Fe5  1  0.00053281  0.33348319  0.33300233  1
  Fe  Fe6  1  0.00095381  0.66947194  0.00122613  1
  Fe  Fe7  1  0.16592905  0.83182946  0.16610368  1
  Cr  Cr8  1  0.00171590  0.66846852  0.33415870  1
  Cr  Cr9  1  0.33671004  0.99816483  0.00166658  1
  Fe  Fe10  1  0.50468467  0.16608215  0.16757491  1
  Fe  Fe11  1  0.33469280  0.99611192  0.33382676  1
  Cr  Cr12  1  0.33467790  0.33532818  0.99872171  1
  Fe  Fe13  1  0.50021246  0.50280160  0.16650466  1
  Cr  Cr14  1  0.33429418  0.33579337  0.33500303  1
  Fe  Fe15  1  0.33330418  0.66872576  0.00138659  1
  Fe  Fe16  1  0.50251419  0.83309799  0.16815381  1
  Ni  Ni17  1  0.33427218  0.66798025  0.33323490  1
  Ni  Ni18  1  0.66885004  0.99967161  0.99869544  1
  Fe  Fe19  1  0.83220764  0.16405928  0.16562419  1
  Ni  Ni20  1  0.66733957  0.99953079  0.33202413  1
  Ni  Ni21  1  0.66788351  0.33153744  0.00190906  1
  Cr  Cr22  1  0.83196991  0.50051278  0.16679042  1
  Fe  Fe23  1  0.66594548  0.33365870  0.33189084  1
  Fe  Fe24  1  0.66671458  0.67001625  1.00044464  1
  Ni  Ni25  1  0.83205745  0.83426423  0.16576872  1
  Fe  Fe26  1  0.66357112  0.66968378  0.33324365  1
  Fe  Fe27  1  0.16655211  0.16435133  0.49969923  1
  Ni  Ni28  1  1.00000718  0.99853016  0.66741901  1
  Cr  Cr29  1  0.16530611  0.16537925  0.83335875  1
  Fe  Fe30  1  0.16993304  0.50273349  0.50107693  1
  Cr  Cr31  1  0.00191012  0.33464884  0.66614183  1
  Fe  Fe32  1  0.16660835  0.50412464  0.83428688  1
  Fe  Fe33  1  0.16836346  0.83415358  0.50096780  1
  Fe  Fe34  1  0.00130780  0.67019719  0.66821460  1
  Ni  Ni35  1  0.16701908  0.83279372  0.83458563  1
  Cr  Cr36  1  0.50003332  0.16387827  0.50143749  1
  Cr  Cr37  1  0.33516825  0.99902017  0.66735521  1
  Fe  Fe38  1  0.50357891  0.16422871  0.83471939  1
  Fe  Fe39  1  0.49936382  0.50425767  0.50102608  1
  Fe  Fe40  1  0.33362397  0.33544114  0.66637017  1
  Cr  Cr41  1  0.50118462  0.50315620  0.83284271  1
  Ni  Ni42  1  0.49872620  0.83207057  0.49875433  1
  Fe  Fe43  1  0.33367878  0.66862595  0.66615304  1
  Ni  Ni44  1  0.50069916  0.83246278  0.83405643  1
  Cr  Cr45  1  0.83493324  0.16522178  0.49741850  1
  Ni  Ni46  1  0.66777005  0.99720831  0.67075347  1
  Ni  Ni47  1  0.83484481  0.16597435  0.83668746  1
  Cr  Cr48  1  0.83165160  0.50217606  0.49919018  1
  Cr  Cr49  1  0.66656362  0.33174914  0.66785123  1
  Cr  Cr50  1  0.83368254  0.50218904  0.83531632  1
  Cr  Cr51  1  0.83089967  0.83448061  0.50312666  1
  Ni  Ni52  1  0.66503619  0.67040150  0.66605289  1
  Fe  Fe53  1  0.83367261  0.83554051  0.83376608  1
" 