4924,Ni27Fe49Cr23_18,-228.345610473663, 183.696226066506,Ni27Fe49Cr23,"# generated using pymatgen
 data_Cr7Fe13Ni7
_symmetry_space_group_name_H-M   'P 1'
_cell_length_a   7.45987404
_cell_length_b   7.45987404
_cell_length_c   10.54985505
_cell_angle_alpha   90.00000000
_cell_angle_beta   90.00000000
_cell_angle_gamma   90.00000000
_symmetry_Int_Tables_number   1
_chemical_formula_structural   Cr7Fe13Ni7
_chemical_formula_sum   'Cr14 Fe26 Ni14'
_cell_volume   587.09648709
_cell_formula_units_Z   2
loop_
 _symmetry_equiv_pos_site_id
 _symmetry_equiv_pos_as_xyz
  1  'x, y, z'
loop_
 _atom_site_type_symbol
 _atom_site_label
 _atom_site_symmetry_multiplicity
 _atom_site_fract_x
 _atom_site_fract_y
 _atom_site_fract_z
 _atom_site_occupancy
  Fe  Fe0  1  0.00201074  0.00147343  0.00117080  1
  Ni  Ni1  1  0.16777277  0.16597230  0.16592422  1
  Ni  Ni2  1  0.00120165  0.99620811  0.33254344  1
  Ni  Ni3  1  0.00080177  0.33563270  0.00255850  1
  Fe  Fe4  1  0.16646315  0.50059122  0.16407236  1
  Cr  Cr5  1  1.00021106  0.33348745  0.33138309  1
  Fe  Fe6  1  0.99986838  0.66475778  0.99950601  1
  Fe  Fe7  1  0.16503313  0.83265338  0.16600406  1
  Fe  Fe8  1  0.99711760  0.66680215  0.33279996  1
  Fe  Fe9  1  0.33420489  0.00230020  0.00063016  1
  Fe  Fe10  1  0.50047180  0.16766164  0.16355837  1
  Cr  Cr11  1  0.33456198  0.00048829  0.33282375  1
  Ni  Ni12  1  0.33392080  0.33312533  0.00154535  1
  Fe  Fe13  1  0.50023534  0.50130550  0.16423125  1
  Cr  Cr14  1  0.33483146  0.33265712  0.33268739  1
  Fe  Fe15  1  0.33413560  0.66514067  0.99891013  1
  Fe  Fe16  1  0.50187215  0.83323621  0.16416753  1
  Fe  Fe17  1  0.33505209  0.66707565  0.33115880  1
  Fe  Fe18  1  0.66518469  0.00112595  0.99893585  1
  Cr  Cr19  1  0.83368445  0.16634465  0.16489847  1
  Fe  Fe20  1  0.66817503  0.99933976  0.33372042  1
  Ni  Ni21  1  0.66628788  0.33561756  0.00111872  1
  Ni  Ni22  1  0.83261104  0.50304253  0.16489601  1
  Cr  Cr23  1  0.66712769  0.33694879  0.33204610  1
  Fe  Fe24  1  0.66773551  0.66560314  0.99958094  1
  Fe  Fe25  1  0.83457962  0.83301330  0.16714938  1
  Fe  Fe26  1  0.66870606  0.66932309  0.33321778  1
  Fe  Fe27  1  0.16425899  0.16629794  0.50147735  1
  Ni  Ni28  1  0.99918962  0.99982901  0.66735630  1
  Cr  Cr29  1  0.16442725  0.17040109  0.83193689  1
  Cr  Cr30  1  0.16861727  0.49995491  0.50057128  1
  Ni  Ni31  1  0.99903861  0.33538972  0.66688778  1
  Ni  Ni32  1  0.16829465  0.50025355  0.83602929  1
  Cr  Cr33  1  0.16650166  0.83251477  0.50020213  1
  Cr  Cr34  1  0.99876085  0.66735418  0.67131974  1
  Fe  Fe35  1  0.16693675  0.83435148  0.83703978  1
  Fe  Fe36  1  0.50213486  0.16818951  0.50247786  1
  Cr  Cr37  1  0.33459781  0.00057169  0.66798455  1
  Fe  Fe38  1  0.50018637  0.16847805  0.83519215  1
  Fe  Fe39  1  0.50353917  0.50163980  0.50064893  1
  Fe  Fe40  1  0.33502979  0.33400614  0.66815707  1
  Fe  Fe41  1  0.50035729  0.49744380  0.83669438  1
  Fe  Fe42  1  0.50421983  0.83299616  0.49999273  1
  Cr  Cr43  1  0.33582221  0.66747637  0.67063704  1
  Ni  Ni44  1  0.50169454  0.83324898  0.83630475  1
  Cr  Cr45  1  0.83347008  0.16558935  0.50256269  1
  Ni  Ni46  1  0.66620106  1.00000000  0.66768211  1
  Cr  Cr47  1  0.83196803  0.16813931  0.83347287  1
  Ni  Ni48  1  0.83239139  0.50140652  0.50127739  1
  Ni  Ni49  1  0.66609934  0.33434765  0.66827424  1
  Fe  Fe50  1  0.83430989  0.49859302  0.83653864  1
  Ni  Ni51  1  0.83164129  0.83448250  0.49924611  1
  Cr  Cr52  1  0.66854999  0.66636533  0.66928308  1
  Fe  Fe53  1  0.83386681  0.83571501  0.83547777  1
" 