8624,Ni27Fe23Cr48_3,-219.343319995567, 171.275903242456,Ni27Fe23Cr48,"# generated using pymatgen
 data_Cr14Fe6Ni7
_symmetry_space_group_name_H-M   'P 1'
_cell_length_a   7.51006969
_cell_length_b   7.51006969
_cell_length_c   10.62084241
_cell_angle_alpha   90.00000000
_cell_angle_beta   90.00000000
_cell_angle_gamma   90.00000000
_symmetry_Int_Tables_number   1
_chemical_formula_structural   Cr14Fe6Ni7
_chemical_formula_sum   'Cr28 Fe12 Ni14'
_cell_volume   599.02769092
_cell_formula_units_Z   2
loop_
 _symmetry_equiv_pos_site_id
 _symmetry_equiv_pos_as_xyz
  1  'x, y, z'
loop_
 _atom_site_type_symbol
 _atom_site_label
 _atom_site_symmetry_multiplicity
 _atom_site_fract_x
 _atom_site_fract_y
 _atom_site_fract_z
 _atom_site_occupancy
  Cr  Cr0  1  0.99707720  0.99514042  0.99594471  1
  Cr  Cr1  1  0.16473359  0.16293724  0.16399989  1
  Ni  Ni2  1  -0.00186813  -0.00266639  0.33164940  1
  Ni  Ni3  1  -0.00270566  0.33374083  0.99699445  1
  Cr  Cr4  1  0.16212895  0.49824160  0.16340557  1
  Cr  Cr5  1  0.99581992  0.33038927  0.33175443  1
  Ni  Ni6  1  -0.00021412  0.66164300  0.99640865  1
  Cr  Cr7  1  0.16467463  0.83024797  0.16402030  1
  Cr  Cr8  1  0.99611434  0.66333855  0.33031891  1
  Fe  Fe9  1  0.33067723  0.99592571  0.99709539  1
  Ni  Ni10  1  0.49732209  0.16229875  0.16330708  1
  Ni  Ni11  1  0.33074178  0.99671761  0.33042964  1
  Cr  Cr12  1  0.33092283  0.33279317  0.99635103  1
  Fe  Fe13  1  0.49699983  0.49970448  0.16335043  1
  Cr  Cr14  1  0.33156747  0.33081085  0.32957231  1
  Ni  Ni15  1  0.32984934  0.66350962  0.99530050  1
  Cr  Cr16  1  0.49589376  0.83095171  0.16469186  1
  Fe  Fe17  1  0.33207444  0.66464366  0.32998408  1
  Ni  Ni18  1  0.66158138  -0.00281373  -0.00107409  1
  Fe  Fe19  1  0.83174963  0.16338707  0.16322378  1
  Cr  Cr20  1  0.66512349  -0.00177615  0.33091695  1
  Cr  Cr21  1  0.66258104  0.33016127  0.00131523  1
  Ni  Ni22  1  0.82953558  0.49765312  0.16258425  1
  Cr  Cr23  1  0.66396636  0.33149192  0.32707692  1
  Fe  Fe24  1  0.66361137  0.66244188  -0.00250261  1
  Cr  Cr25  1  0.83095481  0.82814000  0.16143775  1
  Fe  Fe26  1  0.66345400  0.66336192  0.33043804  1
  Ni  Ni27  1  0.16186581  0.16417095  0.49700582  1
  Cr  Cr28  1  -0.00132505  -0.00285493  0.66384132  1
  Fe  Fe29  1  0.16156171  0.16548134  0.83107624  1
  Fe  Fe30  1  0.16279898  0.49511511  0.49816139  1
  Ni  Ni31  1  -0.00045881  0.33207309  0.66169351  1
  Ni  Ni32  1  0.16360996  0.49795235  0.83053708  1
  Cr  Cr33  1  0.16654437  0.83043176  0.49360446  1
  Cr  Cr34  1  -0.00097659  0.66350259  0.66474663  1
  Ni  Ni35  1  0.16628272  0.82654428  0.83354215  1
  Cr  Cr36  1  0.49513091  0.16354252  0.49693649  1
  Cr  Cr37  1  0.32808629  0.99561387  0.66523624  1
  Cr  Cr38  1  0.49699761  0.16380391  0.83183873  1
  Cr  Cr39  1  0.49635832  0.50066973  0.49776171  1
  Cr  Cr40  1  0.32755956  0.33213785  0.66621279  1
  Fe  Fe41  1  0.49631666  0.50022264  0.83017986  1
  Fe  Fe42  1  0.49599938  0.83028018  0.49640070  1
  Fe  Fe43  1  0.32965329  0.66334374  0.66574871  1
  Cr  Cr44  1  0.49765878  0.82962003  0.83001160  1
  Ni  Ni45  1  0.83409380  0.16559105  0.49644404  1
  Cr  Cr46  1  0.66438382  0.99579563  0.66210214  1
  Cr  Cr47  1  0.83085938  0.16600003  0.83058609  1
  Fe  Fe48  1  0.83139060  0.49561194  0.49798222  1
  Cr  Cr49  1  0.66450806  0.33135060  0.66269934  1
  Cr  Cr50  1  0.83160116  0.49668273  0.83016953  1
  Cr  Cr51  1  0.82905812  0.82907744  0.49747381  1
  Ni  Ni52  1  0.66169429  0.66293049  0.66278549  1
  Cr  Cr53  1  0.82970793  0.82822192  0.83255520  1
" 