6152,Ni27Fe46Cr26_0,-227.122021786602, 183.5007500411,Ni27Fe46Cr26,"# generated using pymatgen
 data_Cr8Fe12Ni7
_symmetry_space_group_name_H-M   'P 1'
_cell_length_a   7.46519970
_cell_length_b   7.46519970
_cell_length_c   10.55738667
_cell_angle_alpha   90.00000000
_cell_angle_beta   90.00000000
_cell_angle_gamma   90.00000000
_symmetry_Int_Tables_number   1
_chemical_formula_structural   Cr8Fe12Ni7
_chemical_formula_sum   'Cr16 Fe24 Ni14'
_cell_volume   588.35478276
_cell_formula_units_Z   2
loop_
 _symmetry_equiv_pos_site_id
 _symmetry_equiv_pos_as_xyz
  1  'x, y, z'
loop_
 _atom_site_type_symbol
 _atom_site_label
 _atom_site_symmetry_multiplicity
 _atom_site_fract_x
 _atom_site_fract_y
 _atom_site_fract_z
 _atom_site_occupancy
  Fe  Fe0  1  0.00115331  0.99924690  1.00001418  1
  Fe  Fe1  1  0.16734350  0.16795204  0.16645809  1
  Cr  Cr2  1  0.99913313  0.00021835  0.33310319  1
  Fe  Fe3  1  0.00038212  0.33481653  0.99987981  1
  Ni  Ni4  1  0.16384204  0.50231658  0.16694948  1
  Ni  Ni5  1  0.00117897  0.33496378  0.33229415  1
  Fe  Fe6  1  0.99916921  0.66637654  0.00187082  1
  Ni  Ni7  1  0.16632177  0.83189761  0.16556087  1
  Ni  Ni8  1  0.00103848  0.66504778  0.33091769  1
  Fe  Fe9  1  0.33280001  0.99968911  1.00003071  1
  Cr  Cr10  1  0.50005394  0.16647135  0.16997619  1
  Fe  Fe11  1  0.33400711  0.00066682  0.33123266  1
  Fe  Fe12  1  0.33295167  0.33371529  0.99837972  1
  Cr  Cr13  1  0.50187519  0.49886978  0.16619807  1
  Fe  Fe14  1  0.33183436  0.33384293  0.33350636  1
  Fe  Fe15  1  0.33369542  0.66700322  0.00046330  1
  Fe  Fe16  1  0.49900565  0.83373156  0.16629061  1
  Cr  Cr17  1  0.33151145  0.66564398  0.33423742  1
  Cr  Cr18  1  0.66622250  0.99776537  0.99846953  1
  Cr  Cr19  1  0.83254447  0.16968114  0.16819026  1
  Ni  Ni20  1  0.66681853  0.00081080  0.33441948  1
  Fe  Fe21  1  0.66706093  0.33559088  0.99784230  1
  Fe  Fe22  1  0.83637875  0.50116459  0.16682958  1
  Ni  Ni23  1  0.66769122  0.33162777  0.33355983  1
  Ni  Ni24  1  0.66707097  0.66668621  0.00015243  1
  Fe  Fe25  1  0.83458661  0.83076652  0.16628403  1
  Cr  Cr26  1  0.66854637  0.66802595  0.33214793  1
  Cr  Cr27  1  0.16491137  0.16861495  0.49996221  1
  Ni  Ni28  1  0.99651560  0.00335064  0.66791262  1
  Fe  Fe29  1  0.16651389  0.16893276  0.83306755  1
  Fe  Fe30  1  0.16761143  0.49796062  0.49994456  1
  Ni  Ni31  1  0.00067670  0.33038465  0.66832733  1
  Fe  Fe32  1  0.16827710  0.49733406  0.83364168  1
  Cr  Cr33  1  0.16541774  0.83084560  0.50107255  1
  Cr  Cr34  1  0.00111325  0.66659343  0.66526127  1
  Cr  Cr35  1  0.16668151  0.83252803  0.83332869  1
  Cr  Cr36  1  0.50393680  0.16919068  0.49797002  1
  Cr  Cr37  1  0.33354562  0.00116725  0.66888919  1
  Ni  Ni38  1  0.50155073  0.16919120  0.83280315  1
  Fe  Fe39  1  0.49847330  0.49714559  0.50130600  1
  Ni  Ni40  1  0.33340145  0.33640076  0.66790810  1
  Fe  Fe41  1  0.49938087  0.49910230  0.83369278  1
  Cr  Cr42  1  0.49983325  0.83397818  0.50047096  1
  Ni  Ni43  1  0.33474962  0.66261355  0.66788277  1
  Fe  Fe44  1  0.50073139  0.83277001  0.83401911  1
  Ni  Ni45  1  0.83171973  0.16770643  0.50230127  1
  Fe  Fe46  1  0.66956452  0.00301500  0.66773084  1
  Fe  Fe47  1  0.83399152  0.16752011  0.83153136  1
  Cr  Cr48  1  0.83454846  0.49670743  0.49760563  1
  Ni  Ni49  1  0.66632133  0.33167163  0.66886272  1
  Fe  Fe50  1  0.83271012  0.49826277  0.83440209  1
  Fe  Fe51  1  0.83370662  0.83730288  0.49983009  1
  Cr  Cr52  1  0.66427450  0.66725806  0.66753861  1
  Fe  Fe53  1  0.83230738  0.83454552  0.83416163  1
" 