7814,Ni27Fe66Cr5_14,-233.483557306408, 195.775755296722,Ni27Fe66Cr5,"# generated using pymatgen
 data_Cr2Fe18Ni7
_symmetry_space_group_name_H-M   'P 1'
_cell_length_a   7.41881316
_cell_length_b   7.41881316
_cell_length_c   10.49178619
_cell_angle_alpha   90.00000000
_cell_angle_beta   90.00000000
_cell_angle_gamma   90.00000000
_symmetry_Int_Tables_number   1
_chemical_formula_structural   Cr2Fe18Ni7
_chemical_formula_sum   'Cr4 Fe36 Ni14'
_cell_volume   577.45520336
_cell_formula_units_Z   2
loop_
 _symmetry_equiv_pos_site_id
 _symmetry_equiv_pos_as_xyz
  1  'x, y, z'
loop_
 _atom_site_type_symbol
 _atom_site_label
 _atom_site_symmetry_multiplicity
 _atom_site_fract_x
 _atom_site_fract_y
 _atom_site_fract_z
 _atom_site_occupancy
  Fe  Fe0  1  0.00508279  1.00193204  0.00341862  1
  Fe  Fe1  1  0.17018313  0.16920699  0.17137612  1
  Fe  Fe2  1  0.00508827  1.00277045  0.33741801  1
  Fe  Fe3  1  0.00633166  0.33629528  0.00438845  1
  Fe  Fe4  1  0.17068392  0.50402398  0.17133157  1
  Ni  Ni5  1  1.00213625  0.33683711  0.33714915  1
  Ni  Ni6  1  0.00346414  0.66882272  1.00302574  1
  Fe  Fe7  1  0.17141390  0.83649059  0.16926678  1
  Fe  Fe8  1  0.00603249  0.66925681  0.33646289  1
  Ni  Ni9  1  0.33627949  0.00386477  1.00262970  1
  Fe  Fe10  1  0.49956452  0.16892988  0.17076462  1
  Ni  Ni11  1  0.33711745  1.00321998  0.33721521  1
  Fe  Fe12  1  0.33465512  0.33579672  0.00493943  1
  Fe  Fe13  1  0.50042965  0.50593194  0.17149661  1
  Ni  Ni14  1  0.33543556  0.33547917  0.33633972  1
  Ni  Ni15  1  0.33370917  0.67181294  1.00279062  1
  Fe  Fe16  1  0.50034313  0.83521243  0.17053732  1
  Ni  Ni17  1  0.33734554  0.67094515  0.33911823  1
  Cr  Cr18  1  0.66797170  0.00357381  1.00190578  1
  Fe  Fe19  1  0.83907735  0.16903144  0.17331411  1
  Fe  Fe20  1  0.66832387  0.00415013  0.33631542  1
  Cr  Cr21  1  0.67097956  0.33516860  0.00508325  1
  Fe  Fe22  1  0.83864325  0.50488426  0.17051970  1
  Fe  Fe23  1  0.66760040  0.33717127  0.33606090  1
  Fe  Fe24  1  0.66970966  0.67160100  0.00416099  1
  Fe  Fe25  1  0.83799589  0.83543103  0.17084249  1
  Ni  Ni26  1  0.67127544  0.67045804  0.33569648  1
  Fe  Fe27  1  0.16938187  0.16994073  0.50195656  1
  Fe  Fe28  1  1.00270010  0.00369607  0.66919194  1
  Fe  Fe29  1  0.17110358  0.17023239  0.83618102  1
  Fe  Fe30  1  0.17063976  0.50044278  0.50071935  1
  Fe  Fe31  1  1.00202503  0.33528322  0.66829157  1
  Fe  Fe32  1  0.17027271  0.50338221  0.83771228  1
  Fe  Fe33  1  0.17070504  0.83941461  0.50264296  1
  Cr  Cr34  1  0.00403814  0.66883907  0.66787936  1
  Ni  Ni35  1  0.16962827  0.83781063  0.83698797  1
  Fe  Fe36  1  0.50318560  0.16988099  0.50365830  1
  Fe  Fe37  1  0.33635657  1.00141285  0.67015015  1
  Ni  Ni38  1  0.50148515  0.16980830  0.83443143  1
  Fe  Fe39  1  0.50494407  0.50358096  0.50267713  1
  Fe  Fe40  1  0.33621631  0.33715702  0.66775668  1
  Cr  Cr41  1  0.50362050  0.50470312  0.83763323  1
  Fe  Fe42  1  0.50537543  0.83661520  0.50339137  1
  Fe  Fe43  1  0.33737662  0.67197025  0.66868361  1
  Ni  Ni44  1  0.50021855  0.83716738  0.83625402  1
  Ni  Ni45  1  0.83627629  0.16998266  0.50199603  1
  Fe  Fe46  1  0.67024534  1.00250718  0.67014238  1
  Fe  Fe47  1  0.83769961  0.16908435  0.83347309  1
  Fe  Fe48  1  0.83391009  0.50234513  0.50245385  1
  Fe  Fe49  1  0.67187397  0.33668390  0.66995730  1
  Ni  Ni50  1  0.83877602  0.50182784  0.83758410  1
  Fe  Fe51  1  0.83416798  0.83781373  0.50166335  1
  Ni  Ni52  1  0.67059592  0.67087959  0.67177212  1
  Fe  Fe53  1  0.83585245  0.83478359  0.83673524  1
" 