7041,Ni27Fe66Cr5_1,-233.034061157284, 200.124568062412,Ni27Fe66Cr5,"# generated using pymatgen
 data_Cr2Fe18Ni7
_symmetry_space_group_name_H-M   'P 1'
_cell_length_a   7.41075205
_cell_length_b   7.41075205
_cell_length_c   10.48038605
_cell_angle_alpha   90.00000000
_cell_angle_beta   90.00000000
_cell_angle_gamma   90.00000000
_symmetry_Int_Tables_number   1
_chemical_formula_structural   Cr2Fe18Ni7
_chemical_formula_sum   'Cr4 Fe36 Ni14'
_cell_volume   575.57489915
_cell_formula_units_Z   2
loop_
 _symmetry_equiv_pos_site_id
 _symmetry_equiv_pos_as_xyz
  1  'x, y, z'
loop_
 _atom_site_type_symbol
 _atom_site_label
 _atom_site_symmetry_multiplicity
 _atom_site_fract_x
 _atom_site_fract_y
 _atom_site_fract_z
 _atom_site_occupancy
  Fe  Fe0  1  0.00424016  0.00384483  0.00543328  1
  Fe  Fe1  1  0.17085887  0.16942636  0.16956553  1
  Ni  Ni2  1  1.00246051  1.00318686  0.33624825  1
  Fe  Fe3  1  0.00470443  0.33713400  1.00329905  1
  Fe  Fe4  1  0.17124701  0.50563273  0.16977529  1
  Cr  Cr5  1  0.00438815  0.33732462  0.33748327  1
  Fe  Fe6  1  1.00372142  0.67042201  0.00487509  1
  Ni  Ni7  1  0.16908230  0.83815172  0.17085089  1
  Fe  Fe8  1  1.00303769  0.67177193  0.33639738  1
  Ni  Ni9  1  0.33828272  0.00405666  0.00530980  1
  Fe  Fe10  1  0.50396121  0.17056245  0.17011434  1
  Fe  Fe11  1  0.33699515  0.00519524  0.33581384  1
  Fe  Fe12  1  0.33743058  0.33683656  0.00397914  1
  Ni  Ni13  1  0.50461904  0.50205914  0.17010910  1
  Ni  Ni14  1  0.33756270  0.33645823  0.33589942  1
  Ni  Ni15  1  0.33861649  0.67047542  0.00450050  1
  Fe  Fe16  1  0.50377089  0.83603727  0.16991504  1
  Fe  Fe17  1  0.33646560  0.67015434  0.33465000  1
  Fe  Fe18  1  0.66947920  1.00336229  1.00363360  1
  Fe  Fe19  1  0.83657381  0.16952878  0.16996922  1
  Fe  Fe20  1  0.67113025  0.00411665  0.33738442  1
  Fe  Fe21  1  0.66925927  0.33735346  0.00411648  1
  Ni  Ni22  1  0.83451256  0.50497124  0.17066632  1
  Fe  Fe23  1  0.66951261  0.33625940  0.33576793  1
  Fe  Fe24  1  0.66977399  0.67067856  0.00403993  1
  Ni  Ni25  1  0.83962351  0.83671633  0.17060251  1
  Fe  Fe26  1  0.67188874  0.67100778  0.33647055  1
  Fe  Fe27  1  0.17075059  0.17122720  0.50479029  1
  Fe  Fe28  1  1.00169955  0.00485288  0.66983664  1
  Ni  Ni29  1  0.17142637  0.17100483  0.83656268  1
  Fe  Fe30  1  0.16907125  0.50323262  0.50496281  1
  Ni  Ni31  1  0.00456984  0.33746664  0.67012873  1
  Fe  Fe32  1  0.17067531  0.50144975  0.83665328  1
  Cr  Cr33  1  0.16812097  0.83755058  0.50388574  1
  Ni  Ni34  1  1.00109462  0.66763335  0.66972546  1
  Cr  Cr35  1  0.16921193  0.83791908  0.83666505  1
  Fe  Fe36  1  0.50384672  0.16842003  0.50395154  1
  Fe  Fe37  1  0.33831500  0.00539949  0.67149415  1
  Ni  Ni38  1  0.50332362  0.17214093  0.83657739  1
  Cr  Cr39  1  0.50453595  0.50201524  0.50402656  1
  Fe  Fe40  1  0.33582128  0.33684437  0.67105816  1
  Fe  Fe41  1  0.50313008  0.50352707  0.83740547  1
  Fe  Fe42  1  0.50606054  0.83845319  0.50425148  1
  Fe  Fe43  1  0.33743894  0.66915001  0.67165309  1
  Fe  Fe44  1  0.50454921  0.83794863  0.83723666  1
  Fe  Fe45  1  0.83679789  0.16917557  0.50451227  1
  Fe  Fe46  1  0.67137735  1.00323377  0.67037572  1
  Fe  Fe47  1  0.83756050  0.17062149  0.83691159  1
  Fe  Fe48  1  0.83831930  0.50544816  0.50504174  1
  Fe  Fe49  1  0.67197426  0.33711854  0.67151002  1
  Fe  Fe50  1  0.83759139  0.50307529  0.83677380  1
  Ni  Ni51  1  0.83770301  0.83729268  0.50402588  1
  Ni  Ni52  1  0.67146293  0.67247944  0.67175778  1
  Fe  Fe53  1  0.83547746  0.83769903  0.83646058  1
" 