5771,Ni27Fe66Cr5_0,-232.603532640102, 191.519904816091,Ni27Fe66Cr5,"# generated using pymatgen
 data_Cr2Fe18Ni7
_symmetry_space_group_name_H-M   'P 1'
_cell_length_a   7.41400809
_cell_length_b   7.41400809
_cell_length_c   10.48499080
_cell_angle_alpha   90.00000000
_cell_angle_beta   90.00000000
_cell_angle_gamma   90.00000000
_symmetry_Int_Tables_number   1
_chemical_formula_structural   Cr2Fe18Ni7
_chemical_formula_sum   'Cr4 Fe36 Ni14'
_cell_volume   576.33389964
_cell_formula_units_Z   2
loop_
 _symmetry_equiv_pos_site_id
 _symmetry_equiv_pos_as_xyz
  1  'x, y, z'
loop_
 _atom_site_type_symbol
 _atom_site_label
 _atom_site_symmetry_multiplicity
 _atom_site_fract_x
 _atom_site_fract_y
 _atom_site_fract_z
 _atom_site_occupancy
  Fe  Fe0  1  0.00397939  0.00467450  1.00224549  1
  Fe  Fe1  1  0.16881826  0.17087176  0.17094086  1
  Fe  Fe2  1  0.00449295  0.00548901  0.33842348  1
  Fe  Fe3  1  1.00243802  0.33669872  1.00248045  1
  Fe  Fe4  1  0.16805991  0.50273003  0.16794811  1
  Fe  Fe5  1  1.00245218  0.33713102  0.33811923  1
  Fe  Fe6  1  1.00327039  0.66924021  1.00229303  1
  Fe  Fe7  1  0.17009375  0.83712700  0.16885681  1
  Fe  Fe8  1  1.00049653  0.66815199  0.33829591  1
  Fe  Fe9  1  0.33781236  0.00414458  0.00391468  1
  Fe  Fe10  1  0.50580403  0.17016331  0.17090065  1
  Fe  Fe11  1  0.33881626  0.00617181  0.33723215  1
  Fe  Fe12  1  0.33818813  0.33636783  1.00311984  1
  Fe  Fe13  1  0.50582953  0.50251066  0.16865189  1
  Fe  Fe14  1  0.33888392  0.33351041  0.33681590  1
  Fe  Fe15  1  0.33820167  0.67018893  1.00243974  1
  Fe  Fe16  1  0.50388125  0.83816167  0.17001417  1
  Cr  Cr17  1  0.33603861  0.66873926  0.33661528  1
  Ni  Ni18  1  0.66984570  0.00548048  1.00295835  1
  Fe  Fe19  1  0.83628608  0.17186505  0.16995795  1
  Ni  Ni20  1  0.67017742  0.00645770  0.33738499  1
  Fe  Fe21  1  0.67006566  0.33750017  0.00421730  1
  Ni  Ni22  1  0.83716914  0.50271325  0.16931555  1
  Ni  Ni23  1  0.67067637  0.33531085  0.33616952  1
  Fe  Fe24  1  0.66914410  0.66902927  1.00245621  1
  Cr  Cr25  1  0.83548835  0.83549607  0.17156019  1
  Fe  Fe26  1  0.67037846  0.66813093  0.33854907  1
  Ni  Ni27  1  0.17196172  0.17086475  0.50325624  1
  Cr  Cr28  1  1.00027975  0.00596244  0.67084820  1
  Fe  Fe29  1  0.17108253  0.17388409  0.83694458  1
  Fe  Fe30  1  0.17214964  0.50005345  0.50470816  1
  Ni  Ni31  1  1.00318928  0.33715135  0.67025225  1
  Ni  Ni32  1  0.17065893  0.50178175  0.83780014  1
  Fe  Fe33  1  0.17237933  0.83823473  0.50301010  1
  Cr  Cr34  1  0.00626081  0.66804826  0.66980549  1
  Fe  Fe35  1  0.17263512  0.83432192  0.83879774  1
  Ni  Ni36  1  0.50166213  0.16864695  0.50416891  1
  Fe  Fe37  1  0.33730208  1.00323207  0.66967505  1
  Fe  Fe38  1  0.50441252  0.17213945  0.83638008  1
  Fe  Fe39  1  0.50453937  0.50143700  0.50507108  1
  Fe  Fe40  1  0.33629762  0.33634763  0.67062187  1
  Ni  Ni41  1  0.50392028  0.50322431  0.83600022  1
  Ni  Ni42  1  0.50468753  0.83861524  0.50441706  1
  Ni  Ni43  1  0.33846218  0.66878596  0.67102376  1
  Fe  Fe44  1  0.50412291  0.83538357  0.83585458  1
  Fe  Fe45  1  0.83429270  0.17211826  0.50285835  1
  Ni  Ni46  1  0.66852924  0.00544403  0.67088613  1
  Fe  Fe47  1  0.83491953  0.17363655  0.83783610  1
  Ni  Ni48  1  0.83666788  0.50391667  0.50268139  1
  Fe  Fe49  1  0.67141793  0.33806937  0.66930657  1
  Ni  Ni50  1  0.83637816  0.50338511  0.83826913  1
  Fe  Fe51  1  0.83382588  0.83881804  0.50147497  1
  Fe  Fe52  1  0.67016610  0.66997417  0.67016756  1
  Fe  Fe53  1  0.83416735  0.83562331  0.83916442  1
" 