7127,Ni27Cr73_18,-229.077181334916, 144.947824434861,Ni27Cr73,"# generated using pymatgen
 data_Cr7Ni20
_symmetry_space_group_name_H-M   'P 1'
_cell_length_a   7.48293791
_cell_length_b   7.48293791
_cell_length_c   10.58247228
_cell_angle_alpha   90.00000000
_cell_angle_beta   90.00000000
_cell_angle_gamma   90.00000000
_symmetry_Int_Tables_number   1
_chemical_formula_structural   Cr7Ni20
_chemical_formula_sum   'Cr14 Ni40'
_cell_volume   592.55875977
_cell_formula_units_Z   2
loop_
 _symmetry_equiv_pos_site_id
 _symmetry_equiv_pos_as_xyz
  1  'x, y, z'
loop_
 _atom_site_type_symbol
 _atom_site_label
 _atom_site_symmetry_multiplicity
 _atom_site_fract_x
 _atom_site_fract_y
 _atom_site_fract_z
 _atom_site_occupancy
  Cr  Cr0  1  0.99806404  0.99808670  0.99735265  1
  Cr  Cr1  1  0.16399189  0.16547571  0.16680184  1
  Ni  Ni2  1  0.99890978  0.00015767  0.33302004  1
  Ni  Ni3  1  0.99515680  0.33234365  -0.00096659  1
  Ni  Ni4  1  0.16549079  0.50049369  0.16541178  1
  Ni  Ni5  1  0.99521151  0.33062066  0.33239336  1
  Cr  Cr6  1  0.99836977  0.66596852  0.00052174  1
  Ni  Ni7  1  0.16899583  0.83173777  0.16656110  1
  Cr  Cr8  1  -0.00048090  0.66624397  0.32923012  1
  Ni  Ni9  1  0.33414793  0.99740098  0.99878168  1
  Ni  Ni10  1  0.50275594  0.16328858  0.16502918  1
  Ni  Ni11  1  0.33238159  0.99560373  0.33236366  1
  Cr  Cr12  1  0.33536329  0.33169325  -0.00095086  1
  Ni  Ni13  1  0.50116099  0.50143402  0.16554988  1
  Cr  Cr14  1  0.33474044  0.33356910  0.33137865  1
  Ni  Ni15  1  0.33406780  0.66719557  0.00133318  1
  Ni  Ni16  1  0.49934181  0.83211048  0.16606899  1
  Ni  Ni17  1  0.33498256  0.66837911  0.33128022  1
  Ni  Ni18  1  0.66486525  0.00018771  0.00006469  1
  Ni  Ni19  1  0.82961745  0.16656816  0.16691139  1
  Ni  Ni20  1  0.66563120  -0.00085365  0.32992620  1
  Ni  Ni21  1  0.66669887  0.33212430  -0.00101414  1
  Ni  Ni22  1  0.83021370  0.49699735  0.16559507  1
  Ni  Ni23  1  0.66791349  0.33304454  0.33128869  1
  Ni  Ni24  1  0.66515274  0.66450704  -0.00077415  1
  Ni  Ni25  1  0.82872947  0.83315024  0.16614928  1
  Ni  Ni26  1  0.66318985  0.66453241  0.33211129  1
  Ni  Ni27  1  0.16273553  0.16307380  0.50054055  1
  Ni  Ni28  1  0.00185144  0.00138352  0.66630547  1
  Ni  Ni29  1  0.16527320  0.16419754  0.82953937  1
  Cr  Cr30  1  0.16601338  0.49718154  0.49954517  1
  Ni  Ni31  1  0.99857634  0.32876454  0.66553470  1
  Cr  Cr32  1  0.16655235  0.49775185  0.83243274  1
  Ni  Ni33  1  0.16932749  0.83590964  0.49907015  1
  Cr  Cr34  1  0.99676090  0.66796675  0.66711857  1
  Ni  Ni35  1  0.16715522  0.83501406  0.83112483  1
  Cr  Cr36  1  0.49828376  0.16358369  0.49749014  1
  Ni  Ni37  1  0.32871299  -0.00084180  0.66564663  1
  Ni  Ni38  1  0.49801306  0.16591608  0.83390911  1
  Ni  Ni39  1  0.50062833  0.50292084  0.49948382  1
  Ni  Ni40  1  0.33190386  0.33120413  0.66667084  1
  Ni  Ni41  1  0.50076346  0.49935832  0.83175659  1
  Ni  Ni42  1  0.49634523  0.82937182  0.49779427  1
  Ni  Ni43  1  0.33443444  0.66652040  0.66426632  1
  Cr  Cr44  1  0.49875778  0.83110459  0.83295013  1
  Ni  Ni45  1  0.83627467  0.16732466  0.49655287  1
  Cr  Cr46  1  0.66680155  0.99888600  0.66696049  1
  Ni  Ni47  1  0.83349619  0.16663733  0.83332407  1
  Ni  Ni48  1  0.82957060  0.49617381  0.49814486  1
  Cr  Cr49  1  0.66515444  0.33402032  0.66613066  1
  Ni  Ni50  1  0.82968536  0.49772689  0.83301901  1
  Cr  Cr51  1  0.82974973  0.83356488  0.49815575  1
  Ni  Ni52  1  0.66366361  0.66350409  0.66541224  1
  Ni  Ni53  1  0.83151569  0.83238394  0.83236621  1
" 