8534,Ni27Cr73_8,-229.254591053406, 151.562805557384,Ni27Cr73,"# generated using pymatgen
 data_Cr7Ni20
_symmetry_space_group_name_H-M   'P 1'
_cell_length_a   7.48052463
_cell_length_b   7.48052463
_cell_length_c   10.57905939
_cell_angle_alpha   90.00000000
_cell_angle_beta   90.00000000
_cell_angle_gamma   90.00000000
_symmetry_Int_Tables_number   1
_chemical_formula_structural   Cr7Ni20
_chemical_formula_sum   'Cr14 Ni40'
_cell_volume   591.98563755
_cell_formula_units_Z   2
loop_
 _symmetry_equiv_pos_site_id
 _symmetry_equiv_pos_as_xyz
  1  'x, y, z'
loop_
 _atom_site_type_symbol
 _atom_site_label
 _atom_site_symmetry_multiplicity
 _atom_site_fract_x
 _atom_site_fract_y
 _atom_site_fract_z
 _atom_site_occupancy
  Ni  Ni0  1  0.00106679  0.99870590  -0.00041549  1
  Ni  Ni1  1  0.16704968  0.16702495  0.16691941  1
  Cr  Cr2  1  0.00128844  0.00152053  0.33296995  1
  Cr  Cr3  1  0.00103858  0.33239623  0.00149771  1
  Ni  Ni4  1  0.16535175  0.49968491  0.16617170  1
  Ni  Ni5  1  -0.00018420  0.33313708  0.33185234  1
  Ni  Ni6  1  0.00367705  0.66641354  0.00014416  1
  Ni  Ni7  1  0.16720986  0.83058452  0.16588907  1
  Ni  Ni8  1  0.00004633  0.66360232  0.33128460  1
  Cr  Cr9  1  0.33187725  0.99835355  0.99887794  1
  Ni  Ni10  1  0.49851566  0.16450071  0.16542739  1
  Ni  Ni11  1  0.33163855  0.99885520  0.33087261  1
  Ni  Ni12  1  0.33302937  0.33281899  0.99808780  1
  Cr  Cr13  1  0.49537482  0.49833404  0.16629231  1
  Ni  Ni14  1  0.33012652  0.33134924  0.33131240  1
  Ni  Ni15  1  0.33005367  0.66547304  0.99813009  1
  Ni  Ni16  1  0.49736977  0.83405364  0.16772786  1
  Ni  Ni17  1  0.33158259  0.66704148  0.33137010  1
  Ni  Ni18  1  0.66400807  0.00146391  0.00027420  1
  Ni  Ni19  1  0.83170161  0.16609500  0.16475991  1
  Ni  Ni20  1  0.66428546  -0.00059464  0.33005083  1
  Ni  Ni21  1  0.66337460  0.33032085  -0.00017498  1
  Ni  Ni22  1  0.83490566  0.49847285  0.16697235  1
  Cr  Cr23  1  0.66850645  0.33276534  0.33285462  1
  Cr  Cr24  1  0.66267180  0.66494648  0.99866900  1
  Cr  Cr25  1  0.83250985  0.83247953  0.16452231  1
  Ni  Ni26  1  0.66567979  0.66516645  0.33293348  1
  Ni  Ni27  1  0.16532949  0.16568208  0.49998153  1
  Ni  Ni28  1  0.00245457  0.00007926  0.66524944  1
  Ni  Ni29  1  0.16765123  0.16624806  0.83034373  1
  Cr  Cr30  1  0.16763661  0.49868811  0.49837242  1
  Ni  Ni31  1  -0.00005546  0.33162467  0.66415168  1
  Ni  Ni32  1  0.16867293  0.49969475  0.83237465  1
  Ni  Ni33  1  0.16649370  0.83271630  0.49996978  1
  Ni  Ni34  1  0.00115186  0.66554904  0.66590690  1
  Ni  Ni35  1  0.16642514  0.83137199  0.83144709  1
  Cr  Cr36  1  0.49646306  0.16645135  0.49946192  1
  Ni  Ni37  1  0.33039182  0.99877697  0.66693495  1
  Ni  Ni38  1  0.49809605  0.16676985  0.83215009  1
  Ni  Ni39  1  0.49907308  0.49958871  0.50034568  1
  Ni  Ni40  1  0.33237937  0.33238122  0.66776330  1
  Ni  Ni41  1  0.49598561  0.49778979  0.83106226  1
  Cr  Cr42  1  0.49707699  0.83151580  0.49771258  1
  Ni  Ni43  1  0.33269031  0.66621519  0.66768116  1
  Ni  Ni44  1  0.49762553  0.83277920  0.83083699  1
  Ni  Ni45  1  0.83362340  0.16711041  0.50099521  1
  Ni  Ni46  1  0.66436984  0.00003172  0.66679961  1
  Cr  Cr47  1  0.83192368  0.16446866  0.83210986  1
  Ni  Ni48  1  0.83275771  0.49862774  0.49970392  1
  Ni  Ni49  1  0.66495674  0.33364037  0.66524364  1
  Cr  Cr50  1  0.83368514  0.49893708  0.83139802  1
  Cr  Cr51  1  0.83292709  0.83206865  0.50076671  1
  Ni  Ni52  1  0.66372359  0.66370403  0.66532335  1
  Cr  Cr53  1  0.83409154  0.83387975  0.83199626  1
" 