3635,Ni27Fe66Cr5_18,-233.026490127514, 196.301961467206,Ni27Fe66Cr5,"# generated using pymatgen
 data_Cr2Fe18Ni7
_symmetry_space_group_name_H-M   'P 1'
_cell_length_a   7.41107568
_cell_length_b   7.41107568
_cell_length_c   10.48084374
_cell_angle_alpha   90.00000000
_cell_angle_beta   90.00000000
_cell_angle_gamma   90.00000000
_symmetry_Int_Tables_number   1
_chemical_formula_structural   Cr2Fe18Ni7
_chemical_formula_sum   'Cr4 Fe36 Ni14'
_cell_volume   575.65031012
_cell_formula_units_Z   2
loop_
 _symmetry_equiv_pos_site_id
 _symmetry_equiv_pos_as_xyz
  1  'x, y, z'
loop_
 _atom_site_type_symbol
 _atom_site_label
 _atom_site_symmetry_multiplicity
 _atom_site_fract_x
 _atom_site_fract_y
 _atom_site_fract_z
 _atom_site_occupancy
  Fe  Fe0  1  1.00272638  0.00427858  0.00419168  1
  Ni  Ni1  1  0.17274603  0.16998298  0.17033866  1
  Fe  Fe2  1  1.00374899  0.00380396  0.33748315  1
  Fe  Fe3  1  1.00363214  0.33589631  0.00547031  1
  Fe  Fe4  1  0.16896548  0.50285677  0.16938920  1
  Fe  Fe5  1  1.00365626  0.33737444  0.33730411  1
  Ni  Ni6  1  1.00246100  0.67106974  0.00680324  1
  Fe  Fe7  1  0.16921803  0.83831880  0.16912878  1
  Fe  Fe8  1  1.00155908  0.67015193  0.33635359  1
  Ni  Ni9  1  0.33694376  0.00478320  0.00503810  1
  Ni  Ni10  1  0.50190069  0.16999869  0.17092401  1
  Fe  Fe11  1  0.33717389  0.00583475  0.33653407  1
  Fe  Fe12  1  0.33809044  0.33613421  0.00482757  1
  Fe  Fe13  1  0.50545199  0.50247506  0.16923272  1
  Fe  Fe14  1  0.33704196  0.33511768  0.33659630  1
  Fe  Fe15  1  0.33920814  0.67033769  0.00490652  1
  Fe  Fe16  1  0.50491112  0.83840933  0.16932401  1
  Cr  Cr17  1  0.33712074  0.67071311  0.33548216  1
  Fe  Fe18  1  0.67042330  1.00315051  0.00424053  1
  Fe  Fe19  1  0.83681710  0.17069463  0.17086565  1
  Fe  Fe20  1  0.67040529  1.00373564  0.33701343  1
  Ni  Ni21  1  0.67016496  0.33723319  0.00499568  1
  Ni  Ni22  1  0.83693089  0.50573817  0.17082447  1
  Fe  Fe23  1  0.67063067  0.33731045  0.33683409  1
  Ni  Ni24  1  0.67043080  0.66963666  0.00487754  1
  Ni  Ni25  1  0.83694312  0.83469038  0.17035830  1
  Fe  Fe26  1  0.67265974  0.67028383  0.33648525  1
  Fe  Fe27  1  0.16941823  0.17046401  0.50424436  1
  Ni  Ni28  1  1.00348013  0.00532699  0.67014601  1
  Ni  Ni29  1  0.17183728  0.16942029  0.83639266  1
  Fe  Fe30  1  0.16901256  0.50292014  0.50495809  1
  Fe  Fe31  1  0.00457114  0.33482043  0.66855413  1
  Cr  Cr32  1  0.17113409  0.50252784  0.83744344  1
  Fe  Fe33  1  0.16901933  0.83794410  0.50550437  1
  Fe  Fe34  1  0.00378201  0.67192497  0.66826242  1
  Cr  Cr35  1  0.17098793  0.83911956  0.83770730  1
  Fe  Fe36  1  0.50464445  0.17075360  0.50336017  1
  Ni  Ni37  1  0.33655059  0.00394061  0.66848602  1
  Fe  Fe38  1  0.50291276  0.17047512  0.83787120  1
  Fe  Fe39  1  0.50524983  0.50281997  0.50489219  1
  Fe  Fe40  1  0.33711161  0.33574948  0.66990620  1
  Fe  Fe41  1  0.50335089  0.50372264  0.83720439  1
  Fe  Fe42  1  0.50495013  0.83775409  0.50508104  1
  Ni  Ni43  1  0.33883650  0.67055371  0.66974452  1
  Fe  Fe44  1  0.50427906  0.83712831  0.83691485  1
  Ni  Ni45  1  0.83686335  0.17131210  0.50367088  1
  Fe  Fe46  1  0.67022606  1.00344222  0.67007698  1
  Fe  Fe47  1  0.83794781  0.16896743  0.83631181  1
  Ni  Ni48  1  0.83709190  0.50413757  0.50376826  1
  Fe  Fe49  1  0.66964882  0.33588807  0.66958403  1
  Cr  Cr50  1  0.83587928  0.50472340  0.83677459  1
  Fe  Fe51  1  0.83736154  0.83735129  0.50348873  1
  Fe  Fe52  1  0.66929234  0.67200397  0.66987294  1
  Fe  Fe53  1  0.83651509  0.83871412  0.83787197  1
" 