4772,Ni27Cr73_4,-229.162986370134, 147.01463784921,Ni27Cr73,"# generated using pymatgen
 data_Cr7Ni20
_symmetry_space_group_name_H-M   'P 1'
_cell_length_a   7.48412630
_cell_length_b   7.48412630
_cell_length_c   10.58415292
_cell_angle_alpha   90.00000000
_cell_angle_beta   90.00000000
_cell_angle_gamma   90.00000000
_symmetry_Int_Tables_number   1
_chemical_formula_structural   Cr7Ni20
_chemical_formula_sum   'Cr14 Ni40'
_cell_volume   592.84112354
_cell_formula_units_Z   2
loop_
 _symmetry_equiv_pos_site_id
 _symmetry_equiv_pos_as_xyz
  1  'x, y, z'
loop_
 _atom_site_type_symbol
 _atom_site_label
 _atom_site_symmetry_multiplicity
 _atom_site_fract_x
 _atom_site_fract_y
 _atom_site_fract_z
 _atom_site_occupancy
  Ni  Ni0  1  -0.00036367  0.99691538  -0.00072236  1
  Cr  Cr1  1  0.16634928  0.16467001  0.16885708  1
  Ni  Ni2  1  -0.00006392  -0.00084789  0.33294644  1
  Cr  Cr3  1  0.00243958  0.33029159  -0.00039636  1
  Ni  Ni4  1  0.16986880  0.50081240  0.16609155  1
  Ni  Ni5  1  -0.00035394  0.33105168  0.33451038  1
  Ni  Ni6  1  0.00213707  0.66988836  0.00115230  1
  Ni  Ni7  1  0.16733102  0.83249865  0.16406283  1
  Cr  Cr8  1  0.00162263  0.66806652  0.33256180  1
  Ni  Ni9  1  0.33087040  0.99778022  0.99749623  1
  Cr  Cr10  1  0.49716772  0.16479549  0.16735077  1
  Ni  Ni11  1  0.33023181  0.99604074  0.33524294  1
  Ni  Ni12  1  0.33307604  0.33334679  0.99806249  1
  Ni  Ni13  1  0.49597383  0.50148142  0.16644747  1
  Ni  Ni14  1  0.33176479  0.33502522  0.33384019  1
  Ni  Ni15  1  0.33154562  0.66587492  0.00087448  1
  Ni  Ni16  1  0.49716040  0.82994942  0.16508293  1
  Ni  Ni17  1  0.33347670  0.66573728  0.33228906  1
  Ni  Ni18  1  0.66613024  0.99784305  -0.00006655  1
  Ni  Ni19  1  0.83321142  0.16222357  0.16697226  1
  Cr  Cr20  1  0.66711299  0.99588260  0.33331383  1
  Cr  Cr21  1  0.66332380  0.33026756  0.99632105  1
  Cr  Cr22  1  0.83134396  0.49889418  0.16720199  1
  Ni  Ni23  1  0.66512261  0.33322273  0.33528377  1
  Ni  Ni24  1  0.66304654  0.66731311  0.00183653  1
  Ni  Ni25  1  0.83214321  0.83361014  0.16316398  1
  Ni  Ni26  1  0.66295816  0.66480258  0.33299531  1
  Ni  Ni27  1  0.16505891  0.16436635  0.49761148  1
  Ni  Ni28  1  0.00149302  -0.00027865  0.66440759  1
  Ni  Ni29  1  0.16578107  0.16187177  0.83212699  1
  Ni  Ni30  1  0.16566343  0.49849797  0.49848465  1
  Ni  Ni31  1  0.99841972  0.32975969  0.66319831  1
  Cr  Cr32  1  0.16563151  0.50328792  0.83228025  1
  Ni  Ni33  1  0.16685881  0.83362933  0.50051366  1
  Ni  Ni34  1  0.00261115  0.66706292  0.66193015  1
  Ni  Ni35  1  0.16597068  0.83490857  0.83162644  1
  Ni  Ni36  1  0.49688492  0.16645941  0.49783759  1
  Ni  Ni37  1  0.32872507  0.99813238  0.66422764  1
  Ni  Ni38  1  0.49704812  0.16501621  0.83301485  1
  Ni  Ni39  1  0.49840452  0.49848347  0.49670793  1
  Cr  Cr40  1  0.33343863  0.33111388  0.66643853  1
  Ni  Ni41  1  0.49753621  0.49859205  0.83350742  1
  Ni  Ni42  1  0.49471478  0.83142745  0.49712359  1
  Ni  Ni43  1  0.32938222  0.66677793  0.66309699  1
  Cr  Cr44  1  0.49468239  0.83143370  0.83332603  1
  Ni  Ni45  1  0.83441105  0.16753705  0.49852566  1
  Cr  Cr46  1  0.66387858  0.00253942  0.66315929  1
  Ni  Ni47  1  0.83376463  0.16414239  0.83104158  1
  Ni  Ni48  1  0.83255623  0.49698120  0.49932083  1
  Ni  Ni49  1  0.66585558  0.33091794  0.66467737  1
  Cr  Cr50  1  0.83199393  0.50053259  0.82862535  1
  Ni  Ni51  1  0.83457704  0.83201427  0.49877342  1
  Cr  Cr52  1  0.66239069  0.66371656  0.66040836  1
  Cr  Cr53  1  0.83602630  0.83202481  0.83362194  1
" 