1694,Ni27Fe49Cr23_1,-227.953015427261, 185.688344665211,Ni27Fe49Cr23,"# generated using pymatgen
 data_Cr7Fe13Ni7
_symmetry_space_group_name_H-M   'P 1'
_cell_length_a   7.45546212
_cell_length_b   7.45546212
_cell_length_c   10.54361564
_cell_angle_alpha   90.00000000
_cell_angle_beta   90.00000000
_cell_angle_gamma   90.00000000
_symmetry_Int_Tables_number   1
_chemical_formula_structural   Cr7Fe13Ni7
_chemical_formula_sum   'Cr14 Fe26 Ni14'
_cell_volume   586.05543985
_cell_formula_units_Z   2
loop_
 _symmetry_equiv_pos_site_id
 _symmetry_equiv_pos_as_xyz
  1  'x, y, z'
loop_
 _atom_site_type_symbol
 _atom_site_label
 _atom_site_symmetry_multiplicity
 _atom_site_fract_x
 _atom_site_fract_y
 _atom_site_fract_z
 _atom_site_occupancy
  Fe  Fe0  1  0.99746034  0.99731874  0.99882673  1
  Cr  Cr1  1  0.16506164  0.16753851  0.16647737  1
  Fe  Fe2  1  0.99943973  0.99997988  0.33528938  1
  Cr  Cr3  1  0.99895432  0.33552221  0.99875044  1
  Cr  Cr4  1  0.16937980  0.50277114  0.16745937  1
  Fe  Fe5  1  0.99843033  0.33411898  0.33664400  1
  Ni  Ni6  1  0.99814189  0.66963179  0.99983886  1
  Fe  Fe7  1  0.16466440  0.83254000  0.16746788  1
  Ni  Ni8  1  0.99913914  0.66686819  0.33393337  1
  Cr  Cr9  1  0.33375783  0.00081311  1.00016049  1
  Cr  Cr10  1  0.50327676  0.16921914  0.16641867  1
  Cr  Cr11  1  0.33483099  0.99952343  0.33700949  1
  Fe  Fe12  1  0.33666524  0.33727547  0.99848148  1
  Fe  Fe13  1  0.50396720  0.50283317  0.16629574  1
  Cr  Cr14  1  0.33438661  0.33252323  0.33418647  1
  Fe  Fe15  1  0.33555080  0.66633196  0.99917858  1
  Fe  Fe16  1  0.50306737  0.83178004  0.16760004  1
  Fe  Fe17  1  0.33430846  0.66964369  0.33500251  1
  Fe  Fe18  1  0.67006460  0.99847179  0.99934565  1
  Cr  Cr19  1  0.83395890  0.16441037  0.16846371  1
  Ni  Ni20  1  0.66737351  0.99999407  0.33531848  1
  Ni  Ni21  1  0.66629297  0.33655004  1.00001783  1
  Fe  Fe22  1  0.83224311  0.50359278  0.16752112  1
  Fe  Fe23  1  0.67024457  0.33430250  0.33453676  1
  Ni  Ni24  1  0.66916108  0.66666531  0.00216205  1
  Ni  Ni25  1  0.83361304  0.83260692  0.16658667  1
  Fe  Fe26  1  0.66760205  0.66874844  0.33234110  1
  Ni  Ni27  1  0.16467706  0.17077797  0.50076260  1
  Cr  Cr28  1  1.00076296  0.00182341  0.66844672  1
  Fe  Fe29  1  0.16721920  0.16795243  0.83347273  1
  Fe  Fe30  1  0.16618240  0.50071197  0.50093622  1
  Fe  Fe31  1  0.00168951  0.33362651  0.66725843  1
  Fe  Fe32  1  0.16863940  0.50175928  0.83394148  1
  Fe  Fe33  1  0.16882575  0.83294096  0.49944192  1
  Cr  Cr34  1  0.00081245  0.66541660  0.66876059  1
  Fe  Fe35  1  0.16691562  0.83265078  0.83546683  1
  Fe  Fe36  1  0.50318124  0.16617066  0.50116461  1
  Cr  Cr37  1  0.33613778  0.00123309  0.66503994  1
  Fe  Fe38  1  0.50340105  0.16818055  0.83448909  1
  Cr  Cr39  1  0.49848580  0.50282446  0.50106450  1
  Ni  Ni40  1  0.33370044  0.33330611  0.66914616  1
  Fe  Fe41  1  0.50119496  0.50064543  0.83460117  1
  Ni  Ni42  1  0.50011616  0.83322966  0.49986110  1
  Ni  Ni43  1  0.33382742  0.66672761  0.66750992  1
  Ni  Ni44  1  0.50225941  0.83185032  0.83449326  1
  Ni  Ni45  1  0.83511966  0.16895200  0.49972096  1
  Fe  Fe46  1  0.66619507  0.00221400  0.66783965  1
  Ni  Ni47  1  0.83317935  0.16640686  0.83406184  1
  Fe  Fe48  1  0.83570684  0.49782253  0.49900642  1
  Fe  Fe49  1  0.66784435  0.33187334  0.66862765  1
  Fe  Fe50  1  0.83246220  0.50102237  0.83583982  1
  Cr  Cr51  1  0.83195139  0.83651969  0.49968446  1
  Cr  Cr52  1  0.66793428  0.66777423  0.66878931  1
  Ni  Ni53  1  0.83249848  0.83596918  0.83721532  1
" 