1609,Ni27Fe23Cr48_18,-219.387305517795, 170.199808941727,Ni27Fe23Cr48,"# generated using pymatgen
 data_Cr14Fe6Ni7
_symmetry_space_group_name_H-M   'P 1'
_cell_length_a   7.51509327
_cell_length_b   7.51509327
_cell_length_c   10.62794683
_cell_angle_alpha   90.00000000
_cell_angle_beta   90.00000000
_cell_angle_gamma   90.00000000
_symmetry_Int_Tables_number   1
_chemical_formula_structural   Cr14Fe6Ni7
_chemical_formula_sum   'Cr28 Fe12 Ni14'
_cell_volume   600.23058751
_cell_formula_units_Z   2
loop_
 _symmetry_equiv_pos_site_id
 _symmetry_equiv_pos_as_xyz
  1  'x, y, z'
loop_
 _atom_site_type_symbol
 _atom_site_label
 _atom_site_symmetry_multiplicity
 _atom_site_fract_x
 _atom_site_fract_y
 _atom_site_fract_z
 _atom_site_occupancy
  Ni  Ni0  1  0.99666933  0.99481834  -0.00226469  1
  Cr  Cr1  1  0.16520485  0.15863800  0.16012012  1
  Cr  Cr2  1  -0.00305699  0.99430394  0.32724129  1
  Cr  Cr3  1  -0.00229357  0.32905150  -0.00024760  1
  Cr  Cr4  1  0.16454106  0.50124367  0.16639502  1
  Cr  Cr5  1  0.99526651  0.33016315  0.32573981  1
  Cr  Cr6  1  0.99590627  0.66382550  -0.00133724  1
  Ni  Ni7  1  0.16098792  0.82962669  0.16336498  1
  Ni  Ni8  1  0.99628293  0.66513119  0.33065691  1
  Ni  Ni9  1  0.32927519  0.99437771  -0.00275541  1
  Cr  Cr10  1  0.49784843  0.16221647  0.16566227  1
  Fe  Fe11  1  0.32982053  0.99424157  0.32959660  1
  Cr  Cr12  1  0.32881473  0.33149048  0.99061989  1
  Cr  Cr13  1  0.49860060  0.49928214  0.16420733  1
  Cr  Cr14  1  0.33009777  0.32883843  0.33501145  1
  Fe  Fe15  1  0.32996139  0.66518788  0.99588551  1
  Cr  Cr16  1  0.49354057  0.82992975  0.16164536  1
  Ni  Ni17  1  0.32838095  0.66501238  0.32947963  1
  Ni  Ni18  1  0.66366283  0.99361304  0.99601225  1
  Fe  Fe19  1  0.82897644  0.15940390  0.16167198  1
  Cr  Cr20  1  0.66448811  -0.00299727  0.33288204  1
  Cr  Cr21  1  0.66422437  0.33215933  0.00040382  1
  Fe  Fe22  1  0.82875308  0.50201168  0.16556440  1
  Ni  Ni23  1  0.66430000  0.33097567  0.32907612  1
  Ni  Ni24  1  0.66178871  0.66728729  0.99556626  1
  Fe  Fe25  1  0.82890941  0.82901483  0.16222796  1
  Ni  Ni26  1  0.66533474  0.66422826  0.32865343  1
  Cr  Cr27  1  0.16346530  0.16391083  0.49900010  1
  Fe  Fe28  1  -0.00282277  0.99577961  0.66361064  1
  Fe  Fe29  1  0.16288346  0.16173838  0.82969366  1
  Ni  Ni30  1  0.16133899  0.49846481  0.49791466  1
  Ni  Ni31  1  0.00084120  0.33000724  0.66547019  1
  Ni  Ni32  1  0.16367699  0.49592768  0.82740087  1
  Cr  Cr33  1  0.16162151  0.82659318  0.49344877  1
  Fe  Fe34  1  -0.00140523  0.66143995  0.66282702  1
  Cr  Cr35  1  0.16387899  0.83027665  0.83329850  1
  Ni  Ni36  1  0.49859662  0.16264625  0.49577839  1
  Cr  Cr37  1  0.33181369  0.99645105  0.66179132  1
  Cr  Cr38  1  0.49756491  0.16056733  0.83031979  1
  Cr  Cr39  1  0.49623037  0.49705261  0.49317922  1
  Fe  Fe40  1  0.32901885  0.33133489  0.66350260  1
  Fe  Fe41  1  0.49711262  0.50046840  0.83208218  1
  Cr  Cr42  1  0.49675131  0.83026021  0.49356348  1
  Cr  Cr43  1  0.33069916  0.66265086  0.66712772  1
  Ni  Ni44  1  0.49645319  0.83100462  0.83487956  1
  Cr  Cr45  1  0.82968548  0.16410762  0.49987251  1
  Fe  Fe46  1  0.66256849  -0.00304460  0.66305742  1
  Cr  Cr47  1  0.83209378  0.16243454  0.83073048  1
  Cr  Cr48  1  0.83288902  0.49810390  0.49491602  1
  Cr  Cr49  1  0.66147448  0.33141293  0.66299935  1
  Cr  Cr50  1  0.83195404  0.49676960  0.83035584  1
  Fe  Fe51  1  0.83076969  0.82893116  0.49729372  1
  Cr  Cr52  1  0.66280424  0.66741346  0.66471855  1
  Cr  Cr53  1  0.82913849  0.83160429  0.82747094  1
" 