3828,Ni27Fe46Cr26_17,-227.261036552479, 188.132434283633,Ni27Fe46Cr26,"# generated using pymatgen
 data_Cr8Fe12Ni7
_symmetry_space_group_name_H-M   'P 1'
_cell_length_a   7.46633878
_cell_length_b   7.46633878
_cell_length_c   10.55899756
_cell_angle_alpha   90.00000000
_cell_angle_beta   90.00000000
_cell_angle_gamma   90.00000000
_symmetry_Int_Tables_number   1
_chemical_formula_structural   Cr8Fe12Ni7
_chemical_formula_sum   'Cr16 Fe24 Ni14'
_cell_volume   588.62414525
_cell_formula_units_Z   2
loop_
 _symmetry_equiv_pos_site_id
 _symmetry_equiv_pos_as_xyz
  1  'x, y, z'
loop_
 _atom_site_type_symbol
 _atom_site_label
 _atom_site_symmetry_multiplicity
 _atom_site_fract_x
 _atom_site_fract_y
 _atom_site_fract_z
 _atom_site_occupancy
  Cr  Cr0  1  0.00230222  0.99857282  0.00026341  1
  Fe  Fe1  1  0.16831448  0.16550475  0.16651020  1
  Ni  Ni2  1  0.00244352  0.00040412  0.33250583  1
  Ni  Ni3  1  0.00042190  0.33218643  0.00063124  1
  Cr  Cr4  1  0.16703855  0.50170230  0.16642307  1
  Fe  Fe5  1  0.99861453  0.33143570  0.33384729  1
  Fe  Fe6  1  0.00049610  0.66661392  0.00126483  1
  Ni  Ni7  1  0.16661752  0.83361365  0.16762972  1
  Fe  Fe8  1  0.99998801  0.66744020  0.33175511  1
  Fe  Fe9  1  0.33321172  0.00100541  0.00076416  1
  Ni  Ni10  1  0.50115764  0.16658089  0.16539631  1
  Ni  Ni11  1  0.33066618  0.00135958  0.33255495  1
  Fe  Fe12  1  0.33259240  0.33081200  0.00136343  1
  Ni  Ni13  1  0.50121357  0.49944706  0.16416165  1
  Cr  Cr14  1  0.33624332  0.33054649  0.33142055  1
  Ni  Ni15  1  0.33461380  0.66871278  0.00097150  1
  Cr  Cr16  1  0.49827477  0.83513496  0.16881373  1
  Fe  Fe17  1  0.33335478  0.66796692  0.33181401  1
  Fe  Fe18  1  0.66459768  0.99938310  0.99959067  1
  Cr  Cr19  1  0.83247100  0.16576994  0.16815994  1
  Fe  Fe20  1  0.66482271  0.00370094  0.33405606  1
  Fe  Fe21  1  0.66586421  0.33372762  0.00246603  1
  Ni  Ni22  1  0.83318069  0.49901825  0.16630863  1
  Ni  Ni23  1  0.66742014  0.33352597  0.33274755  1
  Fe  Fe24  1  0.66809364  0.66740082  0.00156270  1
  Fe  Fe25  1  0.83445138  0.83170579  0.16756050  1
  Cr  Cr26  1  0.66714380  0.66351009  0.33343030  1
  Ni  Ni27  1  0.16416207  0.16565331  0.50072025  1
  Fe  Fe28  1  0.00132422  0.00147342  0.66619644  1
  Ni  Ni29  1  0.16769410  0.16492063  0.83238216  1
  Cr  Cr30  1  0.16736859  0.49963965  0.50041562  1
  Fe  Fe31  1  0.00164087  0.33099525  0.66620471  1
  Cr  Cr32  1  0.16877608  0.49902566  0.83321642  1
  Cr  Cr33  1  0.16935565  0.83379989  0.49820374  1
  Cr  Cr34  1  0.99878961  0.66855174  0.66825569  1
  Fe  Fe35  1  0.16978489  0.83411292  0.83398426  1
  Fe  Fe36  1  0.49956206  0.16369592  0.49805682  1
  Fe  Fe37  1  0.33412030  0.00077754  0.66669933  1
  Fe  Fe38  1  0.49765819  0.16577178  0.83483431  1
  Cr  Cr39  1  0.49843794  0.50332088  0.50034913  1
  Fe  Fe40  1  0.33259916  0.33125296  0.66646881  1
  Cr  Cr41  1  0.49857359  0.50145489  0.83559882  1
  Fe  Fe42  1  0.49931946  0.83713783  0.50035515  1
  Ni  Ni43  1  0.33554922  0.67025958  0.66664531  1
  Fe  Fe44  1  0.49904403  0.83501186  0.83353744  1
  Ni  Ni45  1  0.83368415  0.16619315  0.49934300  1
  Fe  Fe46  1  0.66464583  0.99800902  0.66675671  1
  Cr  Cr47  1  0.83320211  0.16506888  0.83261630  1
  Fe  Fe48  1  0.83486700  0.49788746  0.49909348  1
  Cr  Cr49  1  0.66611599  0.33316229  0.66397976  1
  Cr  Cr50  1  0.83282903  0.49926204  0.83473981  1
  Cr  Cr51  1  0.83153985  0.83707321  0.49898903  1
  Ni  Ni52  1  0.66467741  0.66851533  0.66769286  1
  Fe  Fe53  1  0.83163166  0.83375371  0.83325456  1
" 