5926,Ni27Fe49Cr23_2,-228.210966733416, 189.413180724111,Ni27Fe49Cr23,"# generated using pymatgen
 data_Cr7Fe13Ni7
_symmetry_space_group_name_H-M   'P 1'
_cell_length_a   7.45278127
_cell_length_b   7.45278127
_cell_length_c   10.53982434
_cell_angle_alpha   90.00000000
_cell_angle_beta   90.00000000
_cell_angle_gamma   90.00000000
_symmetry_Int_Tables_number   1
_chemical_formula_structural   Cr7Fe13Ni7
_chemical_formula_sum   'Cr14 Fe26 Ni14'
_cell_volume   585.42346169
_cell_formula_units_Z   2
loop_
 _symmetry_equiv_pos_site_id
 _symmetry_equiv_pos_as_xyz
  1  'x, y, z'
loop_
 _atom_site_type_symbol
 _atom_site_label
 _atom_site_symmetry_multiplicity
 _atom_site_fract_x
 _atom_site_fract_y
 _atom_site_fract_z
 _atom_site_occupancy
  Fe  Fe0  1  0.00450326  1.00083873  0.99891962  1
  Fe  Fe1  1  0.16875236  0.16663699  0.16622862  1
  Fe  Fe2  1  0.00559536  0.99966014  0.33410313  1
  Ni  Ni3  1  1.00073284  0.33308136  0.99980128  1
  Cr  Cr4  1  0.16879450  0.50169266  0.16535385  1
  Fe  Fe5  1  0.00284107  0.33611959  0.33330563  1
  Ni  Ni6  1  0.00204640  0.66783751  0.99951714  1
  Fe  Fe7  1  0.16863435  0.83500192  0.16729228  1
  Ni  Ni8  1  0.00261972  0.66736887  0.33468998  1
  Fe  Fe9  1  0.33035379  0.00120592  0.00158417  1
  Fe  Fe10  1  0.49803355  0.16862564  0.16906239  1
  Ni  Ni11  1  0.33174067  1.00085592  0.33395797  1
  Ni  Ni12  1  0.33471492  0.33214226  1.00024410  1
  Fe  Fe13  1  0.50055575  0.49940186  0.16678263  1
  Fe  Fe14  1  0.33510284  0.33548194  0.33247970  1
  Ni  Ni15  1  0.33306575  0.66841919  0.00193297  1
  Fe  Fe16  1  0.49724063  0.83474435  0.16793334  1
  Ni  Ni17  1  0.33306260  0.67040916  0.33418076  1
  Cr  Cr18  1  0.66661587  0.00325265  0.99937244  1
  Cr  Cr19  1  0.83397510  0.16739972  0.16871088  1
  Fe  Fe20  1  0.66358928  0.99960514  0.33302495  1
  Fe  Fe21  1  0.66696230  0.33632446  1.00012579  1
  Fe  Fe22  1  0.83602208  0.49999923  0.16674343  1
  Ni  Ni23  1  0.66806631  0.33475290  0.33235158  1
  Cr  Cr24  1  0.66802596  0.66639004  0.99964840  1
  Cr  Cr25  1  0.83592949  0.83442766  0.16761814  1
  Cr  Cr26  1  0.66642703  0.66466748  0.33528992  1
  Fe  Fe27  1  0.16751706  0.16572341  0.50150155  1
  Fe  Fe28  1  0.00435183  1.00064714  0.66949018  1
  Ni  Ni29  1  0.16840495  0.16735922  0.83398693  1
  Cr  Cr30  1  0.16940779  0.50047832  0.50192270  1
  Fe  Fe31  1  0.00230216  0.33349334  0.66941349  1
  Cr  Cr32  1  0.16996323  0.50182631  0.83562057  1
  Fe  Fe33  1  0.16926661  0.83560406  0.50100262  1
  Fe  Fe34  1  1.00029900  0.66850918  0.66919657  1
  Ni  Ni35  1  0.16682197  0.83499268  0.83499302  1
  Cr  Cr36  1  0.49975066  0.16764000  0.49967948  1
  Fe  Fe37  1  0.33070581  1.00093335  0.66739397  1
  Fe  Fe38  1  0.49747238  0.16936865  0.83517154  1
  Fe  Fe39  1  0.50120558  0.50178503  0.50186829  1
  Fe  Fe40  1  0.33417658  0.33357998  0.66943515  1
  Ni  Ni41  1  0.49906945  0.50006463  0.83468528  1
  Fe  Fe42  1  0.49689878  0.83308948  0.50122214  1
  Ni  Ni43  1  0.33335721  0.66913642  0.66675411  1
  Cr  Cr44  1  0.49839719  0.83255130  0.83354031  1
  Cr  Cr45  1  0.83524883  0.16691056  0.49821535  1
  Cr  Cr46  1  0.66798979  0.00123383  0.66927820  1
  Fe  Fe47  1  0.83810699  0.16855567  0.83552934  1
  Fe  Fe48  1  0.83473753  0.49959428  0.50128580  1
  Cr  Cr49  1  0.66898162  0.33560823  0.67129421  1
  Ni  Ni50  1  0.83527493  0.50179362  0.83519915  1
  Cr  Cr51  1  0.83394740  0.83444712  0.50117955  1
  Fe  Fe52  1  0.66737153  0.66617001  0.66876995  1
  Ni  Ni53  1  0.83665357  0.83424512  0.83379968  1
" 