1121,Ni27Fe46Cr26_19,-227.010191461502, 186.103824494283,Ni27Fe46Cr26,"# generated using pymatgen
 data_Cr8Fe12Ni7
_symmetry_space_group_name_H-M   'P 1'
_cell_length_a   7.46450956
_cell_length_b   7.46450956
_cell_length_c   10.55641066
_cell_angle_alpha   90.00000000
_cell_angle_beta   90.00000000
_cell_angle_gamma   90.00000000
_symmetry_Int_Tables_number   1
_chemical_formula_structural   Cr8Fe12Ni7
_chemical_formula_sum   'Cr16 Fe24 Ni14'
_cell_volume   588.19162124
_cell_formula_units_Z   2
loop_
 _symmetry_equiv_pos_site_id
 _symmetry_equiv_pos_as_xyz
  1  'x, y, z'
loop_
 _atom_site_type_symbol
 _atom_site_label
 _atom_site_symmetry_multiplicity
 _atom_site_fract_x
 _atom_site_fract_y
 _atom_site_fract_z
 _atom_site_occupancy
  Cr  Cr0  1  0.00164863  0.00201535  0.00085298  1
  Fe  Fe1  1  0.16754460  0.16843432  0.16669484  1
  Fe  Fe2  1  0.99983765  0.00064726  0.33307594  1
  Cr  Cr3  1  0.00056715  0.33351566  1.00014532  1
  Ni  Ni4  1  0.16896605  0.50122643  0.16701932  1
  Fe  Fe5  1  0.00106585  0.33246247  0.33062493  1
  Fe  Fe6  1  0.00085261  0.66469700  0.00203995  1
  Fe  Fe7  1  0.16954237  0.83260792  0.16603608  1
  Cr  Cr8  1  0.00039724  0.66664774  0.33156318  1
  Fe  Fe9  1  0.33534760  0.00126161  0.00025612  1
  Ni  Ni10  1  0.50106473  0.16855311  0.16645983  1
  Cr  Cr11  1  0.33336348  0.00030578  0.33254761  1
  Ni  Ni12  1  0.33442578  0.33304940  0.00186178  1
  Fe  Fe13  1  0.49993411  0.50016238  0.16723218  1
  Fe  Fe14  1  0.33425893  0.33661811  0.33141433  1
  Ni  Ni15  1  0.33593843  0.66576091  0.00204291  1
  Fe  Fe16  1  0.49886671  0.83143985  0.16630815  1
  Ni  Ni17  1  0.33639134  0.66556659  0.33387414  1
  Cr  Cr18  1  0.66409207  0.00107522  0.00062398  1
  Ni  Ni19  1  0.83126141  0.16794449  0.16966337  1
  Fe  Fe20  1  0.66707582  0.99876220  0.33205879  1
  Fe  Fe21  1  0.66413489  0.33479189  0.00055459  1
  Fe  Fe22  1  0.83156980  0.49818862  0.16698638  1
  Fe  Fe23  1  0.66523356  0.33502522  0.33122833  1
  Ni  Ni24  1  0.66437897  0.66484190  0.99922526  1
  Cr  Cr25  1  0.83280741  0.83324702  0.16784018  1
  Ni  Ni26  1  0.66406253  0.66676916  0.33516636  1
  Fe  Fe27  1  0.16570778  0.16618820  0.50086360  1
  Fe  Fe28  1  0.00280178  0.00158257  0.66659509  1
  Ni  Ni29  1  0.16865979  0.16684264  0.83193500  1
  Cr  Cr30  1  0.17031511  0.50063230  0.49964404  1
  Fe  Fe31  1  0.99884121  0.33141180  0.66869557  1
  Cr  Cr32  1  0.16755480  0.50061911  0.83422761  1
  Fe  Fe33  1  0.16853532  0.83462361  0.50096955  1
  Cr  Cr34  1  0.99901039  0.66697778  0.66689790  1
  Cr  Cr35  1  0.16998340  0.83341926  0.83506467  1
  Cr  Cr36  1  0.50038859  0.16820192  0.49901249  1
  Fe  Fe37  1  0.33289102  0.99777682  0.66767373  1
  Ni  Ni38  1  0.49953014  0.16735537  0.83484737  1
  Ni  Ni39  1  0.49982753  0.50379879  0.49943955  1
  Cr  Cr40  1  0.33348031  0.33299243  0.66682345  1
  Fe  Fe41  1  0.50125190  0.50174737  0.83381423  1
  Fe  Fe42  1  0.50035125  0.82858480  0.50069715  1
  Ni  Ni43  1  0.33776649  0.66832321  0.66465478  1
  Ni  Ni44  1  0.49952144  0.83276036  0.83331069  1
  Cr  Cr45  1  0.83447316  0.16532258  0.49914297  1
  Cr  Cr46  1  0.66599760  0.99848557  0.66752549  1
  Fe  Fe47  1  0.83343829  0.16891155  0.83237792  1
  Cr  Cr48  1  0.83060539  0.50060953  0.50037038  1
  Fe  Fe49  1  0.66649518  0.33690994  0.66877052  1
  Fe  Fe50  1  0.82964429  0.49901448  0.83321799  1
  Fe  Fe51  1  0.83160725  0.83298169  0.49942689  1
  Ni  Ni52  1  0.66384944  0.66631023  0.66613249  1
  Cr  Cr53  1  0.83202186  0.83117889  0.83365249  1
" 