2554,Ni27Fe66Cr5_13,-232.974392528577, 191.991258258957,Ni27Fe66Cr5,"# generated using pymatgen
 data_Cr2Fe18Ni7
_symmetry_space_group_name_H-M   'P 1'
_cell_length_a   7.41492619
_cell_length_b   7.41492619
_cell_length_c   10.48628918
_cell_angle_alpha   90.00000000
_cell_angle_beta   90.00000000
_cell_angle_gamma   90.00000000
_symmetry_Int_Tables_number   1
_chemical_formula_structural   Cr2Fe18Ni7
_chemical_formula_sum   'Cr4 Fe36 Ni14'
_cell_volume   576.54803196
_cell_formula_units_Z   2
loop_
 _symmetry_equiv_pos_site_id
 _symmetry_equiv_pos_as_xyz
  1  'x, y, z'
loop_
 _atom_site_type_symbol
 _atom_site_label
 _atom_site_symmetry_multiplicity
 _atom_site_fract_x
 _atom_site_fract_y
 _atom_site_fract_z
 _atom_site_occupancy
  Fe  Fe0  1  0.00408919  0.00391995  1.00317948  1
  Fe  Fe1  1  0.16688145  0.16909881  0.16996847  1
  Fe  Fe2  1  1.00079280  0.00398067  0.33701177  1
  Ni  Ni3  1  1.00224110  0.33803613  1.00258360  1
  Fe  Fe4  1  0.16821678  0.50323628  0.17052572  1
  Ni  Ni5  1  0.00373707  0.33583626  0.33744883  1
  Fe  Fe6  1  1.00335278  0.67057977  1.00319114  1
  Fe  Fe7  1  0.16980266  0.83723371  0.16880194  1
  Cr  Cr8  1  1.00135680  0.66975549  0.33775667  1
  Ni  Ni9  1  0.33811965  1.00224481  1.00272662  1
  Fe  Fe10  1  0.50491264  0.16698714  0.16967168  1
  Fe  Fe11  1  0.33710770  0.00366413  0.33552478  1
  Cr  Cr12  1  0.33813088  0.33552835  1.00261179  1
  Fe  Fe13  1  0.50501710  0.50772859  0.17013405  1
  Fe  Fe14  1  0.33594526  0.33758457  0.33596545  1
  Fe  Fe15  1  0.33611696  0.67125979  1.00185689  1
  Fe  Fe16  1  0.50452847  0.83559355  0.16925619  1
  Fe  Fe17  1  0.33809141  0.66854937  0.33835263  1
  Fe  Fe18  1  0.67000144  0.00408687  1.00315284  1
  Fe  Fe19  1  0.83925318  0.16978584  0.16867928  1
  Fe  Fe20  1  0.67168603  1.00161811  0.33679860  1
  Fe  Fe21  1  0.67153557  0.33622373  1.00296765  1
  Ni  Ni22  1  0.83733379  0.50427528  0.16863808  1
  Cr  Cr23  1  0.67231857  0.33796233  0.33512733  1
  Fe  Fe24  1  0.67036111  0.67025145  0.00378081  1
  Ni  Ni25  1  0.83553711  0.83684556  0.16899255  1
  Ni  Ni26  1  0.66970704  0.67142217  0.33856385  1
  Fe  Fe27  1  0.16850057  0.16947510  0.50323173  1
  Fe  Fe28  1  1.00224986  0.00417386  0.67037278  1
  Fe  Fe29  1  0.16762092  0.16805496  0.83696572  1
  Ni  Ni30  1  0.17226069  0.50031894  0.50335703  1
  Fe  Fe31  1  0.00353454  0.33702459  0.67037815  1
  Fe  Fe32  1  0.16980546  0.50498423  0.83612485  1
  Fe  Fe33  1  0.17094379  0.83688505  0.50372020  1
  Cr  Cr34  1  1.00286595  0.67165071  0.66958454  1
  Fe  Fe35  1  0.17010900  0.83718922  0.83777499  1
  Fe  Fe36  1  0.50403127  0.17051803  0.50482368  1
  Fe  Fe37  1  0.33733180  0.00374191  0.67171307  1
  Fe  Fe38  1  0.50627871  0.16847491  0.83570919  1
  Fe  Fe39  1  0.50464953  0.50494777  0.50549695  1
  Fe  Fe40  1  0.33714689  0.33825478  0.67078063  1
  Fe  Fe41  1  0.50618828  0.50673658  0.83498557  1
  Fe  Fe42  1  0.50268007  0.83519349  0.50472174  1
  Ni  Ni43  1  0.33668413  0.67193442  0.67065993  1
  Ni  Ni44  1  0.50354943  0.83802369  0.83717353  1
  Fe  Fe45  1  0.83829311  0.17123351  0.50516745  1
  Fe  Fe46  1  0.67014900  1.00146297  0.67065956  1
  Fe  Fe47  1  0.83628292  0.16952616  0.83666381  1
  Ni  Ni48  1  0.83700280  0.50313213  0.50476859  1
  Ni  Ni49  1  0.67052360  0.33540238  0.67151430  1
  Ni  Ni50  1  0.83694031  0.50315928  0.83762434  1
  Ni  Ni51  1  0.83399209  0.83871619  0.50395499  1
  Fe  Fe52  1  0.66926614  0.66975411  0.67035051  1
  Ni  Ni53  1  0.83473456  0.83653226  0.83824339  1
" 