4228,Ni27Fe46Cr26_5,-227.140313771898, 189.580766241361,Ni27Fe46Cr26,"# generated using pymatgen
 data_Cr8Fe12Ni7
_symmetry_space_group_name_H-M   'P 1'
_cell_length_a   7.46106132
_cell_length_b   7.46106132
_cell_length_c   10.55153411
_cell_angle_alpha   90.00000000
_cell_angle_beta   90.00000000
_cell_angle_gamma   90.00000000
_symmetry_Int_Tables_number   1
_chemical_formula_structural   Cr8Fe12Ni7
_chemical_formula_sum   'Cr16 Fe24 Ni14'
_cell_volume   587.37685019
_cell_formula_units_Z   2
loop_
 _symmetry_equiv_pos_site_id
 _symmetry_equiv_pos_as_xyz
  1  'x, y, z'
loop_
 _atom_site_type_symbol
 _atom_site_label
 _atom_site_symmetry_multiplicity
 _atom_site_fract_x
 _atom_site_fract_y
 _atom_site_fract_z
 _atom_site_occupancy
  Fe  Fe0  1  0.99894344  0.99681201  0.00093548  1
  Cr  Cr1  1  0.16772135  0.16818337  0.16393829  1
  Cr  Cr2  1  0.99992218  0.99873531  0.33490498  1
  Fe  Fe3  1  0.99713022  0.33535043  0.00044357  1
  Fe  Fe4  1  0.16521165  0.50139351  0.16867799  1
  Fe  Fe5  1  0.00129764  0.33309997  0.33403296  1
  Ni  Ni6  1  0.99906897  0.66810333  0.00092308  1
  Ni  Ni7  1  0.16535546  0.83216974  0.16627415  1
  Ni  Ni8  1  0.00078620  0.66703642  0.33241640  1
  Ni  Ni9  1  0.33430713  0.99997435  0.00128170  1
  Ni  Ni10  1  0.50207157  0.16642764  0.16656909  1
  Cr  Cr11  1  0.33272183  0.00177004  0.33325578  1
  Fe  Fe12  1  0.33543602  0.33460875  0.00210923  1
  Cr  Cr13  1  0.50137970  0.49931164  0.16958758  1
  Ni  Ni14  1  0.33484930  0.33428135  0.33433514  1
  Cr  Cr15  1  0.33333735  0.66905167  0.00102767  1
  Fe  Fe16  1  0.50025539  0.83687821  0.16753745  1
  Fe  Fe17  1  0.33175448  0.66644136  0.33316741  1
  Fe  Fe18  1  0.66782304  0.99973484  0.00239663  1
  Fe  Fe19  1  0.83139817  0.16746754  0.16652458  1
  Ni  Ni20  1  0.66783898  0.00241000  0.33262291  1
  Fe  Fe21  1  0.66861694  0.33257749  0.00107808  1
  Fe  Fe22  1  0.83661663  0.49945871  0.16793076  1
  Ni  Ni23  1  0.66579603  0.33226324  0.33385585  1
  Cr  Cr24  1  0.66910363  0.66664014  1.00010571  1
  Fe  Fe25  1  0.83384884  0.83363732  0.16836297  1
  Fe  Fe26  1  0.66844107  0.66855349  0.33274031  1
  Ni  Ni27  1  0.16912202  0.16853836  0.49987539  1
  Cr  Cr28  1  0.00064519  0.99916866  0.66521685  1
  Cr  Cr29  1  0.16646959  0.16546969  0.83704038  1
  Ni  Ni30  1  0.16745162  0.50117080  0.49742055  1
  Cr  Cr31  1  0.99918091  0.33376846  0.66515276  1
  Cr  Cr32  1  0.16480811  0.50148689  0.83487170  1
  Fe  Fe33  1  0.16534505  0.83007418  0.49983970  1
  Ni  Ni34  1  0.00108058  0.66946981  0.66779746  1
  Fe  Fe35  1  0.16544696  0.83448277  0.83528215  1
  Fe  Fe36  1  0.50184399  0.16803138  0.49789995  1
  Fe  Fe37  1  0.33344615  0.99827108  0.66649549  1
  Cr  Cr38  1  0.50045385  0.16425253  0.83536019  1
  Fe  Fe39  1  0.49938362  0.50068455  0.49732278  1
  Cr  Cr40  1  0.33524792  0.33420934  0.66514164  1
  Fe  Fe41  1  0.50101311  0.49921241  0.83522695  1
  Cr  Cr42  1  0.50258344  0.83396138  0.49910134  1
  Fe  Fe43  1  0.33121926  0.66798080  0.66669204  1
  Fe  Fe44  1  0.49986742  0.83489527  0.83328410  1
  Fe  Fe45  1  0.83226779  0.16584640  0.49885596  1
  Fe  Fe46  1  0.66878429  1.00039392  0.66630669  1
  Ni  Ni47  1  0.83227534  0.16622662  0.83595246  1
  Cr  Cr48  1  0.83485527  0.50330254  0.49782904  1
  Cr  Cr49  1  0.66689376  0.33353463  0.66725123  1
  Ni  Ni50  1  0.83464523  0.50123745  0.83548676  1
  Ni  Ni51  1  0.83236006  0.83306129  0.49978252  1
  Cr  Cr52  1  0.66809331  0.66550387  0.67018486  1
  Fe  Fe53  1  0.83584602  0.83505614  0.83395643  1
" 