5946,Ni27Fe23Cr48_5,-219.164443764844, 165.848686604281,Ni27Fe23Cr48,"# generated using pymatgen
 data_Cr14Fe6Ni7
_symmetry_space_group_name_H-M   'P 1'
_cell_length_a   7.51552243
_cell_length_b   7.51552243
_cell_length_c   10.62855374
_cell_angle_alpha   90.00000000
_cell_angle_beta   90.00000000
_cell_angle_gamma   90.00000000
_symmetry_Int_Tables_number   1
_chemical_formula_structural   Cr14Fe6Ni7
_chemical_formula_sum   'Cr28 Fe12 Ni14'
_cell_volume   600.33342287
_cell_formula_units_Z   2
loop_
 _symmetry_equiv_pos_site_id
 _symmetry_equiv_pos_as_xyz
  1  'x, y, z'
loop_
 _atom_site_type_symbol
 _atom_site_label
 _atom_site_symmetry_multiplicity
 _atom_site_fract_x
 _atom_site_fract_y
 _atom_site_fract_z
 _atom_site_occupancy
  Fe  Fe0  1  -0.00175397  -0.00088613  0.99524088  1
  Cr  Cr1  1  0.16466921  0.16513047  0.16422498  1
  Cr  Cr2  1  0.99674710  -0.00245766  0.32803548  1
  Fe  Fe3  1  -0.00271917  0.32897714  0.99428661  1
  Cr  Cr4  1  0.16634167  0.49645560  0.16337911  1
  Cr  Cr5  1  0.00101148  0.33061302  0.33369561  1
  Cr  Cr6  1  -0.00258349  0.66108812  0.99624076  1
  Cr  Cr7  1  0.16427906  0.82879161  0.16081243  1
  Cr  Cr8  1  0.99503447  0.66125370  0.33111796  1
  Cr  Cr9  1  0.33212322  0.99630911  0.99638467  1
  Ni  Ni10  1  0.49870963  0.16340729  0.16513770  1
  Cr  Cr11  1  0.33229601  0.00136334  0.33034837  1
  Cr  Cr12  1  0.32932315  0.32837398  -0.00178592  1
  Fe  Fe13  1  0.49638208  0.49651652  0.16318234  1
  Ni  Ni14  1  0.33250310  0.32992765  0.33283500  1
  Ni  Ni15  1  0.33080570  0.66234756  0.99594196  1
  Ni  Ni16  1  0.49899533  0.82844629  0.16469986  1
  Cr  Cr17  1  0.33091709  0.66145164  0.32958142  1
  Cr  Cr18  1  0.66251720  -0.00158468  -0.00299429  1
  Cr  Cr19  1  0.82856121  0.16292809  0.16158557  1
  Ni  Ni20  1  0.65957059  0.99510047  0.32887678  1
  Fe  Fe21  1  0.66303483  0.33014501  0.99646682  1
  Cr  Cr22  1  0.82769561  0.49601450  0.16346373  1
  Cr  Cr23  1  0.65986541  0.32914688  0.32960461  1
  Cr  Cr24  1  0.66206564  0.66452792  0.99553387  1
  Fe  Fe25  1  0.82630998  0.83017835  0.16504102  1
  Ni  Ni26  1  0.66044126  0.66404367  0.33116914  1
  Ni  Ni27  1  0.16797499  0.16821475  0.50005041  1
  Fe  Fe28  1  -0.00244220  -0.00047533  0.66359439  1
  Ni  Ni29  1  0.16014908  0.16659230  0.82709613  1
  Ni  Ni30  1  0.16728756  0.49391265  0.49793852  1
  Fe  Fe31  1  0.00030999  0.32760505  0.66333906  1
  Ni  Ni32  1  0.16271134  0.49372382  0.83052322  1
  Cr  Cr33  1  0.16342303  0.83191914  0.49838375  1
  Cr  Cr34  1  0.99616226  0.65605113  0.66207375  1
  Cr  Cr35  1  0.16553573  0.83054723  0.82999359  1
  Ni  Ni36  1  0.49510669  0.16570092  0.49683529  1
  Ni  Ni37  1  0.32826016  0.00174209  0.66372004  1
  Cr  Cr38  1  0.49654134  0.16436985  0.82894985  1
  Fe  Fe39  1  0.49539212  0.49512812  0.49684456  1
  Fe  Fe40  1  0.32922784  0.33021280  0.66264581  1
  Cr  Cr41  1  0.49490227  0.49744354  0.83271586  1
  Fe  Fe42  1  0.49467123  0.83290435  0.49644062  1
  Cr  Cr43  1  0.32999846  0.66421822  0.66513250  1
  Ni  Ni44  1  0.49585971  0.82956116  0.82852049  1
  Cr  Cr45  1  0.82904533  0.16138743  0.49665064  1
  Cr  Cr46  1  0.65879200  -0.00252220  0.66362997  1
  Ni  Ni47  1  0.83364312  0.16696489  0.83183555  1
  Fe  Fe48  1  0.82952600  0.49413046  0.49560283  1
  Cr  Cr49  1  0.66683473  0.33051405  0.66536251  1
  Fe  Fe50  1  0.83220134  0.49373883  0.83139947  1
  Cr  Cr51  1  0.82721443  0.82933977  0.49303509  1
  Cr  Cr52  1  0.66371435  0.66212683  0.66246621  1
  Cr  Cr53  1  0.83066477  0.83318979  0.82896452  1
" 