7588,Ni27Fe66Cr5_11,-233.093161826779, 193.017956288978,Ni27Fe66Cr5,"# generated using pymatgen
 data_Cr2Fe18Ni7
_symmetry_space_group_name_H-M   'P 1'
_cell_length_a   7.41526259
_cell_length_b   7.41526259
_cell_length_c   10.48676492
_cell_angle_alpha   90.00000000
_cell_angle_beta   90.00000000
_cell_angle_gamma   90.00000000
_symmetry_Int_Tables_number   1
_chemical_formula_structural   Cr2Fe18Ni7
_chemical_formula_sum   'Cr4 Fe36 Ni14'
_cell_volume   576.62650709
_cell_formula_units_Z   2
loop_
 _symmetry_equiv_pos_site_id
 _symmetry_equiv_pos_as_xyz
  1  'x, y, z'
loop_
 _atom_site_type_symbol
 _atom_site_label
 _atom_site_symmetry_multiplicity
 _atom_site_fract_x
 _atom_site_fract_y
 _atom_site_fract_z
 _atom_site_occupancy
  Fe  Fe0  1  0.00462687  1.00257757  0.00488208  1
  Fe  Fe1  1  0.16995815  0.17004641  0.17043297  1
  Fe  Fe2  1  0.00579473  1.00278507  0.33683612  1
  Ni  Ni3  1  0.00407741  0.33880400  0.00503943  1
  Fe  Fe4  1  0.17028875  0.50371345  0.17069165  1
  Fe  Fe5  1  0.00373018  0.33668964  0.33696726  1
  Fe  Fe6  1  0.00523312  0.67024433  1.00301864  1
  Ni  Ni7  1  0.16934557  0.83657475  0.17163093  1
  Fe  Fe8  1  0.00371385  0.67101915  0.33714335  1
  Fe  Fe9  1  0.33614153  1.00275336  0.00500434  1
  Ni  Ni10  1  0.50308840  0.17342143  0.16917172  1
  Fe  Fe11  1  0.33530849  1.00329079  0.33619552  1
  Ni  Ni12  1  0.33599506  0.33771279  0.00556115  1
  Ni  Ni13  1  0.50333855  0.50381292  0.17190596  1
  Fe  Fe14  1  0.33731224  0.33636789  0.33688876  1
  Fe  Fe15  1  0.33469375  0.66995998  0.00561750  1
  Fe  Fe16  1  0.50315986  0.83654859  0.16973725  1
  Ni  Ni17  1  0.33637831  0.66943969  0.33642533  1
  Fe  Fe18  1  0.66992649  0.00453483  0.00599098  1
  Ni  Ni19  1  0.83826821  0.17045163  0.17083361  1
  Cr  Cr20  1  0.67073957  0.00367912  0.33585214  1
  Fe  Fe21  1  0.67043311  0.33721978  0.00598689  1
  Fe  Fe22  1  0.83691999  0.50372163  0.17019781  1
  Fe  Fe23  1  0.66960668  0.33876354  0.33612383  1
  Fe  Fe24  1  0.67078720  0.66915369  0.00510641  1
  Ni  Ni25  1  0.83954692  0.83616464  0.16946421  1
  Fe  Fe26  1  0.67005799  0.66863200  0.33642088  1
  Ni  Ni27  1  0.16919888  0.16931664  0.50289411  1
  Ni  Ni28  1  1.00193813  1.00185136  0.66826635  1
  Cr  Cr29  1  0.16930140  0.16916218  0.83720578  1
  Fe  Fe30  1  0.17013052  0.50303449  0.50354049  1
  Ni  Ni31  1  0.00546904  0.33819333  0.66905143  1
  Fe  Fe32  1  0.16862424  0.50357666  0.83678507  1
  Fe  Fe33  1  0.16993946  0.83628062  0.50327797  1
  Ni  Ni34  1  1.00317120  0.67036402  0.67065607  1
  Ni  Ni35  1  0.16986071  0.83574700  0.83530924  1
  Fe  Fe36  1  0.50161569  0.17098877  0.50360964  1
  Fe  Fe37  1  0.33438769  1.00326860  0.66878350  1
  Fe  Fe38  1  0.50191576  0.16809326  0.83766113  1
  Fe  Fe39  1  0.50201808  0.50328108  0.50278715  1
  Ni  Ni40  1  0.33669218  0.33664244  0.66885176  1
  Cr  Cr41  1  0.50343285  0.50238186  0.83593468  1
  Fe  Fe42  1  0.50149871  0.83601174  0.50380990  1
  Fe  Fe43  1  0.33344965  0.67045164  0.66844246  1
  Fe  Fe44  1  0.50281547  0.83913141  0.83666809  1
  Fe  Fe45  1  0.83882073  0.17118991  0.50393117  1
  Fe  Fe46  1  0.66990761  1.00315230  0.66831269  1
  Cr  Cr47  1  0.83712847  0.17119591  0.83586570  1
  Fe  Fe48  1  0.83840915  0.50321247  0.50396003  1
  Fe  Fe49  1  0.67166038  0.33707689  0.66752691  1
  Fe  Fe50  1  0.84037084  0.50515091  0.83670927  1
  Fe  Fe51  1  0.83857175  0.83600881  0.50360500  1
  Fe  Fe52  1  0.67223682  0.67021743  0.66880343  1
  Fe  Fe53  1  0.83752005  0.83549205  0.83718068  1
" 