4161,Ni27Fe23Cr48_13,-219.28684240456, 165.272080874516,Ni27Fe23Cr48,"# generated using pymatgen
 data_Cr14Fe6Ni7
_symmetry_space_group_name_H-M   'P 1'
_cell_length_a   7.51760201
_cell_length_b   7.51760201
_cell_length_c   10.63149472
_cell_angle_alpha   90.00000000
_cell_angle_beta   90.00000000
_cell_angle_gamma   90.00000000
_symmetry_Int_Tables_number   1
_chemical_formula_structural   Cr14Fe6Ni7
_chemical_formula_sum   'Cr28 Fe12 Ni14'
_cell_volume   600.83190675
_cell_formula_units_Z   2
loop_
 _symmetry_equiv_pos_site_id
 _symmetry_equiv_pos_as_xyz
  1  'x, y, z'
loop_
 _atom_site_type_symbol
 _atom_site_label
 _atom_site_symmetry_multiplicity
 _atom_site_fract_x
 _atom_site_fract_y
 _atom_site_fract_z
 _atom_site_occupancy
  Ni  Ni0  1  0.99649093  0.99625910  0.99580671  1
  Fe  Fe1  1  0.16337817  0.16255437  0.16424858  1
  Cr  Cr2  1  -0.00321217  0.99649000  0.32904410  1
  Cr  Cr3  1  -0.00115791  0.32707759  -0.00145504  1
  Cr  Cr4  1  0.16506348  0.49867912  0.16614068  1
  Fe  Fe5  1  0.99592256  0.33058284  0.32948972  1
  Cr  Cr6  1  0.99399314  0.66446990  -0.00109060  1
  Cr  Cr7  1  0.16386655  0.82855752  0.16178696  1
  Fe  Fe8  1  -0.00333868  0.66313826  0.33013826  1
  Cr  Cr9  1  0.32834625  -0.00298486  0.99629030  1
  Cr  Cr10  1  0.49690292  0.16271388  0.16561907  1
  Fe  Fe11  1  0.33192945  0.99516862  0.32974553  1
  Cr  Cr12  1  0.32828701  0.32932643  0.99306015  1
  Cr  Cr13  1  0.49330754  0.49636817  0.16155192  1
  Ni  Ni14  1  0.32610133  0.33036866  0.32995144  1
  Ni  Ni15  1  0.33127893  0.66553130  0.99425187  1
  Fe  Fe16  1  0.49756850  0.83100232  0.16238741  1
  Fe  Fe17  1  0.33127539  0.66442211  0.33105798  1
  Ni  Ni18  1  0.66441810  0.99293151  -0.00197714  1
  Cr  Cr19  1  0.82747762  0.16074831  0.16220546  1
  Ni  Ni20  1  0.66262950  0.99327396  0.32984185  1
  Cr  Cr21  1  0.66376281  0.33307350  0.99550180  1
  Fe  Fe22  1  0.83046174  0.49754254  0.16557442  1
  Fe  Fe23  1  0.66316131  0.32945986  0.33010756  1
  Cr  Cr24  1  0.66213968  0.66529866  -0.00254369  1
  Ni  Ni25  1  0.83056771  0.83245537  0.16300801  1
  Cr  Cr26  1  0.66513174  0.66583521  0.32813568  1
  Cr  Cr27  1  0.16329707  0.16482477  0.49486694  1
  Fe  Fe28  1  -0.00111612  0.99586436  0.66476700  1
  Ni  Ni29  1  0.16006740  0.16011655  0.83075324  1
  Ni  Ni30  1  0.16402915  0.49826411  0.49502405  1
  Fe  Fe31  1  -0.00158699  0.33115470  0.66348663  1
  Cr  Cr32  1  0.16443265  0.50172194  0.82887436  1
  Cr  Cr33  1  0.16425085  0.82530876  0.49787310  1
  Ni  Ni34  1  -0.00080991  0.66283985  0.66141271  1
  Fe  Fe35  1  0.16472523  0.82992664  0.82950687  1
  Cr  Cr36  1  0.49934976  0.16225759  0.49388526  1
  Cr  Cr37  1  0.33001972  0.99568969  0.66342218  1
  Cr  Cr38  1  0.50056089  0.16284298  0.82996646  1
  Cr  Cr39  1  0.49273121  0.49553679  0.49778266  1
  Cr  Cr40  1  0.32885613  0.32940031  0.66608585  1
  Ni  Ni41  1  0.49424466  0.50081053  0.82903313  1
  Fe  Fe42  1  0.49649509  0.82960830  0.49734881  1
  Ni  Ni43  1  0.32756697  0.66378410  0.66349578  1
  Ni  Ni44  1  0.49520400  0.82890539  0.83046329  1
  Cr  Cr45  1  0.82768230  0.16216879  0.50113281  1
  Ni  Ni46  1  0.66222736  0.99553568  0.66292353  1
  Cr  Cr47  1  0.82963491  0.16091665  0.82689841  1
  Cr  Cr48  1  0.83315838  0.49571459  0.49670180  1
  Ni  Ni49  1  0.66335874  0.32990978  0.66315208  1
  Cr  Cr50  1  0.82968296  0.49632570  0.82827192  1
  Cr  Cr51  1  0.83103285  0.83213654  0.49934740  1
  Cr  Cr52  1  0.66122164  0.66386591  0.66471392  1
  Cr  Cr53  1  0.83235978  0.83265506  0.82936109  1
" 