1494,Ni27Cr73_14,-229.427142730032, 154.292861493945,Ni27Cr73,"# generated using pymatgen
 data_Cr7Ni20
_symmetry_space_group_name_H-M   'P 1'
_cell_length_a   7.48060210
_cell_length_b   7.48060210
_cell_length_c   10.57916894
_cell_angle_alpha   90.00000000
_cell_angle_beta   90.00000000
_cell_angle_gamma   90.00000000
_symmetry_Int_Tables_number   1
_chemical_formula_structural   Cr7Ni20
_chemical_formula_sum   'Cr14 Ni40'
_cell_volume   592.00402881
_cell_formula_units_Z   2
loop_
 _symmetry_equiv_pos_site_id
 _symmetry_equiv_pos_as_xyz
  1  'x, y, z'
loop_
 _atom_site_type_symbol
 _atom_site_label
 _atom_site_symmetry_multiplicity
 _atom_site_fract_x
 _atom_site_fract_y
 _atom_site_fract_z
 _atom_site_occupancy
  Cr  Cr0  1  0.00110620  0.99884614  -0.00004017  1
  Ni  Ni1  1  0.16570669  0.16393763  0.16694898  1
  Ni  Ni2  1  -0.00039135  0.99660454  0.33083888  1
  Cr  Cr3  1  0.99836064  0.33117722  -0.00025951  1
  Ni  Ni4  1  0.16710515  0.50098556  0.16740811  1
  Cr  Cr5  1  0.00105867  0.33242247  0.33254668  1
  Ni  Ni6  1  0.99896006  0.66726525  0.00123430  1
  Ni  Ni7  1  0.16520761  0.83235825  0.16658514  1
  Ni  Ni8  1  -0.00003906  0.66825256  0.33276319  1
  Ni  Ni9  1  0.33132807  0.99783066  0.99773964  1
  Cr  Cr10  1  0.49892612  0.16607553  0.16806432  1
  Ni  Ni11  1  0.33181303  0.99832206  0.33280452  1
  Cr  Cr12  1  0.33373549  0.33132913  -0.00046118  1
  Ni  Ni13  1  0.49934170  0.50048070  0.16661739  1
  Ni  Ni14  1  0.33225437  0.33260741  0.33202046  1
  Cr  Cr15  1  0.33346276  0.66794950  -0.00047480  1
  Ni  Ni16  1  0.49901221  0.83063353  0.16693721  1
  Ni  Ni17  1  0.33164399  0.66635187  0.33101686  1
  Cr  Cr18  1  0.66448906  -0.00088207  -0.00089871  1
  Ni  Ni19  1  0.83255759  0.16426906  0.16662441  1
  Ni  Ni20  1  0.66586006  0.99721433  0.33219403  1
  Ni  Ni21  1  0.66544076  0.33374246  0.99791690  1
  Cr  Cr22  1  0.83067619  0.50080047  0.16476897  1
  Ni  Ni23  1  0.66395946  0.33225547  0.33162980  1
  Ni  Ni24  1  0.66494432  0.66459003  -0.00020784  1
  Ni  Ni25  1  0.83306157  0.83203302  0.16739939  1
  Ni  Ni26  1  0.66567750  0.66781148  0.33197949  1
  Ni  Ni27  1  0.16814143  0.16505698  0.50027310  1
  Ni  Ni28  1  0.00072181  0.00146004  0.66647919  1
  Ni  Ni29  1  0.16692654  0.16289876  0.83006089  1
  Ni  Ni30  1  0.16529495  0.49923919  0.49894454  1
  Ni  Ni31  1  -0.00004283  0.32967537  0.66550995  1
  Cr  Cr32  1  0.16685201  0.49950804  0.83093498  1
  Ni  Ni33  1  0.16607536  0.83298600  0.49840238  1
  Cr  Cr34  1  -0.00003883  0.66614511  0.66277887  1
  Ni  Ni35  1  0.16865530  0.83556898  0.83229324  1
  Ni  Ni36  1  0.49736279  0.16427813  0.49913426  1
  Ni  Ni37  1  0.33243814  -0.00062350  0.66673807  1
  Ni  Ni38  1  0.49901592  0.16592454  0.83085624  1
  Cr  Cr39  1  0.49917116  0.49863659  0.49890220  1
  Ni  Ni40  1  0.33209681  0.33065381  0.66598673  1
  Ni  Ni41  1  0.50124355  0.49863714  0.83150209  1
  Ni  Ni42  1  0.49925678  0.83393715  0.49940754  1
  Ni  Ni43  1  0.33417423  0.66725217  0.66647570  1
  Ni  Ni44  1  0.49710951  0.83272019  0.83093623  1
  Cr  Cr45  1  0.83134989  0.16497400  0.50000814  1
  Ni  Ni46  1  0.66412323  -0.00061775  0.66599033  1
  Ni  Ni47  1  0.83133892  0.16703449  0.83038449  1
  Ni  Ni48  1  0.83272679  0.50113235  0.49951195  1
  Ni  Ni49  1  0.66522848  0.33141260  0.66773423  1
  Cr  Cr50  1  0.82928870  0.49769731  0.83274195  1
  Ni  Ni51  1  0.83194940  0.83108999  0.49783418  1
  Ni  Ni52  1  0.66314496  0.66648759  0.66551054  1
  Cr  Cr53  1  0.83221344  0.83264777  0.83204881  1
" 