5286,Ni27Fe66Cr5_6,-232.996898536187, 200.526264529614,Ni27Fe66Cr5,"# generated using pymatgen
 data_Cr2Fe18Ni7
_symmetry_space_group_name_H-M   'P 1'
_cell_length_a   7.41089447
_cell_length_b   7.41089447
_cell_length_c   10.48058747
_cell_angle_alpha   90.00000000
_cell_angle_beta   90.00000000
_cell_angle_gamma   90.00000000
_symmetry_Int_Tables_number   1
_chemical_formula_structural   Cr2Fe18Ni7
_chemical_formula_sum   'Cr4 Fe36 Ni14'
_cell_volume   575.60808487
_cell_formula_units_Z   2
loop_
 _symmetry_equiv_pos_site_id
 _symmetry_equiv_pos_as_xyz
  1  'x, y, z'
loop_
 _atom_site_type_symbol
 _atom_site_label
 _atom_site_symmetry_multiplicity
 _atom_site_fract_x
 _atom_site_fract_y
 _atom_site_fract_z
 _atom_site_occupancy
  Fe  Fe0  1  0.00526557  0.00499263  1.00293606  1
  Fe  Fe1  1  0.16958170  0.17025948  0.17031688  1
  Fe  Fe2  1  0.00621397  0.00438253  0.33801449  1
  Ni  Ni3  1  1.00224449  0.33840860  0.00406210  1
  Fe  Fe4  1  0.16943990  0.50373790  0.17074203  1
  Fe  Fe5  1  0.00471004  0.33729692  0.33656715  1
  Fe  Fe6  1  0.00483111  0.66939523  1.00299068  1
  Ni  Ni7  1  0.17316634  0.83744214  0.17038491  1
  Fe  Fe8  1  0.00613925  0.66968692  0.33761874  1
  Ni  Ni9  1  0.33752291  1.00363404  0.00474724  1
  Fe  Fe10  1  0.50382987  0.16992158  0.17115255  1
  Ni  Ni11  1  0.33787771  1.00309285  0.33716044  1
  Fe  Fe12  1  0.33596175  0.33564405  0.00497228  1
  Fe  Fe13  1  0.50407222  0.50417910  0.17076782  1
  Ni  Ni14  1  0.33721031  0.33732930  0.33623702  1
  Fe  Fe15  1  0.33465155  0.67084084  0.00557114  1
  Fe  Fe16  1  0.50200095  0.83726262  0.17031146  1
  Ni  Ni17  1  0.33724380  0.67094377  0.33593390  1
  Fe  Fe18  1  0.67055392  0.00630757  1.00342321  1
  Ni  Ni19  1  0.83709401  0.17303545  0.17087294  1
  Fe  Fe20  1  0.66803612  0.00518976  0.33861394  1
  Fe  Fe21  1  0.67199663  0.33607634  0.00495282  1
  Ni  Ni22  1  0.83682385  0.50126285  0.17056957  1
  Fe  Fe23  1  0.66906665  0.33694487  0.33678017  1
  Fe  Fe24  1  0.67188728  0.66898458  0.00453178  1
  Cr  Cr25  1  0.83838112  0.83728870  0.16983186  1
  Fe  Fe26  1  0.66845736  0.66922962  0.33767569  1
  Fe  Fe27  1  0.17084045  0.17060063  0.50388439  1
  Ni  Ni28  1  1.00212511  0.00603176  0.67145380  1
  Fe  Fe29  1  0.16978779  0.17111629  0.83716641  1
  Fe  Fe30  1  0.17246458  0.50236076  0.50304495  1
  Ni  Ni31  1  1.00297948  0.33579565  0.67056187  1
  Fe  Fe32  1  0.16917487  0.50283299  0.83757911  1
  Fe  Fe33  1  0.17228321  0.83840239  0.50236606  1
  Cr  Cr34  1  0.00441192  0.66940587  0.67187415  1
  Fe  Fe35  1  0.16966663  0.83741488  0.83833536  1
  Ni  Ni36  1  0.50312717  0.17031840  0.50503436  1
  Fe  Fe37  1  0.33581521  0.00469003  0.66954261  1
  Fe  Fe38  1  0.50429290  0.17040707  0.83667975  1
  Fe  Fe39  1  0.50291051  0.50367033  0.50374224  1
  Fe  Fe40  1  0.33591160  0.33570453  0.66881270  1
  Cr  Cr41  1  0.50435809  0.50241666  0.83559946  1
  Fe  Fe42  1  0.50347554  0.83748040  0.50410184  1
  Ni  Ni43  1  0.33749768  0.67023603  0.66886578  1
  Cr  Cr44  1  0.50302287  0.83858634  0.83617922  1
  Fe  Fe45  1  0.83691007  0.17003943  0.50414324  1
  Ni  Ni46  1  0.67111948  0.00509836  0.67022918  1
  Fe  Fe47  1  0.83728110  0.17091314  0.83708027  1
  Fe  Fe48  1  0.83599062  0.50222522  0.50318890  1
  Fe  Fe49  1  0.67197349  0.33600276  0.66963224  1
  Ni  Ni50  1  0.83836056  0.50250377  0.83772659  1
  Fe  Fe51  1  0.83560585  0.83910168  0.50339464  1
  Fe  Fe52  1  0.67140210  0.67070454  0.66914375  1
  Fe  Fe53  1  0.83753263  0.83775172  0.83748014  1
" 