7845,Ni27Cr73_17,-229.321156640628, 152.373179001694,Ni27Cr73,"# generated using pymatgen
 data_Cr7Ni20
_symmetry_space_group_name_H-M   'P 1'
_cell_length_a   7.48280803
_cell_length_b   7.48280803
_cell_length_c   10.58228860
_cell_angle_alpha   90.00000000
_cell_angle_beta   90.00000000
_cell_angle_gamma   90.00000000
_symmetry_Int_Tables_number   1
_chemical_formula_structural   Cr7Ni20
_chemical_formula_sum   'Cr14 Ni40'
_cell_volume   592.52790529
_cell_formula_units_Z   2
loop_
 _symmetry_equiv_pos_site_id
 _symmetry_equiv_pos_as_xyz
  1  'x, y, z'
loop_
 _atom_site_type_symbol
 _atom_site_label
 _atom_site_symmetry_multiplicity
 _atom_site_fract_x
 _atom_site_fract_y
 _atom_site_fract_z
 _atom_site_occupancy
  Ni  Ni0  1  0.99876136  0.99690339  -0.00090493  1
  Cr  Cr1  1  0.16503967  0.16515293  0.16611177  1
  Ni  Ni2  1  -0.00011104  0.99731878  0.33307717  1
  Cr  Cr3  1  -0.00059321  0.33395192  0.99784328  1
  Ni  Ni4  1  0.16421417  0.50156742  0.16643243  1
  Ni  Ni5  1  0.00132285  0.33262012  0.33237605  1
  Ni  Ni6  1  0.99855850  0.66653626  -0.00018386  1
  Ni  Ni7  1  0.16518506  0.83086690  0.16566912  1
  Ni  Ni8  1  0.00061233  0.66694373  0.33115449  1
  Ni  Ni9  1  0.33065501  0.99832484  -0.00095590  1
  Cr  Cr10  1  0.49539931  0.16435573  0.16535062  1
  Ni  Ni11  1  0.32838221  0.99612394  0.33210103  1
  Ni  Ni12  1  0.33104441  0.33399235  0.99607148  1
  Cr  Cr13  1  0.49755603  0.50122808  0.16626259  1
  Ni  Ni14  1  0.32792506  0.33490947  0.33405811  1
  Ni  Ni15  1  0.33090311  0.66443778  -0.00001290  1
  Ni  Ni16  1  0.49680196  0.83000821  0.16562641  1
  Ni  Ni17  1  0.32981257  0.66579619  0.33256441  1
  Cr  Cr18  1  0.66824920  0.99734533  -0.00009314  1
  Ni  Ni19  1  0.83602348  0.16490786  0.16705089  1
  Cr  Cr20  1  0.66906448  0.99557399  0.33068780  1
  Cr  Cr21  1  0.66650616  0.33323396  0.99699436  1
  Ni  Ni22  1  0.83519385  0.50219953  0.16637308  1
  Cr  Cr23  1  0.66781905  0.33309069  0.33210787  1
  Ni  Ni24  1  0.66739008  0.66595373  -0.00068859  1
  Ni  Ni25  1  0.83482481  0.82962478  0.16549300  1
  Ni  Ni26  1  0.66648928  0.66703490  0.33109740  1
  Ni  Ni27  1  0.16259397  0.16462232  0.49799089  1
  Ni  Ni28  1  0.99799836  -0.00055401  0.66459593  1
  Ni  Ni29  1  0.16515004  0.16514748  0.83234851  1
  Ni  Ni30  1  0.16526993  0.49987766  0.49769571  1
  Ni  Ni31  1  0.99861174  0.33157548  0.66626498  1
  Ni  Ni32  1  0.16481759  0.49937139  0.83259911  1
  Ni  Ni33  1  0.16358179  0.83236336  0.49882156  1
  Ni  Ni34  1  -0.00039802  0.66570456  0.66581969  1
  Cr  Cr35  1  0.16335270  0.83250107  0.83240918  1
  Cr  Cr36  1  0.49833546  0.16632036  0.49933216  1
  Ni  Ni37  1  0.33003525  -0.00077714  0.66552768  1
  Ni  Ni38  1  0.49791020  0.16621389  0.83168777  1
  Ni  Ni39  1  0.49782509  0.50089328  0.49902088  1
  Cr  Cr40  1  0.33016056  0.33439531  0.66667192  1
  Ni  Ni41  1  0.49952697  0.49934385  0.83199117  1
  Cr  Cr42  1  0.49861543  0.82983898  0.50008619  1
  Ni  Ni43  1  0.33071397  0.66434298  0.66438178  1
  Cr  Cr44  1  0.49913944  0.83133884  0.83148700  1
  Ni  Ni45  1  0.83660056  0.16447098  0.50051443  1
  Ni  Ni46  1  0.66880271  -0.00025371  0.66661776  1
  Ni  Ni47  1  0.83373096  0.16494381  0.82925117  1
  Cr  Cr48  1  0.83313251  0.49995333  0.49972789  1
  Ni  Ni49  1  0.66695919  0.33222793  0.66766484  1
  Ni  Ni50  1  0.83247936  0.50096897  0.83089341  1
  Ni  Ni51  1  0.83529696  0.83247508  0.50004605  1
  Ni  Ni52  1  0.66658659  0.66490833  0.66662703  1
  Ni  Ni53  1  0.83327308  0.83091494  0.83139339  1
" 