8235,Ni27Fe49Cr23_5,-228.5184233779, 187.143545380438,Ni27Fe49Cr23,"# generated using pymatgen
 data_Cr7Fe13Ni7
_symmetry_space_group_name_H-M   'P 1'
_cell_length_a   7.45748998
_cell_length_b   7.45748998
_cell_length_c   10.54648347
_cell_angle_alpha   90.00000000
_cell_angle_beta   90.00000000
_cell_angle_gamma   90.00000000
_symmetry_Int_Tables_number   1
_chemical_formula_structural   Cr7Fe13Ni7
_chemical_formula_sum   'Cr14 Fe26 Ni14'
_cell_volume   586.53378506
_cell_formula_units_Z   2
loop_
 _symmetry_equiv_pos_site_id
 _symmetry_equiv_pos_as_xyz
  1  'x, y, z'
loop_
 _atom_site_type_symbol
 _atom_site_label
 _atom_site_symmetry_multiplicity
 _atom_site_fract_x
 _atom_site_fract_y
 _atom_site_fract_z
 _atom_site_occupancy
  Fe  Fe0  1  0.00140341  1.00028966  0.00065042  1
  Fe  Fe1  1  0.16702269  0.16777991  0.16793780  1
  Fe  Fe2  1  0.00366464  0.00234659  0.33446163  1
  Fe  Fe3  1  1.00022576  0.33342798  0.00114219  1
  Fe  Fe4  1  0.16717008  0.49983074  0.16808586  1
  Fe  Fe5  1  0.99979334  0.33338756  0.33457153  1
  Ni  Ni6  1  0.00351845  0.66548844  0.00146648  1
  Fe  Fe7  1  0.16870333  0.83430558  0.16671134  1
  Fe  Fe8  1  0.00073779  0.66608345  0.33346618  1
  Ni  Ni9  1  0.33478822  0.00081111  0.00123401  1
  Cr  Cr10  1  0.49848127  0.16908449  0.16524971  1
  Fe  Fe11  1  0.33125707  0.99961403  0.33431234  1
  Fe  Fe12  1  0.33455617  0.33412137  0.00170314  1
  Ni  Ni13  1  0.50035992  0.49936356  0.16961847  1
  Ni  Ni14  1  0.33237801  0.33528315  0.33342022  1
  Cr  Cr15  1  0.33166025  0.66758475  0.00109366  1
  Fe  Fe16  1  0.49914805  0.83316636  0.16772262  1
  Fe  Fe17  1  0.33628187  0.66681157  0.33297899  1
  Ni  Ni18  1  0.66627950  0.00425245  0.99878561  1
  Fe  Fe19  1  0.83499739  0.16949112  0.16557637  1
  Cr  Cr20  1  0.66726100  1.00042561  0.33519887  1
  Fe  Fe21  1  0.66710615  0.33225855  1.00036811  1
  Fe  Fe22  1  0.83390205  0.49914891  0.16839238  1
  Fe  Fe23  1  0.66758796  0.33832890  0.33443814  1
  Cr  Cr24  1  0.66630603  0.66728953  0.00110941  1
  Cr  Cr25  1  0.83568523  0.83278547  0.16489914  1
  Ni  Ni26  1  0.66536478  0.66403483  0.33482052  1
  Ni  Ni27  1  0.16823845  0.16624399  0.49937201  1
  Cr  Cr28  1  0.00260917  0.00243199  0.66588624  1
  Cr  Cr29  1  0.16961846  0.16761614  0.83426483  1
  Cr  Cr30  1  0.16727984  0.49904733  0.50290664  1
  Ni  Ni31  1  0.00099779  0.33596298  0.66567959  1
  Fe  Fe32  1  0.16615859  0.50192092  0.83284788  1
  Fe  Fe33  1  0.16960938  0.83431677  0.50118588  1
  Ni  Ni34  1  0.00332056  0.66441382  0.66758073  1
  Ni  Ni35  1  0.16848734  0.83305297  0.83391028  1
  Cr  Cr36  1  0.49593596  0.16913115  0.50048924  1
  Ni  Ni37  1  0.33395289  0.99818406  0.66628310  1
  Fe  Fe38  1  0.50075673  0.16570536  0.83577929  1
  Ni  Ni39  1  0.50217888  0.50204726  0.49953510  1
  Fe  Fe40  1  0.33219489  0.33421841  0.66674608  1
  Fe  Fe41  1  0.49851695  0.49980099  0.83327867  1
  Fe  Fe42  1  0.49781020  0.83050192  0.50064128  1
  Fe  Fe43  1  0.33381486  0.66828574  0.66836666  1
  Fe  Fe44  1  0.49817510  0.83643766  0.83365422  1
  Fe  Fe45  1  0.83725940  0.17172539  0.50009270  1
  Cr  Cr46  1  0.66527070  0.00100052  0.66873113  1
  Ni  Ni47  1  0.83266182  0.16743304  0.83684639  1
  Ni  Ni48  1  0.83260000  0.50225320  0.49924276  1
  Cr  Cr49  1  0.66908069  0.33454061  0.66590040  1
  Cr  Cr50  1  0.83573890  0.50167447  0.83353184  1
  Cr  Cr51  1  0.83498497  0.83004869  0.50205042  1
  Fe  Fe52  1  0.66591137  0.66605321  0.66541685  1
  Cr  Cr53  1  0.83579929  0.83375938  0.83496824  1
" 