7820,Ni27Fe66Cr5_19,-232.876925494986, 193.606650740407,Ni27Fe66Cr5,"# generated using pymatgen
 data_Cr2Fe18Ni7
_symmetry_space_group_name_H-M   'P 1'
_cell_length_a   7.41074255
_cell_length_b   7.41074255
_cell_length_c   10.48037262
_cell_angle_alpha   90.00000000
_cell_angle_beta   90.00000000
_cell_angle_gamma   90.00000000
_symmetry_Int_Tables_number   1
_chemical_formula_structural   Cr2Fe18Ni7
_chemical_formula_sum   'Cr4 Fe36 Ni14'
_cell_volume   575.57268602
_cell_formula_units_Z   2
loop_
 _symmetry_equiv_pos_site_id
 _symmetry_equiv_pos_as_xyz
  1  'x, y, z'
loop_
 _atom_site_type_symbol
 _atom_site_label
 _atom_site_symmetry_multiplicity
 _atom_site_fract_x
 _atom_site_fract_y
 _atom_site_fract_z
 _atom_site_occupancy
  Fe  Fe0  1  0.00456318  0.00394239  1.00376540  1
  Fe  Fe1  1  0.17098189  0.17031104  0.16939335  1
  Fe  Fe2  1  1.00273939  1.00287094  0.33768432  1
  Fe  Fe3  1  0.00600436  0.33667793  0.00465339  1
  Ni  Ni4  1  0.17121327  0.50460682  0.16921597  1
  Cr  Cr5  1  1.00234309  0.33828221  0.33706997  1
  Ni  Ni6  1  0.00433268  0.67067934  0.00442666  1
  Fe  Fe7  1  0.17120949  0.83663961  0.17026899  1
  Fe  Fe8  1  1.00339012  0.67258154  0.33652260  1
  Ni  Ni9  1  0.33662707  1.00337833  1.00235743  1
  Cr  Cr10  1  0.50380979  0.17060018  0.17201775  1
  Ni  Ni11  1  0.33732038  1.00199328  0.33851987  1
  Ni  Ni12  1  0.33658625  0.33760594  1.00254877  1
  Ni  Ni13  1  0.50284830  0.50465920  0.16944112  1
  Fe  Fe14  1  0.33901163  0.33780042  0.33717715  1
  Fe  Fe15  1  0.33670241  0.66992759  1.00372232  1
  Fe  Fe16  1  0.50302892  0.83547109  0.17062575  1
  Fe  Fe17  1  0.33842276  0.67019468  0.33723475  1
  Fe  Fe18  1  0.67072964  1.00275299  1.00301284  1
  Fe  Fe19  1  0.83738823  0.17078551  0.17064677  1
  Ni  Ni20  1  0.66990472  1.00336964  0.33899398  1
  Fe  Fe21  1  0.66988326  0.33728375  0.00433071  1
  Fe  Fe22  1  0.83621101  0.50445585  0.16934021  1
  Ni  Ni23  1  0.67036220  0.33787601  0.33794946  1
  Fe  Fe24  1  0.66870182  0.67136478  0.00444352  1
  Fe  Fe25  1  0.83715503  0.83615712  0.17080915  1
  Fe  Fe26  1  0.66957950  0.67078376  0.33765312  1
  Fe  Fe27  1  0.17153651  0.16887768  0.50448658  1
  Fe  Fe28  1  1.00298904  0.00422613  0.66994995  1
  Fe  Fe29  1  0.17135244  0.17060139  0.83751333  1
  Fe  Fe30  1  0.17105357  0.50509952  0.50484034  1
  Fe  Fe31  1  0.00622530  0.33621040  0.66954103  1
  Ni  Ni32  1  0.17146653  0.50294485  0.83710456  1
  Fe  Fe33  1  0.17059640  0.83741894  0.50354654  1
  Fe  Fe34  1  0.00445425  0.67095907  0.67025760  1
  Fe  Fe35  1  0.17065020  0.83653600  0.83758157  1
  Fe  Fe36  1  0.50415727  0.16900362  0.50210408  1
  Fe  Fe37  1  0.33772988  1.00347161  0.67059861  1
  Fe  Fe38  1  0.50222656  0.16983762  0.83870146  1
  Ni  Ni39  1  0.50239821  0.50453622  0.50292304  1
  Fe  Fe40  1  0.33533102  0.33781114  0.67107128  1
  Fe  Fe41  1  0.50091468  0.50465805  0.83803516  1
  Ni  Ni42  1  0.50475065  0.83717304  0.50282301  1
  Fe  Fe43  1  0.33786106  0.67011424  0.67043024  1
  Ni  Ni44  1  0.50395361  0.83838994  0.83774617  1
  Ni  Ni45  1  0.83749905  0.16798780  0.50354327  1
  Fe  Fe46  1  0.67068313  1.00170133  0.66970565  1
  Fe  Fe47  1  0.83782203  0.16817688  0.83733850  1
  Fe  Fe48  1  0.83598466  0.50563590  0.50390728  1
  Cr  Cr49  1  0.66985651  0.33660078  0.66895619  1
  Cr  Cr50  1  0.83945759  0.50432008  0.83793383  1
  Ni  Ni51  1  0.83663200  0.83858741  0.50445266  1
  Fe  Fe52  1  0.66908664  0.67334541  0.66930092  1
  Fe  Fe53  1  0.83742041  0.83786257  0.83692141  1
" 