5021,Ni27Fe66Cr5_17,-233.386078256645, 193.327658946627,Ni27Fe66Cr5,"# generated using pymatgen
 data_Cr2Fe18Ni7
_symmetry_space_group_name_H-M   'P 1'
_cell_length_a   7.41999904
_cell_length_b   7.41999904
_cell_length_c   10.49346327
_cell_angle_alpha   90.00000000
_cell_angle_beta   90.00000000
_cell_angle_gamma   90.00000000
_symmetry_Int_Tables_number   1
_chemical_formula_structural   Cr2Fe18Ni7
_chemical_formula_sum   'Cr4 Fe36 Ni14'
_cell_volume   577.73216096
_cell_formula_units_Z   2
loop_
 _symmetry_equiv_pos_site_id
 _symmetry_equiv_pos_as_xyz
  1  'x, y, z'
loop_
 _atom_site_type_symbol
 _atom_site_label
 _atom_site_symmetry_multiplicity
 _atom_site_fract_x
 _atom_site_fract_y
 _atom_site_fract_z
 _atom_site_occupancy
  Ni  Ni0  1  1.00256869  1.00183026  0.00361770  1
  Fe  Fe1  1  0.16627708  0.16857646  0.16881296  1
  Fe  Fe2  1  1.00199797  0.00419332  0.33569983  1
  Fe  Fe3  1  0.00353702  0.33398912  0.00347926  1
  Fe  Fe4  1  0.16953899  0.50208689  0.16875093  1
  Fe  Fe5  1  1.00223290  0.33417731  0.33490932  1
  Ni  Ni6  1  0.00427282  0.66768361  1.00298779  1
  Fe  Fe7  1  0.16916141  0.83805403  0.16713886  1
  Cr  Cr8  1  0.00360502  0.67105857  0.33622603  1
  Ni  Ni9  1  0.33690943  0.00369505  1.00194534  1
  Cr  Cr10  1  0.50161272  0.16849654  0.16821771  1
  Fe  Fe11  1  0.33521024  1.00195273  0.33729118  1
  Fe  Fe12  1  0.33388385  0.33678100  1.00163198  1
  Fe  Fe13  1  0.50598188  0.50427566  0.16899303  1
  Fe  Fe14  1  0.33613818  0.33625268  0.33656023  1
  Fe  Fe15  1  0.33634998  0.67236525  1.00228029  1
  Fe  Fe16  1  0.50515138  0.83538041  0.16945393  1
  Fe  Fe17  1  0.33915640  0.67057582  0.33673871  1
  Ni  Ni18  1  0.66968067  0.00428108  1.00274498  1
  Ni  Ni19  1  0.83611880  0.16926516  0.16916615  1
  Fe  Fe20  1  0.67175803  1.00151086  0.33719230  1
  Fe  Fe21  1  0.67247427  0.33710180  1.00250098  1
  Ni  Ni22  1  0.83745215  0.50381980  0.16823418  1
  Fe  Fe23  1  0.67118849  0.33698899  0.33629600  1
  Fe  Fe24  1  0.67090175  0.67265745  1.00260375  1
  Ni  Ni25  1  0.83638632  0.83614096  0.16742386  1
  Fe  Fe26  1  0.66977842  0.67043506  0.33580802  1
  Ni  Ni27  1  0.17030578  0.17009108  0.50306856  1
  Fe  Fe28  1  0.00539284  1.00217987  0.67052890  1
  Ni  Ni29  1  0.17049823  0.16972038  0.83715532  1
  Cr  Cr30  1  0.16863822  0.50162185  0.50552624  1
  Fe  Fe31  1  1.00235180  0.33393203  0.67169580  1
  Fe  Fe32  1  0.16939984  0.50381780  0.83520668  1
  Fe  Fe33  1  0.17094966  0.83940986  0.50487011  1
  Ni  Ni34  1  1.00312906  0.66917111  0.67029156  1
  Fe  Fe35  1  0.16911424  0.83651512  0.83725294  1
  Ni  Ni36  1  0.50118611  0.17004780  0.50389460  1
  Fe  Fe37  1  0.33389173  1.00198565  0.67031273  1
  Fe  Fe38  1  0.50208369  0.17114294  0.83844507  1
  Fe  Fe39  1  0.50393859  0.50316753  0.50361373  1
  Fe  Fe40  1  0.33708571  0.33461950  0.67158631  1
  Fe  Fe41  1  0.50174351  0.50314445  0.83644073  1
  Ni  Ni42  1  0.50470318  0.83676093  0.50276671  1
  Ni  Ni43  1  0.33582147  0.66963403  0.66947834  1
  Fe  Fe44  1  0.50109109  0.83674120  0.83655817  1
  Fe  Fe45  1  0.83684836  0.16893284  0.50135800  1
  Cr  Cr46  1  0.66907508  0.00736495  0.67117234  1
  Fe  Fe47  1  0.83856023  0.17009898  0.83928688  1
  Fe  Fe48  1  0.83358968  0.50186468  0.50377693  1
  Fe  Fe49  1  0.66957133  0.34064860  0.67028182  1
  Fe  Fe50  1  0.83845204  0.50317071  0.83732161  1
  Ni  Ni51  1  0.83602966  0.83505229  0.50483290  1
  Fe  Fe52  1  0.66941528  0.67016873  0.67010276  1
  Fe  Fe53  1  0.83900974  0.83657023  0.83766999  1
" 