1962,Ni27Fe49Cr23_3,-228.396314974871, 191.773066201621,Ni27Fe49Cr23,"# generated using pymatgen
 data_Cr7Fe13Ni7
_symmetry_space_group_name_H-M   'P 1'
_cell_length_a   7.45546233
_cell_length_b   7.45546233
_cell_length_c   10.54361593
_cell_angle_alpha   90.00000000
_cell_angle_beta   90.00000000
_cell_angle_gamma   90.00000000
_symmetry_Int_Tables_number   1
_chemical_formula_structural   Cr7Fe13Ni7
_chemical_formula_sum   'Cr14 Fe26 Ni14'
_cell_volume   586.05548866
_cell_formula_units_Z   2
loop_
 _symmetry_equiv_pos_site_id
 _symmetry_equiv_pos_as_xyz
  1  'x, y, z'
loop_
 _atom_site_type_symbol
 _atom_site_label
 _atom_site_symmetry_multiplicity
 _atom_site_fract_x
 _atom_site_fract_y
 _atom_site_fract_z
 _atom_site_occupancy
  Ni  Ni0  1  0.00092444  0.00096776  1.00043153  1
  Cr  Cr1  1  0.16720995  0.16668490  0.16651599  1
  Ni  Ni2  1  0.99968495  0.00191381  0.33532053  1
  Ni  Ni3  1  1.00002024  0.33498803  0.00237548  1
  Fe  Fe4  1  0.16469271  0.50226916  0.16659955  1
  Fe  Fe5  1  1.00003742  0.33459172  0.33526016  1
  Ni  Ni6  1  0.00177222  0.66637450  0.99975100  1
  Ni  Ni7  1  0.16717343  0.83467921  0.16623949  1
  Ni  Ni8  1  0.99943956  0.66637300  0.33375980  1
  Fe  Fe9  1  0.33345142  0.99940809  0.00187333  1
  Fe  Fe10  1  0.50163916  0.16513306  0.16717802  1
  Fe  Fe11  1  0.33401288  0.00116514  0.33382443  1
  Fe  Fe12  1  0.33251770  0.33454407  0.99994006  1
  Cr  Cr13  1  0.50182631  0.49950165  0.16731028  1
  Fe  Fe14  1  0.33291786  0.33264544  0.33610378  1
  Cr  Cr15  1  0.33295592  0.66855354  0.99989326  1
  Ni  Ni16  1  0.50009588  0.83667906  0.16805558  1
  Cr  Cr17  1  0.33451284  0.66797956  0.33372233  1
  Fe  Fe18  1  0.66781954  0.00098179  0.00107025  1
  Fe  Fe19  1  0.83341925  0.16759003  0.16728187  1
  Fe  Fe20  1  0.66785543  1.00043406  0.33545578  1
  Fe  Fe21  1  0.66946841  0.33367646  0.00146469  1
  Fe  Fe22  1  0.83673723  0.50004778  0.16817038  1
  Fe  Fe23  1  0.66937653  0.33379291  0.33513624  1
  Cr  Cr24  1  0.66753685  0.66750483  1.00041898  1
  Cr  Cr25  1  0.83573465  0.83370466  0.16865876  1
  Fe  Fe26  1  0.66980138  0.66810245  0.33556928  1
  Ni  Ni27  1  0.16841690  0.16942052  0.49946183  1
  Cr  Cr28  1  0.99830019  1.00075146  0.66659079  1
  Cr  Cr29  1  0.16808133  0.16824599  0.83577709  1
  Fe  Fe30  1  0.16603652  0.49899615  0.50135928  1
  Cr  Cr31  1  0.00156047  0.33496740  0.66503476  1
  Ni  Ni32  1  0.16793811  0.50305177  0.83400009  1
  Cr  Cr33  1  0.16560391  0.83420160  0.50055600  1
  Fe  Fe34  1  0.00126193  0.66668366  0.66786309  1
  Fe  Fe35  1  0.16627493  0.83198890  0.83565921  1
  Fe  Fe36  1  0.50212631  0.16799175  0.50100435  1
  Cr  Cr37  1  0.33543324  0.00099168  0.66636756  1
  Cr  Cr38  1  0.50152431  0.16882572  0.83520100  1
  Fe  Fe39  1  0.50133730  0.49890419  0.50093238  1
  Ni  Ni40  1  0.33498410  0.33715618  0.66585890  1
  Fe  Fe41  1  0.49927129  0.49953244  0.83332465  1
  Fe  Fe42  1  0.50395538  0.83543735  0.50007500  1
  Fe  Fe43  1  0.33354820  0.66530652  0.66849938  1
  Fe  Fe44  1  0.50063893  0.83423004  0.83425609  1
  Ni  Ni45  1  0.83274078  0.16736137  0.49972328  1
  Ni  Ni46  1  0.66725638  0.99973644  0.66584777  1
  Cr  Cr47  1  0.83272342  0.16672070  0.83530630  1
  Ni  Ni48  1  0.83307156  0.50104692  0.49934878  1
  Fe  Fe49  1  0.66616774  0.33326665  0.66573022  1
  Fe  Fe50  1  0.83577894  0.50113477  0.83494559  1
  Ni  Ni51  1  0.83273234  0.83392181  0.50010849  1
  Cr  Cr52  1  0.66714273  0.66817509  0.66714518  1
  Fe  Fe53  1  0.83541480  0.83362242  0.83459826  1
" 