3291,Ni27Fe46Cr26_12,-227.124040660601, 186.231929409717,Ni27Fe46Cr26,"# generated using pymatgen
 data_Cr8Fe12Ni7
_symmetry_space_group_name_H-M   'P 1'
_cell_length_a   7.46180716
_cell_length_b   7.46180716
_cell_length_c   10.55258889
_cell_angle_alpha   90.00000000
_cell_angle_beta   90.00000000
_cell_angle_gamma   90.00000000
_symmetry_Int_Tables_number   1
_chemical_formula_structural   Cr8Fe12Ni7
_chemical_formula_sum   'Cr16 Fe24 Ni14'
_cell_volume   587.55301811
_cell_formula_units_Z   2
loop_
 _symmetry_equiv_pos_site_id
 _symmetry_equiv_pos_as_xyz
  1  'x, y, z'
loop_
 _atom_site_type_symbol
 _atom_site_label
 _atom_site_symmetry_multiplicity
 _atom_site_fract_x
 _atom_site_fract_y
 _atom_site_fract_z
 _atom_site_occupancy
  Ni  Ni0  1  0.99945325  0.99701068  0.00222888  1
  Cr  Cr1  1  0.16758571  0.16526528  0.16762901  1
  Fe  Fe2  1  0.99931273  0.00076037  0.33174834  1
  Cr  Cr3  1  0.99836498  0.33380131  0.99995562  1
  Cr  Cr4  1  0.16791247  0.49974046  0.16713824  1
  Ni  Ni5  1  0.99767052  0.33456920  0.33270292  1
  Fe  Fe6  1  0.99883327  0.66966679  1.00026547  1
  Ni  Ni7  1  0.16615874  0.83418803  0.16678217  1
  Fe  Fe8  1  0.00095291  0.66925092  0.33144317  1
  Fe  Fe9  1  0.33500660  0.99637710  0.00117913  1
  Cr  Cr10  1  0.49984357  0.16596491  0.16679284  1
  Ni  Ni11  1  0.33473631  0.99591863  0.33305499  1
  Fe  Fe12  1  0.33577694  0.33506980  1.00014691  1
  Ni  Ni13  1  0.50250073  0.50231649  0.16713138  1
  Ni  Ni14  1  0.33526170  0.33389911  0.33241492  1
  Fe  Fe15  1  0.33500827  0.66936331  0.00175930  1
  Ni  Ni16  1  0.50233477  0.83332497  0.16682306  1
  Fe  Fe17  1  0.33517566  0.66867239  0.33101017  1
  Ni  Ni18  1  0.66763090  0.99742956  0.99856688  1
  Fe  Fe19  1  0.83205727  0.16394250  0.16821143  1
  Ni  Ni20  1  0.66542144  0.99959632  0.33469575  1
  Cr  Cr21  1  0.66726995  0.33527848  1.00013301  1
  Fe  Fe22  1  0.83210616  0.50235370  0.16864907  1
  Ni  Ni23  1  0.66758377  0.33314830  0.33268948  1
  Fe  Fe24  1  0.66764283  0.66911310  0.00051667  1
  Fe  Fe25  1  0.83204415  0.83463963  0.16647345  1
  Fe  Fe26  1  0.66535412  0.66787457  0.33076607  1
  Cr  Cr27  1  0.16965308  0.16653098  0.49614311  1
  Cr  Cr28  1  0.00077496  0.99958561  0.66622926  1
  Cr  Cr29  1  0.17024942  0.16511210  0.83741022  1
  Cr  Cr30  1  0.16666220  0.50212750  0.50026627  1
  Cr  Cr31  1  0.99812826  0.33382767  0.66851123  1
  Fe  Fe32  1  0.16652463  0.50470431  0.83500555  1
  Fe  Fe33  1  0.16999538  0.83310661  0.49862279  1
  Fe  Fe34  1  0.00212247  0.66863342  0.66973466  1
  Fe  Fe35  1  0.16622578  0.83204597  0.83571492  1
  Ni  Ni36  1  0.50031351  0.16407197  0.49996720  1
  Ni  Ni37  1  0.33500526  0.99577295  0.66732816  1
  Fe  Fe38  1  0.50289544  0.16304269  0.83410260  1
  Cr  Cr39  1  0.50028181  0.50008729  0.49694729  1
  Cr  Cr40  1  0.33513685  0.33336802  0.66903786  1
  Fe  Fe41  1  0.49995321  0.50285126  0.83624793  1
  Fe  Fe42  1  0.49831458  0.83529363  0.49899774  1
  Fe  Fe43  1  0.33220676  0.66962023  0.66843288  1
  Fe  Fe44  1  0.50029464  0.83466051  0.83557306  1
  Fe  Fe45  1  0.83147571  0.16713170  0.49707469  1
  Fe  Fe46  1  0.66470579  0.00048030  0.66802240  1
  Fe  Fe47  1  0.83284836  0.16318577  0.83553871  1
  Cr  Cr48  1  0.83386482  0.50287614  0.49820077  1
  Cr  Cr49  1  0.66812057  0.33227227  0.66766806  1
  Ni  Ni50  1  0.83379436  0.50513583  0.83413585  1
  Cr  Cr51  1  0.83248612  0.83356491  0.49953927  1
  Cr  Cr52  1  0.66491125  0.66841684  0.66844271  1
  Ni  Ni53  1  0.83301724  0.83291976  0.83515865  1
" 