6612,Ni27Fe49Cr23_14,-228.286986421935, 190.96334639075,Ni27Fe49Cr23,"# generated using pymatgen
 data_Cr7Fe13Ni7
_symmetry_space_group_name_H-M   'P 1'
_cell_length_a   7.45491197
_cell_length_b   7.45491197
_cell_length_c   10.54283762
_cell_angle_alpha   90.00000000
_cell_angle_beta   90.00000000
_cell_angle_gamma   90.00000000
_symmetry_Int_Tables_number   1
_chemical_formula_structural   Cr7Fe13Ni7
_chemical_formula_sum   'Cr14 Fe26 Ni14'
_cell_volume   585.92571259
_cell_formula_units_Z   2
loop_
 _symmetry_equiv_pos_site_id
 _symmetry_equiv_pos_as_xyz
  1  'x, y, z'
loop_
 _atom_site_type_symbol
 _atom_site_label
 _atom_site_symmetry_multiplicity
 _atom_site_fract_x
 _atom_site_fract_y
 _atom_site_fract_z
 _atom_site_occupancy
  Fe  Fe0  1  0.99964097  0.99845860  1.00038225  1
  Ni  Ni1  1  0.16697673  0.16679073  0.16999065  1
  Fe  Fe2  1  0.00333384  0.00097731  0.33539799  1
  Fe  Fe3  1  1.00073311  0.33243990  1.00004486  1
  Cr  Cr4  1  0.16803907  0.50096674  0.16596908  1
  Fe  Fe5  1  0.00128957  0.33180000  0.33611464  1
  Fe  Fe6  1  0.00102252  0.67190320  1.00042837  1
  Fe  Fe7  1  0.16640567  0.83582224  0.16971834  1
  Fe  Fe8  1  0.00165987  0.67013991  0.33504637  1
  Cr  Cr9  1  0.33347689  1.00026838  0.00126255  1
  Cr  Cr10  1  0.50094259  0.16730687  0.16872111  1
  Fe  Fe11  1  0.33231009  0.99977722  0.33564884  1
  Fe  Fe12  1  0.33651661  0.33440718  0.00099736  1
  Fe  Fe13  1  0.49988388  0.50009273  0.16918631  1
  Ni  Ni14  1  0.33286070  0.33412406  0.33453082  1
  Fe  Fe15  1  0.33497445  0.66836461  0.00107104  1
  Fe  Fe16  1  0.49919085  0.83245388  0.16955369  1
  Ni  Ni17  1  0.33474353  0.66796976  0.33239266  1
  Fe  Fe18  1  0.66813204  1.00001589  0.99898097  1
  Cr  Cr19  1  0.83414635  0.16684262  0.16442162  1
  Cr  Cr20  1  0.66982171  0.99866516  0.33482483  1
  Fe  Fe21  1  0.66582637  0.33325052  0.99817479  1
  Cr  Cr22  1  0.83362214  0.50037735  0.17062423  1
  Fe  Fe23  1  0.66639168  0.33490129  0.33725741  1
  Cr  Cr24  1  0.66738015  0.66788576  0.00253942  1
  Fe  Fe25  1  0.83685321  0.83476056  0.16696870  1
  Fe  Fe26  1  0.66539774  0.66627964  0.33568213  1
  Fe  Fe27  1  0.16656459  0.16644758  0.49871830  1
  Fe  Fe28  1  0.99737482  1.00056694  0.66611102  1
  Cr  Cr29  1  0.16544861  0.16816078  0.83309367  1
  Cr  Cr30  1  0.16764190  0.50262543  0.50220275  1
  Ni  Ni31  1  0.99714679  0.33103683  0.66622172  1
  Cr  Cr32  1  0.16711070  0.50274103  0.83484470  1
  Ni  Ni33  1  0.16747085  0.83397176  0.49963302  1
  Fe  Fe34  1  0.99918080  0.66947286  0.66621670  1
  Fe  Fe35  1  0.16450927  0.83546667  0.83389621  1
  Fe  Fe36  1  0.50209907  0.16835982  0.49990147  1
  Cr  Cr37  1  0.33394712  1.00042542  0.66442566  1
  Ni  Ni38  1  0.50423788  0.16673286  0.83328771  1
  Ni  Ni39  1  0.50155556  0.50228980  0.49888863  1
  Cr  Cr40  1  0.33642613  0.33332632  0.66719413  1
  Ni  Ni41  1  0.50191365  0.50059320  0.83575695  1
  Ni  Ni42  1  0.50030026  0.83299227  0.50019707  1
  Cr  Cr43  1  0.33740741  0.66883265  0.67037958  1
  Fe  Fe44  1  0.50506754  0.83521148  0.83313409  1
  Ni  Ni45  1  0.83394251  0.16730535  0.50181039  1
  Fe  Fe46  1  0.66882253  0.00175761  0.66668857  1
  Ni  Ni47  1  0.83182075  0.16445806  0.83509378  1
  Fe  Fe48  1  0.83230731  0.50153950  0.50148518  1
  Ni  Ni49  1  0.66911281  0.33467411  0.66695297  1
  Cr  Cr50  1  0.83461474  0.50046972  0.83115638  1
  Fe  Fe51  1  0.83424245  0.83309441  0.50237106  1
  Ni  Ni52  1  0.66822623  0.66811167  0.66562718  1
  Ni  Ni53  1  0.83388790  0.83624630  0.83273261  1
" 