2187,Ni27Fe66Cr5_5,-233.09536200022, 192.417298710994,Ni27Fe66Cr5,"# generated using pymatgen
 data_Cr2Fe18Ni7
_symmetry_space_group_name_H-M   'P 1'
_cell_length_a   7.41638540
_cell_length_b   7.41638540
_cell_length_c   10.48835282
_cell_angle_alpha   90.00000000
_cell_angle_beta   90.00000000
_cell_angle_gamma   90.00000000
_symmetry_Int_Tables_number   1
_chemical_formula_structural   Cr2Fe18Ni7
_chemical_formula_sum   'Cr4 Fe36 Ni14'
_cell_volume   576.88848350
_cell_formula_units_Z   2
loop_
 _symmetry_equiv_pos_site_id
 _symmetry_equiv_pos_as_xyz
  1  'x, y, z'
loop_
 _atom_site_type_symbol
 _atom_site_label
 _atom_site_symmetry_multiplicity
 _atom_site_fract_x
 _atom_site_fract_y
 _atom_site_fract_z
 _atom_site_occupancy
  Fe  Fe0  1  0.00567313  1.00279187  0.00419783  1
  Fe  Fe1  1  0.16984685  0.17029145  0.16904085  1
  Fe  Fe2  1  1.00267280  0.00360215  0.33692254  1
  Fe  Fe3  1  0.00472621  0.33683412  0.00532778  1
  Fe  Fe4  1  0.16954741  0.50386533  0.16960723  1
  Ni  Ni5  1  1.00328996  0.33800444  0.33662064  1
  Fe  Fe6  1  0.00401624  0.67062115  0.00412921  1
  Fe  Fe7  1  0.17034571  0.83608971  0.17031195  1
  Ni  Ni8  1  1.00297290  0.66915033  0.33635293  1
  Fe  Fe9  1  0.33576494  1.00323657  1.00266772  1
  Fe  Fe10  1  0.50331026  0.17053252  0.17052258  1
  Fe  Fe11  1  0.33640880  1.00210746  0.33734650  1
  Ni  Ni12  1  0.33560545  0.33665350  1.00243548  1
  Ni  Ni13  1  0.50425268  0.50436315  0.16837099  1
  Cr  Cr14  1  0.33565623  0.33618928  0.33749712  1
  Fe  Fe15  1  0.33789764  0.66970621  0.00353985  1
  Fe  Fe16  1  0.50309418  0.83556714  0.17027217  1
  Fe  Fe17  1  0.33639540  0.67126201  0.33633878  1
  Cr  Cr18  1  0.66915801  1.00106381  1.00270444  1
  Fe  Fe19  1  0.83708544  0.17133091  0.17148109  1
  Ni  Ni20  1  0.66972637  1.00282164  0.33713214  1
  Fe  Fe21  1  0.66789023  0.33895523  0.00521510  1
  Fe  Fe22  1  0.83656551  0.50364979  0.16996583  1
  Fe  Fe23  1  0.67223167  0.33643933  0.33688430  1
  Ni  Ni24  1  0.67023963  0.67045753  0.00408459  1
  Fe  Fe25  1  0.83680541  0.83526442  0.17139813  1
  Fe  Fe26  1  0.67074319  0.66985086  0.33647594  1
  Fe  Fe27  1  0.16898550  0.16900787  0.50418121  1
  Fe  Fe28  1  1.00326156  1.00175654  0.66912542  1
  Fe  Fe29  1  0.17235376  0.16984924  0.83702470  1
  Fe  Fe30  1  0.16806042  0.50385879  0.50388997  1
  Fe  Fe31  1  0.00424829  0.33651688  0.66800403  1
  Fe  Fe32  1  0.17170597  0.50355880  0.83674728  1
  Fe  Fe33  1  0.16943408  0.83738064  0.50354923  1
  Ni  Ni34  1  1.00298105  0.67006432  0.67001342  1
  Fe  Fe35  1  0.17014676  0.83684015  0.83638613  1
  Ni  Ni36  1  0.50470153  0.16935580  0.50441425  1
  Ni  Ni37  1  0.33821536  0.00527764  0.67053293  1
  Fe  Fe38  1  0.50096423  0.17027929  0.83532411  1
  Fe  Fe39  1  0.50525961  0.50380361  0.50387685  1
  Fe  Fe40  1  0.33743277  0.33660411  0.67023973  1
  Fe  Fe41  1  0.50237594  0.50389829  0.83770962  1
  Fe  Fe42  1  0.50474936  0.83830006  0.50435661  1
  Fe  Fe43  1  0.33736920  0.67116516  0.67036486  1
  Ni  Ni44  1  0.50147304  0.83567716  0.83597460  1
  Ni  Ni45  1  0.83654430  0.16995740  0.50289888  1
  Ni  Ni46  1  0.66852704  1.00193773  0.66985363  1
  Cr  Cr47  1  0.83722533  0.16968338  0.83517789  1
  Fe  Fe48  1  0.83692859  0.50335625  0.50366675  1
  Fe  Fe49  1  0.66856732  0.33628059  0.66814310  1
  Cr  Cr50  1  0.83607863  0.50440050  0.83693542  1
  Ni  Ni51  1  0.83733749  0.83718063  0.50448498  1
  Ni  Ni52  1  0.67100032  0.67231939  0.66949846  1
  Fe  Fe53  1  0.83659051  0.83542804  0.83522239  1
" 