80,Ni27Fe49Cr23_0,-228.641754701144, 191.613030246155,Ni27Fe49Cr23,"# generated using pymatgen
 data_Cr7Fe13Ni7
_symmetry_space_group_name_H-M   'P 1'
_cell_length_a   7.46242964
_cell_length_b   7.46242964
_cell_length_c   10.55346920
_cell_angle_alpha   90.00000000
_cell_angle_beta   90.00000000
_cell_angle_gamma   90.00000000
_symmetry_Int_Tables_number   1
_chemical_formula_structural   Cr7Fe13Ni7
_chemical_formula_sum   'Cr14 Fe26 Ni14'
_cell_volume   587.70007362
_cell_formula_units_Z   2
loop_
 _symmetry_equiv_pos_site_id
 _symmetry_equiv_pos_as_xyz
  1  'x, y, z'
loop_
 _atom_site_type_symbol
 _atom_site_label
 _atom_site_symmetry_multiplicity
 _atom_site_fract_x
 _atom_site_fract_y
 _atom_site_fract_z
 _atom_site_occupancy
  Fe  Fe0  1  0.99886312  1.00030929  0.00033212  1
  Cr  Cr1  1  0.16406323  0.16410493  0.16586400  1
  Ni  Ni2  1  0.99881360  0.99975316  0.33308617  1
  Fe  Fe3  1  0.99728761  0.33160366  0.99920446  1
  Cr  Cr4  1  0.16644159  0.50324108  0.16776838  1
  Fe  Fe5  1  0.99866998  0.33381656  0.33350875  1
  Cr  Cr6  1  1.00023717  0.66822036  0.00106366  1
  Ni  Ni7  1  0.16725719  0.83406275  0.16715897  1
  Fe  Fe8  1  1.00014533  0.66837249  0.33262025  1
  Fe  Fe9  1  0.33421997  0.99871057  0.99911674  1
  Fe  Fe10  1  0.50250195  0.16571975  0.16662063  1
  Fe  Fe11  1  0.33344375  0.99917588  0.33374541  1
  Fe  Fe12  1  0.33574276  0.33313958  0.99889262  1
  Cr  Cr13  1  0.50119993  0.50130645  0.16638732  1
  Cr  Cr14  1  0.33326929  0.33236779  0.33710356  1
  Ni  Ni15  1  0.33318975  0.66755727  0.99887550  1
  Cr  Cr16  1  0.49773882  0.83407476  0.16861098  1
  Ni  Ni17  1  0.33260369  0.66723909  0.33332226  1
  Ni  Ni18  1  0.66780397  0.00350727  1.00015718  1
  Ni  Ni19  1  0.83301714  0.16718644  0.16697267  1
  Fe  Fe20  1  0.66752858  0.00065254  0.33305262  1
  Fe  Fe21  1  0.66789740  0.33180858  0.99917392  1
  Fe  Fe22  1  0.83389619  0.49909190  0.16840602  1
  Fe  Fe23  1  0.66825403  0.33246275  0.33233374  1
  Cr  Cr24  1  0.66702150  0.66776728  0.99791828  1
  Fe  Fe25  1  0.83544268  0.83579777  0.16825536  1
  Ni  Ni26  1  0.66911069  0.66812395  0.33329244  1
  Fe  Fe27  1  0.16876836  0.16695128  0.49987242  1
  Fe  Fe28  1  0.99914167  0.99900544  0.66825599  1
  Fe  Fe29  1  0.16688728  0.16522305  0.83436456  1
  Fe  Fe30  1  0.16786264  0.50000511  0.50002893  1
  Cr  Cr31  1  0.00197020  0.33322851  0.66679102  1
  Cr  Cr32  1  0.16895471  0.50086495  0.83414177  1
  Cr  Cr33  1  0.16667553  0.83349754  0.49977020  1
  Fe  Fe34  1  0.99850208  0.66936113  0.66834249  1
  Fe  Fe35  1  0.16742631  0.83460502  0.83368188  1
  Ni  Ni36  1  0.49987141  0.16624098  0.50037081  1
  Fe  Fe37  1  0.33467099  0.00187982  0.66806219  1
  Fe  Fe38  1  0.50245482  0.16653339  0.83302595  1
  Cr  Cr39  1  0.49984859  0.50055036  0.50163080  1
  Fe  Fe40  1  0.33600626  0.33175935  0.66658740  1
  Ni  Ni41  1  0.50055098  0.50107487  0.83265960  1
  Cr  Cr42  1  0.50078862  0.83459869  0.49936103  1
  Fe  Fe43  1  0.33450790  0.66729147  0.66887852  1
  Ni  Ni44  1  0.49947768  0.83338261  0.83275004  1
  Cr  Cr45  1  0.83289004  0.16536435  0.49944590  1
  Ni  Ni46  1  0.66685158  0.99956175  0.66767717  1
  Ni  Ni47  1  0.83337123  0.16587303  0.83485276  1
  Cr  Cr48  1  0.83399251  0.50089139  0.49914658  1
  Fe  Fe49  1  0.66504537  0.33239456  0.66941770  1
  Ni  Ni50  1  0.83115721  0.49842850  0.83353471  1
  Fe  Fe51  1  0.83263421  0.83431319  0.50052309  1
  Fe  Fe52  1  0.66791571  0.66802882  0.66976104  1
  Ni  Ni53  1  0.83282362  0.83662533  0.83092981  1
" 