2507,Ni27Fe49Cr23_4,-227.949332619529, 186.445697111339,Ni27Fe49Cr23,"# generated using pymatgen
 data_Cr7Fe13Ni7
_symmetry_space_group_name_H-M   'P 1'
_cell_length_a   7.45283449
_cell_length_b   7.45283449
_cell_length_c   10.53989961
_cell_angle_alpha   90.00000000
_cell_angle_beta   90.00000000
_cell_angle_gamma   90.00000000
_symmetry_Int_Tables_number   1
_chemical_formula_structural   Cr7Fe13Ni7
_chemical_formula_sum   'Cr14 Fe26 Ni14'
_cell_volume   585.43600422
_cell_formula_units_Z   2
loop_
 _symmetry_equiv_pos_site_id
 _symmetry_equiv_pos_as_xyz
  1  'x, y, z'
loop_
 _atom_site_type_symbol
 _atom_site_label
 _atom_site_symmetry_multiplicity
 _atom_site_fract_x
 _atom_site_fract_y
 _atom_site_fract_z
 _atom_site_occupancy
  Fe  Fe0  1  0.00109683  0.99691153  0.00211769  1
  Fe  Fe1  1  0.16760578  0.16484717  0.16844647  1
  Ni  Ni2  1  0.00137979  1.00010130  0.33321875  1
  Cr  Cr3  1  0.00215512  0.33426797  1.00044064  1
  Cr  Cr4  1  0.16663063  0.50624564  0.16792024  1
  Ni  Ni5  1  0.00193053  0.33084087  0.33620251  1
  Ni  Ni6  1  0.99970866  0.67192722  0.99863893  1
  Ni  Ni7  1  0.16755427  0.83454312  0.16798242  1
  Fe  Fe8  1  0.99908338  0.67117333  0.33464834  1
  Fe  Fe9  1  0.33369412  0.99593045  0.00137214  1
  Cr  Cr10  1  0.50311064  0.16417985  0.16688639  1
  Fe  Fe11  1  0.33482623  0.99906040  0.33526827  1
  Cr  Cr12  1  0.33518542  0.33599266  0.00124602  1
  Ni  Ni13  1  0.50141853  0.50493263  0.16966856  1
  Cr  Cr14  1  0.33549826  0.33434886  0.33345882  1
  Fe  Fe15  1  0.33562112  0.66931639  1.00025523  1
  Fe  Fe16  1  0.50152950  0.83176169  0.16757681  1
  Fe  Fe17  1  0.33554349  0.67170322  0.33451768  1
  Fe  Fe18  1  0.66823639  0.99649182  0.00119220  1
  Cr  Cr19  1  0.83357108  0.16494478  0.16867244  1
  Ni  Ni20  1  0.66881398  0.99716113  0.33571106  1
  Cr  Cr21  1  0.66552341  0.33950507  0.00161921  1
  Cr  Cr22  1  0.83402614  0.50291004  0.17052482  1
  Fe  Fe23  1  0.66844980  0.33337863  0.33719010  1
  Ni  Ni24  1  0.66667966  0.67075553  1.00055878  1
  Fe  Fe25  1  0.83384166  0.83276255  0.16818409  1
  Ni  Ni26  1  0.66558604  0.66937331  0.33489398  1
  Fe  Fe27  1  0.16902643  0.16689099  0.50107341  1
  Cr  Cr28  1  1.00066551  0.99863581  0.66637723  1
  Cr  Cr29  1  0.16879858  0.16674598  0.83326416  1
  Cr  Cr30  1  0.16530615  0.50398837  0.50100482  1
  Fe  Fe31  1  0.99907529  0.33692688  0.66664918  1
  Fe  Fe32  1  0.16805420  0.50356862  0.83332690  1
  Fe  Fe33  1  0.16845906  0.83639857  0.49852875  1
  Fe  Fe34  1  0.99835601  0.66614422  0.66910792  1
  Fe  Fe35  1  0.16909090  0.83314755  0.83616023  1
  Ni  Ni36  1  0.50271907  0.16563508  0.50287959  1
  Fe  Fe37  1  0.33729163  1.00010826  0.66595069  1
  Cr  Cr38  1  0.50252883  0.16503941  0.83261464  1
  Fe  Fe39  1  0.50331230  0.50048440  0.50128804  1
  Ni  Ni40  1  0.33535480  0.33424220  0.66776564  1
  Ni  Ni41  1  0.50170881  0.50311895  0.83328125  1
  Fe  Fe42  1  0.50250192  0.83413552  0.50105002  1
  Cr  Cr43  1  0.33656767  0.66845777  0.66863135  1
  Ni  Ni44  1  0.50181647  0.83309938  0.83482719  1
  Fe  Fe45  1  0.83338077  0.16809612  0.49952785  1
  Fe  Fe46  1  0.66564960  0.99869974  0.66522416  1
  Cr  Cr47  1  0.83152469  0.16689777  0.83355963  1
  Fe  Fe48  1  0.83112539  0.50112254  0.50005808  1
  Ni  Ni49  1  0.66617625  0.33681502  0.66558345  1
  Fe  Fe50  1  0.83211267  0.50426743  0.83338386  1
  Fe  Fe51  1  0.83260421  0.83308703  0.49966257  1
  Ni  Ni52  1  0.66843254  0.66815546  0.66807077  1
  Fe  Fe53  1  0.83155081  0.83221479  0.83422707  1
" 