5315,Ni27Fe23Cr48_8,-219.776105084679, 178.553929569922,Ni27Fe23Cr48,"# generated using pymatgen
 data_Cr14Fe6Ni7
_symmetry_space_group_name_H-M   'P 1'
_cell_length_a   7.50877088
_cell_length_b   7.50877088
_cell_length_c   10.61900561
_cell_angle_alpha   90.00000000
_cell_angle_beta   90.00000000
_cell_angle_gamma   90.00000000
_symmetry_Int_Tables_number   1
_chemical_formula_structural   Cr14Fe6Ni7
_chemical_formula_sum   'Cr28 Fe12 Ni14'
_cell_volume   598.71695210
_cell_formula_units_Z   2
loop_
 _symmetry_equiv_pos_site_id
 _symmetry_equiv_pos_as_xyz
  1  'x, y, z'
loop_
 _atom_site_type_symbol
 _atom_site_label
 _atom_site_symmetry_multiplicity
 _atom_site_fract_x
 _atom_site_fract_y
 _atom_site_fract_z
 _atom_site_occupancy
  Ni  Ni0  1  0.99600867  0.99632907  0.99662289  1
  Ni  Ni1  1  0.16202132  0.16431878  0.16302079  1
  Cr  Cr2  1  -0.00202677  0.99636324  0.33222682  1
  Cr  Cr3  1  0.99693900  0.33110842  0.99701705  1
  Cr  Cr4  1  0.16227629  0.49667813  0.16501361  1
  Fe  Fe5  1  0.99599502  0.33143807  0.32914012  1
  Fe  Fe6  1  0.99689142  0.66334076  0.99717663  1
  Cr  Cr7  1  0.16188799  0.82997124  0.16128882  1
  Ni  Ni8  1  0.99047663  0.66452139  0.32775234  1
  Cr  Cr9  1  0.33013378  0.00072266  -0.00222218  1
  Fe  Fe10  1  0.49644912  0.16539618  0.16282178  1
  Cr  Cr11  1  0.33068763  -0.00191587  0.33146061  1
  Ni  Ni12  1  0.32984821  0.32754858  -0.00273750  1
  Cr  Cr13  1  0.49803096  0.49788173  0.16581299  1
  Cr  Cr14  1  0.33007466  0.32794451  0.32950194  1
  Cr  Cr15  1  0.32876877  0.66226933  0.99612222  1
  Cr  Cr16  1  0.50122306  0.83142342  0.16554746  1
  Fe  Fe17  1  0.33185961  0.66570700  0.33238395  1
  Fe  Fe18  1  0.66546266  -0.00030020  0.99651778  1
  Cr  Cr19  1  0.82973032  0.16226368  0.16500456  1
  Fe  Fe20  1  0.66457006  0.99338754  0.33205124  1
  Cr  Cr21  1  0.66293855  0.32980541  0.99479253  1
  Ni  Ni22  1  0.83068694  0.49833500  0.16566447  1
  Fe  Fe23  1  0.66537585  0.33295117  0.33006763  1
  Cr  Cr24  1  0.66876055  0.66361300  0.99673152  1
  Fe  Fe25  1  0.83182265  0.82835884  0.16492976  1
  Ni  Ni26  1  0.66674148  0.66454564  0.33319592  1
  Ni  Ni27  1  0.16281303  0.16274448  0.49841738  1
  Fe  Fe28  1  0.99662283  0.99632780  0.66389104  1
  Cr  Cr29  1  0.16275651  0.16304738  0.82877919  1
  Cr  Cr30  1  0.16394458  0.49615971  0.49261207  1
  Cr  Cr31  1  0.99691399  0.32958822  0.66381939  1
  Ni  Ni32  1  0.16270142  0.49806183  0.83396331  1
  Cr  Cr33  1  0.16317436  0.83108593  0.49986677  1
  Cr  Cr34  1  0.99402046  0.66488720  0.66764654  1
  Fe  Fe35  1  0.16299627  0.83183997  0.83138138  1
  Cr  Cr36  1  0.49850895  0.16410126  0.49726677  1
  Fe  Fe37  1  0.33100017  -0.00248081  0.66317975  1
  Ni  Ni38  1  0.49854008  0.16271484  0.83360981  1
  Ni  Ni39  1  0.49927526  0.50165657  0.49507434  1
  Cr  Cr40  1  0.33061843  0.32918815  0.66431497  1
  Cr  Cr41  1  0.49514200  0.49730002  0.82930391  1
  Ni  Ni42  1  0.50072994  0.82721267  0.49625666  1
  Cr  Cr43  1  0.33254127  0.66498303  0.66174981  1
  Cr  Cr44  1  0.49714291  0.83203856  0.82891090  1
  Cr  Cr45  1  0.83326125  0.16277159  0.49700718  1
  Cr  Cr46  1  0.66424934  0.99548251  0.66314539  1
  Ni  Ni47  1  0.83079599  0.16127554  0.83107047  1
  Cr  Cr48  1  0.82883946  0.49799978  0.49584182  1
  Cr  Cr49  1  0.66424069  0.33323300  0.66681501  1
  Fe  Fe50  1  0.83147829  0.49606142  0.83062242  1
  Ni  Ni51  1  0.82760761  0.82954897  0.49496380  1
  Ni  Ni52  1  0.66473272  0.66609888  0.66076977  1
  Cr  Cr53  1  0.83168945  0.83303646  0.83278612  1
" 