1025,Ni27Fe49Cr23_7,-228.117115041271, 185.752709152239,Ni27Fe49Cr23,"# generated using pymatgen
 data_Cr7Fe13Ni7
_symmetry_space_group_name_H-M   'P 1'
_cell_length_a   7.45490490
_cell_length_b   7.45490490
_cell_length_c   10.54282761
_cell_angle_alpha   90.00000000
_cell_angle_beta   90.00000000
_cell_angle_gamma   90.00000000
_symmetry_Int_Tables_number   1
_chemical_formula_structural   Cr7Fe13Ni7
_chemical_formula_sum   'Cr14 Fe26 Ni14'
_cell_volume   585.92404414
_cell_formula_units_Z   2
loop_
 _symmetry_equiv_pos_site_id
 _symmetry_equiv_pos_as_xyz
  1  'x, y, z'
loop_
 _atom_site_type_symbol
 _atom_site_label
 _atom_site_symmetry_multiplicity
 _atom_site_fract_x
 _atom_site_fract_y
 _atom_site_fract_z
 _atom_site_occupancy
  Fe  Fe0  1  0.00239921  0.00183800  0.99945302  1
  Cr  Cr1  1  0.16683916  0.16732997  0.16891514  1
  Ni  Ni2  1  1.00005088  0.99806378  0.33342850  1
  Ni  Ni3  1  1.00069490  0.33346879  0.99969511  1
  Ni  Ni4  1  0.16860591  0.50074622  0.16701074  1
  Fe  Fe5  1  0.00125823  0.33529271  0.33464594  1
  Cr  Cr6  1  0.00232148  0.66880615  0.00229007  1
  Fe  Fe7  1  0.16795190  0.83426054  0.16725622  1
  Cr  Cr8  1  0.00120338  0.66887830  0.33518188  1
  Ni  Ni9  1  0.33371580  0.99970491  0.99983041  1
  Cr  Cr10  1  0.50076037  0.16578984  0.16918494  1
  Fe  Fe11  1  0.33440394  0.99800392  0.33515973  1
  Cr  Cr12  1  0.33428842  0.33314894  0.99920899  1
  Cr  Cr13  1  0.50024492  0.50340189  0.16662364  1
  Fe  Fe14  1  0.33414066  0.33643917  0.33531441  1
  Ni  Ni15  1  0.33265687  0.66954695  0.99959169  1
  Cr  Cr16  1  0.50165842  0.83333626  0.16710988  1
  Fe  Fe17  1  0.33410338  0.66794235  0.33586189  1
  Fe  Fe18  1  0.66745752  1.00035307  0.99925038  1
  Cr  Cr19  1  0.83505881  0.16593321  0.16663037  1
  Ni  Ni20  1  0.66793081  0.99993334  0.33579776  1
  Ni  Ni21  1  0.66781095  0.33166285  0.99983091  1
  Cr  Cr22  1  0.83313837  0.50115106  0.16830038  1
  Fe  Fe23  1  0.66727713  0.33443554  0.33616265  1
  Fe  Fe24  1  0.66611833  0.66816758  0.99931136  1
  Ni  Ni25  1  0.83234469  0.83545720  0.16675351  1
  Ni  Ni26  1  0.66775331  0.66899150  0.33649309  1
  Cr  Cr27  1  0.16803714  0.16740696  0.50096052  1
  Fe  Fe28  1  1.00029884  1.00047212  0.66810978  1
  Ni  Ni29  1  0.16708602  0.16621008  0.83280395  1
  Ni  Ni30  1  0.17047422  0.50020783  0.50211133  1
  Fe  Fe31  1  0.00192848  0.33464260  0.66902173  1
  Fe  Fe32  1  0.16898510  0.50047948  0.83346603  1
  Fe  Fe33  1  0.16820948  0.83482276  0.50082006  1
  Cr  Cr34  1  0.00245283  0.66910415  0.66513468  1
  Fe  Fe35  1  0.16958059  0.83549278  0.83387138  1
  Fe  Fe36  1  0.50081432  0.16718459  0.50046103  1
  Fe  Fe37  1  0.33555003  1.00010517  0.66939013  1
  Fe  Fe38  1  0.50162225  0.16675659  0.83363253  1
  Fe  Fe39  1  0.50032569  0.50053639  0.50043025  1
  Fe  Fe40  1  0.33512864  0.33587631  0.66844886  1
  Fe  Fe41  1  0.49917176  0.50089975  0.83360055  1
  Fe  Fe42  1  0.49893767  0.83441701  0.49987466  1
  Ni  Ni43  1  0.33367156  0.66804883  0.66727794  1
  Fe  Fe44  1  0.49854731  0.83418446  0.83488241  1
  Cr  Cr45  1  0.83546259  0.16639521  0.50147195  1
  Fe  Fe46  1  0.66606717  1.00036776  0.66727990  1
  Fe  Fe47  1  0.83450602  0.16678709  0.83386943  1
  Fe  Fe48  1  0.83425863  0.49975305  0.50047141  1
  Ni  Ni49  1  0.66510457  0.33123618  0.66660012  1
  Cr  Cr50  1  0.83296289  0.50036033  0.83445022  1
  Ni  Ni51  1  0.83158037  0.83527405  0.50070696  1
  Cr  Cr52  1  0.66665609  0.66728242  0.66619232  1
  Fe  Fe53  1  0.83437018  0.83759023  0.83434548  1
" 