8752,Ni27Cr73_12,-229.370445867648, 151.160957838971,Ni27Cr73,"# generated using pymatgen
 data_Cr7Ni20
_symmetry_space_group_name_H-M   'P 1'
_cell_length_a   7.48001227
_cell_length_b   7.48001227
_cell_length_c   10.57833480
_cell_angle_alpha   90.00000000
_cell_angle_beta   90.00000000
_cell_angle_gamma   90.00000000
_symmetry_Int_Tables_number   1
_chemical_formula_structural   Cr7Ni20
_chemical_formula_sum   'Cr14 Ni40'
_cell_volume   591.86400498
_cell_formula_units_Z   2
loop_
 _symmetry_equiv_pos_site_id
 _symmetry_equiv_pos_as_xyz
  1  'x, y, z'
loop_
 _atom_site_type_symbol
 _atom_site_label
 _atom_site_symmetry_multiplicity
 _atom_site_fract_x
 _atom_site_fract_y
 _atom_site_fract_z
 _atom_site_occupancy
  Ni  Ni0  1  0.99838998  0.00041619  0.00019211  1
  Ni  Ni1  1  0.16582200  0.16227920  0.16435991  1
  Ni  Ni2  1  -0.00003093  0.99618158  0.33223598  1
  Ni  Ni3  1  0.00059347  0.33170951  0.99794122  1
  Cr  Cr4  1  0.16507226  0.50020711  0.16233353  1
  Cr  Cr5  1  -0.00051330  0.33076630  0.33019486  1
  Ni  Ni6  1  0.99750984  0.66528199  -0.00086392  1
  Ni  Ni7  1  0.16479139  0.83528165  0.16581042  1
  Ni  Ni8  1  0.99589013  0.67092024  0.33202561  1
  Ni  Ni9  1  0.33345015  0.00025667  0.00015710  1
  Ni  Ni10  1  0.49827006  0.16315966  0.16540044  1
  Ni  Ni11  1  0.33226778  -0.00072775  0.33320280  1
  Ni  Ni12  1  0.33009923  0.33066012  -0.00065634  1
  Ni  Ni13  1  0.50121475  0.50084969  0.16475931  1
  Cr  Cr14  1  0.33407225  0.32930843  0.33275968  1
  Ni  Ni15  1  0.33329454  0.66648326  -0.00005481  1
  Ni  Ni16  1  0.50027366  0.83339754  0.16473721  1
  Cr  Cr17  1  0.33417776  0.66909651  0.33271031  1
  Ni  Ni18  1  0.66557436  0.99718083  0.99910633  1
  Ni  Ni19  1  0.83330289  0.16316251  0.16508789  1
  Ni  Ni20  1  0.66516511  0.99620254  0.33142851  1
  Cr  Cr21  1  0.66705145  0.33121108  -0.00015813  1
  Ni  Ni22  1  0.83143393  0.50189236  0.16531592  1
  Cr  Cr23  1  0.66381756  0.33276234  0.33128919  1
  Ni  Ni24  1  0.66659850  0.66860524  0.00033610  1
  Ni  Ni25  1  0.83230812  0.83237250  0.16653165  1
  Ni  Ni26  1  0.66703334  0.66868008  0.33187975  1
  Ni  Ni27  1  0.16825785  0.15964422  0.49894521  1
  Ni  Ni28  1  0.00099809  0.99714722  0.66496723  1
  Ni  Ni29  1  0.16543235  0.16607634  0.83409779  1
  Cr  Cr30  1  0.16635936  0.50211990  0.50038419  1
  Cr  Cr31  1  0.99839701  0.33134675  0.66920709  1
  Ni  Ni32  1  0.16353992  0.49884486  0.83434499  1
  Ni  Ni33  1  0.16519640  0.83551571  0.49996857  1
  Ni  Ni34  1  0.99810664  0.66829731  0.66623097  1
  Cr  Cr35  1  0.16640923  0.83225833  0.83221024  1
  Ni  Ni36  1  0.49685804  0.16409691  0.49913758  1
  Ni  Ni37  1  0.33164052  0.99820147  0.66406630  1
  Ni  Ni38  1  0.49843679  0.16338977  0.83287651  1
  Ni  Ni39  1  0.50091363  0.50088974  0.50094363  1
  Cr  Cr40  1  0.33384168  0.33064308  0.66498748  1
  Cr  Cr41  1  0.49882604  0.50118889  0.83197902  1
  Ni  Ni42  1  0.49855050  0.83242117  0.49935086  1
  Ni  Ni43  1  0.33348354  0.66825797  0.66448730  1
  Ni  Ni44  1  0.50015665  0.83346271  0.83334290  1
  Cr  Cr45  1  0.83220991  0.16248434  0.49889325  1
  Cr  Cr46  1  0.66507919  0.99815575  0.66779198  1
  Ni  Ni47  1  0.83351502  0.16531209  0.83313377  1
  Cr  Cr48  1  0.82964317  0.50299656  0.49982229  1
  Ni  Ni49  1  0.66473516  0.33376407  0.66597426  1
  Ni  Ni50  1  0.83445357  0.50052806  0.83191119  1
  Ni  Ni51  1  0.83365061  0.83138131  0.49796116  1
  Ni  Ni52  1  0.66582019  0.66562240  0.66517812  1
  Ni  Ni53  1  0.83176119  0.83155817  0.83294598  1
" 