2875,Ni27Fe46Cr26_6,-227.384700420605, 191.663606440939,Ni27Fe46Cr26,"# generated using pymatgen
 data_Cr8Fe12Ni7
_symmetry_space_group_name_H-M   'P 1'
_cell_length_a   7.46103639
_cell_length_b   7.46103639
_cell_length_c   10.55149886
_cell_angle_alpha   90.00000000
_cell_angle_beta   90.00000000
_cell_angle_gamma   90.00000000
_symmetry_Int_Tables_number   1
_chemical_formula_structural   Cr8Fe12Ni7
_chemical_formula_sum   'Cr16 Fe24 Ni14'
_cell_volume   587.37096286
_cell_formula_units_Z   2
loop_
 _symmetry_equiv_pos_site_id
 _symmetry_equiv_pos_as_xyz
  1  'x, y, z'
loop_
 _atom_site_type_symbol
 _atom_site_label
 _atom_site_symmetry_multiplicity
 _atom_site_fract_x
 _atom_site_fract_y
 _atom_site_fract_z
 _atom_site_occupancy
  Fe  Fe0  1  0.99956716  0.00117767  0.00217892  1
  Ni  Ni1  1  0.16970496  0.16433641  0.16696685  1
  Fe  Fe2  1  0.99829790  0.99961396  0.33280097  1
  Cr  Cr3  1  0.99969142  0.33346470  0.00235252  1
  Fe  Fe4  1  0.16512385  0.50212333  0.16525696  1
  Cr  Cr5  1  0.00051544  0.33406527  0.32989387  1
  Ni  Ni6  1  0.99917896  0.66511903  0.00076247  1
  Cr  Cr7  1  0.16534574  0.83536849  0.16519548  1
  Fe  Fe8  1  0.99764388  0.66776039  0.33228568  1
  Ni  Ni9  1  0.33608200  0.00091597  0.00121101  1
  Ni  Ni10  1  0.50018380  0.16696886  0.16717783  1
  Ni  Ni11  1  0.33624832  0.99950874  0.33265465  1
  Cr  Cr12  1  0.33209437  0.33336150  0.00171232  1
  Fe  Fe13  1  0.50325124  0.50150053  0.16635256  1
  Cr  Cr14  1  0.33202699  0.33348388  0.33236711  1
  Fe  Fe15  1  0.33283824  0.66663656  0.00071193  1
  Fe  Fe16  1  0.50290978  0.83599055  0.16596681  1
  Cr  Cr17  1  0.33575647  0.66843205  0.33208287  1
  Ni  Ni18  1  0.66723134  1.00004703  0.00340264  1
  Fe  Fe19  1  0.83297616  0.16398162  0.16579160  1
  Fe  Fe20  1  0.66667122  0.99844725  0.33258446  1
  Fe  Fe21  1  0.66661399  0.33226077  0.00101504  1
  Ni  Ni22  1  0.83074732  0.50304421  0.16642152  1
  Cr  Cr23  1  0.66886111  0.33323562  0.33316811  1
  Fe  Fe24  1  0.66728201  0.66680223  0.00315368  1
  Ni  Ni25  1  0.83256342  0.83156212  0.16713210  1
  Ni  Ni26  1  0.66877070  0.67018092  0.33324656  1
  Cr  Cr27  1  0.16998819  0.16670968  0.50068310  1
  Fe  Fe28  1  0.99921634  0.00152387  0.66672466  1
  Fe  Fe29  1  0.16899408  0.16625533  0.83367813  1
  Fe  Fe30  1  0.16549085  0.50113093  0.50147725  1
  Cr  Cr31  1  0.99938537  0.33476215  0.66857847  1
  Ni  Ni32  1  0.16741718  0.49967352  0.83331361  1
  Cr  Cr33  1  0.16446398  0.83480573  0.50165402  1
  Fe  Fe34  1  0.99946952  0.66588117  0.66745036  1
  Cr  Cr35  1  0.16582568  0.83509446  0.83390109  1
  Fe  Fe36  1  0.50129982  0.16658791  0.50019653  1
  Ni  Ni37  1  0.33456606  0.00236743  0.66807761  1
  Fe  Fe38  1  0.50005688  0.16829325  0.83441663  1
  Fe  Fe39  1  0.50211356  0.49900304  0.50058865  1
  Ni  Ni40  1  0.33454024  0.33278388  0.66747349  1
  Fe  Fe41  1  0.50078462  0.49805563  0.83358739  1
  Fe  Fe42  1  0.50081126  0.83605852  0.49837096  1
  Cr  Cr43  1  0.33436370  0.66772527  0.66724916  1
  Cr  Cr44  1  0.50069675  0.83517753  0.83697164  1
  Fe  Fe45  1  0.83403851  0.16557772  0.50028821  1
  Cr  Cr46  1  0.66674583  0.99968269  0.66482103  1
  Fe  Fe47  1  0.83197888  0.16725594  0.83497698  1
  Fe  Fe48  1  0.83398855  0.50168060  0.49905741  1
  Ni  Ni49  1  0.66716809  0.33344199  0.66842084  1
  Fe  Fe50  1  0.83299399  0.50012767  0.83586877  1
  Ni  Ni51  1  0.83387137  0.83166660  0.49826857  1
  Cr  Cr52  1  0.66841716  0.66761747  0.66626643  1
  Cr  Cr53  1  0.83488917  0.83342377  0.83554589  1
" 