3028,Ni27Cr73_11,-228.992034291926, 142.541177994945,Ni27Cr73,"# generated using pymatgen
 data_Cr7Ni20
_symmetry_space_group_name_H-M   'P 1'
_cell_length_a   7.48347633
_cell_length_b   7.48347633
_cell_length_c   10.58323372
_cell_angle_alpha   90.00000000
_cell_angle_beta   90.00000000
_cell_angle_gamma   90.00000000
_symmetry_Int_Tables_number   1
_chemical_formula_structural   Cr7Ni20
_chemical_formula_sum   'Cr14 Ni40'
_cell_volume   592.68667918
_cell_formula_units_Z   2
loop_
 _symmetry_equiv_pos_site_id
 _symmetry_equiv_pos_as_xyz
  1  'x, y, z'
loop_
 _atom_site_type_symbol
 _atom_site_label
 _atom_site_symmetry_multiplicity
 _atom_site_fract_x
 _atom_site_fract_y
 _atom_site_fract_z
 _atom_site_occupancy
  Ni  Ni0  1  0.99635781  0.00397709  0.00043515  1
  Ni  Ni1  1  0.16281627  0.16809861  0.16664924  1
  Ni  Ni2  1  0.99798889  -0.00001803  0.33251241  1
  Ni  Ni3  1  -0.00008467  0.32979058  0.99760023  1
  Ni  Ni4  1  0.16761543  0.49671460  0.16621726  1
  Ni  Ni5  1  -0.00008558  0.33127397  0.33340240  1
  Cr  Cr6  1  -0.00105119  0.66392710  -0.00027345  1
  Cr  Cr7  1  0.16382375  0.83278876  0.16727581  1
  Ni  Ni8  1  0.99878660  0.66567142  0.33406008  1
  Cr  Cr9  1  0.33276319  0.00072210  -0.00077426  1
  Cr  Cr10  1  0.50044739  0.16792529  0.16782618  1
  Ni  Ni11  1  0.33128944  0.99813359  0.33339914  1
  Ni  Ni12  1  0.33051018  0.33311187  -0.00062246  1
  Ni  Ni13  1  0.49765999  0.50013772  0.16572457  1
  Ni  Ni14  1  0.32888202  0.33269319  0.33071229  1
  Ni  Ni15  1  0.33466839  0.66353018  -0.00043831  1
  Ni  Ni16  1  0.50084718  0.83019257  0.16635337  1
  Ni  Ni17  1  0.33198820  0.66599295  0.33210546  1
  Ni  Ni18  1  0.66643389  -0.00081122  -0.00104479  1
  Ni  Ni19  1  0.83375090  0.16429262  0.16542978  1
  Ni  Ni20  1  0.66718247  0.99710400  0.33237033  1
  Ni  Ni21  1  0.66634778  0.33086303  0.99804750  1
  Cr  Cr22  1  0.83120370  0.49740729  0.16641816  1
  Ni  Ni23  1  0.66800942  0.33195249  0.33228887  1
  Ni  Ni24  1  0.66341238  0.66653605  0.00000274  1
  Ni  Ni25  1  0.82996427  0.83474260  0.16639262  1
  Ni  Ni26  1  0.66590678  0.66764173  0.33209755  1
  Ni  Ni27  1  0.16296799  0.16445718  0.49798092  1
  Ni  Ni28  1  0.99879892  0.00209878  0.66388263  1
  Ni  Ni29  1  0.16353726  0.16667021  0.83230820  1
  Ni  Ni30  1  0.16398765  0.49895320  0.49724962  1
  Ni  Ni31  1  -0.00067676  0.33011137  0.66564094  1
  Ni  Ni32  1  0.16482198  0.49658346  0.83315610  1
  Ni  Ni33  1  0.16583805  0.83336005  0.49849993  1
  Cr  Cr34  1  -0.00083431  0.66208558  0.66297920  1
  Cr  Cr35  1  0.16654748  0.83316487  0.83080875  1
  Cr  Cr36  1  0.49902306  0.16350014  0.49720301  1
  Ni  Ni37  1  0.33218304  0.99794575  0.66531705  1
  Ni  Ni38  1  0.49978365  0.16339285  0.83276848  1
  Cr  Cr39  1  0.49807801  0.49972986  0.49480762  1
  Cr  Cr40  1  0.32824417  0.33091002  0.66621430  1
  Cr  Cr41  1  0.49862801  0.49945265  0.83461561  1
  Ni  Ni42  1  0.49787313  0.83318481  0.49856300  1
  Ni  Ni43  1  0.33126837  0.66793880  0.66479281  1
  Ni  Ni44  1  0.49891770  0.83393569  0.83199840  1
  Ni  Ni45  1  0.83477538  0.16456723  0.49809044  1
  Ni  Ni46  1  0.66574329  0.99873296  0.66578512  1
  Ni  Ni47  1  0.83326733  0.16608918  0.83296417  1
  Ni  Ni48  1  0.83507636  0.49756588  0.49633947  1
  Cr  Cr49  1  0.67042032  0.33016001  0.66567701  1
  Ni  Ni50  1  0.83409649  0.49531992  0.83374611  1
  Ni  Ni51  1  0.83289893  0.83445477  0.49683356  1
  Cr  Cr52  1  0.66609244  0.66723379  0.66414094  1
  Cr  Cr53  1  0.83193321  0.83473484  0.83419473  1
" 