6355,Ni27Fe23Cr48_16,-219.466650753843, 174.232434279777,Ni27Fe23Cr48,"# generated using pymatgen
 data_Cr14Fe6Ni7
_symmetry_space_group_name_H-M   'P 1'
_cell_length_a   7.51005962
_cell_length_b   7.51005962
_cell_length_c   10.62082817
_cell_angle_alpha   90.00000000
_cell_angle_beta   90.00000000
_cell_angle_gamma   90.00000000
_symmetry_Int_Tables_number   1
_chemical_formula_structural   Cr14Fe6Ni7
_chemical_formula_sum   'Cr28 Fe12 Ni14'
_cell_volume   599.02528227
_cell_formula_units_Z   2
loop_
 _symmetry_equiv_pos_site_id
 _symmetry_equiv_pos_as_xyz
  1  'x, y, z'
loop_
 _atom_site_type_symbol
 _atom_site_label
 _atom_site_symmetry_multiplicity
 _atom_site_fract_x
 _atom_site_fract_y
 _atom_site_fract_z
 _atom_site_occupancy
  Ni  Ni0  1  0.99626783  0.99413074  0.99622228  1
  Cr  Cr1  1  0.16483215  0.16196703  0.16573929  1
  Cr  Cr2  1  -0.00183824  0.99558748  0.33273431  1
  Cr  Cr3  1  0.99644478  0.33284945  0.99541751  1
  Cr  Cr4  1  0.16520617  0.49844323  0.16121952  1
  Cr  Cr5  1  -0.00202431  0.33313453  0.33514621  1
  Ni  Ni6  1  -0.00104337  0.66671363  0.99706243  1
  Ni  Ni7  1  0.16088681  0.83128933  0.16015007  1
  Cr  Cr8  1  0.99644845  0.66298597  0.33044157  1
  Cr  Cr9  1  0.33241386  0.99326424  -0.00230210  1
  Cr  Cr10  1  0.49638771  0.16568874  0.16251403  1
  Cr  Cr11  1  0.32997986  0.99374191  0.33221608  1
  Ni  Ni12  1  0.33054863  0.33135171  0.99643521  1
  Cr  Cr13  1  0.49701522  0.49601802  0.16439200  1
  Fe  Fe14  1  0.32873867  0.33283029  0.33194286  1
  Cr  Cr15  1  0.32875876  0.66500592  0.99450087  1
  Ni  Ni16  1  0.49826894  0.83050492  0.16377293  1
  Cr  Cr17  1  0.32994563  0.66732345  0.32992400  1
  Ni  Ni18  1  0.66453433  0.99698898  0.99695352  1
  Cr  Cr19  1  0.83078314  0.16038523  0.15838603  1
  Cr  Cr20  1  0.66282687  0.99201197  0.32937952  1
  Ni  Ni21  1  0.66350466  0.32874556  0.99444005  1
  Cr  Cr22  1  0.82909456  0.50127009  0.16378913  1
  Cr  Cr23  1  0.66876821  0.33233944  0.33128661  1
  Cr  Cr24  1  0.66214786  0.66603036  -0.00007997  1
  Fe  Fe25  1  0.83149977  0.83079175  0.16269573  1
  Ni  Ni26  1  0.66339463  0.66588911  0.33300209  1
  Fe  Fe27  1  0.16313870  0.16385479  0.49922312  1
  Ni  Ni28  1  -0.00177638  0.99413898  0.66256452  1
  Cr  Cr29  1  0.16299289  0.15968146  0.83046173  1
  Ni  Ni30  1  0.16501537  0.50017569  0.49984542  1
  Cr  Cr31  1  0.99558581  0.33278403  0.66241160  1
  Fe  Fe32  1  0.16291502  0.49940033  0.82906231  1
  Ni  Ni33  1  0.16036370  0.82914291  0.50058679  1
  Ni  Ni34  1  -0.00046551  0.66327077  0.66173555  1
  Fe  Fe35  1  0.16150490  0.82785069  0.82883358  1
  Cr  Cr36  1  0.49376993  0.16571619  0.49602320  1
  Cr  Cr37  1  0.33106749  0.99268537  0.66221478  1
  Cr  Cr38  1  0.49791271  0.16546852  0.83275399  1
  Cr  Cr39  1  0.49714716  0.49741286  0.49825811  1
  Fe  Fe40  1  0.32700333  0.33140905  0.66419292  1
  Cr  Cr41  1  0.49557125  0.49696309  0.82834296  1
  Fe  Fe42  1  0.49873782  0.82658380  0.49743700  1
  Fe  Fe43  1  0.32689989  0.66385488  0.66340868  1
  Fe  Fe44  1  0.49886957  0.82984554  0.83066323  1
  Cr  Cr45  1  0.83005628  0.15981407  0.50058293  1
  Cr  Cr46  1  0.66301635  0.99559295  0.66448258  1
  Fe  Fe47  1  0.83083131  0.16225682  0.83122490  1
  Ni  Ni48  1  0.83041775  0.50346767  0.49963897  1
  Fe  Fe49  1  0.66544491  0.33172087  0.66382154  1
  Cr  Cr50  1  0.82947573  0.50150960  0.82963711  1
  Ni  Ni51  1  0.83336759  0.82634622  0.49772336  1
  Fe  Fe52  1  0.66711371  0.66550172  0.66156196  1
  Cr  Cr53  1  0.83559530  0.83163219  0.83128954  1
" 