6726,Ni27Fe46Cr26_1,-227.16010759679, 188.956013482224,Ni27Fe46Cr26,"# generated using pymatgen
 data_Cr8Fe12Ni7
_symmetry_space_group_name_H-M   'P 1'
_cell_length_a   7.46090545
_cell_length_b   7.46090545
_cell_length_c   10.55131367
_cell_angle_alpha   90.00000000
_cell_angle_beta   90.00000000
_cell_angle_gamma   90.00000000
_symmetry_Int_Tables_number   1
_chemical_formula_structural   Cr8Fe12Ni7
_chemical_formula_sum   'Cr16 Fe24 Ni14'
_cell_volume   587.34003677
_cell_formula_units_Z   2
loop_
 _symmetry_equiv_pos_site_id
 _symmetry_equiv_pos_as_xyz
  1  'x, y, z'
loop_
 _atom_site_type_symbol
 _atom_site_label
 _atom_site_symmetry_multiplicity
 _atom_site_fract_x
 _atom_site_fract_y
 _atom_site_fract_z
 _atom_site_occupancy
  Cr  Cr0  1  1.00033302  0.00126693  0.99894939  1
  Fe  Fe1  1  0.16514155  0.16968804  0.16859239  1
  Ni  Ni2  1  0.99893772  0.00128932  0.33614642  1
  Fe  Fe3  1  0.00217961  0.33388588  0.99877771  1
  Ni  Ni4  1  0.16531191  0.49778222  0.16682666  1
  Fe  Fe5  1  0.00178508  0.33100175  0.33463059  1
  Cr  Cr6  1  1.00029249  0.66605390  1.00002037  1
  Fe  Fe7  1  0.16412954  0.83266337  0.16861733  1
  Fe  Fe8  1  0.99953466  0.67062319  0.33186916  1
  Cr  Cr9  1  0.32997473  1.00038610  0.00213901  1
  Cr  Cr10  1  0.50060793  0.16708457  0.16584216  1
  Cr  Cr11  1  0.33067539  0.99978873  0.33475722  1
  Fe  Fe12  1  0.33090130  0.33461622  0.00054692  1
  Ni  Ni13  1  0.49836867  0.49887653  0.16875126  1
  Fe  Fe14  1  0.33221363  0.33284425  0.33326078  1
  Cr  Cr15  1  0.33265328  0.66532843  1.00021463  1
  Cr  Cr16  1  0.50483248  0.83564516  0.16642559  1
  Cr  Cr17  1  0.33451733  0.66646927  0.33453209  1
  Ni  Ni18  1  0.67077099  0.00114853  0.99935082  1
  Cr  Cr19  1  0.83403091  0.16493674  0.16811549  1
  Ni  Ni20  1  0.67003773  0.99994656  0.33526461  1
  Cr  Cr21  1  0.66945002  0.33578881  0.99792855  1
  Fe  Fe22  1  0.83375733  0.50059757  0.17008938  1
  Fe  Fe23  1  0.66701492  0.33336122  0.33360509  1
  Cr  Cr24  1  0.66869833  0.66550241  0.00102658  1
  Ni  Ni25  1  0.83507029  0.83355318  0.16809195  1
  Fe  Fe26  1  0.66874487  0.66924102  0.33375999  1
  Ni  Ni27  1  0.16551758  0.16802613  0.50117433  1
  Fe  Fe28  1  0.99968991  0.00107784  0.66614500  1
  Ni  Ni29  1  0.16644928  0.16887847  0.83325798  1
  Cr  Cr30  1  0.16589427  0.50040828  0.50269941  1
  Ni  Ni31  1  0.00090158  0.33151096  0.66815771  1
  Fe  Fe32  1  0.16708709  0.49916864  0.83185410  1
  Fe  Fe33  1  0.16340910  0.83570735  0.50256636  1
  Fe  Fe34  1  0.99744896  0.66851136  0.66817348  1
  Ni  Ni35  1  0.16544369  0.83335295  0.83062999  1
  Cr  Cr36  1  0.50155315  0.16665080  0.50066995  1
  Fe  Fe37  1  0.33120592  0.00063467  0.66691253  1
  Cr  Cr38  1  0.50060777  0.16602238  0.83471972  1
  Fe  Fe39  1  0.50211532  0.50048569  0.50098039  1
  Fe  Fe40  1  0.33365615  0.33300675  0.66768557  1
  Fe  Fe41  1  0.49834066  0.50044780  0.83128859  1
  Fe  Fe42  1  0.50313604  0.83368769  0.50215500  1
  Fe  Fe43  1  0.33409354  0.66755007  0.66717894  1
  Cr  Cr44  1  0.50182475  0.83497532  0.83403415  1
  Ni  Ni45  1  0.83477083  0.16590507  0.50180199  1
  Ni  Ni46  1  0.66921527  0.99958583  0.66658681  1
  Fe  Fe47  1  0.83562517  0.16542286  0.83108079  1
  Cr  Cr48  1  0.83554512  0.50132450  0.49809335  1
  Fe  Fe49  1  0.66968386  0.33388362  0.66744105  1
  Fe  Fe50  1  0.83559149  0.50050274  0.83015491  1
  Ni  Ni51  1  0.83294438  0.83430341  0.50091136  1
  Ni  Ni52  1  0.66592797  0.66660107  0.66631163  1
  Fe  Fe53  1  0.83458311  0.83522552  0.83143044  1
" 