7797,Ni27Fe23Cr48_11,-219.539306323017, 171.037336063145,Ni27Fe23Cr48,"# generated using pymatgen
 data_Cr14Fe6Ni7
_symmetry_space_group_name_H-M   'P 1'
_cell_length_a   7.51640691
_cell_length_b   7.51640691
_cell_length_c   10.62980460
_cell_angle_alpha   90.00000000
_cell_angle_beta   90.00000000
_cell_angle_gamma   90.00000000
_symmetry_Int_Tables_number   1
_chemical_formula_structural   Cr14Fe6Ni7
_chemical_formula_sum   'Cr28 Fe12 Ni14'
_cell_volume   600.54540450
_cell_formula_units_Z   2
loop_
 _symmetry_equiv_pos_site_id
 _symmetry_equiv_pos_as_xyz
  1  'x, y, z'
loop_
 _atom_site_type_symbol
 _atom_site_label
 _atom_site_symmetry_multiplicity
 _atom_site_fract_x
 _atom_site_fract_y
 _atom_site_fract_z
 _atom_site_occupancy
  Cr  Cr0  1  0.00080764  -0.00049271  0.99622706  1
  Fe  Fe1  1  0.16383764  0.16362003  0.16253448  1
  Cr  Cr2  1  0.99646060  -0.00211420  0.33262315  1
  Ni  Ni3  1  -0.00133682  0.32825966  -0.00002349  1
  Fe  Fe4  1  0.16203243  0.49609600  0.16473174  1
  Cr  Cr5  1  -0.00168792  0.32895866  0.33030095  1
  Cr  Cr6  1  0.99639851  0.66199620  -0.00214381  1
  Cr  Cr7  1  0.16504378  0.83039819  0.16399259  1
  Ni  Ni8  1  -0.00312775  0.66260111  0.33154610  1
  Ni  Ni9  1  0.32961505  -0.00085520  0.99500870  1
  Fe  Fe10  1  0.49729207  0.16242713  0.16490432  1
  Fe  Fe11  1  0.32822737  -0.00154910  0.32964728  1
  Cr  Cr12  1  0.32924722  0.32709647  -0.00259511  1
  Ni  Ni13  1  0.49543171  0.49458201  0.16556373  1
  Cr  Cr14  1  0.32997847  0.32959933  0.32992454  1
  Cr  Cr15  1  0.33165024  0.66395220  0.99624112  1
  Cr  Cr16  1  0.49387376  0.83162101  0.16586618  1
  Fe  Fe17  1  0.32644705  0.66030872  0.32981692  1
  Cr  Cr18  1  0.66074829  -0.00300306  0.99461031  1
  Ni  Ni19  1  0.83004873  0.16747628  0.16391412  1
  Fe  Fe20  1  0.66633362  -0.00011587  0.33078260  1
  Cr  Cr21  1  0.66271545  0.33149973  0.00084572  1
  Fe  Fe22  1  0.83129145  0.49510779  0.16462048  1
  Fe  Fe23  1  0.66569446  0.32861997  0.32815735  1
  Cr  Cr24  1  0.66191985  0.66188814  0.99636840  1
  Cr  Cr25  1  0.83120376  0.83275480  0.16449516  1
  Cr  Cr26  1  0.66449461  0.66167919  0.32927077  1
  Ni  Ni27  1  0.16239443  0.16663719  0.49751659  1
  Cr  Cr28  1  0.99657392  -0.00260029  0.66090835  1
  Ni  Ni29  1  0.16476544  0.16448484  0.83171418  1
  Ni  Ni30  1  0.16306250  0.49577118  0.49813178  1
  Fe  Fe31  1  0.00078752  0.32772735  0.66158600  1
  Cr  Cr32  1  0.16210263  0.49426229  0.82680289  1
  Cr  Cr33  1  0.16427975  0.82677288  0.49490662  1
  Fe  Fe34  1  -0.00087719  0.66370756  0.66110608  1
  Fe  Fe35  1  0.16601777  0.83072804  0.82968176  1
  Cr  Cr36  1  0.49781305  0.16249774  0.49578978  1
  Cr  Cr37  1  0.32864828  -0.00117556  0.66612012  1
  Fe  Fe38  1  0.49462574  0.16188680  0.82863965  1
  Cr  Cr39  1  0.49222884  0.49684089  0.49787358  1
  Ni  Ni40  1  0.32482958  0.33017971  0.66242414  1
  Cr  Cr41  1  0.49447236  0.49656660  0.82693994  1
  Cr  Cr42  1  0.49651979  0.83115946  0.49415943  1
  Ni  Ni43  1  0.32764011  0.66206029  0.66264191  1
  Ni  Ni44  1  0.49284483  0.83317655  0.82937954  1
  Ni  Ni45  1  0.83076902  0.16139893  0.49682167  1
  Ni  Ni46  1  0.66460549  0.99578704  0.66159710  1
  Cr  Cr47  1  0.83209581  0.16552688  0.82917600  1
  Cr  Cr48  1  0.83358367  0.49546832  0.49858441  1
  Cr  Cr49  1  0.66150818  0.32753147  0.66192909  1
  Cr  Cr50  1  0.83375959  0.49357024  0.83106670  1
  Ni  Ni51  1  0.83017256  0.83222464  0.49618160  1
  Cr  Cr52  1  0.66303216  0.66712129  0.66496051  1
  Cr  Cr53  1  0.82979728  0.83096953  0.82882358  1
" 