4580,Ni27Cr73_7,-229.188540664681, 147.695229136879,Ni27Cr73,"# generated using pymatgen
 data_Cr7Ni20
_symmetry_space_group_name_H-M   'P 1'
_cell_length_a   7.48582352
_cell_length_b   7.48582352
_cell_length_c   10.58655315
_cell_angle_alpha   90.00000000
_cell_angle_beta   90.00000000
_cell_angle_gamma   90.00000000
_symmetry_Int_Tables_number   1
_chemical_formula_structural   Cr7Ni20
_chemical_formula_sum   'Cr14 Ni40'
_cell_volume   593.24454106
_cell_formula_units_Z   2
loop_
 _symmetry_equiv_pos_site_id
 _symmetry_equiv_pos_as_xyz
  1  'x, y, z'
loop_
 _atom_site_type_symbol
 _atom_site_label
 _atom_site_symmetry_multiplicity
 _atom_site_fract_x
 _atom_site_fract_y
 _atom_site_fract_z
 _atom_site_occupancy
  Cr  Cr0  1  -0.00080348  0.00007352  0.99536034  1
  Ni  Ni1  1  0.16415734  0.16450031  0.16672357  1
  Ni  Ni2  1  0.00050753  0.99861130  0.33288090  1
  Ni  Ni3  1  0.00068218  0.33057628  0.99506348  1
  Cr  Cr4  1  0.16422633  0.49849045  0.16475599  1
  Ni  Ni5  1  0.00016741  0.32927893  0.33601416  1
  Cr  Cr6  1  0.00061271  0.66931931  0.99478223  1
  Ni  Ni7  1  0.16542779  0.83297636  0.16830084  1
  Ni  Ni8  1  -0.00096646  0.66846178  0.33539707  1
  Cr  Cr9  1  0.32761928  0.99633271  0.99860080  1
  Cr  Cr10  1  0.49907824  0.16482232  0.16431425  1
  Ni  Ni11  1  0.33020319  0.99783171  0.33341750  1
  Ni  Ni12  1  0.32979147  0.33379987  0.99751336  1
  Ni  Ni13  1  0.49710269  0.49978097  0.16082685  1
  Cr  Cr14  1  0.33049046  0.32829548  0.33577122  1
  Ni  Ni15  1  0.33270128  0.66514181  0.99722292  1
  Ni  Ni16  1  0.49831315  0.83337086  0.16521649  1
  Cr  Cr17  1  0.33309589  0.66638707  0.33344190  1
  Ni  Ni18  1  0.66661073  0.99727180  0.99716569  1
  Cr  Cr19  1  0.83292982  0.16499188  0.16513609  1
  Ni  Ni20  1  0.66554711  0.99669533  0.33442767  1
  Ni  Ni21  1  0.66574593  0.33304349  0.99542670  1
  Cr  Cr22  1  0.83428205  0.49836909  0.16651401  1
  Cr  Cr23  1  0.66431142  0.33261267  0.33875340  1
  Cr  Cr24  1  0.66440804  0.66759185  0.99769465  1
  Ni  Ni25  1  0.83262770  0.83483250  0.16825903  1
  Cr  Cr26  1  0.66541546  0.66624218  0.33410525  1
  Ni  Ni27  1  0.16388715  0.16341440  0.49980977  1
  Ni  Ni28  1  -0.00071562  -0.00052222  0.66615890  1
  Ni  Ni29  1  0.16433091  0.16807600  0.82951629  1
  Ni  Ni30  1  0.16245595  0.49968616  0.50142030  1
  Ni  Ni31  1  -0.00096261  0.33089357  0.66545920  1
  Ni  Ni32  1  0.16650537  0.49831346  0.83057208  1
  Ni  Ni33  1  0.16429388  0.83273622  0.49996499  1
  Ni  Ni34  1  0.00023846  0.66580836  0.66519995  1
  Ni  Ni35  1  0.16737355  0.83016702  0.82733813  1
  Ni  Ni36  1  0.49865413  0.16125699  0.50173960  1
  Ni  Ni37  1  0.32948089  0.99843714  0.66359715  1
  Cr  Cr38  1  0.49977394  0.16466849  0.82961649  1
  Ni  Ni39  1  0.49633411  0.49809310  0.50383646  1
  Ni  Ni40  1  0.33031399  0.33241593  0.66389639  1
  Ni  Ni41  1  0.49586876  0.49818068  0.83240386  1
  Ni  Ni42  1  0.49711752  0.83628072  0.50033169  1
  Ni  Ni43  1  0.33052230  0.66537471  0.66608082  1
  Ni  Ni44  1  0.49709238  0.83163125  0.83069139  1
  Ni  Ni45  1  0.83356145  0.16323409  0.50035441  1
  Ni  Ni46  1  0.66750699  -0.00080101  0.66426229  1
  Ni  Ni47  1  0.83236859  0.16644028  0.83071762  1
  Ni  Ni48  1  0.83758684  0.49799913  0.50008008  1
  Ni  Ni49  1  0.66680300  0.33130146  0.66390884  1
  Ni  Ni50  1  0.83407403  0.49540460  0.83050123  1
  Ni  Ni51  1  0.83502972  0.83474454  0.49835634  1
  Cr  Cr52  1  0.66646153  0.66470886  0.66456792  1
  Ni  Ni53  1  0.83203622  0.83463294  0.82881016  1
" 