2676,Ni27Fe49Cr23_9,-228.597825466442, 196.502021314616,Ni27Fe49Cr23,"# generated using pymatgen
 data_Cr7Fe13Ni7
_symmetry_space_group_name_H-M   'P 1'
_cell_length_a   7.45330358
_cell_length_b   7.45330358
_cell_length_c   10.54056300
_cell_angle_alpha   90.00000000
_cell_angle_beta   90.00000000
_cell_angle_gamma   90.00000000
_symmetry_Int_Tables_number   1
_chemical_formula_structural   Cr7Fe13Ni7
_chemical_formula_sum   'Cr14 Fe26 Ni14'
_cell_volume   585.54655456
_cell_formula_units_Z   2
loop_
 _symmetry_equiv_pos_site_id
 _symmetry_equiv_pos_as_xyz
  1  'x, y, z'
loop_
 _atom_site_type_symbol
 _atom_site_label
 _atom_site_symmetry_multiplicity
 _atom_site_fract_x
 _atom_site_fract_y
 _atom_site_fract_z
 _atom_site_occupancy
  Fe  Fe0  1  1.00055117  0.00133063  0.00092628  1
  Fe  Fe1  1  0.16606265  0.16654493  0.16551710  1
  Ni  Ni2  1  0.99989417  1.00065048  0.33037536  1
  Ni  Ni3  1  0.00154826  0.33233062  0.99820050  1
  Cr  Cr4  1  0.16750696  0.49850961  0.16956910  1
  Fe  Fe5  1  0.99771944  0.33200172  0.33234305  1
  Fe  Fe6  1  0.00179376  0.66586639  0.99924116  1
  Fe  Fe7  1  0.16569582  0.83501928  0.16617495  1
  Ni  Ni8  1  0.00435354  0.66886591  0.33315228  1
  Fe  Fe9  1  0.33215879  0.00334316  0.00140183  1
  Ni  Ni10  1  0.50046199  0.16690626  0.16723713  1
  Cr  Cr11  1  0.33406057  0.00093215  0.33480943  1
  Fe  Fe12  1  0.33235465  0.33507055  0.99921033  1
  Fe  Fe13  1  0.50007298  0.49682230  0.16536877  1
  Fe  Fe14  1  0.33689088  0.33520777  0.33401934  1
  Ni  Ni15  1  0.33275036  0.66658351  1.00058155  1
  Cr  Cr16  1  0.50170908  0.83450585  0.16504103  1
  Fe  Fe17  1  0.33495129  0.66683133  0.33408973  1
  Fe  Fe18  1  0.67048374  0.00198906  0.00220678  1
  Ni  Ni19  1  0.83361186  0.16710879  0.16965984  1
  Ni  Ni20  1  0.66846088  0.00437349  0.33343066  1
  Cr  Cr21  1  0.66683895  0.33422380  0.99853929  1
  Cr  Cr22  1  0.83556168  0.50037520  0.16628047  1
  Ni  Ni23  1  0.66447067  0.33221421  0.33551304  1
  Fe  Fe24  1  0.66858952  0.66703451  0.99948031  1
  Fe  Fe25  1  0.83662250  0.83736259  0.16676911  1
  Cr  Cr26  1  0.66654210  0.66596805  0.33125559  1
  Cr  Cr27  1  0.16468534  0.17152928  0.49837227  1
  Cr  Cr28  1  1.00068076  1.00012490  0.67114366  1
  Ni  Ni29  1  0.16829793  0.16728928  0.83760316  1
  Fe  Fe30  1  0.16953496  0.50329167  0.50018412  1
  Fe  Fe31  1  1.00037915  0.33332197  0.67183457  1
  Ni  Ni32  1  0.16554228  0.49873116  0.83373498  1
  Cr  Cr33  1  0.16987284  0.83407900  0.50269922  1
  Fe  Fe34  1  1.00063499  0.66598387  0.66989571  1
  Fe  Fe35  1  0.16629257  0.83093060  0.83625937  1
  Fe  Fe36  1  0.50267470  0.16840846  0.49979146  1
  Fe  Fe37  1  0.33410280  0.00287606  0.66823115  1
  Fe  Fe38  1  0.50050395  0.16962935  0.83610490  1
  Fe  Fe39  1  0.50010517  0.50250070  0.50202901  1
  Cr  Cr40  1  0.33541461  0.33601830  0.67012092  1
  Ni  Ni41  1  0.50114946  0.50323775  0.83602745  1
  Ni  Ni42  1  0.50044445  0.83428687  0.50246440  1
  Fe  Fe43  1  0.33476689  0.66809568  0.66996154  1
  Cr  Cr44  1  0.50083697  0.83710057  0.83456142  1
  Fe  Fe45  1  0.83309783  0.16637598  0.49750101  1
  Cr  Cr46  1  0.66866438  0.00345568  0.66600208  1
  Fe  Fe47  1  0.83556526  0.16867043  0.83632626  1
  Cr  Cr48  1  0.83747378  0.49667787  0.50220462  1
  Fe  Fe49  1  0.66868293  0.33587641  0.66976335  1
  Ni  Ni50  1  0.83563909  0.50189879  0.83312415  1
  Cr  Cr51  1  0.83224202  0.83309059  0.49701608  1
  Fe  Fe52  1  0.66742819  0.66617744  0.66887575  1
  Ni  Ni53  1  0.83335694  0.83215771  0.83756188  1
" 