4511,Ni27Cr73_13,-229.324471524172, 153.297472737867,Ni27Cr73,"# generated using pymatgen
 data_Cr7Ni20
_symmetry_space_group_name_H-M   'P 1'
_cell_length_a   7.48184431
_cell_length_b   7.48184431
_cell_length_c   10.58092569
_cell_angle_alpha   90.00000000
_cell_angle_beta   90.00000000
_cell_angle_gamma   90.00000000
_symmetry_Int_Tables_number   1
_chemical_formula_structural   Cr7Ni20
_chemical_formula_sum   'Cr14 Ni40'
_cell_volume   592.29899715
_cell_formula_units_Z   2
loop_
 _symmetry_equiv_pos_site_id
 _symmetry_equiv_pos_as_xyz
  1  'x, y, z'
loop_
 _atom_site_type_symbol
 _atom_site_label
 _atom_site_symmetry_multiplicity
 _atom_site_fract_x
 _atom_site_fract_y
 _atom_site_fract_z
 _atom_site_occupancy
  Cr  Cr0  1  -0.00085192  0.99850799  0.00086760  1
  Ni  Ni1  1  0.16553257  0.16377451  0.16604205  1
  Cr  Cr2  1  0.99765848  0.99859782  0.33143545  1
  Ni  Ni3  1  0.99698264  0.33191293  0.00143659  1
  Cr  Cr4  1  0.16610905  0.50041682  0.16660587  1
  Cr  Cr5  1  0.00002055  0.33260330  0.33249108  1
  Cr  Cr6  1  -0.00029964  0.66625732  0.99900929  1
  Ni  Ni7  1  0.16840472  0.83335481  0.16617781  1
  Ni  Ni8  1  0.99726667  0.66603870  0.33228190  1
  Ni  Ni9  1  0.33424873  0.99562663  -0.00089011  1
  Cr  Cr10  1  0.49899807  0.16352754  0.16545138  1
  Ni  Ni11  1  0.33300660  0.99788994  0.33089543  1
  Cr  Cr12  1  0.33319468  0.33402752  0.99809636  1
  Ni  Ni13  1  0.50115545  0.50261346  0.16565138  1
  Ni  Ni14  1  0.33136687  0.33351238  0.33365491  1
  Ni  Ni15  1  0.33547507  0.66824130  0.99798184  1
  Ni  Ni16  1  0.49899127  0.83096690  0.16577399  1
  Ni  Ni17  1  0.33463214  0.66562829  0.33187156  1
  Ni  Ni18  1  0.66420253  0.99739886  -0.00076053  1
  Ni  Ni19  1  0.83228709  0.16584655  0.16330988  1
  Ni  Ni20  1  0.66572101  0.99488910  0.33206848  1
  Ni  Ni21  1  0.66635551  0.33316052  -0.00016798  1
  Ni  Ni22  1  0.83000399  0.49980237  0.16450592  1
  Cr  Cr23  1  0.66551827  0.33432774  0.33266812  1
  Ni  Ni24  1  0.66285477  0.66647973  0.00024520  1
  Ni  Ni25  1  0.82965898  0.83135528  0.16681284  1
  Ni  Ni26  1  0.66514363  0.66775772  0.33228207  1
  Ni  Ni27  1  0.16565505  0.16769610  0.50047876  1
  Ni  Ni28  1  -0.00021673  0.99825457  0.66472013  1
  Cr  Cr29  1  0.16707041  0.16554356  0.83050961  1
  Ni  Ni30  1  0.16605129  0.49787996  0.50009290  1
  Ni  Ni31  1  0.00033703  0.33311296  0.66279437  1
  Ni  Ni32  1  0.16752382  0.50125001  0.83029006  1
  Cr  Cr33  1  0.16685688  0.83127820  0.49967019  1
  Ni  Ni34  1  -0.00081714  0.66568785  0.66571275  1
  Ni  Ni35  1  0.16815195  0.83045969  0.83086627  1
  Cr  Cr36  1  0.49701127  0.16493336  0.49902479  1
  Ni  Ni37  1  0.33101860  0.99841534  0.66700976  1
  Ni  Ni38  1  0.49875245  0.16532586  0.83255886  1
  Ni  Ni39  1  0.49838760  0.50136264  0.49982330  1
  Ni  Ni40  1  0.33199977  0.33441097  0.66528112  1
  Ni  Ni41  1  0.49816414  0.50014640  0.83159649  1
  Ni  Ni42  1  0.50010450  0.82978590  0.49750777  1
  Ni  Ni43  1  0.33300048  0.66419784  0.66718112  1
  Ni  Ni44  1  0.49754305  0.83159250  0.83373454  1
  Ni  Ni45  1  0.83409036  0.16606457  0.50095319  1
  Cr  Cr46  1  0.66595362  0.99688863  0.66538641  1
  Cr  Cr47  1  0.83020438  0.16646740  0.83281995  1
  Ni  Ni48  1  0.83256888  0.50075781  0.50067292  1
  Ni  Ni49  1  0.66469296  0.33499017  0.66520491  1
  Cr  Cr50  1  0.83196064  0.49950224  0.83218993  1
  Ni  Ni51  1  0.83069033  0.83019848  0.49898581  1
  Ni  Ni52  1  0.66484996  0.66467574  0.66454193  1
  Ni  Ni53  1  0.83135927  0.83120785  0.83119637  1
" 