6800,Ni27Fe23Cr48_7,-219.381456180172, 172.18190611046,Ni27Fe23Cr48,"# generated using pymatgen
 data_Cr14Fe6Ni7
_symmetry_space_group_name_H-M   'P 1'
_cell_length_a   7.51343847
_cell_length_b   7.51343847
_cell_length_c   10.62560659
_cell_angle_alpha   90.00000000
_cell_angle_beta   90.00000000
_cell_angle_gamma   90.00000000
_symmetry_Int_Tables_number   1
_chemical_formula_structural   Cr14Fe6Ni7
_chemical_formula_sum   'Cr28 Fe12 Ni14'
_cell_volume   599.83416805
_cell_formula_units_Z   2
loop_
 _symmetry_equiv_pos_site_id
 _symmetry_equiv_pos_as_xyz
  1  'x, y, z'
loop_
 _atom_site_type_symbol
 _atom_site_label
 _atom_site_symmetry_multiplicity
 _atom_site_fract_x
 _atom_site_fract_y
 _atom_site_fract_z
 _atom_site_occupancy
  Fe  Fe0  1  0.99681078  0.99681194  -0.00161029  1
  Cr  Cr1  1  0.16352953  0.16272719  0.16183649  1
  Cr  Cr2  1  0.99646250  0.99496962  0.32834286  1
  Fe  Fe3  1  -0.00193398  0.32762274  -0.00225463  1
  Cr  Cr4  1  0.16458204  0.49956577  0.16574083  1
  Cr  Cr5  1  0.99428255  0.32856202  0.33045863  1
  Cr  Cr6  1  0.99588505  0.66923129  -0.00087037  1
  Ni  Ni7  1  0.16560898  0.83158364  0.16377703  1
  Cr  Cr8  1  0.99646359  0.66683244  0.33362343  1
  Ni  Ni9  1  0.32820265  -0.00299888  -0.00211466  1
  Cr  Cr10  1  0.49880323  0.16185918  0.16765933  1
  Fe  Fe11  1  0.33113999  0.99294874  0.32762077  1
  Cr  Cr12  1  0.33239364  0.32862639  0.99454545  1
  Ni  Ni13  1  0.49993432  0.49987936  0.16487321  1
  Cr  Cr14  1  0.33394626  0.33263993  0.33223252  1
  Cr  Cr15  1  0.33406651  0.66545160  -0.00052647  1
  Fe  Fe16  1  0.49872260  0.82902417  0.16435020  1
  Ni  Ni17  1  0.33478619  0.66558582  0.32851020  1
  Fe  Fe18  1  0.66189532  0.99403223  -0.00044498  1
  Ni  Ni19  1  0.82774485  0.16019393  0.16207918  1
  Fe  Fe20  1  0.66463006  0.99419218  0.32827547  1
  Cr  Cr21  1  0.66082616  0.33043841  -0.00232149  1
  Cr  Cr22  1  0.82805015  0.49646781  0.16328390  1
  Ni  Ni23  1  0.66233243  0.33209815  0.33031748  1
  Ni  Ni24  1  0.66231503  0.66622054  -0.00123197  1
  Ni  Ni25  1  0.82748157  0.83091499  0.16362596  1
  Ni  Ni26  1  0.66095345  0.66308922  0.32953569  1
  Cr  Cr27  1  0.16604137  0.16167593  0.49831452  1
  Ni  Ni28  1  -0.00190881  -0.00192152  0.66472866  1
  Ni  Ni29  1  0.16452919  0.16146199  0.83024010  1
  Fe  Fe30  1  0.16764558  0.49783775  0.49675445  1
  Cr  Cr31  1  0.99647152  0.32909077  0.66252317  1
  Cr  Cr32  1  0.16275119  0.49699606  0.82909247  1
  Cr  Cr33  1  0.16722408  0.83020098  0.49782665  1
  Cr  Cr34  1  0.99617797  0.66612524  0.65818034  1
  Cr  Cr35  1  0.16504449  0.83141185  0.82934617  1
  Cr  Cr36  1  0.49699723  0.16158133  0.49612428  1
  Fe  Fe37  1  0.32867158  0.99617214  0.66460562  1
  Cr  Cr38  1  0.49540895  0.15987029  0.82625930  1
  Ni  Ni39  1  0.49786582  0.49901133  0.49666568  1
  Fe  Fe40  1  0.32967044  0.33278157  0.66303828  1
  Fe  Fe41  1  0.49570062  0.49830346  0.83006443  1
  Cr  Cr42  1  0.49623657  0.83040110  0.49514794  1
  Ni  Ni43  1  0.33258317  0.66181804  0.66287145  1
  Cr  Cr44  1  0.49683804  0.83022421  0.83107639  1
  Cr  Cr45  1  0.82765607  0.16306579  0.49544306  1
  Fe  Fe46  1  0.66572595  0.99531896  0.66232572  1
  Cr  Cr47  1  0.83138473  0.16208138  0.83305144  1
  Ni  Ni48  1  0.82643410  0.49825566  0.49404076  1
  Cr  Cr49  1  0.66046667  0.33138626  0.66299383  1
  Cr  Cr50  1  0.83003405  0.49809266  0.83433580  1
  Fe  Fe51  1  0.82690582  0.83057610  0.49611463  1
  Cr  Cr52  1  0.66202936  0.66231103  0.66366687  1
  Cr  Cr53  1  0.82879039  0.83059085  0.82914582  1
" 