2829,Ni27Fe66Cr5_3,-232.965962232088, 192.487835034723,Ni27Fe66Cr5,"# generated using pymatgen
 data_Cr2Fe18Ni7
_symmetry_space_group_name_H-M   'P 1'
_cell_length_a   7.41655337
_cell_length_b   7.41655337
_cell_length_c   10.48859036
_cell_angle_alpha   90.00000000
_cell_angle_beta   90.00000000
_cell_angle_gamma   90.00000000
_symmetry_Int_Tables_number   1
_chemical_formula_structural   Cr2Fe18Ni7
_chemical_formula_sum   'Cr4 Fe36 Ni14'
_cell_volume   576.92768023
_cell_formula_units_Z   2
loop_
 _symmetry_equiv_pos_site_id
 _symmetry_equiv_pos_as_xyz
  1  'x, y, z'
loop_
 _atom_site_type_symbol
 _atom_site_label
 _atom_site_symmetry_multiplicity
 _atom_site_fract_x
 _atom_site_fract_y
 _atom_site_fract_z
 _atom_site_occupancy
  Ni  Ni0  1  0.00407060  0.00530782  0.00389191  1
  Ni  Ni1  1  0.17033758  0.17168262  0.17011239  1
  Fe  Fe2  1  0.00389210  0.00382533  0.33613957  1
  Ni  Ni3  1  1.00313827  0.33389320  0.00428847  1
  Ni  Ni4  1  0.17039901  0.50287011  0.16939905  1
  Fe  Fe5  1  0.00431438  0.33657763  0.33583513  1
  Fe  Fe6  1  1.00299988  0.66977972  0.00351056  1
  Fe  Fe7  1  0.16954564  0.83787696  0.16970185  1
  Fe  Fe8  1  0.00421155  0.66980803  0.33704930  1
  Fe  Fe9  1  0.33624417  0.00389578  1.00307365  1
  Ni  Ni10  1  0.50390655  0.17044981  0.17009460  1
  Fe  Fe11  1  0.33566418  0.00523665  0.33595438  1
  Fe  Fe12  1  0.33623103  0.33681940  0.00450224  1
  Fe  Fe13  1  0.50341381  0.50239033  0.16963040  1
  Ni  Ni14  1  0.33655063  0.33663248  0.33713038  1
  Ni  Ni15  1  0.33868442  0.67060481  0.00369429  1
  Fe  Fe16  1  0.50354217  0.83723253  0.16983380  1
  Fe  Fe17  1  0.33522754  0.66851834  0.33558512  1
  Fe  Fe18  1  0.67093870  0.00356914  0.00425135  1
  Ni  Ni19  1  0.83596951  0.16973739  0.16943049  1
  Fe  Fe20  1  0.67065239  0.00513243  0.33528419  1
  Ni  Ni21  1  0.67106144  0.33790423  1.00325787  1
  Fe  Fe22  1  0.83694407  0.50198854  0.16931424  1
  Fe  Fe23  1  0.66936181  0.33613878  0.33610223  1
  Ni  Ni24  1  0.66811894  0.66967238  0.00454068  1
  Ni  Ni25  1  0.83564414  0.83663384  0.17032074  1
  Fe  Fe26  1  0.67077064  0.66893923  0.33551910  1
  Fe  Fe27  1  0.17242185  0.16955922  0.50144622  1
  Cr  Cr28  1  0.00437651  1.00227051  0.66925209  1
  Ni  Ni29  1  0.17187687  0.16987795  0.83857347  1
  Fe  Fe30  1  0.17147124  0.50493427  0.50162932  1
  Cr  Cr31  1  0.00453235  0.33636760  0.66981079  1
  Fe  Fe32  1  0.17103040  0.50434887  0.83848522  1
  Ni  Ni33  1  0.16917730  0.83486027  0.50310737  1
  Fe  Fe34  1  0.00570514  0.67064713  0.66965133  1
  Ni  Ni35  1  0.17085511  0.83550130  0.83698158  1
  Fe  Fe36  1  0.50266939  0.17161745  0.50273655  1
  Fe  Fe37  1  0.33690598  0.00404976  0.67118646  1
  Fe  Fe38  1  0.50260322  0.16974987  0.83698524  1
  Fe  Fe39  1  0.50171955  0.50099063  0.50239921  1
  Fe  Fe40  1  0.33848919  0.33638554  0.66950932  1
  Fe  Fe41  1  0.50170483  0.50291733  0.83818849  1
  Cr  Cr42  1  0.50174061  0.83799462  0.50291022  1
  Fe  Fe43  1  0.33296588  0.66977418  0.67147977  1
  Fe  Fe44  1  0.50129511  0.83754718  0.83770968  1
  Fe  Fe45  1  0.83512272  0.16926716  0.50126452  1
  Fe  Fe46  1  0.66931799  0.00647316  0.67067935  1
  Fe  Fe47  1  0.83634833  0.16985440  0.83962676  1
  Fe  Fe48  1  0.83702218  0.50428248  0.50191087  1
  Fe  Fe49  1  0.66844190  0.33466630  0.67045143  1
  Fe  Fe50  1  0.83747758  0.50304816  0.83898685  1
  Fe  Fe51  1  0.83906666  0.83665935  0.50102937  1
  Cr  Cr52  1  0.66987300  0.66975511  0.67098475  1
  Fe  Fe53  1  0.83777849  0.83730723  0.83940033  1
" 