7674,Ni27Cr73_2,-229.196119835364, 150.082634815354,Ni27Cr73,"# generated using pymatgen
 data_Cr7Ni20
_symmetry_space_group_name_H-M   'P 1'
_cell_length_a   7.48546205
_cell_length_b   7.48546205
_cell_length_c   10.58604196
_cell_angle_alpha   90.00000000
_cell_angle_beta   90.00000000
_cell_angle_gamma   90.00000000
_symmetry_Int_Tables_number   1
_chemical_formula_structural   Cr7Ni20
_chemical_formula_sum   'Cr14 Ni40'
_cell_volume   593.15860798
_cell_formula_units_Z   2
loop_
 _symmetry_equiv_pos_site_id
 _symmetry_equiv_pos_as_xyz
  1  'x, y, z'
loop_
 _atom_site_type_symbol
 _atom_site_label
 _atom_site_symmetry_multiplicity
 _atom_site_fract_x
 _atom_site_fract_y
 _atom_site_fract_z
 _atom_site_occupancy
  Ni  Ni0  1  0.99838876  0.99487321  0.99714686  1
  Cr  Cr1  1  0.16550757  0.16412253  0.16677189  1
  Ni  Ni2  1  0.99851143  0.99692330  0.33342566  1
  Cr  Cr3  1  -0.00079517  0.33273382  0.99580921  1
  Ni  Ni4  1  0.16756976  0.50264775  0.16712576  1
  Ni  Ni5  1  -0.00033393  0.33352870  0.33555462  1
  Ni  Ni6  1  0.00212101  0.66953715  -0.00103229  1
  Ni  Ni7  1  0.16506012  0.82939656  0.16395986  1
  Ni  Ni8  1  -0.00050920  0.66585549  0.33236495  1
  Ni  Ni9  1  0.33215313  0.99722376  0.99871414  1
  Ni  Ni10  1  0.49969773  0.16633735  0.16411168  1
  Cr  Cr11  1  0.33174259  0.99825372  0.33299261  1
  Cr  Cr12  1  0.33480320  0.33331370  0.99821721  1
  Ni  Ni13  1  0.49719078  0.49911000  0.16679641  1
  Ni  Ni14  1  0.33198852  0.33406961  0.33191741  1
  Ni  Ni15  1  0.32926368  0.66633853  -0.00025101  1
  Ni  Ni16  1  0.49760505  0.83083632  0.16470364  1
  Ni  Ni17  1  0.33088042  0.66398388  0.33067845  1
  Ni  Ni18  1  0.66578072  0.00050232  0.99852423  1
  Cr  Cr19  1  0.83123326  0.16434243  0.16494636  1
  Cr  Cr20  1  0.66575336  0.99784186  0.33322646  1
  Ni  Ni21  1  0.66264977  0.32900411  0.99824414  1
  Cr  Cr22  1  0.83214726  0.49947959  0.16765679  1
  Ni  Ni23  1  0.66464615  0.33309443  0.33204534  1
  Cr  Cr24  1  0.66487852  0.66572688  -0.00039082  1
  Ni  Ni25  1  0.83365382  0.83191398  0.16507247  1
  Ni  Ni26  1  0.66596782  0.66505968  0.33244963  1
  Ni  Ni27  1  0.16492871  0.16703906  0.49895583  1
  Cr  Cr28  1  0.99849925  -0.00002188  0.66516625  1
  Ni  Ni29  1  0.16595274  0.16470511  0.83083616  1
  Ni  Ni30  1  0.16419870  0.49758296  0.49793567  1
  Ni  Ni31  1  0.00160658  0.33140704  0.66438875  1
  Ni  Ni32  1  0.16780634  0.49936169  0.83124369  1
  Ni  Ni33  1  0.16632929  0.83167100  0.49764148  1
  Cr  Cr34  1  -0.00080842  0.66464351  0.66526385  1
  Ni  Ni35  1  0.16557182  0.83225901  0.83470251  1
  Ni  Ni36  1  0.49795950  0.16434845  0.49966214  1
  Ni  Ni37  1  0.33331595  -0.00014249  0.66457990  1
  Ni  Ni38  1  0.49880550  0.16546503  0.83261394  1
  Cr  Cr39  1  0.49824049  0.50052964  0.49841814  1
  Ni  Ni40  1  0.32984843  0.33123088  0.66656958  1
  Ni  Ni41  1  0.49620145  0.49782340  0.83172149  1
  Ni  Ni42  1  0.49892769  0.83212259  0.50088685  1
  Ni  Ni43  1  0.33215072  0.66520493  0.66585532  1
  Cr  Cr44  1  0.49763871  0.83250295  0.82981073  1
  Ni  Ni45  1  0.83343115  0.16635460  0.49787255  1
  Ni  Ni46  1  0.66427642  0.99795010  0.66480725  1
  Ni  Ni47  1  0.83154654  0.16326612  0.83337270  1
  Ni  Ni48  1  0.83384093  0.49858176  0.49685981  1
  Cr  Cr49  1  0.66554174  0.33053073  0.66635070  1
  Cr  Cr50  1  0.83179278  0.49876198  0.83182948  1
  Ni  Ni51  1  0.83103368  0.83137663  0.49784693  1
  Ni  Ni52  1  0.66444220  0.66811546  0.66420955  1
  Ni  Ni53  1  0.83294424  0.83485830  0.83339636  1
" 