8784,Ni27Fe46Cr26_3,-227.450263516313, 192.280724600661,Ni27Fe46Cr26,"# generated using pymatgen
 data_Cr8Fe12Ni7
_symmetry_space_group_name_H-M   'P 1'
_cell_length_a   7.46460917
_cell_length_b   7.46460917
_cell_length_c   10.55655153
_cell_angle_alpha   90.00000000
_cell_angle_beta   90.00000000
_cell_angle_gamma   90.00000000
_symmetry_Int_Tables_number   1
_chemical_formula_structural   Cr8Fe12Ni7
_chemical_formula_sum   'Cr16 Fe24 Ni14'
_cell_volume   588.21516951
_cell_formula_units_Z   2
loop_
 _symmetry_equiv_pos_site_id
 _symmetry_equiv_pos_as_xyz
  1  'x, y, z'
loop_
 _atom_site_type_symbol
 _atom_site_label
 _atom_site_symmetry_multiplicity
 _atom_site_fract_x
 _atom_site_fract_y
 _atom_site_fract_z
 _atom_site_occupancy
  Cr  Cr0  1  0.99956714  1.00005716  0.99872695  1
  Fe  Fe1  1  0.16685770  0.16810852  0.16957833  1
  Fe  Fe2  1  0.00296535  0.00149628  0.33309389  1
  Cr  Cr3  1  0.00106869  0.33442381  0.00073765  1
  Ni  Ni4  1  0.16617061  0.50004374  0.16703991  1
  Ni  Ni5  1  0.00042229  0.33420834  0.33410495  1
  Fe  Fe6  1  0.00146438  0.66697560  0.00092890  1
  Fe  Fe7  1  0.16819122  0.83135240  0.16691311  1
  Ni  Ni8  1  0.00228390  0.66604932  0.33178203  1
  Cr  Cr9  1  0.33146677  0.99665197  0.99943774  1
  Ni  Ni10  1  0.49699207  0.16463748  0.16725183  1
  Ni  Ni11  1  0.33218715  0.99860673  0.33330777  1
  Fe  Fe12  1  0.33363739  0.33608314  0.00219711  1
  Fe  Fe13  1  0.49875673  0.50105149  0.16571787  1
  Ni  Ni14  1  0.33173273  0.33339946  0.33128403  1
  Ni  Ni15  1  0.33270407  0.66524900  0.99919678  1
  Fe  Fe16  1  0.49955270  0.83241142  0.16592907  1
  Cr  Cr17  1  0.33417837  0.66670195  0.33438917  1
  Ni  Ni18  1  0.66699531  0.99829241  0.99996968  1
  Fe  Fe19  1  0.83370328  0.16723490  0.16803125  1
  Fe  Fe20  1  0.66504257  0.00017511  0.33122481  1
  Cr  Cr21  1  0.66836449  0.33502885  0.00254366  1
  Ni  Ni22  1  0.83692210  0.50320116  0.16794147  1
  Cr  Cr23  1  0.66789255  0.33569513  0.33113962  1
  Ni  Ni24  1  0.66440850  0.66717868  0.00076520  1
  Cr  Cr25  1  0.83412159  0.83111374  0.16694748  1
  Fe  Fe26  1  0.66633886  0.66603145  0.33148900  1
  Fe  Fe27  1  0.16470992  0.16767336  0.49740800  1
  Cr  Cr28  1  0.00069976  0.00025895  0.66833609  1
  Fe  Fe29  1  0.16535879  0.16837161  0.83337013  1
  Fe  Fe30  1  0.16715899  0.49965182  0.49865398  1
  Fe  Fe31  1  0.00042736  0.33353665  0.66680128  1
  Ni  Ni32  1  0.16730467  0.50230537  0.83337763  1
  Fe  Fe33  1  0.16670854  0.83237987  0.49925400  1
  Fe  Fe34  1  0.00328649  0.66709651  0.66690891  1
  Ni  Ni35  1  0.16489836  0.82875265  0.83384017  1
  Cr  Cr36  1  0.49746099  0.16658132  0.49836603  1
  Cr  Cr37  1  0.33114117  0.99488800  0.66773493  1
  Cr  Cr38  1  0.49911766  0.16790320  0.83582702  1
  Fe  Fe39  1  0.50074992  0.50140220  0.50073483  1
  Cr  Cr40  1  0.33304330  0.33683203  0.66723531  1
  Fe  Fe41  1  0.49928323  0.50397218  0.83400272  1
  Fe  Fe42  1  0.50045570  0.83185145  0.49944501  1
  Fe  Fe43  1  0.33341033  0.66636168  0.66769999  1
  Fe  Fe44  1  0.50056078  0.82897532  0.83525902  1
  Fe  Fe45  1  0.83451228  0.16788149  0.49975391  1
  Cr  Cr46  1  0.66823229  1.00014084  0.66908932  1
  Fe  Fe47  1  0.83417806  0.16739407  0.83339463  1
  Cr  Cr48  1  0.83618152  0.50223585  0.50070658  1
  Ni  Ni49  1  0.66859340  0.33638140  0.66719754  1
  Cr  Cr50  1  0.83521840  0.50423087  0.83269950  1
  Cr  Cr51  1  0.83416998  0.83166534  0.49724995  1
  Fe  Fe52  1  0.66431029  0.66717303  0.66791105  1
  Ni  Ni53  1  0.83365928  0.83146369  0.83489321  1
" 