2434,Ni27Fe66Cr5_16,-233.435316948366, 192.263667912566,Ni27Fe66Cr5,"# generated using pymatgen
 data_Cr2Fe18Ni7
_symmetry_space_group_name_H-M   'P 1'
_cell_length_a   7.41947956
_cell_length_b   7.41947956
_cell_length_c   10.49272862
_cell_angle_alpha   90.00000000
_cell_angle_beta   90.00000000
_cell_angle_gamma   90.00000000
_symmetry_Int_Tables_number   1
_chemical_formula_structural   Cr2Fe18Ni7
_chemical_formula_sum   'Cr4 Fe36 Ni14'
_cell_volume   577.61082837
_cell_formula_units_Z   2
loop_
 _symmetry_equiv_pos_site_id
 _symmetry_equiv_pos_as_xyz
  1  'x, y, z'
loop_
 _atom_site_type_symbol
 _atom_site_label
 _atom_site_symmetry_multiplicity
 _atom_site_fract_x
 _atom_site_fract_y
 _atom_site_fract_z
 _atom_site_occupancy
  Fe  Fe0  1  0.00541109  0.00405162  0.00475000  1
  Fe  Fe1  1  0.17026709  0.16971629  0.16932847  1
  Fe  Fe2  1  0.00487615  1.00302822  0.33652709  1
  Fe  Fe3  1  0.00436515  0.33725322  0.00356067  1
  Fe  Fe4  1  0.17045065  0.50320773  0.17003956  1
  Fe  Fe5  1  0.00325012  0.33706513  0.33726366  1
  Fe  Fe6  1  0.00459819  0.66831072  1.00270486  1
  Fe  Fe7  1  0.17014292  0.83668948  0.16945467  1
  Fe  Fe8  1  0.00355338  0.66952455  0.33738016  1
  Ni  Ni9  1  0.33695433  0.00342237  1.00258006  1
  Fe  Fe10  1  0.50223921  0.17100955  0.16871055  1
  Fe  Fe11  1  0.33559441  1.00259077  0.33647547  1
  Ni  Ni12  1  0.33637960  0.33489675  0.00347368  1
  Fe  Fe13  1  0.50304498  0.50290688  0.16946765  1
  Fe  Fe14  1  0.33661176  0.33688910  0.33648069  1
  Fe  Fe15  1  0.33608947  0.67046514  0.00382181  1
  Fe  Fe16  1  0.50205934  0.83569811  0.16920510  1
  Ni  Ni17  1  0.33571931  0.66947395  0.33702805  1
  Fe  Fe18  1  0.66707112  0.00398907  0.00477579  1
  Fe  Fe19  1  0.83711391  0.17070436  0.16921001  1
  Cr  Cr20  1  0.66995717  0.00396010  0.33687899  1
  Ni  Ni21  1  0.67002121  0.33631549  0.00457641  1
  Fe  Fe22  1  0.83612085  0.50303211  0.16951627  1
  Fe  Fe23  1  0.66975631  0.33821180  0.33671886  1
  Fe  Fe24  1  0.66892974  0.66941792  0.00435852  1
  Fe  Fe25  1  0.83741400  0.83588181  0.16896245  1
  Fe  Fe26  1  0.66931872  0.66850965  0.33683536  1
  Fe  Fe27  1  0.16984952  0.17033498  0.50307729  1
  Fe  Fe28  1  0.00462356  1.00279001  0.66834167  1
  Fe  Fe29  1  0.17192159  0.16974517  0.83720946  1
  Ni  Ni30  1  0.16918405  0.50366670  0.50257969  1
  Fe  Fe31  1  0.00363896  0.33858742  0.66879828  1
  Ni  Ni32  1  0.16848314  0.50360238  0.83778877  1
  Fe  Fe33  1  0.16978483  0.83614127  0.50355644  1
  Ni  Ni34  1  0.00370309  0.66861908  0.66921817  1
  Ni  Ni35  1  0.17254062  0.83601686  0.83720589  1
  Ni  Ni36  1  0.50342885  0.16931265  0.50375195  1
  Fe  Fe37  1  0.33671765  1.00218223  0.67046929  1
  Fe  Fe38  1  0.50111253  0.16849095  0.83690238  1
  Fe  Fe39  1  0.50346487  0.50283892  0.50287944  1
  Fe  Fe40  1  0.33493013  0.33642656  0.66932319  1
  Cr  Cr41  1  0.50260376  0.50375521  0.83609115  1
  Ni  Ni42  1  0.50196172  0.83666151  0.50356756  1
  Fe  Fe43  1  0.33499484  0.67100930  0.66884056  1
  Ni  Ni44  1  0.50043594  0.83839399  0.83782137  1
  Ni  Ni45  1  0.83666924  0.17108833  0.50295802  1
  Fe  Fe46  1  0.66827853  1.00272477  0.66752262  1
  Cr  Cr47  1  0.83626590  0.17195020  0.83716090  1
  Ni  Ni48  1  0.83758447  0.50220115  0.50304703  1
  Fe  Fe49  1  0.67104739  0.33687136  0.66830039  1
  Ni  Ni50  1  0.83894061  0.50217985  0.83741681  1
  Fe  Fe51  1  0.83703930  0.83570449  0.50428853  1
  Fe  Fe52  1  0.67043755  0.67002117  0.66842724  1
  Cr  Cr53  1  0.83615064  0.83556506  0.83647447  1
" 