6299,Ni27Fe49Cr23_19,-228.243463114788, 191.73047055375,Ni27Fe49Cr23,"# generated using pymatgen
 data_Cr7Fe13Ni7
_symmetry_space_group_name_H-M   'P 1'
_cell_length_a   7.45458666
_cell_length_b   7.45458666
_cell_length_c   10.54237756
_cell_angle_alpha   90.00000000
_cell_angle_beta   90.00000000
_cell_angle_gamma   90.00000000
_symmetry_Int_Tables_number   1
_chemical_formula_structural   Cr7Fe13Ni7
_chemical_formula_sum   'Cr14 Fe26 Ni14'
_cell_volume   585.84901158
_cell_formula_units_Z   2
loop_
 _symmetry_equiv_pos_site_id
 _symmetry_equiv_pos_as_xyz
  1  'x, y, z'
loop_
 _atom_site_type_symbol
 _atom_site_label
 _atom_site_symmetry_multiplicity
 _atom_site_fract_x
 _atom_site_fract_y
 _atom_site_fract_z
 _atom_site_occupancy
  Ni  Ni0  1  1.00016994  0.99980578  0.00155993  1
  Fe  Fe1  1  0.16724077  0.16796436  0.16859144  1
  Fe  Fe2  1  0.99943503  0.00177010  0.33294058  1
  Cr  Cr3  1  0.00297966  0.33259134  1.00028614  1
  Fe  Fe4  1  0.17117587  0.50094075  0.16845314  1
  Fe  Fe5  1  0.00133043  0.33249741  0.33462050  1
  Cr  Cr6  1  1.00064616  0.66995222  1.00000167  1
  Fe  Fe7  1  0.16631367  0.83360069  0.16856669  1
  Fe  Fe8  1  0.00219851  0.66823324  0.33353241  1
  Cr  Cr9  1  0.33217667  0.00369989  1.00076572  1
  Fe  Fe10  1  0.50206085  0.17104898  0.16847375  1
  Fe  Fe11  1  0.33509139  0.00213054  0.33443678  1
  Ni  Ni12  1  0.33614103  0.33620889  0.00136533  1
  Ni  Ni13  1  0.49885316  0.49989511  0.16493533  1
  Fe  Fe14  1  0.33573198  0.33468120  0.33410974  1
  Ni  Ni15  1  0.33446837  0.66330794  1.00037396  1
  Cr  Cr16  1  0.49836923  0.83236658  0.16838339  1
  Ni  Ni17  1  0.33245124  0.66524141  0.33479148  1
  Cr  Cr18  1  0.67023440  0.00137157  0.00272710  1
  Ni  Ni19  1  0.83534191  0.16654637  0.16939797  1
  Ni  Ni20  1  0.66917638  0.00339587  0.33567168  1
  Fe  Fe21  1  0.66432451  0.33550195  0.00131244  1
  Cr  Cr22  1  0.83220778  0.49850388  0.16752743  1
  Ni  Ni23  1  0.66616279  0.33012769  0.33419846  1
  Fe  Fe24  1  0.66642976  0.66504416  1.00007657  1
  Fe  Fe25  1  0.83562154  0.83686471  0.16811031  1
  Cr  Cr26  1  0.66661708  0.66919490  0.33489493  1
  Ni  Ni27  1  0.16612339  0.16666819  0.50088638  1
  Fe  Fe28  1  0.00170929  0.00238882  0.66771778  1
  Fe  Fe29  1  0.16802217  0.16745275  0.83327934  1
  Fe  Fe30  1  0.16960429  0.49937423  0.49990321  1
  Ni  Ni31  1  0.00154246  0.33216528  0.66699274  1
  Fe  Fe32  1  0.16919505  0.50041154  0.83415011  1
  Cr  Cr33  1  0.17024615  0.83501998  0.50059578  1
  Cr  Cr34  1  0.00174491  0.66638046  0.66894180  1
  Fe  Fe35  1  0.16700152  0.83464180  0.83372019  1
  Fe  Fe36  1  0.50154749  0.16732192  0.50020208  1
  Fe  Fe37  1  0.33363059  0.00106309  0.66769847  1
  Ni  Ni38  1  0.49992375  0.16892834  0.83396929  1
  Ni  Ni39  1  0.49983897  0.50124914  0.50057151  1
  Cr  Cr40  1  0.33310334  0.33441763  0.66758879  1
  Fe  Fe41  1  0.50074822  0.49918787  0.83582283  1
  Fe  Fe42  1  0.50015461  0.83486812  0.50062494  1
  Ni  Ni43  1  0.33449270  0.66723903  0.66733769  1
  Cr  Cr44  1  0.49754055  0.83311088  0.83281728  1
  Fe  Fe45  1  0.83417907  0.16683002  0.50015284  1
  Fe  Fe46  1  0.66716585  0.00225148  0.66622828  1
  Cr  Cr47  1  0.83505682  0.16984432  0.83210274  1
  Cr  Cr48  1  0.83405601  0.49734085  0.50017475  1
  Fe  Fe49  1  0.66749995  0.33396741  0.66737642  1
  Ni  Ni50  1  0.83331082  0.49988341  0.83437381  1
  Fe  Fe51  1  0.83323927  0.83768973  0.49992140  1
  Cr  Cr52  1  0.66632180  0.66853094  0.66739199  1
  Fe  Fe53  1  0.83518356  0.83441794  0.83448540  1
" 