2804,Ni27Fe49Cr23_16,-228.397127142415, 191.097548221167,Ni27Fe49Cr23,"# generated using pymatgen
 data_Cr7Fe13Ni7
_symmetry_space_group_name_H-M   'P 1'
_cell_length_a   7.45470112
_cell_length_b   7.45470112
_cell_length_c   10.54253943
_cell_angle_alpha   90.00000000
_cell_angle_beta   90.00000000
_cell_angle_gamma   90.00000000
_symmetry_Int_Tables_number   1
_chemical_formula_structural   Cr7Fe13Ni7
_chemical_formula_sum   'Cr14 Fe26 Ni14'
_cell_volume   585.87599797
_cell_formula_units_Z   2
loop_
 _symmetry_equiv_pos_site_id
 _symmetry_equiv_pos_as_xyz
  1  'x, y, z'
loop_
 _atom_site_type_symbol
 _atom_site_label
 _atom_site_symmetry_multiplicity
 _atom_site_fract_x
 _atom_site_fract_y
 _atom_site_fract_z
 _atom_site_occupancy
  Ni  Ni0  1  0.00140207  1.00048417  0.99979599  1
  Ni  Ni1  1  0.16890805  0.16629051  0.16799587  1
  Ni  Ni2  1  0.00177135  1.00055400  0.33525069  1
  Fe  Fe3  1  0.00129038  0.33167262  1.00061456  1
  Cr  Cr4  1  0.16759549  0.49785286  0.16853766  1
  Fe  Fe5  1  0.00344317  0.33197098  0.33465709  1
  Cr  Cr6  1  1.00008540  0.67103424  0.00105814  1
  Fe  Fe7  1  0.16811852  0.83820600  0.16795192  1
  Cr  Cr8  1  0.00142413  0.67028013  0.33341770  1
  Fe  Fe9  1  0.33322283  0.00362675  0.00123133  1
  Ni  Ni10  1  0.49800118  0.16721390  0.16699241  1
  Fe  Fe11  1  0.33236322  0.00083402  0.33263043  1
  Fe  Fe12  1  0.33560437  0.33169071  1.00001166  1
  Ni  Ni13  1  0.50190886  0.50111077  0.16804950  1
  Fe  Fe14  1  0.33193985  0.33352248  0.33325298  1
  Cr  Cr15  1  0.33473344  0.66736893  0.99959713  1
  Fe  Fe16  1  0.50120705  0.83484397  0.16866599  1
  Ni  Ni17  1  0.33465129  0.66807384  0.33470964  1
  Fe  Fe18  1  0.66812263  0.00107813  1.00075417  1
  Cr  Cr19  1  0.83621136  0.16648170  0.16667419  1
  Fe  Fe20  1  0.66837334  0.99827944  0.33323614  1
  Ni  Ni21  1  0.66460844  0.33365010  1.00020679  1
  Fe  Fe22  1  0.83144613  0.50066836  0.16664993  1
  Cr  Cr23  1  0.66619765  0.33413900  0.33254896  1
  Fe  Fe24  1  0.66810023  0.66731854  0.00214759  1
  Ni  Ni25  1  0.83275480  0.83398601  0.16803697  1
  Fe  Fe26  1  0.66682158  0.66981932  0.33177502  1
  Fe  Fe27  1  0.16630793  0.16895437  0.49903228  1
  Cr  Cr28  1  0.99905554  0.99850660  0.66761953  1
  Fe  Fe29  1  0.16804154  0.16811944  0.83585002  1
  Fe  Fe30  1  0.16864599  0.50048549  0.50162406  1
  Fe  Fe31  1  0.00279948  0.33466552  0.66721543  1
  Fe  Fe32  1  0.16941579  0.50043623  0.83230253  1
  Fe  Fe33  1  0.16682719  0.83304806  0.50042307  1
  Ni  Ni34  1  0.00191183  0.66855905  0.66763388  1
  Ni  Ni35  1  0.16506660  0.83449011  0.83406001  1
  Cr  Cr36  1  0.50028313  0.16663939  0.50064296  1
  Cr  Cr37  1  0.33348469  0.00173646  0.66886998  1
  Ni  Ni38  1  0.50073534  0.17009283  0.83458673  1
  Cr  Cr39  1  0.49842930  0.50212018  0.50243630  1
  Ni  Ni40  1  0.33551153  0.33635017  0.66914774  1
  Ni  Ni41  1  0.50002500  0.49771759  0.83242927  1
  Cr  Cr42  1  0.50135560  0.83372336  0.50025700  1
  Fe  Fe43  1  0.33154035  0.66521306  0.66825190  1
  Cr  Cr44  1  0.50196513  0.83454647  0.83368230  1
  Fe  Fe45  1  0.83534434  0.16603880  0.50035251  1
  Fe  Fe46  1  0.66929669  0.00146000  0.66849003  1
  Fe  Fe47  1  0.83278032  0.16617013  0.83541516  1
  Cr  Cr48  1  0.83640768  0.50099212  0.50112240  1
  Fe  Fe49  1  0.66679092  0.33308246  0.66953643  1
  Cr  Cr50  1  0.83413831  0.50092759  0.83490806  1
  Fe  Fe51  1  0.83431307  0.83544543  0.50084563  1
  Fe  Fe52  1  0.66829356  0.66794372  0.66856121  1
  Ni  Ni53  1  0.83564375  0.83520134  0.83297058  1
" 