7090,Ni27Fe46Cr26_18,-226.757759162698, 185.648648874945,Ni27Fe46Cr26,"# generated using pymatgen
 data_Cr8Fe12Ni7
_symmetry_space_group_name_H-M   'P 1'
_cell_length_a   7.46148126
_cell_length_b   7.46148126
_cell_length_c   10.55212799
_cell_angle_alpha   90.00000000
_cell_angle_beta   90.00000000
_cell_angle_gamma   90.00000000
_symmetry_Int_Tables_number   1
_chemical_formula_structural   Cr8Fe12Ni7
_chemical_formula_sum   'Cr16 Fe24 Ni14'
_cell_volume   587.47603506
_cell_formula_units_Z   2
loop_
 _symmetry_equiv_pos_site_id
 _symmetry_equiv_pos_as_xyz
  1  'x, y, z'
loop_
 _atom_site_type_symbol
 _atom_site_label
 _atom_site_symmetry_multiplicity
 _atom_site_fract_x
 _atom_site_fract_y
 _atom_site_fract_z
 _atom_site_occupancy
  Ni  Ni0  1  0.99979138  0.00350913  0.99872444  1
  Fe  Fe1  1  0.16446601  0.16813253  0.16631002  1
  Cr  Cr2  1  0.00186161  0.00232180  0.33399612  1
  Fe  Fe3  1  0.00202589  0.32954649  1.00013995  1
  Cr  Cr4  1  0.16848141  0.49998041  0.16678441  1
  Fe  Fe5  1  0.99971901  0.33274791  0.33581887  1
  Fe  Fe6  1  0.00374019  0.66957630  0.99976300  1
  Cr  Cr7  1  0.16825877  0.83214077  0.16829714  1
  Cr  Cr8  1  0.00063356  0.66674543  0.33774633  1
  Cr  Cr9  1  0.33198462  1.00023301  0.00091019  1
  Cr  Cr10  1  0.50016902  0.16651902  0.16838548  1
  Ni  Ni11  1  0.33252277  0.99934059  0.33465239  1
  Ni  Ni12  1  0.33340379  0.33499691  0.99895572  1
  Fe  Fe13  1  0.50052257  0.50100856  0.16506194  1
  Cr  Cr14  1  0.33430270  0.33404413  0.33473297  1
  Ni  Ni15  1  0.33627685  0.66555733  0.99914771  1
  Fe  Fe16  1  0.50014551  0.83218723  0.16653328  1
  Ni  Ni17  1  0.33492820  0.66727192  0.33589402  1
  Ni  Ni18  1  0.66845387  0.00090926  0.99882354  1
  Ni  Ni19  1  0.83204902  0.16814940  0.16554714  1
  Cr  Cr20  1  0.66716938  0.00077553  0.33621989  1
  Fe  Fe21  1  0.66497337  0.33229551  1.00033260  1
  Cr  Cr22  1  0.83448275  0.49884807  0.16549832  1
  Ni  Ni23  1  0.66869220  0.33452630  0.33504985  1
  Fe  Fe24  1  0.66238047  0.66795155  0.99920447  1
  Cr  Cr25  1  0.83279761  0.83499886  0.16441730  1
  Cr  Cr26  1  0.66529865  0.66476462  0.33433846  1
  Ni  Ni27  1  0.16947344  0.16801742  0.50102408  1
  Fe  Fe28  1  0.00042812  0.00089619  0.66599702  1
  Fe  Fe29  1  0.16551662  0.16665224  0.83195246  1
  Ni  Ni30  1  0.16830147  0.49984858  0.50183028  1
  Fe  Fe31  1  0.00236862  0.33244764  0.66518746  1
  Cr  Cr32  1  0.16797297  0.50045633  0.83256325  1
  Fe  Fe33  1  0.16882248  0.83459933  0.50155546  1
  Fe  Fe34  1  0.00070913  0.66807852  0.66428700  1
  Fe  Fe35  1  0.16877009  0.83396853  0.83351164  1
  Fe  Fe36  1  0.49831884  0.16570309  0.50139572  1
  Ni  Ni37  1  0.33035077  0.99961916  0.66658904  1
  Cr  Cr38  1  0.49967041  0.16605737  0.83179833  1
  Fe  Fe39  1  0.49875357  0.50134459  0.50179405  1
  Fe  Fe40  1  0.33317860  0.33407102  0.66596651  1
  Ni  Ni41  1  0.49952948  0.50008965  0.83434695  1
  Fe  Fe42  1  0.49702821  0.83400186  0.50213464  1
  Fe  Fe43  1  0.33580662  0.66712087  0.66647399  1
  Fe  Fe44  1  0.49927993  0.83104371  0.83254160  1
  Fe  Fe45  1  0.83604520  0.16825060  0.50048769  1
  Fe  Fe46  1  0.66570051  0.99835461  0.66574745  1
  Fe  Fe47  1  0.83478061  0.16865639  0.83491666  1
  Fe  Fe48  1  0.83538293  0.49954814  0.50159471  1
  Cr  Cr49  1  0.66763044  0.33560614  0.66620019  1
  Cr  Cr50  1  0.83429590  0.50179181  0.83525414  1
  Ni  Ni51  1  0.83200620  0.83361995  0.50306624  1
  Ni  Ni52  1  0.66644768  0.66634283  0.66671087  1
  Cr  Cr53  1  0.83404227  0.83487719  0.83392935  1
" 