3829,Ni27Fe66Cr5_12,-232.938912745149, 193.337486211761,Ni27Fe66Cr5,"# generated using pymatgen
 data_Cr2Fe18Ni7
_symmetry_space_group_name_H-M   'P 1'
_cell_length_a   7.41250797
_cell_length_b   7.41250797
_cell_length_c   10.48286930
_cell_angle_alpha   90.00000000
_cell_angle_beta   90.00000000
_cell_angle_gamma   90.00000000
_symmetry_Int_Tables_number   1
_chemical_formula_structural   Cr2Fe18Ni7
_chemical_formula_sum   'Cr4 Fe36 Ni14'
_cell_volume   575.98413034
_cell_formula_units_Z   2
loop_
 _symmetry_equiv_pos_site_id
 _symmetry_equiv_pos_as_xyz
  1  'x, y, z'
loop_
 _atom_site_type_symbol
 _atom_site_label
 _atom_site_symmetry_multiplicity
 _atom_site_fract_x
 _atom_site_fract_y
 _atom_site_fract_z
 _atom_site_occupancy
  Fe  Fe0  1  1.00197197  0.00394133  1.00208827  1
  Fe  Fe1  1  0.17087729  0.17223285  0.17082649  1
  Fe  Fe2  1  1.00351634  1.00314216  0.33795287  1
  Fe  Fe3  1  0.00577713  0.33699930  1.00316852  1
  Ni  Ni4  1  0.17065714  0.50205063  0.17014129  1
  Ni  Ni5  1  0.00621801  0.33693029  0.33628593  1
  Fe  Fe6  1  1.00310665  0.67009098  1.00263303  1
  Cr  Cr7  1  0.17092269  0.83510855  0.17018729  1
  Ni  Ni8  1  1.00314880  0.66987769  0.33925648  1
  Fe  Fe9  1  0.33919668  0.00400816  1.00321213  1
  Ni  Ni10  1  0.50399165  0.16873363  0.17128992  1
  Fe  Fe11  1  0.33748709  0.00398445  0.33772785  1
  Fe  Fe12  1  0.33594204  0.33749183  0.00416967  1
  Fe  Fe13  1  0.50130754  0.50500858  0.17097086  1
  Fe  Fe14  1  0.33620738  0.33793124  0.33689575  1
  Fe  Fe15  1  0.33854819  0.66953380  1.00304279  1
  Ni  Ni16  1  0.50549333  0.83820673  0.16982710  1
  Fe  Fe17  1  0.33679594  0.66911623  0.33780186  1
  Fe  Fe18  1  0.66987415  1.00135302  0.00373033  1
  Fe  Fe19  1  0.83774406  0.16818523  0.17144437  1
  Fe  Fe20  1  0.67004636  1.00255861  0.33562509  1
  Cr  Cr21  1  0.66931740  0.33740936  1.00341822  1
  Cr  Cr22  1  0.83892224  0.50419511  0.17169422  1
  Fe  Fe23  1  0.66952335  0.33756463  0.33660424  1
  Ni  Ni24  1  0.66877613  0.67303792  1.00317552  1
  Fe  Fe25  1  0.83478425  0.83787537  0.17004489  1
  Ni  Ni26  1  0.66949394  0.67156771  0.33730618  1
  Ni  Ni27  1  0.17117495  0.17067157  0.50318160  1
  Ni  Ni28  1  0.00526230  0.00368115  0.67068764  1
  Fe  Fe29  1  0.16982346  0.16936064  0.83614595  1
  Ni  Ni30  1  0.16974476  0.50407125  0.50334207  1
  Ni  Ni31  1  0.00474185  0.33672624  0.67164505  1
  Fe  Fe32  1  0.17016495  0.50431731  0.83700506  1
  Ni  Ni33  1  0.17062054  0.83629160  0.50459931  1
  Fe  Fe34  1  0.00393289  0.67056614  0.66970756  1
  Fe  Fe35  1  0.17013114  0.83735831  0.83652870  1
  Fe  Fe36  1  0.50077314  0.17040936  0.50322130  1
  Fe  Fe37  1  0.33596602  0.00400289  0.67009817  1
  Fe  Fe38  1  0.50340863  0.16875747  0.83675085  1
  Fe  Fe39  1  0.50282811  0.50370329  0.50363025  1
  Fe  Fe40  1  0.33576292  0.33653086  0.66996861  1
  Fe  Fe41  1  0.50375332  0.50561948  0.83643374  1
  Fe  Fe42  1  0.50264421  0.83692629  0.50343790  1
  Fe  Fe43  1  0.33587819  0.67050367  0.67019299  1
  Ni  Ni44  1  0.50465305  0.83730372  0.83752392  1
  Cr  Cr45  1  0.83740747  0.17125318  0.50344581  1
  Fe  Fe46  1  0.67050288  1.00310225  0.67168527  1
  Fe  Fe47  1  0.83780490  0.16872322  0.83559050  1
  Fe  Fe48  1  0.83867966  0.50509476  0.50299316  1
  Fe  Fe49  1  0.67043438  0.33717579  0.67135044  1
  Fe  Fe50  1  0.83711616  0.50530569  0.83648656  1
  Fe  Fe51  1  0.83861392  0.83528729  0.50387574  1
  Fe  Fe52  1  0.67122685  0.67076354  0.67097629  1
  Ni  Ni53  1  0.83596182  0.83701787  0.83763459  1
" 