1203,Ni27Cr73_3,-229.155586486736, 147.523797682657,Ni27Cr73,"# generated using pymatgen
 data_Cr7Ni20
_symmetry_space_group_name_H-M   'P 1'
_cell_length_a   7.48584672
_cell_length_b   7.48584672
_cell_length_c   10.58658596
_cell_angle_alpha   90.00000000
_cell_angle_beta   90.00000000
_cell_angle_gamma   90.00000000
_symmetry_Int_Tables_number   1
_chemical_formula_structural   Cr7Ni20
_chemical_formula_sum   'Cr14 Ni40'
_cell_volume   593.25005738
_cell_formula_units_Z   2
loop_
 _symmetry_equiv_pos_site_id
 _symmetry_equiv_pos_as_xyz
  1  'x, y, z'
loop_
 _atom_site_type_symbol
 _atom_site_label
 _atom_site_symmetry_multiplicity
 _atom_site_fract_x
 _atom_site_fract_y
 _atom_site_fract_z
 _atom_site_occupancy
  Ni  Ni0  1  0.99623156  0.99617427  0.99744386  1
  Cr  Cr1  1  0.16827881  0.16487442  0.16455324  1
  Cr  Cr2  1  0.99654871  0.99862410  0.33206239  1
  Cr  Cr3  1  0.99648719  0.33166220  0.99801845  1
  Ni  Ni4  1  0.16540941  0.50241922  0.16498664  1
  Cr  Cr5  1  0.99680147  0.33234986  0.33188021  1
  Ni  Ni6  1  0.99839082  0.66672498  -0.00115128  1
  Ni  Ni7  1  0.16608775  0.83013917  0.16408607  1
  Cr  Cr8  1  -0.00002029  0.66581773  0.33168375  1
  Cr  Cr9  1  0.33459379  0.99682147  0.99532493  1
  Ni  Ni10  1  0.50224479  0.16352791  0.16686105  1
  Ni  Ni11  1  0.33245390  0.99772370  0.33141083  1
  Cr  Cr12  1  0.33419425  0.33270470  0.99350449  1
  Cr  Cr13  1  0.49779002  0.49730019  0.16517481  1
  Ni  Ni14  1  0.33244114  0.33265308  0.33355580  1
  Ni  Ni15  1  0.33168406  0.66658965  0.99768248  1
  Ni  Ni16  1  0.49878247  0.83322772  0.16520520  1
  Ni  Ni17  1  0.33104995  0.66573954  0.33222502  1
  Ni  Ni18  1  0.66694619  0.99868202  -0.00124935  1
  Ni  Ni19  1  0.82786482  0.16421507  0.16417198  1
  Ni  Ni20  1  0.66424224  0.00117032  0.32898559  1
  Ni  Ni21  1  0.66640951  0.33085715  0.99763034  1
  Ni  Ni22  1  0.83094100  0.49918215  0.16260824  1
  Ni  Ni23  1  0.66426863  0.32975062  0.33102041  1
  Ni  Ni24  1  0.66576047  0.66647145  0.99693761  1
  Ni  Ni25  1  0.83097243  0.83285450  0.16168174  1
  Cr  Cr26  1  0.66497044  0.66639291  0.33218398  1
  Ni  Ni27  1  0.16575021  0.16528674  0.50107263  1
  Ni  Ni28  1  -0.00045108  0.00012974  0.66657650  1
  Ni  Ni29  1  0.16420381  0.16437086  0.82852983  1
  Ni  Ni30  1  0.16747498  0.49781136  0.49955916  1
  Ni  Ni31  1  -0.00068109  0.33100272  0.66617605  1
  Ni  Ni32  1  0.16430156  0.49992104  0.83162885  1
  Ni  Ni33  1  0.16651187  0.83322878  0.49984426  1
  Ni  Ni34  1  -0.00016205  0.66529156  0.66726679  1
  Ni  Ni35  1  0.16332832  0.83212208  0.83224819  1
  Cr  Cr36  1  0.49911164  0.16606455  0.49827124  1
  Ni  Ni37  1  0.33098744  0.00011929  0.66770041  1
  Ni  Ni38  1  0.50107619  0.16535065  0.83022517  1
  Ni  Ni39  1  0.49686754  0.49653355  0.49919768  1
  Ni  Ni40  1  0.33162824  0.33137848  0.66688160  1
  Ni  Ni41  1  0.50112655  0.49880157  0.83164832  1
  Cr  Cr42  1  0.49866470  0.83296066  0.49901103  1
  Cr  Cr43  1  0.33335505  0.66532451  0.66668258  1
  Ni  Ni44  1  0.50098321  0.83222737  0.83222523  1
  Ni  Ni45  1  0.83172733  0.16557498  0.50080527  1
  Ni  Ni46  1  0.66608266  -0.00000496  0.66879282  1
  Ni  Ni47  1  0.83123797  0.16444661  0.83100957  1
  Cr  Cr48  1  0.82973678  0.49712717  0.50347222  1
  Ni  Ni49  1  0.66532185  0.33149561  0.66768286  1
  Ni  Ni50  1  0.83150693  0.49953590  0.83153652  1
  Cr  Cr51  1  0.83238733  0.83494794  0.50489401  1
  Ni  Ni52  1  0.66604474  0.66456174  0.66895133  1
  Ni  Ni53  1  0.83224703  0.83193467  0.83182660  1
" 