4019,Ni27Fe49Cr23_11,-228.290756843041, 179.762324575767,Ni27Fe49Cr23,"# generated using pymatgen
 data_Cr7Fe13Ni7
_symmetry_space_group_name_H-M   'P 1'
_cell_length_a   7.45950597
_cell_length_b   7.45950597
_cell_length_c   10.54933451
_cell_angle_alpha   90.00000000
_cell_angle_beta   90.00000000
_cell_angle_gamma   90.00000000
_symmetry_Int_Tables_number   1
_chemical_formula_structural   Cr7Fe13Ni7
_chemical_formula_sum   'Cr14 Fe26 Ni14'
_cell_volume   587.00958882
_cell_formula_units_Z   2
loop_
 _symmetry_equiv_pos_site_id
 _symmetry_equiv_pos_as_xyz
  1  'x, y, z'
loop_
 _atom_site_type_symbol
 _atom_site_label
 _atom_site_symmetry_multiplicity
 _atom_site_fract_x
 _atom_site_fract_y
 _atom_site_fract_z
 _atom_site_occupancy
  Cr  Cr0  1  0.99949643  0.99824501  0.99955946  1
  Cr  Cr1  1  0.16949389  0.16779341  0.16701789  1
  Cr  Cr2  1  1.00020753  0.99728118  0.33609698  1
  Fe  Fe3  1  0.99760996  0.33510666  0.99909334  1
  Fe  Fe4  1  0.16879410  0.50433702  0.16793460  1
  Cr  Cr5  1  0.99926538  0.33677387  0.33361584  1
  Cr  Cr6  1  0.00281198  0.66688342  0.00271144  1
  Ni  Ni7  1  0.17146736  0.83261034  0.16805720  1
  Ni  Ni8  1  0.00345050  0.66682678  0.33406618  1
  Fe  Fe9  1  0.33727181  0.99777788  1.00000400  1
  Fe  Fe10  1  0.50105215  0.16503483  0.16633094  1
  Fe  Fe11  1  0.33416494  0.99858830  0.33457407  1
  Cr  Cr12  1  0.33737097  0.33582386  0.00066643  1
  Cr  Cr13  1  0.50151567  0.50211952  0.16874796  1
  Fe  Fe14  1  0.33486489  0.33475611  0.33616034  1
  Ni  Ni15  1  0.33456505  0.66978229  0.99862328  1
  Ni  Ni16  1  0.49794355  0.83205455  0.16726152  1
  Ni  Ni17  1  0.33250312  0.66765699  0.33520360  1
  Ni  Ni18  1  0.66383722  0.00181985  0.99920622  1
  Cr  Cr19  1  0.83243420  0.16915327  0.16463004  1
  Cr  Cr20  1  0.66485384  0.00192177  0.33452638  1
  Ni  Ni21  1  0.66721354  0.33214166  0.99814665  1
  Fe  Fe22  1  0.83246261  0.50106884  0.16765856  1
  Ni  Ni23  1  0.66466925  0.33327645  0.33538585  1
  Fe  Fe24  1  0.66407205  0.66734868  0.99944721  1
  Cr  Cr25  1  0.83001768  0.83149488  0.16890536  1
  Fe  Fe26  1  0.66754186  0.66565525  0.33617862  1
  Fe  Fe27  1  0.16728395  0.16718666  0.50185499  1
  Fe  Fe28  1  0.99942290  0.00201496  0.66536068  1
  Cr  Cr29  1  0.16575094  0.16730325  0.83295596  1
  Fe  Fe30  1  0.16646115  0.50267686  0.50155222  1
  Ni  Ni31  1  0.99808744  0.33531902  0.66702784  1
  Cr  Cr32  1  0.16694014  0.50117357  0.83298404  1
  Fe  Fe33  1  0.16841636  0.83181592  0.50090776  1
  Ni  Ni34  1  0.00189261  0.66881833  0.66564538  1
  Fe  Fe35  1  0.16964603  0.83443916  0.83221596  1
  Fe  Fe36  1  0.50127557  0.16745347  0.50151489  1
  Fe  Fe37  1  0.33519380  0.99928259  0.66710330  1
  Ni  Ni38  1  0.50272312  0.16485797  0.83401997  1
  Fe  Fe39  1  0.50206185  0.50130517  0.49900381  1
  Cr  Cr40  1  0.33796359  0.33507717  0.66593871  1
  Fe  Fe41  1  0.50431826  0.50088036  0.83395177  1
  Fe  Fe42  1  0.49948209  0.83242935  0.50116529  1
  Fe  Fe43  1  0.33503476  0.66821013  0.66680634  1
  Ni  Ni44  1  0.50022460  0.83250267  0.83301646  1
  Fe  Fe45  1  0.83246279  0.16904879  0.50293527  1
  Fe  Fe46  1  0.66629246  0.00189734  0.66742981  1
  Ni  Ni47  1  0.83185495  0.16864029  0.83210853  1
  Fe  Fe48  1  0.83307545  0.50112340  0.50168395  1
  Ni  Ni49  1  0.66724556  0.33225525  0.66780340  1
  Fe  Fe50  1  0.83148959  0.49900106  0.83219958  1
  Fe  Fe51  1  0.83368092  0.83113495  0.50211206  1
  Fe  Fe52  1  0.66677665  0.66434721  0.66627727  1
  Cr  Cr53  1  0.83128819  0.83376970  0.83191211  1
" 