662,Ni27Cr73_16,-229.323980522238, 151.503522094272,Ni27Cr73,"# generated using pymatgen
 data_Cr7Ni20
_symmetry_space_group_name_H-M   'P 1'
_cell_length_a   7.48555994
_cell_length_b   7.48555994
_cell_length_c   10.58618039
_cell_angle_alpha   90.00000000
_cell_angle_beta   90.00000000
_cell_angle_gamma   90.00000000
_symmetry_Int_Tables_number   1
_chemical_formula_structural   Cr7Ni20
_chemical_formula_sum   'Cr14 Ni40'
_cell_volume   593.18187755
_cell_formula_units_Z   2
loop_
 _symmetry_equiv_pos_site_id
 _symmetry_equiv_pos_as_xyz
  1  'x, y, z'
loop_
 _atom_site_type_symbol
 _atom_site_label
 _atom_site_symmetry_multiplicity
 _atom_site_fract_x
 _atom_site_fract_y
 _atom_site_fract_z
 _atom_site_occupancy
  Ni  Ni0  1  0.99800469  0.00007242  0.99825311  1
  Ni  Ni1  1  0.16348244  0.16533704  0.16553997  1
  Ni  Ni2  1  0.00237488  0.00053263  0.33191219  1
  Ni  Ni3  1  0.99769829  0.33118164  -0.00012497  1
  Ni  Ni4  1  0.16465250  0.49756321  0.16453165  1
  Ni  Ni5  1  -0.00110232  0.33047397  0.33039027  1
  Ni  Ni6  1  0.99848397  0.66518548  0.99831577  1
  Ni  Ni7  1  0.16447682  0.83325557  0.16624175  1
  Cr  Cr8  1  0.00000651  0.66466562  0.33255305  1
  Cr  Cr9  1  0.33176294  0.00120154  0.99736654  1
  Ni  Ni10  1  0.49941891  0.16825270  0.16431754  1
  Ni  Ni11  1  0.32965144  0.99820629  0.33333379  1
  Ni  Ni12  1  0.33191726  0.32980755  0.00032685  1
  Ni  Ni13  1  0.49936867  0.49605326  0.16649446  1
  Cr  Cr14  1  0.33071572  0.33051951  0.33171361  1
  Cr  Cr15  1  0.32938982  0.66478266  0.00000999  1
  Cr  Cr16  1  0.49717549  0.83244077  0.16734389  1
  Ni  Ni17  1  0.33159680  0.66677167  0.33175864  1
  Ni  Ni18  1  0.66745563  0.00297924  0.99649995  1
  Ni  Ni19  1  0.83352630  0.16826889  0.16455368  1
  Cr  Cr20  1  0.66505344  0.00094642  0.33303427  1
  Ni  Ni21  1  0.66667252  0.32932128  0.00008281  1
  Ni  Ni22  1  0.83217691  0.49527384  0.16535183  1
  Ni  Ni23  1  0.66614139  0.33276896  0.32883406  1
  Cr  Cr24  1  0.66810864  0.66481491  0.99740251  1
  Cr  Cr25  1  0.83460028  0.83469554  0.16490158  1
  Ni  Ni26  1  0.66402368  0.66384104  0.33258565  1
  Ni  Ni27  1  0.16599588  0.16406028  0.49977508  1
  Ni  Ni28  1  -0.00054252  0.99808917  0.66605684  1
  Ni  Ni29  1  0.16429801  0.16428315  0.83100417  1
  Ni  Ni30  1  0.16479896  0.49779981  0.49984834  1
  Ni  Ni31  1  -0.00047679  0.33103335  0.66593474  1
  Cr  Cr32  1  0.16263447  0.49618327  0.83163723  1
  Ni  Ni33  1  0.16555090  0.83432762  0.49824363  1
  Ni  Ni34  1  0.99682894  0.66711821  0.66587471  1
  Ni  Ni35  1  0.16229875  0.83501774  0.83176536  1
  Ni  Ni36  1  0.49699869  0.16339473  0.50082107  1
  Ni  Ni37  1  0.33214119  0.00079074  0.66504471  1
  Ni  Ni38  1  0.49965567  0.16454500  0.83113504  1
  Cr  Cr39  1  0.49918179  0.49833687  0.49895025  1
  Ni  Ni40  1  0.33099878  0.32713067  0.66472599  1
  Cr  Cr41  1  0.50007446  0.49567804  0.83132230  1
  Ni  Ni42  1  0.49843386  0.83367182  0.49865425  1
  Cr  Cr43  1  0.33055841  0.66838302  0.66461338  1
  Ni  Ni44  1  0.50070412  0.83584310  0.82987941  1
  Cr  Cr45  1  0.83383206  0.16484726  0.49879768  1
  Ni  Ni46  1  0.66472245  0.99818607  0.66666640  1
  Ni  Ni47  1  0.83242048  0.16510869  0.83264958  1
  Cr  Cr48  1  0.83246681  0.49841642  0.50013947  1
  Ni  Ni49  1  0.66581574  0.32975369  0.66738561  1
  Ni  Ni50  1  0.83300177  0.49769858  0.83114572  1
  Ni  Ni51  1  0.83227329  0.83244162  0.50075787  1
  Ni  Ni52  1  0.66836131  0.66830467  0.66596969  1
  Ni  Ni53  1  0.83336598  0.83356980  0.83090410  1
" 