7806,Ni27Fe46Cr26_2,-227.063990443418, 184.628782844,Ni27Fe46Cr26,"# generated using pymatgen
 data_Cr8Fe12Ni7
_symmetry_space_group_name_H-M   'P 1'
_cell_length_a   7.46359804
_cell_length_b   7.46359804
_cell_length_c   10.55512157
_cell_angle_alpha   90.00000000
_cell_angle_beta   90.00000000
_cell_angle_gamma   90.00000000
_symmetry_Int_Tables_number   1
_chemical_formula_structural   Cr8Fe12Ni7
_chemical_formula_sum   'Cr16 Fe24 Ni14'
_cell_volume   587.97616838
_cell_formula_units_Z   2
loop_
 _symmetry_equiv_pos_site_id
 _symmetry_equiv_pos_as_xyz
  1  'x, y, z'
loop_
 _atom_site_type_symbol
 _atom_site_label
 _atom_site_symmetry_multiplicity
 _atom_site_fract_x
 _atom_site_fract_y
 _atom_site_fract_z
 _atom_site_occupancy
  Cr  Cr0  1  0.00177859  0.00190887  0.00111738  1
  Fe  Fe1  1  0.17148693  0.16713428  0.16759599  1
  Fe  Fe2  1  0.00364620  1.00015770  0.33464367  1
  Fe  Fe3  1  0.00228720  0.33785228  0.00032385  1
  Fe  Fe4  1  0.16713139  0.49868380  0.16637778  1
  Cr  Cr5  1  0.99894067  0.33432324  0.33227907  1
  Ni  Ni6  1  0.99856312  0.66475814  0.00243810  1
  Cr  Cr7  1  0.16777866  0.83321498  0.16914657  1
  Ni  Ni8  1  0.99878763  0.66745689  0.33134168  1
  Fe  Fe9  1  0.33700165  0.00112801  1.00011702  1
  Fe  Fe10  1  0.49690708  0.16461848  0.16690491  1
  Ni  Ni11  1  0.33724114  0.00092131  0.33463066  1
  Ni  Ni12  1  0.33340972  0.33152112  0.00181732  1
  Fe  Fe13  1  0.50072456  0.50016450  0.16718060  1
  Fe  Fe14  1  0.33510030  0.33246178  0.33147950  1
  Cr  Cr15  1  0.33504822  0.66451409  0.99959615  1
  Ni  Ni16  1  0.50196063  0.83422716  0.16436578  1
  Cr  Cr17  1  0.33512395  0.66713188  0.33402548  1
  Fe  Fe18  1  0.66255129  0.99824035  1.00013252  1
  Cr  Cr19  1  0.83134407  0.16630381  0.16803784  1
  Fe  Fe20  1  0.66309706  0.99859514  0.33338127  1
  Cr  Cr21  1  0.66468953  0.33409228  0.00087243  1
  Fe  Fe22  1  0.83164360  0.50447186  0.16718375  1
  Fe  Fe23  1  0.66186069  0.33442462  0.33414954  1
  Ni  Ni24  1  0.66644579  0.66600937  0.00031675  1
  Fe  Fe25  1  0.83078168  0.83124114  0.16673994  1
  Fe  Fe26  1  0.66447252  0.66733865  0.33172999  1
  Fe  Fe27  1  0.17193726  0.16712653  0.49946810  1
  Cr  Cr28  1  0.00308767  0.00323957  0.66024584  1
  Fe  Fe29  1  0.17096984  0.16928880  0.83312634  1
  Cr  Cr30  1  0.17003627  0.49893288  0.50206199  1
  Ni  Ni31  1  0.99896610  0.33280951  0.66963075  1
  Fe  Fe32  1  0.16855306  0.49683021  0.83381694  1
  Fe  Fe33  1  0.17175207  0.83344443  0.49876111  1
  Cr  Cr34  1  0.00300461  0.66563282  0.66766051  1
  Cr  Cr35  1  0.16937964  0.83355579  0.83164335  1
  Fe  Fe36  1  0.49853005  0.16786856  0.50064745  1
  Ni  Ni37  1  0.33598581  1.00004666  0.66700785  1
  Ni  Ni38  1  0.49761478  0.16913269  0.83518738  1
  Ni  Ni39  1  0.49961812  0.49894937  0.50057455  1
  Fe  Fe40  1  0.33487897  0.33230917  0.66888324  1
  Ni  Ni41  1  0.49914682  0.49833544  0.83114859  1
  Ni  Ni42  1  0.49923718  0.83369529  0.50261740  1
  Ni  Ni43  1  0.33816475  0.66701878  0.66644615  1
  Fe  Fe44  1  0.50019055  0.83326109  0.83370465  1
  Fe  Fe45  1  0.82997077  0.16966347  0.49917015  1
  Cr  Cr46  1  0.66427396  0.00274680  0.66793527  1
  Cr  Cr47  1  0.83331618  0.16904811  0.83252463  1
  Cr  Cr48  1  0.83009083  0.49987174  0.50223549  1
  Ni  Ni49  1  0.66493334  0.33467931  0.66586450  1
  Fe  Fe50  1  0.83092850  0.50012809  0.83336935  1
  Cr  Cr51  1  0.83251137  0.83432270  0.49580671  1
  Fe  Fe52  1  0.66335743  0.66565559  0.66797882  1
  Cr  Cr53  1  0.83223922  0.83198987  0.83703638  1
" 