7904,Ni27Fe46Cr26_11,-227.113883543336, 188.451395440389,Ni27Fe46Cr26,"# generated using pymatgen
 data_Cr8Fe12Ni7
_symmetry_space_group_name_H-M   'P 1'
_cell_length_a   7.45941370
_cell_length_b   7.45941370
_cell_length_c   10.54920402
_cell_angle_alpha   90.00000000
_cell_angle_beta   90.00000000
_cell_angle_gamma   90.00000000
_symmetry_Int_Tables_number   1
_chemical_formula_structural   Cr8Fe12Ni7
_chemical_formula_sum   'Cr16 Fe24 Ni14'
_cell_volume   586.98780627
_cell_formula_units_Z   2
loop_
 _symmetry_equiv_pos_site_id
 _symmetry_equiv_pos_as_xyz
  1  'x, y, z'
loop_
 _atom_site_type_symbol
 _atom_site_label
 _atom_site_symmetry_multiplicity
 _atom_site_fract_x
 _atom_site_fract_y
 _atom_site_fract_z
 _atom_site_occupancy
  Fe  Fe0  1  0.99690245  0.00153957  1.00046283  1
  Fe  Fe1  1  0.16498425  0.16825750  0.16759001  1
  Ni  Ni2  1  0.99982250  0.00146775  0.33377239  1
  Ni  Ni3  1  0.00053698  0.33173893  0.00201080  1
  Fe  Fe4  1  0.16798810  0.49988682  0.16548323  1
  Cr  Cr5  1  0.99989216  0.33052681  0.33422808  1
  Fe  Fe6  1  0.00097704  0.66698709  0.00092507  1
  Cr  Cr7  1  0.16434257  0.83396046  0.16682316  1
  Ni  Ni8  1  1.00031237  0.66925751  0.33443746  1
  Cr  Cr9  1  0.33526055  0.99894611  0.00120479  1
  Cr  Cr10  1  0.49999923  0.16685274  0.16705468  1
  Fe  Fe11  1  0.33111140  0.00173654  0.33501299  1
  Fe  Fe12  1  0.33407400  0.33591993  0.00072176  1
  Ni  Ni13  1  0.49939768  0.49913816  0.16724762  1
  Fe  Fe14  1  0.33202014  0.33283320  0.33319514  1
  Ni  Ni15  1  0.33396727  0.66378869  0.00084533  1
  Fe  Fe16  1  0.50330355  0.83259508  0.16716690  1
  Cr  Cr17  1  0.33688213  0.66828760  0.33346560  1
  Ni  Ni18  1  0.67032334  0.00235519  0.00055625  1
  Fe  Fe19  1  0.83508547  0.16443131  0.16479052  1
  Fe  Fe20  1  0.67008698  0.99759465  0.33270693  1
  Fe  Fe21  1  0.66675339  0.33228714  1.00027897  1
  Cr  Cr22  1  0.83517026  0.50298735  0.16759070  1
  Cr  Cr23  1  0.66850840  0.33360662  0.33398709  1
  Cr  Cr24  1  0.66471258  0.66883744  0.00147547  1
  Ni  Ni25  1  0.83422814  0.83543671  0.16710831  1
  Fe  Fe26  1  0.67006243  0.67010472  0.33457880  1
  Ni  Ni27  1  0.16736355  0.16477336  0.50039736  1
  Ni  Ni28  1  0.99980017  0.00445641  0.66644483  1
  Cr  Cr29  1  0.16676278  0.16795882  0.83231106  1
  Cr  Cr30  1  0.16491769  0.49914807  0.50058703  1
  Ni  Ni31  1  0.99908002  0.33076976  0.66568953  1
  Ni  Ni32  1  0.16699078  0.49861917  0.83701820  1
  Fe  Fe33  1  0.16584074  0.83794183  0.49992870  1
  Cr  Cr34  1  0.99940656  0.66773889  0.66721811  1
  Cr  Cr35  1  0.16499998  0.83340397  0.83342850  1
  Cr  Cr36  1  0.49991133  0.16607000  0.50259132  1
  Ni  Ni37  1  0.33364153  0.00144008  0.66508927  1
  Fe  Fe38  1  0.50227234  0.16928829  0.83281683  1
  Fe  Fe39  1  0.50182371  0.50016322  0.50034328  1
  Fe  Fe40  1  0.33201168  0.33394753  0.66777915  1
  Fe  Fe41  1  0.49967748  0.49758387  0.83447566  1
  Fe  Fe42  1  0.50148163  0.83474469  0.50141528  1
  Cr  Cr43  1  0.33552195  0.66752635  0.66844506  1
  Cr  Cr44  1  0.50214385  0.83645730  0.83344577  1
  Fe  Fe45  1  0.83582286  0.16532222  0.50244182  1
  Fe  Fe46  1  0.67033913  0.99970218  0.66836710  1
  Ni  Ni47  1  0.83175728  0.16729003  0.83434868  1
  Fe  Fe48  1  0.83221213  0.50045641  0.50134117  1
  Fe  Fe49  1  0.66805472  0.33318827  0.66699575  1
  Cr  Cr50  1  0.83476463  0.49956846  0.83320994  1
  Fe  Fe51  1  0.83462723  0.83573253  0.49913999  1
  Ni  Ni52  1  0.66591946  0.66628584  0.66375487  1
  Fe  Fe53  1  0.83378101  0.83669244  0.83388648  1
" 