7786,Ni27Fe66Cr5_8,-232.845348471996, 191.650621848569,Ni27Fe66Cr5,"# generated using pymatgen
 data_Cr2Fe18Ni7
_symmetry_space_group_name_H-M   'P 1'
_cell_length_a   7.41216790
_cell_length_b   7.41216790
_cell_length_c   10.48238836
_cell_angle_alpha   90.00000000
_cell_angle_beta   90.00000000
_cell_angle_gamma   90.00000000
_symmetry_Int_Tables_number   1
_chemical_formula_structural   Cr2Fe18Ni7
_chemical_formula_sum   'Cr4 Fe36 Ni14'
_cell_volume   575.90485828
_cell_formula_units_Z   2
loop_
 _symmetry_equiv_pos_site_id
 _symmetry_equiv_pos_as_xyz
  1  'x, y, z'
loop_
 _atom_site_type_symbol
 _atom_site_label
 _atom_site_symmetry_multiplicity
 _atom_site_fract_x
 _atom_site_fract_y
 _atom_site_fract_z
 _atom_site_occupancy
  Ni  Ni0  1  1.00212648  0.00378672  1.00236686  1
  Fe  Fe1  1  0.17034519  0.16606345  0.17085871  1
  Ni  Ni2  1  1.00184956  1.00363287  0.33875825  1
  Fe  Fe3  1  1.00160695  0.33605109  1.00366592  1
  Fe  Fe4  1  0.16959904  0.50448940  0.16951538  1
  Cr  Cr5  1  1.00358146  0.33560682  0.33646735  1
  Fe  Fe6  1  0.00428030  0.67119369  1.00253328  1
  Fe  Fe7  1  0.16845288  0.84038734  0.16949941  1
  Fe  Fe8  1  1.00237886  0.67261188  0.33797446  1
  Fe  Fe9  1  0.33661806  1.00199380  0.00384969  1
  Ni  Ni10  1  0.50552455  0.16906036  0.17154597  1
  Fe  Fe11  1  0.33659244  0.00425960  0.33744002  1
  Cr  Cr12  1  0.33741394  0.33674738  0.00450025  1
  Fe  Fe13  1  0.50698403  0.50307991  0.17034293  1
  Fe  Fe14  1  0.33817520  0.33427416  0.33683124  1
  Fe  Fe15  1  0.33650503  0.67339526  0.00392112  1
  Ni  Ni16  1  0.50326089  0.83745228  0.16866256  1
  Cr  Cr17  1  0.33845938  0.67109715  0.33647865  1
  Fe  Fe18  1  0.67012162  0.00456472  1.00339426  1
  Ni  Ni19  1  0.83654978  0.17064234  0.16935603  1
  Fe  Fe20  1  0.67042368  1.00280614  0.33770128  1
  Fe  Fe21  1  0.67235354  0.33580930  0.00381077  1
  Fe  Fe22  1  0.83468231  0.50483543  0.16930387  1
  Fe  Fe23  1  0.66967950  0.33600993  0.33692775  1
  Fe  Fe24  1  0.67032511  0.67132931  0.00388069  1
  Fe  Fe25  1  0.83626768  0.83964139  0.17090305  1
  Fe  Fe26  1  0.67242699  0.67218494  0.33694566  1
  Ni  Ni27  1  0.17095681  0.16938074  0.50430087  1
  Fe  Fe28  1  1.00226462  1.00170432  0.67025951  1
  Fe  Fe29  1  0.16993051  0.16687392  0.83699823  1
  Fe  Fe30  1  0.17064532  0.50477412  0.50464644  1
  Cr  Cr31  1  0.00399738  0.33591587  0.67124857  1
  Fe  Fe32  1  0.16967522  0.50572745  0.83694438  1
  Ni  Ni33  1  0.17036893  0.83769136  0.50386648  1
  Ni  Ni34  1  0.00426085  0.67122036  0.66916983  1
  Ni  Ni35  1  0.17129111  0.83575660  0.83658241  1
  Fe  Fe36  1  0.50386305  0.16755350  0.50367201  1
  Fe  Fe37  1  0.33595315  1.00246836  0.67003463  1
  Fe  Fe38  1  0.50416595  0.16856182  0.83671723  1
  Fe  Fe39  1  0.50478760  0.50273318  0.50475251  1
  Fe  Fe40  1  0.33896082  0.33662128  0.67052020  1
  Fe  Fe41  1  0.50469130  0.50465463  0.83629399  1
  Ni  Ni42  1  0.50385606  0.83595255  0.50492596  1
  Fe  Fe43  1  0.33690370  0.67159285  0.67013836  1
  Fe  Fe44  1  0.50448492  0.83793105  0.83676313  1
  Ni  Ni45  1  0.83601621  0.17031908  0.50429487  1
  Ni  Ni46  1  0.67009160  1.00337598  0.67046092  1
  Ni  Ni47  1  0.83579126  0.17110457  0.83770857  1
  Fe  Fe48  1  0.83621901  0.50562276  0.50386682  1
  Fe  Fe49  1  0.67036932  0.33624355  0.67077166  1
  Fe  Fe50  1  0.83703765  0.50613831  0.83763336  1
  Ni  Ni51  1  0.83671943  0.83771995  0.50418105  1
  Fe  Fe52  1  0.67164125  0.67120966  0.67000866  1
  Fe  Fe53  1  0.83838058  0.83805354  0.83571201  1
" 