4081,Ni27Fe66Cr5_10,-232.967252969529, 195.495977599249,Ni27Fe66Cr5,"# generated using pymatgen
 data_Cr2Fe18Ni7
_symmetry_space_group_name_H-M   'P 1'
_cell_length_a   7.41278255
_cell_length_b   7.41278255
_cell_length_c   10.48325762
_cell_angle_alpha   90.00000000
_cell_angle_beta   90.00000000
_cell_angle_gamma   90.00000000
_symmetry_Int_Tables_number   1
_chemical_formula_structural   Cr2Fe18Ni7
_chemical_formula_sum   'Cr4 Fe36 Ni14'
_cell_volume   576.04814133
_cell_formula_units_Z   2
loop_
 _symmetry_equiv_pos_site_id
 _symmetry_equiv_pos_as_xyz
  1  'x, y, z'
loop_
 _atom_site_type_symbol
 _atom_site_label
 _atom_site_symmetry_multiplicity
 _atom_site_fract_x
 _atom_site_fract_y
 _atom_site_fract_z
 _atom_site_occupancy
  Fe  Fe0  1  0.00576367  0.00501314  0.00390207  1
  Fe  Fe1  1  0.17074131  0.16920532  0.17154409  1
  Fe  Fe2  1  0.00458209  0.00549398  0.33823377  1
  Fe  Fe3  1  1.00223029  0.33735691  1.00359404  1
  Fe  Fe4  1  0.17103820  0.50443690  0.17263178  1
  Ni  Ni5  1  0.00383986  0.33800557  0.33704254  1
  Fe  Fe6  1  1.00272991  0.66861656  0.00391663  1
  Fe  Fe7  1  0.17141915  0.83738457  0.17078186  1
  Fe  Fe8  1  0.00473280  0.66890196  0.33842281  1
  Fe  Fe9  1  0.33681805  1.00288486  0.00620270  1
  Ni  Ni10  1  0.50401571  0.17055499  0.17159763  1
  Ni  Ni11  1  0.33743872  1.00257059  0.33537670  1
  Cr  Cr12  1  0.33715620  0.33768709  1.00362833  1
  Fe  Fe13  1  0.50425940  0.50421724  0.17180251  1
  Ni  Ni14  1  0.33663304  0.33661834  0.33803884  1
  Ni  Ni15  1  0.33735962  0.67051388  0.00516867  1
  Ni  Ni16  1  0.50279562  0.83684134  0.17099918  1
  Fe  Fe17  1  0.33659316  0.66895227  0.33669818  1
  Cr  Cr18  1  0.67051499  0.00400042  1.00303334  1
  Fe  Fe19  1  0.83682926  0.17102344  0.17190932  1
  Fe  Fe20  1  0.66928039  0.00523933  0.33605229  1
  Fe  Fe21  1  0.67117723  0.33934945  0.00394978  1
  Fe  Fe22  1  0.83558034  0.50320170  0.17024100  1
  Ni  Ni23  1  0.67037682  0.33739322  0.33591287  1
  Fe  Fe24  1  0.66874751  0.66854107  0.00413651  1
  Fe  Fe25  1  0.83669274  0.83668482  0.17151853  1
  Fe  Fe26  1  0.66936905  0.66965419  0.33655976  1
  Fe  Fe27  1  0.17122541  0.16910461  0.50256423  1
  Ni  Ni28  1  1.00316175  1.00202577  0.66935305  1
  Ni  Ni29  1  0.17113973  0.16879873  0.83658766  1
  Ni  Ni30  1  0.17038729  0.50511648  0.50405935  1
  Cr  Cr31  1  0.00403578  0.33784906  0.67023428  1
  Fe  Fe32  1  0.16943506  0.50425821  0.83656221  1
  Ni  Ni33  1  0.17061993  0.83663755  0.50268661  1
  Ni  Ni34  1  0.00369722  0.67156324  0.67016669  1
  Cr  Cr35  1  0.17148959  0.83778244  0.83742362  1
  Fe  Fe36  1  0.50266271  0.17114908  0.50205147  1
  Fe  Fe37  1  0.33648529  0.00497308  0.66812275  1
  Fe  Fe38  1  0.50338702  0.17085798  0.83528884  1
  Fe  Fe39  1  0.50303729  0.50310952  0.50349548  1
  Fe  Fe40  1  0.33713046  0.33689918  0.66986164  1
  Fe  Fe41  1  0.50348044  0.50484007  0.83589105  1
  Fe  Fe42  1  0.50185990  0.83653180  0.50228317  1
  Fe  Fe43  1  0.33649448  0.66919071  0.66937575  1
  Fe  Fe44  1  0.50410250  0.83516268  0.83710688  1
  Fe  Fe45  1  0.83688623  0.17044131  0.50261180  1
  Fe  Fe46  1  0.67174458  0.00372194  0.67040282  1
  Fe  Fe47  1  0.83840292  0.17056088  0.83628962  1
  Fe  Fe48  1  0.83645769  0.50434679  0.50339440  1
  Ni  Ni49  1  0.66844405  0.33650796  0.67114597  1
  Ni  Ni50  1  0.83484582  0.50400672  0.83786111  1
  Fe  Fe51  1  0.83854142  0.83631597  0.50391391  1
  Fe  Fe52  1  0.67243620  0.66970313  0.67060308  1
  Fe  Fe53  1  0.83734684  0.83585468  0.83541956  1
" 