5522,Ni27Fe46Cr26_13,-226.84924048604, 183.148512021245,Ni27Fe46Cr26,"# generated using pymatgen
 data_Cr8Fe12Ni7
_symmetry_space_group_name_H-M   'P 1'
_cell_length_a   7.46218732
_cell_length_b   7.46218732
_cell_length_c   10.55312651
_cell_angle_alpha   90.00000000
_cell_angle_beta   90.00000000
_cell_angle_gamma   90.00000000
_symmetry_Int_Tables_number   1
_chemical_formula_structural   Cr8Fe12Ni7
_chemical_formula_sum   'Cr16 Fe24 Ni14'
_cell_volume   587.64282474
_cell_formula_units_Z   2
loop_
 _symmetry_equiv_pos_site_id
 _symmetry_equiv_pos_as_xyz
  1  'x, y, z'
loop_
 _atom_site_type_symbol
 _atom_site_label
 _atom_site_symmetry_multiplicity
 _atom_site_fract_x
 _atom_site_fract_y
 _atom_site_fract_z
 _atom_site_occupancy
  Fe  Fe0  1  0.00471105  1.00012772  0.99950782  1
  Fe  Fe1  1  0.16887433  0.16377639  0.16732288  1
  Fe  Fe2  1  0.00119154  0.99862955  0.33307014  1
  Fe  Fe3  1  0.00171289  0.33304852  0.00041552  1
  Fe  Fe4  1  0.16663907  0.50298692  0.16769889  1
  Cr  Cr5  1  0.00246489  0.33324990  0.33408643  1
  Fe  Fe6  1  0.00457450  0.66773607  0.00141010  1
  Ni  Ni7  1  0.16573158  0.83288295  0.16727871  1
  Fe  Fe8  1  0.00060344  0.66679498  0.33384588  1
  Ni  Ni9  1  0.33294977  0.99833628  0.00153028  1
  Ni  Ni10  1  0.49881472  0.16579325  0.16690178  1
  Fe  Fe11  1  0.33260955  0.00192409  0.33122496  1
  Cr  Cr12  1  0.32930914  0.33239614  0.00146772  1
  Cr  Cr13  1  0.49937632  0.49889612  0.16743138  1
  Fe  Fe14  1  0.33391117  0.33320389  0.33545100  1
  Ni  Ni15  1  0.33239134  0.66972976  0.99874087  1
  Fe  Fe16  1  0.49675381  0.83501401  0.16593080  1
  Ni  Ni17  1  0.33173956  0.66626333  0.33304653  1
  Fe  Fe18  1  0.66437655  0.99930581  0.00096553  1
  Cr  Cr19  1  0.83333925  0.16625227  0.16339920  1
  Cr  Cr20  1  0.66777640  0.00033570  0.33493485  1
  Fe  Fe21  1  0.66671734  0.33231377  0.00090408  1
  Fe  Fe22  1  0.83619062  0.50237151  0.16497484  1
  Cr  Cr23  1  0.66805274  0.33363932  0.33570705  1
  Fe  Fe24  1  0.66539759  0.66931489  0.00160922  1
  Fe  Fe25  1  0.83516544  0.83276662  0.16585147  1
  Cr  Cr26  1  0.66830361  0.66711713  0.33468141  1
  Fe  Fe27  1  0.16720715  0.16842676  0.50111639  1
  Ni  Ni28  1  0.99829050  0.00305893  0.66656047  1
  Fe  Fe29  1  0.16347993  0.16730603  0.83343911  1
  Ni  Ni30  1  0.16729928  0.50031603  0.50036195  1
  Fe  Fe31  1  0.00201694  0.33389478  0.66574666  1
  Fe  Fe32  1  0.16464721  0.49916961  0.83271243  1
  Cr  Cr33  1  0.16420842  0.83321762  0.49967259  1
  Ni  Ni34  1  0.99967072  0.66662647  0.66577235  1
  Fe  Fe35  1  0.16597643  0.83457606  0.83531107  1
  Ni  Ni36  1  0.49933676  0.17021285  0.50068245  1
  Cr  Cr37  1  0.33195347  0.00202283  0.66947548  1
  Cr  Cr38  1  0.50250696  0.16766121  0.83386664  1
  Ni  Ni39  1  0.49790038  0.49608350  0.50051618  1
  Ni  Ni40  1  0.33127847  0.33277271  0.66405664  1
  Cr  Cr41  1  0.49920561  0.49888368  0.83273278  1
  Cr  Cr42  1  0.49798735  0.83476035  0.50030531  1
  Cr  Cr43  1  0.33158406  0.66511496  0.66980992  1
  Fe  Fe44  1  0.50136809  0.83470443  0.83642611  1
  Fe  Fe45  1  0.83450996  0.16707503  0.50322537  1
  Fe  Fe46  1  0.66959483  0.00283647  0.66488102  1
  Ni  Ni47  1  0.83559154  0.16649023  0.83333541  1
  Ni  Ni48  1  0.83630253  0.50073029  0.50152292  1
  Fe  Fe49  1  0.66842255  0.33168331  0.66419840  1
  Cr  Cr50  1  0.83473217  0.49780101  0.83546690  1
  Ni  Ni51  1  0.83815853  0.83476938  0.50026501  1
  Cr  Cr52  1  0.66795950  0.66755353  0.66340402  1
  Cr  Cr53  1  0.83671816  0.83563083  0.83333279  1
" 