2096,Ni27Fe49Cr23_8,-228.468404669262, 186.702639687022,Ni27Fe49Cr23,"# generated using pymatgen
 data_Cr7Fe13Ni7
_symmetry_space_group_name_H-M   'P 1'
_cell_length_a   7.45667120
_cell_length_b   7.45667120
_cell_length_c   10.54532553
_cell_angle_alpha   90.00000000
_cell_angle_beta   90.00000000
_cell_angle_gamma   90.00000000
_symmetry_Int_Tables_number   1
_chemical_formula_structural   Cr7Fe13Ni7
_chemical_formula_sum   'Cr14 Fe26 Ni14'
_cell_volume   586.34061375
_cell_formula_units_Z   2
loop_
 _symmetry_equiv_pos_site_id
 _symmetry_equiv_pos_as_xyz
  1  'x, y, z'
loop_
 _atom_site_type_symbol
 _atom_site_label
 _atom_site_symmetry_multiplicity
 _atom_site_fract_x
 _atom_site_fract_y
 _atom_site_fract_z
 _atom_site_occupancy
  Fe  Fe0  1  0.00231245  1.00047574  0.00277069  1
  Ni  Ni1  1  0.16718069  0.16622167  0.16617030  1
  Cr  Cr2  1  0.99835896  0.00293191  0.33084474  1
  Ni  Ni3  1  0.00229174  0.33396570  0.00107502  1
  Cr  Cr4  1  0.16929122  0.50031059  0.17085310  1
  Fe  Fe5  1  0.00120517  0.33181583  0.33502722  1
  Fe  Fe6  1  0.00219647  0.66872923  0.99974005  1
  Fe  Fe7  1  0.16891918  0.83594390  0.16478454  1
  Cr  Cr8  1  0.99924376  0.66791203  0.33630998  1
  Ni  Ni9  1  0.33376028  0.99932038  0.99958913  1
  Cr  Cr10  1  0.50065106  0.16724874  0.16911093  1
  Fe  Fe11  1  0.33433956  0.00158851  0.33459458  1
  Cr  Cr12  1  0.33177910  0.33292003  0.99473507  1
  Cr  Cr13  1  0.49978200  0.50170837  0.16631201  1
  Ni  Ni14  1  0.33191988  0.33121206  0.33736430  1
  Fe  Fe15  1  0.33451941  0.66985460  0.99746208  1
  Fe  Fe16  1  0.49976375  0.83496325  0.16516902  1
  Fe  Fe17  1  0.33443596  0.66974649  0.33499541  1
  Ni  Ni18  1  0.66611336  0.99681609  0.00331412  1
  Fe  Fe19  1  0.83511475  0.16670424  0.16403680  1
  Fe  Fe20  1  0.66655674  0.00181165  0.33481720  1
  Fe  Fe21  1  0.66686864  0.33290874  0.99879576  1
  Cr  Cr22  1  0.83321880  0.49933868  0.16348725  1
  Fe  Fe23  1  0.66960391  0.33115199  0.33581769  1
  Ni  Ni24  1  0.66716230  0.66939970  0.99833167  1
  Ni  Ni25  1  0.83290663  0.83621125  0.16456123  1
  Cr  Cr26  1  0.66743794  0.67115428  0.33466946  1
  Ni  Ni27  1  0.16730182  0.17019070  0.50160612  1
  Cr  Cr28  1  0.00259965  0.00134608  0.66845917  1
  Fe  Fe29  1  0.16854307  0.16452210  0.83398830  1
  Fe  Fe30  1  0.16689937  0.49749372  0.50163433  1
  Fe  Fe31  1  0.00222926  0.33480210  0.66827416  1
  Ni  Ni32  1  0.16561988  0.50029400  0.83212693  1
  Cr  Cr33  1  0.17041876  0.83586000  0.50161696  1
  Fe  Fe34  1  1.00029368  0.66575348  0.66773560  1
  Ni  Ni35  1  0.16997583  0.83324701  0.83670802  1
  Fe  Fe36  1  0.49838849  0.16436126  0.50036039  1
  Ni  Ni37  1  0.33695086  0.00284200  0.66823991  1
  Fe  Fe38  1  0.49980192  0.16217185  0.83325968  1
  Cr  Cr39  1  0.50017903  0.49956163  0.49935960  1
  Fe  Fe40  1  0.33324585  0.33002943  0.66815107  1
  Fe  Fe41  1  0.50290559  0.50287934  0.83423725  1
  Ni  Ni42  1  0.50267155  0.83687647  0.49979024  1
  Cr  Cr43  1  0.33506679  0.66754654  0.66960705  1
  Ni  Ni44  1  0.50045807  0.83613103  0.83485419  1
  Fe  Fe45  1  0.83204682  0.16799820  0.50186324  1
  Ni  Ni46  1  0.66387609  1.00030106  0.66389376  1
  Cr  Cr47  1  0.83195306  0.16722056  0.83855380  1
  Fe  Fe48  1  0.83588251  0.49876619  0.50307906  1
  Fe  Fe49  1  0.66629469  0.33204786  0.66777003  1
  Fe  Fe50  1  0.83534650  0.50213372  0.83541358  1
  Fe  Fe51  1  0.83150521  0.83583788  0.50252091  1
  Fe  Fe52  1  0.66697873  0.67000919  0.66717017  1
  Cr  Cr53  1  0.83320535  0.83498310  0.83255926  1
" 