7869,Ni27Cr73_6,-229.16402886537, 147.168533132139,Ni27Cr73,"# generated using pymatgen
 data_Cr7Ni20
_symmetry_space_group_name_H-M   'P 1'
_cell_length_a   7.48296220
_cell_length_b   7.48296220
_cell_length_c   10.58250663
_cell_angle_alpha   90.00000000
_cell_angle_beta   90.00000000
_cell_angle_gamma   90.00000000
_symmetry_Int_Tables_number   1
_chemical_formula_structural   Cr7Ni20
_chemical_formula_sum   'Cr14 Ni40'
_cell_volume   592.56453008
_cell_formula_units_Z   2
loop_
 _symmetry_equiv_pos_site_id
 _symmetry_equiv_pos_as_xyz
  1  'x, y, z'
loop_
 _atom_site_type_symbol
 _atom_site_label
 _atom_site_symmetry_multiplicity
 _atom_site_fract_x
 _atom_site_fract_y
 _atom_site_fract_z
 _atom_site_occupancy
  Ni  Ni0  1  -0.00017025  0.99729397  0.99779475  1
  Ni  Ni1  1  0.16644453  0.16583088  0.16558932  1
  Cr  Cr2  1  -0.00097934  0.99664930  0.33312214  1
  Ni  Ni3  1  -0.00101229  0.33263953  0.99857779  1
  Ni  Ni4  1  0.16537676  0.50102883  0.16597843  1
  Cr  Cr5  1  -0.00009407  0.33414536  0.33341281  1
  Ni  Ni6  1  0.99814861  0.66670765  -0.00002198  1
  Ni  Ni7  1  0.16457414  0.82998051  0.16534142  1
  Ni  Ni8  1  0.99700524  0.66588862  0.33076624  1
  Cr  Cr9  1  0.32868942  0.99679415  0.99770541  1
  Ni  Ni10  1  0.49605771  0.16645085  0.16920221  1
  Ni  Ni11  1  0.33340169  0.00022949  0.33262930  1
  Cr  Cr12  1  0.33196139  0.33451326  0.00179871  1
  Ni  Ni13  1  0.49790672  0.50132366  0.16643619  1
  Ni  Ni14  1  0.33324328  0.33207909  0.33131842  1
  Ni  Ni15  1  0.33242061  0.66559877  0.99847311  1
  Cr  Cr16  1  0.50039357  0.83236682  0.16745231  1
  Ni  Ni17  1  0.33350127  0.66482845  0.33104660  1
  Cr  Cr18  1  0.66719275  0.99580991  0.99717875  1
  Cr  Cr19  1  0.83104929  0.16364428  0.16340368  1
  Ni  Ni20  1  0.66401592  0.99708284  0.33489237  1
  Cr  Cr21  1  0.66566840  0.33722083  -0.00084980  1
  Ni  Ni22  1  0.83364985  0.50323654  0.16434730  1
  Cr  Cr23  1  0.66355221  0.33489111  0.33285537  1
  Ni  Ni24  1  0.66662571  0.66475976  0.99790578  1
  Ni  Ni25  1  0.83407043  0.82836217  0.16589520  1
  Ni  Ni26  1  0.66620802  0.66640286  0.33313412  1
  Ni  Ni27  1  0.16864791  0.16664628  0.50037162  1
  Cr  Cr28  1  0.99877704  0.99782561  0.66605761  1
  Ni  Ni29  1  0.16308855  0.16502662  0.83112353  1
  Cr  Cr30  1  0.16589524  0.49910980  0.50084519  1
  Ni  Ni31  1  0.99678578  0.33174728  0.66543120  1
  Cr  Cr32  1  0.16482360  0.49959210  0.82993766  1
  Cr  Cr33  1  0.16820320  0.82996403  0.49881489  1
  Ni  Ni34  1  0.99579462  0.66494122  0.66597171  1
  Ni  Ni35  1  0.16549494  0.83116687  0.83234901  1
  Ni  Ni36  1  0.49863514  0.16453760  0.49905709  1
  Ni  Ni37  1  0.33377947  0.99857257  0.66575116  1
  Cr  Cr38  1  0.50011633  0.16561118  0.82919171  1
  Ni  Ni39  1  0.49951244  0.49996954  0.49998342  1
  Ni  Ni40  1  0.33384127  0.33164959  0.66423353  1
  Ni  Ni41  1  0.50053208  0.50289049  0.83047011  1
  Ni  Ni42  1  0.50092523  0.83240299  0.49922894  1
  Ni  Ni43  1  0.33541378  0.66657021  0.66709322  1
  Ni  Ni44  1  0.49922438  0.82860338  0.82983013  1
  Ni  Ni45  1  0.82967558  0.16559725  0.50155703  1
  Ni  Ni46  1  0.66501567  0.99755573  0.66435382  1
  Ni  Ni47  1  0.83479400  0.16628141  0.83145127  1
  Ni  Ni48  1  0.83066791  0.50109260  0.50113561  1
  Ni  Ni49  1  0.66623444  0.33397411  0.66484580  1
  Ni  Ni50  1  0.83190824  0.49992615  0.83147827  1
  Ni  Ni51  1  0.82836512  0.83005162  0.49812344  1
  Ni  Ni52  1  0.66539884  0.66519928  0.66580085  1
  Ni  Ni53  1  0.83212469  0.83031202  0.83270323  1
" 