6202,Ni27Fe46Cr26_4,-227.213370627968, 192.165337098188,Ni27Fe46Cr26,"# generated using pymatgen
 data_Cr8Fe12Ni7
_symmetry_space_group_name_H-M   'P 1'
_cell_length_a   7.46093721
_cell_length_b   7.46093721
_cell_length_c   10.55135859
_cell_angle_alpha   90.00000000
_cell_angle_beta   90.00000000
_cell_angle_gamma   90.00000000
_symmetry_Int_Tables_number   1
_chemical_formula_structural   Cr8Fe12Ni7
_chemical_formula_sum   'Cr16 Fe24 Ni14'
_cell_volume   587.34753774
_cell_formula_units_Z   2
loop_
 _symmetry_equiv_pos_site_id
 _symmetry_equiv_pos_as_xyz
  1  'x, y, z'
loop_
 _atom_site_type_symbol
 _atom_site_label
 _atom_site_symmetry_multiplicity
 _atom_site_fract_x
 _atom_site_fract_y
 _atom_site_fract_z
 _atom_site_occupancy
  Cr  Cr0  1  0.00166063  0.99882521  0.99979443  1
  Fe  Fe1  1  0.16928567  0.16688175  0.16799680  1
  Cr  Cr2  1  0.99853104  0.99863343  0.33497251  1
  Fe  Fe3  1  0.00102871  0.33631512  0.99931167  1
  Fe  Fe4  1  0.16780652  0.50128557  0.16600942  1
  Cr  Cr5  1  1.00006770  0.33571002  0.33512248  1
  Fe  Fe6  1  0.00095527  0.66648832  0.99909278  1
  Fe  Fe7  1  0.16994535  0.83276070  0.16681401  1
  Cr  Cr8  1  0.99884579  0.66669702  0.33324942  1
  Fe  Fe9  1  0.33620677  0.99841847  0.00162876  1
  Fe  Fe10  1  0.50121998  0.16538901  0.16780767  1
  Ni  Ni11  1  0.33779395  0.00080315  0.33067657  1
  Cr  Cr12  1  0.33414548  0.33189160  0.99980779  1
  Cr  Cr13  1  0.50088532  0.50293027  0.16770038  1
  Fe  Fe14  1  0.33533788  0.33133737  0.33358391  1
  Ni  Ni15  1  0.33222055  0.66684953  1.00031868  1
  Fe  Fe16  1  0.50182258  0.83505072  0.16636302  1
  Fe  Fe17  1  0.33504590  0.66890106  0.33261821  1
  Ni  Ni18  1  0.66586809  0.99905837  0.00041375  1
  Cr  Cr19  1  0.83225930  0.16661225  0.16695711  1
  Ni  Ni20  1  0.66384328  0.00051145  0.33562857  1
  Fe  Fe21  1  0.66612957  0.33331324  0.99937729  1
  Cr  Cr22  1  0.83230953  0.49959919  0.16420668  1
  Ni  Ni23  1  0.66506129  0.33272781  0.33498114  1
  Ni  Ni24  1  0.66829994  0.66858210  0.99961196  1
  Fe  Fe25  1  0.82967062  0.83348131  0.16634470  1
  Fe  Fe26  1  0.66684081  0.66986856  0.33363921  1
  Cr  Cr27  1  0.16604679  0.16703905  0.50098888  1
  Ni  Ni28  1  0.99816845  1.00001891  0.66717007  1
  Fe  Fe29  1  0.16717110  0.16919983  0.83254907  1
  Ni  Ni30  1  0.16830338  0.50106571  0.49989605  1
  Fe  Fe31  1  0.00058120  0.33421432  0.66700343  1
  Ni  Ni32  1  0.16546815  0.50177949  0.83469908  1
  Cr  Cr33  1  0.17097785  0.83347786  0.50078302  1
  Cr  Cr34  1  0.99860312  0.66640335  0.66789083  1
  Fe  Fe35  1  0.16602857  0.83262596  0.83399574  1
  Ni  Ni36  1  0.50323507  0.16588700  0.49875498  1
  Cr  Cr37  1  0.33633394  0.00292506  0.66959988  1
  Ni  Ni38  1  0.50244136  0.16590851  0.83527644  1
  Cr  Cr39  1  0.49867379  0.50241525  0.50079529  1
  Fe  Fe40  1  0.33241393  0.33428060  0.66811790  1
  Cr  Cr41  1  0.50174373  0.50151756  0.83275406  1
  Ni  Ni42  1  0.50165439  0.83396961  0.49873811  1
  Fe  Fe43  1  0.33246851  0.66659187  0.66749105  1
  Cr  Cr44  1  0.49976062  0.83318250  0.83479535  1
  Ni  Ni45  1  0.83140906  0.16658886  0.50127259  1
  Fe  Fe46  1  0.66790620  1.00027742  0.66543819  1
  Cr  Cr47  1  0.83358177  0.16720556  0.83357254  1
  Fe  Fe48  1  0.83191039  0.49855768  0.50159813  1
  Fe  Fe49  1  0.66794130  0.33182448  0.66605058  1
  Ni  Ni50  1  0.83517917  0.49976829  0.83576763  1
  Fe  Fe51  1  0.83034430  0.83531006  0.50155055  1
  Fe  Fe52  1  0.66816322  0.66905521  0.66730251  1
  Fe  Fe53  1  0.83251574  0.83210007  0.83423175  1
" 