8837,Ni27Fe66Cr5_4,-233.163134966871, 197.022391067433,Ni27Fe66Cr5,"# generated using pymatgen
 data_Cr2Fe18Ni7
_symmetry_space_group_name_H-M   'P 1'
_cell_length_a   7.41054589
_cell_length_b   7.41054589
_cell_length_c   10.48009450
_cell_angle_alpha   90.00000000
_cell_angle_beta   90.00000000
_cell_angle_gamma   90.00000000
_symmetry_Int_Tables_number   1
_chemical_formula_structural   Cr2Fe18Ni7
_chemical_formula_sum   'Cr4 Fe36 Ni14'
_cell_volume   575.52686475
_cell_formula_units_Z   2
loop_
 _symmetry_equiv_pos_site_id
 _symmetry_equiv_pos_as_xyz
  1  'x, y, z'
loop_
 _atom_site_type_symbol
 _atom_site_label
 _atom_site_symmetry_multiplicity
 _atom_site_fract_x
 _atom_site_fract_y
 _atom_site_fract_z
 _atom_site_occupancy
  Cr  Cr0  1  0.00406050  0.00440495  1.00341177  1
  Fe  Fe1  1  0.17145644  0.17181625  0.17144802  1
  Ni  Ni2  1  0.00405912  0.00455337  0.33749570  1
  Fe  Fe3  1  0.00392839  0.33867654  1.00349928  1
  Ni  Ni4  1  0.17022944  0.50369306  0.17020079  1
  Fe  Fe5  1  1.00364716  0.33689040  0.33765483  1
  Fe  Fe6  1  1.00249391  0.66761802  0.00469211  1
  Fe  Fe7  1  0.17146244  0.83549466  0.17159047  1
  Fe  Fe8  1  1.00252975  0.66921339  0.33622541  1
  Fe  Fe9  1  0.34005360  0.00516017  0.00407672  1
  Fe  Fe10  1  0.50399842  0.17211247  0.17095985  1
  Fe  Fe11  1  0.33823398  0.00532017  0.33716358  1
  Fe  Fe12  1  0.33727313  0.33744444  1.00377619  1
  Ni  Ni13  1  0.50411215  0.50350083  0.17135245  1
  Fe  Fe14  1  0.33696147  0.33660813  0.33711699  1
  Fe  Fe15  1  0.33873737  0.66885682  0.00480632  1
  Fe  Fe16  1  0.50308377  0.83612887  0.17046266  1
  Fe  Fe17  1  0.33811932  0.66954552  0.33586948  1
  Fe  Fe18  1  0.66898858  1.00374032  1.00335304  1
  Fe  Fe19  1  0.83600191  0.17255150  0.17143950  1
  Fe  Fe20  1  0.67050757  0.00421438  0.33752339  1
  Ni  Ni21  1  0.66979545  0.33827384  1.00251890  1
  Fe  Fe22  1  0.83660695  0.50320634  0.17102879  1
  Ni  Ni23  1  0.66995549  0.33798593  0.33845067  1
  Fe  Fe24  1  0.67020547  0.67035056  1.00271050  1
  Fe  Fe25  1  0.83690694  0.83568288  0.17094515  1
  Fe  Fe26  1  0.67077314  0.67046360  0.33797514  1
  Ni  Ni27  1  0.17137953  0.17055929  0.50218528  1
  Fe  Fe28  1  1.00199412  1.00369540  0.67054878  1
  Ni  Ni29  1  0.17147292  0.17168007  0.83757693  1
  Fe  Fe30  1  0.17172005  0.50267508  0.50252946  1
  Cr  Cr31  1  0.00442160  0.33587581  0.67071443  1
  Fe  Fe32  1  0.17176166  0.50366823  0.83851870  1
  Cr  Cr33  1  0.17024972  0.83823168  0.50469133  1
  Fe  Fe34  1  1.00108636  0.67026191  0.67045139  1
  Cr  Cr35  1  0.17058720  0.83743215  0.83581297  1
  Ni  Ni36  1  0.50356026  0.17059004  0.50401987  1
  Fe  Fe37  1  0.33929441  0.00546583  0.67021104  1
  Fe  Fe38  1  0.50386825  0.17001473  0.83700817  1
  Fe  Fe39  1  0.50410788  0.50345488  0.50383246  1
  Fe  Fe40  1  0.33890725  0.33709087  0.67053652  1
  Ni  Ni41  1  0.50503197  0.50357003  0.83662232  1
  Ni  Ni42  1  0.50531668  0.83765616  0.50370361  1
  Fe  Fe43  1  0.33980733  0.66889865  0.67076602  1
  Ni  Ni44  1  0.50613516  0.83649059  0.83786308  1
  Fe  Fe45  1  0.83604859  0.16954795  0.50233346  1
  Fe  Fe46  1  0.67014306  1.00279503  0.67055642  1
  Fe  Fe47  1  0.83502341  0.16997810  0.83765201  1
  Ni  Ni48  1  0.83585188  0.50435344  0.50226342  1
  Fe  Fe49  1  0.66876017  0.33801605  0.67012793  1
  Fe  Fe50  1  0.83564716  0.50526966  0.83728950  1
  Fe  Fe51  1  0.83528639  0.83767425  0.50435345  1
  Ni  Ni52  1  0.66922666  0.67124752  0.67048210  1
  Ni  Ni53  1  0.83499002  0.83616076  0.83546320  1
" 