4869,Ni27Fe23Cr48_4,-219.48855737807, 173.817304360456,Ni27Fe23Cr48,"# generated using pymatgen
 data_Cr14Fe6Ni7
_symmetry_space_group_name_H-M   'P 1'
_cell_length_a   7.50777184
_cell_length_b   7.50777184
_cell_length_c   10.61759276
_cell_angle_alpha   90.00000000
_cell_angle_beta   90.00000000
_cell_angle_gamma   90.00000000
_symmetry_Int_Tables_number   1
_chemical_formula_structural   Cr14Fe6Ni7
_chemical_formula_sum   'Cr28 Fe12 Ni14'
_cell_volume   598.47800746
_cell_formula_units_Z   2
loop_
 _symmetry_equiv_pos_site_id
 _symmetry_equiv_pos_as_xyz
  1  'x, y, z'
loop_
 _atom_site_type_symbol
 _atom_site_label
 _atom_site_symmetry_multiplicity
 _atom_site_fract_x
 _atom_site_fract_y
 _atom_site_fract_z
 _atom_site_occupancy
  Fe  Fe0  1  -0.00231130  0.99638584  0.99692603  1
  Ni  Ni1  1  0.16253326  0.16257609  0.16089016  1
  Cr  Cr2  1  -0.00162934  -0.00184108  0.32747477  1
  Cr  Cr3  1  0.99574948  0.33000530  -0.00120705  1
  Cr  Cr4  1  0.16287384  0.49598356  0.16250683  1
  Ni  Ni5  1  0.99631448  0.33045048  0.33153833  1
  Ni  Ni6  1  0.99670153  0.66659782  0.99535951  1
  Fe  Fe7  1  0.16228821  0.83255368  0.16137149  1
  Cr  Cr8  1  -0.00009181  0.66396963  0.33022257  1
  Ni  Ni9  1  0.32862605  -0.00201564  0.99615870  1
  Fe  Fe10  1  0.49803051  0.16241706  0.16253090  1
  Cr  Cr11  1  0.32850098  0.99446854  0.33134182  1
  Fe  Fe12  1  0.33076682  0.32739802  -0.00206745  1
  Cr  Cr13  1  0.49875650  0.49985864  0.16030277  1
  Cr  Cr14  1  0.32885740  0.32897797  0.32480624  1
  Cr  Cr15  1  0.32887695  0.66851614  -0.00241877  1
  Cr  Cr16  1  0.49830751  0.83227894  0.16667747  1
  Fe  Fe17  1  0.32955185  0.66498186  0.33113537  1
  Cr  Cr18  1  0.66287134  -0.00102322  0.99473171  1
  Ni  Ni19  1  0.83382207  0.16373442  0.16611321  1
  Ni  Ni20  1  0.66340314  -0.00126087  0.33171463  1
  Cr  Cr21  1  0.66446660  0.32991993  -0.00249109  1
  Ni  Ni22  1  0.83293752  0.49707257  0.16321489  1
  Cr  Cr23  1  0.66716932  0.32934373  0.32954875  1
  Ni  Ni24  1  0.66658959  0.66561842  0.99528947  1
  Cr  Cr25  1  0.82905410  0.83106453  0.15934064  1
  Cr  Cr26  1  0.66467261  0.66366989  0.33084212  1
  Cr  Cr27  1  0.16127204  0.16382884  0.49927906  1
  Cr  Cr28  1  -0.00090054  0.99518890  0.66615891  1
  Cr  Cr29  1  0.16337633  0.16352513  0.83149726  1
  Cr  Cr30  1  0.16361638  0.49612924  0.50019286  1
  Fe  Fe31  1  0.99409499  0.32929023  0.66368400  1
  Cr  Cr32  1  0.16307350  0.49785744  0.82945032  1
  Ni  Ni33  1  0.16663050  0.82771364  0.49956919  1
  Fe  Fe34  1  -0.00226104  0.66513654  0.66386518  1
  Fe  Fe35  1  0.16489295  0.83159794  0.83110640  1
  Cr  Cr36  1  0.49863049  0.16048783  0.49647543  1
  Fe  Fe37  1  0.33233976  0.99352166  0.66550077  1
  Ni  Ni38  1  0.49619279  0.15896782  0.83317715  1
  Cr  Cr39  1  0.49497224  0.49945477  0.49660883  1
  Cr  Cr40  1  0.33293113  0.32824017  0.66861547  1
  Cr  Cr41  1  0.49620970  0.49870817  0.83500946  1
  Ni  Ni42  1  0.49472200  0.82940075  0.49715019  1
  Fe  Fe43  1  0.33039146  0.66813755  0.66512672  1
  Ni  Ni44  1  0.49665523  0.83213632  0.83041648  1
  Ni  Ni45  1  0.83262145  0.16538788  0.49622095  1
  Cr  Cr46  1  0.66300787  -0.00170426  0.66512441  1
  Ni  Ni47  1  0.83086397  0.16149156  0.83013099  1
  Fe  Fe48  1  0.83219283  0.49695639  0.49761485  1
  Cr  Cr49  1  0.66504234  0.32927870  0.66497768  1
  Cr  Cr50  1  0.83212367  0.49937903  0.83061047  1
  Cr  Cr51  1  0.82906118  0.83465253  0.49595111  1
  Cr  Cr52  1  0.66345573  0.66525222  0.66527293  1
  Fe  Fe53  1  0.83064637  0.83182528  0.83290346  1
" 