3566,Ni27Fe23Cr48_0,-219.164709261729, 169.368808371155,Ni27Fe23Cr48,"# generated using pymatgen
 data_Cr14Fe6Ni7
_symmetry_space_group_name_H-M   'P 1'
_cell_length_a   7.51538703
_cell_length_b   7.51538703
_cell_length_c   10.62836227
_cell_angle_alpha   90.00000000
_cell_angle_beta   90.00000000
_cell_angle_gamma   90.00000000
_symmetry_Int_Tables_number   1
_chemical_formula_structural   Cr14Fe6Ni7
_chemical_formula_sum   'Cr28 Fe12 Ni14'
_cell_volume   600.30097840
_cell_formula_units_Z   2
loop_
 _symmetry_equiv_pos_site_id
 _symmetry_equiv_pos_as_xyz
  1  'x, y, z'
loop_
 _atom_site_type_symbol
 _atom_site_label
 _atom_site_symmetry_multiplicity
 _atom_site_fract_x
 _atom_site_fract_y
 _atom_site_fract_z
 _atom_site_occupancy
  Ni  Ni0  1  -0.00154228  0.99307484  -0.00222708  1
  Ni  Ni1  1  0.16184654  0.16088745  0.15991346  1
  Cr  Cr2  1  -0.00158719  0.99449818  0.32784849  1
  Ni  Ni3  1  -0.00053898  0.33179930  -0.00144830  1
  Ni  Ni4  1  0.16207789  0.49904173  0.16119170  1
  Fe  Fe5  1  -0.00152264  0.32801644  0.32609335  1
  Fe  Fe6  1  -0.00059791  0.66431553  -0.00276242  1
  Ni  Ni7  1  0.16570435  0.83060050  0.15803473  1
  Cr  Cr8  1  -0.00133260  0.66593544  0.32665971  1
  Ni  Ni9  1  0.32790671  0.99462178  -0.00088178  1
  Fe  Fe10  1  0.49556636  0.16141469  0.16211362  1
  Cr  Cr11  1  0.32978648  0.99658302  0.32982586  1
  Cr  Cr12  1  0.32771847  0.33181612  -0.00139272  1
  Cr  Cr13  1  0.49719114  0.50047548  0.16214145  1
  Cr  Cr14  1  0.32840613  0.32892575  0.32646691  1
  Fe  Fe15  1  0.32645162  0.66566330  -0.00310899  1
  Fe  Fe16  1  0.49584280  0.83377623  0.16110310  1
  Cr  Cr17  1  0.32906687  0.66599989  0.32643606  1
  Ni  Ni18  1  0.66422708  0.99361819  -0.00062041  1
  Cr  Cr19  1  0.82868402  0.16303389  0.16200889  1
  Ni  Ni20  1  0.66120376  0.99617776  0.32744266  1
  Cr  Cr21  1  0.66234081  0.33168541  0.99179346  1
  Cr  Cr22  1  0.82962153  0.49558624  0.16632087  1
  Ni  Ni23  1  0.65975219  0.32749705  0.33028002  1
  Cr  Cr24  1  0.66594615  0.66530402  0.99530296  1
  Fe  Fe25  1  0.83196000  0.83083046  0.16202726  1
  Fe  Fe26  1  0.66168476  0.66726900  0.32794331  1
  Cr  Cr27  1  0.16462960  0.16196437  0.49851794  1
  Cr  Cr28  1  0.99615365  0.99263619  0.66487958  1
  Cr  Cr29  1  0.16266830  0.15952812  0.83195417  1
  Cr  Cr30  1  0.16258488  0.49893326  0.49577544  1
  Cr  Cr31  1  -0.00321174  0.33265352  0.66397307  1
  Ni  Ni32  1  0.16197484  0.50133930  0.83233981  1
  Cr  Cr33  1  0.16693354  0.82738438  0.50348496  1
  Ni  Ni34  1  -0.00119572  0.66383208  0.66810748  1
  Ni  Ni35  1  0.16314546  0.82570891  0.83152014  1
  Ni  Ni36  1  0.49885401  0.16128669  0.49559524  1
  Fe  Fe37  1  0.33130328  0.99458017  0.66490351  1
  Cr  Cr38  1  0.49579249  0.15930969  0.83358188  1
  Cr  Cr39  1  0.49699300  0.49955334  0.49613803  1
  Cr  Cr40  1  0.33113034  0.33060001  0.66455415  1
  Fe  Fe41  1  0.49084616  0.50003972  0.83105607  1
  Fe  Fe42  1  0.49664093  0.83146669  0.49710794  1
  Ni  Ni43  1  0.32897038  0.66344406  0.66668710  1
  Cr  Cr44  1  0.49261228  0.83013531  0.83125641  1
  Cr  Cr45  1  0.82928868  0.16478274  0.49350235  1
  Cr  Cr46  1  0.66413028  -0.00300943  0.66265665  1
  Cr  Cr47  1  0.83203938  0.16196593  0.83430826  1
  Cr  Cr48  1  0.83029051  0.49644198  0.49199168  1
  Cr  Cr49  1  0.66221258  0.33130618  0.66834969  1
  Fe  Fe50  1  0.83627996  0.49958836  0.83225341  1
  Cr  Cr51  1  0.82958590  0.82864163  0.49482234  1
  Cr  Cr52  1  0.66620219  0.66372350  0.66552601  1
  Fe  Fe53  1  0.83361513  0.83004996  0.83298488  1
" 