6401,Ni27Fe46Cr26_8,-227.378503644431, 190.018624687377,Ni27Fe46Cr26,"# generated using pymatgen
 data_Cr8Fe12Ni7
_symmetry_space_group_name_H-M   'P 1'
_cell_length_a   7.46094737
_cell_length_b   7.46094737
_cell_length_c   10.55137295
_cell_angle_alpha   90.00000000
_cell_angle_beta   90.00000000
_cell_angle_gamma   90.00000000
_symmetry_Int_Tables_number   1
_chemical_formula_structural   Cr8Fe12Ni7
_chemical_formula_sum   'Cr16 Fe24 Ni14'
_cell_volume   587.34993702
_cell_formula_units_Z   2
loop_
 _symmetry_equiv_pos_site_id
 _symmetry_equiv_pos_as_xyz
  1  'x, y, z'
loop_
 _atom_site_type_symbol
 _atom_site_label
 _atom_site_symmetry_multiplicity
 _atom_site_fract_x
 _atom_site_fract_y
 _atom_site_fract_z
 _atom_site_occupancy
  Fe  Fe0  1  0.99756183  0.00074661  0.99969202  1
  Cr  Cr1  1  0.16588120  0.16678599  0.16749991  1
  Fe  Fe2  1  0.99734736  0.99861805  0.33499851  1
  Cr  Cr3  1  0.99839649  0.33477723  0.99712817  1
  Cr  Cr4  1  0.16845127  0.50009491  0.16634034  1
  Cr  Cr5  1  0.99575506  0.33502285  0.33559471  1
  Ni  Ni6  1  0.99963806  0.66812506  0.00158921  1
  Fe  Fe7  1  0.16578872  0.83271981  0.16714656  1
  Fe  Fe8  1  0.99777630  0.66973709  0.33423356  1
  Cr  Cr9  1  0.33623178  0.00135329  0.99868885  1
  Fe  Fe10  1  0.50164100  0.16684660  0.16857778  1
  Cr  Cr11  1  0.33623016  0.99831902  0.33843519  1
  Ni  Ni12  1  0.33495346  0.33261270  0.99907972  1
  Cr  Cr13  1  0.50070412  0.50030877  0.16954963  1
  Fe  Fe14  1  0.33755012  0.33313260  0.33525110  1
  Fe  Fe15  1  0.33329471  0.66424972  0.99908730  1
  Cr  Cr16  1  0.50378896  0.83276322  0.16529274  1
  Ni  Ni17  1  0.33293031  0.66914292  0.33467117  1
  Fe  Fe18  1  0.67011757  0.00159208  0.99940692  1
  Fe  Fe19  1  0.83104720  0.16513939  0.16881892  1
  Ni  Ni20  1  0.66755064  0.00188623  0.33338693  1
  Cr  Cr21  1  0.66669299  0.33164765  0.00097895  1
  Fe  Fe22  1  0.83346804  0.50245542  0.16855148  1
  Ni  Ni23  1  0.66768983  0.33250534  0.33509543  1
  Cr  Cr24  1  0.66888904  0.66635450  0.99768303  1
  Fe  Fe25  1  0.83628529  0.83444973  0.16752410  1
  Fe  Fe26  1  0.66682730  0.66751449  0.33589084  1
  Cr  Cr27  1  0.16716172  0.16751643  0.50236882  1
  Cr  Cr28  1  0.99848239  0.99896031  0.66528701  1
  Ni  Ni29  1  0.16802448  0.17008763  0.83248498  1
  Cr  Cr30  1  0.16879920  0.49806359  0.49987225  1
  Fe  Fe31  1  0.99828854  0.33333594  0.66789855  1
  Fe  Fe32  1  0.16770682  0.49999522  0.83385548  1
  Fe  Fe33  1  0.16568510  0.83158080  0.49941596  1
  Cr  Cr34  1  0.99754907  0.66595747  0.66493461  1
  Cr  Cr35  1  0.16532431  0.83509945  0.83535068  1
  Fe  Fe36  1  0.50548835  0.16822686  0.50167954  1
  Fe  Fe37  1  0.33647573  0.00204106  0.66738352  1
  Fe  Fe38  1  0.50057149  0.16682443  0.83182970  1
  Ni  Ni39  1  0.50218583  0.50153575  0.49914851  1
  Ni  Ni40  1  0.33652679  0.33318491  0.66774305  1
  Fe  Fe41  1  0.49935380  0.49860318  0.83284686  1
  Ni  Ni42  1  0.50434137  0.83304962  0.50222522  1
  Cr  Cr43  1  0.33530980  0.66813740  0.66769904  1
  Fe  Fe44  1  0.50275332  0.83601601  0.83200263  1
  Ni  Ni45  1  0.83194488  0.16602900  0.50104441  1
  Ni  Ni46  1  0.66635087  0.00072991  0.66769419  1
  Fe  Fe47  1  0.83315215  0.16472357  0.83144371  1
  Ni  Ni48  1  0.82955572  0.50064387  0.50064515  1
  Fe  Fe49  1  0.66709756  0.33419187  0.66536150  1
  Fe  Fe50  1  0.83449656  0.50130788  0.83167214  1
  Ni  Ni51  1  0.82875845  0.83489964  0.49843993  1
  Fe  Fe52  1  0.66720486  0.66800315  0.66678726  1
  Ni  Ni53  1  0.83099782  0.83442961  0.83476805  1
" 