6058,Ni27Fe23Cr48_2,-219.011569438265, 168.977272979054,Ni27Fe23Cr48,"# generated using pymatgen
 data_Cr14Fe6Ni7
_symmetry_space_group_name_H-M   'P 1'
_cell_length_a   7.51034361
_cell_length_b   7.51034361
_cell_length_c   10.62122979
_cell_angle_alpha   90.00000000
_cell_angle_beta   90.00000000
_cell_angle_gamma   90.00000000
_symmetry_Int_Tables_number   1
_chemical_formula_structural   Cr14Fe6Ni7
_chemical_formula_sum   'Cr28 Fe12 Ni14'
_cell_volume   599.09323952
_cell_formula_units_Z   2
loop_
 _symmetry_equiv_pos_site_id
 _symmetry_equiv_pos_as_xyz
  1  'x, y, z'
loop_
 _atom_site_type_symbol
 _atom_site_label
 _atom_site_symmetry_multiplicity
 _atom_site_fract_x
 _atom_site_fract_y
 _atom_site_fract_z
 _atom_site_occupancy
  Cr  Cr0  1  -0.00219867  0.99547453  0.00109252  1
  Cr  Cr1  1  0.16309746  0.16588804  0.16479854  1
  Cr  Cr2  1  -0.00182948  0.99610972  0.32984078  1
  Fe  Fe3  1  -0.00243303  0.33090273  0.99630342  1
  Cr  Cr4  1  0.16391871  0.49683620  0.16360954  1
  Ni  Ni5  1  0.99258455  0.33020701  0.33109938  1
  Ni  Ni6  1  -0.00081999  0.66249804  -0.00099186  1
  Fe  Fe7  1  0.16603108  0.82814992  0.16425003  1
  Cr  Cr8  1  -0.00134517  0.66513476  0.33159801  1
  Cr  Cr9  1  0.32916329  0.99682574  0.99631687  1
  Cr  Cr10  1  0.49563803  0.16490608  0.16593480  1
  Ni  Ni11  1  0.33105598  0.99313500  0.33135591  1
  Fe  Fe12  1  0.32851960  0.33101783  0.99601857  1
  Cr  Cr13  1  0.49525653  0.49799062  0.16699237  1
  Fe  Fe14  1  0.32772660  0.32942866  0.33130412  1
  Ni  Ni15  1  0.32750668  0.66281504  -0.00179284  1
  Cr  Cr16  1  0.49791188  0.82887685  0.16419907  1
  Ni  Ni17  1  0.33120041  0.66672928  0.33111085  1
  Cr  Cr18  1  0.66471371  -0.00131079  -0.00050150  1
  Fe  Fe19  1  0.83116935  0.16646730  0.16500608  1
  Cr  Cr20  1  0.66497769  -0.00192482  0.32903356  1
  Cr  Cr21  1  0.66355439  0.32994010  0.99632328  1
  Cr  Cr22  1  0.83190893  0.49832427  0.16452195  1
  Fe  Fe23  1  0.66544063  0.33130720  0.33143673  1
  Cr  Cr24  1  0.66510496  0.66286436  0.99669785  1
  Fe  Fe25  1  0.83222847  0.82914465  0.16420845  1
  Fe  Fe26  1  0.66470476  0.66608515  0.33299139  1
  Cr  Cr27  1  0.16134369  0.16353577  0.49857359  1
  Ni  Ni28  1  -0.00274481  -0.00177965  0.66116536  1
  Ni  Ni29  1  0.16078745  0.16488830  0.82931018  1
  Cr  Cr30  1  0.16282723  0.49551623  0.49571191  1
  Ni  Ni31  1  0.99500544  0.32920436  0.66453405  1
  Cr  Cr32  1  0.16170830  0.49653789  0.83270990  1
  Fe  Fe33  1  0.16732611  0.83120378  0.49798555  1
  Cr  Cr34  1  0.99690099  0.66275215  0.66136749  1
  Cr  Cr35  1  0.16287399  0.83119074  0.82848482  1
  Cr  Cr36  1  0.49631736  0.16018708  0.49633725  1
  Ni  Ni37  1  0.32951411  0.99473190  0.66253901  1
  Cr  Cr38  1  0.49551734  0.16056842  0.82906102  1
  Cr  Cr39  1  0.49659215  0.50075082  0.49355526  1
  Cr  Cr40  1  0.32946542  0.33083277  0.66636548  1
  Cr  Cr41  1  0.49608678  0.50130005  0.83110401  1
  Ni  Ni42  1  0.49957627  0.82999604  0.49843495  1
  Ni  Ni43  1  0.33225385  0.66701093  0.66168109  1
  Cr  Cr44  1  0.49896536  0.83004921  0.82633697  1
  Fe  Fe45  1  0.83065428  0.16265569  0.49832348  1
  Ni  Ni46  1  0.66467459  0.99531356  0.66141202  1
  Cr  Cr47  1  0.83385398  0.16126823  0.82831602  1
  Fe  Fe48  1  0.82983340  0.49730191  0.49629400  1
  Cr  Cr49  1  0.66558352  0.33248704  0.66290147  1
  Fe  Fe50  1  0.83236673  0.49733503  0.82999719  1
  Ni  Ni51  1  0.82819513  0.83121130  0.49831263  1
  Ni  Ni52  1  0.66425464  0.66489591  0.66100586  1
  Cr  Cr53  1  0.82982844  0.82958015  0.82977059  1
" 