3452,Ni27Fe23Cr48_15,-219.63675551587, 172.195168376966,Ni27Fe23Cr48,"# generated using pymatgen
 data_Cr14Fe6Ni7
_symmetry_space_group_name_H-M   'P 1'
_cell_length_a   7.51525030
_cell_length_b   7.51525030
_cell_length_c   10.62816889
_cell_angle_alpha   90.00000000
_cell_angle_beta   90.00000000
_cell_angle_gamma   90.00000000
_symmetry_Int_Tables_number   1
_chemical_formula_structural   Cr14Fe6Ni7
_chemical_formula_sum   'Cr28 Fe12 Ni14'
_cell_volume   600.26821306
_cell_formula_units_Z   2
loop_
 _symmetry_equiv_pos_site_id
 _symmetry_equiv_pos_as_xyz
  1  'x, y, z'
loop_
 _atom_site_type_symbol
 _atom_site_label
 _atom_site_symmetry_multiplicity
 _atom_site_fract_x
 _atom_site_fract_y
 _atom_site_fract_z
 _atom_site_occupancy
  Cr  Cr0  1  0.99484480  -0.00307926  0.99658701  1
  Cr  Cr1  1  0.16178792  0.16457058  0.16562174  1
  Cr  Cr2  1  0.99339218  -0.00239723  0.32870222  1
  Cr  Cr3  1  0.99360841  0.32881468  0.99633202  1
  Cr  Cr4  1  0.16139630  0.49686312  0.16602835  1
  Ni  Ni5  1  0.99418880  0.33169080  0.33215839  1
  Fe  Fe6  1  0.99509391  0.66400622  0.99484472  1
  Cr  Cr7  1  0.16193341  0.82860910  0.16151946  1
  Fe  Fe8  1  0.99435120  0.66189806  0.33326148  1
  Cr  Cr9  1  0.32985576  -0.00299759  0.99515828  1
  Cr  Cr10  1  0.49870435  0.16360647  0.16346817  1
  Cr  Cr11  1  0.33180473  -0.00288326  0.33166639  1
  Cr  Cr12  1  0.33122094  0.32912613  -0.00245657  1
  Cr  Cr13  1  0.49933227  0.49794936  0.16172507  1
  Cr  Cr14  1  0.32946242  0.33088194  0.33335625  1
  Cr  Cr15  1  0.32911878  0.66408769  0.99527590  1
  Cr  Cr16  1  0.50009886  0.82872123  0.16542792  1
  Cr  Cr17  1  0.33170282  0.66234293  0.33395538  1
  Cr  Cr18  1  0.66589435  -0.00103287  -0.00231210  1
  Fe  Fe19  1  0.82951103  0.16431189  0.16444763  1
  Fe  Fe20  1  0.66403579  0.99589336  0.33257946  1
  Fe  Fe21  1  0.66539041  0.32879726  0.99436403  1
  Cr  Cr22  1  0.82963760  0.49802813  0.16246915  1
  Cr  Cr23  1  0.66454851  0.32976621  0.33102507  1
  Fe  Fe24  1  0.66673819  0.66389623  0.99558750  1
  Fe  Fe25  1  0.82919283  0.82864344  0.16504851  1
  Fe  Fe26  1  0.66592805  0.66327070  0.33375621  1
  Ni  Ni27  1  0.16306064  0.16589064  0.49886819  1
  Ni  Ni28  1  0.99533092  -0.00196149  0.66422863  1
  Cr  Cr29  1  0.16233220  0.16251316  0.82578452  1
  Fe  Fe30  1  0.16059212  0.49441939  0.49812115  1
  Ni  Ni31  1  0.99493743  0.32894275  0.66178063  1
  Cr  Cr32  1  0.16271782  0.49575041  0.82841124  1
  Cr  Cr33  1  0.16197535  0.83495752  0.49983251  1
  Cr  Cr34  1  0.99520622  0.66307043  0.66288325  1
  Ni  Ni35  1  0.16225112  0.83208575  0.82925510  1
  Fe  Fe36  1  0.49757844  0.16301805  0.49992193  1
  Ni  Ni37  1  0.33126595  -0.00150839  0.66286732  1
  Fe  Fe38  1  0.49814351  0.16269212  0.82676574  1
  Ni  Ni39  1  0.49922590  0.49557424  0.49738080  1
  Ni  Ni40  1  0.33182966  0.32835717  0.65980790  1
  Cr  Cr41  1  0.50005385  0.49426294  0.83152840  1
  Ni  Ni42  1  0.49967310  0.83096314  0.49690802  1
  Cr  Cr43  1  0.33097152  0.66289681  0.66180423  1
  Cr  Cr44  1  0.49675044  0.83152916  0.82798883  1
  Cr  Cr45  1  0.83256830  0.16346497  0.49876740  1
  Ni  Ni46  1  0.66385219  -0.00126035  0.66118353  1
  Ni  Ni47  1  0.82827451  0.16525374  0.82833144  1
  Ni  Ni48  1  0.82908550  0.49534814  0.49779248  1
  Ni  Ni49  1  0.66402119  0.32869114  0.66518301  1
  Fe  Fe50  1  0.83063237  0.49451416  0.82824305  1
  Ni  Ni51  1  0.82736988  0.82986853  0.49532412  1
  Cr  Cr52  1  0.66407997  0.66232442  0.66024752  1
  Cr  Cr53  1  0.83026770  0.83177855  0.82801387  1
" 