7287,Ni27Fe46Cr26_7,-227.573182608286, 189.639032769884,Ni27Fe46Cr26,"# generated using pymatgen
 data_Cr8Fe12Ni7
_symmetry_space_group_name_H-M   'P 1'
_cell_length_a   7.46175797
_cell_length_b   7.46175797
_cell_length_c   10.55251932
_cell_angle_alpha   90.00000000
_cell_angle_beta   90.00000000
_cell_angle_gamma   90.00000000
_symmetry_Int_Tables_number   1
_chemical_formula_structural   Cr8Fe12Ni7
_chemical_formula_sum   'Cr16 Fe24 Ni14'
_cell_volume   587.54139743
_cell_formula_units_Z   2
loop_
 _symmetry_equiv_pos_site_id
 _symmetry_equiv_pos_as_xyz
  1  'x, y, z'
loop_
 _atom_site_type_symbol
 _atom_site_label
 _atom_site_symmetry_multiplicity
 _atom_site_fract_x
 _atom_site_fract_y
 _atom_site_fract_z
 _atom_site_occupancy
  Ni  Ni0  1  0.00050213  0.99809631  0.00109547  1
  Fe  Fe1  1  0.16831526  0.16672940  0.16567695  1
  Fe  Fe2  1  1.00018488  0.00122195  0.33354996  1
  Fe  Fe3  1  0.00098090  0.33346552  0.99993055  1
  Cr  Cr4  1  0.16677186  0.49879753  0.16737660  1
  Fe  Fe5  1  0.99995311  0.33355224  0.33546186  1
  Fe  Fe6  1  0.99931868  0.66831346  0.99896175  1
  Fe  Fe7  1  0.16417298  0.83509269  0.16723802  1
  Fe  Fe8  1  0.00041875  0.66619820  0.33518433  1
  Fe  Fe9  1  0.33335410  0.00149931  0.00112438  1
  Fe  Fe10  1  0.49932719  0.16747409  0.16724038  1
  Cr  Cr11  1  0.33230809  0.00165901  0.33413847  1
  Ni  Ni12  1  0.33211273  0.33243331  0.00137552  1
  Cr  Cr13  1  0.49987391  0.49800222  0.16975499  1
  Ni  Ni14  1  0.33334045  0.33313114  0.33373052  1
  Cr  Cr15  1  0.33201227  0.66661670  0.99692069  1
  Cr  Cr16  1  0.50242921  0.83536051  0.16749431  1
  Fe  Fe17  1  0.33282917  0.66660332  0.33532077  1
  Ni  Ni18  1  0.66940071  0.99946547  0.99932898  1
  Cr  Cr19  1  0.83401347  0.16478688  0.16671268  1
  Ni  Ni20  1  0.66774203  0.00110366  0.33454185  1
  Cr  Cr21  1  0.66638568  0.33407549  0.99965405  1
  Fe  Fe22  1  0.83448545  0.50147951  0.16930945  1
  Ni  Ni23  1  0.66752049  0.33362343  0.33448793  1
  Cr  Cr24  1  0.66992365  0.66722857  0.99925378  1
  Fe  Fe25  1  0.83533632  0.83362816  0.16691357  1
  Fe  Fe26  1  0.66787766  0.66628848  0.33383145  1
  Fe  Fe27  1  0.16653150  0.17008789  0.49990107  1
  Cr  Cr28  1  0.00074307  0.99932543  0.66535830  1
  Cr  Cr29  1  0.16567922  0.16883611  0.83604539  1
  Ni  Ni30  1  0.16655292  0.50024016  0.50157661  1
  Fe  Fe31  1  0.99947000  0.33652357  0.66573426  1
  Fe  Fe32  1  0.16707208  0.50091177  0.83244286  1
  Ni  Ni33  1  0.16702173  0.83176130  0.49986688  1
  Ni  Ni34  1  0.00268457  0.66490002  0.66832921  1
  Fe  Fe35  1  0.16566782  0.83159301  0.83370943  1
  Fe  Fe36  1  0.50097623  0.16892594  0.49952847  1
  Cr  Cr37  1  0.33304897  0.99895899  0.66514648  1
  Cr  Cr38  1  0.50097205  0.16864840  0.83594707  1
  Cr  Cr39  1  0.49890039  0.49922432  0.49945664  1
  Ni  Ni40  1  0.33333994  0.33636958  0.66612054  1
  Ni  Ni41  1  0.49845129  0.49981857  0.83224637  1
  Fe  Fe42  1  0.49885990  0.83292431  0.49847174  1
  Fe  Fe43  1  0.33145378  0.66541649  0.66751558  1
  Fe  Fe44  1  0.50065081  0.83304799  0.83483503  1
  Fe  Fe45  1  0.83356163  0.17057427  0.49855072  1
  Cr  Cr46  1  0.66724178  0.00201744  0.66704565  1
  Fe  Fe47  1  0.83353211  0.16702647  0.83485415  1
  Ni  Ni48  1  0.83576362  0.49785381  0.49930705  1
  Ni  Ni49  1  0.66770320  0.33487758  0.66689018  1
  Fe  Fe50  1  0.83496006  0.49998068  0.83185409  1
  Cr  Cr51  1  0.83423036  0.83427881  0.49697082  1
  Cr  Cr52  1  0.66789874  0.66498667  0.66913319  1
  Ni  Ni53  1  0.83528138  0.83410423  0.83669323  1
" 