6014,Ni28Fe61Cr10_16,-232.552334107294, 195.471694442835,Ni28Fe61Cr10,"# generated using pymatgen
 data_Cr2Fe11Ni5
_symmetry_space_group_name_H-M   'P 1'
_cell_length_a   7.42185411
_cell_length_b   7.42185411
_cell_length_c   10.49608674
_cell_angle_alpha   90.00000000
_cell_angle_beta   90.00000000
_cell_angle_gamma   90.00000000
_symmetry_Int_Tables_number   1
_chemical_formula_structural   Cr2Fe11Ni5
_chemical_formula_sum   'Cr6 Fe33 Ni15'
_cell_volume   578.16558527
_cell_formula_units_Z   3
loop_
 _symmetry_equiv_pos_site_id
 _symmetry_equiv_pos_as_xyz
  1  'x, y, z'
loop_
 _atom_site_type_symbol
 _atom_site_label
 _atom_site_symmetry_multiplicity
 _atom_site_fract_x
 _atom_site_fract_y
 _atom_site_fract_z
 _atom_site_occupancy
  Ni  Ni0  1  1.00046525  0.00371575  1.00192986  1
  Fe  Fe1  1  0.16646140  0.17088580  0.16954616  1
  Fe  Fe2  1  1.00229065  0.00373159  0.33670245  1
  Fe  Fe3  1  0.00338946  0.33596496  0.00343711  1
  Fe  Fe4  1  0.16860647  0.50225401  0.16932145  1
  Fe  Fe5  1  1.00138195  0.33660226  0.33701960  1
  Ni  Ni6  1  1.00210162  0.67021955  0.00306746  1
  Cr  Cr7  1  0.16990384  0.83422671  0.17114088  1
  Ni  Ni8  1  1.00147063  0.66961881  0.33705297  1
  Cr  Cr9  1  0.33633075  0.00428732  1.00188222  1
  Cr  Cr10  1  0.50593793  0.16930909  0.16964975  1
  Fe  Fe11  1  0.33605219  1.00070018  0.33799278  1
  Fe  Fe12  1  0.33557718  0.33919133  1.00199793  1
  Fe  Fe13  1  0.50403449  0.50513441  0.16849587  1
  Cr  Cr14  1  0.33564882  0.33581646  0.33679591  1
  Ni  Ni15  1  0.33763944  0.66713715  1.00241621  1
  Fe  Fe16  1  0.50558718  0.83434971  0.17051987  1
  Fe  Fe17  1  0.33638706  0.67067938  0.33731100  1
  Fe  Fe18  1  0.67241523  1.00174674  1.00220129  1
  Ni  Ni19  1  0.83657654  0.17090312  0.16877608  1
  Fe  Fe20  1  0.67079428  1.00241945  0.33729142  1
  Fe  Fe21  1  0.67016905  0.33642095  1.00295543  1
  Fe  Fe22  1  0.83648948  0.50330055  0.16939393  1
  Fe  Fe23  1  0.67267271  0.33693904  0.33688936  1
  Ni  Ni24  1  0.66939703  0.67046232  0.00427677  1
  Fe  Fe25  1  0.83524681  0.83650412  0.16922508  1
  Fe  Fe26  1  0.66963946  0.66977882  0.33614150  1
  Fe  Fe27  1  0.16914176  0.16906890  0.50408086  1
  Fe  Fe28  1  0.00342400  0.00537752  0.67024778  1
  Fe  Fe29  1  0.16875019  0.17032084  0.83550405  1
  Ni  Ni30  1  0.16936344  0.50476379  0.50313757  1
  Ni  Ni31  1  0.00452563  0.33424690  0.66809512  1
  Fe  Fe32  1  0.17180357  0.50184455  0.83659884  1
  Ni  Ni33  1  0.17188808  0.83533086  0.50193367  1
  Cr  Cr34  1  1.00287477  0.67056607  0.66934334  1
  Ni  Ni35  1  0.17047167  0.83527103  0.83618366  1
  Fe  Fe36  1  0.50295407  0.16875645  0.50414610  1
  Fe  Fe37  1  0.33587580  0.00326775  0.66980527  1
  Ni  Ni38  1  0.50489245  0.17052296  0.83536797  1
  Fe  Fe39  1  0.50307710  0.50399560  0.50391065  1
  Ni  Ni40  1  0.33668617  0.33536232  0.67041742  1
  Fe  Fe41  1  0.50151635  0.50276302  0.83673183  1
  Ni  Ni42  1  0.50109588  0.83611755  0.50234938  1
  Fe  Fe43  1  0.33684358  0.66924542  0.66961407  1
  Fe  Fe44  1  0.50398642  0.83596388  0.83572863  1
  Ni  Ni45  1  0.83564882  0.17127994  0.50313561  1
  Fe  Fe46  1  0.66983556  0.00434955  0.66963888  1
  Ni  Ni47  1  0.83512956  0.16918810  0.83722016  1
  Fe  Fe48  1  0.83658761  0.50295007  0.50247077  1
  Fe  Fe49  1  0.66947190  0.33510802  0.66928789  1
  Cr  Cr50  1  0.83636876  0.50105248  0.83692386  1
  Fe  Fe51  1  0.83627443  0.83670763  0.50203881  1
  Fe  Fe52  1  0.66735896  0.66967510  0.66919782  1
  Fe  Fe53  1  0.83589621  0.83901377  0.83786929  1
" 