844,Ni28Fe72_11,-243.1245208074, 217.971277314739,Ni28Fe72,"# generated using pymatgen
 data_Fe5Ni13
_symmetry_space_group_name_H-M   'P 1'
_cell_length_a   7.41169222
_cell_length_b   7.41169222
_cell_length_c   10.48171565
_cell_angle_alpha   90.00000000
_cell_angle_beta   90.00000000
_cell_angle_gamma   90.00000000
_symmetry_Int_Tables_number   1
_chemical_formula_structural   Fe5Ni13
_chemical_formula_sum   'Fe15 Ni39'
_cell_volume   575.79398880
_cell_formula_units_Z   3
loop_
 _symmetry_equiv_pos_site_id
 _symmetry_equiv_pos_as_xyz
  1  'x, y, z'
loop_
 _atom_site_type_symbol
 _atom_site_label
 _atom_site_symmetry_multiplicity
 _atom_site_fract_x
 _atom_site_fract_y
 _atom_site_fract_z
 _atom_site_occupancy
  Ni  Ni0  1  1.00347533  0.00441726  1.00326183  1
  Ni  Ni1  1  0.17068014  0.16907501  0.17044183  1
  Ni  Ni2  1  1.00233110  0.00452090  0.33691752  1
  Ni  Ni3  1  0.00550115  0.33721475  0.00464883  1
  Ni  Ni4  1  0.17034129  0.50532242  0.17021637  1
  Fe  Fe5  1  1.00336690  0.33728083  0.33680550  1
  Ni  Ni6  1  1.00253030  0.66957340  0.00494344  1
  Ni  Ni7  1  0.17065977  0.83680891  0.16984785  1
  Fe  Fe8  1  0.00389250  0.67064084  0.33714567  1
  Ni  Ni9  1  0.33729859  0.00569838  0.00529243  1
  Ni  Ni10  1  0.50403194  0.16962119  0.16994182  1
  Fe  Fe11  1  0.33754628  1.00354810  0.33646920  1
  Ni  Ni12  1  0.33560189  0.33626452  1.00359302  1
  Ni  Ni13  1  0.50366101  0.50405984  0.16963873  1
  Ni  Ni14  1  0.33619753  0.33810341  0.33732079  1
  Fe  Fe15  1  0.33618019  0.67092666  0.00414443  1
  Fe  Fe16  1  0.50381340  0.83690797  0.16977446  1
  Ni  Ni17  1  0.33783696  0.66817929  0.33643412  1
  Ni  Ni18  1  0.67042942  1.00272822  0.00429024  1
  Ni  Ni19  1  0.83649113  0.16994004  0.17012049  1
  Ni  Ni20  1  0.67196042  1.00288460  0.33671902  1
  Fe  Fe21  1  0.67137109  0.33625647  1.00359737  1
  Ni  Ni22  1  0.83719850  0.50408819  0.17103206  1
  Fe  Fe23  1  0.66978836  0.33698975  0.33762097  1
  Ni  Ni24  1  0.67138211  0.67126545  0.00393431  1
  Fe  Fe25  1  0.83733434  0.83732941  0.17084708  1
  Ni  Ni26  1  0.67008960  0.67115949  0.33755362  1
  Fe  Fe27  1  0.17002893  0.17174421  0.50391297  1
  Fe  Fe28  1  1.00329267  0.00417744  0.67008917  1
  Ni  Ni29  1  0.17071160  0.17043006  0.83684296  1
  Ni  Ni30  1  0.17076535  0.50512721  0.50357125  1
  Ni  Ni31  1  0.00429256  0.33778981  0.66987960  1
  Ni  Ni32  1  0.16934852  0.50431928  0.83741843  1
  Fe  Fe33  1  0.16998969  0.83628708  0.50328524  1
  Ni  Ni34  1  1.00318075  0.66911320  0.66956369  1
  Fe  Fe35  1  0.17044948  0.83769751  0.83761813  1
  Ni  Ni36  1  0.50428255  0.16979919  0.50421579  1
  Ni  Ni37  1  0.33797533  0.00467355  0.66924904  1
  Ni  Ni38  1  0.50379268  0.16813521  0.83704554  1
  Ni  Ni39  1  0.50295275  0.50382789  0.50499974  1
  Ni  Ni40  1  0.33625225  0.33683224  0.67028947  1
  Fe  Fe41  1  0.50373737  0.50278250  0.83654589  1
  Fe  Fe42  1  0.50522314  0.83617461  0.50462194  1
  Ni  Ni43  1  0.33699386  0.66969680  0.67081078  1
  Ni  Ni44  1  0.50345882  0.83816029  0.83667718  1
  Ni  Ni45  1  0.83580445  0.16921930  0.50429496  1
  Ni  Ni46  1  0.67007361  1.00355766  0.67019608  1
  Ni  Ni47  1  0.83670069  0.17041754  0.83678506  1
  Ni  Ni48  1  0.83748302  0.50476188  0.50386924  1
  Ni  Ni49  1  0.67065640  0.33680856  0.67017349  1
  Ni  Ni50  1  0.83840482  0.50398433  0.83630413  1
  Ni  Ni51  1  0.83710120  0.83722359  0.50427263  1
  Ni  Ni52  1  0.67102900  0.67083149  0.66971820  1
  Fe  Fe53  1  0.83668105  0.83727603  0.83685015  1
" 