3562,Ni28Fe9Cr61_17,-214.60608056807, 158.402214383777,Ni28Fe9Cr61,"# generated using pymatgen
 data_Cr34(FeNi3)5
_symmetry_space_group_name_H-M   'P 1'
_cell_length_a   7.54045569
_cell_length_b   7.54045569
_cell_length_c   10.66381470
_cell_angle_alpha   90.00000000
_cell_angle_beta   90.00000000
_cell_angle_gamma   90.00000000
_symmetry_Int_Tables_number   1
_chemical_formula_structural   Cr34(FeNi3)5
_chemical_formula_sum   'Cr34 Fe5 Ni15'
_cell_volume   606.32820996
_cell_formula_units_Z   1
loop_
 _symmetry_equiv_pos_site_id
 _symmetry_equiv_pos_as_xyz
  1  'x, y, z'
loop_
 _atom_site_type_symbol
 _atom_site_label
 _atom_site_symmetry_multiplicity
 _atom_site_fract_x
 _atom_site_fract_y
 _atom_site_fract_z
 _atom_site_occupancy
  Ni  Ni0  1  -0.00347611  0.99202824  -0.00455966  1
  Ni  Ni1  1  0.16231078  0.15841837  0.16301304  1
  Cr  Cr2  1  -0.00320428  -0.00385143  0.32745233  1
  Cr  Cr3  1  -0.00215399  0.32690865  -0.00231588  1
  Cr  Cr4  1  0.16185780  0.49734776  0.16455868  1
  Ni  Ni5  1  -0.00402866  0.32609792  0.32855680  1
  Cr  Cr6  1  -0.00329557  0.66420652  0.99267390  1
  Ni  Ni7  1  0.16624763  0.83006741  0.16148464  1
  Cr  Cr8  1  0.99499419  0.66310040  0.32989433  1
  Cr  Cr9  1  0.32547676  -0.00483233  -0.00419566  1
  Cr  Cr10  1  0.49584530  0.15705695  0.16120431  1
  Ni  Ni11  1  0.32918581  0.99285870  0.32737286  1
  Cr  Cr12  1  0.32780510  0.33005209  -0.00408565  1
  Fe  Fe13  1  0.49256046  0.49803743  0.16251696  1
  Cr  Cr14  1  0.32777768  0.32656530  0.32697106  1
  Fe  Fe15  1  0.32725749  0.66423915  -0.00318827  1
  Ni  Ni16  1  0.49159269  0.82764189  0.16276870  1
  Ni  Ni17  1  0.33003613  0.66510982  0.32533716  1
  Ni  Ni18  1  0.66223866  0.99202238  0.99502547  1
  Cr  Cr19  1  0.82996014  0.16036964  0.16058488  1
  Cr  Cr20  1  0.66075340  0.99438658  0.33247783  1
  Cr  Cr21  1  0.65991462  0.32950486  -0.00319982  1
  Cr  Cr22  1  0.82863831  0.49460229  0.16418974  1
  Cr  Cr23  1  0.66254332  0.32821262  0.32847149  1
  Cr  Cr24  1  0.66024048  0.66191465  -0.00329229  1
  Cr  Cr25  1  0.82754557  0.83057984  0.15977472  1
  Cr  Cr26  1  0.66029835  0.66312210  0.32869945  1
  Cr  Cr27  1  0.16139515  0.16279429  0.49437701  1
  Cr  Cr28  1  0.99483324  0.99241723  0.66312373  1
  Cr  Cr29  1  0.16090925  0.16112622  0.82771760  1
  Cr  Cr30  1  0.16148743  0.49552939  0.49701702  1
  Ni  Ni31  1  0.99415010  0.32837982  0.66036567  1
  Cr  Cr32  1  0.16160817  0.49622760  0.82395158  1
  Cr  Cr33  1  0.16358919  0.82706545  0.49330543  1
  Ni  Ni34  1  0.99432405  0.66302425  0.66252563  1
  Ni  Ni35  1  0.16026119  0.82770842  0.82949453  1
  Fe  Fe36  1  0.49542623  0.16239145  0.49544932  1
  Cr  Cr37  1  0.32854719  -0.00369711  0.65967681  1
  Cr  Cr38  1  0.49706231  0.16169752  0.82609682  1
  Cr  Cr39  1  0.49324343  0.49580124  0.49575687  1
  Ni  Ni40  1  0.32949464  0.32795278  0.66118079  1
  Cr  Cr41  1  0.49476033  0.49488755  0.82864355  1
  Fe  Fe42  1  0.49409371  0.82887420  0.49314884  1
  Cr  Cr43  1  0.32759986  0.66344402  0.66322869  1
  Cr  Cr44  1  0.49463608  0.82991132  0.83017178  1
  Ni  Ni45  1  0.82766783  0.16250517  0.49602597  1
  Cr  Cr46  1  0.66224139  0.99512361  0.65871522  1
  Cr  Cr47  1  0.82732009  0.16049676  0.83089884  1
  Cr  Cr48  1  0.83055596  0.49360370  0.49594715  1
  Ni  Ni49  1  0.66174584  0.32723005  0.65987290  1
  Cr  Cr50  1  0.82885585  0.49416281  0.82539532  1
  Ni  Ni51  1  0.82810955  0.83003553  0.49731156  1
  Cr  Cr52  1  0.66439453  0.66328253  0.66067931  1
  Fe  Fe53  1  0.82991408  0.82940516  0.82887969  1
" 