7712,Ni28Fe61Cr10_15,-232.440754005337, 190.111294881699,Ni28Fe61Cr10,"# generated using pymatgen
 data_Cr2Fe11Ni5
_symmetry_space_group_name_H-M   'P 1'
_cell_length_a   7.42284160
_cell_length_b   7.42284160
_cell_length_c   10.49748326
_cell_angle_alpha   90.00000000
_cell_angle_beta   90.00000000
_cell_angle_gamma   90.00000000
_symmetry_Int_Tables_number   1
_chemical_formula_structural   Cr2Fe11Ni5
_chemical_formula_sum   'Cr6 Fe33 Ni15'
_cell_volume   578.39639315
_cell_formula_units_Z   3
loop_
 _symmetry_equiv_pos_site_id
 _symmetry_equiv_pos_as_xyz
  1  'x, y, z'
loop_
 _atom_site_type_symbol
 _atom_site_label
 _atom_site_symmetry_multiplicity
 _atom_site_fract_x
 _atom_site_fract_y
 _atom_site_fract_z
 _atom_site_occupancy
  Fe  Fe0  1  1.00120356  0.00465663  1.00137507  1
  Cr  Cr1  1  0.16955424  0.17141470  0.16997016  1
  Ni  Ni2  1  1.00164657  0.00366381  0.33766844  1
  Ni  Ni3  1  1.00274018  0.33457410  1.00207551  1
  Fe  Fe4  1  0.17031736  0.50091691  0.16997809  1
  Ni  Ni5  1  1.00220920  0.33601158  0.33726671  1
  Cr  Cr6  1  1.00068830  0.66961338  0.00378353  1
  Cr  Cr7  1  0.17011466  0.83497250  0.17029074  1
  Fe  Fe8  1  1.00198969  0.66942120  0.33692735  1
  Fe  Fe9  1  0.33774259  0.00346457  1.00220349  1
  Ni  Ni10  1  0.50520049  0.16995537  0.17010360  1
  Ni  Ni11  1  0.33610870  1.00238476  0.33684470  1
  Ni  Ni12  1  0.33702558  0.33567636  0.00361611  1
  Fe  Fe13  1  0.50326299  0.50245682  0.16975236  1
  Fe  Fe14  1  0.33702685  0.33706326  0.33620326  1
  Fe  Fe15  1  0.33888332  0.66870202  0.00337651  1
  Fe  Fe16  1  0.50476593  0.83708820  0.17047969  1
  Ni  Ni17  1  0.33715812  0.66869754  0.33590363  1
  Fe  Fe18  1  0.66998749  0.00345197  0.00351081  1
  Ni  Ni19  1  0.83408072  0.17020595  0.16984037  1
  Ni  Ni20  1  0.67117553  1.00261151  0.33448887  1
  Fe  Fe21  1  0.66976273  0.33649426  0.00379891  1
  Fe  Fe22  1  0.83535269  0.50114773  0.17046395  1
  Ni  Ni23  1  0.67062039  0.33706002  0.33528016  1
  Ni  Ni24  1  0.66837187  0.67033705  1.00252624  1
  Fe  Fe25  1  0.83349362  0.83804212  0.17017767  1
  Ni  Ni26  1  0.66934183  0.66926297  0.33559345  1
  Fe  Fe27  1  0.16819144  0.16924752  0.50286898  1
  Ni  Ni28  1  0.00301232  1.00249316  0.67025729  1
  Fe  Fe29  1  0.16920956  0.16827406  0.83639333  1
  Fe  Fe30  1  0.17027493  0.50275629  0.50305497  1
  Fe  Fe31  1  1.00280217  0.33524846  0.66897083  1
  Cr  Cr32  1  0.16989254  0.50210585  0.83693565  1
  Fe  Fe33  1  0.16852300  0.83692782  0.50242299  1
  Fe  Fe34  1  1.00257697  0.67062502  0.66946066  1
  Fe  Fe35  1  0.16961979  0.83863065  0.83547879  1
  Cr  Cr36  1  0.50325414  0.17027591  0.50136356  1
  Fe  Fe37  1  0.33449500  0.00347685  0.67063332  1
  Fe  Fe38  1  0.50266114  0.16980366  0.83645676  1
  Fe  Fe39  1  0.50296159  0.50309171  0.50278546  1
  Ni  Ni40  1  0.33671338  0.33655299  0.66901987  1
  Fe  Fe41  1  0.50454118  0.50332953  0.83639212  1
  Cr  Cr42  1  0.50325333  0.83614479  0.50202711  1
  Fe  Fe43  1  0.33575688  0.66958465  0.66915149  1
  Fe  Fe44  1  0.50355217  0.83579972  0.83637527  1
  Fe  Fe45  1  0.83783710  0.16930075  0.50191457  1
  Fe  Fe46  1  0.67122065  0.00325425  0.67094331  1
  Fe  Fe47  1  0.83706443  0.16926332  0.83665337  1
  Fe  Fe48  1  0.83569780  0.50275802  0.50239570  1
  Fe  Fe49  1  0.67018198  0.33651310  0.66982233  1
  Fe  Fe50  1  0.83422887  0.50291638  0.83607144  1
  Fe  Fe51  1  0.83750327  0.83687364  0.50323617  1
  Fe  Fe52  1  0.67059781  0.66916795  0.67073189  1
  Ni  Ni53  1  0.83534722  0.83703255  0.83547927  1
" 