8149,Ni28Fe72_16,-243.147649243501, 217.560239873666,Ni28Fe72,"# generated using pymatgen
 data_Fe5Ni13
_symmetry_space_group_name_H-M   'P 1'
_cell_length_a   7.41521724
_cell_length_b   7.41521724
_cell_length_c   10.48670079
_cell_angle_alpha   90.00000000
_cell_angle_beta   90.00000000
_cell_angle_gamma   90.00000000
_symmetry_Int_Tables_number   1
_chemical_formula_structural   Fe5Ni13
_chemical_formula_sum   'Fe15 Ni39'
_cell_volume   576.61592837
_cell_formula_units_Z   3
loop_
 _symmetry_equiv_pos_site_id
 _symmetry_equiv_pos_as_xyz
  1  'x, y, z'
loop_
 _atom_site_type_symbol
 _atom_site_label
 _atom_site_symmetry_multiplicity
 _atom_site_fract_x
 _atom_site_fract_y
 _atom_site_fract_z
 _atom_site_occupancy
  Fe  Fe0  1  1.00332029  0.00366737  1.00309791  1
  Ni  Ni1  1  0.16961504  0.17044665  0.16933414  1
  Fe  Fe2  1  1.00208246  0.00397411  0.33692108  1
  Ni  Ni3  1  0.00421740  0.33705570  1.00339482  1
  Ni  Ni4  1  0.16961367  0.50332633  0.16940742  1
  Ni  Ni5  1  0.00376627  0.33693313  0.33713946  1
  Ni  Ni6  1  0.00458531  0.67002712  0.00429201  1
  Ni  Ni7  1  0.16964287  0.83671187  0.17052916  1
  Fe  Fe8  1  1.00163485  0.66943845  0.33622736  1
  Fe  Fe9  1  0.33717244  1.00342301  1.00306423  1
  Ni  Ni10  1  0.50377696  0.17039429  0.16941122  1
  Fe  Fe11  1  0.33798160  0.00430525  0.33708821  1
  Ni  Ni12  1  0.33600827  0.33741753  0.00406016  1
  Ni  Ni13  1  0.50409029  0.50368901  0.17030165  1
  Fe  Fe14  1  0.33769032  0.33669096  0.33696580  1
  Ni  Ni15  1  0.33600203  0.67002877  0.00414202  1
  Ni  Ni16  1  0.50410925  0.83640154  0.16966375  1
  Fe  Fe17  1  0.33804646  0.66948723  0.33666039  1
  Ni  Ni18  1  0.67026057  1.00341123  0.00384090  1
  Ni  Ni19  1  0.83709440  0.17042347  0.17064551  1
  Ni  Ni20  1  0.67011313  1.00306316  0.33725131  1
  Ni  Ni21  1  0.67026156  0.33589805  0.00458523  1
  Ni  Ni22  1  0.83678168  0.50366174  0.16977305  1
  Ni  Ni23  1  0.67096812  0.33659773  0.33634021  1
  Ni  Ni24  1  0.66989887  0.67117737  0.00372449  1
  Ni  Ni25  1  0.83672986  0.83639933  0.16919326  1
  Ni  Ni26  1  0.66981078  0.67082489  0.33683002  1
  Ni  Ni27  1  0.17042220  0.17078167  0.50421095  1
  Ni  Ni28  1  1.00348738  1.00318552  0.66965879  1
  Ni  Ni29  1  0.16946155  0.16961782  0.83693618  1
  Ni  Ni30  1  0.16959589  0.50240968  0.50432464  1
  Fe  Fe31  1  0.00430213  0.33553863  0.66978362  1
  Fe  Fe32  1  0.17162748  0.50313370  0.83730589  1
  Fe  Fe33  1  0.17083489  0.83642781  0.50441858  1
  Fe  Fe34  1  0.00397062  0.67077556  0.67004711  1
  Ni  Ni35  1  0.17029930  0.83729266  0.83613858  1
  Ni  Ni36  1  0.50275284  0.16994271  0.50446612  1
  Ni  Ni37  1  0.33640945  1.00285938  0.67007549  1
  Ni  Ni38  1  0.50365135  0.17047227  0.83660659  1
  Ni  Ni39  1  0.50392015  0.50358803  0.50369709  1
  Ni  Ni40  1  0.33692654  0.33749352  0.66948346  1
  Ni  Ni41  1  0.50393975  0.50387203  0.83648417  1
  Ni  Ni42  1  0.50476185  0.83695438  0.50419055  1
  Ni  Ni43  1  0.33609578  0.67012993  0.66967211  1
  Ni  Ni44  1  0.50310802  0.83614088  0.83662854  1
  Fe  Fe45  1  0.83591672  0.17066232  0.50356410  1
  Ni  Ni46  1  0.67058646  0.00401525  0.66939185  1
  Ni  Ni47  1  0.83737257  0.17044661  0.83616005  1
  Ni  Ni48  1  0.83696793  0.50441727  0.50385352  1
  Ni  Ni49  1  0.66974097  0.33600958  0.66956023  1
  Fe  Fe50  1  0.83617645  0.50270630  0.83754949  1
  Ni  Ni51  1  0.83612870  0.83612648  0.50422665  1
  Fe  Fe52  1  0.66876635  0.67065934  0.66947534  1
  Fe  Fe53  1  0.83622466  0.83818808  0.83692822  1
" 