8918,Ni28Fe72_18,-243.097183622753, 217.094333646607,Ni28Fe72,"# generated using pymatgen
 data_Fe5Ni13
_symmetry_space_group_name_H-M   'P 1'
_cell_length_a   7.41266422
_cell_length_b   7.41266422
_cell_length_c   10.48309027
_cell_angle_alpha   90.00000000
_cell_angle_beta   90.00000000
_cell_angle_gamma   90.00000000
_symmetry_Int_Tables_number   1
_chemical_formula_structural   Fe5Ni13
_chemical_formula_sum   'Fe15 Ni39'
_cell_volume   576.02055426
_cell_formula_units_Z   3
loop_
 _symmetry_equiv_pos_site_id
 _symmetry_equiv_pos_as_xyz
  1  'x, y, z'
loop_
 _atom_site_type_symbol
 _atom_site_label
 _atom_site_symmetry_multiplicity
 _atom_site_fract_x
 _atom_site_fract_y
 _atom_site_fract_z
 _atom_site_occupancy
  Ni  Ni0  1  0.00389428  1.00308700  1.00365079  1
  Ni  Ni1  1  0.16972549  0.16947152  0.16988237  1
  Ni  Ni2  1  0.00431097  0.00371385  0.33654768  1
  Ni  Ni3  1  1.00293042  0.33732502  0.00390330  1
  Fe  Fe4  1  0.17067670  0.50288661  0.16986930  1
  Ni  Ni5  1  1.00253676  0.33633799  0.33651426  1
  Ni  Ni6  1  1.00358384  0.67059197  1.00334086  1
  Ni  Ni7  1  0.17018925  0.83773162  0.17050790  1
  Fe  Fe8  1  0.00452013  0.67030846  0.33646306  1
  Ni  Ni9  1  0.33703742  1.00324324  0.00391996  1
  Ni  Ni10  1  0.50368254  0.17122650  0.17057060  1
  Ni  Ni11  1  0.33640556  1.00229084  0.33694370  1
  Ni  Ni12  1  0.33770639  0.33686721  1.00352649  1
  Ni  Ni13  1  0.50479198  0.50346018  0.17052694  1
  Ni  Ni14  1  0.33786066  0.33744165  0.33761364  1
  Fe  Fe15  1  0.33649138  0.67027026  1.00366768  1
  Ni  Ni16  1  0.50287462  0.83631769  0.17030480  1
  Ni  Ni17  1  0.33786747  0.67127320  0.33673987  1
  Ni  Ni18  1  0.67006982  0.00390252  1.00343325  1
  Ni  Ni19  1  0.83759587  0.17138580  0.17061433  1
  Fe  Fe20  1  0.66948552  0.00451783  0.33653364  1
  Ni  Ni21  1  0.67037051  0.33717992  0.00368684  1
  Ni  Ni22  1  0.83618195  0.50299560  0.16986404  1
  Ni  Ni23  1  0.67060775  0.33780154  0.33682585  1
  Fe  Fe24  1  0.67068442  0.67017626  1.00348537  1
  Fe  Fe25  1  0.83691166  0.83778444  0.16982590  1
  Fe  Fe26  1  0.66951459  0.66982567  0.33759931  1
  Ni  Ni27  1  0.17035918  0.16984844  0.50388462  1
  Ni  Ni28  1  0.00475497  0.00409071  0.67080472  1
  Ni  Ni29  1  0.16982913  0.17017109  0.83724009  1
  Fe  Fe30  1  0.17140721  0.50398217  0.50391571  1
  Ni  Ni31  1  1.00225304  0.33613863  0.67058587  1
  Ni  Ni32  1  0.17093741  0.50395801  0.83707941  1
  Ni  Ni33  1  0.16931491  0.83759357  0.50398061  1
  Fe  Fe34  1  0.00375695  0.67106711  0.67108870  1
  Ni  Ni35  1  0.16873819  0.83687516  0.83651553  1
  Ni  Ni36  1  0.50308934  0.17162120  0.50333860  1
  Ni  Ni37  1  0.33604648  1.00192023  0.67014187  1
  Ni  Ni38  1  0.50404460  0.17192815  0.83709683  1
  Ni  Ni39  1  0.50421800  0.50327059  0.50335702  1
  Fe  Fe40  1  0.33728898  0.33691001  0.67062170  1
  Ni  Ni41  1  0.50358987  0.50285679  0.83712455  1
  Ni  Ni42  1  0.50384559  0.83611480  0.50420278  1
  Ni  Ni43  1  0.33827895  0.67181951  0.67059885  1
  Fe  Fe44  1  0.50297642  0.83762768  0.83671564  1
  Fe  Fe45  1  0.83704271  0.16992688  0.50366708  1
  Fe  Fe46  1  0.67046774  1.00353681  0.67080092  1
  Ni  Ni47  1  0.83713110  0.16972674  0.83672288  1
  Fe  Fe48  1  0.83627199  0.50344628  0.50335614  1
  Ni  Ni49  1  0.67124651  0.33837207  0.67049107  1
  Fe  Fe50  1  0.83753104  0.50275663  0.83740464  1
  Ni  Ni51  1  0.83784620  0.83646662  0.50293343  1
  Ni  Ni52  1  0.66907890  0.66931691  0.67045938  1
  Ni  Ni53  1  0.83823348  0.83732974  0.83759653  1
" 