3909,Ni28Fe72_3,-243.26746782785, 217.25781313995,Ni28Fe72,"# generated using pymatgen
 data_Fe5Ni13
_symmetry_space_group_name_H-M   'P 1'
_cell_length_a   7.41460435
_cell_length_b   7.41460435
_cell_length_c   10.48583403
_cell_angle_alpha   90.00000000
_cell_angle_beta   90.00000000
_cell_angle_gamma   90.00000000
_symmetry_Int_Tables_number   1
_chemical_formula_structural   Fe5Ni13
_chemical_formula_sum   'Fe15 Ni39'
_cell_volume   576.47296117
_cell_formula_units_Z   3
loop_
 _symmetry_equiv_pos_site_id
 _symmetry_equiv_pos_as_xyz
  1  'x, y, z'
loop_
 _atom_site_type_symbol
 _atom_site_label
 _atom_site_symmetry_multiplicity
 _atom_site_fract_x
 _atom_site_fract_y
 _atom_site_fract_z
 _atom_site_occupancy
  Ni  Ni0  1  1.00243401  1.00323353  1.00315875  1
  Ni  Ni1  1  0.17035755  0.17187617  0.17042226  1
  Fe  Fe2  1  1.00268491  0.00386183  0.33632418  1
  Ni  Ni3  1  0.00394833  0.33663098  1.00337781  1
  Ni  Ni4  1  0.17038335  0.50272540  0.17108480  1
  Ni  Ni5  1  0.00385124  0.33734117  0.33644988  1
  Fe  Fe6  1  1.00276868  0.66955704  1.00331007  1
  Fe  Fe7  1  0.17004073  0.83746605  0.17049599  1
  Ni  Ni8  1  0.00412862  0.67016506  0.33616153  1
  Fe  Fe9  1  0.33726692  0.00540690  1.00312605  1
  Ni  Ni10  1  0.50297292  0.16959300  0.17044489  1
  Fe  Fe11  1  0.33749284  0.00415938  0.33711682  1
  Ni  Ni12  1  0.33666150  0.33744854  1.00306126  1
  Fe  Fe13  1  0.50335537  0.50273164  0.17073122  1
  Ni  Ni14  1  0.33648598  0.33734169  0.33700543  1
  Fe  Fe15  1  0.33716159  0.66951852  1.00337602  1
  Ni  Ni16  1  0.50473790  0.83684175  0.17108530  1
  Ni  Ni17  1  0.33618625  0.67014328  0.33677746  1
  Ni  Ni18  1  0.67080253  1.00350576  1.00339758  1
  Ni  Ni19  1  0.83727847  0.16924927  0.17073873  1
  Ni  Ni20  1  0.67029312  1.00340870  0.33643131  1
  Ni  Ni21  1  0.66999989  0.33564472  0.00367101  1
  Fe  Fe22  1  0.83698476  0.50266527  0.17072933  1
  Ni  Ni23  1  0.67027090  0.33557363  0.33641667  1
  Fe  Fe24  1  0.67067920  0.67031783  0.00355774  1
  Ni  Ni25  1  0.83583015  0.83686334  0.17054076  1
  Ni  Ni26  1  0.67029357  0.67162568  0.33702614  1
  Ni  Ni27  1  0.17074985  0.17065174  0.50313903  1
  Fe  Fe28  1  0.00375368  0.00434119  0.67061568  1
  Ni  Ni29  1  0.17045112  0.17137226  0.83704795  1
  Fe  Fe30  1  0.16965702  0.50279894  0.50340264  1
  Ni  Ni31  1  1.00334771  0.33791359  0.67078172  1
  Ni  Ni32  1  0.17045148  0.50265322  0.83585169  1
  Fe  Fe33  1  0.16997263  0.83657557  0.50383025  1
  Ni  Ni34  1  0.00443389  0.66979821  0.67075096  1
  Fe  Fe35  1  0.17026807  0.83667237  0.83628348  1
  Ni  Ni36  1  0.50240569  0.17078622  0.50337734  1
  Ni  Ni37  1  0.33822435  1.00292923  0.67085850  1
  Ni  Ni38  1  0.50260974  0.16990699  0.83678855  1
  Ni  Ni39  1  0.50317000  0.50372640  0.50312546  1
  Ni  Ni40  1  0.33678586  0.33710042  0.67054287  1
  Ni  Ni41  1  0.50256701  0.50407366  0.83715816  1
  Fe  Fe42  1  0.50434248  0.83741772  0.50346898  1
  Ni  Ni43  1  0.33567456  0.67058058  0.67045246  1
  Ni  Ni44  1  0.50435049  0.83662776  0.83616961  1
  Ni  Ni45  1  0.83745581  0.16968153  0.50335530  1
  Ni  Ni46  1  0.66969122  0.00401158  0.67078098  1
  Ni  Ni47  1  0.83754998  0.16958871  0.83651422  1
  Ni  Ni48  1  0.83671170  0.50485120  0.50304704  1
  Ni  Ni49  1  0.67047430  0.33536084  0.67052319  1
  Ni  Ni50  1  0.83759031  0.50438949  0.83699702  1
  Ni  Ni51  1  0.83684911  0.83607641  0.50333703  1
  Fe  Fe52  1  0.66995444  0.66955941  0.67002189  1
  Ni  Ni53  1  0.83612640  0.83662875  0.83672918  1
" 