1734,Ni28Fe61Cr10_2,-232.994215465583, 193.609366678424,Ni28Fe61Cr10,"# generated using pymatgen
 data_Cr2Fe11Ni5
_symmetry_space_group_name_H-M   'P 1'
_cell_length_a   7.42510114
_cell_length_b   7.42510114
_cell_length_c   10.50067873
_cell_angle_alpha   90.00000000
_cell_angle_beta   90.00000000
_cell_angle_gamma   90.00000000
_symmetry_Int_Tables_number   1
_chemical_formula_structural   Cr2Fe11Ni5
_chemical_formula_sum   'Cr6 Fe33 Ni15'
_cell_volume   578.92475235
_cell_formula_units_Z   3
loop_
 _symmetry_equiv_pos_site_id
 _symmetry_equiv_pos_as_xyz
  1  'x, y, z'
loop_
 _atom_site_type_symbol
 _atom_site_label
 _atom_site_symmetry_multiplicity
 _atom_site_fract_x
 _atom_site_fract_y
 _atom_site_fract_z
 _atom_site_occupancy
  Fe  Fe0  1  1.00164821  1.00091488  0.00335461  1
  Fe  Fe1  1  0.17036376  0.16660478  0.17108097  1
  Ni  Ni2  1  1.00247614  1.00194967  0.33532089  1
  Cr  Cr3  1  1.00209848  0.33658082  0.00374387  1
  Cr  Cr4  1  0.16958702  0.50428251  0.17002151  1
  Fe  Fe5  1  1.00131218  0.33515515  0.33651012  1
  Ni  Ni6  1  0.00389985  0.67141471  0.00318336  1
  Ni  Ni7  1  0.16803907  0.83811917  0.16986493  1
  Fe  Fe8  1  1.00205887  0.67185021  0.33620331  1
  Fe  Fe9  1  0.33631933  0.00303417  0.00376723  1
  Ni  Ni10  1  0.50290183  0.16970445  0.16896044  1
  Ni  Ni11  1  0.33748537  1.00182617  0.33511053  1
  Fe  Fe12  1  0.33960404  0.33545942  1.00238035  1
  Ni  Ni13  1  0.50520126  0.50113535  0.16883632  1
  Fe  Fe14  1  0.33821378  0.33453074  0.33634743  1
  Fe  Fe15  1  0.33716177  0.66998291  1.00224770  1
  Fe  Fe16  1  0.50333591  0.83616303  0.16975341  1
  Fe  Fe17  1  0.33657057  0.67157338  0.33692684  1
  Ni  Ni18  1  0.66843833  0.00343440  0.00328834  1
  Fe  Fe19  1  0.83454161  0.16846385  0.16970368  1
  Ni  Ni20  1  0.66851107  0.00334043  0.33621616  1
  Ni  Ni21  1  0.66711462  0.33465983  0.00361592  1
  Ni  Ni22  1  0.83339826  0.50478533  0.17034999  1
  Fe  Fe23  1  0.66894834  0.33465250  0.33511967  1
  Fe  Fe24  1  0.66971041  0.66960756  0.00434300  1
  Ni  Ni25  1  0.83731366  0.83582426  0.16798259  1
  Fe  Fe26  1  0.66984400  0.67070540  0.33550253  1
  Cr  Cr27  1  0.17118864  0.16821836  0.50160661  1
  Fe  Fe28  1  1.00122116  1.00231188  0.67020362  1
  Fe  Fe29  1  0.17025850  0.16820318  0.83582232  1
  Ni  Ni30  1  0.17058743  0.50488951  0.50206784  1
  Cr  Cr31  1  0.00306889  0.33598967  0.66944559  1
  Fe  Fe32  1  0.17268036  0.50333726  0.83661309  1
  Fe  Fe33  1  0.17083828  0.83573920  0.50105764  1
  Cr  Cr34  1  0.00472759  0.66995004  0.66820060  1
  Fe  Fe35  1  0.16931213  0.83693342  0.83772343  1
  Ni  Ni36  1  0.50447362  0.16891477  0.50428740  1
  Fe  Fe37  1  0.33731783  1.00222952  0.66956734  1
  Fe  Fe38  1  0.50430870  0.16941744  0.83632347  1
  Fe  Fe39  1  0.50196923  0.50215320  0.50255776  1
  Fe  Fe40  1  0.33875122  0.33679371  0.66974472  1
  Fe  Fe41  1  0.50185133  0.50208967  0.83687045  1
  Fe  Fe42  1  0.50236844  0.83707779  0.50291748  1
  Fe  Fe43  1  0.33776585  0.66945095  0.66929892  1
  Fe  Fe44  1  0.50401221  0.83696396  0.83580236  1
  Fe  Fe45  1  0.83360943  0.16851455  0.50260338  1
  Ni  Ni46  1  0.66815212  0.00349184  0.66896613  1
  Ni  Ni47  1  0.83437745  0.16597040  0.83525238  1
  Fe  Fe48  1  0.83494016  0.50210470  0.50103322  1
  Fe  Fe49  1  0.66734494  0.33456440  0.66927558  1
  Cr  Cr50  1  0.83362224  0.50362215  0.83795614  1
  Fe  Fe51  1  0.83526819  0.83785550  0.50144590  1
  Fe  Fe52  1  0.66726528  0.67060799  0.66862833  1
  Fe  Fe53  1  0.83515160  0.83938044  0.83752313  1
" 