651,Ni28Fe72_15,-242.910208758392, 217.276305085267,Ni28Fe72,"# generated using pymatgen
 data_Fe5Ni13
_symmetry_space_group_name_H-M   'P 1'
_cell_length_a   7.41346592
_cell_length_b   7.41346592
_cell_length_c   10.48422405
_cell_angle_alpha   90.00000000
_cell_angle_beta   90.00000000
_cell_angle_gamma   90.00000000
_symmetry_Int_Tables_number   1
_chemical_formula_structural   Fe5Ni13
_chemical_formula_sum   'Fe15 Ni39'
_cell_volume   576.20746971
_cell_formula_units_Z   3
loop_
 _symmetry_equiv_pos_site_id
 _symmetry_equiv_pos_as_xyz
  1  'x, y, z'
loop_
 _atom_site_type_symbol
 _atom_site_label
 _atom_site_symmetry_multiplicity
 _atom_site_fract_x
 _atom_site_fract_y
 _atom_site_fract_z
 _atom_site_occupancy
  Ni  Ni0  1  1.00347589  0.00376069  0.00405635  1
  Ni  Ni1  1  0.17048630  0.17142890  0.17041034  1
  Fe  Fe2  1  1.00300593  0.00383675  0.33678473  1
  Ni  Ni3  1  1.00301084  0.33595941  0.00363560  1
  Ni  Ni4  1  0.16989358  0.50222154  0.17051616  1
  Ni  Ni5  1  0.00391764  0.33618016  0.33627915  1
  Ni  Ni6  1  0.00519719  0.67112002  1.00359584  1
  Fe  Fe7  1  0.17034885  0.83656233  0.16970562  1
  Fe  Fe8  1  1.00285493  0.66913426  0.33676682  1
  Fe  Fe9  1  0.33625444  0.00392642  1.00332636  1
  Ni  Ni10  1  0.50320675  0.17000823  0.17091368  1
  Fe  Fe11  1  0.33815763  0.00399130  0.33665729  1
  Fe  Fe12  1  0.33571662  0.33697903  0.00383868  1
  Ni  Ni13  1  0.50348067  0.50332857  0.17019015  1
  Ni  Ni14  1  0.33637392  0.33824994  0.33607840  1
  Ni  Ni15  1  0.33662772  0.67083258  0.00385003  1
  Ni  Ni16  1  0.50458553  0.83750628  0.17062964  1
  Ni  Ni17  1  0.33750208  0.67014426  0.33672875  1
  Fe  Fe18  1  0.67084266  1.00330146  0.00390534  1
  Ni  Ni19  1  0.83714777  0.17032361  0.16997038  1
  Ni  Ni20  1  0.67087113  1.00306570  0.33638946  1
  Ni  Ni21  1  0.67074152  0.33624719  0.00404470  1
  Ni  Ni22  1  0.83746625  0.50360099  0.17090747  1
  Ni  Ni23  1  0.67054956  0.33650375  0.33713979  1
  Fe  Fe24  1  0.67164150  0.67011961  0.00383913  1
  Ni  Ni25  1  0.83604379  0.83691316  0.17051890  1
  Ni  Ni26  1  0.66880161  0.67127174  0.33619311  1
  Fe  Fe27  1  0.16986304  0.17089197  0.50383815  1
  Ni  Ni28  1  1.00297306  0.00400939  0.67048544  1
  Ni  Ni29  1  0.17119323  0.17094285  0.83648566  1
  Ni  Ni30  1  0.17008084  0.50289389  0.50392726  1
  Ni  Ni31  1  0.00407622  0.33560785  0.67092517  1
  Ni  Ni32  1  0.16902783  0.50261829  0.83639809  1
  Ni  Ni33  1  0.17037463  0.83708566  0.50374198  1
  Fe  Fe34  1  1.00301343  0.66980784  0.67074807  1
  Ni  Ni35  1  0.17012117  0.83728203  0.83685384  1
  Fe  Fe36  1  0.50412678  0.17072902  0.50367968  1
  Fe  Fe37  1  0.33748312  0.00383270  0.67085799  1
  Ni  Ni38  1  0.50281308  0.16954861  0.83662606  1
  Ni  Ni39  1  0.50374762  0.50325727  0.50405365  1
  Ni  Ni40  1  0.33641342  0.33842600  0.67081655  1
  Fe  Fe41  1  0.50307823  0.50408645  0.83643507  1
  Ni  Ni42  1  0.50410928  0.83738257  0.50392738  1
  Ni  Ni43  1  0.33751599  0.67013049  0.67026140  1
  Ni  Ni44  1  0.50419156  0.83837335  0.83628432  1
  Fe  Fe45  1  0.83685417  0.17037058  0.50336839  1
  Ni  Ni46  1  0.67144435  1.00290649  0.67081654  1
  Fe  Fe47  1  0.83764108  0.16996773  0.83712638  1
  Ni  Ni48  1  0.83700877  0.50353000  0.50330164  1
  Ni  Ni49  1  0.67035168  0.33670355  0.66965717  1
  Ni  Ni50  1  0.83792688  0.50399612  0.83663235  1
  Ni  Ni51  1  0.83635614  0.83680894  0.50394677  1
  Ni  Ni52  1  0.66862665  0.67123171  0.67070083  1
  Ni  Ni53  1  0.83653108  0.83620642  0.83637796  1
" 