1715,Ni28Fe9Cr61_5,-214.610164128045, 157.501623143888,Ni28Fe9Cr61,"# generated using pymatgen
 data_Cr34(FeNi3)5
_symmetry_space_group_name_H-M   'P 1'
_cell_length_a   7.54027840
_cell_length_b   7.54027840
_cell_length_c   10.66356398
_cell_angle_alpha   90.00000000
_cell_angle_beta   90.00000000
_cell_angle_gamma   90.00000000
_symmetry_Int_Tables_number   1
_chemical_formula_structural   Cr34(FeNi3)5
_chemical_formula_sum   'Cr34 Fe5 Ni15'
_cell_volume   606.28544414
_cell_formula_units_Z   1
loop_
 _symmetry_equiv_pos_site_id
 _symmetry_equiv_pos_as_xyz
  1  'x, y, z'
loop_
 _atom_site_type_symbol
 _atom_site_label
 _atom_site_symmetry_multiplicity
 _atom_site_fract_x
 _atom_site_fract_y
 _atom_site_fract_z
 _atom_site_occupancy
  Ni  Ni0  1  -0.00326041  0.99424276  -0.00400134  1
  Fe  Fe1  1  0.15934319  0.16379175  0.16182881  1
  Cr  Cr2  1  -0.00184529  -0.00448593  0.32731750  1
  Cr  Cr3  1  -0.00442496  0.32931361  0.99495249  1
  Ni  Ni4  1  0.15796884  0.49776487  0.16289775  1
  Ni  Ni5  1  -0.00401186  0.33252453  0.32685287  1
  Ni  Ni6  1  -0.00360283  0.66042693  -0.00400537  1
  Fe  Fe7  1  0.15953990  0.82506480  0.16152570  1
  Fe  Fe8  1  -0.00328259  0.66004223  0.32766791  1
  Cr  Cr9  1  0.32521208  0.99361734  -0.00384966  1
  Cr  Cr10  1  0.49458068  0.16290828  0.16144946  1
  Cr  Cr11  1  0.32622004  0.99111969  0.32854054  1
  Cr  Cr12  1  0.32317478  0.32970856  -0.00463859  1
  Cr  Cr13  1  0.49398326  0.49506568  0.16246808  1
  Cr  Cr14  1  0.32423672  0.32979766  0.32768082  1
  Cr  Cr15  1  0.32531268  0.66205260  0.99509373  1
  Cr  Cr16  1  0.49493436  0.82716633  0.16139726  1
  Fe  Fe17  1  0.32585509  0.66177230  0.32955766  1
  Cr  Cr18  1  0.66306727  0.99416721  0.99358882  1
  Cr  Cr19  1  0.82908785  0.16160694  0.16219319  1
  Cr  Cr20  1  0.66114766  0.99211668  0.33001834  1
  Cr  Cr21  1  0.66599856  0.33014493  0.99367287  1
  Ni  Ni22  1  0.83481201  0.49637269  0.16282094  1
  Cr  Cr23  1  0.66566369  0.33159182  0.33019470  1
  Cr  Cr24  1  0.66404968  0.66084856  0.99308423  1
  Cr  Cr25  1  0.83140384  0.82598821  0.15997347  1
  Cr  Cr26  1  0.66173177  0.66162463  0.33043650  1
  Cr  Cr27  1  0.16094577  0.16078113  0.49693120  1
  Ni  Ni28  1  -0.00243928  0.99367106  0.66163706  1
  Cr  Cr29  1  0.16076945  0.16049346  0.82673254  1
  Cr  Cr30  1  0.16008659  0.49769147  0.49525734  1
  Cr  Cr31  1  0.99339942  0.33007937  0.66349954  1
  Ni  Ni32  1  0.15722239  0.49759778  0.82908083  1
  Ni  Ni33  1  0.16252595  0.82703008  0.49516342  1
  Fe  Fe34  1  -0.00461145  0.66184333  0.66222245  1
  Cr  Cr35  1  0.15992138  0.82703129  0.82746619  1
  Cr  Cr36  1  0.49373750  0.16290832  0.49615886  1
  Ni  Ni37  1  0.32618705  0.99058863  0.66022627  1
  Cr  Cr38  1  0.49502493  0.16074798  0.82800712  1
  Ni  Ni39  1  0.49516131  0.49849633  0.49364889  1
  Cr  Cr40  1  0.32658369  0.33029594  0.66305795  1
  Cr  Cr41  1  0.49296292  0.49602761  0.82948279  1
  Ni  Ni42  1  0.49148337  0.82629546  0.49524078  1
  Cr  Cr43  1  0.32874457  0.66354218  0.66095514  1
  Ni  Ni44  1  0.49372886  0.82964161  0.82749006  1
  Cr  Cr45  1  0.83066829  0.16225714  0.49507860  1
  Cr  Cr46  1  0.66163192  0.99255937  0.66176838  1
  Ni  Ni47  1  0.83135025  0.16084332  0.82858247  1
  Ni  Ni48  1  0.83063256  0.49696548  0.49346708  1
  Cr  Cr49  1  0.66508393  0.33188326  0.66166988  1
  Ni  Ni50  1  0.83329354  0.49601942  0.82918607  1
  Cr  Cr51  1  0.83298521  0.82668765  0.49593661  1
  Cr  Cr52  1  0.66222498  0.66086786  0.66155892  1
  Cr  Cr53  1  0.83157628  0.82857521  0.82955222  1
" 