4311,Ni28Fe72_8,-243.26057243819, 218.134373661538,Ni28Fe72,"# generated using pymatgen
 data_Fe5Ni13
_symmetry_space_group_name_H-M   'P 1'
_cell_length_a   7.41749685
_cell_length_b   7.41749685
_cell_length_c   10.48992465
_cell_angle_alpha   90.00000000
_cell_angle_beta   90.00000000
_cell_angle_gamma   90.00000000
_symmetry_Int_Tables_number   1
_chemical_formula_structural   Fe5Ni13
_chemical_formula_sum   'Fe15 Ni39'
_cell_volume   577.14788742
_cell_formula_units_Z   3
loop_
 _symmetry_equiv_pos_site_id
 _symmetry_equiv_pos_as_xyz
  1  'x, y, z'
loop_
 _atom_site_type_symbol
 _atom_site_label
 _atom_site_symmetry_multiplicity
 _atom_site_fract_x
 _atom_site_fract_y
 _atom_site_fract_z
 _atom_site_occupancy
  Fe  Fe0  1  1.00260123  0.00361288  1.00309400  1
  Fe  Fe1  1  0.17071017  0.16981280  0.17030636  1
  Fe  Fe2  1  0.00341656  1.00279068  0.33653927  1
  Fe  Fe3  1  1.00244923  0.33585846  1.00302883  1
  Fe  Fe4  1  0.16988356  0.50328591  0.17039728  1
  Ni  Ni5  1  0.00472790  0.33826722  0.33604958  1
  Fe  Fe6  1  1.00302605  0.67054610  0.00340602  1
  Ni  Ni7  1  0.16984713  0.83650958  0.16985205  1
  Ni  Ni8  1  1.00175175  0.66853059  0.33660683  1
  Ni  Ni9  1  0.33717973  0.00451403  1.00316663  1
  Ni  Ni10  1  0.50380091  0.17071147  0.16963890  1
  Ni  Ni11  1  0.33779880  0.00476207  0.33649171  1
  Ni  Ni12  1  0.33585255  0.33523569  1.00325091  1
  Ni  Ni13  1  0.50383879  0.50245645  0.16983820  1
  Ni  Ni14  1  0.33486474  0.33525518  0.33652458  1
  Fe  Fe15  1  0.33811260  0.67042292  1.00284024  1
  Ni  Ni16  1  0.50301842  0.83684972  0.17053695  1
  Fe  Fe17  1  0.33654682  0.67000699  0.33704258  1
  Ni  Ni18  1  0.66936854  1.00240990  0.00368748  1
  Ni  Ni19  1  0.83567465  0.17039560  0.17063150  1
  Ni  Ni20  1  0.66895179  1.00177605  0.33571743  1
  Ni  Ni21  1  0.67002713  0.33669376  0.00362980  1
  Ni  Ni22  1  0.83602647  0.50315311  0.16986544  1
  Fe  Fe23  1  0.66975871  0.33692203  0.33581135  1
  Ni  Ni24  1  0.67154030  0.67092564  0.00340031  1
  Ni  Ni25  1  0.83716495  0.83647245  0.16976642  1
  Ni  Ni26  1  0.67196287  0.67146123  0.33638085  1
  Ni  Ni27  1  0.17127535  0.17002012  0.50352328  1
  Fe  Fe28  1  0.00400699  1.00253750  0.67039244  1
  Ni  Ni29  1  0.17059919  0.17062448  0.83673097  1
  Ni  Ni30  1  0.17004363  0.50346023  0.50288640  1
  Ni  Ni31  1  0.00481171  0.33788300  0.67039408  1
  Ni  Ni32  1  0.17024500  0.50339682  0.83637754  1
  Ni  Ni33  1  0.16891827  0.83653250  0.50408708  1
  Ni  Ni34  1  1.00263653  0.66858550  0.67013773  1
  Ni  Ni35  1  0.16994049  0.83599342  0.83608151  1
  Ni  Ni36  1  0.50262345  0.17109473  0.50341089  1
  Ni  Ni37  1  0.33757314  0.00424423  0.67037440  1
  Ni  Ni38  1  0.50354048  0.17009676  0.83696772  1
  Ni  Ni39  1  0.50345695  0.50200477  0.50364956  1
  Ni  Ni40  1  0.33455861  0.33571969  0.67024830  1
  Fe  Fe41  1  0.50279327  0.50341461  0.83680774  1
  Fe  Fe42  1  0.50321503  0.83648140  0.50364711  1
  Ni  Ni43  1  0.33604583  0.67005701  0.66985193  1
  Ni  Ni44  1  0.50356970  0.83718666  0.83637312  1
  Fe  Fe45  1  0.83724103  0.17057313  0.50333756  1
  Ni  Ni46  1  0.66917481  1.00206768  0.67061943  1
  Ni  Ni47  1  0.83586184  0.16977118  0.83604986  1
  Ni  Ni48  1  0.83651059  0.50435368  0.50363301  1
  Fe  Fe49  1  0.66925823  0.33693794  0.67027142  1
  Fe  Fe50  1  0.83711055  0.50357534  0.83650920  1
  Ni  Ni51  1  0.83759224  0.83569463  0.50308680  1
  Ni  Ni52  1  0.67134003  0.67160275  0.67024765  1
  Ni  Ni53  1  0.83652152  0.83681858  0.83716862  1
" 