7613,Ni28Fe9Cr61_13,-214.533108057214, 154.197710156022,Ni28Fe9Cr61,"# generated using pymatgen
 data_Cr34(FeNi3)5
_symmetry_space_group_name_H-M   'P 1'
_cell_length_a   7.53992960
_cell_length_b   7.53992960
_cell_length_c   10.66307070
_cell_angle_alpha   90.00000000
_cell_angle_beta   90.00000000
_cell_angle_gamma   90.00000000
_symmetry_Int_Tables_number   1
_chemical_formula_structural   Cr34(FeNi3)5
_chemical_formula_sum   'Cr34 Fe5 Ni15'
_cell_volume   606.20131037
_cell_formula_units_Z   1
loop_
 _symmetry_equiv_pos_site_id
 _symmetry_equiv_pos_as_xyz
  1  'x, y, z'
loop_
 _atom_site_type_symbol
 _atom_site_label
 _atom_site_symmetry_multiplicity
 _atom_site_fract_x
 _atom_site_fract_y
 _atom_site_fract_z
 _atom_site_occupancy
  Cr  Cr0  1  0.99384474  0.99466470  -0.00439100  1
  Cr  Cr1  1  0.16128212  0.15986804  0.16470004  1
  Ni  Ni2  1  0.99373552  0.99508416  0.32836538  1
  Cr  Cr3  1  0.99377625  0.32948575  -0.00292116  1
  Ni  Ni4  1  0.16022728  0.49654864  0.16144030  1
  Cr  Cr5  1  0.99436170  0.32879741  0.32723673  1
  Ni  Ni6  1  0.99246913  0.66041932  0.99272089  1
  Cr  Cr7  1  0.16150911  0.82881409  0.16075199  1
  Cr  Cr8  1  0.99365395  0.66124346  0.32955080  1
  Ni  Ni9  1  0.33253672  -0.00294115  0.99391059  1
  Ni  Ni10  1  0.49698339  0.15974467  0.16005286  1
  Ni  Ni11  1  0.32917377  -0.00361946  0.32718134  1
  Cr  Cr12  1  0.32946620  0.32662614  -0.00330745  1
  Cr  Cr13  1  0.49704382  0.49630991  0.16119712  1
  Cr  Cr14  1  0.32820698  0.32916968  0.32755604  1
  Cr  Cr15  1  0.32698025  0.66300320  0.99447152  1
  Cr  Cr16  1  0.49616529  0.82853020  0.16199911  1
  Cr  Cr17  1  0.32896022  0.66083501  0.32850484  1
  Ni  Ni18  1  0.65930520  -0.00301915  -0.00472999  1
  Ni  Ni19  1  0.82571092  0.16067415  0.16119179  1
  Cr  Cr20  1  0.66330128  0.99438884  0.32817963  1
  Fe  Fe21  1  0.66179773  0.32648058  -0.00440103  1
  Cr  Cr22  1  0.82735453  0.49629454  0.15917668  1
  Cr  Cr23  1  0.66296487  0.32837154  0.32667907  1
  Ni  Ni24  1  0.66460484  0.66246100  0.99456602  1
  Cr  Cr25  1  0.82778605  0.82839004  0.16180365  1
  Ni  Ni26  1  0.66450396  0.66192050  0.33032936  1
  Cr  Cr27  1  0.16109968  0.16157186  0.49288069  1
  Cr  Cr28  1  0.99320926  0.99192176  0.66221980  1
  Cr  Cr29  1  0.16275223  0.15975391  0.82838265  1
  Ni  Ni30  1  0.15864581  0.49731181  0.49606227  1
  Cr  Cr31  1  0.99407637  0.33117013  0.66104178  1
  Cr  Cr32  1  0.15857268  0.49731030  0.82874570  1
  Cr  Cr33  1  0.16087279  0.82955806  0.49478788  1
  Ni  Ni34  1  0.99201435  0.66079996  0.66178138  1
  Ni  Ni35  1  0.16000991  0.82709629  0.82947899  1
  Cr  Cr36  1  0.49579744  0.16147172  0.49699150  1
  Cr  Cr37  1  0.33070098  0.99447494  0.66508305  1
  Ni  Ni38  1  0.49896849  0.16134613  0.82913994  1
  Cr  Cr39  1  0.49656521  0.49535080  0.49451282  1
  Cr  Cr40  1  0.32926981  0.32887786  0.66174677  1
  Cr  Cr41  1  0.49989815  0.49327396  0.82960037  1
  Cr  Cr42  1  0.49662840  0.82885656  0.49291398  1
  Cr  Cr43  1  0.32644582  0.66211623  0.66257157  1
  Cr  Cr44  1  0.49570633  0.82916653  0.83072852  1
  Cr  Cr45  1  0.82879777  0.16098623  0.49576945  1
  Fe  Fe46  1  0.66217787  -0.00470595  0.66329475  1
  Cr  Cr47  1  0.82563813  0.16442420  0.82920636  1
  Fe  Fe48  1  0.82954371  0.49658870  0.49553280  1
  Fe  Fe49  1  0.66295300  0.32889142  0.66288956  1
  Ni  Ni50  1  0.82746386  0.49632675  0.82831866  1
  Fe  Fe51  1  0.82975641  0.82705986  0.49445883  1
  Cr  Cr52  1  0.66447184  0.66306641  0.65954858  1
  Cr  Cr53  1  0.82927217  0.82640210  0.82951056  1
" 