3423,Ni28Fe61Cr10_6,-232.703311156677, 197.054561660976,Ni28Fe61Cr10,"# generated using pymatgen
 data_Cr2Fe11Ni5
_symmetry_space_group_name_H-M   'P 1'
_cell_length_a   7.42044095
_cell_length_b   7.42044095
_cell_length_c   10.49408822
_cell_angle_alpha   90.00000000
_cell_angle_beta   90.00000000
_cell_angle_gamma   90.00000000
_symmetry_Int_Tables_number   1
_chemical_formula_structural   Cr2Fe11Ni5
_chemical_formula_sum   'Cr6 Fe33 Ni15'
_cell_volume   577.83539029
_cell_formula_units_Z   3
loop_
 _symmetry_equiv_pos_site_id
 _symmetry_equiv_pos_as_xyz
  1  'x, y, z'
loop_
 _atom_site_type_symbol
 _atom_site_label
 _atom_site_symmetry_multiplicity
 _atom_site_fract_x
 _atom_site_fract_y
 _atom_site_fract_z
 _atom_site_occupancy
  Fe  Fe0  1  0.00350951  1.00009263  0.00337630  1
  Cr  Cr1  1  0.17033586  0.16840197  0.17231627  1
  Ni  Ni2  1  1.00302390  1.00171036  0.33820364  1
  Fe  Fe3  1  1.00221616  0.33885420  1.00184752  1
  Fe  Fe4  1  0.16858496  0.50581473  0.17089626  1
  Ni  Ni5  1  1.00160920  0.33754829  0.33745472  1
  Fe  Fe6  1  0.00460267  0.66973914  0.00391996  1
  Ni  Ni7  1  0.17038337  0.83543346  0.16935402  1
  Ni  Ni8  1  1.00310362  0.67059052  0.33564051  1
  Fe  Fe9  1  0.33753305  1.00029291  1.00254556  1
  Fe  Fe10  1  0.50387388  0.16781948  0.17188640  1
  Ni  Ni11  1  0.33728440  1.00115539  0.33649126  1
  Cr  Cr12  1  0.33690909  0.33733537  1.00294444  1
  Fe  Fe13  1  0.50247316  0.50407596  0.17179434  1
  Fe  Fe14  1  0.33629795  0.33722869  0.33789222  1
  Ni  Ni15  1  0.33641813  0.67085510  1.00277956  1
  Fe  Fe16  1  0.50167061  0.83771809  0.17003746  1
  Ni  Ni17  1  0.33709276  0.67129047  0.33562817  1
  Fe  Fe18  1  0.66800850  1.00282286  1.00247508  1
  Cr  Cr19  1  0.83611379  0.17011074  0.17040106  1
  Fe  Fe20  1  0.66968389  1.00151232  0.33730517  1
  Fe  Fe21  1  0.66978584  0.33682738  1.00284235  1
  Fe  Fe22  1  0.83833248  0.50409336  0.17135432  1
  Ni  Ni23  1  0.66960283  0.33719415  0.33663709  1
  Cr  Cr24  1  0.66956967  0.67102817  0.00519625  1
  Ni  Ni25  1  0.83793808  0.83610751  0.17092081  1
  Fe  Fe26  1  0.67082664  0.67030613  0.33602577  1
  Fe  Fe27  1  0.17005842  0.16804780  0.50106531  1
  Fe  Fe28  1  0.00474751  1.00086505  0.66905120  1
  Fe  Fe29  1  0.16885453  0.16695265  0.83710579  1
  Fe  Fe30  1  0.17025767  0.50545101  0.50115413  1
  Cr  Cr31  1  1.00155384  0.33558457  0.66886125  1
  Fe  Fe32  1  0.16944378  0.50705261  0.83654644  1
  Fe  Fe33  1  0.17120831  0.83586464  0.50205023  1
  Fe  Fe34  1  0.00378509  0.67086503  0.66887295  1
  Fe  Fe35  1  0.16975807  0.83536157  0.83682467  1
  Ni  Ni36  1  0.50256777  0.16830256  0.50191011  1
  Ni  Ni37  1  0.33648906  1.00206775  0.67064306  1
  Fe  Fe38  1  0.50552422  0.16838457  0.83539217  1
  Fe  Fe39  1  0.50430991  0.50444411  0.50169334  1
  Cr  Cr40  1  0.33660118  0.33672731  0.66847910  1
  Fe  Fe41  1  0.50445463  0.50581379  0.83589435  1
  Fe  Fe42  1  0.50241758  0.83599103  0.50417139  1
  Ni  Ni43  1  0.33765830  0.67137725  0.67073717  1
  Ni  Ni44  1  0.50161815  0.83715526  0.83587511  1
  Fe  Fe45  1  0.83454918  0.16982409  0.50124511  1
  Fe  Fe46  1  0.66833756  1.00304230  0.66968088  1
  Fe  Fe47  1  0.83490541  0.16842517  0.83782243  1
  Ni  Ni48  1  0.83607089  0.50435704  0.50179873  1
  Fe  Fe49  1  0.66889514  0.33690256  0.66844857  1
  Ni  Ni50  1  0.83652962  0.50268289  0.83694633  1
  Fe  Fe51  1  0.83610386  0.83620538  0.50223841  1
  Fe  Fe52  1  0.66988920  0.66949853  0.67058996  1
  Fe  Fe53  1  0.83621001  0.83637698  0.83631821  1
" 