3808,Ni28Fe72_17,-242.751727498711, 217.058189696217,Ni28Fe72,"# generated using pymatgen
 data_Fe5Ni13
_symmetry_space_group_name_H-M   'P 1'
_cell_length_a   7.41030752
_cell_length_b   7.41030752
_cell_length_c   10.47975740
_cell_angle_alpha   90.00000000
_cell_angle_beta   90.00000000
_cell_angle_gamma   90.00000000
_symmetry_Int_Tables_number   1
_chemical_formula_structural   Fe5Ni13
_chemical_formula_sum   'Fe15 Ni39'
_cell_volume   575.47132917
_cell_formula_units_Z   3
loop_
 _symmetry_equiv_pos_site_id
 _symmetry_equiv_pos_as_xyz
  1  'x, y, z'
loop_
 _atom_site_type_symbol
 _atom_site_label
 _atom_site_symmetry_multiplicity
 _atom_site_fract_x
 _atom_site_fract_y
 _atom_site_fract_z
 _atom_site_occupancy
  Ni  Ni0  1  0.00493548  1.00287656  1.00367169  1
  Fe  Fe1  1  0.17109495  0.17003725  0.16960175  1
  Ni  Ni2  1  0.00459747  1.00325058  0.33716368  1
  Ni  Ni3  1  0.00464466  0.33827644  0.00397199  1
  Ni  Ni4  1  0.17022443  0.50468140  0.17064978  1
  Ni  Ni5  1  0.00428577  0.33805192  0.33695481  1
  Ni  Ni6  1  0.00464708  0.67033480  0.00401384  1
  Ni  Ni7  1  0.16913945  0.83634362  0.17003209  1
  Ni  Ni8  1  0.00430216  0.67018646  0.33747156  1
  Ni  Ni9  1  0.33768713  0.00395968  0.00417874  1
  Ni  Ni10  1  0.50530231  0.17076380  0.17001796  1
  Fe  Fe11  1  0.33737554  1.00355348  0.33701448  1
  Ni  Ni12  1  0.33767395  0.33688166  1.00358460  1
  Ni  Ni13  1  0.50356799  0.50295873  0.17066025  1
  Fe  Fe14  1  0.33765533  0.33771351  0.33664098  1
  Fe  Fe15  1  0.33667364  0.67036357  0.00390036  1
  Ni  Ni16  1  0.50435369  0.83776192  0.17086658  1
  Fe  Fe17  1  0.33688060  0.67021913  0.33694375  1
  Ni  Ni18  1  0.66886671  0.00396644  1.00368951  1
  Fe  Fe19  1  0.83673898  0.17000188  0.17055912  1
  Ni  Ni20  1  0.66940574  1.00360639  0.33745907  1
  Ni  Ni21  1  0.66916865  0.33717962  0.00398392  1
  Fe  Fe22  1  0.83691414  0.50470645  0.17123517  1
  Ni  Ni23  1  0.66970547  0.33770824  0.33718817  1
  Fe  Fe24  1  0.67022054  0.67071317  0.00411668  1
  Ni  Ni25  1  0.83799047  0.83807386  0.17076148  1
  Ni  Ni26  1  0.67003065  0.67016655  0.33694736  1
  Fe  Fe27  1  0.16992101  0.17120803  0.50443890  1
  Ni  Ni28  1  0.00524757  1.00350356  0.67064504  1
  Ni  Ni29  1  0.16924737  0.17016957  0.83695021  1
  Ni  Ni30  1  0.16975991  0.50542896  0.50396819  1
  Ni  Ni31  1  0.00414328  0.33806960  0.67055203  1
  Ni  Ni32  1  0.17029550  0.50449490  0.83686657  1
  Ni  Ni33  1  0.16945774  0.83628974  0.50367058  1
  Ni  Ni34  1  0.00419256  0.66991050  0.66999828  1
  Ni  Ni35  1  0.17000374  0.83682214  0.83778421  1
  Ni  Ni36  1  0.50602788  0.17086993  0.50429434  1
  Ni  Ni37  1  0.33739648  1.00380177  0.67054543  1
  Ni  Ni38  1  0.50539142  0.17048042  0.83717445  1
  Ni  Ni39  1  0.50433108  0.50293799  0.50365734  1
  Fe  Fe40  1  0.33744268  0.33707276  0.67110656  1
  Ni  Ni41  1  0.50370252  0.50354318  0.83716641  1
  Fe  Fe42  1  0.50442521  0.83690829  0.50410922  1
  Fe  Fe43  1  0.33694660  0.67078248  0.67064534  1
  Ni  Ni44  1  0.50367622  0.83746262  0.83726089  1
  Ni  Ni45  1  0.83601379  0.17056538  0.50345896  1
  Ni  Ni46  1  0.66884026  0.00384731  0.67034180  1
  Ni  Ni47  1  0.83684589  0.17018443  0.83736190  1
  Ni  Ni48  1  0.83739317  0.50292753  0.50357425  1
  Ni  Ni49  1  0.66992570  0.33774707  0.67031073  1
  Fe  Fe50  1  0.83737536  0.50324285  0.83642569  1
  Fe  Fe51  1  0.83712983  0.83657125  0.50324120  1
  Ni  Ni52  1  0.67021203  0.66988033  0.67044335  1
  Fe  Fe53  1  0.83730889  0.83767697  0.83746542  1
" 