1070,Ni28Fe61Cr10_19,-232.638896900743, 198.015585011222,Ni28Fe61Cr10,"# generated using pymatgen
 data_Cr2Fe11Ni5
_symmetry_space_group_name_H-M   'P 1'
_cell_length_a   7.41976991
_cell_length_b   7.41976991
_cell_length_c   10.49313924
_cell_angle_alpha   90.00000000
_cell_angle_beta   90.00000000
_cell_angle_gamma   90.00000000
_symmetry_Int_Tables_number   1
_chemical_formula_structural   Cr2Fe11Ni5
_chemical_formula_sum   'Cr6 Fe33 Ni15'
_cell_volume   577.67864224
_cell_formula_units_Z   3
loop_
 _symmetry_equiv_pos_site_id
 _symmetry_equiv_pos_as_xyz
  1  'x, y, z'
loop_
 _atom_site_type_symbol
 _atom_site_label
 _atom_site_symmetry_multiplicity
 _atom_site_fract_x
 _atom_site_fract_y
 _atom_site_fract_z
 _atom_site_occupancy
  Fe  Fe0  1  0.00332488  1.00273973  0.00373497  1
  Ni  Ni1  1  0.16906126  0.16938363  0.17002730  1
  Cr  Cr2  1  0.00416958  1.00210318  0.33676322  1
  Cr  Cr3  1  1.00300381  0.33728676  1.00283282  1
  Fe  Fe4  1  0.17152072  0.50178739  0.17245043  1
  Ni  Ni5  1  0.00350071  0.33799978  0.33808973  1
  Cr  Cr6  1  1.00170958  0.66997387  0.00461575  1
  Fe  Fe7  1  0.17344995  0.83656115  0.17098223  1
  Ni  Ni8  1  1.00036963  0.66891765  0.33615774  1
  Ni  Ni9  1  0.33822441  0.00455983  0.00320943  1
  Fe  Fe10  1  0.50173765  0.17021092  0.17046899  1
  Ni  Ni11  1  0.33891372  0.00500723  0.33717866  1
  Fe  Fe12  1  0.33886815  0.33730748  0.00406992  1
  Ni  Ni13  1  0.50363357  0.50382486  0.16969438  1
  Ni  Ni14  1  0.33780443  0.33500784  0.33601683  1
  Fe  Fe15  1  0.33848644  0.67000903  0.00321399  1
  Fe  Fe16  1  0.50229024  0.83721584  0.16963733  1
  Fe  Fe17  1  0.33402207  0.66856177  0.33614366  1
  Fe  Fe18  1  0.67066300  1.00260398  1.00313215  1
  Fe  Fe19  1  0.83532951  0.17164830  0.17115043  1
  Fe  Fe20  1  0.67031860  0.00518648  0.33652141  1
  Fe  Fe21  1  0.66714971  0.33720209  0.00319918  1
  Fe  Fe22  1  0.83476733  0.50205539  0.17163103  1
  Fe  Fe23  1  0.66983248  0.33633615  0.33698491  1
  Ni  Ni24  1  0.66987542  0.67010665  1.00246430  1
  Fe  Fe25  1  0.83402796  0.83628555  0.16945230  1
  Fe  Fe26  1  0.66909577  0.66857031  0.33465712  1
  Fe  Fe27  1  0.17196508  0.16943931  0.50171221  1
  Fe  Fe28  1  0.00447404  0.00468630  0.66930429  1
  Fe  Fe29  1  0.17081478  0.16753877  0.83772232  1
  Fe  Fe30  1  0.17088797  0.50291689  0.50102248  1
  Fe  Fe31  1  1.00261251  0.33383934  0.66961544  1
  Fe  Fe32  1  0.17118409  0.50401979  0.83620085  1
  Ni  Ni33  1  0.16913118  0.83622449  0.50318796  1
  Cr  Cr34  1  1.00054909  0.66861501  0.66904635  1
  Fe  Fe35  1  0.17214964  0.83800630  0.83575503  1
  Ni  Ni36  1  0.50565540  0.17070545  0.50168921  1
  Ni  Ni37  1  0.33783056  0.00408964  0.66911814  1
  Fe  Fe38  1  0.50438669  0.16835239  0.83662150  1
  Ni  Ni39  1  0.50373447  0.50278120  0.50233451  1
  Cr  Cr40  1  0.33785778  0.33417664  0.66887906  1
  Ni  Ni41  1  0.50293166  0.50339449  0.83728622  1
  Cr  Cr42  1  0.50150000  0.83522065  0.50314919  1
  Fe  Fe43  1  0.33680424  0.66983863  0.67057718  1
  Fe  Fe44  1  0.50371382  0.83698535  0.83663851  1
  Ni  Ni45  1  0.83757324  0.17075446  0.50400638  1
  Fe  Fe46  1  0.67023066  0.00472309  0.66972625  1
  Fe  Fe47  1  0.83498737  0.16994704  0.83502176  1
  Fe  Fe48  1  0.83459838  0.50252196  0.50192222  1
  Fe  Fe49  1  0.67007789  0.33667061  0.66925762  1
  Fe  Fe50  1  0.83289281  0.50335793  0.83600976  1
  Fe  Fe51  1  0.83474306  0.83682177  0.50348245  1
  Fe  Fe52  1  0.66672760  0.66902082  0.67212024  1
  Ni  Ni53  1  0.83687551  0.83893896  0.83615277  1
" 