5955,Ni28Fe72_9,-243.123063594278, 217.234174363255,Ni28Fe72,"# generated using pymatgen
 data_Fe5Ni13
_symmetry_space_group_name_H-M   'P 1'
_cell_length_a   7.41640903
_cell_length_b   7.41640903
_cell_length_c   10.48838623
_cell_angle_alpha   90.00000000
_cell_angle_beta   90.00000000
_cell_angle_gamma   90.00000000
_symmetry_Int_Tables_number   1
_chemical_formula_structural   Fe5Ni13
_chemical_formula_sum   'Fe15 Ni39'
_cell_volume   576.89399683
_cell_formula_units_Z   3
loop_
 _symmetry_equiv_pos_site_id
 _symmetry_equiv_pos_as_xyz
  1  'x, y, z'
loop_
 _atom_site_type_symbol
 _atom_site_label
 _atom_site_symmetry_multiplicity
 _atom_site_fract_x
 _atom_site_fract_y
 _atom_site_fract_z
 _atom_site_occupancy
  Ni  Ni0  1  0.00634679  1.00314953  0.00382146  1
  Ni  Ni1  1  0.17083197  0.17100959  0.16944321  1
  Ni  Ni2  1  0.00633092  1.00305032  0.33634204  1
  Ni  Ni3  1  1.00204271  0.33700747  0.00409412  1
  Fe  Fe4  1  0.16970360  0.50432469  0.17071319  1
  Ni  Ni5  1  1.00326805  0.33660609  0.33615496  1
  Ni  Ni6  1  1.00213956  0.67025768  0.00352323  1
  Ni  Ni7  1  0.16974894  0.83691438  0.17080138  1
  Ni  Ni8  1  1.00137306  0.67068170  0.33700497  1
  Ni  Ni9  1  0.33645648  1.00303663  1.00295558  1
  Ni  Ni10  1  0.50319175  0.17047216  0.17008172  1
  Ni  Ni11  1  0.33669469  0.00364652  0.33753156  1
  Fe  Fe12  1  0.33594880  0.33681399  0.00364603  1
  Fe  Fe13  1  0.50335199  0.50455325  0.17028984  1
  Ni  Ni14  1  0.33738691  0.33429705  0.33585440  1
  Fe  Fe15  1  0.33532896  0.67067775  1.00240662  1
  Ni  Ni16  1  0.50418299  0.83737862  0.16929962  1
  Fe  Fe17  1  0.33619942  0.66977598  0.33777110  1
  Fe  Fe18  1  0.67192977  0.00353770  1.00307602  1
  Fe  Fe19  1  0.83708494  0.16858102  0.17080563  1
  Fe  Fe20  1  0.67070331  0.00370834  0.33747684  1
  Ni  Ni21  1  0.66989988  0.33824229  0.00376356  1
  Fe  Fe22  1  0.83662344  0.50373937  0.16948853  1
  Ni  Ni23  1  0.66940097  0.33848766  0.33686585  1
  Ni  Ni24  1  0.66999357  0.66874170  1.00259035  1
  Ni  Ni25  1  0.83665786  0.83609659  0.16938843  1
  Ni  Ni26  1  0.67027232  0.66944246  0.33677315  1
  Ni  Ni27  1  0.16983522  0.17234031  0.50405039  1
  Ni  Ni28  1  0.00423907  1.00310108  0.67005734  1
  Fe  Fe29  1  0.16893051  0.17054566  0.83668973  1
  Ni  Ni30  1  0.17051696  0.50202265  0.50349834  1
  Ni  Ni31  1  1.00337477  0.33732862  0.66980429  1
  Ni  Ni32  1  0.16983032  0.50321100  0.83735326  1
  Fe  Fe33  1  0.17066345  0.83745881  0.50378265  1
  Ni  Ni34  1  1.00310064  0.67005955  0.66983638  1
  Ni  Ni35  1  0.16836067  0.83636835  0.83602244  1
  Ni  Ni36  1  0.50330937  0.17080872  0.50371198  1
  Ni  Ni37  1  0.33661071  0.00365916  0.66974904  1
  Fe  Fe38  1  0.50365405  0.17015581  0.83675012  1
  Ni  Ni39  1  0.50164081  0.50291191  0.50338383  1
  Ni  Ni40  1  0.33720841  0.33628073  0.67099603  1
  Ni  Ni41  1  0.50321504  0.50162645  0.83689241  1
  Ni  Ni42  1  0.50563901  0.83637727  0.50379654  1
  Ni  Ni43  1  0.33701028  0.67018206  0.66996345  1
  Fe  Fe44  1  0.50293771  0.83431992  0.83639366  1
  Ni  Ni45  1  0.83732725  0.16867767  0.50305535  1
  Ni  Ni46  1  0.66942384  1.00319147  0.67069657  1
  Fe  Fe47  1  0.83784583  0.17148842  0.83581271  1
  Fe  Fe48  1  0.83624898  0.50259798  0.50369830  1
  Ni  Ni49  1  0.66946502  0.33753108  0.66921570  1
  Ni  Ni50  1  0.83679640  0.50420119  0.83568007  1
  Ni  Ni51  1  0.83674030  0.83722387  0.50389323  1
  Ni  Ni52  1  0.67006061  0.66928610  0.67034624  1
  Ni  Ni53  1  0.83727472  0.83716723  0.83726019  1
" 