3821,Ni28Fe9Cr61_14,-214.678846470162, 157.669607686447,Ni28Fe9Cr61,"# generated using pymatgen
 data_Cr34(FeNi3)5
_symmetry_space_group_name_H-M   'P 1'
_cell_length_a   7.54082079
_cell_length_b   7.54082079
_cell_length_c   10.66433104
_cell_angle_alpha   90.00000000
_cell_angle_beta   90.00000000
_cell_angle_gamma   90.00000000
_symmetry_Int_Tables_number   1
_chemical_formula_structural   Cr34(FeNi3)5
_chemical_formula_sum   'Cr34 Fe5 Ni15'
_cell_volume   606.41628783
_cell_formula_units_Z   1
loop_
 _symmetry_equiv_pos_site_id
 _symmetry_equiv_pos_as_xyz
  1  'x, y, z'
loop_
 _atom_site_type_symbol
 _atom_site_label
 _atom_site_symmetry_multiplicity
 _atom_site_fract_x
 _atom_site_fract_y
 _atom_site_fract_z
 _atom_site_occupancy
  Cr  Cr0  1  -0.00409232  0.99329694  -0.00424099  1
  Cr  Cr1  1  0.16031744  0.16418411  0.16102769  1
  Ni  Ni2  1  0.99457153  0.99032888  0.32862221  1
  Ni  Ni3  1  -0.00218877  0.33366921  0.99418575  1
  Ni  Ni4  1  0.15952064  0.49507499  0.16144902  1
  Cr  Cr5  1  0.99316002  0.33271678  0.32895440  1
  Cr  Cr6  1  0.99382008  0.65924659  -0.00417226  1
  Cr  Cr7  1  0.15981130  0.82859597  0.16644605  1
  Ni  Ni8  1  0.99307356  0.66152974  0.32695737  1
  Cr  Cr9  1  0.32901779  -0.00264276  0.99378840  1
  Cr  Cr10  1  0.49320019  0.16354793  0.16066153  1
  Ni  Ni11  1  0.32773286  0.99205849  0.32801904  1
  Ni  Ni12  1  0.32494581  0.33041463  0.99304055  1
  Cr  Cr13  1  0.49521482  0.49605532  0.16233411  1
  Cr  Cr14  1  0.32800692  0.32788483  0.32702339  1
  Cr  Cr15  1  0.32439720  0.66133414  0.99379105  1
  Cr  Cr16  1  0.49677353  0.82562698  0.16306608  1
  Fe  Fe17  1  0.32522642  0.66195906  0.32728907  1
  Cr  Cr18  1  0.66075068  0.99277586  -0.00483675  1
  Cr  Cr19  1  0.83208804  0.16198993  0.16256931  1
  Cr  Cr20  1  0.66178860  0.99510465  0.32812362  1
  Cr  Cr21  1  0.66317491  0.32892609  0.99473525  1
  Ni  Ni22  1  0.83008736  0.49874475  0.16207899  1
  Cr  Cr23  1  0.66418722  0.33025707  0.33172655  1
  Fe  Fe24  1  0.66396712  0.65964393  -0.00401493  1
  Ni  Ni25  1  0.82845031  0.82394698  0.16385271  1
  Fe  Fe26  1  0.66703652  0.66199180  0.32816071  1
  Cr  Cr27  1  0.15819877  0.15929067  0.49331950  1
  Ni  Ni28  1  0.99398249  -0.00418348  0.66116965  1
  Ni  Ni29  1  0.16147058  0.16546408  0.83005748  1
  Cr  Cr30  1  0.16243795  0.49785661  0.49450165  1
  Cr  Cr31  1  0.99482332  0.33075493  0.66141612  1
  Ni  Ni32  1  0.16058669  0.49095896  0.82967619  1
  Cr  Cr33  1  0.16096024  0.82846813  0.49409572  1
  Cr  Cr34  1  -0.00418164  0.65899753  0.66343745  1
  Cr  Cr35  1  0.15996776  0.82897884  0.82474390  1
  Cr  Cr36  1  0.49512498  0.16100469  0.49507502  1
  Cr  Cr37  1  0.32913607  -0.00347857  0.66389117  1
  Ni  Ni38  1  0.49407404  0.16285009  0.82857327  1
  Cr  Cr39  1  0.49486454  0.49831977  0.49408819  1
  Cr  Cr40  1  0.32729600  0.32871292  0.66438881  1
  Cr  Cr41  1  0.49546525  0.49433573  0.82884019  1
  Cr  Cr42  1  0.49406440  0.82617773  0.49521583  1
  Fe  Fe43  1  0.32746404  0.66106953  0.66290648  1
  Cr  Cr44  1  0.49735343  0.82716271  0.82718636  1
  Fe  Fe45  1  0.83037680  0.16008636  0.49577485  1
  Ni  Ni46  1  0.66221225  -0.00428425  0.66178290  1
  Cr  Cr47  1  0.83075468  0.16193194  0.82611532  1
  Ni  Ni48  1  0.82892712  0.49739403  0.49306247  1
  Cr  Cr49  1  0.66310739  0.32754453  0.65836207  1
  Ni  Ni50  1  0.83031023  0.49388282  0.83042955  1
  Cr  Cr51  1  0.83036960  0.82986328  0.49585585  1
  Cr  Cr52  1  0.66460214  0.66024695  0.66239537  1
  Cr  Cr53  1  0.82806528  0.82818482  0.82885498  1
" 