6686,Ni28Fe9Cr61_3,-214.650514128438, 156.506207174384,Ni28Fe9Cr61,"# generated using pymatgen
 data_Cr34(FeNi3)5
_symmetry_space_group_name_H-M   'P 1'
_cell_length_a   7.54285196
_cell_length_b   7.54285196
_cell_length_c   10.66720354
_cell_angle_alpha   90.00000000
_cell_angle_beta   90.00000000
_cell_angle_gamma   90.00000000
_symmetry_Int_Tables_number   1
_chemical_formula_structural   Cr34(FeNi3)5
_chemical_formula_sum   'Cr34 Fe5 Ni15'
_cell_volume   606.90644580
_cell_formula_units_Z   1
loop_
 _symmetry_equiv_pos_site_id
 _symmetry_equiv_pos_as_xyz
  1  'x, y, z'
loop_
 _atom_site_type_symbol
 _atom_site_label
 _atom_site_symmetry_multiplicity
 _atom_site_fract_x
 _atom_site_fract_y
 _atom_site_fract_z
 _atom_site_occupancy
  Cr  Cr0  1  0.99155879  -0.00420601  -0.00301538  1
  Cr  Cr1  1  0.16237778  0.15904160  0.16426992  1
  Fe  Fe2  1  0.99236133  0.99326964  0.32658160  1
  Cr  Cr3  1  -0.00206890  0.32786717  -0.00325559  1
  Ni  Ni4  1  0.16535875  0.49720526  0.16247514  1
  Cr  Cr5  1  -0.00283001  0.33105730  0.32871788  1
  Cr  Cr6  1  0.99239560  0.66077821  -0.00492579  1
  Cr  Cr7  1  0.16193934  0.82565680  0.16229576  1
  Ni  Ni8  1  -0.00442831  0.66279756  0.32798198  1
  Cr  Cr9  1  0.33239924  -0.00381886  -0.00419705  1
  Ni  Ni10  1  0.49445515  0.16218634  0.16021941  1
  Ni  Ni11  1  0.33059317  0.99381695  0.32769111  1
  Ni  Ni12  1  0.33105503  0.33115071  -0.00055139  1
  Ni  Ni13  1  0.49201250  0.49597673  0.15842538  1
  Cr  Cr14  1  0.32782208  0.32839271  0.32749871  1
  Ni  Ni15  1  0.33367558  0.65788273  0.00079288  1
  Ni  Ni16  1  0.49350687  0.82648432  0.16350295  1
  Fe  Fe17  1  0.32888807  0.66078081  0.32547734  1
  Cr  Cr18  1  0.66056273  0.99137112  -0.00032207  1
  Ni  Ni19  1  0.82526738  0.15921826  0.16175526  1
  Cr  Cr20  1  0.65929497  0.99250728  0.32494322  1
  Fe  Fe21  1  0.65895299  0.32846345  -0.00058779  1
  Cr  Cr22  1  0.82698079  0.49581698  0.16069549  1
  Cr  Cr23  1  0.65942409  0.32784629  0.32212978  1
  Ni  Ni24  1  0.65770273  0.66233477  -0.00076881  1
  Ni  Ni25  1  0.82767799  0.82805099  0.16348085  1
  Cr  Cr26  1  0.66182128  0.66485776  0.32742949  1
  Fe  Fe27  1  0.16113673  0.16044871  0.49189309  1
  Cr  Cr28  1  0.99497296  0.99436633  0.66269329  1
  Cr  Cr29  1  0.16360003  0.16062343  0.82905554  1
  Ni  Ni30  1  0.16265503  0.49954892  0.49118458  1
  Cr  Cr31  1  -0.00206159  0.33001283  0.65969905  1
  Cr  Cr32  1  0.16549068  0.49703043  0.83218326  1
  Cr  Cr33  1  0.16229918  0.82881942  0.48957623  1
  Cr  Cr34  1  -0.00431574  0.66069205  0.66191694  1
  Cr  Cr35  1  0.16429070  0.82687153  0.83339034  1
  Cr  Cr36  1  0.49586180  0.16090286  0.49644061  1
  Cr  Cr37  1  0.33068539  0.99422462  0.66073791  1
  Cr  Cr38  1  0.49736369  0.16497132  0.82789281  1
  Cr  Cr39  1  0.49554966  0.49401202  0.49437773  1
  Cr  Cr40  1  0.32541009  0.32905691  0.65950356  1
  Cr  Cr41  1  0.49644259  0.49414179  0.83164429  1
  Fe  Fe42  1  0.49615634  0.82914857  0.49231484  1
  Cr  Cr43  1  0.32814427  0.66143858  0.65941966  1
  Cr  Cr44  1  0.49443388  0.82651915  0.82789975  1
  Cr  Cr45  1  0.82598074  0.16087586  0.49481879  1
  Ni  Ni46  1  0.66174656  0.99434414  0.65889534  1
  Cr  Cr47  1  0.82425735  0.16324306  0.82752277  1
  Cr  Cr48  1  0.82746904  0.49562126  0.49591633  1
  Ni  Ni49  1  0.66079818  0.32661516  0.66223915  1
  Cr  Cr50  1  0.82223527  0.49334612  0.82802732  1
  Ni  Ni51  1  0.83103650  0.83067980  0.49372566  1
  Cr  Cr52  1  0.66154941  0.66590042  0.65864821  1
  Cr  Cr53  1  0.82670891  0.82841256  0.82829736  1
" 