54,Ni28Fe72_5,-242.918115412013, 215.400809020195,Ni28Fe72,"# generated using pymatgen
 data_Fe5Ni13
_symmetry_space_group_name_H-M   'P 1'
_cell_length_a   7.41427567
_cell_length_b   7.41427567
_cell_length_c   10.48536921
_cell_angle_alpha   90.00000000
_cell_angle_beta   90.00000000
_cell_angle_gamma   90.00000000
_symmetry_Int_Tables_number   1
_chemical_formula_structural   Fe5Ni13
_chemical_formula_sum   'Fe15 Ni39'
_cell_volume   576.39630247
_cell_formula_units_Z   3
loop_
 _symmetry_equiv_pos_site_id
 _symmetry_equiv_pos_as_xyz
  1  'x, y, z'
loop_
 _atom_site_type_symbol
 _atom_site_label
 _atom_site_symmetry_multiplicity
 _atom_site_fract_x
 _atom_site_fract_y
 _atom_site_fract_z
 _atom_site_occupancy
  Ni  Ni0  1  1.00316228  0.00389091  1.00285644  1
  Ni  Ni1  1  0.17000465  0.16982788  0.16979718  1
  Fe  Fe2  1  0.00431827  1.00338102  0.33677766  1
  Ni  Ni3  1  1.00345004  0.33745673  1.00306824  1
  Fe  Fe4  1  0.17011791  0.50302605  0.16982267  1
  Ni  Ni5  1  0.00420393  0.33783640  0.33715622  1
  Ni  Ni6  1  1.00315971  0.66932931  1.00336274  1
  Ni  Ni7  1  0.17142041  0.83701933  0.17018414  1
  Ni  Ni8  1  1.00312353  0.66881547  0.33724806  1
  Ni  Ni9  1  0.33794038  0.00387220  1.00341918  1
  Ni  Ni10  1  0.50329508  0.16978987  0.17082490  1
  Ni  Ni11  1  0.33852109  0.00397624  0.33723593  1
  Ni  Ni12  1  0.33666871  0.33648912  1.00292342  1
  Fe  Fe13  1  0.50331502  0.50325503  0.17019746  1
  Ni  Ni14  1  0.33570962  0.33613198  0.33761842  1
  Ni  Ni15  1  0.33697536  0.67031288  1.00315838  1
  Ni  Ni16  1  0.50221491  0.83672067  0.17033265  1
  Ni  Ni17  1  0.33683968  0.67056346  0.33771088  1
  Ni  Ni18  1  0.66957362  0.00358406  1.00312827  1
  Ni  Ni19  1  0.83737711  0.17170593  0.16998199  1
  Ni  Ni20  1  0.66901157  1.00289732  0.33717781  1
  Ni  Ni21  1  0.67055777  0.33649310  1.00328498  1
  Ni  Ni22  1  0.83707833  0.50274918  0.17020401  1
  Fe  Fe23  1  0.66998310  0.33733118  0.33627000  1
  Ni  Ni24  1  0.67054042  0.67059991  1.00275440  1
  Fe  Fe25  1  0.83666402  0.83753797  0.17006543  1
  Ni  Ni26  1  0.67071282  0.67162515  0.33770765  1
  Ni  Ni27  1  0.16914173  0.16995941  0.50337365  1
  Fe  Fe28  1  1.00310788  0.00362306  0.67005133  1
  Fe  Fe29  1  0.17035590  0.17086691  0.83714226  1
  Fe  Fe30  1  0.16969450  0.50396020  0.50370923  1
  Ni  Ni31  1  1.00347562  0.33848575  0.67044956  1
  Ni  Ni32  1  0.17011471  0.50355935  0.83727221  1
  Ni  Ni33  1  0.17055989  0.83729396  0.50360610  1
  Ni  Ni34  1  1.00315931  0.66846180  0.67006427  1
  Fe  Fe35  1  0.17022759  0.83625041  0.83727312  1
  Fe  Fe36  1  0.50327400  0.16855198  0.50346447  1
  Ni  Ni37  1  0.33890384  0.00371109  0.67002194  1
  Ni  Ni38  1  0.50378365  0.17009213  0.83675958  1
  Ni  Ni39  1  0.50329952  0.50454693  0.50315989  1
  Fe  Fe40  1  0.33666711  0.33673408  0.67038400  1
  Ni  Ni41  1  0.50298970  0.50386625  0.83806066  1
  Ni  Ni42  1  0.50300779  0.83545279  0.50338267  1
  Fe  Fe43  1  0.33689168  0.67060943  0.67016313  1
  Ni  Ni44  1  0.50346612  0.83671859  0.83696250  1
  Ni  Ni45  1  0.83823547  0.17025411  0.50318614  1
  Ni  Ni46  1  0.66864045  1.00339492  0.67037106  1
  Ni  Ni47  1  0.83705026  0.17044485  0.83750587  1
  Fe  Fe48  1  0.83770800  0.50431169  0.50326953  1
  Fe  Fe49  1  0.67067440  0.33644335  0.67113956  1
  Ni  Ni50  1  0.83757135  0.50324402  0.83644995  1
  Ni  Ni51  1  0.83711027  0.83729594  0.50265483  1
  Fe  Fe52  1  0.67038446  0.67083643  0.67032056  1
  Ni  Ni53  1  0.83674098  0.83698773  0.83770833  1
" 