4833,Ni28Fe9Cr61_8,-214.690312734366, 156.094591700056,Ni28Fe9Cr61,"# generated using pymatgen
 data_Cr34(FeNi3)5
_symmetry_space_group_name_H-M   'P 1'
_cell_length_a   7.54145844
_cell_length_b   7.54145844
_cell_length_c   10.66523281
_cell_angle_alpha   90.00000000
_cell_angle_beta   90.00000000
_cell_angle_gamma   90.00000000
_symmetry_Int_Tables_number   1
_chemical_formula_structural   Cr34(FeNi3)5
_chemical_formula_sum   'Cr34 Fe5 Ni15'
_cell_volume   606.57013651
_cell_formula_units_Z   1
loop_
 _symmetry_equiv_pos_site_id
 _symmetry_equiv_pos_as_xyz
  1  'x, y, z'
loop_
 _atom_site_type_symbol
 _atom_site_label
 _atom_site_symmetry_multiplicity
 _atom_site_fract_x
 _atom_site_fract_y
 _atom_site_fract_z
 _atom_site_occupancy
  Fe  Fe0  1  -0.00332044  -0.00411309  0.99407322  1
  Cr  Cr1  1  0.16114721  0.16067096  0.16334256  1
  Cr  Cr2  1  0.99502809  0.99467346  0.32639209  1
  Cr  Cr3  1  0.99426361  0.32775453  0.99329247  1
  Cr  Cr4  1  0.16268643  0.49510402  0.16051562  1
  Cr  Cr5  1  0.99476597  0.32894248  0.32907370  1
  Ni  Ni6  1  0.00082861  0.66358370  0.99461085  1
  Ni  Ni7  1  0.16080821  0.82796509  0.15783260  1
  Cr  Cr8  1  -0.00346468  0.66167050  0.32785405  1
  Cr  Cr9  1  0.32755577  0.99455079  0.99455877  1
  Ni  Ni10  1  0.49772320  0.16228454  0.16269708  1
  Cr  Cr11  1  0.33012431  0.99499737  0.32617622  1
  Cr  Cr12  1  0.33004542  0.32581039  0.99497595  1
  Cr  Cr13  1  0.49407603  0.49382933  0.16002366  1
  Fe  Fe14  1  0.32946905  0.32700219  0.32749142  1
  Ni  Ni15  1  0.32116239  0.66307027  0.99314598  1
  Cr  Cr16  1  0.49482114  0.82836519  0.16143205  1
  Cr  Cr17  1  0.32602518  0.66258537  0.32754230  1
  Cr  Cr18  1  0.66036091  0.00035546  0.99419948  1
  Ni  Ni19  1  0.82641271  0.16067965  0.16048424  1
  Ni  Ni20  1  0.66143900  -0.00235950  0.32689962  1
  Ni  Ni21  1  0.66284005  0.32301443  0.99468147  1
  Cr  Cr22  1  0.82841007  0.49487369  0.15939605  1
  Cr  Cr23  1  0.66214391  0.32627077  0.32613889  1
  Cr  Cr24  1  0.66139183  0.66050058  0.99416125  1
  Cr  Cr25  1  0.82998547  0.83041190  0.16058715  1
  Fe  Fe26  1  0.66145303  0.66343373  0.32781569  1
  Cr  Cr27  1  0.16263667  0.16239396  0.49768181  1
  Fe  Fe28  1  -0.00223522  -0.00390988  0.66510084  1
  Ni  Ni29  1  0.16172261  0.16106015  0.82547278  1
  Cr  Cr30  1  0.16386669  0.49095082  0.49676236  1
  Fe  Fe31  1  -0.00205474  0.32695532  0.66547615  1
  Ni  Ni32  1  0.16284955  0.49513655  0.82776905  1
  Cr  Cr33  1  0.16256701  0.83159409  0.49774989  1
  Cr  Cr34  1  -0.00320800  0.66056650  0.66219953  1
  Ni  Ni35  1  0.16164751  0.82916348  0.82892569  1
  Cr  Cr36  1  0.49242683  0.16161857  0.49501617  1
  Ni  Ni37  1  0.32575615  -0.00317938  0.66465064  1
  Ni  Ni38  1  0.49345386  0.16298343  0.82778762  1
  Cr  Cr39  1  0.49316393  0.49455122  0.49516674  1
  Ni  Ni40  1  0.32589450  0.32676307  0.66393830  1
  Cr  Cr41  1  0.49181040  0.49453031  0.82959933  1
  Cr  Cr42  1  0.49511072  0.82904112  0.49602551  1
  Ni  Ni43  1  0.32354828  0.66179737  0.66403420  1
  Cr  Cr44  1  0.49186964  0.82820345  0.82654591  1
  Cr  Cr45  1  0.83168450  0.16030058  0.49713463  1
  Cr  Cr46  1  0.66034002  -0.00267365  0.66352100  1
  Ni  Ni47  1  0.83116567  0.16152190  0.82908569  1
  Cr  Cr48  1  0.82851184  0.49454090  0.49503541  1
  Cr  Cr49  1  0.66247469  0.32687096  0.66590291  1
  Cr  Cr50  1  0.83013259  0.49456718  0.83056070  1
  Cr  Cr51  1  0.82742384  0.83035554  0.49340225  1
  Cr  Cr52  1  0.66113851  0.66137959  0.65979595  1
  Cr  Cr53  1  0.83171311  0.83058269  0.82985813  1
" 