2152,Ni28Fe72_12,-242.765043831051, 218.556748823818,Ni28Fe72,"# generated using pymatgen
 data_Fe5Ni13
_symmetry_space_group_name_H-M   'P 1'
_cell_length_a   7.40969157
_cell_length_b   7.40969157
_cell_length_c   10.47888631
_cell_angle_alpha   90.00000000
_cell_angle_beta   90.00000000
_cell_angle_gamma   90.00000000
_symmetry_Int_Tables_number   1
_chemical_formula_structural   Fe5Ni13
_chemical_formula_sum   'Fe15 Ni39'
_cell_volume   575.32784006
_cell_formula_units_Z   3
loop_
 _symmetry_equiv_pos_site_id
 _symmetry_equiv_pos_as_xyz
  1  'x, y, z'
loop_
 _atom_site_type_symbol
 _atom_site_label
 _atom_site_symmetry_multiplicity
 _atom_site_fract_x
 _atom_site_fract_y
 _atom_site_fract_z
 _atom_site_occupancy
  Ni  Ni0  1  1.00360671  0.00421033  1.00365937  1
  Ni  Ni1  1  0.17042166  0.17077371  0.17023554  1
  Ni  Ni2  1  0.00434016  1.00373323  0.33768578  1
  Ni  Ni3  1  0.00512585  0.33646398  0.00445219  1
  Ni  Ni4  1  0.17010236  0.50421964  0.17043835  1
  Fe  Fe5  1  1.00352307  0.33611227  0.33751453  1
  Fe  Fe6  1  0.00397622  0.66988784  1.00336842  1
  Ni  Ni7  1  0.17041871  0.83661407  0.17066013  1
  Fe  Fe8  1  1.00370451  0.67077431  0.33754418  1
  Fe  Fe9  1  0.33802444  0.00400082  0.00404054  1
  Ni  Ni10  1  0.50479965  0.16961252  0.17081531  1
  Ni  Ni11  1  0.33616241  0.00494970  0.33644160  1
  Ni  Ni12  1  0.33646693  0.33851417  0.00411965  1
  Fe  Fe13  1  0.50355230  0.50376966  0.17037199  1
  Ni  Ni14  1  0.33698187  0.33706825  0.33689358  1
  Ni  Ni15  1  0.33798419  0.66939592  1.00376502  1
  Ni  Ni16  1  0.50445236  0.83812437  0.17042371  1
  Fe  Fe17  1  0.33788708  0.67087842  0.33631906  1
  Ni  Ni18  1  0.67156125  1.00270325  0.00458673  1
  Ni  Ni19  1  0.83639081  0.16991387  0.17066098  1
  Ni  Ni20  1  0.67110851  1.00304883  0.33709506  1
  Ni  Ni21  1  0.67002177  0.33797111  1.00363781  1
  Fe  Fe22  1  0.83696302  0.50376928  0.17029279  1
  Ni  Ni23  1  0.66954047  0.33823026  0.33746863  1
  Ni  Ni24  1  0.66949924  0.67093410  0.00410934  1
  Ni  Ni25  1  0.83675000  0.83780559  0.17011872  1
  Ni  Ni26  1  0.67076103  0.67032886  0.33677331  1
  Ni  Ni27  1  0.17038693  0.17039564  0.50410406  1
  Ni  Ni28  1  0.00414207  1.00385208  0.67026883  1
  Fe  Fe29  1  0.17129116  0.17129170  0.83682885  1
  Ni  Ni30  1  0.17002041  0.50410561  0.50458225  1
  Ni  Ni31  1  0.00567077  0.33771196  0.66992794  1
  Ni  Ni32  1  0.16949482  0.50493058  0.83659784  1
  Fe  Fe33  1  0.17016939  0.83798749  0.50419072  1
  Ni  Ni34  1  1.00292153  0.67005155  0.67096584  1
  Ni  Ni35  1  0.17066973  0.83653989  0.83731204  1
  Ni  Ni36  1  0.50443972  0.17003749  0.50375995  1
  Ni  Ni37  1  0.33698513  0.00507005  0.67084623  1
  Ni  Ni38  1  0.50471596  0.16979511  0.83702945  1
  Ni  Ni39  1  0.50413147  0.50376269  0.50433534  1
  Ni  Ni40  1  0.33615496  0.33720327  0.67059662  1
  Ni  Ni41  1  0.50434397  0.50376426  0.83717622  1
  Fe  Fe42  1  0.50447009  0.83753125  0.50386115  1
  Fe  Fe43  1  0.33648717  0.67079435  0.67166616  1
  Ni  Ni44  1  0.50352124  0.83805292  0.83706551  1
  Ni  Ni45  1  0.83678182  0.17036992  0.50409267  1
  Ni  Ni46  1  0.67048520  1.00231058  0.66992757  1
  Fe  Fe47  1  0.83704926  0.17070250  0.83757595  1
  Ni  Ni48  1  0.83745549  0.50379511  0.50367015  1
  Fe  Fe49  1  0.67096015  0.33685320  0.67022871  1
  Ni  Ni50  1  0.83777138  0.50374126  0.83724791  1
  Fe  Fe51  1  0.83697043  0.83728290  0.50360012  1
  Ni  Ni52  1  0.67099893  0.67087017  0.67071732  1
  Fe  Fe53  1  0.83638258  0.83638643  0.83733064  1
" 