4908,Ni28Fe61Cr10_18,-232.833886148062, 197.547018158623,Ni28Fe61Cr10,"# generated using pymatgen
 data_Cr2Fe11Ni5
_symmetry_space_group_name_H-M   'P 1'
_cell_length_a   7.41993548
_cell_length_b   7.41993548
_cell_length_c   10.49337338
_cell_angle_alpha   90.00000000
_cell_angle_beta   90.00000000
_cell_angle_gamma   90.00000000
_symmetry_Int_Tables_number   1
_chemical_formula_structural   Cr2Fe11Ni5
_chemical_formula_sum   'Cr6 Fe33 Ni15'
_cell_volume   577.71731433
_cell_formula_units_Z   3
loop_
 _symmetry_equiv_pos_site_id
 _symmetry_equiv_pos_as_xyz
  1  'x, y, z'
loop_
 _atom_site_type_symbol
 _atom_site_label
 _atom_site_symmetry_multiplicity
 _atom_site_fract_x
 _atom_site_fract_y
 _atom_site_fract_z
 _atom_site_occupancy
  Fe  Fe0  1  1.00140834  0.00434880  0.00367462  1
  Ni  Ni1  1  0.16812780  0.16989340  0.16905509  1
  Ni  Ni2  1  0.00476260  1.00211423  0.33462823  1
  Ni  Ni3  1  0.00434922  0.33533675  1.00258888  1
  Ni  Ni4  1  0.17123673  0.50472590  0.16965668  1
  Fe  Fe5  1  0.00448858  0.33605515  0.33317676  1
  Fe  Fe6  1  1.00161655  0.66626210  1.00274561  1
  Fe  Fe7  1  0.16946119  0.83793468  0.16829862  1
  Fe  Fe8  1  0.00564981  0.67039497  0.33683377  1
  Fe  Fe9  1  0.33727224  0.00544550  0.00357582  1
  Fe  Fe10  1  0.50110286  0.16773169  0.16767146  1
  Ni  Ni11  1  0.33380487  1.00193870  0.33679810  1
  Fe  Fe12  1  0.33493994  0.33726696  0.00326301  1
  Fe  Fe13  1  0.50222157  0.50329211  0.16643450  1
  Cr  Cr14  1  0.33590030  0.33404538  0.33693549  1
  Fe  Fe15  1  0.33663014  0.66710331  1.00300394  1
  Fe  Fe16  1  0.50122127  0.83744675  0.16789184  1
  Fe  Fe17  1  0.33438083  0.67210762  0.33662186  1
  Fe  Fe18  1  0.67091705  1.00287712  1.00266867  1
  Ni  Ni19  1  0.83627669  0.16783279  0.16855901  1
  Fe  Fe20  1  0.66889968  1.00257130  0.33479592  1
  Fe  Fe21  1  0.67131184  0.33666251  1.00203016  1
  Fe  Fe22  1  0.84035447  0.50250399  0.16518983  1
  Cr  Cr23  1  0.67185032  0.33777776  0.33186117  1
  Ni  Ni24  1  0.66915651  0.66964486  1.00135967  1
  Fe  Fe25  1  0.83888574  0.83639826  0.16881837  1
  Cr  Cr26  1  0.67183529  0.66958057  0.33614881  1
  Fe  Fe27  1  0.16955442  0.16668420  0.50435659  1
  Ni  Ni28  1  0.00384158  0.00337668  0.67259792  1
  Ni  Ni29  1  0.17069505  0.17010485  0.83734889  1
  Fe  Fe30  1  0.16574233  0.50418053  0.50445629  1
  Fe  Fe31  1  0.00548257  0.33613379  0.67292918  1
  Ni  Ni32  1  0.17021572  0.50198761  0.83574864  1
  Fe  Fe33  1  0.16846445  0.83764604  0.50463814  1
  Fe  Fe34  1  0.00348285  0.67036777  0.67033062  1
  Cr  Cr35  1  0.17014860  0.83596830  0.83962059  1
  Fe  Fe36  1  0.50390715  0.16705118  0.50525671  1
  Ni  Ni37  1  0.33485074  1.00269808  0.66985803  1
  Fe  Fe38  1  0.50219116  0.17084791  0.83584492  1
  Cr  Cr39  1  0.50144375  0.50375254  0.50659678  1
  Fe  Fe40  1  0.33468053  0.33433624  0.67100711  1
  Fe  Fe41  1  0.50173452  0.50344188  0.83565239  1
  Fe  Fe42  1  0.50274632  0.83973483  0.50421531  1
  Ni  Ni43  1  0.33644289  0.67098941  0.67008317  1
  Fe  Fe44  1  0.50299692  0.83603989  0.83699550  1
  Cr  Cr45  1  0.83753119  0.16914061  0.50323084  1
  Fe  Fe46  1  0.66887277  1.00308483  0.67179942  1
  Fe  Fe47  1  0.83880642  0.17116884  0.83711698  1
  Fe  Fe48  1  0.83806468  0.50423404  0.50655443  1
  Ni  Ni49  1  0.67089496  0.33807339  0.67297816  1
  Ni  Ni50  1  0.83578567  0.50349315  0.83554913  1
  Ni  Ni51  1  0.83736248  0.83808529  0.50427916  1
  Fe  Fe52  1  0.67070514  0.67339737  0.67160335  1
  Fe  Fe53  1  0.83672648  0.83612138  0.83649963  1
" 