5003,Ni28Fe9Cr61_2,-214.278113194473, 150.858447183794,Ni28Fe9Cr61,"# generated using pymatgen
 data_Cr34(FeNi3)5
_symmetry_space_group_name_H-M   'P 1'
_cell_length_a   7.55072893
_cell_length_b   7.55072893
_cell_length_c   10.67834326
_cell_angle_alpha   90.00000000
_cell_angle_beta   90.00000000
_cell_angle_gamma   90.00000000
_symmetry_Int_Tables_number   1
_chemical_formula_structural   Cr34(FeNi3)5
_chemical_formula_sum   'Cr34 Fe5 Ni15'
_cell_volume   608.80980151
_cell_formula_units_Z   1
loop_
 _symmetry_equiv_pos_site_id
 _symmetry_equiv_pos_as_xyz
  1  'x, y, z'
loop_
 _atom_site_type_symbol
 _atom_site_label
 _atom_site_symmetry_multiplicity
 _atom_site_fract_x
 _atom_site_fract_y
 _atom_site_fract_z
 _atom_site_occupancy
  Cr  Cr0  1  -0.00470699  -0.00454629  0.99433984  1
  Fe  Fe1  1  0.16330669  0.16072268  0.16115707  1
  Cr  Cr2  1  -0.00426040  0.99251108  0.33126948  1
  Cr  Cr3  1  0.99380409  0.32953007  0.99182276  1
  Fe  Fe4  1  0.16125461  0.49633870  0.16227596  1
  Cr  Cr5  1  -0.00259372  0.33012050  0.32672349  1
  Cr  Cr6  1  -0.00218421  0.65830655  -0.00548792  1
  Ni  Ni7  1  0.16391336  0.82977670  0.16114073  1
  Fe  Fe8  1  -0.00330907  0.66134153  0.32879729  1
  Ni  Ni9  1  0.32950522  -0.00541326  -0.00208364  1
  Fe  Fe10  1  0.49100487  0.16031728  0.16100287  1
  Cr  Cr11  1  0.32774892  0.99322164  0.32561585  1
  Cr  Cr12  1  0.32732934  0.32895859  -0.00385926  1
  Cr  Cr13  1  0.49458803  0.49414174  0.16470857  1
  Ni  Ni14  1  0.32555133  0.33036806  0.32686148  1
  Cr  Cr15  1  0.32714721  0.66386889  0.99440736  1
  Fe  Fe16  1  0.49432855  0.82681583  0.16072415  1
  Cr  Cr17  1  0.32645926  0.66082293  0.32840043  1
  Cr  Cr18  1  0.65749329  -0.00451082  0.99404433  1
  Cr  Cr19  1  0.82880619  0.16128956  0.16119035  1
  Cr  Cr20  1  0.66006728  0.99287533  0.32815996  1
  Cr  Cr21  1  0.66194022  0.32655462  0.99150846  1
  Cr  Cr22  1  0.82626136  0.49677517  0.16200321  1
  Cr  Cr23  1  0.65822277  0.32759717  0.32787605  1
  Cr  Cr24  1  0.65900415  0.66093982  0.99222074  1
  Cr  Cr25  1  0.82963055  0.82521428  0.16421614  1
  Ni  Ni26  1  0.65992708  0.66156584  0.32976075  1
  Cr  Cr27  1  0.16406581  0.16248843  0.49590021  1
  Cr  Cr28  1  0.99281224  0.99324229  0.65740048  1
  Cr  Cr29  1  0.16402904  0.16063648  0.82689469  1
  Ni  Ni30  1  0.16460656  0.49471988  0.49189783  1
  Cr  Cr31  1  -0.00466952  0.33068567  0.66458736  1
  Ni  Ni32  1  0.16169936  0.49280810  0.82826550  1
  Ni  Ni33  1  0.15913592  0.82410866  0.49271680  1
  Cr  Cr34  1  -0.00294952  0.65902629  0.65892887  1
  Cr  Cr35  1  0.16356293  0.82859567  0.82857919  1
  Cr  Cr36  1  0.49091403  0.16651589  0.49409491  1
  Cr  Cr37  1  0.32996039  0.99206448  0.66128231  1
  Ni  Ni38  1  0.49223826  0.16044035  0.82940200  1
  Ni  Ni39  1  0.49144753  0.49515433  0.49400814  1
  Ni  Ni40  1  0.32762462  0.33125951  0.66024957  1
  Cr  Cr41  1  0.49353891  0.49579087  0.82417791  1
  Cr  Cr42  1  0.49665094  0.82383224  0.49552458  1
  Cr  Cr43  1  0.32722396  0.65931004  0.66040788  1
  Ni  Ni44  1  0.49410547  0.83060914  0.82975536  1
  Cr  Cr45  1  0.82841089  0.15999267  0.49478920  1
  Cr  Cr46  1  0.66116217  0.99395319  0.66221927  1
  Ni  Ni47  1  0.82570329  0.16227281  0.82829056  1
  Cr  Cr48  1  0.82393800  0.49730649  0.49214740  1
  Cr  Cr49  1  0.66016202  0.32785211  0.66372071  1
  Ni  Ni50  1  0.82806387  0.49430564  0.82748810  1
  Ni  Ni51  1  0.82875389  0.82219978  0.49208607  1
  Ni  Ni52  1  0.66111587  0.66072943  0.66083401  1
  Cr  Cr53  1  0.82722431  0.82536656  0.82632581  1
" 