7579,Ni28Fe9Cr61_4,-214.399357084117, 155.912574779939,Ni28Fe9Cr61,"# generated using pymatgen
 data_Cr34(FeNi3)5
_symmetry_space_group_name_H-M   'P 1'
_cell_length_a   7.54484481
_cell_length_b   7.54484481
_cell_length_c   10.67002185
_cell_angle_alpha   90.00000000
_cell_angle_beta   90.00000000
_cell_angle_gamma   90.00000000
_symmetry_Int_Tables_number   1
_chemical_formula_structural   Cr34(FeNi3)5
_chemical_formula_sum   'Cr34 Fe5 Ni15'
_cell_volume   607.38761306
_cell_formula_units_Z   1
loop_
 _symmetry_equiv_pos_site_id
 _symmetry_equiv_pos_as_xyz
  1  'x, y, z'
loop_
 _atom_site_type_symbol
 _atom_site_label
 _atom_site_symmetry_multiplicity
 _atom_site_fract_x
 _atom_site_fract_y
 _atom_site_fract_z
 _atom_site_occupancy
  Cr  Cr0  1  -0.00502681  0.99360151  -0.00298255  1
  Cr  Cr1  1  0.16132786  0.16293384  0.16117812  1
  Cr  Cr2  1  0.99198089  0.99238079  0.32481744  1
  Cr  Cr3  1  0.99250103  0.32728425  -0.00217103  1
  Cr  Cr4  1  0.16298798  0.49675363  0.16433641  1
  Cr  Cr5  1  0.99142043  0.32978576  0.32833721  1
  Cr  Cr6  1  0.99139751  0.66375688  -0.00134412  1
  Ni  Ni7  1  0.16108747  0.82587932  0.16252283  1
  Cr  Cr8  1  0.99268427  0.66252507  0.32977711  1
  Cr  Cr9  1  0.32824666  -0.00496105  -0.00234729  1
  Ni  Ni10  1  0.49942589  0.16018398  0.16312298  1
  Cr  Cr11  1  0.33102494  -0.00478548  0.32436438  1
  Cr  Cr12  1  0.33056446  0.32581419  0.99154575  1
  Cr  Cr13  1  0.49473400  0.49690772  0.16091113  1
  Cr  Cr14  1  0.33126686  0.32832844  0.33279528  1
  Cr  Cr15  1  0.32920343  0.66344093  0.99362487  1
  Fe  Fe16  1  0.49681231  0.82784979  0.16399153  1
  Ni  Ni17  1  0.33041010  0.66174422  0.32929219  1
  Cr  Cr18  1  0.66181443  0.99385953  -0.00202162  1
  Ni  Ni19  1  0.82347301  0.15753139  0.16226714  1
  Ni  Ni20  1  0.66168637  0.99271816  0.32756342  1
  Cr  Cr21  1  0.66162093  0.32956466  -0.00273373  1
  Fe  Fe22  1  0.82587615  0.49660426  0.16322403  1
  Cr  Cr23  1  0.66105538  0.32764262  0.32857487  1
  Ni  Ni24  1  0.66159407  0.66224641  -0.00282216  1
  Ni  Ni25  1  0.82401956  0.82753649  0.16280703  1
  Ni  Ni26  1  0.66144082  0.66284907  0.32833853  1
  Cr  Cr27  1  0.16028608  0.16297156  0.49703581  1
  Ni  Ni28  1  0.99311516  -0.00398994  0.66111988  1
  Fe  Fe29  1  0.15923798  0.16106956  0.82601344  1
  Ni  Ni30  1  0.16207127  0.49501296  0.49446882  1
  Ni  Ni31  1  0.99433831  0.32771587  0.65991688  1
  Cr  Cr32  1  0.16073366  0.49299633  0.82775809  1
  Cr  Cr33  1  0.16122343  0.82755994  0.49325913  1
  Cr  Cr34  1  0.99299996  0.66143068  0.65690619  1
  Cr  Cr35  1  0.16057036  0.82854279  0.82717124  1
  Ni  Ni36  1  0.49791756  0.16185793  0.49433485  1
  Cr  Cr37  1  0.32863296  -0.00446764  0.66210085  1
  Cr  Cr38  1  0.49762810  0.16039256  0.82703915  1
  Ni  Ni39  1  0.49550154  0.49617898  0.49370157  1
  Cr  Cr40  1  0.33033623  0.32856850  0.66038498  1
  Fe  Fe41  1  0.49696937  0.49589781  0.82893004  1
  Cr  Cr42  1  0.49781423  0.82887961  0.49130912  1
  Cr  Cr43  1  0.32995544  0.66021065  0.66000240  1
  Cr  Cr44  1  0.49762408  0.82654314  0.82926003  1
  Cr  Cr45  1  0.82709138  0.15864314  0.49624297  1
  Fe  Fe46  1  0.66260280  -0.00502441  0.65818928  1
  Cr  Cr47  1  0.82981769  0.16128618  0.82478686  1
  Ni  Ni48  1  0.82721143  0.49618703  0.49345588  1
  Cr  Cr49  1  0.66145106  0.33057266  0.65882734  1
  Cr  Cr50  1  0.82777781  0.49499383  0.83134362  1
  Ni  Ni51  1  0.82532823  0.82784281  0.49549509  1
  Cr  Cr52  1  0.66212772  0.66027644  0.66036486  1
  Cr  Cr53  1  0.82660093  0.82946942  0.82520665  1
" 