5305,Ni28Fe61Cr10_17,-233.152931601828, 196.821116613172,Ni28Fe61Cr10,"# generated using pymatgen
 data_Cr2Fe11Ni5
_symmetry_space_group_name_H-M   'P 1'
_cell_length_a   7.42579513
_cell_length_b   7.42579513
_cell_length_c   10.50166019
_cell_angle_alpha   90.00000000
_cell_angle_beta   90.00000000
_cell_angle_gamma   90.00000000
_symmetry_Int_Tables_number   1
_chemical_formula_structural   Cr2Fe11Ni5
_chemical_formula_sum   'Cr6 Fe33 Ni15'
_cell_volume   579.08709746
_cell_formula_units_Z   3
loop_
 _symmetry_equiv_pos_site_id
 _symmetry_equiv_pos_as_xyz
  1  'x, y, z'
loop_
 _atom_site_type_symbol
 _atom_site_label
 _atom_site_symmetry_multiplicity
 _atom_site_fract_x
 _atom_site_fract_y
 _atom_site_fract_z
 _atom_site_occupancy
  Ni  Ni0  1  0.00290447  0.00327897  1.00207740  1
  Ni  Ni1  1  0.17062317  0.17183608  0.16784946  1
  Cr  Cr2  1  0.00294588  0.00352656  0.33650001  1
  Fe  Fe3  1  0.00472573  0.33526669  0.00295313  1
  Fe  Fe4  1  0.16902479  0.50260526  0.16841493  1
  Ni  Ni5  1  1.00139097  0.33610881  0.33420783  1
  Ni  Ni6  1  0.00334558  0.66841795  0.00438809  1
  Fe  Fe7  1  0.16931687  0.83698886  0.16720408  1
  Fe  Fe8  1  0.99983992  0.66915900  0.33389026  1
  Ni  Ni9  1  0.33627086  0.00401235  0.00355990  1
  Fe  Fe10  1  0.50271889  0.16899545  0.16846650  1
  Fe  Fe11  1  0.33836287  0.00326209  0.33429514  1
  Ni  Ni12  1  0.33793986  0.33652038  1.00244307  1
  Fe  Fe13  1  0.50256196  0.50329880  0.17009518  1
  Fe  Fe14  1  0.33901188  0.33569005  0.33340279  1
  Ni  Ni15  1  0.33563004  0.66764187  1.00266998  1
  Fe  Fe16  1  0.50237209  0.83623079  0.16847371  1
  Fe  Fe17  1  0.33741494  0.66984497  0.33441653  1
  Ni  Ni18  1  0.66950714  0.00541136  0.00517659  1
  Fe  Fe19  1  0.83719129  0.16951856  0.16822892  1
  Fe  Fe20  1  0.66863367  1.00256618  0.33481239  1
  Fe  Fe21  1  0.66837243  0.33560076  1.00257495  1
  Fe  Fe22  1  0.83649753  0.50257702  0.17010753  1
  Fe  Fe23  1  0.66933904  0.33650395  0.33650783  1
  Fe  Fe24  1  0.66842587  0.66856927  0.00634675  1
  Ni  Ni25  1  0.83439854  0.83504905  0.16860318  1
  Ni  Ni26  1  0.66770185  0.66915415  0.33692054  1
  Cr  Cr27  1  0.17087841  0.17225942  0.50425785  1
  Fe  Fe28  1  1.00211434  0.00414536  0.67013404  1
  Fe  Fe29  1  0.17017196  0.16906670  0.83731242  1
  Cr  Cr30  1  0.16998666  0.50084570  0.49860809  1
  Ni  Ni31  1  1.00124208  0.33569397  0.67143488  1
  Ni  Ni32  1  0.16870036  0.50079060  0.83779553  1
  Fe  Fe33  1  0.17400090  0.83655015  0.50257114  1
  Cr  Cr34  1  0.00312648  0.66839029  0.66750737  1
  Fe  Fe35  1  0.17093945  0.83595501  0.83818967  1
  Ni  Ni36  1  0.50362266  0.16953009  0.50141913  1
  Fe  Fe37  1  0.33655687  0.00392686  0.67044362  1
  Ni  Ni38  1  0.50253576  0.16975045  0.83698089  1
  Ni  Ni39  1  0.50257052  0.50191581  0.50360831  1
  Fe  Fe40  1  0.33760367  0.33699272  0.67164123  1
  Fe  Fe41  1  0.50234595  0.50168513  0.83621718  1
  Fe  Fe42  1  0.50196469  0.83605059  0.50287302  1
  Fe  Fe43  1  0.33674207  0.66724552  0.67058215  1
  Cr  Cr44  1  0.50508805  0.83700385  0.83820672  1
  Fe  Fe45  1  0.83402870  0.17269293  0.50354641  1
  Fe  Fe46  1  0.66972631  0.00586286  0.66904495  1
  Fe  Fe47  1  0.83502953  0.17100743  0.83700295  1
  Fe  Fe48  1  0.83369972  0.49941437  0.50136235  1
  Fe  Fe49  1  0.66871206  0.33571817  0.66943654  1
  Fe  Fe50  1  0.83557183  0.50062914  0.83746037  1
  Fe  Fe51  1  0.83240156  0.83609574  0.50175583  1
  Fe  Fe52  1  0.66878688  0.66724025  0.66729748  1
  Cr  Cr53  1  0.83537735  0.83589862  0.83871614  1
" 