1433,Ni28Fe61Cr10_3,-232.449167788421, 190.829991400639,Ni28Fe61Cr10,"# generated using pymatgen
 data_Cr2Fe11Ni5
_symmetry_space_group_name_H-M   'P 1'
_cell_length_a   7.42371728
_cell_length_b   7.42371728
_cell_length_c   10.49872165
_cell_angle_alpha   90.00000000
_cell_angle_beta   90.00000000
_cell_angle_gamma   90.00000000
_symmetry_Int_Tables_number   1
_chemical_formula_structural   Cr2Fe11Ni5
_chemical_formula_sum   'Cr6 Fe33 Ni15'
_cell_volume   578.60111919
_cell_formula_units_Z   3
loop_
 _symmetry_equiv_pos_site_id
 _symmetry_equiv_pos_as_xyz
  1  'x, y, z'
loop_
 _atom_site_type_symbol
 _atom_site_label
 _atom_site_symmetry_multiplicity
 _atom_site_fract_x
 _atom_site_fract_y
 _atom_site_fract_z
 _atom_site_occupancy
  Ni  Ni0  1  0.00299189  1.00262782  0.00301287  1
  Fe  Fe1  1  0.16958655  0.16748767  0.16995093  1
  Fe  Fe2  1  0.00538743  0.00323598  0.33477388  1
  Fe  Fe3  1  0.00378553  0.33449526  1.00252654  1
  Cr  Cr4  1  0.16905141  0.50120035  0.17016424  1
  Ni  Ni5  1  0.00335109  0.33728053  0.33666030  1
  Fe  Fe6  1  1.00064368  0.67154890  1.00273888  1
  Fe  Fe7  1  0.16864724  0.83838183  0.17026766  1
  Ni  Ni8  1  0.00327621  0.66914126  0.33662979  1
  Ni  Ni9  1  0.33596263  0.00345102  1.00271734  1
  Fe  Fe10  1  0.50186364  0.16896514  0.16898924  1
  Fe  Fe11  1  0.33487183  0.00294993  0.33636481  1
  Fe  Fe12  1  0.33576799  0.33281749  1.00231305  1
  Fe  Fe13  1  0.50486771  0.50354999  0.17153810  1
  Ni  Ni14  1  0.33648986  0.33577443  0.33693827  1
  Cr  Cr15  1  0.33661668  0.67061413  1.00266092  1
  Ni  Ni16  1  0.50467283  0.83651013  0.16880977  1
  Fe  Fe17  1  0.33734060  0.66968962  0.33701805  1
  Ni  Ni18  1  0.66980073  1.00211241  1.00235197  1
  Fe  Fe19  1  0.83730451  0.16888483  0.16966032  1
  Cr  Cr20  1  0.66818922  1.00284431  0.33472600  1
  Cr  Cr21  1  0.66943149  0.33555264  0.00401759  1
  Fe  Fe22  1  0.83515844  0.50448946  0.17118000  1
  Ni  Ni23  1  0.66891385  0.33857397  0.33665674  1
  Fe  Fe24  1  0.67088282  0.67257180  0.00380646  1
  Ni  Ni25  1  0.83555967  0.83569894  0.16822891  1
  Ni  Ni26  1  0.66940026  0.66744002  0.33535384  1
  Ni  Ni27  1  0.17073797  0.17049255  0.50258657  1
  Fe  Fe28  1  0.00420186  1.00291645  0.67085563  1
  Fe  Fe29  1  0.17001232  0.16936332  0.83635887  1
  Fe  Fe30  1  0.16945524  0.50312759  0.50221962  1
  Fe  Fe31  1  0.00326318  0.33632372  0.66971056  1
  Fe  Fe32  1  0.16935926  0.50182368  0.83579904  1
  Ni  Ni33  1  0.17142451  0.83603962  0.50182700  1
  Fe  Fe34  1  0.00336336  0.66951653  0.66976367  1
  Fe  Fe35  1  0.16928005  0.83756723  0.83560996  1
  Fe  Fe36  1  0.50044679  0.16942370  0.50394465  1
  Fe  Fe37  1  0.33669452  1.00284291  0.66948054  1
  Ni  Ni38  1  0.50226251  0.16892379  0.83565442  1
  Fe  Fe39  1  0.50257204  0.50312942  0.50229148  1
  Fe  Fe40  1  0.33669683  0.33545646  0.66934888  1
  Fe  Fe41  1  0.50284321  0.50237873  0.83492736  1
  Ni  Ni42  1  0.50087633  0.83482204  0.50403062  1
  Fe  Fe43  1  0.33666969  0.67045480  0.66941924  1
  Fe  Fe44  1  0.50382462  0.83791594  0.83576826  1
  Cr  Cr45  1  0.83704293  0.17142298  0.50317947  1
  Ni  Ni46  1  0.66800038  0.00318293  0.67173936  1
  Fe  Fe47  1  0.83620237  0.16838103  0.83557543  1
  Fe  Fe48  1  0.83672910  0.50334551  0.50208154  1
  Fe  Fe49  1  0.66879549  0.33629730  0.67037116  1
  Fe  Fe50  1  0.83655193  0.50311101  0.83549708  1
  Cr  Cr51  1  0.83610016  0.83466587  0.50309568  1
  Fe  Fe52  1  0.66872097  0.66951458  0.66965662  1
  Fe  Fe53  1  0.83564868  0.83726251  0.83674287  1
" 