6595,Ni28Fe72_7,-242.978328842273, 215.033272059628,Ni28Fe72,"# generated using pymatgen
 data_Fe5Ni13
_symmetry_space_group_name_H-M   'P 1'
_cell_length_a   7.41270683
_cell_length_b   7.41270683
_cell_length_c   10.48315054
_cell_angle_alpha   90.00000000
_cell_angle_beta   90.00000000
_cell_angle_gamma   90.00000000
_symmetry_Int_Tables_number   1
_chemical_formula_structural   Fe5Ni13
_chemical_formula_sum   'Fe15 Ni39'
_cell_volume   576.03048901
_cell_formula_units_Z   3
loop_
 _symmetry_equiv_pos_site_id
 _symmetry_equiv_pos_as_xyz
  1  'x, y, z'
loop_
 _atom_site_type_symbol
 _atom_site_label
 _atom_site_symmetry_multiplicity
 _atom_site_fract_x
 _atom_site_fract_y
 _atom_site_fract_z
 _atom_site_occupancy
  Fe  Fe0  1  0.00410234  0.00372954  0.00462342  1
  Ni  Ni1  1  0.17054571  0.17015141  0.17028588  1
  Ni  Ni2  1  1.00341596  1.00332252  0.33683776  1
  Ni  Ni3  1  0.00497214  0.33765384  0.00511962  1
  Ni  Ni4  1  0.17052944  0.50392876  0.16925199  1
  Fe  Fe5  1  1.00353875  0.33785666  0.33705915  1
  Ni  Ni6  1  1.00249647  0.66950558  0.00415357  1
  Ni  Ni7  1  0.16972947  0.83691651  0.16992713  1
  Ni  Ni8  1  1.00311480  0.67123383  0.33706600  1
  Ni  Ni9  1  0.33797712  0.00522654  0.00430366  1
  Ni  Ni10  1  0.50381659  0.17124289  0.16916087  1
  Fe  Fe11  1  0.33674250  1.00336238  0.33721465  1
  Ni  Ni12  1  0.33585157  0.33551105  0.00382687  1
  Ni  Ni13  1  0.50414465  0.50314939  0.17044941  1
  Ni  Ni14  1  0.33731028  0.33657483  0.33704735  1
  Fe  Fe15  1  0.33706672  0.67039435  1.00353715  1
  Fe  Fe16  1  0.50401009  0.83684439  0.16992320  1
  Ni  Ni17  1  0.33681748  0.66967362  0.33655735  1
  Ni  Ni18  1  0.66941915  1.00275053  0.00464271  1
  Ni  Ni19  1  0.83663331  0.17044259  0.17002396  1
  Fe  Fe20  1  0.67058933  1.00355354  0.33727930  1
  Fe  Fe21  1  0.67017763  0.33722246  0.00483585  1
  Ni  Ni22  1  0.83632219  0.50396551  0.16986918  1
  Ni  Ni23  1  0.66964168  0.33688224  0.33674121  1
  Ni  Ni24  1  0.67156479  0.67163104  0.00419798  1
  Ni  Ni25  1  0.83741355  0.83659065  0.16979230  1
  Ni  Ni26  1  0.67106414  0.67029946  0.33706493  1
  Ni  Ni27  1  0.17061127  0.17054077  0.50378231  1
  Fe  Fe28  1  0.00455886  1.00333699  0.66943657  1
  Ni  Ni29  1  0.17003661  0.16971859  0.83692923  1
  Ni  Ni30  1  0.16984099  0.50382584  0.50452445  1
  Ni  Ni31  1  0.00477367  0.33738843  0.66919458  1
  Fe  Fe32  1  0.17094276  0.50377262  0.83671769  1
  Ni  Ni33  1  0.17059799  0.83662924  0.50446185  1
  Ni  Ni34  1  1.00307629  0.66963938  0.66977600  1
  Ni  Ni35  1  0.17080809  0.83776761  0.83660554  1
  Ni  Ni36  1  0.50375076  0.17007868  0.50490777  1
  Ni  Ni37  1  0.33800454  0.00455224  0.66961147  1
  Fe  Fe38  1  0.50227230  0.16930611  0.83706193  1
  Fe  Fe39  1  0.50344365  0.50382020  0.50338861  1
  Ni  Ni40  1  0.33582680  0.33599947  0.67011854  1
  Ni  Ni41  1  0.50445781  0.50432765  0.83640679  1
  Ni  Ni42  1  0.50376178  0.83709471  0.50383676  1
  Ni  Ni43  1  0.33693906  0.67044184  0.67063942  1
  Ni  Ni44  1  0.50340137  0.83594342  0.83741886  1
  Ni  Ni45  1  0.83663392  0.17083333  0.50396863  1
  Ni  Ni46  1  0.66959239  1.00285595  0.66958080  1
  Fe  Fe47  1  0.83697513  0.16987617  0.83699882  1
  Ni  Ni48  1  0.83709684  0.50383662  0.50389155  1
  Fe  Fe49  1  0.67000299  0.33746178  0.66944053  1
  Fe  Fe50  1  0.83752677  0.50461861  0.83699748  1
  Ni  Ni51  1  0.83663827  0.83632936  0.50458293  1
  Ni  Ni52  1  0.67098192  0.67181579  0.66973265  1
  Fe  Fe53  1  0.83636985  0.83650297  0.83712632  1
" 