6343,Ni28Fe72_19,-242.759119597814, 217.863040059083,Ni28Fe72,"# generated using pymatgen
 data_Fe5Ni13
_symmetry_space_group_name_H-M   'P 1'
_cell_length_a   7.41124082
_cell_length_b   7.41124082
_cell_length_c   10.48107729
_cell_angle_alpha   90.00000000
_cell_angle_beta   90.00000000
_cell_angle_gamma   90.00000000
_symmetry_Int_Tables_number   1
_chemical_formula_structural   Fe5Ni13
_chemical_formula_sum   'Fe15 Ni39'
_cell_volume   575.68879244
_cell_formula_units_Z   3
loop_
 _symmetry_equiv_pos_site_id
 _symmetry_equiv_pos_as_xyz
  1  'x, y, z'
loop_
 _atom_site_type_symbol
 _atom_site_label
 _atom_site_symmetry_multiplicity
 _atom_site_fract_x
 _atom_site_fract_y
 _atom_site_fract_z
 _atom_site_occupancy
  Ni  Ni0  1  1.00294718  1.00341506  0.00428171  1
  Ni  Ni1  1  0.17102542  0.17064518  0.17072327  1
  Fe  Fe2  1  1.00361747  0.00404140  0.33701882  1
  Ni  Ni3  1  1.00327719  0.33728593  1.00357482  1
  Ni  Ni4  1  0.17101886  0.50354839  0.17030321  1
  Fe  Fe5  1  1.00355248  0.33731181  0.33655797  1
  Ni  Ni6  1  0.00431264  0.67059434  0.00397652  1
  Fe  Fe7  1  0.17030566  0.83709918  0.17046108  1
  Fe  Fe8  1  0.00376923  0.66994110  0.33716401  1
  Ni  Ni9  1  0.33712447  1.00374920  1.00357433  1
  Ni  Ni10  1  0.50317124  0.17033355  0.17050230  1
  Ni  Ni11  1  0.33681141  0.00383208  0.33739299  1
  Ni  Ni12  1  0.33743848  0.33758956  0.00440540  1
  Ni  Ni13  1  0.50285630  0.50353605  0.17082040  1
  Ni  Ni14  1  0.33709369  0.33749150  0.33662111  1
  Ni  Ni15  1  0.33606012  0.66995494  0.00407259  1
  Fe  Fe16  1  0.50397829  0.83731214  0.17090161  1
  Ni  Ni17  1  0.33648485  0.66997399  0.33721251  1
  Ni  Ni18  1  0.67122099  0.00478980  0.00397710  1
  Ni  Ni19  1  0.83709957  0.16988864  0.16989315  1
  Ni  Ni20  1  0.67110217  0.00415757  0.33718672  1
  Ni  Ni21  1  0.67057925  0.33622355  0.00407078  1
  Ni  Ni22  1  0.83741924  0.50398948  0.17020767  1
  Ni  Ni23  1  0.67051126  0.33686032  0.33708237  1
  Fe  Fe24  1  0.67070593  0.67028465  1.00355140  1
  Ni  Ni25  1  0.83711334  0.83741750  0.17101763  1
  Ni  Ni26  1  0.67079500  0.67027780  0.33706801  1
  Fe  Fe27  1  0.17036317  0.17037164  0.50331798  1
  Ni  Ni28  1  1.00266922  1.00282881  0.67035886  1
  Fe  Fe29  1  0.17049279  0.17036825  0.83797298  1
  Ni  Ni30  1  0.17027894  0.50465117  0.50397481  1
  Fe  Fe31  1  1.00267765  0.33775889  0.67041808  1
  Fe  Fe32  1  0.17076936  0.50404106  0.83724594  1
  Ni  Ni33  1  0.17207689  0.83637573  0.50378047  1
  Ni  Ni34  1  0.00405034  0.67148498  0.67004156  1
  Fe  Fe35  1  0.17015105  0.83688577  0.83679523  1
  Fe  Fe36  1  0.50389008  0.17067064  0.50348649  1
  Fe  Fe37  1  0.33791244  1.00282575  0.67030484  1
  Ni  Ni38  1  0.50363942  0.16998008  0.83681644  1
  Fe  Fe39  1  0.50364391  0.50419663  0.50376084  1
  Ni  Ni40  1  0.33771427  0.33805119  0.67026901  1
  Ni  Ni41  1  0.50329963  0.50398100  0.83648445  1
  Ni  Ni42  1  0.50246185  0.83743802  0.50385841  1
  Ni  Ni43  1  0.33635349  0.66938729  0.67001320  1
  Ni  Ni44  1  0.50331687  0.83733159  0.83741953  1
  Ni  Ni45  1  0.83675467  0.17101005  0.50377946  1
  Ni  Ni46  1  0.67196314  0.00419316  0.67013146  1
  Ni  Ni47  1  0.83706631  0.17024639  0.83762121  1
  Ni  Ni48  1  0.83781747  0.50282644  0.50385842  1
  Ni  Ni49  1  0.66986523  0.33666721  0.67013816  1
  Ni  Ni50  1  0.83738724  0.50369790  0.83722449  1
  Fe  Fe51  1  0.83731257  0.83670880  0.50418574  1
  Ni  Ni52  1  0.67089195  0.67043512  0.67055544  1
  Ni  Ni53  1  0.83709883  0.83735225  0.83587755  1
" 