7387,Ni28Fe61Cr10_12,-232.584604499588, 198.006031606905,Ni28Fe61Cr10,"# generated using pymatgen
 data_Cr2Fe11Ni5
_symmetry_space_group_name_H-M   'P 1'
_cell_length_a   7.41773273
_cell_length_b   7.41773273
_cell_length_c   10.49025823
_cell_angle_alpha   90.00000000
_cell_angle_beta   90.00000000
_cell_angle_gamma   90.00000000
_symmetry_Int_Tables_number   1
_chemical_formula_structural   Cr2Fe11Ni5
_chemical_formula_sum   'Cr6 Fe33 Ni15'
_cell_volume   577.20294847
_cell_formula_units_Z   3
loop_
 _symmetry_equiv_pos_site_id
 _symmetry_equiv_pos_as_xyz
  1  'x, y, z'
loop_
 _atom_site_type_symbol
 _atom_site_label
 _atom_site_symmetry_multiplicity
 _atom_site_fract_x
 _atom_site_fract_y
 _atom_site_fract_z
 _atom_site_occupancy
  Ni  Ni0  1  1.00172460  1.00311678  1.00323129  1
  Cr  Cr1  1  0.17018657  0.16730138  0.17068214  1
  Fe  Fe2  1  1.00329140  1.00274220  0.33574233  1
  Fe  Fe3  1  1.00303035  0.33662445  1.00315760  1
  Fe  Fe4  1  0.16938784  0.50379647  0.17111631  1
  Ni  Ni5  1  0.00466994  0.33821471  0.33731181  1
  Fe  Fe6  1  0.00399831  0.67151302  0.00388246  1
  Ni  Ni7  1  0.17201263  0.83643082  0.16969122  1
  Ni  Ni8  1  1.00309027  0.66848097  0.33516057  1
  Ni  Ni9  1  0.33759253  1.00207037  1.00091217  1
  Fe  Fe10  1  0.50291713  0.16945787  0.16906282  1
  Ni  Ni11  1  0.33886013  0.00431899  0.33780660  1
  Fe  Fe12  1  0.33725975  0.33620704  0.00337389  1
  Fe  Fe13  1  0.50295967  0.50307517  0.17028533  1
  Ni  Ni14  1  0.33603323  0.33826554  0.33717703  1
  Ni  Ni15  1  0.33623824  0.66795241  0.00417571  1
  Fe  Fe16  1  0.50207708  0.83758713  0.16786595  1
  Fe  Fe17  1  0.33704355  0.66872088  0.33439247  1
  Ni  Ni18  1  0.67060103  0.00354468  1.00276033  1
  Ni  Ni19  1  0.83571783  0.17248932  0.16989740  1
  Cr  Cr20  1  0.67007353  1.00207876  0.33686317  1
  Fe  Fe21  1  0.66959701  0.33619971  0.00332499  1
  Fe  Fe22  1  0.83763362  0.50340037  0.17016983  1
  Fe  Fe23  1  0.66887400  0.33787647  0.33483651  1
  Fe  Fe24  1  0.66917191  0.67175566  1.00320610  1
  Fe  Fe25  1  0.83863966  0.83709956  0.16974560  1
  Ni  Ni26  1  0.66957298  0.67030949  0.33594474  1
  Fe  Fe27  1  0.17009546  0.17233612  0.50178460  1
  Cr  Cr28  1  1.00261998  0.00387233  0.66976985  1
  Fe  Fe29  1  0.17066654  0.17046428  0.83832559  1
  Ni  Ni30  1  0.17102035  0.50294211  0.50339032  1
  Fe  Fe31  1  0.00417042  0.33779555  0.67074914  1
  Fe  Fe32  1  0.17041085  0.50412179  0.83617952  1
  Cr  Cr33  1  0.17097539  0.83565717  0.50113761  1
  Fe  Fe34  1  1.00317617  0.66842968  0.67036813  1
  Fe  Fe35  1  0.17021491  0.83528299  0.83890372  1
  Fe  Fe36  1  0.50122558  0.17205015  0.50311033  1
  Fe  Fe37  1  0.33700588  0.00413549  0.67112842  1
  Fe  Fe38  1  0.50331036  0.17101417  0.83778365  1
  Fe  Fe39  1  0.50153636  0.50474264  0.50284695  1
  Fe  Fe40  1  0.33640971  0.33633935  0.66907601  1
  Fe  Fe41  1  0.50388512  0.50448836  0.83723961  1
  Fe  Fe42  1  0.50333002  0.83296341  0.50383173  1
  Fe  Fe43  1  0.33702194  0.66943221  0.67182381  1
  Ni  Ni44  1  0.50188921  0.83672793  0.83712802  1
  Fe  Fe45  1  0.83872818  0.17092842  0.50129429  1
  Cr  Cr46  1  0.66997015  1.00263297  0.66967772  1
  Fe  Fe47  1  0.83584484  0.17123594  0.83954231  1
  Cr  Cr48  1  0.83599505  0.50341434  0.50267333  1
  Fe  Fe49  1  0.66953690  0.33709255  0.67163668  1
  Ni  Ni50  1  0.83656803  0.50259924  0.83724505  1
  Ni  Ni51  1  0.83646972  0.83488941  0.50231514  1
  Fe  Fe52  1  0.66958814  0.66927101  0.67079636  1
  Fe  Fe53  1  0.83558245  0.83401267  0.83796826  1
" 