6610,Ni28Fe9Cr61_6,-214.567649345546, 156.462268612001,Ni28Fe9Cr61,"# generated using pymatgen
 data_Cr34(FeNi3)5
_symmetry_space_group_name_H-M   'P 1'
_cell_length_a   7.54005398
_cell_length_b   7.54005398
_cell_length_c   10.66324659
_cell_angle_alpha   90.00000000
_cell_angle_beta   90.00000000
_cell_angle_gamma   90.00000000
_symmetry_Int_Tables_number   1
_chemical_formula_structural   Cr34(FeNi3)5
_chemical_formula_sum   'Cr34 Fe5 Ni15'
_cell_volume   606.23130935
_cell_formula_units_Z   1
loop_
 _symmetry_equiv_pos_site_id
 _symmetry_equiv_pos_as_xyz
  1  'x, y, z'
loop_
 _atom_site_type_symbol
 _atom_site_label
 _atom_site_symmetry_multiplicity
 _atom_site_fract_x
 _atom_site_fract_y
 _atom_site_fract_z
 _atom_site_occupancy
  Cr  Cr0  1  0.99170569  -0.00417765  0.99360774  1
  Cr  Cr1  1  0.16278882  0.16111160  0.16427381  1
  Cr  Cr2  1  0.99168436  -0.00353659  0.32756458  1
  Cr  Cr3  1  0.99355003  0.32451611  -0.00327795  1
  Cr  Cr4  1  0.16000652  0.49476865  0.16472800  1
  Ni  Ni5  1  0.99457177  0.32536195  0.32976054  1
  Cr  Cr6  1  0.99495358  0.66575288  -0.00399440  1
  Cr  Cr7  1  0.16645496  0.82968392  0.16099062  1
  Cr  Cr8  1  0.99476899  0.66240461  0.33141165  1
  Cr  Cr9  1  0.32908529  0.99373736  0.99298642  1
  Cr  Cr10  1  0.49485236  0.15692824  0.16501592  1
  Ni  Ni11  1  0.33170607  0.99438081  0.33137837  1
  Cr  Cr12  1  0.33068751  0.32983586  -0.00430158  1
  Cr  Cr13  1  0.49708668  0.49832140  0.15829367  1
  Cr  Cr14  1  0.32863959  0.32820174  0.33182361  1
  Cr  Cr15  1  0.33102885  0.66185228  0.99208844  1
  Ni  Ni16  1  0.49827722  0.83008977  0.16278877  1
  Cr  Cr17  1  0.33102668  0.66123875  0.33195390  1
  Cr  Cr18  1  0.66436485  -0.00448331  -0.00195606  1
  Ni  Ni19  1  0.82777766  0.16080018  0.16312629  1
  Fe  Fe20  1  0.66001150  0.99509075  0.33011514  1
  Cr  Cr21  1  0.66134211  0.32655301  0.99248452  1
  Cr  Cr22  1  0.82853108  0.49511867  0.16191669  1
  Cr  Cr23  1  0.66043715  0.32629925  0.33039613  1
  Fe  Fe24  1  0.66056641  0.66474664  0.99446965  1
  Fe  Fe25  1  0.82551958  0.83037765  0.16360746  1
  Cr  Cr26  1  0.66021377  0.66532040  0.32963887  1
  Ni  Ni27  1  0.16401637  0.16311735  0.49501570  1
  Cr  Cr28  1  -0.00480465  -0.00358456  0.66435415  1
  Cr  Cr29  1  0.16243364  0.16118436  0.82639798  1
  Ni  Ni30  1  0.16107019  0.49009560  0.49447691  1
  Ni  Ni31  1  0.99487048  0.32665952  0.66045286  1
  Cr  Cr32  1  0.15955140  0.49529677  0.82795908  1
  Cr  Cr33  1  0.16397535  0.83242961  0.49743941  1
  Cr  Cr34  1  -0.00328522  0.66320664  0.65830367  1
  Fe  Fe35  1  0.16439494  0.82982145  0.82642555  1
  Ni  Ni36  1  0.49217921  0.15840539  0.49556445  1
  Ni  Ni37  1  0.33073963  0.99432142  0.66067861  1
  Cr  Cr38  1  0.49630074  0.15895271  0.82541193  1
  Ni  Ni39  1  0.49512967  0.49440621  0.49807123  1
  Cr  Cr40  1  0.33063536  0.32849105  0.65792073  1
  Fe  Fe41  1  0.49734389  0.49538150  0.82637660  1
  Ni  Ni42  1  0.49530923  0.83250195  0.49398386  1
  Cr  Cr43  1  0.33035967  0.66259445  0.66115326  1
  Ni  Ni44  1  0.49383151  0.82756398  0.82877332  1
  Cr  Cr45  1  0.82784788  0.16302181  0.49737481  1
  Cr  Cr46  1  0.66088611  -0.00418584  0.65860534  1
  Ni  Ni47  1  0.82769699  0.16414761  0.82645748  1
  Cr  Cr48  1  0.82958506  0.49448240  0.49756616  1
  Ni  Ni49  1  0.66136129  0.32755380  0.66216410  1
  Cr  Cr50  1  0.82721628  0.49328673  0.82602516  1
  Ni  Ni51  1  0.82419985  0.82975197  0.49285987  1
  Cr  Cr52  1  0.65864362  0.66209858  0.65986089  1
  Cr  Cr53  1  0.82544568  0.82727586  0.82800933  1
" 