8101,Ni28Fe61Cr10_7,-232.817458879036, 199.868540722716,Ni28Fe61Cr10,"# generated using pymatgen
 data_Cr2Fe11Ni5
_symmetry_space_group_name_H-M   'P 1'
_cell_length_a   7.42008526
_cell_length_b   7.42008526
_cell_length_c   10.49358521
_cell_angle_alpha   90.00000000
_cell_angle_beta   90.00000000
_cell_angle_gamma   90.00000000
_symmetry_Int_Tables_number   1
_chemical_formula_structural   Cr2Fe11Ni5
_chemical_formula_sum   'Cr6 Fe33 Ni15'
_cell_volume   577.75230149
_cell_formula_units_Z   3
loop_
 _symmetry_equiv_pos_site_id
 _symmetry_equiv_pos_as_xyz
  1  'x, y, z'
loop_
 _atom_site_type_symbol
 _atom_site_label
 _atom_site_symmetry_multiplicity
 _atom_site_fract_x
 _atom_site_fract_y
 _atom_site_fract_z
 _atom_site_occupancy
  Cr  Cr0  1  1.00190953  0.00455606  0.00356573  1
  Ni  Ni1  1  0.17136261  0.17069311  0.17147323  1
  Fe  Fe2  1  0.00333575  0.00404159  0.33634769  1
  Fe  Fe3  1  1.00050681  0.33518491  0.00384241  1
  Cr  Cr4  1  0.16805567  0.50197977  0.16822764  1
  Ni  Ni5  1  0.99960542  0.33570589  0.33744900  1
  Fe  Fe6  1  0.99951788  0.67229770  1.00241606  1
  Fe  Fe7  1  0.16910471  0.83667651  0.17160194  1
  Fe  Fe8  1  1.00136779  0.66867381  0.33817974  1
  Cr  Cr9  1  0.33640702  0.99949385  1.00268636  1
  Ni  Ni10  1  0.50404604  0.16725141  0.16953983  1
  Ni  Ni11  1  0.33790489  1.00200824  0.33595492  1
  Fe  Fe12  1  0.34036391  0.33369287  0.00348764  1
  Fe  Fe13  1  0.50511526  0.50009066  0.16796297  1
  Fe  Fe14  1  0.33569180  0.33339252  0.33763913  1
  Ni  Ni15  1  0.33781233  0.66944994  1.00277182  1
  Fe  Fe16  1  0.50581598  0.83592496  0.16956284  1
  Cr  Cr17  1  0.34023346  0.66910858  0.33734632  1
  Ni  Ni18  1  0.67083577  0.00525536  1.00311013  1
  Fe  Fe19  1  0.83571397  0.17393615  0.17083303  1
  Fe  Fe20  1  0.66978420  0.00382618  0.33604304  1
  Ni  Ni21  1  0.67186345  0.33816088  0.00319598  1
  Ni  Ni22  1  0.83634077  0.50598024  0.16903353  1
  Fe  Fe23  1  0.66771352  0.33746116  0.33496336  1
  Fe  Fe24  1  0.66935122  0.67305389  1.00304476  1
  Fe  Fe25  1  0.83570622  0.83833543  0.17200491  1
  Fe  Fe26  1  0.67231052  0.67008111  0.33751805  1
  Fe  Fe27  1  0.16847986  0.16814623  0.50210964  1
  Ni  Ni28  1  1.00277600  0.00409427  0.66963003  1
  Fe  Fe29  1  0.17023939  0.16782202  0.83440023  1
  Ni  Ni30  1  0.16828297  0.49883534  0.50331803  1
  Ni  Ni31  1  1.00128651  0.33588161  0.66949451  1
  Cr  Cr32  1  0.16691329  0.50061793  0.83925615  1
  Cr  Cr33  1  0.16865016  0.83416418  0.50493523  1
  Ni  Ni34  1  1.00177269  0.66810038  0.66892036  1
  Fe  Fe35  1  0.17081558  0.83499422  0.83323495  1
  Fe  Fe36  1  0.50341047  0.16934025  0.50207548  1
  Fe  Fe37  1  0.33705054  0.00434065  0.66997665  1
  Fe  Fe38  1  0.50517530  0.17186617  0.83699356  1
  Fe  Fe39  1  0.50411912  0.50443762  0.50537534  1
  Fe  Fe40  1  0.33418708  0.33575138  0.66846472  1
  Fe  Fe41  1  0.50409012  0.50499577  0.83691687  1
  Ni  Ni42  1  0.50610439  0.83903695  0.50473841  1
  Fe  Fe43  1  0.33662377  0.66840417  0.67047637  1
  Ni  Ni44  1  0.50644571  0.83851881  0.83497138  1
  Fe  Fe45  1  0.83622794  0.16929087  0.50371523  1
  Fe  Fe46  1  0.67225004  0.00416289  0.67064178  1
  Fe  Fe47  1  0.83497717  0.17091513  0.83535846  1
  Fe  Fe48  1  0.83621898  0.50438780  0.50252262  1
  Fe  Fe49  1  0.67097526  0.33711008  0.67036092  1
  Fe  Fe50  1  0.83308009  0.50402254  0.83682076  1
  Ni  Ni51  1  0.83420075  0.83819821  0.50339828  1
  Fe  Fe52  1  0.67184058  0.67052121  0.66888096  1
  Fe  Fe53  1  0.83691498  0.83661582  0.83409633  1
" 