5136,Ni28Fe9Cr61_0,-214.50368937463, 157.488958533611,Ni28Fe9Cr61,"# generated using pymatgen
 data_Cr34(FeNi3)5
_symmetry_space_group_name_H-M   'P 1'
_cell_length_a   7.54197726
_cell_length_b   7.54197726
_cell_length_c   10.66596652
_cell_angle_alpha   90.00000000
_cell_angle_beta   90.00000000
_cell_angle_gamma   90.00000000
_symmetry_Int_Tables_number   1
_chemical_formula_structural   Cr34(FeNi3)5
_chemical_formula_sum   'Cr34 Fe5 Ni15'
_cell_volume   606.69533174
_cell_formula_units_Z   1
loop_
 _symmetry_equiv_pos_site_id
 _symmetry_equiv_pos_as_xyz
  1  'x, y, z'
loop_
 _atom_site_type_symbol
 _atom_site_label
 _atom_site_symmetry_multiplicity
 _atom_site_fract_x
 _atom_site_fract_y
 _atom_site_fract_z
 _atom_site_occupancy
  Ni  Ni0  1  0.98966938  -0.00274127  -0.00151423  1
  Cr  Cr1  1  0.16135314  0.16189007  0.16259377  1
  Cr  Cr2  1  0.99338532  0.99495221  0.33098166  1
  Ni  Ni3  1  0.99186780  0.32330920  -0.00348632  1
  Cr  Cr4  1  0.16197908  0.49300195  0.16142554  1
  Ni  Ni5  1  0.99428181  0.32649953  0.32798993  1
  Cr  Cr6  1  0.99274146  0.66050187  -0.00329623  1
  Cr  Cr7  1  0.15880060  0.83073903  0.15923236  1
  Cr  Cr8  1  0.99365450  0.66511517  0.32905259  1
  Cr  Cr9  1  0.33210894  0.99496809  -0.00410879  1
  Ni  Ni10  1  0.49840432  0.16248803  0.16318042  1
  Cr  Cr11  1  0.32845493  -0.00456761  0.33178269  1
  Cr  Cr12  1  0.32990622  0.32736370  0.99342839  1
  Cr  Cr13  1  0.49514968  0.49336318  0.16703088  1
  Ni  Ni14  1  0.32869168  0.32613297  0.32883133  1
  Cr  Cr15  1  0.33015610  0.66288078  0.99349575  1
  Cr  Cr16  1  0.49731832  0.82985154  0.16123054  1
  Cr  Cr17  1  0.32728460  0.66557717  0.32866263  1
  Fe  Fe18  1  0.66378109  -0.00472000  -0.00355005  1
  Ni  Ni19  1  0.82749335  0.16001258  0.16104839  1
  Cr  Cr20  1  0.66358612  0.99480666  0.32656132  1
  Cr  Cr21  1  0.66429131  0.32595849  -0.00347403  1
  Cr  Cr22  1  0.82841415  0.49450932  0.16534056  1
  Fe  Fe23  1  0.66385962  0.32468383  0.32739984  1
  Cr  Cr24  1  0.66139162  0.66243936  0.99438339  1
  Ni  Ni25  1  0.82661793  0.83221003  0.16026166  1
  Fe  Fe26  1  0.66372124  0.66509074  0.32882270  1
  Ni  Ni27  1  0.16176837  0.16059930  0.49520759  1
  Ni  Ni28  1  0.99248876  0.99092090  0.65722375  1
  Cr  Cr29  1  0.15945214  0.15925084  0.82653880  1
  Cr  Cr30  1  0.16218983  0.49315534  0.49386238  1
  Cr  Cr31  1  -0.00414130  0.32786331  0.66096152  1
  Cr  Cr32  1  0.16011576  0.49410662  0.82919312  1
  Ni  Ni33  1  0.15779995  0.82970963  0.49764036  1
  Ni  Ni34  1  0.99359544  0.66630533  0.65962576  1
  Cr  Cr35  1  0.15870487  0.83180784  0.83009507  1
  Cr  Cr36  1  0.49489428  0.16326970  0.49483320  1
  Cr  Cr37  1  0.32827458  0.99503228  0.65773026  1
  Cr  Cr38  1  0.49672563  0.15819401  0.82698376  1
  Cr  Cr39  1  0.49657395  0.49581111  0.49215001  1
  Ni  Ni40  1  0.32851142  0.32828421  0.65987450  1
  Cr  Cr41  1  0.49584368  0.49638862  0.82528206  1
  Fe  Fe42  1  0.49773824  0.82883013  0.49645191  1
  Cr  Cr43  1  0.32683674  0.66353941  0.66288624  1
  Ni  Ni44  1  0.49846021  0.83038778  0.82594642  1
  Cr  Cr45  1  0.82900021  0.15917318  0.49657960  1
  Ni  Ni46  1  0.66283641  0.98991024  0.66185066  1
  Cr  Cr47  1  0.83005675  0.15695517  0.82897696  1
  Cr  Cr48  1  0.82659363  0.49814915  0.49436976  1
  Cr  Cr49  1  0.66172658  0.32628154  0.66279367  1
  Cr  Cr50  1  0.82979277  0.49718757  0.82553419  1
  Ni  Ni51  1  0.82691166  0.82784303  0.49810632  1
  Fe  Fe52  1  0.66220180  0.66542811  0.66054355  1
  Cr  Cr53  1  0.82843793  0.83105366  0.82720652  1
" 