8090,Ni28Fe9Cr61_16,-214.538845397947, 155.727887318327,Ni28Fe9Cr61,"# generated using pymatgen
 data_Cr34(FeNi3)5
_symmetry_space_group_name_H-M   'P 1'
_cell_length_a   7.54299207
_cell_length_b   7.54299207
_cell_length_c   10.66740169
_cell_angle_alpha   90.00000000
_cell_angle_beta   90.00000000
_cell_angle_gamma   90.00000000
_symmetry_Int_Tables_number   1
_chemical_formula_structural   Cr34(FeNi3)5
_chemical_formula_sum   'Cr34 Fe5 Ni15'
_cell_volume   606.94026761
_cell_formula_units_Z   1
loop_
 _symmetry_equiv_pos_site_id
 _symmetry_equiv_pos_as_xyz
  1  'x, y, z'
loop_
 _atom_site_type_symbol
 _atom_site_label
 _atom_site_symmetry_multiplicity
 _atom_site_fract_x
 _atom_site_fract_y
 _atom_site_fract_z
 _atom_site_occupancy
  Cr  Cr0  1  0.99145075  0.99349464  -0.00251447  1
  Ni  Ni1  1  0.16459795  0.16522248  0.16141072  1
  Cr  Cr2  1  -0.00427294  0.99299367  0.32668498  1
  Cr  Cr3  1  -0.00407010  0.32938514  0.99469107  1
  Ni  Ni4  1  0.16317482  0.49251891  0.16157988  1
  Cr  Cr5  1  -0.00377070  0.32859777  0.32906849  1
  Cr  Cr6  1  0.99215865  0.66208334  -0.00498957  1
  Cr  Cr7  1  0.15958588  0.82711157  0.16245098  1
  Ni  Ni8  1  0.99433615  0.66228067  0.32719943  1
  Cr  Cr9  1  0.33068075  -0.00120505  -0.00484284  1
  Ni  Ni10  1  0.49544777  0.16595006  0.15868207  1
  Cr  Cr11  1  0.32728700  -0.00324801  0.33041275  1
  Fe  Fe12  1  0.33227886  0.32751498  -0.00203762  1
  Ni  Ni13  1  0.49655456  0.49175521  0.16096336  1
  Cr  Cr14  1  0.33086704  0.32833325  0.32336969  1
  Cr  Cr15  1  0.32912143  0.65710373  -0.00232312  1
  Cr  Cr16  1  0.49904665  0.82727784  0.16102961  1
  Cr  Cr17  1  0.32741028  0.65972772  0.32724029  1
  Ni  Ni18  1  0.66091061  -0.00411194  0.99445813  1
  Cr  Cr19  1  0.82592732  0.16115686  0.16166326  1
  Cr  Cr20  1  0.66150538  -0.00364533  0.32549165  1
  Ni  Ni21  1  0.65747198  0.32781828  -0.00482056  1
  Cr  Cr22  1  0.82663667  0.49615142  0.16367279  1
  Ni  Ni23  1  0.65939554  0.33059207  0.32654215  1
  Ni  Ni24  1  0.66281758  0.66101956  0.99433016  1
  Ni  Ni25  1  0.82581090  0.82573112  0.16135505  1
  Ni  Ni26  1  0.66369060  0.65897909  0.32648898  1
  Fe  Fe27  1  0.16202048  0.16017196  0.49534269  1
  Cr  Cr28  1  -0.00465755  0.99482929  0.66005249  1
  Cr  Cr29  1  0.16326131  0.16229621  0.82704313  1
  Cr  Cr30  1  0.15948710  0.49568897  0.49472503  1
  Fe  Fe31  1  0.99393115  0.32919899  0.66191748  1
  Cr  Cr32  1  0.16046990  0.49349688  0.82962626  1
  Ni  Ni33  1  0.16079848  0.82940969  0.49552300  1
  Cr  Cr34  1  0.99215703  0.66182252  0.66415784  1
  Cr  Cr35  1  0.16213582  0.82874023  0.82780041  1
  Cr  Cr36  1  0.49566036  0.16157069  0.49496936  1
  Fe  Fe37  1  0.32883468  -0.00486940  0.66117991  1
  Ni  Ni38  1  0.49647942  0.16262959  0.83073005  1
  Cr  Cr39  1  0.49816178  0.49653459  0.49225603  1
  Cr  Cr40  1  0.32885614  0.32650787  0.66177483  1
  Cr  Cr41  1  0.49645217  0.49470251  0.83017026  1
  Cr  Cr42  1  0.49402269  0.82677542  0.49666255  1
  Cr  Cr43  1  0.32916929  0.66204453  0.66019684  1
  Cr  Cr44  1  0.49697962  0.82930609  0.82758557  1
  Cr  Cr45  1  0.82919612  0.16475413  0.49334005  1
  Cr  Cr46  1  0.66173860  0.99431901  0.66403819  1
  Cr  Cr47  1  0.82678398  0.16262343  0.82965573  1
  Cr  Cr48  1  0.82714245  0.49459580  0.49455591  1
  Cr  Cr49  1  0.66194528  0.32988004  0.66256521  1
  Fe  Fe50  1  0.82469161  0.49665603  0.82958717  1
  Cr  Cr51  1  0.82765102  0.82598294  0.49145782  1
  Ni  Ni52  1  0.66401652  0.66132093  0.66391343  1
  Ni  Ni53  1  0.82472138  0.82658021  0.83007365  1
" 