1001,Ni28Fe9Cr61_10,-214.573119466509, 153.087677116055,Ni28Fe9Cr61,"# generated using pymatgen
 data_Cr34(FeNi3)5
_symmetry_space_group_name_H-M   'P 1'
_cell_length_a   7.54134377
_cell_length_b   7.54134377
_cell_length_c   10.66507064
_cell_angle_alpha   90.00000000
_cell_angle_beta   90.00000000
_cell_angle_gamma   90.00000000
_symmetry_Int_Tables_number   1
_chemical_formula_structural   Cr34(FeNi3)5
_chemical_formula_sum   'Cr34 Fe5 Ni15'
_cell_volume   606.54246640
_cell_formula_units_Z   1
loop_
 _symmetry_equiv_pos_site_id
 _symmetry_equiv_pos_as_xyz
  1  'x, y, z'
loop_
 _atom_site_type_symbol
 _atom_site_label
 _atom_site_symmetry_multiplicity
 _atom_site_fract_x
 _atom_site_fract_y
 _atom_site_fract_z
 _atom_site_occupancy
  Fe  Fe0  1  0.99420267  0.99336775  0.99452094  1
  Fe  Fe1  1  0.16103738  0.16077134  0.16248775  1
  Fe  Fe2  1  -0.00263607  -0.00464148  0.32847398  1
  Cr  Cr3  1  -0.00434172  0.32886142  0.99390254  1
  Ni  Ni4  1  0.16305640  0.49595025  0.16057753  1
  Cr  Cr5  1  -0.00277594  0.33103911  0.32931023  1
  Cr  Cr6  1  -0.00250702  0.66192882  -0.00398325  1
  Fe  Fe7  1  0.16312691  0.82738422  0.16098722  1
  Cr  Cr8  1  -0.00392882  0.66014585  0.32985571  1
  Cr  Cr9  1  0.33112364  0.99164604  -0.00394752  1
  Cr  Cr10  1  0.49613507  0.16109923  0.16228509  1
  Cr  Cr11  1  0.32848583  0.99468894  0.32838239  1
  Cr  Cr12  1  0.32653249  0.32971650  -0.00187404  1
  Cr  Cr13  1  0.49495362  0.49867852  0.16006645  1
  Cr  Cr14  1  0.32744569  0.32857803  0.32956004  1
  Ni  Ni15  1  0.32970695  0.66598546  -0.00279469  1
  Ni  Ni16  1  0.49548713  0.82709715  0.15899601  1
  Cr  Cr17  1  0.32827782  0.66228432  0.32587148  1
  Ni  Ni18  1  0.66143099  0.99090709  0.99384920  1
  Cr  Cr19  1  0.83042370  0.15893969  0.16029307  1
  Cr  Cr20  1  0.65796594  0.99288882  0.32866350  1
  Cr  Cr21  1  0.66261070  0.32594153  0.99292933  1
  Cr  Cr22  1  0.82615326  0.49624706  0.16251005  1
  Cr  Cr23  1  0.66039174  0.33034988  0.33234432  1
  Ni  Ni24  1  0.65885175  0.66858384  -0.00432235  1
  Cr  Cr25  1  0.82711339  0.82952602  0.16362635  1
  Ni  Ni26  1  0.66092798  0.66222588  0.32935306  1
  Ni  Ni27  1  0.16316551  0.16220502  0.49433917  1
  Cr  Cr28  1  0.99488180  -0.00395796  0.66240132  1
  Cr  Cr29  1  0.16095380  0.16030170  0.82797835  1
  Ni  Ni30  1  0.16443022  0.49358895  0.49615190  1
  Cr  Cr31  1  0.99381851  0.32998996  0.66158916  1
  Cr  Cr32  1  0.16657700  0.49678213  0.82766608  1
  Cr  Cr33  1  0.16278201  0.83022849  0.49733017  1
  Cr  Cr34  1  0.99420566  0.65891831  0.65904980  1
  Cr  Cr35  1  0.16662449  0.82769584  0.82612763  1
  Fe  Fe36  1  0.49239134  0.16252438  0.49605565  1
  Ni  Ni37  1  0.32984597  0.99350630  0.66040072  1
  Cr  Cr38  1  0.49441278  0.15982870  0.82763090  1
  Ni  Ni39  1  0.49513953  0.49749262  0.49529497  1
  Cr  Cr40  1  0.32844166  0.32776179  0.65764044  1
  Cr  Cr41  1  0.49338498  0.50069371  0.83010264  1
  Cr  Cr42  1  0.49466582  0.82569256  0.49717590  1
  Ni  Ni43  1  0.33161274  0.66329417  0.66119973  1
  Ni  Ni44  1  0.49463108  0.82640439  0.82899123  1
  Cr  Cr45  1  0.83042837  0.16024643  0.49391574  1
  Cr  Cr46  1  0.65859963  0.99418204  0.66394435  1
  Ni  Ni47  1  0.82844330  0.15864589  0.83150176  1
  Ni  Ni48  1  0.82550223  0.49616757  0.49467686  1
  Cr  Cr49  1  0.66280415  0.32885507  0.66012427  1
  Cr  Cr50  1  0.82545061  0.49589286  0.82827497  1
  Cr  Cr51  1  0.82745384  0.82664941  0.49314713  1
  Ni  Ni52  1  0.65848341  0.66134846  0.66042097  1
  Cr  Cr53  1  0.82561820  0.82887007  0.82894398  1
" 