4023,Ni28Fe61Cr10_11,-232.519084034163, 194.657592393489,Ni28Fe61Cr10,"# generated using pymatgen
 data_Cr2Fe11Ni5
_symmetry_space_group_name_H-M   'P 1'
_cell_length_a   7.42021100
_cell_length_b   7.42021100
_cell_length_c   10.49376303
_cell_angle_alpha   90.00000000
_cell_angle_beta   90.00000000
_cell_angle_gamma   90.00000000
_symmetry_Int_Tables_number   1
_chemical_formula_structural   Cr2Fe11Ni5
_chemical_formula_sum   'Cr6 Fe33 Ni15'
_cell_volume   577.78167285
_cell_formula_units_Z   3
loop_
 _symmetry_equiv_pos_site_id
 _symmetry_equiv_pos_as_xyz
  1  'x, y, z'
loop_
 _atom_site_type_symbol
 _atom_site_label
 _atom_site_symmetry_multiplicity
 _atom_site_fract_x
 _atom_site_fract_y
 _atom_site_fract_z
 _atom_site_occupancy
  Fe  Fe0  1  0.00335403  0.00392608  1.00248661  1
  Fe  Fe1  1  0.16913579  0.16872978  0.17118936  1
  Ni  Ni2  1  0.00340386  0.00398752  0.33727081  1
  Fe  Fe3  1  1.00101552  0.33622672  1.00264911  1
  Fe  Fe4  1  0.16943014  0.50413947  0.17089419  1
  Fe  Fe5  1  0.00360207  0.33693845  0.33714264  1
  Fe  Fe6  1  1.00314883  0.66931335  1.00245191  1
  Fe  Fe7  1  0.17147425  0.83660053  0.17056393  1
  Ni  Ni8  1  0.00468938  0.66934401  0.33806873  1
  Fe  Fe9  1  0.33742405  1.00180087  1.00266688  1
  Ni  Ni10  1  0.50261583  0.16923542  0.17090920  1
  Fe  Fe11  1  0.33566527  1.00243967  0.33718742  1
  Cr  Cr12  1  0.33702678  0.33751222  1.00223361  1
  Fe  Fe13  1  0.50366388  0.50366093  0.17078605  1
  Fe  Fe14  1  0.33572719  0.33673243  0.33639268  1
  Fe  Fe15  1  0.33736314  0.67171657  0.00331851  1
  Fe  Fe16  1  0.50161893  0.83708127  0.16973471  1
  Ni  Ni17  1  0.33627963  0.66914037  0.33563714  1
  Ni  Ni18  1  0.66968115  0.00382808  1.00173596  1
  Fe  Fe19  1  0.83589155  0.17076857  0.16973577  1
  Fe  Fe20  1  0.66917923  1.00296730  0.33667921  1
  Fe  Fe21  1  0.67108903  0.33616623  1.00290157  1
  Fe  Fe22  1  0.83637791  0.50132018  0.17003386  1
  Fe  Fe23  1  0.67013903  0.33722865  0.33678436  1
  Fe  Fe24  1  0.66895934  0.66937665  1.00080332  1
  Cr  Cr25  1  0.83665298  0.83580775  0.17037696  1
  Fe  Fe26  1  0.66938918  0.66927545  0.33855420  1
  Ni  Ni27  1  0.17118260  0.16939300  0.50134330  1
  Cr  Cr28  1  0.00389309  1.00158010  0.66995767  1
  Fe  Fe29  1  0.17074417  0.16892403  0.83635898  1
  Fe  Fe30  1  0.17101578  0.50427782  0.50181888  1
  Cr  Cr31  1  0.00411961  0.33815334  0.66982294  1
  Fe  Fe32  1  0.16974790  0.50554324  0.83675257  1
  Fe  Fe33  1  0.17098071  0.83536153  0.50178836  1
  Fe  Fe34  1  1.00195278  0.66999622  0.66976698  1
  Fe  Fe35  1  0.17071040  0.83500446  0.83712114  1
  Fe  Fe36  1  0.50144983  0.17012577  0.50143342  1
  Ni  Ni37  1  0.33649269  1.00283149  0.67031001  1
  Fe  Fe38  1  0.50334471  0.16862330  0.83790100  1
  Ni  Ni39  1  0.50337830  0.50449873  0.50262868  1
  Fe  Fe40  1  0.33706609  0.33616111  0.66984060  1
  Ni  Ni41  1  0.50388580  0.50470897  0.83616434  1
  Ni  Ni42  1  0.50278245  0.83554071  0.50205763  1
  Fe  Fe43  1  0.33801387  0.67032633  0.66943851  1
  Ni  Ni44  1  0.50302304  0.83593396  0.83809583  1
  Fe  Fe45  1  0.83630733  0.17009619  0.49982645  1
  Cr  Cr46  1  0.66847545  1.00113603  0.66926539  1
  Fe  Fe47  1  0.83538279  0.16958950  0.83990576  1
  Ni  Ni48  1  0.83631361  0.50534761  0.50149560  1
  Cr  Cr49  1  0.66826024  0.33858656  0.67109117  1
  Ni  Ni50  1  0.83631152  0.50524439  0.83864122  1
  Fe  Fe51  1  0.83631878  0.83437700  0.50164928  1
  Ni  Ni52  1  0.66900140  0.66930967  0.66990229  1
  Ni  Ni53  1  0.83627195  0.83448931  0.83685819  1
" 