7461,Ni28Fe72_6,-243.045189942582, 217.015515482144,Ni28Fe72,"# generated using pymatgen
 data_Fe5Ni13
_symmetry_space_group_name_H-M   'P 1'
_cell_length_a   7.41219582
_cell_length_b   7.41219582
_cell_length_c   10.48242785
_cell_angle_alpha   90.00000000
_cell_angle_beta   90.00000000
_cell_angle_gamma   90.00000000
_symmetry_Int_Tables_number   1
_chemical_formula_structural   Fe5Ni13
_chemical_formula_sum   'Fe15 Ni39'
_cell_volume   575.91136709
_cell_formula_units_Z   3
loop_
 _symmetry_equiv_pos_site_id
 _symmetry_equiv_pos_as_xyz
  1  'x, y, z'
loop_
 _atom_site_type_symbol
 _atom_site_label
 _atom_site_symmetry_multiplicity
 _atom_site_fract_x
 _atom_site_fract_y
 _atom_site_fract_z
 _atom_site_occupancy
  Ni  Ni0  1  0.00431555  1.00229430  1.00334057  1
  Ni  Ni1  1  0.17101244  0.17248596  0.16976776  1
  Ni  Ni2  1  0.00476153  0.00433332  0.33711238  1
  Fe  Fe3  1  0.00391984  0.33619139  0.00384819  1
  Ni  Ni4  1  0.16993650  0.50267911  0.17080374  1
  Ni  Ni5  1  1.00354669  0.33667147  0.33652514  1
  Ni  Ni6  1  0.00437243  0.67099506  0.00389521  1
  Fe  Fe7  1  0.17036729  0.83860423  0.17021827  1
  Fe  Fe8  1  1.00316292  0.67067623  0.33745757  1
  Ni  Ni9  1  0.33680534  0.00410271  1.00355602  1
  Ni  Ni10  1  0.50379380  0.16926754  0.17051533  1
  Ni  Ni11  1  0.33647023  1.00254540  0.33691670  1
  Ni  Ni12  1  0.33800029  0.33688991  0.00407009  1
  Fe  Fe13  1  0.50397636  0.50291607  0.17061888  1
  Fe  Fe14  1  0.33691194  0.33606971  0.33642727  1
  Fe  Fe15  1  0.33665987  0.67100019  0.00398244  1
  Ni  Ni16  1  0.50502858  0.83828178  0.17039832  1
  Ni  Ni17  1  0.33733312  0.67101723  0.33686122  1
  Ni  Ni18  1  0.66997740  0.00446602  1.00369837  1
  Ni  Ni19  1  0.83629434  0.16998084  0.17096510  1
  Ni  Ni20  1  0.66987118  0.00375591  0.33709413  1
  Ni  Ni21  1  0.66908910  0.33683796  1.00341172  1
  Fe  Fe22  1  0.83660520  0.50284249  0.17069030  1
  Ni  Ni23  1  0.67079080  0.33753477  0.33738569  1
  Fe  Fe24  1  0.67059641  0.67173437  1.00351909  1
  Ni  Ni25  1  0.83541478  0.83720664  0.17017930  1
  Ni  Ni26  1  0.66900169  0.66980753  0.33690229  1
  Ni  Ni27  1  0.17160374  0.17169007  0.50391092  1
  Ni  Ni28  1  0.00423800  1.00320999  0.67064633  1
  Fe  Fe29  1  0.16966178  0.16950570  0.83728974  1
  Ni  Ni30  1  0.16874924  0.50319092  0.50369623  1
  Ni  Ni31  1  0.00386646  0.33756020  0.67159181  1
  Ni  Ni32  1  0.16898149  0.50401807  0.83660101  1
  Ni  Ni33  1  0.17039329  0.83621833  0.50273182  1
  Ni  Ni34  1  0.00422882  0.67032567  0.66934514  1
  Ni  Ni35  1  0.17056707  0.83538233  0.83755999  1
  Ni  Ni36  1  0.50340620  0.16935458  0.50287494  1
  Fe  Fe37  1  0.33743673  1.00352076  0.67004110  1
  Ni  Ni38  1  0.50464513  0.16937963  0.83770832  1
  Fe  Fe39  1  0.50392232  0.50456150  0.50337325  1
  Fe  Fe40  1  0.33671103  0.33677990  0.67072647  1
  Fe  Fe41  1  0.50473364  0.50365327  0.83711010  1
  Ni  Ni42  1  0.50464310  0.83852380  0.50365652  1
  Fe  Fe43  1  0.33645285  0.67079892  0.66983255  1
  Ni  Ni44  1  0.50410796  0.83865806  0.83704345  1
  Fe  Fe45  1  0.83771855  0.16998449  0.50370263  1
  Ni  Ni46  1  0.67017104  1.00360404  0.67030872  1
  Ni  Ni47  1  0.83546717  0.17096466  0.83670430  1
  Ni  Ni48  1  0.83840273  0.50443011  0.50322222  1
  Ni  Ni49  1  0.67021278  0.33749655  0.67030501  1
  Ni  Ni50  1  0.83873898  0.50348499  0.83777431  1
  Ni  Ni51  1  0.83606248  0.83566859  0.50407584  1
  Ni  Ni52  1  0.67023964  0.67000137  0.67096729  1
  Ni  Ni53  1  0.83642779  0.83665097  0.83684456  1
" 