6870,Ni28Fe72_13,-243.218937087495, 218.12202171508,Ni28Fe72,"# generated using pymatgen
 data_Fe5Ni13
_symmetry_space_group_name_H-M   'P 1'
_cell_length_a   7.41426784
_cell_length_b   7.41426784
_cell_length_c   10.48535813
_cell_angle_alpha   90.00000000
_cell_angle_beta   90.00000000
_cell_angle_gamma   90.00000000
_symmetry_Int_Tables_number   1
_chemical_formula_structural   Fe5Ni13
_chemical_formula_sum   'Fe15 Ni39'
_cell_volume   576.39447578
_cell_formula_units_Z   3
loop_
 _symmetry_equiv_pos_site_id
 _symmetry_equiv_pos_as_xyz
  1  'x, y, z'
loop_
 _atom_site_type_symbol
 _atom_site_label
 _atom_site_symmetry_multiplicity
 _atom_site_fract_x
 _atom_site_fract_y
 _atom_site_fract_z
 _atom_site_occupancy
  Ni  Ni0  1  1.00292872  0.00414670  0.00404369  1
  Ni  Ni1  1  0.17039704  0.17226173  0.17020508  1
  Fe  Fe2  1  1.00316953  1.00313642  0.33689142  1
  Ni  Ni3  1  0.00450331  0.33608132  0.00368580  1
  Ni  Ni4  1  0.17041677  0.50274650  0.17022530  1
  Ni  Ni5  1  0.00473581  0.33669849  0.33647063  1
  Ni  Ni6  1  0.00444826  0.67045048  0.00372844  1
  Fe  Fe7  1  0.17005858  0.83717116  0.17005930  1
  Ni  Ni8  1  0.00390203  0.66975505  0.33691699  1
  Fe  Fe9  1  0.33689467  0.00417272  1.00306743  1
  Ni  Ni10  1  0.50364563  0.17020312  0.17053744  1
  Fe  Fe11  1  0.33718251  1.00289457  0.33728598  1
  Ni  Ni12  1  0.33646834  0.33724512  1.00318168  1
  Fe  Fe13  1  0.50320108  0.50330180  0.16949983  1
  Ni  Ni14  1  0.33570741  0.33703204  0.33730828  1
  Ni  Ni15  1  0.33679561  0.66956361  0.00397406  1
  Ni  Ni16  1  0.50484092  0.83687221  0.16946575  1
  Ni  Ni17  1  0.33690205  0.66978610  0.33681555  1
  Ni  Ni18  1  0.67059474  0.00381647  1.00312674  1
  Ni  Ni19  1  0.83663551  0.16984705  0.16975851  1
  Ni  Ni20  1  0.67020560  1.00302744  0.33721059  1
  Ni  Ni21  1  0.66970818  0.33572381  0.00469767  1
  Fe  Fe22  1  0.83718198  0.50323622  0.17062170  1
  Fe  Fe23  1  0.67063230  0.33740725  0.33709872  1
  Ni  Ni24  1  0.66943247  0.67113583  0.00374166  1
  Ni  Ni25  1  0.83577534  0.83688929  0.17130309  1
  Ni  Ni26  1  0.66987382  0.67214670  0.33692301  1
  Fe  Fe27  1  0.16895409  0.16949575  0.50372803  1
  Ni  Ni28  1  0.00362923  0.00408980  0.66948651  1
  Ni  Ni29  1  0.17092281  0.17098475  0.83674833  1
  Fe  Fe30  1  0.16895414  0.50475913  0.50298210  1
  Ni  Ni31  1  1.00344478  0.33645699  0.67051775  1
  Ni  Ni32  1  0.17094605  0.50339901  0.83611349  1
  Ni  Ni33  1  0.17050873  0.83619606  0.50312161  1
  Ni  Ni34  1  0.00428360  0.67013040  0.67002889  1
  Ni  Ni35  1  0.16893305  0.83629520  0.83748568  1
  Fe  Fe36  1  0.50482962  0.16895197  0.50379444  1
  Ni  Ni37  1  0.33712106  1.00294724  0.67021313  1
  Ni  Ni38  1  0.50333603  0.17150456  0.83674897  1
  Fe  Fe39  1  0.50459223  0.50506766  0.50405273  1
  Fe  Fe40  1  0.33703049  0.33675806  0.67130045  1
  Ni  Ni41  1  0.50298662  0.50255517  0.83698550  1
  Ni  Ni42  1  0.50355634  0.83654944  0.50459705  1
  Ni  Ni43  1  0.33679586  0.67094385  0.66988491  1
  Fe  Fe44  1  0.50266990  0.83658860  0.83658773  1
  Ni  Ni45  1  0.83663696  0.17075789  0.50395686  1
  Ni  Ni46  1  0.66992636  0.00378922  0.67034149  1
  Fe  Fe47  1  0.83738689  0.17031235  0.83682333  1
  Ni  Ni48  1  0.83698883  0.50337573  0.50364352  1
  Ni  Ni49  1  0.67074083  0.33613122  0.66956707  1
  Fe  Fe50  1  0.83731710  0.50347008  0.83626400  1
  Ni  Ni51  1  0.83661309  0.83654573  0.50347812  1
  Ni  Ni52  1  0.66959648  0.67075677  0.67001274  1
  Ni  Ni53  1  0.83726488  0.83664243  0.83589550  1
" 