385,Ni28Fe9Cr61_12,-214.550402259166, 159.062897988611,Ni28Fe9Cr61,"# generated using pymatgen
 data_Cr34(FeNi3)5
_symmetry_space_group_name_H-M   'P 1'
_cell_length_a   7.54253949
_cell_length_b   7.54253949
_cell_length_c   10.66676165
_cell_angle_alpha   90.00000000
_cell_angle_beta   90.00000000
_cell_angle_gamma   90.00000000
_symmetry_Int_Tables_number   1
_chemical_formula_structural   Cr34(FeNi3)5
_chemical_formula_sum   'Cr34 Fe5 Ni15'
_cell_volume   606.83102487
_cell_formula_units_Z   1
loop_
 _symmetry_equiv_pos_site_id
 _symmetry_equiv_pos_as_xyz
  1  'x, y, z'
loop_
 _atom_site_type_symbol
 _atom_site_label
 _atom_site_symmetry_multiplicity
 _atom_site_fract_x
 _atom_site_fract_y
 _atom_site_fract_z
 _atom_site_occupancy
  Cr  Cr0  1  0.99330090  0.99435892  -0.00417263  1
  Ni  Ni1  1  0.16287522  0.16048502  0.16157417  1
  Ni  Ni2  1  0.99382466  -0.00442864  0.32729723  1
  Cr  Cr3  1  0.99390067  0.32908670  -0.00313747  1
  Ni  Ni4  1  0.16098322  0.49409544  0.15919068  1
  Cr  Cr5  1  0.99435823  0.32464739  0.32438801  1
  Fe  Fe6  1  0.99489113  0.66177183  -0.00477507  1
  Cr  Cr7  1  0.16017422  0.82819674  0.16041978  1
  Cr  Cr8  1  -0.00264392  0.66449180  0.32719486  1
  Ni  Ni9  1  0.32877076  0.99296974  -0.00264594  1
  Ni  Ni10  1  0.49380069  0.15925108  0.15909481  1
  Cr  Cr11  1  0.32679979  0.99252358  0.32984773  1
  Cr  Cr12  1  0.32833297  0.32960385  -0.00383590  1
  Cr  Cr13  1  0.49440193  0.49555655  0.16144934  1
  Cr  Cr14  1  0.32756039  0.32919992  0.32444170  1
  Ni  Ni15  1  0.32944863  0.66219927  -0.00448567  1
  Cr  Cr16  1  0.49744947  0.82996672  0.15851365  1
  Cr  Cr17  1  0.32796234  0.66334821  0.32984424  1
  Fe  Fe18  1  0.66110955  0.99397257  -0.00378231  1
  Fe  Fe19  1  0.82900681  0.15826968  0.16197097  1
  Cr  Cr20  1  0.66386471  -0.00464532  0.32728710  1
  Cr  Cr21  1  0.66281393  0.32924157  0.99459651  1
  Cr  Cr22  1  0.82940449  0.49954909  0.16171917  1
  Cr  Cr23  1  0.66306568  0.32572633  0.32721513  1
  Fe  Fe24  1  0.66272644  0.66265090  0.99287457  1
  Ni  Ni25  1  0.82875131  0.83078008  0.15921469  1
  Cr  Cr26  1  0.65977926  0.66408858  0.32952018  1
  Cr  Cr27  1  0.16038896  0.16121376  0.49658036  1
  Cr  Cr28  1  0.99379315  0.99216703  0.66023083  1
  Cr  Cr29  1  0.16471197  0.16090753  0.82727514  1
  Cr  Cr30  1  0.16039058  0.49512510  0.49528121  1
  Cr  Cr31  1  0.99323635  0.32849310  0.66357751  1
  Cr  Cr32  1  0.16116321  0.49616240  0.82851275  1
  Ni  Ni33  1  0.16044943  0.82936424  0.49438905  1
  Fe  Fe34  1  0.99275153  0.66235353  0.66284914  1
  Cr  Cr35  1  0.15980208  0.82789244  0.82994771  1
  Cr  Cr36  1  0.49550569  0.16189466  0.49676353  1
  Cr  Cr37  1  0.32777597  0.99224330  0.65991538  1
  Cr  Cr38  1  0.49236636  0.16195496  0.82891785  1
  Cr  Cr39  1  0.49631110  0.49538074  0.49594612  1
  Ni  Ni40  1  0.32937773  0.33214682  0.66397782  1
  Ni  Ni41  1  0.49736575  0.49776328  0.82811242  1
  Ni  Ni42  1  0.49507104  0.82771760  0.49616114  1
  Cr  Cr43  1  0.33050587  0.66267697  0.65884828  1
  Cr  Cr44  1  0.49671370  0.82827539  0.83232996  1
  Ni  Ni45  1  0.82994400  0.15968362  0.49232227  1
  Cr  Cr46  1  0.66331711  0.99118444  0.66132124  1
  Cr  Cr47  1  0.82731076  0.15992102  0.82812640  1
  Cr  Cr48  1  0.82812666  0.49463162  0.49654145  1
  Cr  Cr49  1  0.66212706  0.33104074  0.66296870  1
  Ni  Ni50  1  0.82598166  0.50164644  0.82811368  1
  Cr  Cr51  1  0.82908333  0.82755381  0.49503838  1
  Ni  Ni52  1  0.66239885  0.66159026  0.66494329  1
  Ni  Ni53  1  0.82707865  0.82181959  0.82995083  1
" 