1145,Ni28Fe9Cr61_15,-214.274564735508, 151.167069811283,Ni28Fe9Cr61,"# generated using pymatgen
 data_Cr34(FeNi3)5
_symmetry_space_group_name_H-M   'P 1'
_cell_length_a   7.54418745
_cell_length_b   7.54418745
_cell_length_c   10.66909221
_cell_angle_alpha   90.00000000
_cell_angle_beta   90.00000000
_cell_angle_gamma   90.00000000
_symmetry_Int_Tables_number   1
_chemical_formula_structural   Cr34(FeNi3)5
_chemical_formula_sum   'Cr34 Fe5 Ni15'
_cell_volume   607.22886774
_cell_formula_units_Z   1
loop_
 _symmetry_equiv_pos_site_id
 _symmetry_equiv_pos_as_xyz
  1  'x, y, z'
loop_
 _atom_site_type_symbol
 _atom_site_label
 _atom_site_symmetry_multiplicity
 _atom_site_fract_x
 _atom_site_fract_y
 _atom_site_fract_z
 _atom_site_occupancy
  Cr  Cr0  1  0.99437509  0.99370306  0.99433602  1
  Ni  Ni1  1  0.16336848  0.16384149  0.16111081  1
  Cr  Cr2  1  0.99477024  0.99444547  0.32881138  1
  Cr  Cr3  1  0.99408058  0.32797363  -0.00381822  1
  Cr  Cr4  1  0.16095833  0.49389635  0.16311979  1
  Fe  Fe5  1  -0.00426006  0.32852617  0.32929854  1
  Cr  Cr6  1  0.99044985  0.66266729  0.99272003  1
  Cr  Cr7  1  0.16070709  0.82733262  0.16220850  1
  Ni  Ni8  1  0.99284566  0.66278651  0.33118811  1
  Cr  Cr9  1  0.32870404  -0.00334610  -0.00180136  1
  Ni  Ni10  1  0.49351633  0.16335717  0.16218564  1
  Cr  Cr11  1  0.32889066  -0.00305810  0.32630447  1
  Ni  Ni12  1  0.33098054  0.32823745  -0.00260944  1
  Ni  Ni13  1  0.49597417  0.49468314  0.16067989  1
  Cr  Cr14  1  0.33002160  0.32694679  0.32790187  1
  Cr  Cr15  1  0.33178380  0.66048563  0.99344747  1
  Cr  Cr16  1  0.49787756  0.82594181  0.16236603  1
  Cr  Cr17  1  0.32692298  0.66132695  0.33029288  1
  Cr  Cr18  1  0.66150187  0.99332362  -0.00467073  1
  Cr  Cr19  1  0.82850028  0.16168647  0.16346117  1
  Fe  Fe20  1  0.66182326  0.99463891  0.32980296  1
  Cr  Cr21  1  0.65941949  0.33124577  0.99401954  1
  Cr  Cr22  1  0.82693218  0.49696355  0.16317547  1
  Cr  Cr23  1  0.66043439  0.32590332  0.32888916  1
  Ni  Ni24  1  0.66102878  0.66073246  0.99217032  1
  Cr  Cr25  1  0.82607239  0.82627278  0.16306808  1
  Ni  Ni26  1  0.66389879  0.66143214  0.32761378  1
  Cr  Cr27  1  0.16047929  0.16317032  0.49675087  1
  Fe  Fe28  1  0.99129885  0.99362035  0.66040790  1
  Cr  Cr29  1  0.16171533  0.16233731  0.82955364  1
  Ni  Ni30  1  0.15841228  0.49671072  0.49270650  1
  Cr  Cr31  1  0.99179628  0.32993519  0.66016338  1
  Cr  Cr32  1  0.16259861  0.49266058  0.82834719  1
  Fe  Fe33  1  0.15952504  0.82813428  0.49415914  1
  Cr  Cr34  1  0.99396631  0.66339505  0.66084298  1
  Cr  Cr35  1  0.16231496  0.82996659  0.82716735  1
  Ni  Ni36  1  0.49841563  0.15775063  0.49464666  1
  Cr  Cr37  1  0.32967358  0.99300948  0.66033374  1
  Cr  Cr38  1  0.49423263  0.16034797  0.82681967  1
  Cr  Cr39  1  0.49484270  0.49586497  0.49477394  1
  Cr  Cr40  1  0.33074435  0.32977378  0.66014546  1
  Ni  Ni41  1  0.49653359  0.49725864  0.83035975  1
  Cr  Cr42  1  0.49789652  0.82899403  0.49392138  1
  Cr  Cr43  1  0.32783765  0.66190091  0.66059071  1
  Ni  Ni44  1  0.49909206  0.82702247  0.82817255  1
  Ni  Ni45  1  0.82708718  0.15719229  0.49496723  1
  Ni  Ni46  1  0.66397321  0.99364753  0.65896339  1
  Cr  Cr47  1  0.82848301  0.16028340  0.82560386  1
  Cr  Cr48  1  0.82910307  0.49486125  0.49177880  1
  Cr  Cr49  1  0.66200315  0.32765340  0.66164998  1
  Ni  Ni50  1  0.82586312  0.49794839  0.82941425  1
  Fe  Fe51  1  0.82756392  0.82900897  0.49460971  1
  Cr  Cr52  1  0.66248344  0.66172041  0.66541359  1
  Ni  Ni53  1  0.82440902  0.82780786  0.82638730  1
" 