8771,Ni28Fe61Cr10_10,-233.183451861005, 196.384018395711,Ni28Fe61Cr10,"# generated using pymatgen
 data_Cr2Fe11Ni5
_symmetry_space_group_name_H-M   'P 1'
_cell_length_a   7.42607285
_cell_length_b   7.42607285
_cell_length_c   10.50205294
_cell_angle_alpha   90.00000000
_cell_angle_beta   90.00000000
_cell_angle_gamma   90.00000000
_symmetry_Int_Tables_number   1
_chemical_formula_structural   Cr2Fe11Ni5
_chemical_formula_sum   'Cr6 Fe33 Ni15'
_cell_volume   579.15207191
_cell_formula_units_Z   3
loop_
 _symmetry_equiv_pos_site_id
 _symmetry_equiv_pos_as_xyz
  1  'x, y, z'
loop_
 _atom_site_type_symbol
 _atom_site_label
 _atom_site_symmetry_multiplicity
 _atom_site_fract_x
 _atom_site_fract_y
 _atom_site_fract_z
 _atom_site_occupancy
  Ni  Ni0  1  1.00134551  1.00111044  1.00188128  1
  Ni  Ni1  1  0.17018499  0.16476335  0.16720688  1
  Fe  Fe2  1  0.00489769  1.00246720  0.33739261  1
  Cr  Cr3  1  0.00602088  0.33675299  0.00328828  1
  Fe  Fe4  1  0.17061627  0.50279719  0.17157218  1
  Fe  Fe5  1  0.00277557  0.33415939  0.33567266  1
  Cr  Cr6  1  1.00127701  0.67331435  0.00535963  1
  Ni  Ni7  1  0.17021835  0.83595104  0.17241905  1
  Fe  Fe8  1  1.00110588  0.67088554  0.33603227  1
  Fe  Fe9  1  0.33279139  0.99984303  1.00257696  1
  Ni  Ni10  1  0.50326455  0.16951002  0.16663182  1
  Fe  Fe11  1  0.33607062  1.00195497  0.33680884  1
  Fe  Fe12  1  0.33805884  0.33532083  0.00291280  1
  Ni  Ni13  1  0.50389269  0.50473915  0.16671447  1
  Cr  Cr14  1  0.33788283  0.33342974  0.33327815  1
  Fe  Fe15  1  0.33510633  0.67171890  1.00135856  1
  Fe  Fe16  1  0.50289703  0.83811549  0.16999500  1
  Fe  Fe17  1  0.34000777  0.67091596  0.33664535  1
  Fe  Fe18  1  0.67028992  1.00134343  1.00007739  1
  Cr  Cr19  1  0.83546043  0.16837322  0.17062503  1
  Fe  Fe20  1  0.66648379  1.00263422  0.33925700  1
  Fe  Fe21  1  0.67078485  0.33734313  1.00175861  1
  Ni  Ni22  1  0.83337736  0.50385698  0.17198634  1
  Fe  Fe23  1  0.66873397  0.33824991  0.33631722  1
  Fe  Fe24  1  0.66904317  0.67152896  0.00327748  1
  Fe  Fe25  1  0.83417386  0.83695127  0.17278291  1
  Fe  Fe26  1  0.66782668  0.66980548  0.33724391  1
  Ni  Ni27  1  0.16633794  0.16690667  0.50476621  1
  Fe  Fe28  1  1.00236411  1.00183747  0.67000662  1
  Fe  Fe29  1  0.16843333  0.16516908  0.83626820  1
  Cr  Cr30  1  0.17041443  0.50270158  0.50195550  1
  Fe  Fe31  1  1.00114324  0.33627139  0.67036074  1
  Fe  Fe32  1  0.16826487  0.50466059  0.83374013  1
  Fe  Fe33  1  0.17004441  0.83603410  0.50351429  1
  Ni  Ni34  1  1.00132778  0.66997987  0.66834460  1
  Ni  Ni35  1  0.17001286  0.83499429  0.83191112  1
  Fe  Fe36  1  0.50286177  0.16737537  0.50222073  1
  Fe  Fe37  1  0.33669159  0.99855014  0.66792552  1
  Fe  Fe38  1  0.50424766  0.16599688  0.83811788  1
  Ni  Ni39  1  0.50541685  0.50326618  0.50417985  1
  Cr  Cr40  1  0.33813945  0.33243248  0.67139009  1
  Fe  Fe41  1  0.50317193  0.50508955  0.83686216  1
  Ni  Ni42  1  0.50323846  0.83449112  0.50432196  1
  Ni  Ni43  1  0.33571075  0.66771520  0.66870766  1
  Fe  Fe44  1  0.50295979  0.83699079  0.83332292  1
  Fe  Fe45  1  0.83420115  0.16975870  0.50382938  1
  Ni  Ni46  1  0.66953178  0.00477124  0.66860992  1
  Ni  Ni47  1  0.83616217  0.17049544  0.83471598  1
  Fe  Fe48  1  0.83528639  0.50454857  0.50164692  1
  Fe  Fe49  1  0.67126032  0.33830942  0.67017323  1
  Fe  Fe50  1  0.83608071  0.50523287  0.83582283  1
  Ni  Ni51  1  0.83549041  0.83788303  0.50339791  1
  Fe  Fe52  1  0.66891641  0.67121573  0.66860624  1
  Fe  Fe53  1  0.83667877  0.83846368  0.83318632  1
" 