6573,Ni28Fe72_1,-242.976278171507, 216.335722136189,Ni28Fe72,"# generated using pymatgen
 data_Fe5Ni13
_symmetry_space_group_name_H-M   'P 1'
_cell_length_a   7.41378521
_cell_length_b   7.41378521
_cell_length_c   10.48467559
_cell_angle_alpha   90.00000000
_cell_angle_beta   90.00000000
_cell_angle_gamma   90.00000000
_symmetry_Int_Tables_number   1
_chemical_formula_structural   Fe5Ni13
_chemical_formula_sum   'Fe15 Ni39'
_cell_volume   576.28192220
_cell_formula_units_Z   3
loop_
 _symmetry_equiv_pos_site_id
 _symmetry_equiv_pos_as_xyz
  1  'x, y, z'
loop_
 _atom_site_type_symbol
 _atom_site_label
 _atom_site_symmetry_multiplicity
 _atom_site_fract_x
 _atom_site_fract_y
 _atom_site_fract_z
 _atom_site_occupancy
  Fe  Fe0  1  1.00345265  0.00392563  0.00373448  1
  Ni  Ni1  1  0.17075492  0.17095314  0.16923538  1
  Ni  Ni2  1  0.00423281  0.00466792  0.33661370  1
  Ni  Ni3  1  0.00372877  0.33694651  1.00346791  1
  Ni  Ni4  1  0.17077789  0.50306396  0.16996328  1
  Ni  Ni5  1  1.00309550  0.33543833  0.33763843  1
  Ni  Ni6  1  0.00401918  0.66964280  0.00494461  1
  Fe  Fe7  1  0.17108847  0.83675643  0.17052102  1
  Fe  Fe8  1  1.00294940  0.66983085  0.33733311  1
  Ni  Ni9  1  0.33704107  0.00389713  0.00392429  1
  Ni  Ni10  1  0.50316468  0.17094916  0.16927573  1
  Fe  Fe11  1  0.33687853  0.00423576  0.33733599  1
  Ni  Ni12  1  0.33652665  0.33645699  0.00450820  1
  Ni  Ni13  1  0.50316215  0.50309207  0.16981617  1
  Fe  Fe14  1  0.33685761  0.33733624  0.33678841  1
  Ni  Ni15  1  0.33652518  0.67042453  1.00345513  1
  Fe  Fe16  1  0.50300356  0.83644519  0.17020834  1
  Ni  Ni17  1  0.33758652  0.67062459  0.33719232  1
  Ni  Ni18  1  0.66973869  0.00418456  0.00426101  1
  Fe  Fe19  1  0.83699660  0.17125620  0.16982557  1
  Fe  Fe20  1  0.67064134  1.00328119  0.33695524  1
  Ni  Ni21  1  0.67052142  0.33642989  0.00401810  1
  Fe  Fe22  1  0.83668573  0.50276345  0.17058805  1
  Ni  Ni23  1  0.67094150  0.33747064  0.33675546  1
  Ni  Ni24  1  0.67023224  0.67015995  0.00372817  1
  Ni  Ni25  1  0.83682947  0.83675848  0.16976792  1
  Ni  Ni26  1  0.66897997  0.66948316  0.33718611  1
  Ni  Ni27  1  0.17075401  0.17011805  0.50416670  1
  Ni  Ni28  1  0.00401850  1.00338337  0.67045227  1
  Ni  Ni29  1  0.17013599  0.17057035  0.83737562  1
  Ni  Ni30  1  0.16995732  0.50358442  0.50375056  1
  Fe  Fe31  1  0.00414016  0.33692636  0.67032756  1
  Ni  Ni32  1  0.17094877  0.50359475  0.83706469  1
  Ni  Ni33  1  0.16892930  0.83707480  0.50351660  1
  Ni  Ni34  1  0.00401878  0.67098928  0.66864577  1
  Fe  Fe35  1  0.17099650  0.83718337  0.83618855  1
  Ni  Ni36  1  0.50316546  0.17017118  0.50412317  1
  Ni  Ni37  1  0.33619269  0.00391487  0.66940910  1
  Ni  Ni38  1  0.50391150  0.17056526  0.83737545  1
  Ni  Ni39  1  0.50401286  0.50358519  0.50383373  1
  Ni  Ni40  1  0.33737626  0.33674061  0.66945475  1
  Ni  Ni41  1  0.50306340  0.50356383  0.83712661  1
  Ni  Ni42  1  0.50498898  0.83702082  0.50360248  1
  Ni  Ni43  1  0.33652725  0.67012282  0.67012666  1
  Fe  Fe44  1  0.50302512  0.83749920  0.83656398  1
  Fe  Fe45  1  0.83699771  0.17032726  0.50395494  1
  Ni  Ni46  1  0.67056598  0.00423088  0.66901917  1
  Ni  Ni47  1  0.83672853  0.16870724  0.83737468  1
  Ni  Ni48  1  0.83680493  0.50541306  0.50373103  1
  Ni  Ni49  1  0.66970074  0.33674006  0.67000415  1
  Fe  Fe50  1  0.83675825  0.50221533  0.83673561  1
  Ni  Ni51  1  0.83685773  0.83622789  0.50431853  1
  Ni  Ni52  1  0.67023072  0.66980465  0.66986206  1
  Fe  Fe53  1  0.83675448  0.83722479  0.83682788  1
" 