7742,Ni28Fe61Cr10_13,-232.526209135298, 196.940686526467,Ni28Fe61Cr10,"# generated using pymatgen
 data_Cr2Fe11Ni5
_symmetry_space_group_name_H-M   'P 1'
_cell_length_a   7.42137139
_cell_length_b   7.42137139
_cell_length_c   10.49540407
_cell_angle_alpha   90.00000000
_cell_angle_beta   90.00000000
_cell_angle_gamma   90.00000000
_symmetry_Int_Tables_number   1
_chemical_formula_structural   Cr2Fe11Ni5
_chemical_formula_sum   'Cr6 Fe33 Ni15'
_cell_volume   578.05278129
_cell_formula_units_Z   3
loop_
 _symmetry_equiv_pos_site_id
 _symmetry_equiv_pos_as_xyz
  1  'x, y, z'
loop_
 _atom_site_type_symbol
 _atom_site_label
 _atom_site_symmetry_multiplicity
 _atom_site_fract_x
 _atom_site_fract_y
 _atom_site_fract_z
 _atom_site_occupancy
  Ni  Ni0  1  0.00313091  0.00353856  1.00247269  1
  Fe  Fe1  1  0.17030459  0.17070783  0.16959219  1
  Ni  Ni2  1  1.00104520  0.00436024  0.33644678  1
  Fe  Fe3  1  0.00334680  0.33623433  1.00291900  1
  Ni  Ni4  1  0.16924011  0.50222091  0.17100694  1
  Fe  Fe5  1  0.00393619  0.33533041  0.33563071  1
  Fe  Fe6  1  1.00281932  0.66952811  1.00245246  1
  Cr  Cr7  1  0.16888901  0.83590580  0.16811398  1
  Fe  Fe8  1  1.00239638  0.66942415  0.33566768  1
  Ni  Ni9  1  0.33429519  0.00580331  1.00238335  1
  Ni  Ni10  1  0.50420024  0.17090324  0.16914555  1
  Fe  Fe11  1  0.33699756  0.00555830  0.33627485  1
  Fe  Fe12  1  0.33636950  0.33642484  1.00280961  1
  Fe  Fe13  1  0.50278726  0.50156573  0.16934162  1
  Fe  Fe14  1  0.33509758  0.33526804  0.33554011  1
  Fe  Fe15  1  0.33535865  0.66780540  1.00160809  1
  Cr  Cr16  1  0.50338593  0.83743611  0.17033627  1
  Fe  Fe17  1  0.33555649  0.66840679  0.33674148  1
  Fe  Fe18  1  0.67124034  0.00447746  1.00267714  1
  Fe  Fe19  1  0.83695609  0.16950092  0.16982839  1
  Fe  Fe20  1  0.67120848  0.00401944  0.33805406  1
  Fe  Fe21  1  0.66951594  0.33561747  1.00247513  1
  Fe  Fe22  1  0.83602128  0.50328670  0.16978870  1
  Fe  Fe23  1  0.67019781  0.33388924  0.33531465  1
  Ni  Ni24  1  0.67116169  0.66739643  0.00315066  1
  Fe  Fe25  1  0.83665531  0.83644307  0.17006843  1
  Fe  Fe26  1  0.67127737  0.67132355  0.33530220  1
  Fe  Fe27  1  0.16871382  0.17099236  0.50286635  1
  Fe  Fe28  1  1.00145898  0.00452282  0.67012369  1
  Fe  Fe29  1  0.17010744  0.17016379  0.83677145  1
  Fe  Fe30  1  0.16926095  0.50167263  0.50347018  1
  Fe  Fe31  1  0.00367090  0.33550041  0.67068601  1
  Ni  Ni32  1  0.17051729  0.50369040  0.83525458  1
  Cr  Cr33  1  0.17023773  0.83610764  0.50362412  1
  Fe  Fe34  1  0.00326504  0.66920757  0.67111373  1
  Fe  Fe35  1  0.16851686  0.83623055  0.83673968  1
  Fe  Fe36  1  0.50428249  0.16796601  0.50319699  1
  Fe  Fe37  1  0.33752631  0.00498974  0.67013474  1
  Fe  Fe38  1  0.50302699  0.17225608  0.83640623  1
  Cr  Cr39  1  0.50165089  0.50316538  0.50352442  1
  Ni  Ni40  1  0.33608003  0.33733534  0.67019309  1
  Ni  Ni41  1  0.50213901  0.50224222  0.83740408  1
  Fe  Fe42  1  0.50569298  0.83812420  0.50347354  1
  Ni  Ni43  1  0.33526104  0.66740075  0.67042991  1
  Cr  Cr44  1  0.50207964  0.83603232  0.83581315  1
  Ni  Ni45  1  0.83621137  0.16772128  0.50266065  1
  Ni  Ni46  1  0.67172224  0.00422341  0.66800969  1
  Ni  Ni47  1  0.83653292  0.16975228  0.83625311  1
  Cr  Cr48  1  0.83754003  0.50155872  0.50484188  1
  Ni  Ni49  1  0.66909229  0.33446316  0.67157777  1
  Fe  Fe50  1  0.83564651  0.50277992  0.83637260  1
  Ni  Ni51  1  0.83540959  0.83951006  0.50290884  1
  Fe  Fe52  1  0.66939803  0.67009915  0.67088886  1
  Fe  Fe53  1  0.83774391  0.83609195  0.83629454  1
" 