2565,Ni28Fe61Cr10_9,-232.836821248961, 199.687594235582,Ni28Fe61Cr10,"# generated using pymatgen
 data_Cr2Fe11Ni5
_symmetry_space_group_name_H-M   'P 1'
_cell_length_a   7.42123455
_cell_length_b   7.42123455
_cell_length_c   10.49521055
_cell_angle_alpha   90.00000000
_cell_angle_beta   90.00000000
_cell_angle_gamma   90.00000000
_symmetry_Int_Tables_number   1
_chemical_formula_structural   Cr2Fe11Ni5
_chemical_formula_sum   'Cr6 Fe33 Ni15'
_cell_volume   578.02080567
_cell_formula_units_Z   3
loop_
 _symmetry_equiv_pos_site_id
 _symmetry_equiv_pos_as_xyz
  1  'x, y, z'
loop_
 _atom_site_type_symbol
 _atom_site_label
 _atom_site_symmetry_multiplicity
 _atom_site_fract_x
 _atom_site_fract_y
 _atom_site_fract_z
 _atom_site_occupancy
  Fe  Fe0  1  1.00153548  1.00264966  1.00169596  1
  Cr  Cr1  1  0.16955583  0.17052147  0.17023504  1
  Cr  Cr2  1  1.00179727  1.00167388  0.33600351  1
  Fe  Fe3  1  1.00245496  0.33645814  1.00177490  1
  Ni  Ni4  1  0.16969584  0.50509700  0.17100818  1
  Fe  Fe5  1  1.00129202  0.33905954  0.33723465  1
  Fe  Fe6  1  1.00286767  0.67015269  0.00363334  1
  Fe  Fe7  1  0.17101516  0.83300185  0.16991205  1
  Ni  Ni8  1  0.00468987  0.66855792  0.33607514  1
  Fe  Fe9  1  0.33657557  1.00190144  1.00145490  1
  Cr  Cr10  1  0.50474656  0.16983917  0.16940097  1
  Fe  Fe11  1  0.33734683  1.00064645  0.33756713  1
  Fe  Fe12  1  0.33663153  0.33818438  1.00117299  1
  Ni  Ni13  1  0.50320525  0.50447785  0.17120426  1
  Fe  Fe14  1  0.33603910  0.33886558  0.33672589  1
  Fe  Fe15  1  0.33696583  0.66917443  1.00275838  1
  Fe  Fe16  1  0.50282769  0.83480394  0.16973866  1
  Fe  Fe17  1  0.33642860  0.66974860  0.33653930  1
  Ni  Ni18  1  0.67116222  0.00333902  1.00212671  1
  Fe  Fe19  1  0.83478052  0.17124219  0.16877233  1
  Ni  Ni20  1  0.67013326  0.00323905  0.33655617  1
  Fe  Fe21  1  0.67017675  0.33685204  1.00249913  1
  Fe  Fe22  1  0.83657809  0.50269602  0.17100160  1
  Ni  Ni23  1  0.67020316  0.33712230  0.33552006  1
  Fe  Fe24  1  0.66942634  0.67009856  1.00229157  1
  Fe  Fe25  1  0.83542173  0.83532261  0.16862154  1
  Fe  Fe26  1  0.67045742  0.66938121  0.33693140  1
  Fe  Fe27  1  0.16783036  0.16965332  0.50343739  1
  Fe  Fe28  1  0.00320884  1.00259898  0.67007983  1
  Ni  Ni29  1  0.16903641  0.16942624  0.83629041  1
  Fe  Fe30  1  0.16855572  0.50463290  0.50223864  1
  Fe  Fe31  1  0.00314791  0.33721201  0.67025288  1
  Ni  Ni32  1  0.17024044  0.50312154  0.83653841  1
  Ni  Ni33  1  0.17026576  0.83564754  0.50396099  1
  Fe  Fe34  1  1.00308463  0.66944864  0.66905664  1
  Fe  Fe35  1  0.16952369  0.83625997  0.83562820  1
  Cr  Cr36  1  0.50321967  0.16815923  0.50137863  1
  Fe  Fe37  1  0.33570630  1.00004444  0.67023580  1
  Fe  Fe38  1  0.50329917  0.16841480  0.83827446  1
  Fe  Fe39  1  0.50339451  0.50675980  0.50191864  1
  Cr  Cr40  1  0.33457338  0.33840585  0.67110952  1
  Ni  Ni41  1  0.50245622  0.50458795  0.83748278  1
  Fe  Fe42  1  0.50320258  0.83440660  0.50339664  1
  Ni  Ni43  1  0.33610677  0.67100854  0.66993314  1
  Fe  Fe44  1  0.50339800  0.83629636  0.83612306  1
  Fe  Fe45  1  0.83788265  0.16984699  0.50293959  1
  Fe  Fe46  1  0.67034247  0.99998007  0.67103674  1
  Ni  Ni47  1  0.83715565  0.16742955  0.83695019  1
  Ni  Ni48  1  0.83729430  0.50445657  0.50246593  1
  Cr  Cr49  1  0.67147419  0.33748127  0.67231134  1
  Fe  Fe50  1  0.83749596  0.50352758  0.83630113  1
  Fe  Fe51  1  0.83575235  0.83512901  0.50405110  1
  Ni  Ni52  1  0.66932985  0.67131461  0.66963197  1
  Ni  Ni53  1  0.83568916  0.83732013  0.83519766  1
" 