6525,Ni28Fe61Cr10_0,-232.916434253369, 192.838943424323,Ni28Fe61Cr10,"# generated using pymatgen
 data_Cr2Fe11Ni5
_symmetry_space_group_name_H-M   'P 1'
_cell_length_a   7.42521117
_cell_length_b   7.42521117
_cell_length_c   10.50083434
_cell_angle_alpha   90.00000000
_cell_angle_beta   90.00000000
_cell_angle_gamma   90.00000000
_symmetry_Int_Tables_number   1
_chemical_formula_structural   Cr2Fe11Ni5
_chemical_formula_sum   'Cr6 Fe33 Ni15'
_cell_volume   578.95049062
_cell_formula_units_Z   3
loop_
 _symmetry_equiv_pos_site_id
 _symmetry_equiv_pos_as_xyz
  1  'x, y, z'
loop_
 _atom_site_type_symbol
 _atom_site_label
 _atom_site_symmetry_multiplicity
 _atom_site_fract_x
 _atom_site_fract_y
 _atom_site_fract_z
 _atom_site_occupancy
  Fe  Fe0  1  1.00163467  1.00262444  0.00307467  1
  Fe  Fe1  1  0.16897367  0.16988143  0.17101620  1
  Fe  Fe2  1  0.00367488  0.00458730  0.33597435  1
  Fe  Fe3  1  0.00294664  0.33684568  0.00341198  1
  Fe  Fe4  1  0.17045153  0.50243308  0.16871203  1
  Ni  Ni5  1  1.00210016  0.33386709  0.33611632  1
  Fe  Fe6  1  0.00329731  0.66898034  0.00283283  1
  Ni  Ni7  1  0.16981896  0.83595963  0.16970371  1
  Cr  Cr8  1  1.00265511  0.66936365  0.33661850  1
  Cr  Cr9  1  0.33559028  0.00292514  1.00157775  1
  Fe  Fe10  1  0.50287601  0.17001441  0.16996851  1
  Ni  Ni11  1  0.33581405  0.00337561  0.33744815  1
  Ni  Ni12  1  0.33635757  0.33688351  0.00307431  1
  Fe  Fe13  1  0.50163637  0.50255297  0.16787951  1
  Fe  Fe14  1  0.33533330  0.33430407  0.33500133  1
  Ni  Ni15  1  0.33636165  0.66882325  0.00389405  1
  Fe  Fe16  1  0.50210604  0.83589047  0.16939410  1
  Fe  Fe17  1  0.33569902  0.67154642  0.33429767  1
  Fe  Fe18  1  0.66973732  1.00262820  1.00260824  1
  Fe  Fe19  1  0.83660346  0.16940927  0.16943582  1
  Fe  Fe20  1  0.66932065  0.00424253  0.33632052  1
  Ni  Ni21  1  0.66977877  0.33690133  0.00346129  1
  Fe  Fe22  1  0.83637059  0.50166043  0.16848686  1
  Fe  Fe23  1  0.67078171  0.33399992  0.33559489  1
  Ni  Ni24  1  0.67002774  0.66904412  1.00234042  1
  Fe  Fe25  1  0.83649444  0.83737424  0.16777711  1
  Cr  Cr26  1  0.66972221  0.66952408  0.33677338  1
  Ni  Ni27  1  0.16873308  0.16811397  0.50255133  1
  Fe  Fe28  1  0.00282737  0.00290647  0.66940326  1
  Fe  Fe29  1  0.16973983  0.17014119  0.83491039  1
  Cr  Cr30  1  0.16767001  0.50075816  0.50239510  1
  Fe  Fe31  1  1.00185191  0.33660425  0.66910157  1
  Fe  Fe32  1  0.16983506  0.50258929  0.83671656  1
  Fe  Fe33  1  0.16961653  0.83876933  0.50222331  1
  Ni  Ni34  1  0.99958679  0.67079175  0.66964921  1
  Fe  Fe35  1  0.16840712  0.83571483  0.83671846  1
  Fe  Fe36  1  0.50232455  0.16851981  0.50299139  1
  Fe  Fe37  1  0.33685005  0.00395544  0.66882238  1
  Fe  Fe38  1  0.50350128  0.17072115  0.83549927  1
  Cr  Cr39  1  0.50463710  0.50276508  0.50311603  1
  Ni  Ni40  1  0.33656892  0.33175454  0.67083653  1
  Fe  Fe41  1  0.50364825  0.50224910  0.83707277  1
  Ni  Ni42  1  0.50332564  0.83894347  0.50217064  1
  Cr  Cr43  1  0.33624967  0.67130855  0.66989814  1
  Ni  Ni44  1  0.50450180  0.83569447  0.83700589  1
  Fe  Fe45  1  0.83615790  0.17031533  0.50265932  1
  Fe  Fe46  1  0.66877798  1.00208697  0.66952582  1
  Fe  Fe47  1  0.83521106  0.16930780  0.83635625  1
  Ni  Ni48  1  0.83615365  0.50114218  0.50483274  1
  Ni  Ni49  1  0.67015193  0.33576386  0.66907711  1
  Fe  Fe50  1  0.83497561  0.50357566  0.83534078  1
  Fe  Fe51  1  0.83614423  0.83662473  0.50474990  1
  Ni  Ni52  1  0.67295649  0.66979788  0.66977675  1
  Fe  Fe53  1  0.83556023  0.83557031  0.83593274  1
" 