6088,Ni28Fe9Cr61_7,-214.532226413378, 157.786655395272,Ni28Fe9Cr61,"# generated using pymatgen
 data_Cr34(FeNi3)5
_symmetry_space_group_name_H-M   'P 1'
_cell_length_a   7.53904222
_cell_length_b   7.53904222
_cell_length_c   10.66181576
_cell_angle_alpha   90.00000000
_cell_angle_beta   90.00000000
_cell_angle_gamma   90.00000000
_symmetry_Int_Tables_number   1
_chemical_formula_structural   Cr34(FeNi3)5
_chemical_formula_sum   'Cr34 Fe5 Ni15'
_cell_volume   605.98730264
_cell_formula_units_Z   1
loop_
 _symmetry_equiv_pos_site_id
 _symmetry_equiv_pos_as_xyz
  1  'x, y, z'
loop_
 _atom_site_type_symbol
 _atom_site_label
 _atom_site_symmetry_multiplicity
 _atom_site_fract_x
 _atom_site_fract_y
 _atom_site_fract_z
 _atom_site_occupancy
  Cr  Cr0  1  0.99337980  -0.00394222  -0.00264508  1
  Fe  Fe1  1  0.16228882  0.16009244  0.16165906  1
  Ni  Ni2  1  -0.00377295  -0.00290645  0.32676447  1
  Cr  Cr3  1  -0.00452055  0.32956012  0.99519802  1
  Cr  Cr4  1  0.16294741  0.49441463  0.15876134  1
  Cr  Cr5  1  0.99432273  0.32633318  0.32783235  1
  Ni  Ni6  1  -0.00447833  0.66031389  0.99299328  1
  Cr  Cr7  1  0.16187588  0.83067818  0.16298509  1
  Cr  Cr8  1  -0.00430541  0.66105103  0.32925159  1
  Ni  Ni9  1  0.32996304  -0.00364384  0.99430533  1
  Cr  Cr10  1  0.49341477  0.16155484  0.15916972  1
  Ni  Ni11  1  0.32792220  -0.00280589  0.32956710  1
  Ni  Ni12  1  0.32670227  0.32639195  -0.00470957  1
  Cr  Cr13  1  0.49534990  0.49485204  0.16260768  1
  Cr  Cr14  1  0.32856623  0.32643458  0.32765677  1
  Cr  Cr15  1  0.32645495  0.66191611  0.99256748  1
  Cr  Cr16  1  0.49475300  0.82905259  0.16117301  1
  Cr  Cr17  1  0.32881248  0.66260272  0.32936910  1
  Ni  Ni18  1  0.65977346  -0.00458195  0.99501485  1
  Ni  Ni19  1  0.82982540  0.16017360  0.16172762  1
  Cr  Cr20  1  0.66185730  -0.00187780  0.32774352  1
  Cr  Cr21  1  0.66331165  0.32535167  -0.00404226  1
  Cr  Cr22  1  0.82759564  0.49627220  0.16248228  1
  Cr  Cr23  1  0.66295678  0.32671703  0.32967100  1
  Cr  Cr24  1  0.66227430  0.66357196  0.99347957  1
  Cr  Cr25  1  0.82896577  0.82919319  0.16198789  1
  Fe  Fe26  1  0.66296572  0.66241693  0.32987160  1
  Cr  Cr27  1  0.16305795  0.16044933  0.49664838  1
  Ni  Ni28  1  -0.00397373  -0.00388253  0.66103552  1
  Cr  Cr29  1  0.16315489  0.16300295  0.82656015  1
  Cr  Cr30  1  0.16093903  0.49295355  0.49764545  1
  Fe  Fe31  1  0.99336469  0.32964993  0.66255527  1
  Fe  Fe32  1  0.16159296  0.49334267  0.82864317  1
  Cr  Cr33  1  0.16068386  0.83226866  0.49458959  1
  Cr  Cr34  1  0.99513208  0.66135521  0.66389782  1
  Cr  Cr35  1  0.16160832  0.83162656  0.82852393  1
  Ni  Ni36  1  0.49337811  0.16246440  0.49754889  1
  Fe  Fe37  1  0.33013220  -0.00386927  0.66205608  1
  Cr  Cr38  1  0.49366187  0.16220687  0.82881547  1
  Cr  Cr39  1  0.49784957  0.49328337  0.49432021  1
  Ni  Ni40  1  0.32996241  0.32765390  0.66151407  1
  Cr  Cr41  1  0.49666923  0.49292053  0.82859715  1
  Cr  Cr42  1  0.49525313  0.82935662  0.49516873  1
  Cr  Cr43  1  0.32959230  0.66221134  0.66357850  1
  Ni  Ni44  1  0.49474663  0.82946066  0.82912915  1
  Cr  Cr45  1  0.82952227  0.16280344  0.49809784  1
  Cr  Cr46  1  0.66087387  0.99512057  0.66374131  1
  Cr  Cr47  1  0.82868843  0.16361976  0.82707366  1
  Ni  Ni48  1  0.82663840  0.49485427  0.49734181  1
  Ni  Ni49  1  0.66087656  0.33035083  0.66059530  1
  Ni  Ni50  1  0.82943681  0.49512627  0.82632287  1
  Cr  Cr51  1  0.82970909  0.82739920  0.49437648  1
  Ni  Ni52  1  0.66264841  0.65915030  0.66174071  1
  Cr  Cr53  1  0.82775998  0.82809551  0.82960127  1
" 