6704,Ni28Fe9Cr61_1,-214.827325209881, 162.366632816513,Ni28Fe9Cr61,"# generated using pymatgen
 data_Cr34(FeNi3)5
_symmetry_space_group_name_H-M   'P 1'
_cell_length_a   7.53399551
_cell_length_b   7.53399551
_cell_length_c   10.65467862
_cell_angle_alpha   90.00000000
_cell_angle_beta   90.00000000
_cell_angle_gamma   90.00000000
_symmetry_Int_Tables_number   1
_chemical_formula_structural   Cr34(FeNi3)5
_chemical_formula_sum   'Cr34 Fe5 Ni15'
_cell_volume   604.77115409
_cell_formula_units_Z   1
loop_
 _symmetry_equiv_pos_site_id
 _symmetry_equiv_pos_as_xyz
  1  'x, y, z'
loop_
 _atom_site_type_symbol
 _atom_site_label
 _atom_site_symmetry_multiplicity
 _atom_site_fract_x
 _atom_site_fract_y
 _atom_site_fract_z
 _atom_site_occupancy
  Cr  Cr0  1  -0.00347022  -0.00386092  0.99219370  1
  Cr  Cr1  1  0.16393638  0.16425927  0.15925174  1
  Cr  Cr2  1  0.99502095  -0.00403447  0.32856569  1
  Ni  Ni3  1  -0.00431413  0.32971119  0.99403894  1
  Cr  Cr4  1  0.16456339  0.49618771  0.16308031  1
  Cr  Cr5  1  0.99471425  0.33136693  0.32939363  1
  Cr  Cr6  1  0.99519753  0.66075862  -0.00357260  1
  Cr  Cr7  1  0.16541067  0.82611265  0.16340831  1
  Fe  Fe8  1  -0.00352319  0.65988425  0.32909283  1
  Cr  Cr9  1  0.32941457  -0.00384084  0.99508995  1
  Ni  Ni10  1  0.49735404  0.16640528  0.16194386  1
  Cr  Cr11  1  0.33220559  -0.00344722  0.32966869  1
  Ni  Ni12  1  0.33045344  0.33119833  -0.00408447  1
  Ni  Ni13  1  0.49527629  0.49447583  0.15984340  1
  Cr  Cr14  1  0.33199897  0.33054699  0.32959186  1
  Ni  Ni15  1  0.33060651  0.65924912  -0.00428135  1
  Ni  Ni16  1  0.49371119  0.82576221  0.16283261  1
  Ni  Ni17  1  0.33107805  0.66051304  0.32935106  1
  Cr  Cr18  1  0.66078755  0.99545698  -0.00120215  1
  Cr  Cr19  1  0.82743883  0.16539693  0.16079844  1
  Cr  Cr20  1  0.65948029  -0.00293533  0.32815507  1
  Ni  Ni21  1  0.66024631  0.33144643  -0.00272462  1
  Fe  Fe22  1  0.82612798  0.49305720  0.16133101  1
  Ni  Ni23  1  0.66067096  0.33045400  0.32777952  1
  Cr  Cr24  1  0.66006209  0.65978882  -0.00364489  1
  Cr  Cr25  1  0.82927099  0.82778151  0.16329194  1
  Cr  Cr26  1  0.66060422  0.65982006  0.32677727  1
  Cr  Cr27  1  0.16243872  0.16442754  0.49599172  1
  Cr  Cr28  1  -0.00213191  -0.00326469  0.66566005  1
  Ni  Ni29  1  0.16268821  0.16524705  0.83057614  1
  Ni  Ni30  1  0.16226567  0.49676779  0.49424465  1
  Fe  Fe31  1  -0.00318360  0.33019417  0.66300632  1
  Cr  Cr32  1  0.16447649  0.49485145  0.83066662  1
  Cr  Cr33  1  0.16458190  0.82546911  0.49238478  1
  Cr  Cr34  1  -0.00435958  0.66071311  0.66153376  1
  Ni  Ni35  1  0.16448205  0.82826010  0.83046625  1
  Ni  Ni36  1  0.49788715  0.16320792  0.49469126  1
  Cr  Cr37  1  0.32869498  -0.00311505  0.66141361  1
  Cr  Cr38  1  0.49581622  0.16606507  0.83017550  1
  Cr  Cr39  1  0.49532839  0.49601326  0.49740368  1
  Cr  Cr40  1  0.32769197  0.32878654  0.66138857  1
  Fe  Fe41  1  0.49476990  0.49434405  0.83065339  1
  Ni  Ni42  1  0.49559546  0.82773600  0.49508999  1
  Cr  Cr43  1  0.32999916  0.66081430  0.66276890  1
  Cr  Cr44  1  0.49436800  0.82538770  0.82867339  1
  Cr  Cr45  1  0.82635686  0.16435665  0.49720084  1
  Cr  Cr46  1  0.65996593  0.99388816  0.65972564  1
  Cr  Cr47  1  0.82780797  0.16515025  0.82870845  1
  Cr  Cr48  1  0.82890664  0.49469890  0.49605553  1
  Fe  Fe49  1  0.66028496  0.33010310  0.66197491  1
  Cr  Cr50  1  0.82528523  0.49360537  0.82824186  1
  Cr  Cr51  1  0.82726853  0.82774084  0.49555376  1
  Ni  Ni52  1  0.66106725  0.65922532  0.66235957  1
  Cr  Cr53  1  0.82739900  0.82788657  0.82749622  1
" 