4795,Ni28Fe72_2,-243.607704465032, 218.529942842352,Ni28Fe72,"# generated using pymatgen
 data_Fe5Ni13
_symmetry_space_group_name_H-M   'P 1'
_cell_length_a   7.41538179
_cell_length_b   7.41538179
_cell_length_c   10.48693349
_cell_angle_alpha   90.00000000
_cell_angle_beta   90.00000000
_cell_angle_gamma   90.00000000
_symmetry_Int_Tables_number   1
_chemical_formula_structural   Fe5Ni13
_chemical_formula_sum   'Fe15 Ni39'
_cell_volume   576.65431419
_cell_formula_units_Z   3
loop_
 _symmetry_equiv_pos_site_id
 _symmetry_equiv_pos_as_xyz
  1  'x, y, z'
loop_
 _atom_site_type_symbol
 _atom_site_label
 _atom_site_symmetry_multiplicity
 _atom_site_fract_x
 _atom_site_fract_y
 _atom_site_fract_z
 _atom_site_occupancy
  Fe  Fe0  1  0.00413327  0.00410442  0.00362917  1
  Ni  Ni1  1  0.17146558  0.17022737  0.16882012  1
  Ni  Ni2  1  1.00259381  1.00333455  0.33609626  1
  Ni  Ni3  1  1.00306895  0.33894696  0.00413780  1
  Ni  Ni4  1  0.17056328  0.50431944  0.17029820  1
  Ni  Ni5  1  1.00319975  0.33739443  0.33679699  1
  Ni  Ni6  1  0.00428302  0.66936353  0.00379688  1
  Ni  Ni7  1  0.16988094  0.83595703  0.17026680  1
  Ni  Ni8  1  0.00454526  0.66976883  0.33741416  1
  Ni  Ni9  1  0.33856970  1.00289303  1.00346773  1
  Ni  Ni10  1  0.50359707  0.17041655  0.17091129  1
  Fe  Fe11  1  0.33533046  0.00490539  0.33649418  1
  Ni  Ni12  1  0.33703145  0.33720365  0.00394735  1
  Fe  Fe13  1  0.50393421  0.50252820  0.17048967  1
  Fe  Fe14  1  0.33564618  0.33588311  0.33731985  1
  Ni  Ni15  1  0.33574796  0.67046896  1.00307553  1
  Fe  Fe16  1  0.50367060  0.83735716  0.16983792  1
  Fe  Fe17  1  0.33658870  0.66965027  0.33622236  1
  Ni  Ni18  1  0.66899119  0.00359682  0.00381864  1
  Ni  Ni19  1  0.83529595  0.16992241  0.17023694  1
  Ni  Ni20  1  0.66908814  1.00344124  0.33718381  1
  Ni  Ni21  1  0.67020395  0.33570468  1.00310279  1
  Ni  Ni22  1  0.83676946  0.50431941  0.17037560  1
  Ni  Ni23  1  0.66995622  0.33618874  0.33799049  1
  Fe  Fe24  1  0.67028911  0.66900440  1.00253897  1
  Ni  Ni25  1  0.83694409  0.83611294  0.16914496  1
  Fe  Fe26  1  0.67312042  0.66985263  0.33818680  1
  Ni  Ni27  1  0.17077894  0.17025034  0.50411001  1
  Ni  Ni28  1  1.00301348  1.00306656  0.67042389  1
  Fe  Fe29  1  0.16871591  0.17056540  0.83663590  1
  Ni  Ni30  1  0.17109990  0.50422428  0.50354208  1
  Ni  Ni31  1  0.00442944  0.33795878  0.66925124  1
  Ni  Ni32  1  0.17063158  0.50484073  0.83676314  1
  Fe  Fe33  1  0.16903482  0.83750122  0.50372382  1
  Ni  Ni34  1  1.00265825  0.66954374  0.66929569  1
  Ni  Ni35  1  0.17015349  0.83581786  0.83618916  1
  Ni  Ni36  1  0.50310204  0.17025528  0.50360108  1
  Ni  Ni37  1  0.33794351  0.00412998  0.66972589  1
  Ni  Ni38  1  0.50283995  0.17010521  0.83622921  1
  Ni  Ni39  1  0.50260776  0.50287803  0.50430209  1
  Ni  Ni40  1  0.33652879  0.33675330  0.67036381  1
  Fe  Fe41  1  0.50401130  0.50313859  0.83627588  1
  Fe  Fe42  1  0.50417822  0.83665881  0.50372722  1
  Fe  Fe43  1  0.33596890  0.67052134  0.67057673  1
  Fe  Fe44  1  0.50421729  0.83727373  0.83673473  1
  Ni  Ni45  1  0.83640019  0.16892950  0.50376535  1
  Ni  Ni46  1  0.66938897  1.00211879  0.66949644  1
  Ni  Ni47  1  0.83409743  0.16955761  0.83646951  1
  Ni  Ni48  1  0.83681399  0.50435112  0.50404498  1
  Fe  Fe49  1  0.67120820  0.33604893  0.66969448  1
  Ni  Ni50  1  0.83800761  0.50402230  0.83610787  1
  Ni  Ni51  1  0.83721784  0.83704444  0.50379501  1
  Ni  Ni52  1  0.67069290  0.67098869  0.67010677  1
  Ni  Ni53  1  0.83786996  0.83670876  0.83756622  1
" 