6390,Ni28Fe61Cr10_1,-232.574637540847, 195.125997501628,Ni28Fe61Cr10,"# generated using pymatgen
 data_Cr2Fe11Ni5
_symmetry_space_group_name_H-M   'P 1'
_cell_length_a   7.41813134
_cell_length_b   7.41813134
_cell_length_c   10.49082194
_cell_angle_alpha   90.00000000
_cell_angle_beta   90.00000000
_cell_angle_gamma   90.00000000
_symmetry_Int_Tables_number   1
_chemical_formula_structural   Cr2Fe11Ni5
_chemical_formula_sum   'Cr6 Fe33 Ni15'
_cell_volume   577.29600519
_cell_formula_units_Z   3
loop_
 _symmetry_equiv_pos_site_id
 _symmetry_equiv_pos_as_xyz
  1  'x, y, z'
loop_
 _atom_site_type_symbol
 _atom_site_label
 _atom_site_symmetry_multiplicity
 _atom_site_fract_x
 _atom_site_fract_y
 _atom_site_fract_z
 _atom_site_occupancy
  Ni  Ni0  1  0.00453155  0.00496522  0.00349964  1
  Fe  Fe1  1  0.17095382  0.16974918  0.16882131  1
  Fe  Fe2  1  1.00233925  1.00095416  0.33660068  1
  Fe  Fe3  1  0.00470466  0.33650705  1.00271807  1
  Ni  Ni4  1  0.17255122  0.50441305  0.17020029  1
  Cr  Cr5  1  0.00455232  0.33709840  0.33629251  1
  Cr  Cr6  1  0.00454428  0.66970931  1.00309691  1
  Ni  Ni7  1  0.16884288  0.83541228  0.16981744  1
  Fe  Fe8  1  1.00309283  0.67215273  0.33569344  1
  Fe  Fe9  1  0.33543738  0.00333918  0.00415012  1
  Fe  Fe10  1  0.50250893  0.17049709  0.16951306  1
  Cr  Cr11  1  0.33713360  0.00362112  0.33606954  1
  Fe  Fe12  1  0.33646350  0.33753785  1.00312203  1
  Ni  Ni13  1  0.50122562  0.50281207  0.17088667  1
  Fe  Fe14  1  0.33848530  0.33743088  0.33661974  1
  Ni  Ni15  1  0.33629711  0.66888938  0.00438835  1
  Fe  Fe16  1  0.50302597  0.83579247  0.17033081  1
  Fe  Fe17  1  0.33683939  0.66877701  0.33603772  1
  Fe  Fe18  1  0.67022454  0.00418797  0.00376482  1
  Cr  Cr19  1  0.83593589  0.16765145  0.16961018  1
  Ni  Ni20  1  0.66996470  1.00219935  0.33726066  1
  Fe  Fe21  1  0.66872440  0.33620842  1.00231838  1
  Fe  Fe22  1  0.83637428  0.50480821  0.17085672  1
  Fe  Fe23  1  0.66723340  0.33667147  0.33725156  1
  Cr  Cr24  1  0.66867899  0.66882252  0.00421320  1
  Ni  Ni25  1  0.83741704  0.83804880  0.17198400  1
  Fe  Fe26  1  0.66996328  0.67061660  0.33668958  1
  Ni  Ni27  1  0.16955104  0.17034432  0.50447529  1
  Fe  Fe28  1  0.00354373  1.00253899  0.67025181  1
  Fe  Fe29  1  0.17059602  0.17044611  0.83638916  1
  Fe  Fe30  1  0.17168781  0.50366933  0.50419151  1
  Fe  Fe31  1  0.00373395  0.33766629  0.66968466  1
  Ni  Ni32  1  0.17049022  0.50295909  0.83589181  1
  Fe  Fe33  1  0.17044065  0.83671024  0.50383161  1
  Fe  Fe34  1  0.00337415  0.66968703  0.67033331  1
  Fe  Fe35  1  0.17038501  0.83670645  0.83666987  1
  Ni  Ni36  1  0.50426193  0.17010605  0.50376721  1
  Fe  Fe37  1  0.33682558  0.00360780  0.66845861  1
  Ni  Ni38  1  0.50447177  0.17142812  0.83696479  1
  Fe  Fe39  1  0.50288225  0.50335512  0.50371144  1
  Fe  Fe40  1  0.33723826  0.33720186  0.67015261  1
  Ni  Ni41  1  0.50182902  0.50138024  0.83523113  1
  Ni  Ni42  1  0.50479857  0.83622134  0.50370081  1
  Ni  Ni43  1  0.33684949  0.66921408  0.66933869  1
  Cr  Cr44  1  0.50275718  0.83651650  0.83686559  1
  Fe  Fe45  1  0.83538338  0.16863350  0.50351212  1
  Fe  Fe46  1  0.66953023  1.00324446  0.66853858  1
  Fe  Fe47  1  0.83629058  0.17051198  0.83719996  1
  Fe  Fe48  1  0.83532406  0.50362749  0.50425038  1
  Fe  Fe49  1  0.66891800  0.33737336  0.67032212  1
  Fe  Fe50  1  0.83572185  0.50164343  0.83478411  1
  Fe  Fe51  1  0.83569639  0.83762562  0.50280658  1
  Ni  Ni52  1  0.66982738  0.66901154  0.66922184  1
  Fe  Fe53  1  0.83758740  0.83773849  0.83568902  1
" 