3793,Ni28Fe72_14,-243.683564405295, 219.970528489589,Ni28Fe72,"# generated using pymatgen
 data_Fe5Ni13
_symmetry_space_group_name_H-M   'P 1'
_cell_length_a   7.41812491
_cell_length_b   7.41812491
_cell_length_c   10.49081285
_cell_angle_alpha   90.00000000
_cell_angle_beta   90.00000000
_cell_angle_gamma   90.00000000
_symmetry_Int_Tables_number   1
_chemical_formula_structural   Fe5Ni13
_chemical_formula_sum   'Fe15 Ni39'
_cell_volume   577.29450438
_cell_formula_units_Z   3
loop_
 _symmetry_equiv_pos_site_id
 _symmetry_equiv_pos_as_xyz
  1  'x, y, z'
loop_
 _atom_site_type_symbol
 _atom_site_label
 _atom_site_symmetry_multiplicity
 _atom_site_fract_x
 _atom_site_fract_y
 _atom_site_fract_z
 _atom_site_occupancy
  Ni  Ni0  1  1.00153309  0.00352739  0.00348479  1
  Ni  Ni1  1  0.16874399  0.16996939  0.16999051  1
  Ni  Ni2  1  1.00176757  0.00343280  0.33645036  1
  Ni  Ni3  1  1.00307349  0.33552641  1.00312544  1
  Ni  Ni4  1  0.17072974  0.50380570  0.17009679  1
  Ni  Ni5  1  0.00427568  0.33594924  0.33656585  1
  Fe  Fe6  1  0.00353942  0.66968515  0.00339985  1
  Ni  Ni7  1  0.16945365  0.83611609  0.17074913  1
  Ni  Ni8  1  0.00374177  0.67050886  0.33595994  1
  Fe  Fe9  1  0.33688186  0.00402884  1.00282240  1
  Ni  Ni10  1  0.50442490  0.17061440  0.17044297  1
  Fe  Fe11  1  0.33566524  1.00271692  0.33678755  1
  Ni  Ni12  1  0.33730311  0.33835429  1.00272465  1
  Ni  Ni13  1  0.50278874  0.50349565  0.16962978  1
  Ni  Ni14  1  0.33625102  0.33793102  0.33654586  1
  Ni  Ni15  1  0.33726708  0.66927630  0.00347043  1
  Ni  Ni16  1  0.50339996  0.83578522  0.17021094  1
  Ni  Ni17  1  0.33714395  0.66889114  0.33680276  1
  Ni  Ni18  1  0.67107170  0.00355365  1.00281260  1
  Ni  Ni19  1  0.83672085  0.16935129  0.16995068  1
  Ni  Ni20  1  0.67098714  1.00255232  0.33664524  1
  Ni  Ni21  1  0.66952779  0.33551955  0.00433986  1
  Fe  Fe22  1  0.83696202  0.50318701  0.16962623  1
  Fe  Fe23  1  0.67024505  0.33698813  0.33660286  1
  Fe  Fe24  1  0.66948126  0.66936341  0.00374479  1
  Ni  Ni25  1  0.83703201  0.83776216  0.16966263  1
  Ni  Ni26  1  0.66901265  0.67138373  0.33608854  1
  Ni  Ni27  1  0.16809612  0.16949317  0.50384208  1
  Ni  Ni28  1  1.00293857  1.00296402  0.66995177  1
  Fe  Fe29  1  0.17023626  0.17015302  0.83630405  1
  Ni  Ni30  1  0.17092699  0.50413338  0.50415653  1
  Ni  Ni31  1  1.00270543  0.33626518  0.67020941  1
  Fe  Fe32  1  0.17066623  0.50317794  0.83644425  1
  Ni  Ni33  1  0.16966764  0.83626290  0.50274495  1
  Ni  Ni34  1  0.00400284  0.67066211  0.67012645  1
  Ni  Ni35  1  0.17041626  0.83643634  0.83639367  1
  Fe  Fe36  1  0.50198450  0.17072541  0.50368590  1
  Ni  Ni37  1  0.33661772  1.00257968  0.67024517  1
  Ni  Ni38  1  0.50471417  0.17051185  0.83594467  1
  Ni  Ni39  1  0.50288398  0.50380221  0.50383624  1
  Ni  Ni40  1  0.33756529  0.33734365  0.67063131  1
  Ni  Ni41  1  0.50398056  0.50329762  0.83643417  1
  Fe  Fe42  1  0.50215936  0.83640882  0.50304657  1
  Ni  Ni43  1  0.33665990  0.66997266  0.66962383  1
  Ni  Ni44  1  0.50183521  0.83608348  0.83620361  1
  Ni  Ni45  1  0.83731097  0.16980640  0.50349706  1
  Fe  Fe46  1  0.66989887  0.00436682  0.67046084  1
  Ni  Ni47  1  0.83636951  0.17102405  0.83645338  1
  Fe  Fe48  1  0.83819039  0.50286957  0.50402647  1
  Ni  Ni49  1  0.66962974  0.33628942  0.66976812  1
  Ni  Ni50  1  0.83601189  0.50168814  0.83615155  1
  Fe  Fe51  1  0.83809062  0.83660131  0.50205965  1
  Fe  Fe52  1  0.66946963  0.66881861  0.66994101  1
  Fe  Fe53  1  0.83601222  0.83705178  0.83714945  1
" 