903,Ni28Fe9Cr61_18,-214.569523715299, 157.913532298446,Ni28Fe9Cr61,"# generated using pymatgen
 data_Cr34(FeNi3)5
_symmetry_space_group_name_H-M   'P 1'
_cell_length_a   7.54133258
_cell_length_b   7.54133258
_cell_length_c   10.66505482
_cell_angle_alpha   90.00000000
_cell_angle_beta   90.00000000
_cell_angle_gamma   90.00000000
_symmetry_Int_Tables_number   1
_chemical_formula_structural   Cr34(FeNi3)5
_chemical_formula_sum   'Cr34 Fe5 Ni15'
_cell_volume   606.53976754
_cell_formula_units_Z   1
loop_
 _symmetry_equiv_pos_site_id
 _symmetry_equiv_pos_as_xyz
  1  'x, y, z'
loop_
 _atom_site_type_symbol
 _atom_site_label
 _atom_site_symmetry_multiplicity
 _atom_site_fract_x
 _atom_site_fract_y
 _atom_site_fract_z
 _atom_site_occupancy
  Fe  Fe0  1  0.99505898  -0.00422510  -0.00228953  1
  Fe  Fe1  1  0.16363016  0.16134893  0.16296942  1
  Cr  Cr2  1  -0.00302270  -0.00387483  0.32658675  1
  Cr  Cr3  1  0.99471951  0.32680744  -0.00320090  1
  Cr  Cr4  1  0.16419278  0.49381656  0.16291556  1
  Cr  Cr5  1  0.99419585  0.32732497  0.33179968  1
  Cr  Cr6  1  0.99403740  0.66320737  -0.00137961  1
  Ni  Ni7  1  0.16264536  0.83050792  0.16270832  1
  Cr  Cr8  1  0.99377851  0.66240711  0.32717792  1
  Cr  Cr9  1  0.32674894  0.99504056  -0.00169528  1
  Ni  Ni10  1  0.49233802  0.16174286  0.16430375  1
  Ni  Ni11  1  0.32910343  -0.00266850  0.32677307  1
  Ni  Ni12  1  0.32883760  0.32519768  -0.00311717  1
  Cr  Cr13  1  0.49433212  0.49030519  0.16423181  1
  Ni  Ni14  1  0.33055625  0.32474552  0.32795993  1
  Cr  Cr15  1  0.33016352  0.66135454  -0.00445298  1
  Cr  Cr16  1  0.49774191  0.82974217  0.16728379  1
  Fe  Fe17  1  0.33021488  0.66147142  0.32828045  1
  Cr  Cr18  1  0.66218880  0.99476112  -0.00388687  1
  Cr  Cr19  1  0.82249528  0.16178756  0.16248360  1
  Ni  Ni20  1  0.66081914  -0.00359376  0.32726470  1
  Cr  Cr21  1  0.66069440  0.32919007  0.99222423  1
  Cr  Cr22  1  0.82651233  0.49540846  0.16560075  1
  Ni  Ni23  1  0.65844348  0.32861645  0.33070357  1
  Cr  Cr24  1  0.66281364  0.66098529  0.99432995  1
  Ni  Ni25  1  0.83034234  0.83127190  0.16353085  1
  Ni  Ni26  1  0.66143517  0.66076174  0.32933746  1
  Fe  Fe27  1  0.16282261  0.16241582  0.49221931  1
  Cr  Cr28  1  0.99461248  -0.00119527  0.65964195  1
  Cr  Cr29  1  0.16104801  0.16317186  0.82954917  1
  Cr  Cr30  1  0.16263845  0.49541867  0.49419830  1
  Cr  Cr31  1  0.99259508  0.32840942  0.65651421  1
  Cr  Cr32  1  0.16083008  0.49447619  0.82909974  1
  Cr  Cr33  1  0.16215528  0.82738137  0.49696740  1
  Ni  Ni34  1  0.99230192  0.65933715  0.66128982  1
  Cr  Cr35  1  0.16025527  0.82739825  0.82603523  1
  Cr  Cr36  1  0.49666186  0.16185436  0.49100460  1
  Cr  Cr37  1  0.32806022  -0.00336466  0.65898983  1
  Cr  Cr38  1  0.49556805  0.16215761  0.83046414  1
  Ni  Ni39  1  0.49584133  0.49277083  0.49084307  1
  Cr  Cr40  1  0.33021278  0.32832758  0.66093370  1
  Fe  Fe41  1  0.49561797  0.49334044  0.82938723  1
  Cr  Cr42  1  0.49591117  0.82893824  0.49146734  1
  Cr  Cr43  1  0.33079644  0.66038830  0.66147198  1
  Cr  Cr44  1  0.49524522  0.82986866  0.82561361  1
  Ni  Ni45  1  0.82582333  0.16383740  0.49245788  1
  Cr  Cr46  1  0.66291486  -0.00190024  0.66135166  1
  Ni  Ni47  1  0.82918746  0.16485965  0.82896363  1
  Ni  Ni48  1  0.82520970  0.49317548  0.49348972  1
  Cr  Cr49  1  0.66292887  0.32946381  0.66199271  1
  Ni  Ni50  1  0.83032219  0.49344934  0.82693209  1
  Cr  Cr51  1  0.82746741  0.82889398  0.49424811  1
  Cr  Cr52  1  0.66208385  0.65778265  0.66204045  1
  Cr  Cr53  1  0.82991082  0.82994226  0.82842969  1
" 