6770,Ni28Fe61Cr10_5,-233.119982869929, 190.141629007934,Ni28Fe61Cr10,"# generated using pymatgen
 data_Cr2Fe11Ni5
_symmetry_space_group_name_H-M   'P 1'
_cell_length_a   7.42474090
_cell_length_b   7.42474090
_cell_length_c   10.50016928
_cell_angle_alpha   90.00000000
_cell_angle_beta   90.00000000
_cell_angle_gamma   90.00000000
_symmetry_Int_Tables_number   1
_chemical_formula_structural   Cr2Fe11Ni5
_chemical_formula_sum   'Cr6 Fe33 Ni15'
_cell_volume   578.84049578
_cell_formula_units_Z   3
loop_
 _symmetry_equiv_pos_site_id
 _symmetry_equiv_pos_as_xyz
  1  'x, y, z'
loop_
 _atom_site_type_symbol
 _atom_site_label
 _atom_site_symmetry_multiplicity
 _atom_site_fract_x
 _atom_site_fract_y
 _atom_site_fract_z
 _atom_site_occupancy
  Ni  Ni0  1  1.00266373  0.00288437  0.00337002  1
  Ni  Ni1  1  0.16963562  0.17014434  0.16835405  1
  Cr  Cr2  1  0.00385217  0.00460491  0.33557889  1
  Ni  Ni3  1  0.00449755  0.33556440  0.00313536  1
  Ni  Ni4  1  0.16963798  0.50350805  0.16890756  1
  Ni  Ni5  1  1.00199264  0.33645574  0.33715477  1
  Fe  Fe6  1  0.00385126  0.67031144  1.00231275  1
  Fe  Fe7  1  0.16992329  0.83548227  0.16948294  1
  Fe  Fe8  1  0.00319037  0.66783833  0.33689325  1
  Cr  Cr9  1  0.33471731  0.00360410  1.00239471  1
  Ni  Ni10  1  0.50365579  0.16807075  0.16951520  1
  Ni  Ni11  1  0.33684886  1.00119708  0.33694515  1
  Fe  Fe12  1  0.33489888  0.33670250  0.00336701  1
  Fe  Fe13  1  0.50171218  0.50274838  0.16914998  1
  Cr  Cr14  1  0.33559896  0.33570256  0.33513086  1
  Fe  Fe15  1  0.33506919  0.66783239  0.00294861  1
  Fe  Fe16  1  0.50273470  0.83573352  0.17069479  1
  Fe  Fe17  1  0.33628572  0.67043736  0.33591150  1
  Fe  Fe18  1  0.67098473  1.00271996  0.00316250  1
  Fe  Fe19  1  0.83634084  0.16974215  0.16893004  1
  Fe  Fe20  1  0.66788567  0.00381079  0.33660561  1
  Fe  Fe21  1  0.66850692  0.33539442  0.00349365  1
  Cr  Cr22  1  0.83719587  0.50230655  0.17004052  1
  Ni  Ni23  1  0.67034894  0.33743356  0.33720995  1
  Fe  Fe24  1  0.66962856  0.67042965  1.00248033  1
  Fe  Fe25  1  0.83588539  0.83728962  0.16856522  1
  Ni  Ni26  1  0.66821383  0.66940458  0.33721191  1
  Ni  Ni27  1  0.16988525  0.16977913  0.50387856  1
  Cr  Cr28  1  0.00342419  0.00360608  0.66923448  1
  Ni  Ni29  1  0.17075466  0.17064467  0.83631245  1
  Fe  Fe30  1  0.16736012  0.50229823  0.50322677  1
  Ni  Ni31  1  0.00406449  0.33805656  0.66826076  1
  Fe  Fe32  1  0.16897045  0.50187961  0.83665173  1
  Fe  Fe33  1  0.17034634  0.83543360  0.50265641  1
  Fe  Fe34  1  1.00214916  0.66800790  0.66934541  1
  Fe  Fe35  1  0.16922424  0.83556412  0.83640693  1
  Fe  Fe36  1  0.50427692  0.16889872  0.50293382  1
  Fe  Fe37  1  0.33712875  0.00373680  0.66922696  1
  Fe  Fe38  1  0.50200451  0.16988984  0.83569879  1
  Fe  Fe39  1  0.50450843  0.50280676  0.50316630  1
  Fe  Fe40  1  0.33560818  0.33511666  0.66960986  1
  Fe  Fe41  1  0.50252959  0.50238914  0.83623120  1
  Fe  Fe42  1  0.50343723  0.83683976  0.50271070  1
  Fe  Fe43  1  0.33605573  0.66969423  0.66968644  1
  Fe  Fe44  1  0.50348397  0.83626655  0.83514188  1
  Ni  Ni45  1  0.83512361  0.17210484  0.50174940  1
  Ni  Ni46  1  0.66715889  1.00127409  0.66872789  1
  Cr  Cr47  1  0.83665459  0.17024620  0.83777693  1
  Ni  Ni48  1  0.83616562  0.50253452  0.50344230  1
  Fe  Fe49  1  0.66978851  0.33628552  0.66797081  1
  Fe  Fe50  1  0.83705008  0.50336664  0.83589308  1
  Fe  Fe51  1  0.83476156  0.83521024  0.50295607  1
  Fe  Fe52  1  0.67034096  0.66952418  0.66898038  1
  Fe  Fe53  1  0.83583498  0.83503957  0.83702449  1
" 