1729,Ni28Fe61Cr10_14,-232.866424503579, 193.848928762906,Ni28Fe61Cr10,"# generated using pymatgen
 data_Cr2Fe11Ni5
_symmetry_space_group_name_H-M   'P 1'
_cell_length_a   7.42446925
_cell_length_b   7.42446925
_cell_length_c   10.49978511
_cell_angle_alpha   90.00000000
_cell_angle_beta   90.00000000
_cell_angle_gamma   90.00000000
_symmetry_Int_Tables_number   1
_chemical_formula_structural   Cr2Fe11Ni5
_chemical_formula_sum   'Cr6 Fe33 Ni15'
_cell_volume   578.77696345
_cell_formula_units_Z   3
loop_
 _symmetry_equiv_pos_site_id
 _symmetry_equiv_pos_as_xyz
  1  'x, y, z'
loop_
 _atom_site_type_symbol
 _atom_site_label
 _atom_site_symmetry_multiplicity
 _atom_site_fract_x
 _atom_site_fract_y
 _atom_site_fract_z
 _atom_site_occupancy
  Ni  Ni0  1  1.00219846  0.00412898  0.00319341  1
  Fe  Fe1  1  0.16965028  0.16877611  0.16861331  1
  Ni  Ni2  1  1.00274328  0.00365835  0.33608554  1
  Fe  Fe3  1  0.00305183  0.33442751  0.00301514  1
  Fe  Fe4  1  0.17057418  0.50389301  0.16988691  1
  Fe  Fe5  1  0.00415070  0.33572265  0.33574379  1
  Fe  Fe6  1  1.00228899  0.67105215  0.00429536  1
  Ni  Ni7  1  0.16930001  0.83611104  0.16965685  1
  Fe  Fe8  1  0.00556741  0.67032726  0.33516612  1
  Ni  Ni9  1  0.33542975  0.00297816  0.00344290  1
  Fe  Fe10  1  0.50224984  0.16939364  0.16993087  1
  Fe  Fe11  1  0.33472959  1.00284924  0.33580230  1
  Fe  Fe12  1  0.33651461  0.33502234  0.00311705  1
  Ni  Ni13  1  0.50302339  0.50248794  0.17043501  1
  Fe  Fe14  1  0.33611325  0.33654317  0.33705118  1
  Ni  Ni15  1  0.33865563  0.66936678  0.00391976  1
  Fe  Fe16  1  0.50161398  0.83526119  0.16942566  1
  Ni  Ni17  1  0.33618191  0.66788662  0.33672060  1
  Fe  Fe18  1  0.66962377  1.00235412  1.00225910  1
  Fe  Fe19  1  0.83669832  0.16916328  0.16922205  1
  Fe  Fe20  1  0.66945968  0.00426952  0.33510959  1
  Fe  Fe21  1  0.66903699  0.33580296  0.00303575  1
  Fe  Fe22  1  0.83603124  0.50325799  0.16979566  1
  Fe  Fe23  1  0.66834208  0.33538418  0.33536863  1
  Fe  Fe24  1  0.66903313  0.67044421  1.00276035  1
  Fe  Fe25  1  0.83664904  0.83618421  0.16933103  1
  Fe  Fe26  1  0.66864339  0.66895149  0.33361738  1
  Fe  Fe27  1  0.17083774  0.16991709  0.50295430  1
  Cr  Cr28  1  0.00348076  0.00423366  0.66921781  1
  Ni  Ni29  1  0.17037078  0.17050701  0.83729568  1
  Ni  Ni30  1  0.17066995  0.50316730  0.50241933  1
  Fe  Fe31  1  0.00410442  0.33565348  0.66984609  1
  Cr  Cr32  1  0.16993005  0.50132662  0.83698647  1
  Ni  Ni33  1  0.17056344  0.83464304  0.50235976  1
  Fe  Fe34  1  0.00397698  0.66815978  0.66914437  1
  Cr  Cr35  1  0.17039323  0.83721623  0.83624951  1
  Ni  Ni36  1  0.50277182  0.17089642  0.50294180  1
  Ni  Ni37  1  0.33680315  0.00478663  0.66903212  1
  Fe  Fe38  1  0.50227976  0.16874603  0.83522838  1
  Fe  Fe39  1  0.50011974  0.50155527  0.50233516  1
  Ni  Ni40  1  0.33793061  0.33606625  0.66834177  1
  Fe  Fe41  1  0.50438846  0.50266196  0.83676802  1
  Cr  Cr42  1  0.50060690  0.83793504  0.50279059  1
  Fe  Fe43  1  0.33626936  0.66883987  0.66810837  1
  Fe  Fe44  1  0.50413647  0.83719467  0.83620317  1
  Fe  Fe45  1  0.83590994  0.16992093  0.50209454  1
  Fe  Fe46  1  0.66724554  0.00509839  0.67123050  1
  Ni  Ni47  1  0.83463546  0.16970692  0.83647701  1
  Cr  Cr48  1  0.83739572  0.50151254  0.50344544  1
  Fe  Fe49  1  0.66792970  0.33428638  0.67019991  1
  Fe  Fe50  1  0.83534517  0.50259389  0.83589005  1
  Cr  Cr51  1  0.83758750  0.83704220  0.50174497  1
  Fe  Fe52  1  0.66835554  0.66921894  0.67222830  1
  Ni  Ni53  1  0.83324855  0.83625680  0.83730671  1
" 