6821,Ni28Fe61Cr10_8,-232.883327845183, 195.158189935132,Ni28Fe61Cr10,"# generated using pymatgen
 data_Cr2Fe11Ni5
_symmetry_space_group_name_H-M   'P 1'
_cell_length_a   7.42339598
_cell_length_b   7.42339598
_cell_length_c   10.49826728
_cell_angle_alpha   90.00000000
_cell_angle_beta   90.00000000
_cell_angle_gamma   90.00000000
_symmetry_Int_Tables_number   1
_chemical_formula_structural   Cr2Fe11Ni5
_chemical_formula_sum   'Cr6 Fe33 Ni15'
_cell_volume   578.52599832
_cell_formula_units_Z   3
loop_
 _symmetry_equiv_pos_site_id
 _symmetry_equiv_pos_as_xyz
  1  'x, y, z'
loop_
 _atom_site_type_symbol
 _atom_site_label
 _atom_site_symmetry_multiplicity
 _atom_site_fract_x
 _atom_site_fract_y
 _atom_site_fract_z
 _atom_site_occupancy
  Fe  Fe0  1  1.00205273  0.00431212  0.00368564  1
  Ni  Ni1  1  0.16979434  0.17009500  0.16930874  1
  Fe  Fe2  1  0.00305203  0.00435853  0.33633560  1
  Fe  Fe3  1  1.00224528  0.33452055  0.00414620  1
  Fe  Fe4  1  0.16847285  0.50086448  0.16904904  1
  Ni  Ni5  1  0.00514498  0.33649849  0.33681657  1
  Fe  Fe6  1  1.00127666  0.66998624  0.00403361  1
  Fe  Fe7  1  0.16818359  0.83749276  0.16884885  1
  Ni  Ni8  1  1.00207973  0.66989007  0.33659132  1
  Fe  Fe9  1  0.33736870  0.00455576  0.00349549  1
  Fe  Fe10  1  0.50220627  0.16881760  0.16826191  1
  Fe  Fe11  1  0.33544697  0.00534848  0.33644031  1
  Ni  Ni12  1  0.33690813  0.33600316  0.00417062  1
  Fe  Fe13  1  0.50226482  0.50158817  0.16802598  1
  Ni  Ni14  1  0.33442525  0.33508193  0.33607670  1
  Fe  Fe15  1  0.33831294  0.66957439  0.00455848  1
  Fe  Fe16  1  0.50419542  0.83840894  0.16895142  1
  Cr  Cr17  1  0.33490046  0.66778591  0.33663192  1
  Ni  Ni18  1  0.67014074  1.00240836  1.00189280  1
  Ni  Ni19  1  0.83727053  0.16886569  0.16892562  1
  Ni  Ni20  1  0.67025051  1.00178235  0.33668240  1
  Fe  Fe21  1  0.66898968  0.33546373  0.00296055  1
  Fe  Fe22  1  0.83808216  0.50285591  0.16983614  1
  Cr  Cr23  1  0.66915212  0.33422078  0.33613570  1
  Fe  Fe24  1  0.66922840  0.66976358  1.00264784  1
  Fe  Fe25  1  0.83644042  0.83743354  0.16921704  1
  Fe  Fe26  1  0.67156871  0.67027548  0.33650681  1
  Ni  Ni27  1  0.16976209  0.16994250  0.50146776  1
  Cr  Cr28  1  1.00115115  0.00349668  0.66933261  1
  Fe  Fe29  1  0.16979881  0.16967688  0.83772361  1
  Fe  Fe30  1  0.16648862  0.50183129  0.50296778  1
  Ni  Ni31  1  1.00127097  0.33750706  0.66926507  1
  Cr  Cr32  1  0.16839837  0.50257925  0.83609853  1
  Fe  Fe33  1  0.16834738  0.83612091  0.50329331  1
  Ni  Ni34  1  1.00118707  0.66850284  0.66819569  1
  Cr  Cr35  1  0.17007609  0.83639757  0.83678015  1
  Fe  Fe36  1  0.50339711  0.16848170  0.50305028  1
  Fe  Fe37  1  0.33736219  1.00254729  0.66888305  1
  Ni  Ni38  1  0.50415564  0.16877398  0.83707000  1
  Fe  Fe39  1  0.50381842  0.50254883  0.50343990  1
  Cr  Cr40  1  0.33629057  0.33574925  0.66790635  1
  Fe  Fe41  1  0.50502542  0.50360445  0.83735391  1
  Fe  Fe42  1  0.50434196  0.83778583  0.50340883  1
  Fe  Fe43  1  0.33665585  0.67089134  0.66802367  1
  Fe  Fe44  1  0.50494664  0.83688298  0.83646091  1
  Ni  Ni45  1  0.83674566  0.17068955  0.50324102  1
  Fe  Fe46  1  0.66908060  0.00330825  0.66996724  1
  Fe  Fe47  1  0.83526908  0.16975727  0.83703897  1
  Ni  Ni48  1  0.83737067  0.50371987  0.50405381  1
  Fe  Fe49  1  0.67240671  0.33651768  0.66927212  1
  Fe  Fe50  1  0.83509836  0.50328790  0.83516769  1
  Fe  Fe51  1  0.83612853  0.83570242  0.50247887  1
  Fe  Fe52  1  0.67092670  0.66899406  0.66966729  1
  Ni  Ni53  1  0.83381243  0.83521789  0.83692576  1
" 