1322,Ni28Fe72_0,-243.330140940459, 217.354425072694,Ni28Fe72,"# generated using pymatgen
 data_Fe5Ni13
_symmetry_space_group_name_H-M   'P 1'
_cell_length_a   7.41486497
_cell_length_b   7.41486497
_cell_length_c   10.48620260
_cell_angle_alpha   90.00000000
_cell_angle_beta   90.00000000
_cell_angle_gamma   90.00000000
_symmetry_Int_Tables_number   1
_chemical_formula_structural   Fe5Ni13
_chemical_formula_sum   'Fe15 Ni39'
_cell_volume   576.53375218
_cell_formula_units_Z   3
loop_
 _symmetry_equiv_pos_site_id
 _symmetry_equiv_pos_as_xyz
  1  'x, y, z'
loop_
 _atom_site_type_symbol
 _atom_site_label
 _atom_site_symmetry_multiplicity
 _atom_site_fract_x
 _atom_site_fract_y
 _atom_site_fract_z
 _atom_site_occupancy
  Fe  Fe0  1  0.00387696  1.00302295  0.00400997  1
  Ni  Ni1  1  0.17045650  0.16987867  0.17036095  1
  Ni  Ni2  1  0.00373702  0.00367882  0.33720085  1
  Ni  Ni3  1  0.00384354  0.33733039  0.00358973  1
  Ni  Ni4  1  0.16864158  0.50303203  0.17031346  1
  Ni  Ni5  1  1.00200995  0.33692436  0.33718017  1
  Ni  Ni6  1  1.00329100  0.66922297  0.00358682  1
  Ni  Ni7  1  0.16983191  0.83764331  0.16967762  1
  Ni  Ni8  1  0.00402093  0.66995593  0.33687326  1
  Fe  Fe9  1  0.33713937  1.00339466  0.00382258  1
  Ni  Ni10  1  0.50282460  0.16952847  0.16992966  1
  Ni  Ni11  1  0.33745688  1.00252773  0.33663679  1
  Ni  Ni12  1  0.33644378  0.33696736  0.00388855  1
  Ni  Ni13  1  0.50462278  0.50336333  0.16983031  1
  Fe  Fe14  1  0.33599284  0.33665102  0.33677993  1
  Ni  Ni15  1  0.33731582  0.66990070  1.00295768  1
  Ni  Ni16  1  0.50378520  0.83766666  0.17023216  1
  Ni  Ni17  1  0.33680030  0.67147981  0.33718182  1
  Ni  Ni18  1  0.66958469  1.00313824  0.00389446  1
  Fe  Fe19  1  0.83702285  0.17090410  0.17048822  1
  Fe  Fe20  1  0.67003288  1.00332922  0.33659312  1
  Fe  Fe21  1  0.66970886  0.33832639  0.00414953  1
  Ni  Ni22  1  0.83729120  0.50399440  0.16984847  1
  Ni  Ni23  1  0.67088296  0.33626322  0.33652611  1
  Ni  Ni24  1  0.66995324  0.67160012  0.00356732  1
  Fe  Fe25  1  0.83709469  0.83633844  0.16974197  1
  Fe  Fe26  1  0.67058064  0.66989124  0.33666077  1
  Ni  Ni27  1  0.17077520  0.17005871  0.50311802  1
  Fe  Fe28  1  0.00523288  1.00327876  0.66945474  1
  Ni  Ni29  1  0.17086451  0.17084127  0.83707721  1
  Ni  Ni30  1  0.16892360  0.50274992  0.50314163  1
  Ni  Ni31  1  1.00313093  0.33754502  0.66978666  1
  Ni  Ni32  1  0.16902380  0.50214728  0.83709823  1
  Ni  Ni33  1  0.16930637  0.83774701  0.50404981  1
  Ni  Ni34  1  1.00339150  0.66932396  0.67009272  1
  Fe  Fe35  1  0.17085379  0.83563248  0.83654532  1
  Ni  Ni36  1  0.50234994  0.16973514  0.50344174  1
  Ni  Ni37  1  0.33840335  1.00340374  0.67063808  1
  Ni  Ni38  1  0.50220488  0.16960724  0.83718600  1
  Ni  Ni39  1  0.50417588  0.50305008  0.50351837  1
  Ni  Ni40  1  0.33686758  0.33633774  0.66924320  1
  Ni  Ni41  1  0.50400206  0.50335105  0.83720472  1
  Ni  Ni42  1  0.50412564  0.83776947  0.50344956  1
  Ni  Ni43  1  0.33689792  0.67081087  0.67041617  1
  Ni  Ni44  1  0.50490989  0.83760190  0.83688186  1
  Fe  Fe45  1  0.83718685  0.17066291  0.50290778  1
  Fe  Fe46  1  0.66924261  1.00297462  0.67088644  1
  Fe  Fe47  1  0.83652298  0.17078862  0.83716205  1
  Ni  Ni48  1  0.83745327  0.50452366  0.50375090  1
  Fe  Fe49  1  0.66914117  0.33782518  0.66948558  1
  Ni  Ni50  1  0.83752792  0.50485565  0.83695678  1
  Ni  Ni51  1  0.83713277  0.83591889  0.50280586  1
  Fe  Fe52  1  0.66982751  0.66975933  0.67074868  1
  Ni  Ni53  1  0.83629664  0.83575945  0.83744405  1
" 