8505,Ni28Fe61Cr10_4,-232.447616944347, 199.968415049278,Ni28Fe61Cr10,"# generated using pymatgen
 data_Cr2Fe11Ni5
_symmetry_space_group_name_H-M   'P 1'
_cell_length_a   7.41312474
_cell_length_b   7.41312474
_cell_length_c   10.48374155
_cell_angle_alpha   90.00000000
_cell_angle_beta   90.00000000
_cell_angle_gamma   90.00000000
_symmetry_Int_Tables_number   1
_chemical_formula_structural   Cr2Fe11Ni5
_chemical_formula_sum   'Cr6 Fe33 Ni15'
_cell_volume   576.12792018
_cell_formula_units_Z   3
loop_
 _symmetry_equiv_pos_site_id
 _symmetry_equiv_pos_as_xyz
  1  'x, y, z'
loop_
 _atom_site_type_symbol
 _atom_site_label
 _atom_site_symmetry_multiplicity
 _atom_site_fract_x
 _atom_site_fract_y
 _atom_site_fract_z
 _atom_site_occupancy
  Fe  Fe0  1  0.00502317  1.00214002  0.00439286  1
  Fe  Fe1  1  0.16887931  0.17069217  0.17054428  1
  Ni  Ni2  1  1.00336475  0.00370275  0.33653027  1
  Fe  Fe3  1  0.00627980  0.33734882  0.00366364  1
  Ni  Ni4  1  0.17068371  0.50447296  0.17052796  1
  Fe  Fe5  1  0.00472619  0.33668631  0.33762831  1
  Ni  Ni6  1  0.00378956  0.67060945  1.00156909  1
  Fe  Fe7  1  0.17011817  0.83629195  0.17006594  1
  Ni  Ni8  1  1.00310957  0.67181420  0.33895594  1
  Ni  Ni9  1  0.33642710  1.00350871  1.00234144  1
  Cr  Cr10  1  0.50310706  0.16961171  0.17048254  1
  Fe  Fe11  1  0.33522498  0.00365846  0.33751234  1
  Fe  Fe12  1  0.33585286  0.33815998  1.00300908  1
  Fe  Fe13  1  0.50170849  0.50523070  0.17017076  1
  Ni  Ni14  1  0.33694070  0.33736688  0.33805277  1
  Ni  Ni15  1  0.33721783  0.67027169  0.00419014  1
  Fe  Fe16  1  0.50317846  0.83479268  0.17027576  1
  Fe  Fe17  1  0.33574652  0.66927874  0.33573960  1
  Fe  Fe18  1  0.66997074  1.00138610  1.00328568  1
  Fe  Fe19  1  0.83891514  0.16921646  0.17032614  1
  Fe  Fe20  1  0.67203578  1.00336438  0.33710634  1
  Fe  Fe21  1  0.66877944  0.33804187  1.00246146  1
  Cr  Cr22  1  0.83837605  0.50459587  0.16952125  1
  Fe  Fe23  1  0.67051795  0.33719452  0.33859462  1
  Fe  Fe24  1  0.66916744  0.67147848  1.00270824  1
  Fe  Fe25  1  0.83761176  0.83770691  0.17040365  1
  Ni  Ni26  1  0.67064879  0.66979450  0.33632198  1
  Ni  Ni27  1  0.17095996  0.17061849  0.50314889  1
  Fe  Fe28  1  0.00488489  1.00278319  0.66931401  1
  Ni  Ni29  1  0.17280621  0.17020961  0.83749853  1
  Fe  Fe30  1  0.17012667  0.50231185  0.50204754  1
  Fe  Fe31  1  0.00516621  0.33717189  0.66961730  1
  Fe  Fe32  1  0.16969816  0.50284513  0.83855961  1
  Fe  Fe33  1  0.16845031  0.83875026  0.50282255  1
  Fe  Fe34  1  0.00372050  0.67095526  0.67050553  1
  Fe  Fe35  1  0.17031130  0.83823146  0.83802551  1
  Ni  Ni36  1  0.50301912  0.17119602  0.50487790  1
  Ni  Ni37  1  0.33594905  0.00716998  0.67120678  1
  Ni  Ni38  1  0.50134492  0.17042942  0.83550917  1
  Fe  Fe39  1  0.50335876  0.50002823  0.50221968  1
  Fe  Fe40  1  0.33736519  0.33472861  0.66996679  1
  Ni  Ni41  1  0.50339455  0.50241360  0.83908531  1
  Cr  Cr42  1  0.50364541  0.83913660  0.50191046  1
  Cr  Cr43  1  0.33573700  0.67024174  0.67104248  1
  Fe  Fe44  1  0.50318184  0.83919279  0.83841156  1
  Fe  Fe45  1  0.83695769  0.17000298  0.50352525  1
  Fe  Fe46  1  0.66957827  0.00498643  0.67051543  1
  Cr  Cr47  1  0.83679127  0.16938578  0.83728875  1
  Fe  Fe48  1  0.83742932  0.50268013  0.50247018  1
  Fe  Fe49  1  0.66837908  0.33587937  0.66985842  1
  Fe  Fe50  1  0.83741003  0.50402393  0.83790987  1
  Fe  Fe51  1  0.83924596  0.83822538  0.50272757  1
  Cr  Cr52  1  0.67226791  0.66920670  0.67240271  1
  Ni  Ni53  1  0.83781632  0.83517516  0.83754741  1
" 