4775,Ni28Fe72_4,-242.637998890707, 212.044696446993,Ni28Fe72,"# generated using pymatgen
 data_Fe5Ni13
_symmetry_space_group_name_H-M   'P 1'
_cell_length_a   7.41425654
_cell_length_b   7.41425654
_cell_length_c   10.48534216
_cell_angle_alpha   90.00000000
_cell_angle_beta   90.00000000
_cell_angle_gamma   90.00000000
_symmetry_Int_Tables_number   1
_chemical_formula_structural   Fe5Ni13
_chemical_formula_sum   'Fe15 Ni39'
_cell_volume   576.39184166
_cell_formula_units_Z   3
loop_
 _symmetry_equiv_pos_site_id
 _symmetry_equiv_pos_as_xyz
  1  'x, y, z'
loop_
 _atom_site_type_symbol
 _atom_site_label
 _atom_site_symmetry_multiplicity
 _atom_site_fract_x
 _atom_site_fract_y
 _atom_site_fract_z
 _atom_site_occupancy
  Fe  Fe0  1  1.00336032  1.00215428  0.00358966  1
  Ni  Ni1  1  0.17217047  0.16955448  0.16962841  1
  Ni  Ni2  1  0.00365971  0.00400967  0.33649675  1
  Fe  Fe3  1  1.00299125  0.33746288  0.00391043  1
  Ni  Ni4  1  0.17059154  0.50346631  0.16997742  1
  Ni  Ni5  1  0.00366748  0.33652404  0.33710059  1
  Fe  Fe6  1  1.00272022  0.67106398  0.00366147  1
  Ni  Ni7  1  0.16939435  0.83765873  0.17052977  1
  Ni  Ni8  1  0.00363888  0.67014799  0.33725037  1
  Ni  Ni9  1  0.33674673  1.00304709  1.00311438  1
  Ni  Ni10  1  0.50266516  0.17112262  0.17099178  1
  Ni  Ni11  1  0.33642530  0.00367974  0.33727172  1
  Fe  Fe12  1  0.33889636  0.33642594  0.00415304  1
  Ni  Ni13  1  0.50423370  0.50188542  0.16950513  1
  Ni  Ni14  1  0.33644624  0.33687935  0.33610834  1
  Ni  Ni15  1  0.33705871  0.67088743  1.00336573  1
  Fe  Fe16  1  0.50296734  0.83637688  0.17052474  1
  Ni  Ni17  1  0.33680135  0.67011951  0.33698155  1
  Ni  Ni18  1  0.67012777  0.00390732  1.00335873  1
  Fe  Fe19  1  0.83698770  0.17082029  0.17109241  1
  Ni  Ni20  1  0.67059541  0.00365249  0.33660207  1
  Ni  Ni21  1  0.67099621  0.33679017  1.00311530  1
  Ni  Ni22  1  0.83585643  0.50466289  0.17052889  1
  Ni  Ni23  1  0.67056844  0.33690035  0.33727183  1
  Ni  Ni24  1  0.66985710  0.66998303  0.00360587  1
  Ni  Ni25  1  0.83742485  0.83608921  0.17009967  1
  Ni  Ni26  1  0.67023847  0.67012714  0.33637742  1
  Ni  Ni27  1  0.17035223  0.16998382  0.50400285  1
  Ni  Ni28  1  1.00325635  0.00412409  0.67057873  1
  Fe  Fe29  1  0.16961286  0.16972982  0.83633087  1
  Ni  Ni30  1  0.17056230  0.50321476  0.50376556  1
  Ni  Ni31  1  0.00411483  0.33600944  0.67021280  1
  Fe  Fe32  1  0.16997397  0.50423489  0.83607956  1
  Ni  Ni33  1  0.17018412  0.83748068  0.50351777  1
  Ni  Ni34  1  1.00324068  0.67054607  0.67043058  1
  Ni  Ni35  1  0.16951373  0.83725883  0.83663465  1
  Fe  Fe36  1  0.50338061  0.17040629  0.50296450  1
  Fe  Fe37  1  0.33555835  1.00293647  0.67034193  1
  Ni  Ni38  1  0.50299177  0.17079532  0.83629608  1
  Ni  Ni39  1  0.50380253  0.50342552  0.50400229  1
  Ni  Ni40  1  0.33611619  0.33720844  0.67084150  1
  Fe  Fe41  1  0.50405833  0.50459598  0.83689576  1
  Ni  Ni42  1  0.50348733  0.83657603  0.50375553  1
  Ni  Ni43  1  0.33731651  0.66967116  0.67033155  1
  Fe  Fe44  1  0.50407997  0.83645291  0.83694362  1
  Ni  Ni45  1  0.83721956  0.17029956  0.50375663  1
  Fe  Fe46  1  0.67096862  1.00288933  0.67019823  1
  Fe  Fe47  1  0.83691198  0.16970812  0.83637563  1
  Ni  Ni48  1  0.83631621  0.50359298  0.50351784  1
  Fe  Fe49  1  0.67092037  0.33815738  0.67034192  1
  Ni  Ni50  1  0.83625971  0.50454161  0.83663706  1
  Ni  Ni51  1  0.83700754  0.83678912  0.50412183  1
  Ni  Ni52  1  0.67012395  0.67053062  0.67069806  1
  Ni  Ni53  1  0.83782763  0.83568718  0.83645891  1
" 