669,Ni28Fe9Cr61_9,-214.003754141679, 146.154637908072,Ni28Fe9Cr61,"# generated using pymatgen
 data_Cr34(FeNi3)5
_symmetry_space_group_name_H-M   'P 1'
_cell_length_a   7.54169217
_cell_length_b   7.54169217
_cell_length_c   10.66556335
_cell_angle_alpha   90.00000000
_cell_angle_beta   90.00000000
_cell_angle_gamma   90.00000000
_symmetry_Int_Tables_number   1
_chemical_formula_structural   Cr34(FeNi3)5
_chemical_formula_sum   'Cr34 Fe5 Ni15'
_cell_volume   606.62653489
_cell_formula_units_Z   1
loop_
 _symmetry_equiv_pos_site_id
 _symmetry_equiv_pos_as_xyz
  1  'x, y, z'
loop_
 _atom_site_type_symbol
 _atom_site_label
 _atom_site_symmetry_multiplicity
 _atom_site_fract_x
 _atom_site_fract_y
 _atom_site_fract_z
 _atom_site_occupancy
  Ni  Ni0  1  -0.00283873  0.99381997  -0.00369847  1
  Fe  Fe1  1  0.16337388  0.16196397  0.16174300  1
  Ni  Ni2  1  0.99458730  -0.00431015  0.32792992  1
  Cr  Cr3  1  -0.00170079  0.32896289  -0.00422518  1
  Ni  Ni4  1  0.16665586  0.49538619  0.16112317  1
  Cr  Cr5  1  -0.00285541  0.32888852  0.32813950  1
  Cr  Cr6  1  -0.00389420  0.66175932  -0.00405336  1
  Ni  Ni7  1  0.16123397  0.82783981  0.16202238  1
  Cr  Cr8  1  -0.00136550  0.66151268  0.32763458  1
  Cr  Cr9  1  0.32794574  -0.00365724  -0.00160620  1
  Ni  Ni10  1  0.49299339  0.16264977  0.16170611  1
  Cr  Cr11  1  0.32857476  -0.00461198  0.32480555  1
  Ni  Ni12  1  0.32721060  0.32838557  -0.00308034  1
  Cr  Cr13  1  0.49140276  0.49367731  0.16187852  1
  Ni  Ni14  1  0.32607172  0.32975167  0.32625410  1
  Fe  Fe15  1  0.32672103  0.66002625  -0.00332854  1
  Cr  Cr16  1  0.49497979  0.82728299  0.16135452  1
  Ni  Ni17  1  0.32435182  0.65948356  0.32697938  1
  Fe  Fe18  1  0.66179209  -0.00479107  -0.00388906  1
  Cr  Cr19  1  0.82954510  0.15843302  0.16203694  1
  Ni  Ni20  1  0.66297574  -0.00255956  0.32787176  1
  Cr  Cr21  1  0.65975102  0.32830856  -0.00424971  1
  Cr  Cr22  1  0.82825264  0.49590379  0.16089105  1
  Cr  Cr23  1  0.66063962  0.32514696  0.32939436  1
  Ni  Ni24  1  0.66082754  0.66359628  0.99452434  1
  Cr  Cr25  1  0.83033741  0.83096771  0.16068691  1
  Cr  Cr26  1  0.66112849  0.66301379  0.32910482  1
  Cr  Cr27  1  0.15964949  0.16348578  0.49486059  1
  Fe  Fe28  1  0.99366324  -0.00405411  0.66065049  1
  Cr  Cr29  1  0.16120256  0.16309159  0.82824502  1
  Ni  Ni30  1  0.16637086  0.49474376  0.49614383  1
  Cr  Cr31  1  -0.00423584  0.32992977  0.66120393  1
  Fe  Fe32  1  0.16511867  0.49447410  0.82828939  1
  Cr  Cr33  1  0.16183293  0.82685533  0.49473454  1
  Cr  Cr34  1  -0.00276425  0.66009179  0.66144702  1
  Cr  Cr35  1  0.16119572  0.82814207  0.82744855  1
  Cr  Cr36  1  0.49568843  0.16296582  0.49504753  1
  Cr  Cr37  1  0.33038742  0.99458445  0.66177836  1
  Cr  Cr38  1  0.49405098  0.16350798  0.82812397  1
  Cr  Cr39  1  0.48867894  0.49509234  0.49424649  1
  Ni  Ni40  1  0.32563100  0.33146498  0.66206908  1
  Cr  Cr41  1  0.49072917  0.49548061  0.82917126  1
  Cr  Cr42  1  0.49444153  0.82678703  0.49504786  1
  Ni  Ni43  1  0.32559375  0.65862535  0.66248453  1
  Cr  Cr44  1  0.49556805  0.82600950  0.82894142  1
  Ni  Ni45  1  0.82878865  0.15723377  0.49555743  1
  Ni  Ni46  1  0.66357397  -0.00408515  0.66147606  1
  Cr  Cr47  1  0.83028203  0.15825906  0.82767797  1
  Cr  Cr48  1  0.82954478  0.49314176  0.49330446  1
  Cr  Cr49  1  0.66214154  0.32600110  0.66002166  1
  Cr  Cr50  1  0.82753138  0.49573062  0.83092927  1
  Cr  Cr51  1  0.82930014  0.83400769  0.49435974  1
  Cr  Cr52  1  0.66147997  0.66313175  0.66143360  1
  Cr  Cr53  1  0.82862239  0.83123577  0.83012103  1
" 