5442,Ni28Fe9Cr61_11,-214.528613650165, 153.376355114001,Ni28Fe9Cr61,"# generated using pymatgen
 data_Cr34(FeNi3)5
_symmetry_space_group_name_H-M   'P 1'
_cell_length_a   7.54197156
_cell_length_b   7.54197156
_cell_length_c   10.66595847
_cell_angle_alpha   90.00000000
_cell_angle_beta   90.00000000
_cell_angle_gamma   90.00000000
_symmetry_Int_Tables_number   1
_chemical_formula_structural   Cr34(FeNi3)5
_chemical_formula_sum   'Cr34 Fe5 Ni15'
_cell_volume   606.69395771
_cell_formula_units_Z   1
loop_
 _symmetry_equiv_pos_site_id
 _symmetry_equiv_pos_as_xyz
  1  'x, y, z'
loop_
 _atom_site_type_symbol
 _atom_site_label
 _atom_site_symmetry_multiplicity
 _atom_site_fract_x
 _atom_site_fract_y
 _atom_site_fract_z
 _atom_site_occupancy
  Ni  Ni0  1  0.99430991  0.99058611  0.99106113  1
  Cr  Cr1  1  0.16315090  0.16185898  0.16204950  1
  Cr  Cr2  1  -0.00055344  0.99440927  0.33100616  1
  Cr  Cr3  1  -0.00380139  0.32690420  -0.00423908  1
  Ni  Ni4  1  0.16347172  0.49494385  0.16023650  1
  Cr  Cr5  1  -0.00297139  0.32839941  0.32791731  1
  Fe  Fe6  1  -0.00269698  0.66149947  0.99093649  1
  Cr  Cr7  1  0.16069908  0.82841997  0.16075194  1
  Cr  Cr8  1  -0.00272651  0.66203777  0.32910042  1
  Cr  Cr9  1  0.32595888  -0.00458285  0.99268714  1
  Cr  Cr10  1  0.49377218  0.16125625  0.16026697  1
  Ni  Ni11  1  0.32847849  -0.00429358  0.33107193  1
  Ni  Ni12  1  0.32880786  0.32703702  0.99404576  1
  Cr  Cr13  1  0.49102003  0.49443593  0.16268337  1
  Ni  Ni14  1  0.32714713  0.32732118  0.32635835  1
  Cr  Cr15  1  0.32763106  0.66236971  0.99415441  1
  Cr  Cr16  1  0.49603516  0.83053008  0.16253954  1
  Cr  Cr17  1  0.32798507  0.66613585  0.33066109  1
  Fe  Fe18  1  0.66068439  -0.00302465  0.99177070  1
  Cr  Cr19  1  0.82876553  0.15757828  0.16209431  1
  Cr  Cr20  1  0.65938123  0.99339654  0.32954866  1
  Cr  Cr21  1  0.66111274  0.32895217  0.99136496  1
  Cr  Cr22  1  0.83045368  0.49782806  0.16207509  1
  Cr  Cr23  1  0.66214204  0.32859212  0.33016549  1
  Cr  Cr24  1  0.66262906  0.66182301  0.99327221  1
  Cr  Cr25  1  0.82966239  0.82961516  0.15646497  1
  Cr  Cr26  1  0.65996501  0.66302771  0.33010380  1
  Cr  Cr27  1  0.16425816  0.16046666  0.49691725  1
  Ni  Ni28  1  -0.00187274  0.99039925  0.66262677  1
  Cr  Cr29  1  0.16418797  0.15978384  0.82679563  1
  Cr  Cr30  1  0.16364256  0.49627516  0.49875959  1
  Cr  Cr31  1  0.99330129  0.32759170  0.66201759  1
  Cr  Cr32  1  0.16279848  0.49782375  0.82678302  1
  Fe  Fe33  1  0.16381467  0.82904664  0.49987060  1
  Ni  Ni34  1  -0.00368356  0.66740846  0.66586853  1
  Ni  Ni35  1  0.15882231  0.82915889  0.82481365  1
  Cr  Cr36  1  0.49262888  0.16137741  0.49771646  1
  Ni  Ni37  1  0.32721395  0.99277777  0.66187054  1
  Ni  Ni38  1  0.49517752  0.15963330  0.82528952  1
  Cr  Cr39  1  0.49160781  0.49507890  0.49779044  1
  Ni  Ni40  1  0.33183820  0.32544365  0.66452772  1
  Cr  Cr41  1  0.49234481  0.49324175  0.82510556  1
  Ni  Ni42  1  0.49079695  0.83133860  0.49724072  1
  Ni  Ni43  1  0.32647140  0.66732697  0.66108342  1
  Cr  Cr44  1  0.49369791  0.83079466  0.82683983  1
  Cr  Cr45  1  0.82804735  0.15944133  0.49748865  1
  Fe  Fe46  1  0.65875442  0.99455098  0.66161575  1
  Cr  Cr47  1  0.82754726  0.15746462  0.82559547  1
  Cr  Cr48  1  0.82931186  0.49623022  0.49784224  1
  Ni  Ni49  1  0.65988639  0.32676656  0.66447383  1
  Ni  Ni50  1  0.82989142  0.49762652  0.82577161  1
  Cr  Cr51  1  0.82971562  0.82888973  0.49808649  1
  Cr  Cr52  1  0.66043468  0.66107150  0.66138365  1
  Fe  Fe53  1  0.83062540  0.82770900  0.82745115  1
" 