6156,Ni28Fe72_10,-242.880640403711, 217.452081404949,Ni28Fe72,"# generated using pymatgen
 data_Fe5Ni13
_symmetry_space_group_name_H-M   'P 1'
_cell_length_a   7.41037759
_cell_length_b   7.41037759
_cell_length_c   10.47985649
_cell_angle_alpha   90.00000000
_cell_angle_beta   90.00000000
_cell_angle_gamma   90.00000000
_symmetry_Int_Tables_number   1
_chemical_formula_structural   Fe5Ni13
_chemical_formula_sum   'Fe15 Ni39'
_cell_volume   575.48765391
_cell_formula_units_Z   3
loop_
 _symmetry_equiv_pos_site_id
 _symmetry_equiv_pos_as_xyz
  1  'x, y, z'
loop_
 _atom_site_type_symbol
 _atom_site_label
 _atom_site_symmetry_multiplicity
 _atom_site_fract_x
 _atom_site_fract_y
 _atom_site_fract_z
 _atom_site_occupancy
  Ni  Ni0  1  1.00323546  0.00409140  0.00397613  1
  Fe  Fe1  1  0.16993321  0.17097241  0.17057452  1
  Ni  Ni2  1  0.00417056  0.00416558  0.33785897  1
  Ni  Ni3  1  0.00417223  0.33680648  0.00431784  1
  Ni  Ni4  1  0.17040259  0.50443131  0.17020548  1
  Ni  Ni5  1  1.00323033  0.33745231  0.33678434  1
  Fe  Fe6  1  1.00333262  0.67009669  1.00349190  1
  Ni  Ni7  1  0.16945014  0.83731259  0.17046687  1
  Fe  Fe8  1  1.00333772  0.67068084  0.33711429  1
  Fe  Fe9  1  0.33763572  0.00394808  0.00399149  1
  Ni  Ni10  1  0.50421437  0.17068451  0.17036240  1
  Ni  Ni11  1  0.33716014  1.00247018  0.33622758  1
  Ni  Ni12  1  0.33635160  0.33909272  0.00450523  1
  Ni  Ni13  1  0.50343141  0.50176169  0.17094562  1
  Fe  Fe14  1  0.33768947  0.33585447  0.33700461  1
  Ni  Ni15  1  0.33762551  0.66998165  1.00381241  1
  Fe  Fe16  1  0.50401024  0.83619961  0.17038700  1
  Fe  Fe17  1  0.33691813  0.67063096  0.33707156  1
  Ni  Ni18  1  0.67155567  1.00280890  0.00461277  1
  Fe  Fe19  1  0.83734514  0.17097431  0.17057617  1
  Ni  Ni20  1  0.67014240  0.00382859  0.33687015  1
  Ni  Ni21  1  0.67094480  0.33774340  0.00386251  1
  Ni  Ni22  1  0.83763456  0.50365035  0.17011339  1
  Ni  Ni23  1  0.67147184  0.33739771  0.33698307  1
  Ni  Ni24  1  0.66926969  0.67091218  0.00408495  1
  Ni  Ni25  1  0.83860174  0.83809790  0.17056056  1
  Fe  Fe26  1  0.67121264  0.67059043  0.33707834  1
  Fe  Fe27  1  0.17105719  0.17157885  0.50366297  1
  Fe  Fe28  1  1.00337059  1.00376208  0.67116503  1
  Fe  Fe29  1  0.16980679  0.17095324  0.83723620  1
  Ni  Ni30  1  0.17022255  0.50406094  0.50382896  1
  Ni  Ni31  1  1.00382004  0.33834520  0.67036723  1
  Ni  Ni32  1  0.17084528  0.50436994  0.83743081  1
  Fe  Fe33  1  0.17143319  0.83697617  0.50385485  1
  Ni  Ni34  1  0.00424333  0.66948633  0.67087614  1
  Ni  Ni35  1  0.17083812  0.83689790  0.83681814  1
  Ni  Ni36  1  0.50481291  0.16948515  0.50470604  1
  Ni  Ni37  1  0.33786535  1.00282087  0.67099519  1
  Fe  Fe38  1  0.50453837  0.17060907  0.83698043  1
  Ni  Ni39  1  0.50311279  0.50328898  0.50393055  1
  Ni  Ni40  1  0.33651168  0.33781261  0.66963060  1
  Ni  Ni41  1  0.50307451  0.50363656  0.83658639  1
  Ni  Ni42  1  0.50306753  0.83869146  0.50319014  1
  Ni  Ni43  1  0.33691277  0.67084337  0.67013832  1
  Ni  Ni44  1  0.50311153  0.83765438  0.83805731  1
  Ni  Ni45  1  0.83641308  0.17047076  0.50305355  1
  Ni  Ni46  1  0.66977857  1.00324027  0.66998895  1
  Ni  Ni47  1  0.83678753  0.17018134  0.83771440  1
  Ni  Ni48  1  0.83813826  0.50231045  0.50420632  1
  Ni  Ni49  1  0.67113934  0.33738694  0.67062896  1
  Ni  Ni50  1  0.83754762  0.50267120  0.83715092  1
  Fe  Fe51  1  0.83571974  0.83684947  0.50385157  1
  Ni  Ni52  1  0.67031140  0.67083926  0.67014200  1
  Ni  Ni53  1  0.83751946  0.83861938  0.83644732  1
" 