8832,Ni28Fe9Cr61_19,-214.706311922964, 159.818818104294,Ni28Fe9Cr61,"# generated using pymatgen
 data_Cr34(FeNi3)5
_symmetry_space_group_name_H-M   'P 1'
_cell_length_a   7.53924330
_cell_length_b   7.53924330
_cell_length_c   10.66210013
_cell_angle_alpha   90.00000000
_cell_angle_beta   90.00000000
_cell_angle_gamma   90.00000000
_symmetry_Int_Tables_number   1
_chemical_formula_structural   Cr34(FeNi3)5
_chemical_formula_sum   'Cr34 Fe5 Ni15'
_cell_volume   606.03579217
_cell_formula_units_Z   1
loop_
 _symmetry_equiv_pos_site_id
 _symmetry_equiv_pos_as_xyz
  1  'x, y, z'
loop_
 _atom_site_type_symbol
 _atom_site_label
 _atom_site_symmetry_multiplicity
 _atom_site_fract_x
 _atom_site_fract_y
 _atom_site_fract_z
 _atom_site_occupancy
  Ni  Ni0  1  0.99501081  0.99494107  -0.00351608  1
  Ni  Ni1  1  0.16058340  0.16284318  0.16093478  1
  Cr  Cr2  1  -0.00409944  -0.00132793  0.32649376  1
  Cr  Cr3  1  0.99432456  0.32722749  -0.00291371  1
  Fe  Fe4  1  0.16014023  0.49376994  0.16022678  1
  Ni  Ni5  1  0.99351738  0.32667872  0.32756143  1
  Ni  Ni6  1  -0.00301311  0.66319174  0.99468936  1
  Ni  Ni7  1  0.15971613  0.82982379  0.15785622  1
  Cr  Cr8  1  -0.00245823  0.66175301  0.32790918  1
  Cr  Cr9  1  0.32726776  0.99404400  -0.00157497  1
  Ni  Ni10  1  0.49452534  0.16066929  0.15950749  1
  Cr  Cr11  1  0.32655567  0.99354615  0.32615279  1
  Ni  Ni12  1  0.32778234  0.32734997  -0.00229977  1
  Cr  Cr13  1  0.49619841  0.49350792  0.16053931  1
  Cr  Cr14  1  0.32604649  0.32733067  0.32399887  1
  Cr  Cr15  1  0.32662434  0.66182688  -0.00333280  1
  Ni  Ni16  1  0.49586160  0.83021724  0.16224069  1
  Cr  Cr17  1  0.32840227  0.66476585  0.32442378  1
  Ni  Ni18  1  0.66294940  -0.00262488  -0.00189971  1
  Ni  Ni19  1  0.83042255  0.16189899  0.15934836  1
  Cr  Cr20  1  0.66254676  -0.00332887  0.32540544  1
  Cr  Cr21  1  0.66268385  0.32684048  0.99161563  1
  Cr  Cr22  1  0.83016107  0.49652165  0.16380913  1
  Cr  Cr23  1  0.66560527  0.32628635  0.32999545  1
  Cr  Cr24  1  0.66093525  0.66126974  0.99456865  1
  Cr  Cr25  1  0.82766655  0.82806071  0.15940570  1
  Ni  Ni26  1  0.66161546  0.66126173  0.32860536  1
  Cr  Cr27  1  0.16236672  0.16337077  0.49588939  1
  Cr  Cr28  1  0.99474605  0.99490751  0.66348838  1
  Cr  Cr29  1  0.16281311  0.16081923  0.82845176  1
  Cr  Cr30  1  0.15999422  0.49381153  0.49312165  1
  Cr  Cr31  1  0.99104051  0.32912873  0.66001380  1
  Cr  Cr32  1  0.15990023  0.49421752  0.83121361  1
  Cr  Cr33  1  0.16093013  0.82883054  0.49980977  1
  Ni  Ni34  1  0.99428903  0.66072228  0.66380720  1
  Fe  Fe35  1  0.16010323  0.82882750  0.83027676  1
  Cr  Cr36  1  0.49313331  0.16125580  0.49644690  1
  Ni  Ni37  1  0.32758134  0.99349572  0.66280580  1
  Cr  Cr38  1  0.49295365  0.16127169  0.82953224  1
  Cr  Cr39  1  0.49544691  0.49550002  0.49466832  1
  Cr  Cr40  1  0.32969523  0.33016949  0.66372908  1
  Fe  Fe41  1  0.49524182  0.49516389  0.83036619  1
  Cr  Cr42  1  0.49675033  0.82904645  0.49404100  1
  Cr  Cr43  1  0.32668672  0.66343964  0.66465177  1
  Cr  Cr44  1  0.49685043  0.83184148  0.82829473  1
  Ni  Ni45  1  0.83007105  0.16411253  0.49493420  1
  Cr  Cr46  1  0.66416050  -0.00234777  0.66162937  1
  Fe  Fe47  1  0.83005880  0.16074070  0.83098467  1
  Fe  Fe48  1  0.82967006  0.49496560  0.49403419  1
  Cr  Cr49  1  0.66499599  0.32888745  0.66424691  1
  Ni  Ni50  1  0.83176374  0.49781634  0.82704925  1
  Cr  Cr51  1  0.82827904  0.82631711  0.49363284  1
  Cr  Cr52  1  0.66343488  0.65859877  0.66193017  1
  Cr  Cr53  1  0.83091923  0.82819301  0.83264731  1
" 