7923,Ni2Fe41Cr55_13,-214.766168138524, 179.468731864226,Ni2Fe41Cr55,"# generated using pymatgen
 data_Cr31Fe22Ni
_symmetry_space_group_name_H-M   'P 1'
_cell_length_a   7.55096498
_cell_length_b   7.55096498
_cell_length_c   10.67867709
_cell_angle_alpha   90.00000000
_cell_angle_beta   90.00000000
_cell_angle_gamma   90.00000000
_symmetry_Int_Tables_number   1
_chemical_formula_structural   Cr31Fe22Ni
_chemical_formula_sum   'Cr31 Fe22 Ni1'
_cell_volume   608.86690201
_cell_formula_units_Z   1
loop_
 _symmetry_equiv_pos_site_id
 _symmetry_equiv_pos_as_xyz
  1  'x, y, z'
loop_
 _atom_site_type_symbol
 _atom_site_label
 _atom_site_symmetry_multiplicity
 _atom_site_fract_x
 _atom_site_fract_y
 _atom_site_fract_z
 _atom_site_occupancy
  Fe  Fe0  1  0.99245617  -0.00504512  -0.00514615  1
  Cr  Cr1  1  0.15997493  0.16043763  0.16029257  1
  Cr  Cr2  1  0.99270116  0.99368036  0.32824702  1
  Cr  Cr3  1  0.99329658  0.32515769  0.99417732  1
  Cr  Cr4  1  0.15919185  0.49372460  0.16186485  1
  Fe  Fe5  1  0.99322881  0.32835169  0.32819860  1
  Cr  Cr6  1  0.99273109  0.66322603  -0.00330692  1
  Cr  Cr7  1  0.15997621  0.82916626  0.16120047  1
  Fe  Fe8  1  0.99409092  0.66063978  0.32817895  1
  Cr  Cr9  1  0.32817513  0.99439135  0.99316286  1
  Cr  Cr10  1  0.49572427  0.16049348  0.16398567  1
  Fe  Fe11  1  0.32825885  -0.00521991  0.32888673  1
  Cr  Cr12  1  0.32901351  0.32847964  -0.00538283  1
  Fe  Fe13  1  0.49591598  0.49444373  0.16112957  1
  Cr  Cr14  1  0.32859673  0.32736548  0.32724518  1
  Cr  Cr15  1  0.33013725  0.66045795  -0.00538681  1
  Cr  Cr16  1  0.49654662  0.82829248  0.16018291  1
  Cr  Cr17  1  0.32636429  0.66058178  0.32729670  1
  Fe  Fe18  1  0.66234557  0.99405137  0.99392622  1
  Fe  Fe19  1  0.82746569  0.16057775  0.16152628  1
  Fe  Fe20  1  0.66133393  -0.00435393  0.32830592  1
  Cr  Cr21  1  0.66101625  0.32712341  -0.00536533  1
  Fe  Fe22  1  0.82691170  0.49444160  0.16193651  1
  Fe  Fe23  1  0.66232708  0.32656459  0.32736606  1
  Fe  Fe24  1  0.66102778  0.66183178  -0.00468340  1
  Fe  Fe25  1  0.82745960  0.82830871  0.16061425  1
  Cr  Cr26  1  0.66293177  0.66138326  0.32490771  1
  Fe  Fe27  1  0.16159813  0.16078075  0.49398159  1
  Cr  Cr28  1  0.99366917  -0.00535429  0.66075647  1
  Cr  Cr29  1  0.16079377  0.15988730  0.82942756  1
  Fe  Fe30  1  0.16131408  0.49543340  0.49451371  1
  Cr  Cr31  1  -0.00551037  0.32630938  0.66081155  1
  Cr  Cr32  1  0.16118503  0.49420656  0.82580025  1
  Fe  Fe33  1  0.16160019  0.82711438  0.49490785  1
  Cr  Cr34  1  -0.00317540  0.66237255  0.65760092  1
  Cr  Cr35  1  0.16312509  0.82923622  0.82697654  1
  Fe  Fe36  1  0.49455689  0.16037586  0.49348838  1
  Fe  Fe37  1  0.32820943  0.99306408  0.66079388  1
  Fe  Fe38  1  0.49532687  0.15943881  0.82788700  1
  Cr  Cr39  1  0.49470931  0.49367046  0.49486100  1
  Cr  Cr40  1  0.32815478  0.32802794  0.66147334  1
  Cr  Cr41  1  0.49529139  0.49611810  0.82762534  1
  Cr  Cr42  1  0.49281129  0.83065355  0.49591053  1
  Ni  Ni43  1  0.32705811  0.66287839  0.66066966  1
  Fe  Fe44  1  0.49386888  0.82804865  0.82727281  1
  Fe  Fe45  1  0.82717309  0.16066672  0.49320325  1
  Cr  Cr46  1  0.66118575  -0.00423344  0.66130911  1
  Fe  Fe47  1  0.82702820  0.16034915  0.82860089  1
  Cr  Cr48  1  0.82954750  0.49361674  0.49386612  1
  Cr  Cr49  1  0.66068844  0.32487056  0.66135995  1
  Cr  Cr50  1  0.82685560  0.49377853  0.82710844  1
  Fe  Fe51  1  0.82847529  0.82853541  0.49367000  1
  Cr  Cr52  1  0.65947360  0.66269144  0.66283367  1
  Cr  Cr53  1  0.82572268  0.82884588  0.82986576  1
" 