8992,Ni2Fe57Cr40_1,-218.879852952298, 158.68773225766,Ni2Fe57Cr40,"# generated using pymatgen
 data_Cr22Fe31Ni
_symmetry_space_group_name_H-M   'P 1'
_cell_length_a   7.52995771
_cell_length_b   7.52995771
_cell_length_c   10.64896832
_cell_angle_alpha   90.00000000
_cell_angle_beta   90.00000000
_cell_angle_gamma   90.00000000
_symmetry_Int_Tables_number   1
_chemical_formula_structural   Cr22Fe31Ni
_chemical_formula_sum   'Cr22 Fe31 Ni1'
_cell_volume   603.79930531
_cell_formula_units_Z   1
loop_
 _symmetry_equiv_pos_site_id
 _symmetry_equiv_pos_as_xyz
  1  'x, y, z'
loop_
 _atom_site_type_symbol
 _atom_site_label
 _atom_site_symmetry_multiplicity
 _atom_site_fract_x
 _atom_site_fract_y
 _atom_site_fract_z
 _atom_site_occupancy
  Fe  Fe0  1  0.99302944  -0.00271517  0.99579682  1
  Cr  Cr1  1  0.16379826  0.16374913  0.16148717  1
  Cr  Cr2  1  0.99538940  -0.00305430  0.33149853  1
  Fe  Fe3  1  -0.00373232  0.32919699  0.99462110  1
  Cr  Cr4  1  0.16197815  0.49575199  0.16550025  1
  Fe  Fe5  1  0.99570395  0.32961082  0.33119295  1
  Cr  Cr6  1  0.99436560  0.66241223  0.99426724  1
  Cr  Cr7  1  0.16036485  0.82766396  0.16556625  1
  Fe  Fe8  1  0.99430145  0.66094143  0.33208651  1
  Cr  Cr9  1  0.33011287  0.99483957  0.99582076  1
  Fe  Fe10  1  0.49588240  0.16201856  0.16250499  1
  Cr  Cr11  1  0.32939549  0.99506544  0.33198825  1
  Cr  Cr12  1  0.33060495  0.33141446  0.99579057  1
  Fe  Fe13  1  0.49511157  0.49793848  0.16459561  1
  Fe  Fe14  1  0.33037186  0.33073041  0.32992054  1
  Cr  Cr15  1  0.32959334  0.66123951  0.99501099  1
  Fe  Fe16  1  0.49687983  0.82609182  0.16349788  1
  Fe  Fe17  1  0.33197789  0.66094591  0.33138609  1
  Fe  Fe18  1  0.66368136  0.99427971  -0.00339712  1
  Fe  Fe19  1  0.83205809  0.16199941  0.16136908  1
  Cr  Cr20  1  0.66277303  -0.00319121  0.32634237  1
  Cr  Cr21  1  0.66370896  0.32927256  -0.00094786  1
  Cr  Cr22  1  0.83002194  0.49850329  0.16477844  1
  Cr  Cr23  1  0.66300244  0.32909083  0.32758153  1
  Fe  Fe24  1  0.66145664  0.66364354  -0.00325149  1
  Fe  Fe25  1  0.82775878  0.82892082  0.16317873  1
  Ni  Ni26  1  0.66158687  0.66014925  0.32883613  1
  Fe  Fe27  1  0.16142596  0.16636987  0.49561443  1
  Cr  Cr28  1  -0.00413240  -0.00292147  0.66066473  1
  Fe  Fe29  1  0.16080880  0.16422293  0.82918960  1
  Fe  Fe30  1  0.16316168  0.49437160  0.49400604  1
  Fe  Fe31  1  0.99545772  0.32884180  0.66207328  1
  Fe  Fe32  1  0.16188224  0.49292694  0.82820818  1
  Fe  Fe33  1  0.16295164  0.82586565  0.49439128  1
  Cr  Cr34  1  0.99535885  0.65950903  0.66144625  1
  Cr  Cr35  1  0.16058276  0.83070678  0.82926807  1
  Cr  Cr36  1  0.49541496  0.16615229  0.49709611  1
  Cr  Cr37  1  0.32758470  0.99433902  0.65959496  1
  Cr  Cr38  1  0.49567968  0.16340775  0.82709643  1
  Fe  Fe39  1  0.49765883  0.49801152  0.49546761  1
  Fe  Fe40  1  0.32656216  0.33027096  0.66247858  1
  Fe  Fe41  1  0.49877913  0.49677791  0.82825071  1
  Fe  Fe42  1  0.49671426  0.82643726  0.49438849  1
  Cr  Cr43  1  0.33003266  0.66108684  0.66284150  1
  Fe  Fe44  1  0.49829365  0.82820481  0.82863598  1
  Fe  Fe45  1  0.82975225  0.16534333  0.49593495  1
  Cr  Cr46  1  0.66327773  -0.00274602  0.66075273  1
  Fe  Fe47  1  0.83020168  0.16314461  0.82956332  1
  Fe  Fe48  1  0.82777927  0.49347193  0.49463738  1
  Fe  Fe49  1  0.66456226  0.33305659  0.66232584  1
  Fe  Fe50  1  0.82755229  0.49473381  0.82881150  1
  Cr  Cr51  1  0.82748490  0.82551080  0.49427019  1
  Fe  Fe52  1  0.66239028  0.66152008  0.66167607  1
  Fe  Fe53  1  0.82602964  0.82929862  0.82871810  1
" 