806,Ni2Fe41Cr55_14,-214.894655169913, 180.572656132329,Ni2Fe41Cr55,"# generated using pymatgen
 data_Cr31Fe22Ni
_symmetry_space_group_name_H-M   'P 1'
_cell_length_a   7.54606463
_cell_length_b   7.54606463
_cell_length_c   10.67174694
_cell_angle_alpha   90.00000000
_cell_angle_beta   90.00000000
_cell_angle_gamma   90.00000000
_symmetry_Int_Tables_number   1
_chemical_formula_structural   Cr31Fe22Ni
_chemical_formula_sum   'Cr31 Fe22 Ni1'
_cell_volume   607.68226117
_cell_formula_units_Z   1
loop_
 _symmetry_equiv_pos_site_id
 _symmetry_equiv_pos_as_xyz
  1  'x, y, z'
loop_
 _atom_site_type_symbol
 _atom_site_label
 _atom_site_symmetry_multiplicity
 _atom_site_fract_x
 _atom_site_fract_y
 _atom_site_fract_z
 _atom_site_occupancy
  Cr  Cr0  1  -0.00406673  -0.00395263  -0.00457991  1
  Fe  Fe1  1  0.16241003  0.16431939  0.16317727  1
  Cr  Cr2  1  0.99348899  -0.00386782  0.32636132  1
  Cr  Cr3  1  -0.00496994  0.32630192  -0.00438749  1
  Fe  Fe4  1  0.16119727  0.49301783  0.16288548  1
  Fe  Fe5  1  -0.00200944  0.32942342  0.32697624  1
  Fe  Fe6  1  -0.00485705  0.66049230  0.99379017  1
  Cr  Cr7  1  0.16121835  0.82607950  0.16018208  1
  Fe  Fe8  1  -0.00388283  0.65826302  0.32821148  1
  Cr  Cr9  1  0.32676576  -0.00426696  0.99302056  1
  Fe  Fe10  1  0.49470803  0.16279033  0.16326946  1
  Cr  Cr11  1  0.32721591  -0.00342743  0.32698460  1
  Cr  Cr12  1  0.32828927  0.32730135  -0.00339479  1
  Cr  Cr13  1  0.49398463  0.49331731  0.16140675  1
  Ni  Ni14  1  0.32768808  0.32807256  0.32897524  1
  Cr  Cr15  1  0.32846615  0.66068789  0.99459979  1
  Cr  Cr16  1  0.49514277  0.82865877  0.16078463  1
  Cr  Cr17  1  0.32643056  0.65773272  0.32979710  1
  Cr  Cr18  1  0.66158131  -0.00288112  -0.00289022  1
  Fe  Fe19  1  0.82670419  0.16278792  0.16334476  1
  Fe  Fe20  1  0.65926768  -0.00167408  0.32701250  1
  Cr  Cr21  1  0.66114750  0.32889612  0.99341816  1
  Cr  Cr22  1  0.82931471  0.49440275  0.15909035  1
  Fe  Fe23  1  0.65917864  0.32676210  0.32751877  1
  Fe  Fe24  1  0.66115253  0.66088926  0.99330928  1
  Cr  Cr25  1  0.82729866  0.82687935  0.16258259  1
  Cr  Cr26  1  0.66059797  0.65945343  0.33069239  1
  Cr  Cr27  1  0.16326012  0.16442748  0.49902882  1
  Cr  Cr28  1  -0.00388661  -0.00449005  0.66314436  1
  Fe  Fe29  1  0.16363557  0.16166717  0.82637000  1
  Fe  Fe30  1  0.16219946  0.49233285  0.49418730  1
  Fe  Fe31  1  -0.00444219  0.32934157  0.66231944  1
  Cr  Cr32  1  0.16140300  0.49230404  0.82775507  1
  Cr  Cr33  1  0.16201352  0.82887649  0.49538042  1
  Cr  Cr34  1  -0.00475924  0.66138561  0.65982347  1
  Fe  Fe35  1  0.16229983  0.82750805  0.82748229  1
  Fe  Fe36  1  0.49385282  0.16435301  0.49340831  1
  Fe  Fe37  1  0.32978632  -0.00426916  0.66379626  1
  Fe  Fe38  1  0.49319294  0.16166517  0.82714704  1
  Fe  Fe39  1  0.49313817  0.49041707  0.49391839  1
  Fe  Fe40  1  0.32917232  0.32781620  0.66167019  1
  Fe  Fe41  1  0.49463568  0.49453047  0.82883652  1
  Cr  Cr42  1  0.49433044  0.83041034  0.49414105  1
  Cr  Cr43  1  0.32909877  0.65969987  0.65905792  1
  Fe  Fe44  1  0.49380716  0.82868511  0.82796105  1
  Cr  Cr45  1  0.82805163  0.16340636  0.49273469  1
  Cr  Cr46  1  0.66135662  -0.00401035  0.65892003  1
  Cr  Cr47  1  0.82919297  0.16336280  0.82662031  1
  Cr  Cr48  1  0.82983834  0.49258645  0.49560413  1
  Cr  Cr49  1  0.65980475  0.32920829  0.66213593  1
  Fe  Fe50  1  0.82853476  0.49516709  0.82880584  1
  Cr  Cr51  1  0.82763605  0.82841966  0.49184562  1
  Cr  Cr52  1  0.65989508  0.65940549  0.66288801  1
  Cr  Cr53  1  0.82676391  0.82660893  0.83015424  1
" 