7915,Ni2Fe46Cr50_4,-216.364437949662, 174.240936798273,Ni2Fe46Cr50,"# generated using pymatgen
 data_Cr28Fe25Ni
_symmetry_space_group_name_H-M   'P 1'
_cell_length_a   7.53685989
_cell_length_b   7.53685989
_cell_length_c   10.65872947
_cell_angle_alpha   90.00000000
_cell_angle_beta   90.00000000
_cell_angle_gamma   90.00000000
_symmetry_Int_Tables_number   1
_chemical_formula_structural   Cr28Fe25Ni
_chemical_formula_sum   'Cr28 Fe25 Ni1'
_cell_volume   605.46120761
_cell_formula_units_Z   1
loop_
 _symmetry_equiv_pos_site_id
 _symmetry_equiv_pos_as_xyz
  1  'x, y, z'
loop_
 _atom_site_type_symbol
 _atom_site_label
 _atom_site_symmetry_multiplicity
 _atom_site_fract_x
 _atom_site_fract_y
 _atom_site_fract_z
 _atom_site_occupancy
  Cr  Cr0  1  0.99208067  0.99491125  -0.00304034  1
  Cr  Cr1  1  0.15801570  0.16391427  0.16237760  1
  Fe  Fe2  1  -0.00462567  -0.00420862  0.32812867  1
  Fe  Fe3  1  0.99319222  0.32946044  0.99500488  1
  Cr  Cr4  1  0.15924481  0.49437993  0.16043747  1
  Ni  Ni5  1  0.99147869  0.33307689  0.32713904  1
  Cr  Cr6  1  0.99314165  0.66084324  0.99227981  1
  Fe  Fe7  1  0.16082893  0.82720458  0.16350444  1
  Fe  Fe8  1  -0.00378614  0.66072461  0.32911105  1
  Cr  Cr9  1  0.32880903  0.99435373  -0.00317510  1
  Cr  Cr10  1  0.49603724  0.16264727  0.16133421  1
  Cr  Cr11  1  0.32749257  0.99216264  0.32840200  1
  Cr  Cr12  1  0.32898566  0.33022841  0.99394524  1
  Cr  Cr13  1  0.49784533  0.49753249  0.16390750  1
  Cr  Cr14  1  0.33028733  0.33076331  0.33010901  1
  Cr  Cr15  1  0.32778337  0.66175168  -0.00356805  1
  Cr  Cr16  1  0.49770563  0.82588703  0.15958472  1
  Fe  Fe17  1  0.32671777  0.66142930  0.32959693  1
  Fe  Fe18  1  0.66404861  0.99495767  0.99483058  1
  Fe  Fe19  1  0.82957342  0.16498820  0.16377421  1
  Cr  Cr20  1  0.66303068  -0.00407898  0.32717553  1
  Cr  Cr21  1  0.66516200  0.32884226  -0.00339190  1
  Fe  Fe22  1  0.82924756  0.49394991  0.16368685  1
  Fe  Fe23  1  0.66484268  0.33104897  0.32861175  1
  Fe  Fe24  1  0.66428603  0.66202476  0.99452678  1
  Cr  Cr25  1  0.82867165  0.82624592  0.16226417  1
  Fe  Fe26  1  0.66338076  0.65898716  0.32994294  1
  Cr  Cr27  1  0.15997318  0.16311025  0.49457128  1
  Cr  Cr28  1  0.99343511  0.99308850  0.66112804  1
  Cr  Cr29  1  0.16029805  0.16439538  0.83012552  1
  Fe  Fe30  1  0.15985202  0.49754397  0.49419778  1
  Cr  Cr31  1  0.99362701  0.33167232  0.66516860  1
  Fe  Fe32  1  0.16114707  0.49671150  0.82830953  1
  Fe  Fe33  1  0.16186678  0.82619380  0.49573150  1
  Fe  Fe34  1  0.99534121  0.66000328  0.66216287  1
  Cr  Cr35  1  0.16176051  0.82770739  0.82649094  1
  Cr  Cr36  1  0.49662928  0.16296441  0.49834894  1
  Fe  Fe37  1  0.32807135  0.99403453  0.66166329  1
  Cr  Cr38  1  0.49625369  0.16047886  0.82662897  1
  Fe  Fe39  1  0.49754136  0.49664881  0.49556659  1
  Cr  Cr40  1  0.32963625  0.33171149  0.66167913  1
  Cr  Cr41  1  0.49647691  0.49752860  0.82855119  1
  Cr  Cr42  1  0.49591924  0.82605551  0.49787021  1
  Fe  Fe43  1  0.32687223  0.66177586  0.66109499  1
  Cr  Cr44  1  0.49925687  0.82810469  0.82889187  1
  Cr  Cr45  1  0.82985831  0.16405428  0.49335469  1
  Fe  Fe46  1  0.66314533  -0.00438411  0.66234368  1
  Fe  Fe47  1  0.82721064  0.16137519  0.82858268  1
  Fe  Fe48  1  0.82867152  0.49497408  0.49431824  1
  Fe  Fe49  1  0.66406992  0.33036835  0.66228684  1
  Fe  Fe50  1  0.82847177  0.49631000  0.82828991  1
  Cr  Cr51  1  0.82976081  0.82539335  0.49615315  1
  Fe  Fe52  1  0.66425432  0.65979453  0.66211391  1
  Fe  Fe53  1  0.82702601  0.82826181  0.82778057  1
" 