8081,Ni2Fe46Cr50_11,-216.58513935987, 176.19429558955,Ni2Fe46Cr50,"# generated using pymatgen
 data_Cr28Fe25Ni
_symmetry_space_group_name_H-M   'P 1'
_cell_length_a   7.54127828
_cell_length_b   7.54127828
_cell_length_c   10.66497802
_cell_angle_alpha   90.00000000
_cell_angle_beta   90.00000000
_cell_angle_gamma   90.00000000
_symmetry_Int_Tables_number   1
_chemical_formula_structural   Cr28Fe25Ni
_chemical_formula_sum   'Cr28 Fe25 Ni1'
_cell_volume   606.52666394
_cell_formula_units_Z   1
loop_
 _symmetry_equiv_pos_site_id
 _symmetry_equiv_pos_as_xyz
  1  'x, y, z'
loop_
 _atom_site_type_symbol
 _atom_site_label
 _atom_site_symmetry_multiplicity
 _atom_site_fract_x
 _atom_site_fract_y
 _atom_site_fract_z
 _atom_site_occupancy
  Fe  Fe0  1  -0.00437750  0.99420309  0.99444848  1
  Fe  Fe1  1  0.16269134  0.15970054  0.16373460  1
  Fe  Fe2  1  -0.00266992  0.99340877  0.32819720  1
  Cr  Cr3  1  -0.00426994  0.32673302  -0.00344280  1
  Cr  Cr4  1  0.16440595  0.49410251  0.15983669  1
  Cr  Cr5  1  -0.00389927  0.32864007  0.33130197  1
  Fe  Fe6  1  -0.00479270  0.66315588  0.99456293  1
  Fe  Fe7  1  0.16062127  0.82868565  0.16339263  1
  Fe  Fe8  1  -0.00274943  0.66347206  0.32913376  1
  Cr  Cr9  1  0.32799652  -0.00449751  -0.00198532  1
  Fe  Fe10  1  0.49349835  0.16345027  0.16358762  1
  Fe  Fe11  1  0.32696079  -0.00449778  0.32789945  1
  Fe  Fe12  1  0.33083019  0.32720036  -0.00438905  1
  Fe  Fe13  1  0.49531194  0.49442919  0.16324608  1
  Fe  Fe14  1  0.32917608  0.32785426  0.32742004  1
  Cr  Cr15  1  0.32893434  0.66263808  -0.00449645  1
  Cr  Cr16  1  0.49671224  0.82871638  0.16712079  1
  Fe  Fe17  1  0.32730789  0.66190848  0.32948804  1
  Cr  Cr18  1  0.66000946  -0.00376339  0.99248974  1
  Cr  Cr19  1  0.82821676  0.15869048  0.16250922  1
  Fe  Fe20  1  0.66085757  0.99493915  0.32898671  1
  Cr  Cr21  1  0.66060269  0.32808066  0.99353962  1
  Cr  Cr22  1  0.82891468  0.49788721  0.16427893  1
  Cr  Cr23  1  0.66275189  0.32852615  0.32943449  1
  Cr  Cr24  1  0.65984041  0.66140311  0.99332926  1
  Cr  Cr25  1  0.82869957  0.82881597  0.15923303  1
  Fe  Fe26  1  0.66130568  0.66204525  0.32983957  1
  Cr  Cr27  1  0.16356111  0.16010684  0.49649558  1
  Fe  Fe28  1  -0.00438742  0.99239802  0.66146848  1
  Cr  Cr29  1  0.16273121  0.16194121  0.82664897  1
  Cr  Cr30  1  0.16387184  0.49547689  0.49668472  1
  Cr  Cr31  1  0.99220725  0.32718351  0.65818627  1
  Cr  Cr32  1  0.16483021  0.49445935  0.82835991  1
  Fe  Fe33  1  0.16431959  0.82890720  0.49470056  1
  Cr  Cr34  1  -0.00277332  0.66144168  0.65973885  1
  Cr  Cr35  1  0.16064425  0.82815949  0.82799548  1
  Cr  Cr36  1  0.49368439  0.15999107  0.49618443  1
  Fe  Fe37  1  0.32692985  0.99274762  0.66106688  1
  Fe  Fe38  1  0.49321783  0.16433544  0.82687480  1
  Cr  Cr39  1  0.49405886  0.49609022  0.49598081  1
  Fe  Fe40  1  0.33057928  0.33007277  0.66251719  1
  Fe  Fe41  1  0.49307066  0.49405236  0.82570100  1
  Fe  Fe42  1  0.49158110  0.82896486  0.49411985  1
  Ni  Ni43  1  0.32881299  0.66450673  0.65970097  1
  Cr  Cr44  1  0.49461341  0.82816378  0.82484078  1
  Cr  Cr45  1  0.82764325  0.15977205  0.49634806  1
  Cr  Cr46  1  0.66022838  -0.00337640  0.66408210  1
  Fe  Fe47  1  0.82956878  0.16077794  0.82746477  1
  Fe  Fe48  1  0.82727164  0.49600900  0.49412590  1
  Fe  Fe49  1  0.65909719  0.32948361  0.66300502  1
  Cr  Cr50  1  0.82859578  0.49609178  0.82774293  1
  Cr  Cr51  1  0.82693333  0.82863812  0.49248532  1
  Cr  Cr52  1  0.66022631  0.66213442  0.66060028  1
  Fe  Fe53  1  0.83022772  0.82977485  0.82841523  1
" 