6662,Ni2Fe41Cr55_9,-215.322275740178, 184.030603582221,Ni2Fe41Cr55,"# generated using pymatgen
 data_Cr31Fe22Ni
_symmetry_space_group_name_H-M   'P 1'
_cell_length_a   7.55385180
_cell_length_b   7.55385180
_cell_length_c   10.68275967
_cell_angle_alpha   90.00000000
_cell_angle_beta   90.00000000
_cell_angle_gamma   90.00000000
_symmetry_Int_Tables_number   1
_chemical_formula_structural   Cr31Fe22Ni
_chemical_formula_sum   'Cr31 Fe22 Ni1'
_cell_volume   609.56549932
_cell_formula_units_Z   1
loop_
 _symmetry_equiv_pos_site_id
 _symmetry_equiv_pos_as_xyz
  1  'x, y, z'
loop_
 _atom_site_type_symbol
 _atom_site_label
 _atom_site_symmetry_multiplicity
 _atom_site_fract_x
 _atom_site_fract_y
 _atom_site_fract_z
 _atom_site_occupancy
  Cr  Cr0  1  -0.00272794  0.99182920  0.99300638  1
  Cr  Cr1  1  0.16159489  0.16180249  0.16081530  1
  Cr  Cr2  1  0.99282225  0.99266841  0.33056244  1
  Fe  Fe3  1  -0.00529662  0.32959541  -0.00540452  1
  Fe  Fe4  1  0.16178361  0.49355879  0.16220058  1
  Fe  Fe5  1  0.99381774  0.32717623  0.32688566  1
  Cr  Cr6  1  -0.00515813  0.66208622  -0.00247206  1
  Fe  Fe7  1  0.16334387  0.82881111  0.16232578  1
  Cr  Cr8  1  -0.00523676  0.66176392  0.32400846  1
  Fe  Fe9  1  0.32717296  0.99202536  0.99399431  1
  Cr  Cr10  1  0.49384249  0.15758289  0.16148629  1
  Fe  Fe11  1  0.32887090  0.99213707  0.32730129  1
  Cr  Cr12  1  0.32939835  0.32889922  0.99341118  1
  Fe  Fe13  1  0.49288468  0.49539631  0.16281908  1
  Fe  Fe14  1  0.32658334  0.32735230  0.32638017  1
  Cr  Cr15  1  0.32747355  0.66267626  -0.00429473  1
  Fe  Fe16  1  0.49411352  0.82716780  0.16355879  1
  Fe  Fe17  1  0.33065872  0.66296758  0.32512712  1
  Cr  Cr18  1  0.66041671  0.99276042  -0.00301589  1
  Cr  Cr19  1  0.82739664  0.16062622  0.15960715  1
  Ni  Ni20  1  0.65878694  0.98935970  0.32714161  1
  Cr  Cr21  1  0.66025451  0.33065402  0.99350322  1
  Fe  Fe22  1  0.82806931  0.49420413  0.16167219  1
  Cr  Cr23  1  0.65891284  0.32802490  0.32559461  1
  Cr  Cr24  1  0.66027939  0.65911045  -0.00446610  1
  Fe  Fe25  1  0.82531737  0.82819608  0.16264682  1
  Fe  Fe26  1  0.66038107  0.66398408  0.32625392  1
  Fe  Fe27  1  0.16213259  0.16151558  0.49182124  1
  Cr  Cr28  1  -0.00427925  0.99393040  0.65868110  1
  Fe  Fe29  1  0.16069447  0.16039583  0.82893942  1
  Cr  Cr30  1  0.16165006  0.49429016  0.49004025  1
  Cr  Cr31  1  -0.00467578  0.32565587  0.66015849  1
  Cr  Cr32  1  0.15941499  0.49578539  0.82765926  1
  Cr  Cr33  1  0.16346115  0.82551913  0.49474029  1
  Cr  Cr34  1  0.99390333  0.66312341  0.66111109  1
  Fe  Fe35  1  0.16253794  0.82925482  0.82846231  1
  Cr  Cr36  1  0.49337174  0.15854738  0.49058570  1
  Cr  Cr37  1  0.32617896  -0.00546201  0.66298266  1
  Cr  Cr38  1  0.49345279  0.15808151  0.83028242  1
  Cr  Cr39  1  0.49340132  0.49781393  0.49434263  1
  Cr  Cr40  1  0.32859755  0.32678178  0.65961549  1
  Fe  Fe41  1  0.49550633  0.49683329  0.82742718  1
  Fe  Fe42  1  0.49614438  0.82692361  0.49176416  1
  Cr  Cr43  1  0.32968354  0.66146196  0.66322996  1
  Fe  Fe44  1  0.49408857  0.82656916  0.82834618  1
  Cr  Cr45  1  0.82622239  0.15997339  0.49260868  1
  Cr  Cr46  1  0.66058686  0.99305700  0.65748166  1
  Cr  Cr47  1  0.82823000  0.16138920  0.83019556  1
  Cr  Cr48  1  0.82769705  0.49730986  0.49662035  1
  Cr  Cr49  1  0.65880216  0.32953694  0.66483634  1
  Fe  Fe50  1  0.82736091  0.49519382  0.82777488  1
  Fe  Fe51  1  0.82363439  0.82604819  0.49241041  1
  Fe  Fe52  1  0.65959745  0.66180101  0.66166729  1
  Cr  Cr53  1  0.82658063  0.82598552  0.82529865  1
" 