7711,Ni2Fe50Cr47_14,-217.144866347194, 171.163655580238,Ni2Fe50Cr47,"# generated using pymatgen
 data_Cr26Fe27Ni
_symmetry_space_group_name_H-M   'P 1'
_cell_length_a   7.52318624
_cell_length_b   7.52318624
_cell_length_c   10.63939201
_cell_angle_alpha   90.00000000
_cell_angle_beta   90.00000000
_cell_angle_gamma   90.00000000
_symmetry_Int_Tables_number   1
_chemical_formula_structural   Cr26Fe27Ni
_chemical_formula_sum   'Cr26 Fe27 Ni1'
_cell_volume   602.17183185
_cell_formula_units_Z   1
loop_
 _symmetry_equiv_pos_site_id
 _symmetry_equiv_pos_as_xyz
  1  'x, y, z'
loop_
 _atom_site_type_symbol
 _atom_site_label
 _atom_site_symmetry_multiplicity
 _atom_site_fract_x
 _atom_site_fract_y
 _atom_site_fract_z
 _atom_site_occupancy
  Cr  Cr0  1  0.99612874  -0.00146696  0.99000478  1
  Fe  Fe1  1  0.16363772  0.16440338  0.16180909  1
  Cr  Cr2  1  -0.00241343  -0.00019824  0.33569943  1
  Cr  Cr3  1  -0.00167860  0.32945971  0.99534034  1
  Fe  Fe4  1  0.16247488  0.49607559  0.16343174  1
  Fe  Fe5  1  -0.00221916  0.32993743  0.33121746  1
  Cr  Cr6  1  -0.00266785  0.66234467  0.99412145  1
  Cr  Cr7  1  0.16312795  0.83288530  0.16468384  1
  Fe  Fe8  1  -0.00198683  0.66377711  0.32992464  1
  Fe  Fe9  1  0.33012305  -0.00207065  0.99417472  1
  Fe  Fe10  1  0.49492334  0.15929495  0.16103621  1
  Cr  Cr11  1  0.32888712  -0.00353839  0.33100234  1
  Fe  Fe12  1  0.32876082  0.32718510  0.99499203  1
  Cr  Cr13  1  0.49609446  0.49350218  0.16244382  1
  Cr  Cr14  1  0.32959716  0.32954041  0.32797044  1
  Cr  Cr15  1  0.33128686  0.66176072  0.99548739  1
  Fe  Fe16  1  0.49677643  0.83140109  0.16067891  1
  Cr  Cr17  1  0.33035948  0.66297484  0.33163784  1
  Fe  Fe18  1  0.66079340  0.99537276  0.99394997  1
  Cr  Cr19  1  0.83037560  0.16229765  0.16491151  1
  Cr  Cr20  1  0.66289702  -0.00314139  0.33058305  1
  Cr  Cr21  1  0.66238627  0.32852933  -0.00346862  1
  Cr  Cr22  1  0.83163590  0.49657208  0.16594907  1
  Fe  Fe23  1  0.66241132  0.32776663  0.33013549  1
  Fe  Fe24  1  0.66274086  0.66387019  0.99463912  1
  Cr  Cr25  1  0.83069094  0.83008558  0.16007453  1
  Cr  Cr26  1  0.66101504  0.66181303  0.32738067  1
  Fe  Fe27  1  0.16153947  0.16645633  0.49864064  1
  Cr  Cr28  1  0.99556502  -0.00121417  0.66310202  1
  Fe  Fe29  1  0.16463339  0.16602854  0.82743211  1
  Cr  Cr30  1  0.16183698  0.49704098  0.49896646  1
  Ni  Ni31  1  0.99398838  0.33030486  0.66362248  1
  Fe  Fe32  1  0.16296190  0.49468617  0.82638834  1
  Fe  Fe33  1  0.16261996  0.82816469  0.49788832  1
  Fe  Fe34  1  -0.00261783  0.66290457  0.66502793  1
  Fe  Fe35  1  0.16445785  0.82847564  0.82844373  1
  Cr  Cr36  1  0.49656512  0.16439124  0.49844298  1
  Cr  Cr37  1  0.32863354  0.99395256  0.66148500  1
  Fe  Fe38  1  0.49594744  0.16072475  0.82852619  1
  Cr  Cr39  1  0.49670161  0.49382739  0.50291592  1
  Fe  Fe40  1  0.32474939  0.32659978  0.66434421  1
  Cr  Cr41  1  0.49476543  0.49339345  0.82376470  1
  Cr  Cr42  1  0.49587168  0.82906026  0.49877849  1
  Fe  Fe43  1  0.32611015  0.66266655  0.66491530  1
  Fe  Fe44  1  0.49742508  0.82961420  0.82831263  1
  Fe  Fe45  1  0.82936891  0.16604630  0.49847249  1
  Fe  Fe46  1  0.66399409  -0.00211502  0.66468568  1
  Fe  Fe47  1  0.82756250  0.16402671  0.82767629  1
  Cr  Cr48  1  0.82960978  0.49537014  0.49472097  1
  Fe  Fe49  1  0.66611500  0.32570332  0.66432537  1
  Cr  Cr50  1  0.82996801  0.49773032  0.82822059  1
  Cr  Cr51  1  0.83184328  0.82925857  0.49755438  1
  Fe  Fe52  1  0.66523985  0.66448903  0.66402074  1
  Fe  Fe53  1  0.82690934  0.83050257  0.82803857  1
" 