8779,Ni2Fe50Cr47_18,-217.306858387219, 174.264048853885,Ni2Fe50Cr47,"# generated using pymatgen
 data_Cr26Fe27Ni
_symmetry_space_group_name_H-M   'P 1'
_cell_length_a   7.52267904
_cell_length_b   7.52267904
_cell_length_c   10.63867472
_cell_angle_alpha   90.00000000
_cell_angle_beta   90.00000000
_cell_angle_gamma   90.00000000
_symmetry_Int_Tables_number   1
_chemical_formula_structural   Cr26Fe27Ni
_chemical_formula_sum   'Cr26 Fe27 Ni1'
_cell_volume   602.05004843
_cell_formula_units_Z   1
loop_
 _symmetry_equiv_pos_site_id
 _symmetry_equiv_pos_as_xyz
  1  'x, y, z'
loop_
 _atom_site_type_symbol
 _atom_site_label
 _atom_site_symmetry_multiplicity
 _atom_site_fract_x
 _atom_site_fract_y
 _atom_site_fract_z
 _atom_site_occupancy
  Fe  Fe0  1  0.99425972  -0.00201653  -0.00327611  1
  Cr  Cr1  1  0.16185940  0.16097722  0.16150513  1
  Fe  Fe2  1  0.99457344  0.99457665  0.32704052  1
  Fe  Fe3  1  0.99511908  0.32910924  -0.00225817  1
  Fe  Fe4  1  0.16382969  0.49568672  0.16269204  1
  Cr  Cr5  1  0.99620964  0.33274637  0.32731172  1
  Cr  Cr6  1  0.99314184  0.66243103  0.00129970  1
  Cr  Cr7  1  0.16334143  0.83000186  0.16315970  1
  Fe  Fe8  1  0.99453626  0.66376047  0.32705261  1
  Fe  Fe9  1  0.33217237  -0.00361918  0.99608029  1
  Fe  Fe10  1  0.49735071  0.16024761  0.16399539  1
  Fe  Fe11  1  0.33181863  -0.00306754  0.32799436  1
  Cr  Cr12  1  0.32965465  0.32706075  -0.00324058  1
  Fe  Fe13  1  0.49559530  0.49684015  0.16326148  1
  Fe  Fe14  1  0.33167736  0.32935157  0.32640651  1
  Fe  Fe15  1  0.33164270  0.66245172  -0.00060104  1
  Fe  Fe16  1  0.49750043  0.83162457  0.16107763  1
  Cr  Cr17  1  0.32876603  0.66347147  0.32926236  1
  Fe  Fe18  1  0.66282369  0.99525426  -0.00284947  1
  Fe  Fe19  1  0.82821334  0.16034134  0.16329309  1
  Fe  Fe20  1  0.66244411  -0.00348825  0.32601324  1
  Cr  Cr21  1  0.66308712  0.32869311  -0.00129400  1
  Fe  Fe22  1  0.82917971  0.49591193  0.16346299  1
  Fe  Fe23  1  0.66157375  0.33007960  0.32509350  1
  Fe  Fe24  1  0.66265193  0.66380829  -0.00076329  1
  Fe  Fe25  1  0.82778548  0.83296080  0.16319718  1
  Cr  Cr26  1  0.66512554  0.66496199  0.32899518  1
  Cr  Cr27  1  0.16031947  0.16111920  0.49668140  1
  Fe  Fe28  1  0.99615831  -0.00225408  0.66469729  1
  Fe  Fe29  1  0.16451651  0.16204815  0.83134604  1
  Cr  Cr30  1  0.16433511  0.49662034  0.49489324  1
  Fe  Fe31  1  -0.00341218  0.32756134  0.66419851  1
  Cr  Cr32  1  0.16267645  0.49675071  0.83062178  1
  Cr  Cr33  1  0.16311825  0.83114790  0.49432453  1
  Cr  Cr34  1  0.99402139  0.66346521  0.66129925  1
  Cr  Cr35  1  0.16240880  0.83112085  0.83184097  1
  Cr  Cr36  1  0.49820057  0.16413907  0.48977850  1
  Cr  Cr37  1  0.33139318  -0.00251549  0.66353477  1
  Ni  Ni38  1  0.49830116  0.16137306  0.83383445  1
  Cr  Cr39  1  0.49693491  0.49773670  0.49864072  1
  Cr  Cr40  1  0.32916717  0.32562628  0.66413804  1
  Cr  Cr41  1  0.49832458  0.49836260  0.82843282  1
  Fe  Fe42  1  0.49643294  0.82981451  0.49588916  1
  Fe  Fe43  1  0.33098617  0.66488261  0.66223440  1
  Cr  Cr44  1  0.49683582  0.82715479  0.83205579  1
  Cr  Cr45  1  0.83001089  0.16229169  0.49286278  1
  Cr  Cr46  1  0.66108286  0.99497462  0.66274560  1
  Cr  Cr47  1  0.83265042  0.16280240  0.82993577  1
  Cr  Cr48  1  0.82736094  0.49445724  0.49835122  1
  Cr  Cr49  1  0.66285845  0.32760917  0.66388297  1
  Fe  Fe50  1  0.82901590  0.49789869  0.83028691  1
  Cr  Cr51  1  0.83026359  0.83225606  0.49547106  1
  Fe  Fe52  1  0.66208875  0.66511921  0.66347470  1
  Fe  Fe53  1  0.82834687  0.82861057  0.83096601  1
" 