3421,Ni2Fe57Cr40_3,-218.847022247695, 163.17727667072,Ni2Fe57Cr40,"# generated using pymatgen
 data_Cr22Fe31Ni
_symmetry_space_group_name_H-M   'P 1'
_cell_length_a   7.51866931
_cell_length_b   7.51866931
_cell_length_c   10.63300411
_cell_angle_alpha   90.00000000
_cell_angle_beta   90.00000000
_cell_angle_gamma   90.00000000
_symmetry_Int_Tables_number   1
_chemical_formula_structural   Cr22Fe31Ni
_chemical_formula_sum   'Cr22 Fe31 Ni1'
_cell_volume   601.08784948
_cell_formula_units_Z   1
loop_
 _symmetry_equiv_pos_site_id
 _symmetry_equiv_pos_as_xyz
  1  'x, y, z'
loop_
 _atom_site_type_symbol
 _atom_site_label
 _atom_site_symmetry_multiplicity
 _atom_site_fract_x
 _atom_site_fract_y
 _atom_site_fract_z
 _atom_site_occupancy
  Cr  Cr0  1  0.00015904  0.99647603  -0.00326316  1
  Cr  Cr1  1  0.16378722  0.16275286  0.16720571  1
  Fe  Fe2  1  0.99382056  0.99531133  0.33211941  1
  Cr  Cr3  1  0.99634078  0.33239245  0.99442915  1
  Cr  Cr4  1  0.16523828  0.49934211  0.16600237  1
  Cr  Cr5  1  0.99511207  0.33150726  0.32987096  1
  Fe  Fe6  1  -0.00095917  0.66363513  0.99386256  1
  Cr  Cr7  1  0.16223209  0.82741641  0.16377945  1
  Fe  Fe8  1  0.99367385  0.66381442  0.33145104  1
  Fe  Fe9  1  0.33240234  0.99454798  0.99579557  1
  Fe  Fe10  1  0.49794140  0.16077403  0.16300467  1
  Cr  Cr11  1  0.33206437  0.99333907  0.32786045  1
  Cr  Cr12  1  0.32921328  0.32809357  -0.00183113  1
  Cr  Cr13  1  0.49636494  0.49704649  0.16559000  1
  Fe  Fe14  1  0.33181930  0.32973520  0.33097063  1
  Fe  Fe15  1  0.32981026  0.66485474  0.99474474  1
  Fe  Fe16  1  0.49783698  0.82922379  0.16156862  1
  Fe  Fe17  1  0.33307321  0.66345418  0.33159405  1
  Fe  Fe18  1  0.65937124  0.99610654  0.99568124  1
  Cr  Cr19  1  0.82666919  0.16068932  0.16314764  1
  Fe  Fe20  1  0.66351734  0.99478701  0.33284749  1
  Fe  Fe21  1  0.66100472  0.32881179  0.99495286  1
  Cr  Cr22  1  0.82798478  0.49950533  0.15761894  1
  Cr  Cr23  1  0.66446126  0.33170627  0.33118792  1
  Fe  Fe24  1  0.66070833  0.66433006  0.99428879  1
  Cr  Cr25  1  0.82835746  0.82996018  0.16408331  1
  Fe  Fe26  1  0.66288566  0.66529877  0.33301507  1
  Cr  Cr27  1  0.16284982  0.16273694  0.49879579  1
  Fe  Fe28  1  0.99551551  0.99511891  0.66448314  1
  Fe  Fe29  1  0.16504637  0.16268131  0.82717943  1
  Cr  Cr30  1  0.16818151  0.49688438  0.49614906  1
  Fe  Fe31  1  -0.00297879  0.33251183  0.66403482  1
  Fe  Fe32  1  0.16239853  0.49843731  0.82774841  1
  Cr  Cr33  1  0.16064063  0.82949133  0.49795987  1
  Fe  Fe34  1  0.99404208  0.66179904  0.66339439  1
  Fe  Fe35  1  0.16572311  0.82884547  0.82829982  1
  Cr  Cr36  1  0.49566510  0.16638129  0.49763040  1
  Fe  Fe37  1  0.33002519  0.99434762  0.66495475  1
  Fe  Fe38  1  0.49503225  0.16095211  0.82910147  1
  Fe  Fe39  1  0.49779502  0.50052094  0.49758819  1
  Fe  Fe40  1  0.33015159  0.33085224  0.66527542  1
  Cr  Cr41  1  0.49688478  0.49678131  0.82816259  1
  Fe  Fe42  1  0.49541582  0.82720312  0.49644417  1
  Fe  Fe43  1  0.33239920  0.66495718  0.66362887  1
  Fe  Fe44  1  0.49629638  0.82969654  0.82902348  1
  Fe  Fe45  1  0.83152727  0.16160872  0.49714184  1
  Cr  Cr46  1  0.66088044  0.99346905  0.66015231  1
  Cr  Cr47  1  0.82826710  0.16246098  0.82952230  1
  Fe  Fe48  1  0.83114780  0.49979076  0.49747553  1
  Cr  Cr49  1  0.66587424  0.33243895  0.66242233  1
  Fe  Fe50  1  0.82972379  0.49898197  0.82898415  1
  Fe  Fe51  1  0.82870361  0.82837409  0.49643071  1
  Ni  Ni52  1  0.66293602  0.66366154  0.66078873  1
  Cr  Cr53  1  0.82958821  0.82872612  0.83027301  1
" 