4343,Ni2Fe46Cr50_2,-216.573643785611, 179.320398349276,Ni2Fe46Cr50,"# generated using pymatgen
 data_Cr28Fe25Ni
_symmetry_space_group_name_H-M   'P 1'
_cell_length_a   7.53399722
_cell_length_b   7.53399722
_cell_length_c   10.65468105
_cell_angle_alpha   90.00000000
_cell_angle_beta   90.00000000
_cell_angle_gamma   90.00000000
_symmetry_Int_Tables_number   1
_chemical_formula_structural   Cr28Fe25Ni
_chemical_formula_sum   'Cr28 Fe25 Ni1'
_cell_volume   604.77156663
_cell_formula_units_Z   1
loop_
 _symmetry_equiv_pos_site_id
 _symmetry_equiv_pos_as_xyz
  1  'x, y, z'
loop_
 _atom_site_type_symbol
 _atom_site_label
 _atom_site_symmetry_multiplicity
 _atom_site_fract_x
 _atom_site_fract_y
 _atom_site_fract_z
 _atom_site_occupancy
  Fe  Fe0  1  -0.00395857  -0.00283127  0.99547705  1
  Fe  Fe1  1  0.16248011  0.16356084  0.16334408  1
  Fe  Fe2  1  0.99513090  -0.00404282  0.32943244  1
  Cr  Cr3  1  -0.00284589  0.32873731  -0.00428354  1
  Fe  Fe4  1  0.16480915  0.49357538  0.16262949  1
  Fe  Fe5  1  -0.00219485  0.32751417  0.32827500  1
  Fe  Fe6  1  -0.00225479  0.65987151  -0.00428117  1
  Cr  Cr7  1  0.15976253  0.82829466  0.16192852  1
  Cr  Cr8  1  -0.00389794  0.66030669  0.32762636  1
  Cr  Cr9  1  0.32777151  -0.00365114  0.99531188  1
  Fe  Fe10  1  0.49452881  0.16466342  0.16296467  1
  Cr  Cr11  1  0.32642615  -0.00442870  0.33070103  1
  Fe  Fe12  1  0.32925210  0.33053022  -0.00318572  1
  Fe  Fe13  1  0.49362906  0.49362415  0.16279250  1
  Fe  Fe14  1  0.32856746  0.33087327  0.32710527  1
  Cr  Cr15  1  0.32837785  0.66172156  0.99335187  1
  Cr  Cr16  1  0.49764520  0.83150381  0.16276294  1
  Cr  Cr17  1  0.32902734  0.66378223  0.33208488  1
  Fe  Fe18  1  0.66174629  -0.00254900  0.99492146  1
  Cr  Cr19  1  0.82707010  0.15996916  0.16308586  1
  Fe  Fe20  1  0.66243864  -0.00425836  0.32978200  1
  Cr  Cr21  1  0.66371983  0.32964230  0.99302345  1
  Cr  Cr22  1  0.83018532  0.49679112  0.16335285  1
  Cr  Cr23  1  0.66523392  0.33037608  0.33207748  1
  Cr  Cr24  1  0.66092301  0.66072735  -0.00314649  1
  Cr  Cr25  1  0.82921192  0.82917312  0.15886550  1
  Cr  Cr26  1  0.66130398  0.66092755  0.33020146  1
  Cr  Cr27  1  0.16210870  0.16245891  0.49445133  1
  Fe  Fe28  1  0.99393839  0.99516662  0.66108130  1
  Cr  Cr29  1  0.16266665  0.16263085  0.82812226  1
  Cr  Cr30  1  0.16176296  0.49539362  0.49724700  1
  Fe  Fe31  1  0.99293416  0.32750125  0.66191751  1
  Fe  Fe32  1  0.16191849  0.49575071  0.82762403  1
  Ni  Ni33  1  0.15991905  0.82758194  0.49775116  1
  Fe  Fe34  1  0.99547838  0.66338820  0.66070492  1
  Cr  Cr35  1  0.15980278  0.82671096  0.82582044  1
  Cr  Cr36  1  0.49649642  0.16444114  0.49384636  1
  Cr  Cr37  1  0.32766325  0.99188604  0.66038821  1
  Cr  Cr38  1  0.49645659  0.16391574  0.83086437  1
  Fe  Fe39  1  0.49405200  0.49595894  0.49683182  1
  Cr  Cr40  1  0.32844989  0.32937979  0.66486487  1
  Fe  Fe41  1  0.49427239  0.49732867  0.82781142  1
  Fe  Fe42  1  0.49377634  0.82895339  0.49587071  1
  Fe  Fe43  1  0.32849801  0.66182777  0.66141679  1
  Fe  Fe44  1  0.49575620  0.82805663  0.82864837  1
  Fe  Fe45  1  0.83164957  0.16226501  0.49578052  1
  Cr  Cr46  1  0.66321822  -0.00409613  0.66333310  1
  Fe  Fe47  1  0.83092950  0.16170941  0.82816417  1
  Fe  Fe48  1  0.83098400  0.49348494  0.49739611  1
  Fe  Fe49  1  0.66331212  0.32840895  0.66122455  1
  Cr  Cr50  1  0.83000228  0.49684754  0.82557105  1
  Cr  Cr51  1  0.83000346  0.82858125  0.49196791  1
  Cr  Cr52  1  0.66056609  0.66143662  0.65971186  1
  Cr  Cr53  1  0.82936397  0.82869560  0.83545573  1
" 