494,Ni2Fe66Cr31_12,-220.223232850317, 157.832132411558,Ni2Fe66Cr31,"# generated using pymatgen
 data_Cr18Fe35Ni
_symmetry_space_group_name_H-M   'P 1'
_cell_length_a   7.50151579
_cell_length_b   7.50151579
_cell_length_c   10.60874537
_cell_angle_alpha   90.00000000
_cell_angle_beta   90.00000000
_cell_angle_gamma   90.00000000
_symmetry_Int_Tables_number   1
_chemical_formula_structural   Cr18Fe35Ni
_chemical_formula_sum   'Cr18 Fe35 Ni1'
_cell_volume   596.98316130
_cell_formula_units_Z   1
loop_
 _symmetry_equiv_pos_site_id
 _symmetry_equiv_pos_as_xyz
  1  'x, y, z'
loop_
 _atom_site_type_symbol
 _atom_site_label
 _atom_site_symmetry_multiplicity
 _atom_site_fract_x
 _atom_site_fract_y
 _atom_site_fract_z
 _atom_site_occupancy
  Cr  Cr0  1  0.99619012  -0.00191068  0.99586766  1
  Cr  Cr1  1  0.16551621  0.16335304  0.16349748  1
  Cr  Cr2  1  0.99650668  -0.00140385  0.33287204  1
  Cr  Cr3  1  -0.00176347  0.33059282  -0.00103406  1
  Cr  Cr4  1  0.16344646  0.49728525  0.16384637  1
  Fe  Fe5  1  0.99581915  0.33090734  0.33209837  1
  Cr  Cr6  1  0.99554855  0.66453100  -0.00225047  1
  Cr  Cr7  1  0.16698782  0.83236370  0.16547295  1
  Cr  Cr8  1  0.99656041  0.66334597  0.33204262  1
  Fe  Fe9  1  0.33240442  -0.00079054  0.99678196  1
  Fe  Fe10  1  0.49853526  0.16437780  0.16511763  1
  Fe  Fe11  1  0.33284668  -0.00209394  0.33221884  1
  Fe  Fe12  1  0.33343053  0.32954855  0.99671221  1
  Fe  Fe13  1  0.49938919  0.49758617  0.16450578  1
  Cr  Cr14  1  0.33247503  0.33042548  0.33269312  1
  Cr  Cr15  1  0.33368882  0.66310307  0.99663166  1
  Fe  Fe16  1  0.49866338  0.83099928  0.16569128  1
  Fe  Fe17  1  0.33230103  0.66460008  0.33128271  1
  Cr  Cr18  1  0.66295936  0.99718196  0.99730840  1
  Fe  Fe19  1  0.82922645  0.16535253  0.16541267  1
  Fe  Fe20  1  0.66326203  -0.00111551  0.33067707  1
  Fe  Fe21  1  0.66268074  0.33146989  -0.00155691  1
  Fe  Fe22  1  0.82824714  0.49704179  0.16486497  1
  Fe  Fe23  1  0.66548641  0.33057876  0.33149720  1
  Fe  Fe24  1  0.66396710  0.66395995  -0.00174547  1
  Fe  Fe25  1  0.82889347  0.83067375  0.16504695  1
  Fe  Fe26  1  0.66372551  0.66370160  0.33061911  1
  Fe  Fe27  1  0.16571828  0.16400984  0.49749166  1
  Fe  Fe28  1  0.99601116  -0.00192043  0.66375374  1
  Fe  Fe29  1  0.16535131  0.16594270  0.83114974  1
  Fe  Fe30  1  0.16640861  0.49743641  0.49748259  1
  Cr  Cr31  1  -0.00086691  0.32983376  0.66239272  1
  Fe  Fe32  1  0.16662569  0.49595359  0.83056472  1
  Fe  Fe33  1  0.16507404  0.83173789  0.49774405  1
  Cr  Cr34  1  -0.00189439  0.66517472  0.66349701  1
  Cr  Cr35  1  0.16489438  0.83184767  0.83054965  1
  Ni  Ni36  1  0.49967233  0.16526910  0.49776048  1
  Cr  Cr37  1  0.33241204  -0.00009205  0.66416882  1
  Fe  Fe38  1  0.49787478  0.16569048  0.83038044  1
  Fe  Fe39  1  0.49803986  0.49613012  0.49791174  1
  Fe  Fe40  1  0.33282348  0.33218917  0.66359437  1
  Fe  Fe41  1  0.49647097  0.49647295  0.83087623  1
  Cr  Cr42  1  0.49692688  0.83151586  0.49614716  1
  Fe  Fe43  1  0.33098207  0.66223979  0.66444970  1
  Fe  Fe44  1  0.49890388  0.83099318  0.83077417  1
  Fe  Fe45  1  0.82867302  0.16422080  0.49775790  1
  Fe  Fe46  1  0.66579304  -0.00023267  0.66447428  1
  Fe  Fe47  1  0.83012073  0.16348428  0.82978753  1
  Fe  Fe48  1  0.82878800  0.49620330  0.49702030  1
  Fe  Fe49  1  0.66252934  0.32921986  0.66352691  1
  Cr  Cr50  1  0.82912676  0.49649965  0.83296615  1
  Fe  Fe51  1  0.82992244  0.83270342  0.49788177  1
  Cr  Cr52  1  0.66321117  0.66522245  0.66542377  1
  Fe  Fe53  1  0.82935217  0.83252851  0.83023989  1
" 