1482,Ni2Fe57Cr40_16,-218.751658764232, 163.254150894558,Ni2Fe57Cr40,"# generated using pymatgen
 data_Cr22Fe31Ni
_symmetry_space_group_name_H-M   'P 1'
_cell_length_a   7.51915511
_cell_length_b   7.51915511
_cell_length_c   10.63369113
_cell_angle_alpha   90.00000000
_cell_angle_beta   90.00000000
_cell_angle_gamma   90.00000000
_symmetry_Int_Tables_number   1
_chemical_formula_structural   Cr22Fe31Ni
_chemical_formula_sum   'Cr22 Fe31 Ni1'
_cell_volume   601.20437095
_cell_formula_units_Z   1
loop_
 _symmetry_equiv_pos_site_id
 _symmetry_equiv_pos_as_xyz
  1  'x, y, z'
loop_
 _atom_site_type_symbol
 _atom_site_label
 _atom_site_symmetry_multiplicity
 _atom_site_fract_x
 _atom_site_fract_y
 _atom_site_fract_z
 _atom_site_occupancy
  Cr  Cr0  1  -0.00021975  -0.00159692  -0.00306753  1
  Fe  Fe1  1  0.16326644  0.16154037  0.16346694  1
  Ni  Ni2  1  0.99614894  0.99303158  0.32974316  1
  Cr  Cr3  1  -0.00291176  0.32896442  0.99648130  1
  Cr  Cr4  1  0.16365593  0.49947454  0.16292242  1
  Cr  Cr5  1  -0.00328358  0.32748869  0.32951755  1
  Fe  Fe6  1  -0.00251908  0.66349311  -0.00333484  1
  Fe  Fe7  1  0.16203342  0.83088933  0.16323141  1
  Fe  Fe8  1  -0.00305096  0.66495709  0.33036448  1
  Fe  Fe9  1  0.33108524  0.99562303  0.99610503  1
  Cr  Cr10  1  0.49706465  0.16352595  0.16244815  1
  Cr  Cr11  1  0.32797311  0.99484132  0.32897557  1
  Fe  Fe12  1  0.32970633  0.32892884  0.99650962  1
  Fe  Fe13  1  0.49608376  0.49707195  0.16175768  1
  Cr  Cr14  1  0.32882510  0.33105755  0.32852408  1
  Fe  Fe15  1  0.32769826  0.66498091  0.99602346  1
  Fe  Fe16  1  0.49506374  0.82992442  0.16259639  1
  Fe  Fe17  1  0.32696675  0.66457873  0.32965301  1
  Fe  Fe18  1  0.66243190  -0.00317280  0.99517913  1
  Cr  Cr19  1  0.82916354  0.15985401  0.16453837  1
  Fe  Fe20  1  0.66536615  0.99638298  0.33054392  1
  Fe  Fe21  1  0.66358511  0.32873889  0.99633867  1
  Fe  Fe22  1  0.83038389  0.49713974  0.16240137  1
  Cr  Cr23  1  0.66442941  0.33297267  0.33030284  1
  Cr  Cr24  1  0.66094987  0.66326642  -0.00197992  1
  Fe  Fe25  1  0.83177961  0.82920875  0.16359930  1
  Cr  Cr26  1  0.66095788  0.66441850  0.32834919  1
  Cr  Cr27  1  0.16399962  0.16286676  0.49485226  1
  Cr  Cr28  1  -0.00137619  -0.00199896  0.66273328  1
  Fe  Fe29  1  0.16651726  0.16345679  0.82963614  1
  Fe  Fe30  1  0.16141359  0.49910414  0.49637216  1
  Cr  Cr31  1  0.99651080  0.32997830  0.66359212  1
  Fe  Fe32  1  0.16225410  0.49804609  0.83064899  1
  Fe  Fe33  1  0.16098351  0.82818947  0.49538781  1
  Fe  Fe34  1  -0.00292722  0.66330645  0.66264620  1
  Fe  Fe35  1  0.16546542  0.82913324  0.83064894  1
  Cr  Cr36  1  0.49771829  0.16383029  0.49864092  1
  Fe  Fe37  1  0.32901148  -0.00248484  0.66519929  1
  Fe  Fe38  1  0.49599182  0.16159931  0.83076893  1
  Cr  Cr39  1  0.49386753  0.49506272  0.49581379  1
  Fe  Fe40  1  0.32896386  0.32843871  0.66457953  1
  Cr  Cr41  1  0.49518982  0.49351601  0.83052038  1
  Cr  Cr42  1  0.49652794  0.83130512  0.49587276  1
  Cr  Cr43  1  0.32982608  0.66504241  0.66254222  1
  Fe  Fe44  1  0.49477779  0.83113937  0.83112355  1
  Fe  Fe45  1  0.82988917  0.16128037  0.49523622  1
  Cr  Cr46  1  0.66341842  0.99535566  0.66400016  1
  Fe  Fe47  1  0.82748445  0.16450522  0.83058669  1
  Fe  Fe48  1  0.83155164  0.49756369  0.49689196  1
  Fe  Fe49  1  0.66448966  0.32944831  0.66406090  1
  Fe  Fe50  1  0.83029060  0.49593930  0.83043538  1
  Fe  Fe51  1  0.83263191  0.83048029  0.49506066  1
  Cr  Cr52  1  0.66319589  0.66203891  0.66293847  1
  Cr  Cr53  1  0.83258972  0.82916368  0.83091043  1
" 