7299,Ni2Fe50Cr47_1,-217.421229469585, 167.710328864445,Ni2Fe50Cr47,"# generated using pymatgen
 data_Cr26Fe27Ni
_symmetry_space_group_name_H-M   'P 1'
_cell_length_a   7.53876049
_cell_length_b   7.53876049
_cell_length_c   10.66141733
_cell_angle_alpha   90.00000000
_cell_angle_beta   90.00000000
_cell_angle_gamma   90.00000000
_symmetry_Int_Tables_number   1
_chemical_formula_structural   Cr26Fe27Ni
_chemical_formula_sum   'Cr26 Fe27 Ni1'
_cell_volume   605.91936903
_cell_formula_units_Z   1
loop_
 _symmetry_equiv_pos_site_id
 _symmetry_equiv_pos_as_xyz
  1  'x, y, z'
loop_
 _atom_site_type_symbol
 _atom_site_label
 _atom_site_symmetry_multiplicity
 _atom_site_fract_x
 _atom_site_fract_y
 _atom_site_fract_z
 _atom_site_occupancy
  Cr  Cr0  1  0.99495189  0.99461603  -0.00184579  1
  Ni  Ni1  1  0.16110383  0.16351927  0.16497956  1
  Fe  Fe2  1  -0.00383572  -0.00421224  0.32748635  1
  Cr  Cr3  1  -0.00470554  0.32882693  -0.00185836  1
  Cr  Cr4  1  0.16310112  0.49363218  0.16471463  1
  Fe  Fe5  1  0.99496427  0.32622796  0.32680655  1
  Cr  Cr6  1  0.99444607  0.66269746  0.99293814  1
  Cr  Cr7  1  0.16538858  0.82955731  0.16313330  1
  Cr  Cr8  1  -0.00395428  0.66161593  0.32960060  1
  Cr  Cr9  1  0.32826914  -0.00292479  0.99384409  1
  Fe  Fe10  1  0.49256623  0.16364192  0.16317268  1
  Cr  Cr11  1  0.32890271  0.99459789  0.33148096  1
  Cr  Cr12  1  0.33109826  0.32841441  0.99409991  1
  Fe  Fe13  1  0.49668662  0.49252666  0.16404059  1
  Fe  Fe14  1  0.33062628  0.32680852  0.32804742  1
  Cr  Cr15  1  0.32930941  0.65955388  -0.00232613  1
  Cr  Cr16  1  0.49801917  0.82680896  0.16312676  1
  Fe  Fe17  1  0.33218489  0.66048061  0.33032142  1
  Cr  Cr18  1  0.66258965  -0.00203113  -0.00216796  1
  Fe  Fe19  1  0.82917954  0.16401328  0.16478364  1
  Cr  Cr20  1  0.66177986  -0.00306790  0.32873923  1
  Fe  Fe21  1  0.66170818  0.33133175  -0.00300124  1
  Fe  Fe22  1  0.82719762  0.49549421  0.16337049  1
  Fe  Fe23  1  0.66055238  0.33080411  0.32767947  1
  Fe  Fe24  1  0.66276026  0.66053923  -0.00391750  1
  Fe  Fe25  1  0.83034049  0.82793733  0.16367537  1
  Fe  Fe26  1  0.66135073  0.66061388  0.32891481  1
  Fe  Fe27  1  0.16244156  0.16057188  0.49320336  1
  Cr  Cr28  1  -0.00414373  0.99390568  0.66156374  1
  Fe  Fe29  1  0.16226843  0.16040135  0.82841920  1
  Cr  Cr30  1  0.16348261  0.49149443  0.49280274  1
  Cr  Cr31  1  -0.00360263  0.32783063  0.66070436  1
  Cr  Cr32  1  0.16260248  0.49393339  0.82699018  1
  Fe  Fe33  1  0.16081333  0.82850361  0.49463038  1
  Fe  Fe34  1  -0.00472126  0.66280524  0.66132575  1
  Fe  Fe35  1  0.16169495  0.82872593  0.82743630  1
  Fe  Fe36  1  0.49289606  0.16508677  0.49428491  1
  Fe  Fe37  1  0.32768139  -0.00310181  0.66017256  1
  Fe  Fe38  1  0.49414553  0.16441545  0.82764072  1
  Fe  Fe39  1  0.49608782  0.49475041  0.49292639  1
  Fe  Fe40  1  0.32878257  0.32529580  0.66113666  1
  Fe  Fe41  1  0.49592377  0.49574888  0.82792663  1
  Fe  Fe42  1  0.49384251  0.82688399  0.49467936  1
  Cr  Cr43  1  0.32788764  0.66088186  0.65846096  1
  Cr  Cr44  1  0.49522438  0.83014659  0.82887324  1
  Cr  Cr45  1  0.82929246  0.16321339  0.49125548  1
  Cr  Cr46  1  0.65888571  -0.00290156  0.65983933  1
  Cr  Cr47  1  0.82712232  0.16247642  0.82964883  1
  Cr  Cr48  1  0.82864441  0.49498660  0.49641357  1
  Cr  Cr49  1  0.65813761  0.32928284  0.66093341  1
  Cr  Cr50  1  0.82776749  0.49610938  0.82625559  1
  Cr  Cr51  1  0.82553896  0.82828767  0.49657241  1
  Fe  Fe52  1  0.66013532  0.66263775  0.66172877  1
  Fe  Fe53  1  0.82774765  0.82876475  0.82749718  1
" 