1537,Ni2Fe50Cr47_2,-217.389140902338, 176.354853604562,Ni2Fe50Cr47,"# generated using pymatgen
 data_Cr26Fe27Ni
_symmetry_space_group_name_H-M   'P 1'
_cell_length_a   7.52476693
_cell_length_b   7.52476693
_cell_length_c   10.64162744
_cell_angle_alpha   90.00000000
_cell_angle_beta   90.00000000
_cell_angle_gamma   90.00000000
_symmetry_Int_Tables_number   1
_chemical_formula_structural   Cr26Fe27Ni
_chemical_formula_sum   'Cr26 Fe27 Ni1'
_cell_volume   602.55147740
_cell_formula_units_Z   1
loop_
 _symmetry_equiv_pos_site_id
 _symmetry_equiv_pos_as_xyz
  1  'x, y, z'
loop_
 _atom_site_type_symbol
 _atom_site_label
 _atom_site_symmetry_multiplicity
 _atom_site_fract_x
 _atom_site_fract_y
 _atom_site_fract_z
 _atom_site_occupancy
  Cr  Cr0  1  0.00191699  0.99564648  -0.00383006  1
  Fe  Fe1  1  0.16324237  0.16370043  0.16227380  1
  Fe  Fe2  1  -0.00381708  0.99535476  0.32982247  1
  Fe  Fe3  1  -0.00159563  0.33209679  0.99574064  1
  Fe  Fe4  1  0.16080733  0.49927057  0.16130267  1
  Cr  Cr5  1  -0.00209139  0.33094504  0.32859983  1
  Fe  Fe6  1  -0.00229164  0.65992749  0.99556655  1
  Fe  Fe7  1  0.16308913  0.82612449  0.16114731  1
  Fe  Fe8  1  -0.00361992  0.66332074  0.32980169  1
  Fe  Fe9  1  0.33045068  0.99464952  0.99574664  1
  Fe  Fe10  1  0.49698240  0.16202862  0.16190900  1
  Cr  Cr11  1  0.32706456  -0.00299639  0.32368912  1
  Cr  Cr12  1  0.32910042  0.32645944  -0.00284906  1
  Cr  Cr13  1  0.49221714  0.49615566  0.16433106  1
  Fe  Fe14  1  0.32746556  0.32920152  0.32831453  1
  Ni  Ni15  1  0.32465228  0.66401753  0.99401232  1
  Cr  Cr16  1  0.49623879  0.82624768  0.15935029  1
  Cr  Cr17  1  0.32723935  0.66548563  0.33210261  1
  Fe  Fe18  1  0.66118126  -0.00343099  0.99608189  1
  Cr  Cr19  1  0.83203668  0.16152341  0.16263979  1
  Cr  Cr20  1  0.66116729  0.99464511  0.33090353  1
  Cr  Cr21  1  0.66520332  0.33049138  0.99599938  1
  Fe  Fe22  1  0.83167074  0.49791358  0.16115495  1
  Cr  Cr23  1  0.66487288  0.33062265  0.32886457  1
  Fe  Fe24  1  0.66220596  0.66185332  0.99591375  1
  Cr  Cr25  1  0.83335143  0.82952617  0.16205068  1
  Cr  Cr26  1  0.66576044  0.66313764  0.33179723  1
  Fe  Fe27  1  0.16206111  0.16234216  0.49552388  1
  Fe  Fe28  1  0.99594549  -0.00326594  0.66227706  1
  Fe  Fe29  1  0.16389481  0.16176577  0.83096224  1
  Fe  Fe30  1  0.16015120  0.49475200  0.49629575  1
  Cr  Cr31  1  -0.00298628  0.33018246  0.66619197  1
  Fe  Fe32  1  0.16134030  0.49786906  0.83222010  1
  Cr  Cr33  1  0.15970290  0.83022543  0.49689886  1
  Cr  Cr34  1  -0.00356605  0.66237709  0.66467556  1
  Fe  Fe35  1  0.16298866  0.82735258  0.83052590  1
  Cr  Cr36  1  0.49584669  0.16509789  0.49547424  1
  Cr  Cr37  1  0.32823908  0.99446739  0.66705777  1
  Fe  Fe38  1  0.49730780  0.16137403  0.83029900  1
  Cr  Cr39  1  0.49091498  0.49708571  0.49635222  1
  Cr  Cr40  1  0.32612660  0.32736917  0.66346261  1
  Cr  Cr41  1  0.49231981  0.49649635  0.82784318  1
  Fe  Fe42  1  0.49374048  0.83225265  0.49771722  1
  Fe  Fe43  1  0.32647727  0.66221865  0.66317767  1
  Cr  Cr44  1  0.49640923  0.82701347  0.82946480  1
  Fe  Fe45  1  0.83348280  0.16104555  0.49686428  1
  Fe  Fe46  1  0.66395595  -0.00369738  0.66075311  1
  Cr  Cr47  1  0.83167563  0.16164923  0.82853824  1
  Fe  Fe48  1  0.83248209  0.49598806  0.49602317  1
  Cr  Cr49  1  0.66492281  0.33060185  0.66315668  1
  Fe  Fe50  1  0.82968827  0.49866267  0.83184699  1
  Fe  Fe51  1  0.83023519  0.83193857  0.49672828  1
  Cr  Cr52  1  0.66404837  0.66404433  0.65943359  1
  Cr  Cr53  1  0.83098780  0.83176730  0.83069284  1
" 