6056,Ni2Fe46Cr50_0,-216.388169196169, 175.668945722722,Ni2Fe46Cr50,"# generated using pymatgen
 data_Cr28Fe25Ni
_symmetry_space_group_name_H-M   'P 1'
_cell_length_a   7.53689790
_cell_length_b   7.53689790
_cell_length_c   10.65878322
_cell_angle_alpha   90.00000000
_cell_angle_beta   90.00000000
_cell_angle_gamma   90.00000000
_symmetry_Int_Tables_number   1
_chemical_formula_structural   Cr28Fe25Ni
_chemical_formula_sum   'Cr28 Fe25 Ni1'
_cell_volume   605.47036799
_cell_formula_units_Z   1
loop_
 _symmetry_equiv_pos_site_id
 _symmetry_equiv_pos_as_xyz
  1  'x, y, z'
loop_
 _atom_site_type_symbol
 _atom_site_label
 _atom_site_symmetry_multiplicity
 _atom_site_fract_x
 _atom_site_fract_y
 _atom_site_fract_z
 _atom_site_occupancy
  Fe  Fe0  1  -0.00340524  0.99380502  0.99485155  1
  Cr  Cr1  1  0.16077899  0.15880432  0.16284095  1
  Fe  Fe2  1  -0.00324552  0.99481408  0.32806231  1
  Fe  Fe3  1  -0.00312845  0.32910643  0.99498647  1
  Fe  Fe4  1  0.16165581  0.49725623  0.16178269  1
  Cr  Cr5  1  -0.00376528  0.33105292  0.32767546  1
  Fe  Fe6  1  -0.00153122  0.66257350  -0.00385357  1
  Ni  Ni7  1  0.16313195  0.82431931  0.16206411  1
  Fe  Fe8  1  -0.00266128  0.66294966  0.32766631  1
  Cr  Cr9  1  0.32806852  0.99302581  -0.00166224  1
  Cr  Cr10  1  0.49457570  0.16394795  0.16485033  1
  Fe  Fe11  1  0.32645568  0.99323147  0.32774544  1
  Cr  Cr12  1  0.32602035  0.32929897  0.99400054  1
  Fe  Fe13  1  0.49310807  0.49774065  0.16383061  1
  Cr  Cr14  1  0.32703589  0.32803239  0.33237787  1
  Fe  Fe15  1  0.32650000  0.66161343  -0.00309142  1
  Fe  Fe16  1  0.49308623  0.82732163  0.16381175  1
  Fe  Fe17  1  0.32772316  0.66228369  0.32685160  1
  Cr  Cr18  1  0.66174469  0.99460634  0.99354541  1
  Cr  Cr19  1  0.83038939  0.16321999  0.15959632  1
  Cr  Cr20  1  0.66049966  0.99392888  0.32933212  1
  Cr  Cr21  1  0.66309167  0.32932274  -0.00155775  1
  Fe  Fe22  1  0.83103638  0.49724508  0.16305780  1
  Fe  Fe23  1  0.66204261  0.32967718  0.32792389  1
  Cr  Cr24  1  0.66202394  0.66341823  -0.00207164  1
  Cr  Cr25  1  0.83259699  0.82867396  0.16427710  1
  Fe  Fe26  1  0.66112685  0.66017473  0.32714671  1
  Fe  Fe27  1  0.16253589  0.16208659  0.49510629  1
  Fe  Fe28  1  -0.00383265  -0.00399340  0.66177136  1
  Fe  Fe29  1  0.15998300  0.16059654  0.82950792  1
  Fe  Fe30  1  0.16222074  0.49603759  0.49499132  1
  Cr  Cr31  1  -0.00104219  0.32925772  0.66290418  1
  Fe  Fe32  1  0.16094248  0.49633359  0.83016386  1
  Cr  Cr33  1  0.15990630  0.82971341  0.49267800  1
  Cr  Cr34  1  -0.00392106  0.66147003  0.65973706  1
  Fe  Fe35  1  0.16132898  0.82879311  0.83066080  1
  Fe  Fe36  1  0.49476394  0.16115178  0.49518263  1
  Cr  Cr37  1  0.32806042  -0.00296441  0.66077991  1
  Cr  Cr38  1  0.49500731  0.16296343  0.82621438  1
  Cr  Cr39  1  0.49416096  0.49441045  0.49693586  1
  Fe  Fe40  1  0.32662936  0.32860164  0.66097054  1
  Cr  Cr41  1  0.49405477  0.49527055  0.82777052  1
  Cr  Cr42  1  0.49391260  0.82745397  0.49493903  1
  Cr  Cr43  1  0.32535689  0.66172129  0.66441101  1
  Cr  Cr44  1  0.49370245  0.82774630  0.82931079  1
  Cr  Cr45  1  0.83060655  0.16060652  0.49537744  1
  Fe  Fe46  1  0.66349075  -0.00436297  0.66098524  1
  Fe  Fe47  1  0.83097032  0.16180623  0.82897502  1
  Cr  Cr48  1  0.82844380  0.49672854  0.49203144  1
  Cr  Cr49  1  0.66339403  0.32737018  0.66113518  1
  Cr  Cr50  1  0.82941794  0.49511712  0.83114272  1
  Fe  Fe51  1  0.82905402  0.82927823  0.49385167  1
  Cr  Cr52  1  0.66377975  0.66469866  0.66080487  1
  Cr  Cr53  1  0.83188714  0.83043275  0.82539025  1
" 