7935,Ni2Fe66Cr31_15,-220.475577178889, 159.269588170447,Ni2Fe66Cr31,"# generated using pymatgen
 data_Cr18Fe35Ni
_symmetry_space_group_name_H-M   'P 1'
_cell_length_a   7.50321297
_cell_length_b   7.50321297
_cell_length_c   10.61114554
_cell_angle_alpha   90.00000000
_cell_angle_beta   90.00000000
_cell_angle_gamma   90.00000000
_symmetry_Int_Tables_number   1
_chemical_formula_structural   Cr18Fe35Ni
_chemical_formula_sum   'Cr18 Fe35 Ni1'
_cell_volume   597.38844537
_cell_formula_units_Z   1
loop_
 _symmetry_equiv_pos_site_id
 _symmetry_equiv_pos_as_xyz
  1  'x, y, z'
loop_
 _atom_site_type_symbol
 _atom_site_label
 _atom_site_symmetry_multiplicity
 _atom_site_fract_x
 _atom_site_fract_y
 _atom_site_fract_z
 _atom_site_occupancy
  Cr  Cr0  1  -0.00099187  -0.00213173  -0.00105560  1
  Fe  Fe1  1  0.16620765  0.16656722  0.16326982  1
  Cr  Cr2  1  0.99723517  0.99737071  0.33312220  1
  Fe  Fe3  1  0.00104681  0.33119484  0.99634102  1
  Fe  Fe4  1  0.16600274  0.49497681  0.16531007  1
  Fe  Fe5  1  0.00069459  0.33082201  0.33094691  1
  Fe  Fe6  1  0.99734595  0.66326255  0.99552289  1
  Cr  Cr7  1  0.16576686  0.82771647  0.16357291  1
  Fe  Fe8  1  0.99736030  0.66438159  0.33116969  1
  Ni  Ni9  1  0.33050335  -0.00092586  0.99553683  1
  Fe  Fe10  1  0.49387903  0.16610374  0.16364850  1
  Cr  Cr11  1  0.32753954  -0.00160866  0.33174706  1
  Fe  Fe12  1  0.32881766  0.32803620  0.99718588  1
  Fe  Fe13  1  0.49592148  0.49783997  0.16528647  1
  Fe  Fe14  1  0.32910822  0.33147084  0.33057338  1
  Cr  Cr15  1  0.33290345  0.66025290  0.99635652  1
  Cr  Cr16  1  0.49727877  0.83308389  0.16396330  1
  Fe  Fe17  1  0.33268241  0.66214435  0.33110076  1
  Cr  Cr18  1  0.66507245  -0.00143534  -0.00234593  1
  Cr  Cr19  1  0.82869500  0.16644019  0.16726276  1
  Fe  Fe20  1  0.66339842  0.99612689  0.33233928  1
  Cr  Cr21  1  0.66092225  0.33489416  0.99534200  1
  Cr  Cr22  1  0.83329706  0.49865641  0.16252539  1
  Cr  Cr23  1  0.66112178  0.33435972  0.33274040  1
  Fe  Fe24  1  0.66504851  0.66606729  0.99513892  1
  Fe  Fe25  1  0.83093162  0.82946670  0.16555875  1
  Fe  Fe26  1  0.66432477  0.66671692  0.33221303  1
  Fe  Fe27  1  0.16514341  0.16773141  0.49864904  1
  Cr  Cr28  1  -0.00037987  -0.00221886  0.66074992  1
  Fe  Fe29  1  0.16576449  0.16544376  0.83029418  1
  Cr  Cr30  1  0.16439316  0.50013306  0.49737568  1
  Fe  Fe31  1  -0.00035922  0.33253335  0.66499827  1
  Fe  Fe32  1  0.16332201  0.49451331  0.82942430  1
  Fe  Fe33  1  0.16630173  0.82976564  0.49853054  1
  Fe  Fe34  1  -0.00238171  0.66386233  0.66520354  1
  Cr  Cr35  1  0.16703382  0.82940200  0.82976353  1
  Cr  Cr36  1  0.49939151  0.16179480  0.49973006  1
  Fe  Fe37  1  0.33310419  0.99681206  0.66482868  1
  Fe  Fe38  1  0.49361754  0.16325926  0.82924376  1
  Fe  Fe39  1  0.49591446  0.49856820  0.49845579  1
  Fe  Fe40  1  0.33076517  0.33157720  0.66516052  1
  Fe  Fe41  1  0.49505705  0.49606462  0.82926962  1
  Fe  Fe42  1  0.49694181  0.82776970  0.49751275  1
  Fe  Fe43  1  0.33048268  0.66394255  0.66431464  1
  Fe  Fe44  1  0.49828617  0.83309091  0.83123740  1
  Fe  Fe45  1  0.83141509  0.16455839  0.49830600  1
  Fe  Fe46  1  0.66358170  0.99522603  0.66487781  1
  Cr  Cr47  1  0.82927149  0.16700660  0.82768184  1
  Cr  Cr48  1  0.83247634  0.49518376  0.49923942  1
  Fe  Fe49  1  0.66253089  0.33057824  0.66476825  1
  Fe  Fe50  1  0.83378956  0.50002013  0.83100909  1
  Fe  Fe51  1  0.82844224  0.82935090  0.49782483  1
  Cr  Cr52  1  0.66192974  0.66154348  0.66661613  1
  Fe  Fe53  1  0.83191103  0.83049688  0.83042166  1
" 