8708,Ni2Fe46Cr50_15,-216.636649245372, 184.272375321161,Ni2Fe46Cr50,"# generated using pymatgen
 data_Cr28Fe25Ni
_symmetry_space_group_name_H-M   'P 1'
_cell_length_a   7.54936568
_cell_length_b   7.54936568
_cell_length_c   10.67641533
_cell_angle_alpha   90.00000000
_cell_angle_beta   90.00000000
_cell_angle_gamma   90.00000000
_symmetry_Int_Tables_number   1
_chemical_formula_structural   Cr28Fe25Ni
_chemical_formula_sum   'Cr28 Fe25 Ni1'
_cell_volume   608.48010748
_cell_formula_units_Z   1
loop_
 _symmetry_equiv_pos_site_id
 _symmetry_equiv_pos_as_xyz
  1  'x, y, z'
loop_
 _atom_site_type_symbol
 _atom_site_label
 _atom_site_symmetry_multiplicity
 _atom_site_fract_x
 _atom_site_fract_y
 _atom_site_fract_z
 _atom_site_occupancy
  Fe  Fe0  1  0.99376906  0.99304064  0.99419232  1
  Cr  Cr1  1  0.15634579  0.16106054  0.16406355  1
  Fe  Fe2  1  0.99380005  0.99275596  0.32864892  1
  Fe  Fe3  1  0.99258949  0.33037871  0.99439681  1
  Cr  Cr4  1  0.16057960  0.49581135  0.16210339  1
  Fe  Fe5  1  0.99199173  0.33147242  0.32926164  1
  Fe  Fe6  1  -0.00514927  0.66112429  0.99427701  1
  Cr  Cr7  1  0.16140959  0.82629313  0.15899650  1
  Fe  Fe8  1  0.99275554  0.65929034  0.32957471  1
  Cr  Cr9  1  0.32699262  0.99418208  0.99397301  1
  Cr  Cr10  1  0.49759666  0.16035258  0.16095541  1
  Fe  Fe11  1  0.32870179  0.99236357  0.32698866  1
  Cr  Cr12  1  0.32795252  0.32578353  -0.00473232  1
  Cr  Cr13  1  0.49347758  0.49846183  0.16129638  1
  Cr  Cr14  1  0.32581670  0.32654773  0.32919584  1
  Fe  Fe15  1  0.32770803  0.66206353  0.99413264  1
  Fe  Fe16  1  0.49419109  0.82865359  0.16286453  1
  Fe  Fe17  1  0.32754959  0.66217962  0.32783893  1
  Fe  Fe18  1  0.66052969  0.99423127  0.99425320  1
  Cr  Cr19  1  0.82942009  0.16118401  0.15928018  1
  Fe  Fe20  1  0.66103681  0.99359415  0.32803486  1
  Fe  Fe21  1  0.66224617  0.32819895  -0.00544546  1
  Fe  Fe22  1  0.83018104  0.49445222  0.16252106  1
  Cr  Cr23  1  0.66223146  0.33182408  0.32837249  1
  Cr  Cr24  1  0.66450257  0.66092805  -0.00150672  1
  Cr  Cr25  1  0.82760954  0.83001707  0.16414220  1
  Fe  Fe26  1  0.66351438  0.66167582  0.32869170  1
  Cr  Cr27  1  0.15949044  0.16005192  0.49002398  1
  Cr  Cr28  1  -0.00434714  0.99124605  0.66129786  1
  Cr  Cr29  1  0.15822553  0.16063160  0.82886863  1
  Fe  Fe30  1  0.15869443  0.49641410  0.49353615  1
  Cr  Cr31  1  0.99428475  0.33030652  0.65786491  1
  Cr  Cr32  1  0.16123874  0.49926632  0.82774066  1
  Cr  Cr33  1  0.16104609  0.82510688  0.49647482  1
  Fe  Fe34  1  -0.00515863  0.65961544  0.65988405  1
  Fe  Fe35  1  0.16122730  0.82671759  0.82798038  1
  Cr  Cr36  1  0.49674459  0.15965097  0.49870521  1
  Fe  Fe37  1  0.32830746  0.99299284  0.66225581  1
  Fe  Fe38  1  0.49581820  0.16045754  0.82700258  1
  Cr  Cr39  1  0.49339001  0.49652916  0.49571577  1
  Cr  Cr40  1  0.32767865  0.32512140  0.66004938  1
  Cr  Cr41  1  0.49519576  0.49413680  0.82692076  1
  Cr  Cr42  1  0.49492493  0.82742801  0.49179660  1
  Fe  Fe43  1  0.32594603  0.66224550  0.66112463  1
  Cr  Cr44  1  0.49359550  0.82650819  0.82704373  1
  Cr  Cr45  1  0.82741288  0.15971899  0.49350275  1
  Fe  Fe46  1  0.66078874  -0.00488978  0.66178084  1
  Cr  Cr47  1  0.82480832  0.16214681  0.83023371  1
  Ni  Ni48  1  0.83039484  0.49727475  0.49330303  1
  Fe  Fe49  1  0.66389684  0.32848180  0.66094605  1
  Fe  Fe50  1  0.82821731  0.49471955  0.82763063  1
  Fe  Fe51  1  0.82811571  0.82595249  0.49260196  1
  Cr  Cr52  1  0.66638495  0.66108570  0.65781907  1
  Cr  Cr53  1  0.82992064  0.82875456  0.82711739  1
" 