7901,Ni2Fe66Cr31_2,-220.001564611803, 164.918161278498,Ni2Fe66Cr31,"# generated using pymatgen
 data_Cr18Fe35Ni
_symmetry_space_group_name_H-M   'P 1'
_cell_length_a   7.49459905
_cell_length_b   7.49459905
_cell_length_c   10.59896362
_cell_angle_alpha   90.00000000
_cell_angle_beta   90.00000000
_cell_angle_gamma   90.00000000
_symmetry_Int_Tables_number   1
_chemical_formula_structural   Cr18Fe35Ni
_chemical_formula_sum   'Cr18 Fe35 Ni1'
_cell_volume   595.33334535
_cell_formula_units_Z   1
loop_
 _symmetry_equiv_pos_site_id
 _symmetry_equiv_pos_as_xyz
  1  'x, y, z'
loop_
 _atom_site_type_symbol
 _atom_site_label
 _atom_site_symmetry_multiplicity
 _atom_site_fract_x
 _atom_site_fract_y
 _atom_site_fract_z
 _atom_site_occupancy
  Fe  Fe0  1  -0.00183534  0.99481726  -0.00062443  1
  Fe  Fe1  1  0.16364592  0.16344363  0.16490687  1
  Fe  Fe2  1  0.00081462  -0.00180242  0.33076520  1
  Fe  Fe3  1  0.99773255  0.33439542  0.99815899  1
  Cr  Cr4  1  0.16532489  0.49721437  0.16346934  1
  Fe  Fe5  1  -0.00127351  0.33267983  0.33268242  1
  Fe  Fe6  1  -0.00175367  0.66561327  0.99744508  1
  Fe  Fe7  1  0.16165683  0.83311857  0.16679978  1
  Fe  Fe8  1  0.99758749  0.66335827  0.33224885  1
  Cr  Cr9  1  0.32858346  -0.00133937  -0.00111415  1
  Cr  Cr10  1  0.49838733  0.16445393  0.16237387  1
  Fe  Fe11  1  0.32881002  0.99746029  0.33261348  1
  Fe  Fe12  1  0.33311979  0.33349731  0.99740688  1
  Fe  Fe13  1  0.49891602  0.49793462  0.16451288  1
  Cr  Cr14  1  0.33267822  0.32846912  0.33352424  1
  Cr  Cr15  1  0.33006829  0.66704021  0.99508379  1
  Cr  Cr16  1  0.49940477  0.82939060  0.16861199  1
  Fe  Fe17  1  0.33008492  0.66413580  0.33212809  1
  Fe  Fe18  1  0.66436963  0.99708389  0.99749106  1
  Cr  Cr19  1  0.83364872  0.16394654  0.16218290  1
  Fe  Fe20  1  0.66513010  -0.00102599  0.33140478  1
  Fe  Fe21  1  0.66363596  0.33194104  0.99688998  1
  Fe  Fe22  1  0.83181887  0.49954814  0.16612974  1
  Cr  Cr23  1  0.66637233  0.33486139  0.33155870  1
  Cr  Cr24  1  0.66823136  0.66075040  -0.00127947  1
  Fe  Fe25  1  0.83445910  0.83018434  0.16595979  1
  Fe  Fe26  1  0.66680616  0.66289331  0.33123604  1
  Fe  Fe27  1  0.16407954  0.16515829  0.49862876  1
  Fe  Fe28  1  -0.00051142  -0.00116967  0.66435847  1
  Cr  Cr29  1  0.16299617  0.17043143  0.83303472  1
  Fe  Fe30  1  0.16365859  0.49877215  0.49786206  1
  Fe  Fe31  1  0.00066745  0.33304210  0.66337200  1
  Fe  Fe32  1  0.16404507  0.49837754  0.83178592  1
  Fe  Fe33  1  0.16301203  0.83038502  0.49645242  1
  Cr  Cr34  1  0.99809488  0.66448272  0.66639349  1
  Fe  Fe35  1  0.16368184  0.83150954  0.83101955  1
  Fe  Fe36  1  0.49869853  0.16478336  0.49818909  1
  Cr  Cr37  1  0.32970803  -0.00146610  0.66445948  1
  Fe  Fe38  1  0.49881809  0.16547047  0.83258146  1
  Fe  Fe39  1  0.49917645  0.49949306  0.49901540  1
  Fe  Fe40  1  0.33008889  0.33443638  0.66342336  1
  Fe  Fe41  1  0.49737174  0.49677128  0.83065499  1
  Cr  Cr42  1  0.49792280  0.82914722  0.49759848  1
  Fe  Fe43  1  0.33263390  0.66182449  0.66622486  1
  Fe  Fe44  1  0.49800597  0.83195479  0.82991946  1
  Cr  Cr45  1  0.83422102  0.16435956  0.50063487  1
  Fe  Fe46  1  0.66318673  0.99759491  0.66542057  1
  Cr  Cr47  1  0.83184950  0.16427300  0.83141237  1
  Ni  Ni48  1  0.83447626  0.49844514  0.49742242  1
  Cr  Cr49  1  0.66467331  0.33360019  0.66374644  1
  Fe  Fe50  1  0.83317075  0.49649437  0.83123877  1
  Cr  Cr51  1  0.82874389  0.83163327  0.49759851  1
  Fe  Fe52  1  0.66296094  0.66338954  0.66525433  1
  Cr  Cr53  1  0.82888760  0.83348549  0.83047441  1
" 