5861,Ni2Fe41Cr55_7,-214.979790743071, 183.14376620494,Ni2Fe41Cr55,"# generated using pymatgen
 data_Cr31Fe22Ni
_symmetry_space_group_name_H-M   'P 1'
_cell_length_a   7.54655686
_cell_length_b   7.54655686
_cell_length_c   10.67244307
_cell_angle_alpha   90.00000000
_cell_angle_beta   90.00000000
_cell_angle_gamma   90.00000000
_symmetry_Int_Tables_number   1
_chemical_formula_structural   Cr31Fe22Ni
_chemical_formula_sum   'Cr31 Fe22 Ni1'
_cell_volume   607.80118745
_cell_formula_units_Z   1
loop_
 _symmetry_equiv_pos_site_id
 _symmetry_equiv_pos_as_xyz
  1  'x, y, z'
loop_
 _atom_site_type_symbol
 _atom_site_label
 _atom_site_symmetry_multiplicity
 _atom_site_fract_x
 _atom_site_fract_y
 _atom_site_fract_z
 _atom_site_occupancy
  Fe  Fe0  1  0.99383713  0.99247651  0.99211262  1
  Fe  Fe1  1  0.16106471  0.16040343  0.16218623  1
  Fe  Fe2  1  -0.00193373  0.99323799  0.32877903  1
  Cr  Cr3  1  0.99471283  0.32822967  -0.00434113  1
  Fe  Fe4  1  0.16017281  0.49509291  0.16315591  1
  Cr  Cr5  1  -0.00316781  0.32676219  0.32847689  1
  Fe  Fe6  1  0.99430996  0.66212863  -0.00500776  1
  Cr  Cr7  1  0.15935393  0.83077105  0.16064999  1
  Ni  Ni8  1  -0.00053319  0.66261706  0.32879049  1
  Cr  Cr9  1  0.32735170  0.99274228  0.99369377  1
  Cr  Cr10  1  0.49241657  0.16037312  0.16099881  1
  Fe  Fe11  1  0.32417528  -0.00330021  0.32907061  1
  Cr  Cr12  1  0.32745097  0.33067899  -0.00113380  1
  Fe  Fe13  1  0.49538384  0.49419490  0.16290335  1
  Fe  Fe14  1  0.32675796  0.32801909  0.32779659  1
  Cr  Cr15  1  0.32531389  0.66131071  -0.00287736  1
  Cr  Cr16  1  0.49557197  0.82950124  0.16279437  1
  Cr  Cr17  1  0.32790585  0.66190224  0.32466602  1
  Fe  Fe18  1  0.66258589  0.99464594  0.99260355  1
  Cr  Cr19  1  0.83009273  0.15864904  0.15890775  1
  Cr  Cr20  1  0.66046873  -0.00443458  0.32855837  1
  Cr  Cr21  1  0.66216746  0.32716720  0.99282468  1
  Cr  Cr22  1  0.82996251  0.49616727  0.16469136  1
  Cr  Cr23  1  0.66035404  0.32806406  0.32860543  1
  Cr  Cr24  1  0.65993379  0.66156656  -0.00301040  1
  Cr  Cr25  1  0.82904813  0.82835705  0.16246036  1
  Fe  Fe26  1  0.66236033  0.66079451  0.32765211  1
  Fe  Fe27  1  0.16522590  0.15900958  0.49450743  1
  Cr  Cr28  1  -0.00377548  0.99238844  0.66010055  1
  Cr  Cr29  1  0.16237899  0.16126764  0.82886652  1
  Cr  Cr30  1  0.16174680  0.49342094  0.49778813  1
  Cr  Cr31  1  0.99392578  0.32619384  0.66059800  1
  Cr  Cr32  1  0.16112877  0.49541756  0.82654060  1
  Fe  Fe33  1  0.16143008  0.82735749  0.49319075  1
  Fe  Fe34  1  -0.00461174  0.66412246  0.66049602  1
  Fe  Fe35  1  0.15964928  0.82663808  0.82745582  1
  Fe  Fe36  1  0.49167471  0.16174024  0.49477199  1
  Fe  Fe37  1  0.32746510  -0.00434787  0.66095868  1
  Fe  Fe38  1  0.49339618  0.16211105  0.82876777  1
  Cr  Cr39  1  0.49395256  0.49569185  0.49619736  1
  Fe  Fe40  1  0.32819743  0.32446449  0.66101657  1
  Cr  Cr41  1  0.49266683  0.49524738  0.82557004  1
  Cr  Cr42  1  0.49286363  0.82949992  0.49385564  1
  Fe  Fe43  1  0.32635776  0.66470356  0.66128035  1
  Cr  Cr44  1  0.49416025  0.82924018  0.82796504  1
  Cr  Cr45  1  0.83021815  0.16039943  0.49289117  1
  Cr  Cr46  1  0.66136532  -0.00439408  0.66380650  1
  Fe  Fe47  1  0.82872430  0.15898934  0.82924296  1
  Cr  Cr48  1  0.82870368  0.49725964  0.49495257  1
  Cr  Cr49  1  0.66125857  0.32595786  0.66176986  1
  Cr  Cr50  1  0.82958438  0.49683115  0.82501705  1
  Cr  Cr51  1  0.82815370  0.82626378  0.49096770  1
  Fe  Fe52  1  0.66227720  0.66378493  0.66154692  1
  Fe  Fe53  1  0.83029611  0.82815479  0.82940272  1
" 