8154,Ni2Fe46Cr50_19,-216.294236499537, 179.153454036387,Ni2Fe46Cr50,"# generated using pymatgen
 data_Cr28Fe25Ni
_symmetry_space_group_name_H-M   'P 1'
_cell_length_a   7.54440750
_cell_length_b   7.54440750
_cell_length_c   10.66940341
_cell_angle_alpha   90.00000000
_cell_angle_beta   90.00000000
_cell_angle_gamma   90.00000000
_symmetry_Int_Tables_number   1
_chemical_formula_structural   Cr28Fe25Ni
_chemical_formula_sum   'Cr28 Fe25 Ni1'
_cell_volume   607.28200610
_cell_formula_units_Z   1
loop_
 _symmetry_equiv_pos_site_id
 _symmetry_equiv_pos_as_xyz
  1  'x, y, z'
loop_
 _atom_site_type_symbol
 _atom_site_label
 _atom_site_symmetry_multiplicity
 _atom_site_fract_x
 _atom_site_fract_y
 _atom_site_fract_z
 _atom_site_occupancy
  Fe  Fe0  1  0.99319956  0.99406717  -0.00504769  1
  Cr  Cr1  1  0.16092524  0.16099323  0.16199737  1
  Cr  Cr2  1  0.99400702  0.99411972  0.32937357  1
  Cr  Cr3  1  0.99466013  0.32706915  -0.00460228  1
  Fe  Fe4  1  0.16030522  0.49609184  0.16276777  1
  Fe  Fe5  1  -0.00341998  0.33000302  0.32820591  1
  Fe  Fe6  1  -0.00503561  0.66310209  -0.00384297  1
  Fe  Fe7  1  0.15991084  0.82636492  0.16150815  1
  Ni  Ni8  1  -0.00307206  0.66049498  0.32735753  1
  Cr  Cr9  1  0.32916320  0.99357390  0.99407769  1
  Cr  Cr10  1  0.49563996  0.16033150  0.16315739  1
  Cr  Cr11  1  0.32960106  0.99451364  0.33081833  1
  Cr  Cr12  1  0.32722677  0.32902673  0.99288665  1
  Cr  Cr13  1  0.49386889  0.49481981  0.16159045  1
  Fe  Fe14  1  0.32606788  0.32863479  0.32906953  1
  Cr  Cr15  1  0.32778129  0.66201860  -0.00423506  1
  Fe  Fe16  1  0.49527183  0.82865733  0.16109677  1
  Cr  Cr17  1  0.32534668  0.66178354  0.32730807  1
  Fe  Fe18  1  0.66268509  0.99454538  0.99446644  1
  Fe  Fe19  1  0.82852037  0.16038074  0.16120171  1
  Cr  Cr20  1  0.66101400  0.99418215  0.32621239  1
  Cr  Cr21  1  0.66273182  0.32569341  0.99266044  1
  Cr  Cr22  1  0.83067788  0.49595037  0.16364204  1
  Cr  Cr23  1  0.66263538  0.32607125  0.32770662  1
  Cr  Cr24  1  0.66136072  0.66454123  0.99393401  1
  Fe  Fe25  1  0.82943610  0.82867384  0.16118594  1
  Cr  Cr26  1  0.66302482  0.66436600  0.32896330  1
  Fe  Fe27  1  0.16200515  0.16216596  0.49437430  1
  Fe  Fe28  1  -0.00491687  -0.00509464  0.66145708  1
  Fe  Fe29  1  0.16060580  0.16077347  0.82829320  1
  Fe  Fe30  1  0.16053952  0.49482789  0.49322451  1
  Cr  Cr31  1  -0.00505865  0.32630550  0.66147493  1
  Cr  Cr32  1  0.16238360  0.49519181  0.83021897  1
  Fe  Fe33  1  0.16011523  0.82762296  0.49449178  1
  Cr  Cr34  1  0.99351422  0.66275395  0.65956635  1
  Cr  Cr35  1  0.15985031  0.83097648  0.82931085  1
  Fe  Fe36  1  0.49413710  0.16162146  0.49478075  1
  Cr  Cr37  1  0.32791767  -0.00468942  0.65973161  1
  Fe  Fe38  1  0.49559692  0.16162345  0.82827624  1
  Cr  Cr39  1  0.49576843  0.49416802  0.49661583  1
  Cr  Cr40  1  0.32824295  0.32717957  0.66253919  1
  Fe  Fe41  1  0.49563021  0.49498902  0.82735113  1
  Fe  Fe42  1  0.49550567  0.82867349  0.49532997  1
  Cr  Cr43  1  0.32992399  0.66213232  0.66155906  1
  Fe  Fe44  1  0.49653925  0.82800426  0.82818498  1
  Cr  Cr45  1  0.82891863  0.16136893  0.49461917  1
  Cr  Cr46  1  0.66205552  0.99387856  0.66143867  1
  Fe  Fe47  1  0.82842084  0.15985249  0.82807895  1
  Cr  Cr48  1  0.82821744  0.49649086  0.49505125  1
  Fe  Fe49  1  0.66058617  0.32828073  0.66238712  1
  Cr  Cr50  1  0.82525275  0.49551487  0.82591586  1
  Fe  Fe51  1  0.82899815  0.82721863  0.49481677  1
  Fe  Fe52  1  0.66097371  0.66188492  0.66198794  1
  Fe  Fe53  1  0.82788583  0.82935776  0.82860708  1
" 