8742,Ni2Fe66Cr31_16,-220.521531755539, 155.26723106578,Ni2Fe66Cr31,"# generated using pymatgen
 data_Cr18Fe35Ni
_symmetry_space_group_name_H-M   'P 1'
_cell_length_a   7.50437015
_cell_length_b   7.50437015
_cell_length_c   10.61278204
_cell_angle_alpha   90.00000000
_cell_angle_beta   90.00000000
_cell_angle_gamma   90.00000000
_symmetry_Int_Tables_number   1
_chemical_formula_structural   Cr18Fe35Ni
_chemical_formula_sum   'Cr18 Fe35 Ni1'
_cell_volume   597.66488397
_cell_formula_units_Z   1
loop_
 _symmetry_equiv_pos_site_id
 _symmetry_equiv_pos_as_xyz
  1  'x, y, z'
loop_
 _atom_site_type_symbol
 _atom_site_label
 _atom_site_symmetry_multiplicity
 _atom_site_fract_x
 _atom_site_fract_y
 _atom_site_fract_z
 _atom_site_occupancy
  Cr  Cr0  1  0.99677747  -0.00170459  -0.00111051  1
  Fe  Fe1  1  0.16355604  0.16598146  0.16473272  1
  Fe  Fe2  1  0.99438686  -0.00225186  0.33043877  1
  Fe  Fe3  1  -0.00148304  0.33212516  0.99692216  1
  Fe  Fe4  1  0.16359047  0.49814691  0.16406048  1
  Cr  Cr5  1  0.99662711  0.33092470  0.32855878  1
  Ni  Ni6  1  0.99711001  0.66252593  -0.00215045  1
  Cr  Cr7  1  0.16295886  0.82795702  0.16551826  1
  Fe  Fe8  1  0.99525737  0.66582404  0.33017058  1
  Cr  Cr9  1  0.33303789  0.99616555  0.99653432  1
  Fe  Fe10  1  0.49950825  0.16290462  0.16503749  1
  Cr  Cr11  1  0.33168833  0.00013674  0.33033796  1
  Cr  Cr12  1  0.32930500  0.33062825  -0.00046539  1
  Cr  Cr13  1  0.49602506  0.49748694  0.16667093  1
  Fe  Fe14  1  0.33236033  0.33045084  0.33076258  1
  Fe  Fe15  1  0.32968657  0.66394611  0.99588828  1
  Fe  Fe16  1  0.50043676  0.83051897  0.16459701  1
  Fe  Fe17  1  0.33161231  0.66310563  0.33074336  1
  Fe  Fe18  1  0.66499341  0.99550668  -0.00084737  1
  Fe  Fe19  1  0.82977910  0.16210081  0.16499730  1
  Fe  Fe20  1  0.66680437  -0.00156881  0.33017809  1
  Cr  Cr21  1  0.66658155  0.33020887  0.99739632  1
  Cr  Cr22  1  0.83232518  0.49856444  0.16224348  1
  Fe  Fe23  1  0.66304537  0.32914116  0.33186248  1
  Fe  Fe24  1  0.66393027  0.66623862  0.99716259  1
  Fe  Fe25  1  0.82881033  0.83057535  0.16404481  1
  Fe  Fe26  1  0.66546835  0.66477882  0.33145848  1
  Fe  Fe27  1  0.16249895  0.16399597  0.49722690  1
  Fe  Fe28  1  0.99607853  0.00041985  0.66453327  1
  Fe  Fe29  1  0.16069330  0.16509697  0.83034805  1
  Cr  Cr30  1  0.16501658  0.49751917  0.49306885  1
  Fe  Fe31  1  0.99623781  0.32920525  0.66417611  1
  Fe  Fe32  1  0.16190156  0.49775161  0.83240423  1
  Cr  Cr33  1  0.16129751  0.83206796  0.49738871  1
  Cr  Cr34  1  0.99443396  0.66345695  0.66278760  1
  Fe  Fe35  1  0.16328350  0.82953618  0.83255053  1
  Fe  Fe36  1  0.49954570  0.16587237  0.49703624  1
  Cr  Cr37  1  0.32927678  -0.00227169  0.66618729  1
  Cr  Cr38  1  0.50042777  0.16362049  0.83012945  1
  Fe  Fe39  1  0.50018272  0.49656166  0.49580000  1
  Cr  Cr40  1  0.33174629  0.33042992  0.66172131  1
  Fe  Fe41  1  0.49947410  0.49942704  0.83162110  1
  Cr  Cr42  1  0.49915455  0.83058743  0.49848740  1
  Cr  Cr43  1  0.33213156  0.66434357  0.66795946  1
  Fe  Fe44  1  0.49902277  0.82895991  0.83156461  1
  Fe  Fe45  1  0.83051912  0.16328003  0.49812065  1
  Fe  Fe46  1  0.66626801  -0.00204988  0.66331213  1
  Fe  Fe47  1  0.83260357  0.16555173  0.82927427  1
  Fe  Fe48  1  0.82801132  0.49769960  0.49681556  1
  Fe  Fe49  1  0.66650898  0.33224926  0.66363493  1
  Fe  Fe50  1  0.83136827  0.49658792  0.83168069  1
  Fe  Fe51  1  0.83001869  0.83161649  0.49681526  1
  Fe  Fe52  1  0.66386112  0.66234112  0.66428446  1
  Cr  Cr53  1  0.82997452  0.83144188  0.83104455  1
" 