90,Ni2Fe66Cr31_8,-220.617692927449, 150.732928496278,Ni2Fe66Cr31,"# generated using pymatgen
 data_Cr18Fe35Ni
_symmetry_space_group_name_H-M   'P 1'
_cell_length_a   7.52344030
_cell_length_b   7.52344030
_cell_length_c   10.63975131
_cell_angle_alpha   90.00000000
_cell_angle_beta   90.00000000
_cell_angle_gamma   90.00000000
_symmetry_Int_Tables_number   1
_chemical_formula_structural   Cr18Fe35Ni
_chemical_formula_sum   'Cr18 Fe35 Ni1'
_cell_volume   602.23284174
_cell_formula_units_Z   1
loop_
 _symmetry_equiv_pos_site_id
 _symmetry_equiv_pos_as_xyz
  1  'x, y, z'
loop_
 _atom_site_type_symbol
 _atom_site_label
 _atom_site_symmetry_multiplicity
 _atom_site_fract_x
 _atom_site_fract_y
 _atom_site_fract_z
 _atom_site_occupancy
  Fe  Fe0  1  -0.00164725  -0.00301062  -0.00190011  1
  Ni  Ni1  1  0.16412615  0.16452856  0.16038157  1
  Cr  Cr2  1  -0.00207049  0.99616544  0.32875038  1
  Fe  Fe3  1  0.99490692  0.32946587  -0.00154722  1
  Fe  Fe4  1  0.16296846  0.49727399  0.16145346  1
  Cr  Cr5  1  0.99618002  0.32995544  0.32781948  1
  Fe  Fe6  1  -0.00215725  0.66240190  -0.00319171  1
  Fe  Fe7  1  0.16357920  0.83026366  0.16215129  1
  Fe  Fe8  1  -0.00356525  0.66264074  0.32970073  1
  Fe  Fe9  1  0.32707209  -0.00342669  -0.00223840  1
  Fe  Fe10  1  0.49536548  0.16398312  0.16188651  1
  Fe  Fe11  1  0.32834983  -0.00358900  0.32924227  1
  Fe  Fe12  1  0.33007413  0.33013838  -0.00143762  1
  Fe  Fe13  1  0.49585994  0.49464570  0.16284137  1
  Cr  Cr14  1  0.33014637  0.32909265  0.32817218  1
  Fe  Fe15  1  0.32781537  0.66233540  -0.00297892  1
  Cr  Cr16  1  0.49639703  0.82955127  0.16396762  1
  Fe  Fe17  1  0.32897441  0.66413848  0.32979335  1
  Cr  Cr18  1  0.66473780  -0.00257089  0.99573198  1
  Fe  Fe19  1  0.83033279  0.16427345  0.16191946  1
  Cr  Cr20  1  0.66259366  -0.00358389  0.33218958  1
  Fe  Fe21  1  0.66383642  0.33013860  -0.00283164  1
  Fe  Fe22  1  0.82997749  0.49422886  0.16274082  1
  Fe  Fe23  1  0.66329583  0.33052434  0.32952559  1
  Cr  Cr24  1  0.66299866  0.65956679  0.99573878  1
  Cr  Cr25  1  0.82925968  0.82680361  0.16380692  1
  Fe  Fe26  1  0.66313968  0.65968743  0.33105882  1
  Cr  Cr27  1  0.16233007  0.16424007  0.49731870  1
  Fe  Fe28  1  0.99413696  0.99551325  0.66198176  1
  Cr  Cr29  1  0.16100693  0.16429771  0.82989460  1
  Cr  Cr30  1  0.16150310  0.49734294  0.49679922  1
  Fe  Fe31  1  0.99210134  0.32990118  0.66275733  1
  Cr  Cr32  1  0.16211757  0.49646434  0.82895249  1
  Fe  Fe33  1  0.16255137  0.82830586  0.49587325  1
  Fe  Fe34  1  -0.00302118  0.66395349  0.66241083  1
  Fe  Fe35  1  0.16256846  0.82956877  0.83022082  1
  Fe  Fe36  1  0.49829513  0.16375495  0.49657321  1
  Cr  Cr37  1  0.32872305  0.99478258  0.66112487  1
  Cr  Cr38  1  0.49711461  0.16362895  0.83039467  1
  Fe  Fe39  1  0.49769061  0.49658258  0.49517326  1
  Cr  Cr40  1  0.33112506  0.33162855  0.66267201  1
  Fe  Fe41  1  0.49647677  0.49521375  0.83027335  1
  Fe  Fe42  1  0.49509196  0.82822598  0.49544661  1
  Fe  Fe43  1  0.32916115  0.66368650  0.66228825  1
  Cr  Cr44  1  0.49559740  0.82912192  0.83000422  1
  Fe  Fe45  1  0.82853034  0.16409668  0.49781477  1
  Fe  Fe46  1  0.66420565  -0.00199893  0.66095636  1
  Fe  Fe47  1  0.83045820  0.16526048  0.82875532  1
  Fe  Fe48  1  0.82850469  0.49584983  0.49607985  1
  Fe  Fe49  1  0.66467345  0.32877945  0.66223379  1
  Fe  Fe50  1  0.82961764  0.49310213  0.82950801  1
  Fe  Fe51  1  0.83105301  0.82857648  0.49697228  1
  Cr  Cr52  1  0.66259285  0.66175150  0.66314972  1
  Cr  Cr53  1  0.83086548  0.83036525  0.82924274  1
" 