8453,Ni2Fe57Cr40_12,-218.968603782472, 165.163743394385,Ni2Fe57Cr40,"# generated using pymatgen
 data_Cr22Fe31Ni
_symmetry_space_group_name_H-M   'P 1'
_cell_length_a   7.51628771
_cell_length_b   7.51628771
_cell_length_c   10.62963602
_cell_angle_alpha   90.00000000
_cell_angle_beta   90.00000000
_cell_angle_gamma   90.00000000
_symmetry_Int_Tables_number   1
_chemical_formula_structural   Cr22Fe31Ni
_chemical_formula_sum   'Cr22 Fe31 Ni1'
_cell_volume   600.51683281
_cell_formula_units_Z   1
loop_
 _symmetry_equiv_pos_site_id
 _symmetry_equiv_pos_as_xyz
  1  'x, y, z'
loop_
 _atom_site_type_symbol
 _atom_site_label
 _atom_site_symmetry_multiplicity
 _atom_site_fract_x
 _atom_site_fract_y
 _atom_site_fract_z
 _atom_site_occupancy
  Cr  Cr0  1  0.99636213  0.99626731  0.99270979  1
  Cr  Cr1  1  0.16299581  0.16322554  0.16148263  1
  Cr  Cr2  1  0.99383706  -0.00206990  0.33091831  1
  Fe  Fe3  1  0.99432278  0.33058457  0.99533577  1
  Cr  Cr4  1  0.16376181  0.49358102  0.16479465  1
  Fe  Fe5  1  0.99459413  0.32902233  0.33039515  1
  Fe  Fe6  1  0.99441063  0.66100589  0.99506305  1
  Cr  Cr7  1  0.16314554  0.83299175  0.16149040  1
  Cr  Cr8  1  -0.00140740  0.66163925  0.32849220  1
  Fe  Fe9  1  0.33046214  -0.00185680  0.99346907  1
  Cr  Cr10  1  0.49527942  0.16408901  0.16267604  1
  Fe  Fe11  1  0.33169751  0.99641347  0.33107437  1
  Fe  Fe12  1  0.33020682  0.32771879  0.99480558  1
  Cr  Cr13  1  0.49979373  0.49623224  0.16131146  1
  Fe  Fe14  1  0.33075780  0.33009116  0.33147259  1
  Cr  Cr15  1  0.32831279  0.66429723  -0.00260527  1
  Fe  Fe16  1  0.49608116  0.83065247  0.16436463  1
  Fe  Fe17  1  0.33275378  0.66454299  0.33003027  1
  Cr  Cr18  1  0.66254845  -0.00001731  -0.00302979  1
  Fe  Fe19  1  0.82975311  0.16628371  0.16331512  1
  Fe  Fe20  1  0.66120943  -0.00269376  0.33118637  1
  Fe  Fe21  1  0.66646549  0.33075553  0.99522622  1
  Fe  Fe22  1  0.83003622  0.49356862  0.16274867  1
  Fe  Fe23  1  0.66441958  0.32879201  0.33049765  1
  Fe  Fe24  1  0.66605425  0.66308883  0.99596443  1
  Cr  Cr25  1  0.82783971  0.82925420  0.16250902  1
  Fe  Fe26  1  0.66233918  0.66433682  0.33043122  1
  Cr  Cr27  1  0.16219095  0.16525547  0.49753176  1
  Fe  Fe28  1  0.99446482  -0.00053486  0.66634849  1
  Fe  Fe29  1  0.16397865  0.16336466  0.82979753  1
  Fe  Fe30  1  0.16355624  0.49660981  0.49720515  1
  Fe  Fe31  1  0.99533188  0.32680219  0.66408254  1
  Cr  Cr32  1  0.16478546  0.49292572  0.82800448  1
  Cr  Cr33  1  0.16303729  0.83147506  0.49824287  1
  Cr  Cr34  1  -0.00077640  0.66221639  0.66553479  1
  Fe  Fe35  1  0.16396381  0.82964789  0.82984194  1
  Fe  Fe36  1  0.49817882  0.16139032  0.49570637  1
  Cr  Cr37  1  0.33187787  -0.00279601  0.66604433  1
  Fe  Fe38  1  0.49658789  0.16356946  0.83082264  1
  Cr  Cr39  1  0.49555999  0.49704343  0.49910991  1
  Fe  Fe40  1  0.32996364  0.32846209  0.66315847  1
  Cr  Cr41  1  0.49852637  0.49500870  0.83017423  1
  Fe  Fe42  1  0.49688778  0.83177148  0.49757113  1
  Fe  Fe43  1  0.33249148  0.66393826  0.66376591  1
  Cr  Cr44  1  0.50082615  0.82933084  0.82990397  1
  Fe  Fe45  1  0.82781837  0.16397437  0.49733163  1
  Ni  Ni46  1  0.66322003  -0.00046069  0.66263718  1
  Fe  Fe47  1  0.82955128  0.16359649  0.82890851  1
  Cr  Cr48  1  0.82927466  0.49689013  0.49703831  1
  Cr  Cr49  1  0.66268941  0.32736094  0.66475924  1
  Fe  Fe50  1  0.83022843  0.49677092  0.83068178  1
  Cr  Cr51  1  0.82772069  0.83231859  0.50057486  1
  Fe  Fe52  1  0.66346203  0.66510105  0.66423223  1
  Fe  Fe53  1  0.82968912  0.83029010  0.82797991  1
" 