2154,Ni2Fe66Cr31_14,-220.388074211459, 159.591880833395,Ni2Fe66Cr31,"# generated using pymatgen
 data_Cr18Fe35Ni
_symmetry_space_group_name_H-M   'P 1'
_cell_length_a   7.50367968
_cell_length_b   7.50367968
_cell_length_c   10.61180557
_cell_angle_alpha   90.00000000
_cell_angle_beta   90.00000000
_cell_angle_gamma   90.00000000
_symmetry_Int_Tables_number   1
_chemical_formula_structural   Cr18Fe35Ni
_chemical_formula_sum   'Cr18 Fe35 Ni1'
_cell_volume   597.49992713
_cell_formula_units_Z   1
loop_
 _symmetry_equiv_pos_site_id
 _symmetry_equiv_pos_as_xyz
  1  'x, y, z'
loop_
 _atom_site_type_symbol
 _atom_site_label
 _atom_site_symmetry_multiplicity
 _atom_site_fract_x
 _atom_site_fract_y
 _atom_site_fract_z
 _atom_site_occupancy
  Fe  Fe0  1  -0.00148850  0.99594406  -0.00140290  1
  Cr  Cr1  1  0.16230862  0.16401913  0.16280123  1
  Cr  Cr2  1  0.99540511  0.99632148  0.32844889  1
  Fe  Fe3  1  -0.00188235  0.33339990  0.99753215  1
  Fe  Fe4  1  0.16638222  0.49929749  0.16235320  1
  Cr  Cr5  1  -0.00090452  0.33366604  0.33219076  1
  Fe  Fe6  1  0.99735451  0.66354670  -0.00135822  1
  Fe  Fe7  1  0.16403706  0.82832046  0.16163856  1
  Cr  Cr8  1  -0.00195540  0.66272700  0.33078612  1
  Fe  Fe9  1  0.33055844  0.99721534  -0.00197683  1
  Fe  Fe10  1  0.49658904  0.16651899  0.16270845  1
  Cr  Cr11  1  0.33333677  -0.00191749  0.33242741  1
  Fe  Fe12  1  0.33188515  0.33221326  0.99651322  1
  Fe  Fe13  1  0.49585668  0.49656759  0.16309462  1
  Fe  Fe14  1  0.33038999  0.33184016  0.33078354  1
  Ni  Ni15  1  0.32913749  0.66080409  -0.00102249  1
  Cr  Cr16  1  0.49509996  0.82586458  0.16576680  1
  Fe  Fe17  1  0.33094582  0.66186304  0.32964012  1
  Cr  Cr18  1  0.66430807  -0.00181732  0.00020244  1
  Fe  Fe19  1  0.83030028  0.16557596  0.16206889  1
  Cr  Cr20  1  0.66383825  0.99638697  0.33020026  1
  Fe  Fe21  1  0.66258910  0.33410480  -0.00149375  1
  Fe  Fe22  1  0.83030599  0.49821834  0.16205762  1
  Cr  Cr23  1  0.66372846  0.32982704  0.32799241  1
  Fe  Fe24  1  0.66388167  0.66192433  0.99748336  1
  Fe  Fe25  1  0.83227471  0.82906894  0.16261325  1
  Fe  Fe26  1  0.66531917  0.66434274  0.33065723  1
  Fe  Fe27  1  0.16637981  0.16486459  0.49768620  1
  Fe  Fe28  1  -0.00183361  0.99651206  0.66437707  1
  Fe  Fe29  1  0.16551760  0.16425579  0.83271421  1
  Fe  Fe30  1  0.16434901  0.49717066  0.49705730  1
  Cr  Cr31  1  -0.00082790  0.33442695  0.66286953  1
  Fe  Fe32  1  0.16398549  0.49758316  0.83369150  1
  Cr  Cr33  1  0.16524266  0.83149912  0.49745130  1
  Fe  Fe34  1  0.99535471  0.66467969  0.66428856  1
  Cr  Cr35  1  0.16391010  0.83206966  0.83406284  1
  Fe  Fe36  1  0.49665145  0.16325262  0.49912468  1
  Fe  Fe37  1  0.33116541  -0.00064952  0.66348277  1
  Fe  Fe38  1  0.49653873  0.16470454  0.83133779  1
  Cr  Cr39  1  0.49895833  0.49936927  0.49438771  1
  Cr  Cr40  1  0.33047997  0.32970890  0.66517283  1
  Fe  Fe41  1  0.49828302  0.49656660  0.83280708  1
  Fe  Fe42  1  0.50024684  0.83159488  0.49875853  1
  Cr  Cr43  1  0.32969824  0.66298106  0.66407761  1
  Cr  Cr44  1  0.49650145  0.82858729  0.82932493  1
  Cr  Cr45  1  0.83167295  0.16502666  0.49789949  1
  Fe  Fe46  1  0.66334590  0.99732886  0.66374816  1
  Cr  Cr47  1  0.83225969  0.16635485  0.83188384  1
  Fe  Fe48  1  0.83053528  0.50067992  0.49877359  1
  Fe  Fe49  1  0.66316711  0.33221224  0.66475969  1
  Fe  Fe50  1  0.83024572  0.50029202  0.83156838  1
  Fe  Fe51  1  0.82873385  0.82861950  0.49961599  1
  Fe  Fe52  1  0.66692970  0.66329423  0.66415333  1
  Fe  Fe53  1  0.83109594  0.82936001  0.83040794  1
" 