175,Ni2Fe41Cr55_11,-215.007944578688, 181.958771069612,Ni2Fe41Cr55,"# generated using pymatgen
 data_Cr31Fe22Ni
_symmetry_space_group_name_H-M   'P 1'
_cell_length_a   7.55099407
_cell_length_b   7.55099407
_cell_length_c   10.67871823
_cell_angle_alpha   90.00000000
_cell_angle_beta   90.00000000
_cell_angle_gamma   90.00000000
_symmetry_Int_Tables_number   1
_chemical_formula_structural   Cr31Fe22Ni
_chemical_formula_sum   'Cr31 Fe22 Ni1'
_cell_volume   608.87393920
_cell_formula_units_Z   1
loop_
 _symmetry_equiv_pos_site_id
 _symmetry_equiv_pos_as_xyz
  1  'x, y, z'
loop_
 _atom_site_type_symbol
 _atom_site_label
 _atom_site_symmetry_multiplicity
 _atom_site_fract_x
 _atom_site_fract_y
 _atom_site_fract_z
 _atom_site_occupancy
  Fe  Fe0  1  0.99424154  -0.00554371  -0.00462659  1
  Fe  Fe1  1  0.16139920  0.16079154  0.16064539  1
  Cr  Cr2  1  0.99426600  -0.00510528  0.32804505  1
  Cr  Cr3  1  -0.00492491  0.32794615  0.99401694  1
  Fe  Fe4  1  0.16144405  0.49495109  0.15981629  1
  Cr  Cr5  1  -0.00489200  0.32723113  0.32760548  1
  Fe  Fe6  1  -0.00437848  0.66163559  -0.00515259  1
  Fe  Fe7  1  0.16196592  0.82758002  0.16025088  1
  Cr  Cr8  1  -0.00455691  0.66119994  0.32751672  1
  Cr  Cr9  1  0.32803983  0.99366804  -0.00260882  1
  Fe  Fe10  1  0.49379996  0.16025169  0.16155773  1
  Fe  Fe11  1  0.32873678  -0.00462719  0.32691751  1
  Fe  Fe12  1  0.32754325  0.32817620  -0.00429621  1
  Cr  Cr13  1  0.49319849  0.49363770  0.16051329  1
  Cr  Cr14  1  0.32784028  0.32633511  0.32733253  1
  Fe  Fe15  1  0.32659988  0.66059868  -0.00419870  1
  Fe  Fe16  1  0.49284869  0.82850752  0.16108038  1
  Cr  Cr17  1  0.32745191  0.66204020  0.32725021  1
  Cr  Cr18  1  0.66107432  -0.00484812  -0.00391238  1
  Fe  Fe19  1  0.82812479  0.16077954  0.16065612  1
  Cr  Cr20  1  0.65953110  -0.00472139  0.32659187  1
  Cr  Cr21  1  0.66189086  0.32594257  0.99292011  1
  Cr  Cr22  1  0.82887561  0.49468216  0.16080620  1
  Cr  Cr23  1  0.66037340  0.32516862  0.32943370  1
  Cr  Cr24  1  0.66073338  0.66222859  0.99374657  1
  Cr  Cr25  1  0.82884113  0.82817128  0.16110826  1
  Cr  Cr26  1  0.66042736  0.66287570  0.32937830  1
  Cr  Cr27  1  0.16244358  0.15901193  0.49483208  1
  Fe  Fe28  1  0.99326775  -0.00506900  0.66062232  1
  Cr  Cr29  1  0.16018901  0.15964616  0.82713931  1
  Cr  Cr30  1  0.16188495  0.49437475  0.49316689  1
  Cr  Cr31  1  0.99245480  0.32631328  0.66169276  1
  Cr  Cr32  1  0.16142460  0.49491376  0.83053686  1
  Cr  Cr33  1  0.16068016  0.82993938  0.49600475  1
  Cr  Cr34  1  0.99395944  0.66206887  0.66096310  1
  Cr  Cr35  1  0.16028497  0.82876453  0.82736934  1
  Ni  Ni36  1  0.49612789  0.16052225  0.49491033  1
  Fe  Fe37  1  0.32851323  -0.00548475  0.66028039  1
  Cr  Cr38  1  0.49499368  0.16196267  0.82706116  1
  Fe  Fe39  1  0.49466042  0.49300920  0.49571664  1
  Cr  Cr40  1  0.32956104  0.32775068  0.66011682  1
  Cr  Cr41  1  0.49552690  0.49434829  0.82655665  1
  Cr  Cr42  1  0.49506033  0.82883628  0.49584434  1
  Fe  Fe43  1  0.32892508  0.66144404  0.66062160  1
  Cr  Cr44  1  0.49433718  0.82701204  0.82662415  1
  Fe  Fe45  1  0.82558624  0.15970960  0.49570006  1
  Fe  Fe46  1  0.66154709  -0.00411092  0.65975246  1
  Fe  Fe47  1  0.82781493  0.16109298  0.82696980  1
  Cr  Cr48  1  0.82522902  0.49489348  0.49372733  1
  Fe  Fe49  1  0.66111760  0.32694566  0.66017201  1
  Fe  Fe50  1  0.82735951  0.49402906  0.82736022  1
  Fe  Fe51  1  0.82698814  0.82962217  0.49570920  1
  Fe  Fe52  1  0.66070037  0.66049094  0.66071008  1
  Cr  Cr53  1  0.82870027  0.82824290  0.82727874  1
" 