1679,Ni2Fe41Cr55_10,-214.738913500054, 187.402009365385,Ni2Fe41Cr55,"# generated using pymatgen
 data_Cr31Fe22Ni
_symmetry_space_group_name_H-M   'P 1'
_cell_length_a   7.54543704
_cell_length_b   7.54543704
_cell_length_c   10.67085940
_cell_angle_alpha   90.00000000
_cell_angle_beta   90.00000000
_cell_angle_gamma   90.00000000
_symmetry_Int_Tables_number   1
_chemical_formula_structural   Cr31Fe22Ni
_chemical_formula_sum   'Cr31 Fe22 Ni1'
_cell_volume   607.53065579
_cell_formula_units_Z   1
loop_
 _symmetry_equiv_pos_site_id
 _symmetry_equiv_pos_as_xyz
  1  'x, y, z'
loop_
 _atom_site_type_symbol
 _atom_site_label
 _atom_site_symmetry_multiplicity
 _atom_site_fract_x
 _atom_site_fract_y
 _atom_site_fract_z
 _atom_site_occupancy
  Cr  Cr0  1  0.99378986  -0.00484819  0.99437669  1
  Cr  Cr1  1  0.16039560  0.16340218  0.16239175  1
  Cr  Cr2  1  -0.00355593  -0.00410685  0.32972669  1
  Fe  Fe3  1  0.99380195  0.32828070  -0.00473370  1
  Cr  Cr4  1  0.16089628  0.49640807  0.15919334  1
  Fe  Fe5  1  0.99439129  0.32844092  0.32874288  1
  Fe  Fe6  1  0.99469601  0.66092209  0.99437844  1
  Cr  Cr7  1  0.16201790  0.82467054  0.16114568  1
  Fe  Fe8  1  0.99475018  0.66105072  0.32940495  1
  Cr  Cr9  1  0.32855540  0.99354783  -0.00346365  1
  Cr  Cr10  1  0.49662186  0.16135700  0.16157019  1
  Cr  Cr11  1  0.32753623  0.99319747  0.32933667  1
  Cr  Cr12  1  0.32737980  0.32921990  0.99284532  1
  Cr  Cr13  1  0.49338907  0.49584924  0.16322021  1
  Fe  Fe14  1  0.32877146  0.32925299  0.32949142  1
  Fe  Fe15  1  0.32831779  0.66216429  -0.00478957  1
  Fe  Fe16  1  0.49408565  0.82609074  0.16186157  1
  Fe  Fe17  1  0.32971153  0.66111417  0.32991438  1
  Cr  Cr18  1  0.66211324  0.99463438  -0.00328035  1
  Fe  Fe19  1  0.82918959  0.16318006  0.16222074  1
  Cr  Cr20  1  0.66062325  0.99438929  0.32393785  1
  Cr  Cr21  1  0.66351779  0.32825981  -0.00347393  1
  Cr  Cr22  1  0.83005004  0.49413617  0.16456470  1
  Fe  Fe23  1  0.66131053  0.32981358  0.32933531  1
  Cr  Cr24  1  0.66187020  0.66147828  0.99341238  1
  Cr  Cr25  1  0.82813394  0.82792332  0.16056699  1
  Fe  Fe26  1  0.66001285  0.66036567  0.32977868  1
  Fe  Fe27  1  0.16145527  0.16277947  0.49529994  1
  Fe  Fe28  1  0.99451695  -0.00496341  0.66088479  1
  Cr  Cr29  1  0.16087429  0.16291085  0.82529790  1
  Cr  Cr30  1  0.16237322  0.49417720  0.49232225  1
  Fe  Fe31  1  -0.00472650  0.32756351  0.66038431  1
  Cr  Cr32  1  0.16124986  0.49501491  0.83285603  1
  Fe  Fe33  1  0.16244686  0.82784315  0.49438869  1
  Cr  Cr34  1  0.99244308  0.66154624  0.66175618  1
  Cr  Cr35  1  0.15916000  0.82663375  0.83023133  1
  Cr  Cr36  1  0.49461361  0.16382032  0.49690494  1
  Cr  Cr37  1  0.32634313  -0.00429365  0.65865008  1
  Cr  Cr38  1  0.49597063  0.16191924  0.82566966  1
  Ni  Ni39  1  0.49555877  0.49531871  0.49407783  1
  Fe  Fe40  1  0.32821830  0.32939090  0.65992261  1
  Cr  Cr41  1  0.49386146  0.49417391  0.82650666  1
  Fe  Fe42  1  0.49514613  0.82530707  0.49471166  1
  Cr  Cr43  1  0.32985912  0.66057270  0.66025649  1
  Cr  Cr44  1  0.49698989  0.82841041  0.82870975  1
  Cr  Cr45  1  0.82861018  0.16178563  0.49542746  1
  Fe  Fe46  1  0.66237065  0.99334623  0.66135981  1
  Cr  Cr47  1  0.82752625  0.15961397  0.82686887  1
  Fe  Fe48  1  0.82539051  0.49411368  0.49425922  1
  Fe  Fe49  1  0.66100136  0.33021291  0.65990356  1
  Cr  Cr50  1  0.82918374  0.49580964  0.82688627  1
  Cr  Cr51  1  0.82809250  0.82722079  0.49732038  1
  Fe  Fe52  1  0.66058909  0.66085030  0.65997026  1
  Fe  Fe53  1  0.82800568  0.82822462  0.82699481  1
" 