1435,Ni2Fe41Cr55_19,-215.085441939243, 185.951527801562,Ni2Fe41Cr55,"# generated using pymatgen
 data_Cr31Fe22Ni
_symmetry_space_group_name_H-M   'P 1'
_cell_length_a   7.54246376
_cell_length_b   7.54246376
_cell_length_c   10.66665454
_cell_angle_alpha   90.00000000
_cell_angle_beta   90.00000000
_cell_angle_gamma   90.00000000
_symmetry_Int_Tables_number   1
_chemical_formula_structural   Cr31Fe22Ni
_chemical_formula_sum   'Cr31 Fe22 Ni1'
_cell_volume   606.81274479
_cell_formula_units_Z   1
loop_
 _symmetry_equiv_pos_site_id
 _symmetry_equiv_pos_as_xyz
  1  'x, y, z'
loop_
 _atom_site_type_symbol
 _atom_site_label
 _atom_site_symmetry_multiplicity
 _atom_site_fract_x
 _atom_site_fract_y
 _atom_site_fract_z
 _atom_site_occupancy
  Cr  Cr0  1  0.99340435  -0.00460506  -0.00438816  1
  Cr  Cr1  1  0.16197730  0.15809739  0.16342405  1
  Fe  Fe2  1  -0.00160940  0.99317273  0.32962312  1
  Cr  Cr3  1  -0.00178229  0.32920866  0.99357338  1
  Fe  Fe4  1  0.16127289  0.49365175  0.16187956  1
  Fe  Fe5  1  -0.00317153  0.32957873  0.32906942  1
  Fe  Fe6  1  -0.00424518  0.66031518  -0.00482014  1
  Fe  Fe7  1  0.16211989  0.82852789  0.16170882  1
  Cr  Cr8  1  -0.00088562  0.66210864  0.32567779  1
  Fe  Fe9  1  0.32769924  -0.00295686  0.99420525  1
  Cr  Cr10  1  0.49208789  0.16193161  0.16152051  1
  Fe  Fe11  1  0.32588233  0.99217563  0.33000313  1
  Fe  Fe12  1  0.32750831  0.32606441  0.99358580  1
  Cr  Cr13  1  0.49574496  0.49491641  0.16365710  1
  Cr  Cr14  1  0.32545662  0.33078335  0.32805388  1
  Cr  Cr15  1  0.32335311  0.65800450  -0.00150933  1
  Cr  Cr16  1  0.49060092  0.82896424  0.16158269  1
  Fe  Fe17  1  0.32734254  0.66422313  0.32981424  1
  Cr  Cr18  1  0.66198521  -0.00284751  0.99353270  1
  Cr  Cr19  1  0.83070715  0.16376877  0.16665165  1
  Cr  Cr20  1  0.66272399  -0.00451024  0.32690972  1
  Cr  Cr21  1  0.66124914  0.32436175  -0.00490400  1
  Cr  Cr22  1  0.82835707  0.49416909  0.16195840  1
  Fe  Fe23  1  0.66141564  0.32933292  0.32911951  1
  Cr  Cr24  1  0.66143518  0.66361415  0.99360304  1
  Cr  Cr25  1  0.83121103  0.82776836  0.15909122  1
  Cr  Cr26  1  0.66234391  0.66541647  0.33112418  1
  Fe  Fe27  1  0.16161375  0.16126773  0.49481540  1
  Fe  Fe28  1  -0.00247081  -0.00226343  0.66164960  1
  Fe  Fe29  1  0.16103158  0.16129238  0.82842748  1
  Fe  Fe30  1  0.15996311  0.49287079  0.49426383  1
  Fe  Fe31  1  -0.00442318  0.32600483  0.66265722  1
  Fe  Fe32  1  0.16098391  0.49538004  0.82850758  1
  Fe  Fe33  1  0.16107986  0.83111129  0.49430505  1
  Cr  Cr34  1  -0.00278941  0.66196222  0.66248891  1
  Cr  Cr35  1  0.16272582  0.83093889  0.83071179  1
  Cr  Cr36  1  0.49221280  0.16138820  0.49320900  1
  Fe  Fe37  1  0.32620141  -0.00449384  0.66054144  1
  Fe  Fe38  1  0.49404319  0.16014700  0.82866668  1
  Cr  Cr39  1  0.49570340  0.49624982  0.49441144  1
  Cr  Cr40  1  0.32381490  0.32764624  0.66507152  1
  Cr  Cr41  1  0.49438956  0.49549943  0.82808874  1
  Fe  Fe42  1  0.49420398  0.83060802  0.49529704  1
  Cr  Cr43  1  0.32614669  0.66067096  0.65639300  1
  Cr  Cr44  1  0.49134921  0.82778910  0.82627746  1
  Cr  Cr45  1  0.83311680  0.16252093  0.49179821  1
  Cr  Cr46  1  0.66366273  0.99431233  0.66273959  1
  Ni  Ni47  1  0.83295295  0.16244359  0.82659495  1
  Cr  Cr48  1  0.82908695  0.49415561  0.49632124  1
  Cr  Cr49  1  0.66056409  0.32413661  0.66262037  1
  Cr  Cr50  1  0.82837011  0.49420986  0.82693858  1
  Fe  Fe51  1  0.83036112  0.82906467  0.49585795  1
  Fe  Fe52  1  0.66150531  0.66213615  0.66018964  1
  Cr  Cr53  1  0.83044593  0.82774488  0.82743915  1
" 