7656,Ni2Fe66Cr31_17,-220.074896632363, 152.603021029564,Ni2Fe66Cr31,"# generated using pymatgen
 data_Cr18Fe35Ni
_symmetry_space_group_name_H-M   'P 1'
_cell_length_a   7.49695717
_cell_length_b   7.49695717
_cell_length_c   10.60229851
_cell_angle_alpha   90.00000000
_cell_angle_beta   90.00000000
_cell_angle_gamma   90.00000000
_symmetry_Int_Tables_number   1
_chemical_formula_structural   Cr18Fe35Ni
_chemical_formula_sum   'Cr18 Fe35 Ni1'
_cell_volume   595.89547458
_cell_formula_units_Z   1
loop_
 _symmetry_equiv_pos_site_id
 _symmetry_equiv_pos_as_xyz
  1  'x, y, z'
loop_
 _atom_site_type_symbol
 _atom_site_label
 _atom_site_symmetry_multiplicity
 _atom_site_fract_x
 _atom_site_fract_y
 _atom_site_fract_z
 _atom_site_occupancy
  Cr  Cr0  1  0.99604118  0.99529186  -0.00159183  1
  Fe  Fe1  1  0.16606551  0.16384390  0.16595167  1
  Fe  Fe2  1  0.99540164  -0.00181736  0.32981365  1
  Cr  Cr3  1  0.99790429  0.33267924  0.00133022  1
  Fe  Fe4  1  0.16441515  0.49733404  0.16674739  1
  Fe  Fe5  1  0.99424976  0.33155817  0.32942552  1
  Fe  Fe6  1  0.99782953  0.66367317  0.99762439  1
  Cr  Cr7  1  0.16508963  0.83079936  0.16463347  1
  Fe  Fe8  1  0.99554260  0.66420980  0.33022150  1
  Fe  Fe9  1  0.33408708  -0.00165698  -0.00047536  1
  Ni  Ni10  1  0.50120900  0.16426498  0.16268628  1
  Fe  Fe11  1  0.33479767  0.99738106  0.32994114  1
  Cr  Cr12  1  0.33271754  0.33085993  0.99666114  1
  Fe  Fe13  1  0.49954386  0.49700167  0.16640226  1
  Cr  Cr14  1  0.33128219  0.33026479  0.33059890  1
  Cr  Cr15  1  0.33198834  0.66368376  -0.00148027  1
  Fe  Fe16  1  0.49984365  0.83396912  0.16594928  1
  Fe  Fe17  1  0.33336762  0.66626051  0.32956743  1
  Fe  Fe18  1  0.66233683  -0.00035449  0.00026129  1
  Fe  Fe19  1  0.82915071  0.16401044  0.16593643  1
  Fe  Fe20  1  0.66378492  -0.00116172  0.33057937  1
  Fe  Fe21  1  0.66407973  0.33098047  -0.00055329  1
  Fe  Fe22  1  0.83025185  0.49752185  0.16694429  1
  Fe  Fe23  1  0.66598062  0.32983631  0.33015519  1
  Cr  Cr24  1  0.66714191  0.66578219  0.00005812  1
  Fe  Fe25  1  0.82907926  0.83262779  0.16678893  1
  Fe  Fe26  1  0.66546361  0.66561636  0.32992334  1
  Cr  Cr27  1  0.16173216  0.16310777  0.49539818  1
  Fe  Fe28  1  0.99450765  0.99575501  0.66499832  1
  Cr  Cr29  1  0.16373304  0.16245487  0.83216950  1
  Cr  Cr30  1  0.16463835  0.50022871  0.49698096  1
  Cr  Cr31  1  0.99733103  0.33193154  0.66250932  1
  Fe  Fe32  1  0.16302848  0.50150649  0.83055348  1
  Cr  Cr33  1  0.16507285  0.83058656  0.49865827  1
  Fe  Fe34  1  0.99611801  0.66624375  0.66625733  1
  Fe  Fe35  1  0.16222379  0.82898479  0.83036878  1
  Fe  Fe36  1  0.50000055  0.16247447  0.49541889  1
  Cr  Cr37  1  0.33274931  -0.00151726  0.66400803  1
  Fe  Fe38  1  0.49979099  0.16372653  0.83380826  1
  Cr  Cr39  1  0.50002123  0.50091129  0.49788637  1
  Cr  Cr40  1  0.33216484  0.33113489  0.66653662  1
  Fe  Fe41  1  0.50010501  0.49797708  0.83116213  1
  Fe  Fe42  1  0.50019958  0.83229308  0.49720565  1
  Fe  Fe43  1  0.33149071  0.66414618  0.66672241  1
  Cr  Cr44  1  0.49876550  0.83189642  0.83178420  1
  Fe  Fe45  1  0.82907171  0.16321956  0.49636850  1
  Fe  Fe46  1  0.66639078  0.99682120  0.66270626  1
  Cr  Cr47  1  0.82814688  0.16465355  0.83261326  1
  Fe  Fe48  1  0.83163188  0.49996851  0.49591051  1
  Cr  Cr49  1  0.66420738  0.33143429  0.66431637  1
  Fe  Fe50  1  0.83143834  0.50064660  0.83145124  1
  Fe  Fe51  1  0.82999349  0.83081600  0.49759480  1
  Fe  Fe52  1  0.66655479  0.66650577  0.66500941  1
  Fe  Fe53  1  0.83252786  0.82991401  0.82978435  1
" 