3498,Ni2Fe50Cr47_12,-217.091730723665, 172.826766160439,Ni2Fe50Cr47,"# generated using pymatgen
 data_Cr26Fe27Ni
_symmetry_space_group_name_H-M   'P 1'
_cell_length_a   7.52766794
_cell_length_b   7.52766794
_cell_length_c   10.64573009
_cell_angle_alpha   90.00000000
_cell_angle_beta   90.00000000
_cell_angle_gamma   90.00000000
_symmetry_Int_Tables_number   1
_chemical_formula_structural   Cr26Fe27Ni
_chemical_formula_sum   'Cr26 Fe27 Ni1'
_cell_volume   603.24864779
_cell_formula_units_Z   1
loop_
 _symmetry_equiv_pos_site_id
 _symmetry_equiv_pos_as_xyz
  1  'x, y, z'
loop_
 _atom_site_type_symbol
 _atom_site_label
 _atom_site_symmetry_multiplicity
 _atom_site_fract_x
 _atom_site_fract_y
 _atom_site_fract_z
 _atom_site_occupancy
  Fe  Fe0  1  -0.00300121  -0.00368566  -0.00249315  1
  Fe  Fe1  1  0.16313779  0.16347348  0.16390270  1
  Cr  Cr2  1  0.99438935  0.99468279  0.32957113  1
  Cr  Cr3  1  -0.00148982  0.32951891  0.99562349  1
  Fe  Fe4  1  0.16189700  0.49451748  0.16396137  1
  Fe  Fe5  1  0.99464311  0.33028983  0.32994473  1
  Cr  Cr6  1  0.99444919  0.66262752  -0.00377611  1
  Cr  Cr7  1  0.16372439  0.82876008  0.16361733  1
  Cr  Cr8  1  -0.00393044  0.66221116  0.33223184  1
  Cr  Cr9  1  0.32904578  -0.00173644  -0.00378560  1
  Fe  Fe10  1  0.49534935  0.16248957  0.16418449  1
  Fe  Fe11  1  0.33074956  0.99506901  0.32872704  1
  Cr  Cr12  1  0.32860870  0.32877219  0.99255746  1
  Fe  Fe13  1  0.49578393  0.49508460  0.16334903  1
  Cr  Cr14  1  0.32910321  0.32818922  0.32886252  1
  Cr  Cr15  1  0.33023762  0.66107939  -0.00230477  1
  Fe  Fe16  1  0.49620919  0.83033608  0.16476504  1
  Fe  Fe17  1  0.32918039  0.66304837  0.32892424  1
  Cr  Cr18  1  0.66255844  0.99434709  -0.00114959  1
  Cr  Cr19  1  0.83031484  0.16483024  0.16337209  1
  Fe  Fe20  1  0.66113410  -0.00256947  0.32922000  1
  Cr  Cr21  1  0.66129679  0.33084878  0.99544882  1
  Fe  Fe22  1  0.83025725  0.49573353  0.16365919  1
  Fe  Fe23  1  0.66422343  0.32863212  0.32966898  1
  Cr  Cr24  1  0.66317937  0.66278063  -0.00367205  1
  Fe  Fe25  1  0.82999065  0.82933140  0.16325375  1
  Cr  Cr26  1  0.66418648  0.66470112  0.32692590  1
  Cr  Cr27  1  0.16162848  0.16199325  0.49563461  1
  Fe  Fe28  1  0.99571491  0.99545110  0.66035430  1
  Fe  Fe29  1  0.16193041  0.16137974  0.82800985  1
  Fe  Fe30  1  0.16270601  0.49639188  0.49575517  1
  Cr  Cr31  1  -0.00359294  0.33076416  0.66172018  1
  Fe  Fe32  1  0.16212311  0.49742889  0.82904082  1
  Fe  Fe33  1  0.16201366  0.82863892  0.49673268  1
  Fe  Fe34  1  0.99427843  0.66234491  0.66069882  1
  Cr  Cr35  1  0.16160923  0.83096827  0.82777405  1
  Fe  Fe36  1  0.49663897  0.16189486  0.49563353  1
  Fe  Fe37  1  0.32847136  -0.00329977  0.66166978  1
  Cr  Cr38  1  0.49789311  0.16185074  0.82722666  1
  Cr  Cr39  1  0.49637118  0.49593395  0.49504481  1
  Cr  Cr40  1  0.32881046  0.32881837  0.66597406  1
  Ni  Ni41  1  0.49644984  0.49701814  0.82924927  1
  Cr  Cr42  1  0.49447680  0.82947240  0.49615169  1
  Cr  Cr43  1  0.32755512  0.66124598  0.66206949  1
  Cr  Cr44  1  0.49569377  0.82713298  0.82805268  1
  Fe  Fe45  1  0.82666193  0.16220622  0.49520447  1
  Fe  Fe46  1  0.66366967  0.99554905  0.66098529  1
  Cr  Cr47  1  0.83203684  0.16216016  0.82995807  1
  Fe  Fe48  1  0.82966397  0.49586625  0.49573691  1
  Cr  Cr49  1  0.66275260  0.32938511  0.66185690  1
  Fe  Fe50  1  0.82808562  0.49709361  0.82783422  1
  Fe  Fe51  1  0.82888762  0.82975330  0.49820144  1
  Fe  Fe52  1  0.66433347  0.66130932  0.66269206  1
  Cr  Cr53  1  0.83047687  0.83045410  0.82871725  1
" 