3924,Ni2Fe66Cr31_5,-220.270719673565, 153.274227894222,Ni2Fe66Cr31,"# generated using pymatgen
 data_Cr18Fe35Ni
_symmetry_space_group_name_H-M   'P 1'
_cell_length_a   7.51434954
_cell_length_b   7.51434954
_cell_length_c   10.62689503
_cell_angle_alpha   90.00000000
_cell_angle_beta   90.00000000
_cell_angle_gamma   90.00000000
_symmetry_Int_Tables_number   1
_chemical_formula_structural   Cr18Fe35Ni
_chemical_formula_sum   'Cr18 Fe35 Ni1'
_cell_volume   600.05239927
_cell_formula_units_Z   1
loop_
 _symmetry_equiv_pos_site_id
 _symmetry_equiv_pos_as_xyz
  1  'x, y, z'
loop_
 _atom_site_type_symbol
 _atom_site_label
 _atom_site_symmetry_multiplicity
 _atom_site_fract_x
 _atom_site_fract_y
 _atom_site_fract_z
 _atom_site_occupancy
  Fe  Fe0  1  0.99590075  0.99508122  0.99579467  1
  Fe  Fe1  1  0.16427800  0.16353938  0.16382654  1
  Fe  Fe2  1  0.99660422  0.99426690  0.33207137  1
  Cr  Cr3  1  0.99627904  0.33215794  0.99551629  1
  Fe  Fe4  1  0.16195187  0.49698877  0.16478750  1
  Cr  Cr5  1  -0.00162792  0.33004160  0.33123426  1
  Fe  Fe6  1  0.99528064  0.66382714  0.99568283  1
  Cr  Cr7  1  0.15994535  0.83271887  0.16125093  1
  Fe  Fe8  1  0.99456756  0.66522113  0.33089177  1
  Fe  Fe9  1  0.33068810  -0.00224810  -0.00205666  1
  Fe  Fe10  1  0.49560091  0.16388200  0.16429622  1
  Cr  Cr11  1  0.33095304  0.99671374  0.33096473  1
  Cr  Cr12  1  0.32882932  0.33110169  -0.00122498  1
  Fe  Fe13  1  0.49871812  0.49631739  0.16580192  1
  Fe  Fe14  1  0.33205678  0.33001122  0.32927518  1
  Cr  Cr15  1  0.32927041  0.66427035  -0.00280594  1
  Fe  Fe16  1  0.49795837  0.83002086  0.16437654  1
  Cr  Cr17  1  0.33075872  0.66436832  0.32991717  1
  Cr  Cr18  1  0.66286342  0.99615897  0.99679543  1
  Cr  Cr19  1  0.83248330  0.16213407  0.16437305  1
  Cr  Cr20  1  0.66356198  0.99470076  0.33087103  1
  Cr  Cr21  1  0.66567549  0.32899107  0.99615494  1
  Fe  Fe22  1  0.83050459  0.49949636  0.16561699  1
  Fe  Fe23  1  0.66262027  0.33156508  0.32947676  1
  Cr  Cr24  1  0.66416584  0.66505467  -0.00116134  1
  Fe  Fe25  1  0.83049911  0.82815456  0.16515907  1
  Ni  Ni26  1  0.66527532  0.66417722  0.32985385  1
  Fe  Fe27  1  0.16426457  0.16324618  0.49797797  1
  Fe  Fe28  1  0.99648441  0.99483287  0.66259312  1
  Cr  Cr29  1  0.16350986  0.15964974  0.83196242  1
  Fe  Fe30  1  0.16271062  0.49711230  0.49690745  1
  Cr  Cr31  1  0.99601799  0.33106333  0.66434495  1
  Fe  Fe32  1  0.16248855  0.49881034  0.82941122  1
  Fe  Fe33  1  0.16142579  0.83076243  0.49697391  1
  Fe  Fe34  1  0.99510263  0.66524157  0.66326372  1
  Fe  Fe35  1  0.16058425  0.82959251  0.83042701  1
  Fe  Fe36  1  0.49722848  0.16327105  0.49839868  1
  Fe  Fe37  1  0.32966654  -0.00125782  0.66148042  1
  Fe  Fe38  1  0.49701616  0.16276371  0.82807529  1
  Cr  Cr39  1  0.49901234  0.49584843  0.49661378  1
  Fe  Fe40  1  0.32992731  0.32803228  0.66289454  1
  Cr  Cr41  1  0.49868439  0.49513442  0.82818090  1
  Fe  Fe42  1  0.49910608  0.83004038  0.49822274  1
  Cr  Cr43  1  0.32787285  0.66520192  0.66255341  1
  Cr  Cr44  1  0.49604992  0.83033701  0.82878512  1
  Fe  Fe45  1  0.82915368  0.16332396  0.49721975  1
  Fe  Fe46  1  0.66456608  -0.00244660  0.66252970  1
  Fe  Fe47  1  0.82861078  0.16147770  0.82845598  1
  Fe  Fe48  1  0.83004571  0.49886947  0.49610990  1
  Fe  Fe49  1  0.66402238  0.32828967  0.66329373  1
  Fe  Fe50  1  0.83110608  0.49940019  0.82892835  1
  Fe  Fe51  1  0.82999749  0.82829079  0.49706687  1
  Fe  Fe52  1  0.66705915  0.66418831  0.66184178  1
  Fe  Fe53  1  0.83266154  0.83024891  0.82878539  1
" 