1631,Ni2Fe57Cr40_4,-218.609155634275, 166.085326317782,Ni2Fe57Cr40,"# generated using pymatgen
 data_Cr22Fe31Ni
_symmetry_space_group_name_H-M   'P 1'
_cell_length_a   7.50736282
_cell_length_b   7.50736282
_cell_length_c   10.61701432
_cell_angle_alpha   90.00000000
_cell_angle_beta   90.00000000
_cell_angle_gamma   90.00000000
_symmetry_Int_Tables_number   1
_chemical_formula_structural   Cr22Fe31Ni
_chemical_formula_sum   'Cr22 Fe31 Ni1'
_cell_volume   598.38019866
_cell_formula_units_Z   1
loop_
 _symmetry_equiv_pos_site_id
 _symmetry_equiv_pos_as_xyz
  1  'x, y, z'
loop_
 _atom_site_type_symbol
 _atom_site_label
 _atom_site_symmetry_multiplicity
 _atom_site_fract_x
 _atom_site_fract_y
 _atom_site_fract_z
 _atom_site_occupancy
  Cr  Cr0  1  -0.00228281  -0.00248797  0.99383394  1
  Fe  Fe1  1  0.16525028  0.16278297  0.16670268  1
  Fe  Fe2  1  0.99712990  0.99631733  0.33055320  1
  Cr  Cr3  1  0.99684696  0.32865664  0.99609967  1
  Cr  Cr4  1  0.16680425  0.49536574  0.16329714  1
  Fe  Fe5  1  0.99625192  0.32901352  0.33081582  1
  Cr  Cr6  1  -0.00256712  0.66541214  -0.00120989  1
  Fe  Fe7  1  0.16394409  0.83444020  0.16460864  1
  Cr  Cr8  1  0.99644478  0.66380786  0.33029127  1
  Cr  Cr9  1  0.33156507  0.00035099  -0.00261823  1
  Fe  Fe10  1  0.49671620  0.16548259  0.16518544  1
  Fe  Fe11  1  0.33203410  -0.00169922  0.32978440  1
  Fe  Fe12  1  0.33304143  0.32941779  -0.00156198  1
  Fe  Fe13  1  0.49777713  0.49431671  0.16359842  1
  Fe  Fe14  1  0.33322545  0.32874343  0.32968532  1
  Fe  Fe15  1  0.33057004  0.66510379  -0.00088253  1
  Fe  Fe16  1  0.49840023  0.83268798  0.16387359  1
  Cr  Cr17  1  0.33119284  0.66645383  0.32944031  1
  Fe  Fe18  1  0.66468607  -0.00076680  0.99699243  1
  Cr  Cr19  1  0.82984045  0.16051560  0.16562169  1
  Fe  Fe20  1  0.66258154  0.99721316  0.33223632  1
  Fe  Fe21  1  0.66149584  0.32630523  0.99671047  1
  Cr  Cr22  1  0.82955744  0.49435915  0.16558098  1
  Fe  Fe23  1  0.66264521  0.32857720  0.33303371  1
  Cr  Cr24  1  0.66473900  0.66344063  -0.00062735  1
  Fe  Fe25  1  0.82964608  0.83280443  0.16505820  1
  Cr  Cr26  1  0.66461451  0.66317767  0.33386352  1
  Cr  Cr27  1  0.16157037  0.16315018  0.49507707  1
  Fe  Fe28  1  0.99553770  -0.00059229  0.66512538  1
  Fe  Fe29  1  0.16469515  0.16405331  0.82831712  1
  Cr  Cr30  1  0.16344069  0.49423933  0.49809956  1
  Fe  Fe31  1  0.99493411  0.32615425  0.66419337  1
  Cr  Cr32  1  0.16625138  0.49552972  0.83011899  1
  Fe  Fe33  1  0.16289131  0.83259020  0.49601168  1
  Cr  Cr34  1  0.99563507  0.66512739  0.66286333  1
  Fe  Fe35  1  0.16346103  0.83137324  0.82993883  1
  Fe  Fe36  1  0.49883774  0.16509549  0.49598543  1
  Cr  Cr37  1  0.32967464  -0.00012968  0.66271615  1
  Fe  Fe38  1  0.49871659  0.16732208  0.83064063  1
  Cr  Cr39  1  0.49805663  0.49739244  0.50085929  1
  Fe  Fe40  1  0.33333988  0.32772021  0.66442982  1
  Cr  Cr41  1  0.49668354  0.49709291  0.83116917  1
  Fe  Fe42  1  0.49764910  0.83409233  0.49674059  1
  Cr  Cr43  1  0.32965562  0.66707176  0.66297143  1
  Cr  Cr44  1  0.49930041  0.83100083  0.83071630  1
  Fe  Fe45  1  0.82898743  0.16590833  0.49638068  1
  Cr  Cr46  1  0.66330294  0.00050115  0.66408050  1
  Fe  Fe47  1  0.82846946  0.16389374  0.82937846  1
  Fe  Fe48  1  0.83037149  0.49314369  0.49893656  1
  Ni  Ni49  1  0.66568840  0.32856465  0.66290558  1
  Cr  Cr50  1  0.82886301  0.49578371  0.82800494  1
  Fe  Fe51  1  0.83100665  0.83337219  0.49753186  1
  Fe  Fe52  1  0.66492768  0.66387963  0.66224057  1
  Fe  Fe53  1  0.83090867  0.83188420  0.82960707  1
" 