6042,Ni2Fe57Cr40_19,-219.183671954933, 165.345981072279,Ni2Fe57Cr40,"# generated using pymatgen
 data_Cr22Fe31Ni
_symmetry_space_group_name_H-M   'P 1'
_cell_length_a   7.52808127
_cell_length_b   7.52808127
_cell_length_c   10.64631464
_cell_angle_alpha   90.00000000
_cell_angle_beta   90.00000000
_cell_angle_gamma   90.00000000
_symmetry_Int_Tables_number   1
_chemical_formula_structural   Cr22Fe31Ni
_chemical_formula_sum   'Cr22 Fe31 Ni1'
_cell_volume   603.34802457
_cell_formula_units_Z   1
loop_
 _symmetry_equiv_pos_site_id
 _symmetry_equiv_pos_as_xyz
  1  'x, y, z'
loop_
 _atom_site_type_symbol
 _atom_site_label
 _atom_site_symmetry_multiplicity
 _atom_site_fract_x
 _atom_site_fract_y
 _atom_site_fract_z
 _atom_site_occupancy
  Fe  Fe0  1  -0.00318189  0.99594324  -0.00211110  1
  Fe  Fe1  1  0.16378754  0.16167655  0.16262814  1
  Cr  Cr2  1  0.99537213  0.99498303  0.32912207  1
  Fe  Fe3  1  0.99429150  0.32975130  -0.00268230  1
  Fe  Fe4  1  0.16132087  0.49654082  0.16199284  1
  Cr  Cr5  1  -0.00305966  0.33198845  0.32952725  1
  Fe  Fe6  1  -0.00358993  0.66214835  -0.00279015  1
  Fe  Fe7  1  0.16226020  0.82962559  0.16214656  1
  Fe  Fe8  1  0.99589995  0.66281674  0.32895731  1
  Fe  Fe9  1  0.32895444  0.99535808  -0.00304663  1
  Fe  Fe10  1  0.49502815  0.16262075  0.16354984  1
  Ni  Ni11  1  0.32995688  -0.00103562  0.32730809  1
  Cr  Cr12  1  0.32779143  0.32777438  -0.00328500  1
  Cr  Cr13  1  0.49700274  0.49392629  0.16394352  1
  Fe  Fe14  1  0.32984779  0.32682357  0.32871254  1
  Fe  Fe15  1  0.32803415  0.66407815  -0.00351453  1
  Cr  Cr16  1  0.49351972  0.82958716  0.16208633  1
  Cr  Cr17  1  0.32641089  0.66180899  0.32861634  1
  Cr  Cr18  1  0.66087686  -0.00348175  -0.00352029  1
  Fe  Fe19  1  0.82902070  0.16357312  0.16153457  1
  Cr  Cr20  1  0.66141071  -0.00288792  0.32967352  1
  Fe  Fe21  1  0.66398831  0.32881885  -0.00360454  1
  Fe  Fe22  1  0.83053709  0.49560658  0.16214690  1
  Fe  Fe23  1  0.66208123  0.32778753  0.32928235  1
  Cr  Cr24  1  0.66376960  0.66295759  0.99420536  1
  Fe  Fe25  1  0.83146858  0.82866733  0.16199942  1
  Cr  Cr26  1  0.66617263  0.66336728  0.33004872  1
  Cr  Cr27  1  0.16305355  0.16192710  0.49707939  1
  Fe  Fe28  1  0.99498081  -0.00404925  0.66158987  1
  Cr  Cr29  1  0.16131914  0.16029965  0.82909432  1
  Fe  Fe30  1  0.16273333  0.49605452  0.49609608  1
  Cr  Cr31  1  -0.00351815  0.33022503  0.66250078  1
  Cr  Cr32  1  0.16347016  0.49637368  0.82949888  1
  Cr  Cr33  1  0.16125932  0.83018172  0.49578542  1
  Cr  Cr34  1  0.99481723  0.66093129  0.65961654  1
  Cr  Cr35  1  0.16413579  0.83116169  0.83070892  1
  Fe  Fe36  1  0.49580001  0.16249339  0.49593046  1
  Fe  Fe37  1  0.33040537  -0.00358851  0.66254013  1
  Fe  Fe38  1  0.49581240  0.16158077  0.82835609  1
  Cr  Cr39  1  0.49636390  0.49393963  0.49570889  1
  Fe  Fe40  1  0.33053546  0.32898698  0.66230226  1
  Cr  Cr41  1  0.49778071  0.49687930  0.82818170  1
  Cr  Cr42  1  0.49635814  0.82918101  0.49793837  1
  Fe  Fe43  1  0.33008266  0.66243923  0.66252647  1
  Fe  Fe44  1  0.49487600  0.83031155  0.82834524  1
  Fe  Fe45  1  0.82732995  0.16251250  0.49702578  1
  Fe  Fe46  1  0.66245123  -0.00359512  0.66218290  1
  Cr  Cr47  1  0.82991594  0.16379085  0.82965055  1
  Fe  Fe48  1  0.82940358  0.49606190  0.49592739  1
  Fe  Fe49  1  0.66227599  0.32895188  0.66216264  1
  Fe  Fe50  1  0.82905186  0.49547492  0.82975434  1
  Fe  Fe51  1  0.82928464  0.82927094  0.49702803  1
  Fe  Fe52  1  0.66272769  0.66248270  0.66261939  1
  Cr  Cr53  1  0.82941907  0.82999462  0.82802041  1
" 