7630,Ni2Fe50Cr47_11,-217.321205532363, 174.469546329223,Ni2Fe50Cr47,"# generated using pymatgen
 data_Cr26Fe27Ni
_symmetry_space_group_name_H-M   'P 1'
_cell_length_a   7.53104394
_cell_length_b   7.53104394
_cell_length_c   10.65050448
_cell_angle_alpha   90.00000000
_cell_angle_beta   90.00000000
_cell_angle_gamma   90.00000000
_symmetry_Int_Tables_number   1
_chemical_formula_structural   Cr26Fe27Ni
_chemical_formula_sum   'Cr26 Fe27 Ni1'
_cell_volume   604.06064615
_cell_formula_units_Z   1
loop_
 _symmetry_equiv_pos_site_id
 _symmetry_equiv_pos_as_xyz
  1  'x, y, z'
loop_
 _atom_site_type_symbol
 _atom_site_label
 _atom_site_symmetry_multiplicity
 _atom_site_fract_x
 _atom_site_fract_y
 _atom_site_fract_z
 _atom_site_occupancy
  Fe  Fe0  1  0.99477783  -0.00198412  -0.00404792  1
  Fe  Fe1  1  0.15961422  0.16349654  0.16254077  1
  Cr  Cr2  1  0.99489935  -0.00290195  0.32840225  1
  Fe  Fe3  1  0.99418792  0.32673330  -0.00319673  1
  Cr  Cr4  1  0.16038910  0.49616276  0.16418527  1
  Fe  Fe5  1  -0.00398069  0.32877127  0.32830525  1
  Fe  Fe6  1  0.99510607  0.66265163  -0.00404094  1
  Cr  Cr7  1  0.16211952  0.82784812  0.16109462  1
  Fe  Fe8  1  -0.00405063  0.66210876  0.33002773  1
  Cr  Cr9  1  0.32683667  0.99524822  -0.00248179  1
  Cr  Cr10  1  0.49678754  0.16176623  0.16376803  1
  Cr  Cr11  1  0.32923568  0.99384864  0.32632501  1
  Cr  Cr12  1  0.32814275  0.32861451  0.99541230  1
  Cr  Cr13  1  0.49655434  0.49690213  0.16130975  1
  Fe  Fe14  1  0.32807255  0.33012152  0.32943245  1
  Fe  Fe15  1  0.32962600  0.66263956  -0.00394017  1
  Fe  Fe16  1  0.49688421  0.82790791  0.16265758  1
  Fe  Fe17  1  0.32963765  0.66182394  0.33057301  1
  Cr  Cr18  1  0.66393965  -0.00412719  -0.00327892  1
  Ni  Ni19  1  0.83026021  0.16356005  0.16234443  1
  Fe  Fe20  1  0.66326856  0.99495874  0.32899525  1
  Fe  Fe21  1  0.66466943  0.32834613  -0.00311970  1
  Fe  Fe22  1  0.82962742  0.49455653  0.16179906  1
  Cr  Cr23  1  0.66415351  0.32953338  0.32747344  1
  Fe  Fe24  1  0.66245892  0.66219900  -0.00373686  1
  Cr  Cr25  1  0.82900971  0.82802690  0.16243496  1
  Fe  Fe26  1  0.66169894  0.66426896  0.32962291  1
  Cr  Cr27  1  0.16390608  0.16356469  0.49590052  1
  Cr  Cr28  1  0.99466507  -0.00424556  0.66399175  1
  Fe  Fe29  1  0.16180546  0.16253045  0.82907235  1
  Fe  Fe30  1  0.16391303  0.49595006  0.49411585  1
  Cr  Cr31  1  0.99573493  0.32784371  0.66242850  1
  Cr  Cr32  1  0.16151876  0.49591440  0.82855227  1
  Fe  Fe33  1  0.16276188  0.82837653  0.49488893  1
  Cr  Cr34  1  0.99573248  0.66385252  0.66067998  1
  Cr  Cr35  1  0.16058518  0.82969886  0.83045983  1
  Cr  Cr36  1  0.49645993  0.16141289  0.49777957  1
  Fe  Fe37  1  0.32903806  0.99559001  0.66199201  1
  Cr  Cr38  1  0.49553973  0.16210583  0.82557900  1
  Fe  Fe39  1  0.49431058  0.49597046  0.49454899  1
  Fe  Fe40  1  0.32825494  0.32915142  0.66203583  1
  Cr  Cr41  1  0.49614694  0.49456120  0.82974424  1
  Fe  Fe42  1  0.49625513  0.82890120  0.49509927  1
  Cr  Cr43  1  0.32946261  0.66202011  0.66037085  1
  Cr  Cr44  1  0.49624466  0.83036823  0.82991300  1
  Fe  Fe45  1  0.82868301  0.16128113  0.49476771  1
  Fe  Fe46  1  0.66346097  0.99481567  0.66199883  1
  Fe  Fe47  1  0.82999802  0.16157691  0.83080466  1
  Cr  Cr48  1  0.83087072  0.49707019  0.49299368  1
  Cr  Cr49  1  0.66269264  0.32897964  0.66360591  1
  Cr  Cr50  1  0.82956595  0.49660424  0.83349166  1
  Fe  Fe51  1  0.82808967  0.83068681  0.49459180  1
  Cr  Cr52  1  0.66210903  0.66318430  0.66208885  1
  Fe  Fe53  1  0.82883099  0.82971553  0.83020597  1
" 