4097,Ni2Fe50Cr47_5,-217.32558057593, 169.125974819666,Ni2Fe50Cr47,"# generated using pymatgen
 data_Cr26Fe27Ni
_symmetry_space_group_name_H-M   'P 1'
_cell_length_a   7.52722632
_cell_length_b   7.52722632
_cell_length_c   10.64510555
_cell_angle_alpha   90.00000000
_cell_angle_beta   90.00000000
_cell_angle_gamma   90.00000000
_symmetry_Int_Tables_number   1
_chemical_formula_structural   Cr26Fe27Ni
_chemical_formula_sum   'Cr26 Fe27 Ni1'
_cell_volume   603.14248469
_cell_formula_units_Z   1
loop_
 _symmetry_equiv_pos_site_id
 _symmetry_equiv_pos_as_xyz
  1  'x, y, z'
loop_
 _atom_site_type_symbol
 _atom_site_label
 _atom_site_symmetry_multiplicity
 _atom_site_fract_x
 _atom_site_fract_y
 _atom_site_fract_z
 _atom_site_occupancy
  Cr  Cr0  1  0.99577240  -0.00079698  0.99490892  1
  Fe  Fe1  1  0.16342603  0.16245993  0.16184716  1
  Cr  Cr2  1  -0.00384914  -0.00000714  0.33022210  1
  Fe  Fe3  1  0.99318054  0.33134955  0.99521896  1
  Cr  Cr4  1  0.16370147  0.49342242  0.16138356  1
  Cr  Cr5  1  0.99504094  0.32782632  0.32762116  1
  Fe  Fe6  1  -0.00327384  0.65995256  0.99394573  1
  Cr  Cr7  1  0.16238535  0.82820838  0.15904797  1
  Cr  Cr8  1  0.99512153  0.66018549  0.32825912  1
  Cr  Cr9  1  0.32926508  -0.00314013  0.99290955  1
  Fe  Fe10  1  0.49689321  0.16555451  0.16373747  1
  Cr  Cr11  1  0.32925528  -0.00170115  0.33026197  1
  Cr  Cr12  1  0.32970740  0.32885744  -0.00374180  1
  Fe  Fe13  1  0.49799265  0.49359106  0.16250110  1
  Fe  Fe14  1  0.33192624  0.32849983  0.32896755  1
  Fe  Fe15  1  0.32769394  0.66078942  0.99361583  1
  Cr  Cr16  1  0.49704277  0.83069148  0.16216149  1
  Cr  Cr17  1  0.33151697  0.66108704  0.32967273  1
  Cr  Cr18  1  0.66299173  -0.00008924  0.99560936  1
  Fe  Fe19  1  0.82759504  0.16564576  0.16220102  1
  Fe  Fe20  1  0.66184278  0.00011569  0.33059686  1
  Fe  Fe21  1  0.66483914  0.32827196  -0.00359623  1
  Fe  Fe22  1  0.82756088  0.49355998  0.16167406  1
  Fe  Fe23  1  0.66092049  0.32715467  0.32925071  1
  Cr  Cr24  1  0.66449520  0.65870893  0.99572093  1
  Cr  Cr25  1  0.82839729  0.83098326  0.16533636  1
  Cr  Cr26  1  0.66119402  0.65941963  0.33207588  1
  Fe  Fe27  1  0.16212230  0.16384376  0.49841311  1
  Fe  Fe28  1  0.99563492  -0.00197147  0.66259288  1
  Cr  Cr29  1  0.16214359  0.16573552  0.82724950  1
  Cr  Cr30  1  0.16458880  0.49127998  0.49675558  1
  Fe  Fe31  1  0.99559200  0.32906358  0.66368721  1
  Ni  Ni32  1  0.16013382  0.49433268  0.82921004  1
  Cr  Cr33  1  0.16025740  0.82917505  0.49731007  1
  Fe  Fe34  1  -0.00349586  0.66106114  0.66438178  1
  Fe  Fe35  1  0.16157607  0.82570913  0.82929064  1
  Fe  Fe36  1  0.49667568  0.16579199  0.49598324  1
  Cr  Cr37  1  0.32921074  -0.00290355  0.66428707  1
  Fe  Fe38  1  0.49742231  0.16556522  0.82851170  1
  Fe  Fe39  1  0.49680804  0.49281512  0.49805096  1
  Fe  Fe40  1  0.33020331  0.32890068  0.66291138  1
  Cr  Cr41  1  0.49570494  0.49272758  0.82869777  1
  Fe  Fe42  1  0.49580585  0.82969508  0.49694026  1
  Cr  Cr43  1  0.33006023  0.66148287  0.66369240  1
  Cr  Cr44  1  0.49742966  0.82974996  0.83089276  1
  Fe  Fe45  1  0.82915750  0.16487511  0.49727343  1
  Cr  Cr46  1  0.66230165  -0.00154193  0.66269330  1
  Fe  Fe47  1  0.82896375  0.16775197  0.82830154  1
  Cr  Cr48  1  0.82931042  0.49496270  0.49915270  1
  Fe  Fe49  1  0.66185326  0.32909067  0.66284196  1
  Fe  Fe50  1  0.83182494  0.49357346  0.82771854  1
  Cr  Cr51  1  0.82737889  0.83136505  0.49586826  1
  Fe  Fe52  1  0.66245968  0.66148240  0.66271523  1
  Cr  Cr53  1  0.83038097  0.82992583  0.82730742  1
" 