4809,Ni2Fe66Cr31_6,-220.398527120017, 157.219370726224,Ni2Fe66Cr31,"# generated using pymatgen
 data_Cr18Fe35Ni
_symmetry_space_group_name_H-M   'P 1'
_cell_length_a   7.50660702
_cell_length_b   7.50660702
_cell_length_c   10.61594546
_cell_angle_alpha   90.00000000
_cell_angle_beta   90.00000000
_cell_angle_gamma   90.00000000
_symmetry_Int_Tables_number   1
_chemical_formula_structural   Cr18Fe35Ni
_chemical_formula_sum   'Cr18 Fe35 Ni1'
_cell_volume   598.19949256
_cell_formula_units_Z   1
loop_
 _symmetry_equiv_pos_site_id
 _symmetry_equiv_pos_as_xyz
  1  'x, y, z'
loop_
 _atom_site_type_symbol
 _atom_site_label
 _atom_site_symmetry_multiplicity
 _atom_site_fract_x
 _atom_site_fract_y
 _atom_site_fract_z
 _atom_site_occupancy
  Fe  Fe0  1  0.99683300  0.99601251  0.99444024  1
  Cr  Cr1  1  0.16280876  0.16594788  0.16236990  1
  Cr  Cr2  1  -0.00036339  0.99276167  0.33057638  1
  Fe  Fe3  1  -0.00083776  0.33159411  0.99485919  1
  Fe  Fe4  1  0.16341416  0.49814925  0.16579583  1
  Fe  Fe5  1  -0.00248934  0.33274657  0.32979100  1
  Cr  Cr6  1  -0.00216414  0.66475768  0.99649931  1
  Fe  Fe7  1  0.16269310  0.82953689  0.16420123  1
  Fe  Fe8  1  0.99651687  0.66285547  0.32944693  1
  Cr  Cr9  1  0.32935891  0.99498436  0.99692977  1
  Fe  Fe10  1  0.49736108  0.16373470  0.16378580  1
  Cr  Cr11  1  0.33152215  0.99494965  0.33174502  1
  Fe  Fe12  1  0.32940940  0.33225819  0.99734143  1
  Fe  Fe13  1  0.49679338  0.49767546  0.16489455  1
  Fe  Fe14  1  0.33097008  0.33149003  0.32902878  1
  Cr  Cr15  1  0.33017012  0.66594103  -0.00087747  1
  Fe  Fe16  1  0.50007125  0.83068539  0.16489913  1
  Fe  Fe17  1  0.33090175  0.66399145  0.32848718  1
  Fe  Fe18  1  0.66450916  0.99376662  0.99679603  1
  Cr  Cr19  1  0.83181508  0.16038611  0.16239237  1
  Fe  Fe20  1  0.66314387  0.99451813  0.33027303  1
  Cr  Cr21  1  0.66519242  0.33258879  0.99713348  1
  Fe  Fe22  1  0.83186340  0.49870512  0.16482942  1
  Cr  Cr23  1  0.66385605  0.33173266  0.33206592  1
  Fe  Fe24  1  0.66419825  0.66657856  -0.00181304  1
  Fe  Fe25  1  0.82944603  0.82865382  0.16389283  1
  Fe  Fe26  1  0.66446073  0.66689223  0.33004699  1
  Cr  Cr27  1  0.16429585  0.16539483  0.49819479  1
  Cr  Cr28  1  -0.00020944  0.99503515  0.66567664  1
  Fe  Fe29  1  0.16386580  0.16387946  0.83184255  1
  Cr  Cr30  1  0.16433794  0.49919339  0.49678392  1
  Cr  Cr31  1  0.99446440  0.33261946  0.66631230  1
  Fe  Fe32  1  0.16412917  0.49853532  0.83022614  1
  Fe  Fe33  1  0.16501725  0.82827412  0.49939963  1
  Fe  Fe34  1  0.99676245  0.66440456  0.66547451  1
  Ni  Ni35  1  0.16282248  0.82985857  0.82927754  1
  Fe  Fe36  1  0.49646254  0.16243089  0.49872739  1
  Fe  Fe37  1  0.33192579  0.99527454  0.66441053  1
  Cr  Cr38  1  0.49757776  0.16383509  0.82964332  1
  Cr  Cr39  1  0.49548966  0.50056203  0.49871472  1
  Fe  Fe40  1  0.32918025  0.33016125  0.66477159  1
  Cr  Cr41  1  0.49616172  0.50073049  0.83032991  1
  Fe  Fe42  1  0.49817588  0.83142091  0.49862220  1
  Fe  Fe43  1  0.32846661  0.66714622  0.66543741  1
  Fe  Fe44  1  0.49709687  0.83091573  0.82931297  1
  Cr  Cr45  1  0.83107011  0.16019634  0.49588808  1
  Fe  Fe46  1  0.66382222  0.99474388  0.66376008  1
  Fe  Fe47  1  0.83203691  0.16151523  0.83248757  1
  Fe  Fe48  1  0.83188238  0.50097287  0.49659287  1
  Cr  Cr49  1  0.66504933  0.33192166  0.66221019  1
  Fe  Fe50  1  0.83138825  0.50034605  0.83114410  1
  Fe  Fe51  1  0.82964743  0.82691312  0.49763707  1
  Fe  Fe52  1  0.66638634  0.66709492  0.66409317  1
  Fe  Fe53  1  0.82895111  0.83044104  0.83090903  1
" 