74,Ni2Fe46Cr50_18,-216.256572336415, 180.269960856948,Ni2Fe46Cr50,"# generated using pymatgen
 data_Cr28Fe25Ni
_symmetry_space_group_name_H-M   'P 1'
_cell_length_a   7.52789837
_cell_length_b   7.52789837
_cell_length_c   10.64605597
_cell_angle_alpha   90.00000000
_cell_angle_beta   90.00000000
_cell_angle_gamma   90.00000000
_symmetry_Int_Tables_number   1
_chemical_formula_structural   Cr28Fe25Ni
_chemical_formula_sum   'Cr28 Fe25 Ni1'
_cell_volume   603.30404797
_cell_formula_units_Z   1
loop_
 _symmetry_equiv_pos_site_id
 _symmetry_equiv_pos_as_xyz
  1  'x, y, z'
loop_
 _atom_site_type_symbol
 _atom_site_label
 _atom_site_symmetry_multiplicity
 _atom_site_fract_x
 _atom_site_fract_y
 _atom_site_fract_z
 _atom_site_occupancy
  Cr  Cr0  1  0.99510762  0.99378913  -0.00358751  1
  Fe  Fe1  1  0.16210615  0.16205630  0.16455748  1
  Cr  Cr2  1  0.99484107  0.99216636  0.33025510  1
  Fe  Fe3  1  -0.00184594  0.32816153  0.99525340  1
  Cr  Cr4  1  0.16098413  0.49572366  0.16251192  1
  Fe  Fe5  1  -0.00322326  0.32717184  0.32866858  1
  Fe  Fe6  1  -0.00283031  0.66072640  0.99582048  1
  Fe  Fe7  1  0.16110025  0.82825899  0.16405473  1
  Fe  Fe8  1  -0.00401889  0.66149833  0.32981289  1
  Cr  Cr9  1  0.32683247  -0.00114061  -0.00093580  1
  Fe  Fe10  1  0.49725083  0.16244214  0.16518847  1
  Fe  Fe11  1  0.33159922  -0.00266697  0.32797379  1
  Cr  Cr12  1  0.33075331  0.32973560  -0.00391182  1
  Fe  Fe13  1  0.49716578  0.49712944  0.16528683  1
  Cr  Cr14  1  0.33222677  0.33043402  0.32782605  1
  Cr  Cr15  1  0.32955835  0.66001429  0.99582438  1
  Cr  Cr16  1  0.49356191  0.83096237  0.16219635  1
  Fe  Fe17  1  0.33006485  0.66435657  0.32728746  1
  Fe  Fe18  1  0.65958833  -0.00298891  0.99554138  1
  Cr  Cr19  1  0.82926563  0.16371742  0.16057724  1
  Ni  Ni20  1  0.66224386  -0.00386875  0.32932859  1
  Cr  Cr21  1  0.65881700  0.32971304  -0.00240273  1
  Cr  Cr22  1  0.82987070  0.49398883  0.16361099  1
  Fe  Fe23  1  0.66265685  0.32685869  0.32830934  1
  Cr  Cr24  1  0.66248799  0.66091254  0.99515842  1
  Cr  Cr25  1  0.82699722  0.82810454  0.16170435  1
  Fe  Fe26  1  0.66196505  0.66487543  0.32862695  1
  Cr  Cr27  1  0.16315813  0.16457956  0.49610385  1
  Cr  Cr28  1  0.99486784  0.99396810  0.66095291  1
  Fe  Fe29  1  0.16008369  0.16457945  0.82934434  1
  Fe  Fe30  1  0.16333781  0.49635693  0.49412087  1
  Fe  Fe31  1  -0.00380365  0.32915895  0.66356165  1
  Fe  Fe32  1  0.16184876  0.49577562  0.82917095  1
  Cr  Cr33  1  0.16818331  0.82844439  0.49324720  1
  Cr  Cr34  1  0.99573767  0.66323387  0.65906627  1
  Cr  Cr35  1  0.16639175  0.82927708  0.83065539  1
  Fe  Fe36  1  0.49674905  0.16278115  0.49385100  1
  Cr  Cr37  1  0.32940622  -0.00023011  0.66294123  1
  Fe  Fe38  1  0.49658200  0.16109227  0.83032145  1
  Cr  Cr39  1  0.49628173  0.49952766  0.49458459  1
  Cr  Cr40  1  0.32947334  0.33250391  0.66409567  1
  Fe  Fe41  1  0.49577417  0.49842335  0.82804514  1
  Cr  Cr42  1  0.49644445  0.83068324  0.49804816  1
  Fe  Fe43  1  0.33035055  0.66302822  0.66430031  1
  Fe  Fe44  1  0.49591909  0.82952892  0.82944244  1
  Cr  Cr45  1  0.82911173  0.16442706  0.49650660  1
  Cr  Cr46  1  0.66465561  0.99560941  0.66397359  1
  Fe  Fe47  1  0.82958594  0.16254056  0.83074480  1
  Cr  Cr48  1  0.82978783  0.49411961  0.49288498  1
  Cr  Cr49  1  0.65968781  0.32956834  0.66241051  1
  Cr  Cr50  1  0.83076212  0.49230768  0.83067518  1
  Fe  Fe51  1  0.82694334  0.82791925  0.49345445  1
  Fe  Fe52  1  0.66209081  0.66196396  0.66388996  1
  Cr  Cr53  1  0.82721107  0.82844845  0.83081832  1
" 