2545,Ni2Fe46Cr50_1,-216.529920776078, 178.222419256939,Ni2Fe46Cr50,"# generated using pymatgen
 data_Cr28Fe25Ni
_symmetry_space_group_name_H-M   'P 1'
_cell_length_a   7.53618787
_cell_length_b   7.53618787
_cell_length_c   10.65777910
_cell_angle_alpha   90.00000000
_cell_angle_beta   90.00000000
_cell_angle_gamma   90.00000000
_symmetry_Int_Tables_number   1
_chemical_formula_structural   Cr28Fe25Ni
_chemical_formula_sum   'Cr28 Fe25 Ni1'
_cell_volume   605.29926617
_cell_formula_units_Z   1
loop_
 _symmetry_equiv_pos_site_id
 _symmetry_equiv_pos_as_xyz
  1  'x, y, z'
loop_
 _atom_site_type_symbol
 _atom_site_label
 _atom_site_symmetry_multiplicity
 _atom_site_fract_x
 _atom_site_fract_y
 _atom_site_fract_z
 _atom_site_occupancy
  Cr  Cr0  1  -0.00208833  0.99296242  -0.00323486  1
  Cr  Cr1  1  0.16484591  0.16240757  0.16276602  1
  Fe  Fe2  1  -0.00437338  -0.00411611  0.32922172  1
  Cr  Cr3  1  0.99518018  0.33102690  0.99410999  1
  Cr  Cr4  1  0.16171219  0.49667970  0.16277557  1
  Fe  Fe5  1  -0.00382758  0.32882978  0.32954088  1
  Ni  Ni6  1  -0.00407871  0.66174306  -0.00346867  1
  Fe  Fe7  1  0.16162765  0.82848946  0.16249367  1
  Fe  Fe8  1  -0.00339329  0.66152398  0.32785290  1
  Fe  Fe9  1  0.32969082  -0.00456922  0.99485891  1
  Cr  Cr10  1  0.49416016  0.16243323  0.15914003  1
  Fe  Fe11  1  0.32854296  0.99496982  0.32929717  1
  Fe  Fe12  1  0.32910396  0.32930516  0.99442736  1
  Fe  Fe13  1  0.49506541  0.49482693  0.16254329  1
  Fe  Fe14  1  0.32799646  0.32974830  0.32972398  1
  Cr  Cr15  1  0.32776406  0.66259286  0.99456362  1
  Cr  Cr16  1  0.49496451  0.83027411  0.16296107  1
  Fe  Fe17  1  0.32846076  0.66152139  0.32909986  1
  Fe  Fe18  1  0.66081236  0.99486673  0.99442155  1
  Cr  Cr19  1  0.82723296  0.16161777  0.16404677  1
  Fe  Fe20  1  0.66207097  -0.00458497  0.32974458  1
  Cr  Cr21  1  0.66011187  0.33022504  -0.00418247  1
  Fe  Fe22  1  0.82954857  0.49621909  0.16216652  1
  Cr  Cr23  1  0.66203860  0.33014378  0.32760441  1
  Cr  Cr24  1  0.66332399  0.65987073  0.99537135  1
  Cr  Cr25  1  0.83037009  0.82712956  0.16166797  1
  Cr  Cr26  1  0.66005574  0.66054897  0.32824492  1
  Fe  Fe27  1  0.16053454  0.16341316  0.49408756  1
  Cr  Cr28  1  -0.00365092  -0.00175073  0.65972834  1
  Cr  Cr29  1  0.16476046  0.16487910  0.82926578  1
  Fe  Fe30  1  0.16297205  0.49452777  0.49443249  1
  Fe  Fe31  1  -0.00425471  0.32906205  0.66171486  1
  Fe  Fe32  1  0.16139258  0.49587614  0.82932300  1
  Cr  Cr33  1  0.16375381  0.82698706  0.49345628  1
  Cr  Cr34  1  -0.00301058  0.66011023  0.66475090  1
  Cr  Cr35  1  0.16308210  0.82577451  0.83081527  1
  Cr  Cr36  1  0.49537189  0.16151176  0.49367923  1
  Cr  Cr37  1  0.32842596  0.99392647  0.66294704  1
  Fe  Fe38  1  0.49495653  0.16140888  0.83010278  1
  Fe  Fe39  1  0.49320702  0.49695885  0.49497586  1
  Cr  Cr40  1  0.32744852  0.33070062  0.66250238  1
  Fe  Fe41  1  0.49451124  0.49537599  0.82871844  1
  Fe  Fe42  1  0.49463606  0.82774699  0.49441129  1
  Fe  Fe43  1  0.32978857  0.66130512  0.66215657  1
  Fe  Fe44  1  0.49496527  0.82945388  0.82929046  1
  Fe  Fe45  1  0.83060460  0.16198945  0.49451228  1
  Cr  Cr46  1  0.66146184  0.99509284  0.66166922  1
  Cr  Cr47  1  0.82665954  0.16293871  0.82687465  1
  Cr  Cr48  1  0.83085416  0.49399930  0.49600770  1
  Cr  Cr49  1  0.66296295  0.33005699  0.66280742  1
  Fe  Fe50  1  0.83032920  0.49588180  0.82910058  1
  Cr  Cr51  1  0.82744437  0.83039881  0.49453674  1
  Cr  Cr52  1  0.65864804  0.66108773  0.66262575  1
  Cr  Cr53  1  0.82751628  0.82689073  0.83003929  1
" 