8106,Ni2Fe41Cr55_5,-214.996753050137, 189.168632816728,Ni2Fe41Cr55,"# generated using pymatgen
 data_Cr31Fe22Ni
_symmetry_space_group_name_H-M   'P 1'
_cell_length_a   7.54563168
_cell_length_b   7.54563168
_cell_length_c   10.67113466
_cell_angle_alpha   90.00000000
_cell_angle_beta   90.00000000
_cell_angle_gamma   90.00000000
_symmetry_Int_Tables_number   1
_chemical_formula_structural   Cr31Fe22Ni
_chemical_formula_sum   'Cr31 Fe22 Ni1'
_cell_volume   607.57767228
_cell_formula_units_Z   1
loop_
 _symmetry_equiv_pos_site_id
 _symmetry_equiv_pos_as_xyz
  1  'x, y, z'
loop_
 _atom_site_type_symbol
 _atom_site_label
 _atom_site_symmetry_multiplicity
 _atom_site_fract_x
 _atom_site_fract_y
 _atom_site_fract_z
 _atom_site_occupancy
  Cr  Cr0  1  0.99356036  -0.00486920  0.99448855  1
  Cr  Cr1  1  0.16355583  0.16137920  0.16168635  1
  Cr  Cr2  1  -0.00474560  0.99368770  0.32829240  1
  Fe  Fe3  1  -0.00478473  0.32942845  0.99393022  1
  Fe  Fe4  1  0.16126135  0.49562739  0.16062870  1
  Cr  Cr5  1  0.99362341  0.33015564  0.32874654  1
  Cr  Cr6  1  -0.00310648  0.65928364  -0.00475479  1
  Fe  Fe7  1  0.16262869  0.82676046  0.16191973  1
  Fe  Fe8  1  -0.00483862  0.66094252  0.32762758  1
  Cr  Cr9  1  0.33075506  0.99318289  -0.00219737  1
  Fe  Fe10  1  0.49453527  0.16019637  0.16114792  1
  Fe  Fe11  1  0.32898916  0.99411228  0.32725200  1
  Fe  Fe12  1  0.32761313  0.32951695  0.99478830  1
  Cr  Cr13  1  0.49522116  0.49589694  0.16037867  1
  Cr  Cr14  1  0.32803523  0.32866416  0.32888816  1
  Fe  Fe15  1  0.32908648  0.66060226  -0.00435528  1
  Fe  Fe16  1  0.49495521  0.82816071  0.16045042  1
  Cr  Cr17  1  0.32665606  0.66396203  0.32749193  1
  Fe  Fe18  1  0.66070172  0.99372228  -0.00511538  1
  Cr  Cr19  1  0.82892444  0.16106680  0.16076593  1
  Cr  Cr20  1  0.65930192  -0.00493509  0.32729912  1
  Cr  Cr21  1  0.66232350  0.32631368  0.99343729  1
  Cr  Cr22  1  0.82709612  0.49755874  0.16233545  1
  Cr  Cr23  1  0.66272103  0.32698819  0.32926546  1
  Ni  Ni24  1  0.66011886  0.66148897  -0.00506352  1
  Cr  Cr25  1  0.82695681  0.82575011  0.16137082  1
  Fe  Fe26  1  0.66154655  0.66223771  0.32759236  1
  Cr  Cr27  1  0.16152734  0.16045554  0.49434435  1
  Fe  Fe28  1  0.99314970  -0.00509295  0.66146134  1
  Cr  Cr29  1  0.16121520  0.16280053  0.82835586  1
  Fe  Fe30  1  0.16058440  0.49568333  0.49479264  1
  Cr  Cr31  1  0.99282397  0.32904340  0.66219428  1
  Fe  Fe32  1  0.16060371  0.49497205  0.82896488  1
  Cr  Cr33  1  0.15997582  0.82983680  0.49520476  1
  Fe  Fe34  1  0.99448816  0.66091885  0.66195790  1
  Cr  Cr35  1  0.15956503  0.82862566  0.82696484  1
  Cr  Cr36  1  0.49307605  0.16136145  0.49433772  1
  Cr  Cr37  1  0.32982041  0.99268907  0.65968527  1
  Fe  Fe38  1  0.49604401  0.16081492  0.82844055  1
  Cr  Cr39  1  0.49625805  0.49609583  0.49479306  1
  Cr  Cr40  1  0.32803085  0.32987130  0.66186996  1
  Cr  Cr41  1  0.49528938  0.49493080  0.82921246  1
  Fe  Fe42  1  0.49566946  0.82810116  0.49488206  1
  Cr  Cr43  1  0.32665901  0.66182214  0.66146044  1
  Cr  Cr44  1  0.49786740  0.82679155  0.82817942  1
  Fe  Fe45  1  0.82813768  0.16057386  0.49556594  1
  Fe  Fe46  1  0.66223996  -0.00508046  0.66132510  1
  Fe  Fe47  1  0.82719188  0.16133151  0.82820414  1
  Cr  Cr48  1  0.82685717  0.49764339  0.49301227  1
  Cr  Cr49  1  0.66351818  0.32588892  0.66167369  1
  Fe  Fe50  1  0.82858930  0.49540344  0.82862087  1
  Cr  Cr51  1  0.82777125  0.82666103  0.49660609  1
  Fe  Fe52  1  0.66221288  0.66220663  0.66199983  1
  Cr  Cr53  1  0.82694998  0.82757667  0.82640092  1
" 