2449,Ni2Fe57Cr40_9,-218.754813107383, 164.802220414503,Ni2Fe57Cr40,"# generated using pymatgen
 data_Cr22Fe31Ni
_symmetry_space_group_name_H-M   'P 1'
_cell_length_a   7.51809363
_cell_length_b   7.51809363
_cell_length_c   10.63218998
_cell_angle_alpha   90.00000000
_cell_angle_beta   90.00000000
_cell_angle_gamma   90.00000000
_symmetry_Int_Tables_number   1
_chemical_formula_structural   Cr22Fe31Ni
_chemical_formula_sum   'Cr22 Fe31 Ni1'
_cell_volume   600.94979162
_cell_formula_units_Z   1
loop_
 _symmetry_equiv_pos_site_id
 _symmetry_equiv_pos_as_xyz
  1  'x, y, z'
loop_
 _atom_site_type_symbol
 _atom_site_label
 _atom_site_symmetry_multiplicity
 _atom_site_fract_x
 _atom_site_fract_y
 _atom_site_fract_z
 _atom_site_occupancy
  Fe  Fe0  1  -0.00274180  -0.00178268  0.99590219  1
  Ni  Ni1  1  0.16240742  0.16435337  0.15875994  1
  Cr  Cr2  1  0.99633652  -0.00044967  0.32877278  1
  Fe  Fe3  1  -0.00206103  0.32680094  -0.00200836  1
  Fe  Fe4  1  0.16237272  0.49512990  0.16195197  1
  Cr  Cr5  1  0.99513479  0.32921869  0.32859650  1
  Fe  Fe6  1  -0.00315493  0.66536667  0.99558807  1
  Cr  Cr7  1  0.16114551  0.83069234  0.16555395  1
  Fe  Fe8  1  -0.00134939  0.66311972  0.33029287  1
  Cr  Cr9  1  0.32927399  -0.00326866  -0.00301637  1
  Cr  Cr10  1  0.49618655  0.16350162  0.16303080  1
  Cr  Cr11  1  0.33124530  0.99463350  0.32833743  1
  Fe  Fe12  1  0.32815205  0.32812476  -0.00275725  1
  Cr  Cr13  1  0.49812049  0.49641503  0.16227934  1
  Cr  Cr14  1  0.32904233  0.33047250  0.32806485  1
  Cr  Cr15  1  0.33011574  0.66427616  -0.00212690  1
  Fe  Fe16  1  0.49783504  0.82900495  0.16434174  1
  Fe  Fe17  1  0.33057152  0.66349824  0.33032879  1
  Cr  Cr18  1  0.66367116  0.99619521  0.99516141  1
  Fe  Fe19  1  0.83099141  0.16385042  0.16173218  1
  Fe  Fe20  1  0.66262052  -0.00173947  0.33024932  1
  Fe  Fe21  1  0.66349159  0.32834503  0.99580592  1
  Cr  Cr22  1  0.82905104  0.49866077  0.16148042  1
  Fe  Fe23  1  0.66284563  0.32762986  0.33139107  1
  Fe  Fe24  1  0.66307291  0.66493495  0.99540926  1
  Cr  Cr25  1  0.82854575  0.82921672  0.16284444  1
  Fe  Fe26  1  0.66035131  0.66413738  0.33067840  1
  Cr  Cr27  1  0.16518135  0.16116954  0.50109625  1
  Fe  Fe28  1  0.99534769  -0.00226827  0.66506431  1
  Fe  Fe29  1  0.16260077  0.16257219  0.82965442  1
  Cr  Cr30  1  0.16523162  0.49750484  0.49734122  1
  Fe  Fe31  1  0.99622095  0.32756162  0.66423845  1
  Cr  Cr32  1  0.16396269  0.49357901  0.83032549  1
  Fe  Fe33  1  0.16530085  0.82976254  0.49681138  1
  Cr  Cr34  1  -0.00195837  0.66442328  0.66363350  1
  Fe  Fe35  1  0.16278917  0.83160722  0.82954129  1
  Fe  Fe36  1  0.49843396  0.16205028  0.49637200  1
  Fe  Fe37  1  0.33168452  0.99492280  0.66475418  1
  Fe  Fe38  1  0.49569138  0.16291325  0.82911585  1
  Fe  Fe39  1  0.49597124  0.49762669  0.49590108  1
  Fe  Fe40  1  0.33084131  0.32918573  0.66350129  1
  Cr  Cr41  1  0.49608542  0.49388043  0.83107861  1
  Fe  Fe42  1  0.49490108  0.82967782  0.49690257  1
  Fe  Fe43  1  0.33106450  0.66536424  0.66327853  1
  Fe  Fe44  1  0.49573890  0.83131915  0.82897798  1
  Fe  Fe45  1  0.82876606  0.16227321  0.49699057  1
  Fe  Fe46  1  0.66284701  -0.00336207  0.66445773  1
  Fe  Fe47  1  0.83155607  0.16288640  0.82968141  1
  Cr  Cr48  1  0.82884765  0.49744855  0.49506027  1
  Cr  Cr49  1  0.66413295  0.32791212  0.66075650  1
  Cr  Cr50  1  0.82983044  0.49784101  0.83325925  1
  Cr  Cr51  1  0.82964617  0.83197209  0.49526678  1
  Cr  Cr52  1  0.66138249  0.66427573  0.66628838  1
  Fe  Fe53  1  0.83130457  0.83223892  0.83068252  1
" 