5307,Ni2Fe50Cr47_9,-217.379023417059, 172.467671876663,Ni2Fe50Cr47,"# generated using pymatgen
 data_Cr26Fe27Ni
_symmetry_space_group_name_H-M   'P 1'
_cell_length_a   7.53412279
_cell_length_b   7.53412279
_cell_length_c   10.65485863
_cell_angle_alpha   90.00000000
_cell_angle_beta   90.00000000
_cell_angle_gamma   90.00000000
_symmetry_Int_Tables_number   1
_chemical_formula_structural   Cr26Fe27Ni
_chemical_formula_sum   'Cr26 Fe27 Ni1'
_cell_volume   604.80180733
_cell_formula_units_Z   1
loop_
 _symmetry_equiv_pos_site_id
 _symmetry_equiv_pos_as_xyz
  1  'x, y, z'
loop_
 _atom_site_type_symbol
 _atom_site_label
 _atom_site_symmetry_multiplicity
 _atom_site_fract_x
 _atom_site_fract_y
 _atom_site_fract_z
 _atom_site_occupancy
  Cr  Cr0  1  0.99499057  -0.00433886  0.99104157  1
  Cr  Cr1  1  0.16355069  0.16038441  0.16237951  1
  Fe  Fe2  1  0.99458608  0.99407451  0.33261380  1
  Cr  Cr3  1  0.99505399  0.32761414  0.99180821  1
  Cr  Cr4  1  0.16152378  0.49291943  0.16576095  1
  Fe  Fe5  1  0.99447883  0.33008180  0.33163060  1
  Cr  Cr6  1  0.99488260  0.66274965  0.99397755  1
  Cr  Cr7  1  0.16269022  0.83275745  0.16199898  1
  Cr  Cr8  1  0.99475731  0.66407767  0.33173966  1
  Fe  Fe9  1  0.32934071  -0.00381895  0.99184434  1
  Fe  Fe10  1  0.49650103  0.16162609  0.16495398  1
  Fe  Fe11  1  0.33153340  0.99493739  0.33050057  1
  Cr  Cr12  1  0.33071159  0.32703548  -0.00340307  1
  Fe  Fe13  1  0.49471486  0.49338407  0.16378832  1
  Fe  Fe14  1  0.33158950  0.32765103  0.33024519  1
  Cr  Cr15  1  0.32975633  0.66145840  -0.00310605  1
  Cr  Cr16  1  0.49554804  0.82997907  0.15956014  1
  Cr  Cr17  1  0.32858067  0.66206831  0.33234570  1
  Cr  Cr18  1  0.66178912  -0.00341862  0.99342597  1
  Cr  Cr19  1  0.83094184  0.16152191  0.16797937  1
  Fe  Fe20  1  0.66146262  0.99498402  0.33174806  1
  Cr  Cr21  1  0.66126849  0.32844195  -0.00404618  1
  Cr  Cr22  1  0.82664211  0.49511884  0.15932086  1
  Fe  Fe23  1  0.66069762  0.32887356  0.33024050  1
  Fe  Fe24  1  0.66233946  0.66246305  0.99349295  1
  Cr  Cr25  1  0.82834523  0.83039180  0.16132133  1
  Cr  Cr26  1  0.66161588  0.66329298  0.32560481  1
  Cr  Cr27  1  0.16261490  0.16214312  0.49286068  1
  Cr  Cr28  1  0.99351838  0.99470257  0.66303824  1
  Fe  Fe29  1  0.16434302  0.16073772  0.82803726  1
  Fe  Fe30  1  0.16055897  0.49684176  0.49733949  1
  Cr  Cr31  1  0.99375399  0.32794551  0.66348385  1
  Cr  Cr32  1  0.16293665  0.49544713  0.82475455  1
  Fe  Fe33  1  0.16095851  0.82880463  0.49719666  1
  Fe  Fe34  1  0.99509993  0.66461614  0.66100382  1
  Fe  Fe35  1  0.16381699  0.82780007  0.82784240  1
  Fe  Fe36  1  0.49925791  0.16008314  0.49505413  1
  Cr  Cr37  1  0.33188168  0.99400334  0.66373191  1
  Fe  Fe38  1  0.49635741  0.16199529  0.82783292  1
  Cr  Cr39  1  0.49555329  0.49590239  0.49827772  1
  Cr  Cr40  1  0.33037788  0.32792103  0.66065570  1
  Cr  Cr41  1  0.49835380  0.49759201  0.82703132  1
  Fe  Fe42  1  0.49814638  0.83028986  0.49638064  1
  Fe  Fe43  1  0.32818610  0.66443173  0.66067192  1
  Fe  Fe44  1  0.49616961  0.82874228  0.82857135  1
  Fe  Fe45  1  0.82667370  0.16089832  0.49441423  1
  Fe  Fe46  1  0.66268028  -0.00391706  0.66200929  1
  Fe  Fe47  1  0.82553535  0.16258448  0.82685033  1
  Cr  Cr48  1  0.82690971  0.49622430  0.49916357  1
  Fe  Fe49  1  0.66242720  0.32535145  0.66318803  1
  Fe  Fe50  1  0.82770735  0.49736787  0.82656142  1
  Ni  Ni51  1  0.82668422  0.83150577  0.49699501  1
  Fe  Fe52  1  0.66277934  0.66696257  0.66196122  1
  Fe  Fe53  1  0.82644787  0.82633501  0.82594772  1
" 