3883,Ni2Fe50Cr47_3,-217.287379563258, 174.01095095195,Ni2Fe50Cr47,"# generated using pymatgen
 data_Cr26Fe27Ni
_symmetry_space_group_name_H-M   'P 1'
_cell_length_a   7.52758737
_cell_length_b   7.52758737
_cell_length_c   10.64561615
_cell_angle_alpha   90.00000000
_cell_angle_beta   90.00000000
_cell_angle_gamma   90.00000000
_symmetry_Int_Tables_number   1
_chemical_formula_structural   Cr26Fe27Ni
_chemical_formula_sum   'Cr26 Fe27 Ni1'
_cell_volume   603.22927838
_cell_formula_units_Z   1
loop_
 _symmetry_equiv_pos_site_id
 _symmetry_equiv_pos_as_xyz
  1  'x, y, z'
loop_
 _atom_site_type_symbol
 _atom_site_label
 _atom_site_symmetry_multiplicity
 _atom_site_fract_x
 _atom_site_fract_y
 _atom_site_fract_z
 _atom_site_occupancy
  Fe  Fe0  1  -0.00380917  0.99254218  -0.00331161  1
  Cr  Cr1  1  0.16118140  0.15610652  0.16157189  1
  Fe  Fe2  1  0.99531596  0.99435317  0.32866798  1
  Cr  Cr3  1  -0.00344022  0.32863343  -0.00324189  1
  Fe  Fe4  1  0.16018451  0.49863179  0.16203588  1
  Cr  Cr5  1  -0.00140698  0.32948399  0.32995439  1
  Ni  Ni6  1  0.99488842  0.66471549  -0.00321965  1
  Fe  Fe7  1  0.15857745  0.82796311  0.16219261  1
  Fe  Fe8  1  0.99455002  0.66340291  0.32822460  1
  Fe  Fe9  1  0.32811974  0.99535312  -0.00396157  1
  Fe  Fe10  1  0.49688835  0.16114398  0.16250601  1
  Fe  Fe11  1  0.32985243  -0.00262255  0.33005115  1
  Cr  Cr12  1  0.32727093  0.32887024  -0.00138157  1
  Cr  Cr13  1  0.49804354  0.49435398  0.16053878  1
  Cr  Cr14  1  0.32625952  0.32945734  0.32956232  1
  Cr  Cr15  1  0.32831932  0.66357557  -0.00200406  1
  Cr  Cr16  1  0.49393799  0.83032638  0.16463894  1
  Cr  Cr17  1  0.32845413  0.66184560  0.32677850  1
  Cr  Cr18  1  0.66359287  0.99531349  -0.00300322  1
  Fe  Fe19  1  0.82820083  0.15983559  0.16279738  1
  Fe  Fe20  1  0.66241249  0.99418328  0.32922255  1
  Fe  Fe21  1  0.66386182  0.32935004  -0.00294181  1
  Cr  Cr22  1  0.82856153  0.49649555  0.16148688  1
  Cr  Cr23  1  0.66296436  0.32589335  0.32697385  1
  Cr  Cr24  1  0.66337748  0.66642146  0.99259204  1
  Fe  Fe25  1  0.83217517  0.82987903  0.16332612  1
  Fe  Fe26  1  0.66494322  0.66418061  0.33053724  1
  Fe  Fe27  1  0.16519704  0.16209986  0.49612363  1
  Cr  Cr28  1  0.99480600  -0.00210431  0.66479463  1
  Fe  Fe29  1  0.16423184  0.16267456  0.82978163  1
  Fe  Fe30  1  0.16141004  0.49666372  0.49689681  1
  Cr  Cr31  1  -0.00135297  0.32988211  0.66090116  1
  Cr  Cr32  1  0.16165014  0.49869234  0.82888402  1
  Cr  Cr33  1  0.16118322  0.83054136  0.49435312  1
  Fe  Fe34  1  0.99447049  0.66354233  0.66275866  1
  Cr  Cr35  1  0.16140938  0.83208113  0.83249894  1
  Fe  Fe36  1  0.49374230  0.16044097  0.49653872  1
  Fe  Fe37  1  0.32901263  -0.00267117  0.66192347  1
  Cr  Cr38  1  0.49538144  0.16378175  0.82878636  1
  Cr  Cr39  1  0.49830589  0.49456850  0.49648653  1
  Fe  Fe40  1  0.32965882  0.32682290  0.66136016  1
  Cr  Cr41  1  0.49958393  0.49391914  0.83066007  1
  Fe  Fe42  1  0.49662821  0.83129785  0.49367371  1
  Cr  Cr43  1  0.33087947  0.66350887  0.66330634  1
  Fe  Fe44  1  0.49497924  0.83113414  0.82967643  1
  Cr  Cr45  1  0.82841846  0.16219618  0.49363343  1
  Cr  Cr46  1  0.66151293  0.99279518  0.66148211  1
  Cr  Cr47  1  0.82923749  0.16442202  0.83249239  1
  Fe  Fe48  1  0.83076559  0.49881074  0.49552054  1
  Fe  Fe49  1  0.66347977  0.32928340  0.66177911  1
  Fe  Fe50  1  0.83100801  0.49764035  0.82985698  1
  Fe  Fe51  1  0.82890642  0.82748310  0.49391226  1
  Cr  Cr52  1  0.66410548  0.66612754  0.66391936  1
  Fe  Fe53  1  0.83096723  0.82753238  0.83026133  1
" 