5017,Ni2Fe41Cr55_15,-215.145464705489, 182.232529252389,Ni2Fe41Cr55,"# generated using pymatgen
 data_Cr31Fe22Ni
_symmetry_space_group_name_H-M   'P 1'
_cell_length_a   7.55244228
_cell_length_b   7.55244228
_cell_length_c   10.68076630
_cell_angle_alpha   90.00000000
_cell_angle_beta   90.00000000
_cell_angle_gamma   90.00000000
_symmetry_Int_Tables_number   1
_chemical_formula_structural   Cr31Fe22Ni
_chemical_formula_sum   'Cr31 Fe22 Ni1'
_cell_volume   609.22433390
_cell_formula_units_Z   1
loop_
 _symmetry_equiv_pos_site_id
 _symmetry_equiv_pos_as_xyz
  1  'x, y, z'
loop_
 _atom_site_type_symbol
 _atom_site_label
 _atom_site_symmetry_multiplicity
 _atom_site_fract_x
 _atom_site_fract_y
 _atom_site_fract_z
 _atom_site_occupancy
  Cr  Cr0  1  -0.00339751  -0.00410740  -0.00524204  1
  Fe  Fe1  1  0.16298729  0.16260084  0.16041696  1
  Fe  Fe2  1  0.99372319  0.99325238  0.32573523  1
  Fe  Fe3  1  -0.00331417  0.32841493  0.99371554  1
  Cr  Cr4  1  0.16479659  0.49412898  0.15867288  1
  Cr  Cr5  1  -0.00413772  0.32960591  0.32492040  1
  Fe  Fe6  1  0.99274589  0.65995218  0.99425292  1
  Cr  Cr7  1  0.16041318  0.82761041  0.16200528  1
  Cr  Cr8  1  0.99425311  0.65895980  0.32992312  1
  Cr  Cr9  1  0.32812696  -0.00485865  0.99397596  1
  Fe  Fe10  1  0.49295738  0.16416154  0.15895405  1
  Cr  Cr11  1  0.32823864  -0.00446101  0.32488326  1
  Fe  Fe12  1  0.32816308  0.32618316  0.99363629  1
  Fe  Fe13  1  0.49503750  0.49403825  0.15892728  1
  Fe  Fe14  1  0.32874274  0.32735855  0.32586490  1
  Fe  Fe15  1  0.32758682  0.66060164  -0.00460206  1
  Fe  Fe16  1  0.49415907  0.82565997  0.15841076  1
  Cr  Cr17  1  0.32707393  0.66090131  0.32880929  1
  Cr  Cr18  1  0.65903651  0.99430934  0.99359074  1
  Cr  Cr19  1  0.82985016  0.16068185  0.16344527  1
  Cr  Cr20  1  0.65759106  0.99397901  0.32602643  1
  Cr  Cr21  1  0.66442810  0.32906267  -0.00554505  1
  Fe  Fe22  1  0.82968950  0.49589265  0.15867162  1
  Cr  Cr23  1  0.66087230  0.32755863  0.32768801  1
  Fe  Fe24  1  0.66251694  0.66122852  -0.00378738  1
  Fe  Fe25  1  0.82827627  0.82653549  0.15960257  1
  Cr  Cr26  1  0.66179205  0.66038869  0.32371073  1
  Cr  Cr27  1  0.15961330  0.16134632  0.49199496  1
  Fe  Fe28  1  -0.00551656  -0.00455114  0.66290389  1
  Fe  Fe29  1  0.16390637  0.16357598  0.82851763  1
  Fe  Fe30  1  0.15986403  0.49247413  0.49473524  1
  Cr  Cr31  1  -0.00301083  0.33195147  0.66403390  1
  Fe  Fe32  1  0.16163002  0.49292737  0.83118078  1
  Cr  Cr33  1  0.15920702  0.82893291  0.49476661  1
  Fe  Fe34  1  0.99296085  0.66139776  0.66220500  1
  Cr  Cr35  1  0.15846096  0.82543822  0.82717863  1
  Fe  Fe36  1  0.49237834  0.15992834  0.49491453  1
  Cr  Cr37  1  0.32756626  -0.00393090  0.66362370  1
  Ni  Ni38  1  0.49355508  0.16515958  0.82802956  1
  Cr  Cr39  1  0.49088749  0.49098672  0.49337639  1
  Fe  Fe40  1  0.32779691  0.32658038  0.66217679  1
  Cr  Cr41  1  0.49297043  0.49372528  0.82967813  1
  Cr  Cr42  1  0.49404128  0.82517466  0.49483902  1
  Cr  Cr43  1  0.32287958  0.65873287  0.65892859  1
  Cr  Cr44  1  0.49295879  0.82528790  0.82990148  1
  Cr  Cr45  1  0.82858956  0.15975973  0.49339006  1
  Cr  Cr46  1  0.65792208  -0.00490724  0.66366444  1
  Cr  Cr47  1  0.82940698  0.16136318  0.82621193  1
  Cr  Cr48  1  0.82595137  0.49370054  0.49462157  1
  Cr  Cr49  1  0.66139582  0.32643015  0.66038044  1
  Fe  Fe50  1  0.82850968  0.49638703  0.82963772  1
  Cr  Cr51  1  0.82904679  0.83054817  0.49579148  1
  Cr  Cr52  1  0.66228058  0.65990958  0.66254800  1
  Fe  Fe53  1  0.82725281  0.82674522  0.82882046  1
" 