6305,Ni2Fe50Cr47_0,-217.123038037398, 170.280342650396,Ni2Fe50Cr47,"# generated using pymatgen
 data_Cr26Fe27Ni
_symmetry_space_group_name_H-M   'P 1'
_cell_length_a   7.52806210
_cell_length_b   7.52806210
_cell_length_c   10.64628752
_cell_angle_alpha   90.00000000
_cell_angle_beta   90.00000000
_cell_angle_gamma   90.00000000
_symmetry_Int_Tables_number   1
_chemical_formula_structural   Cr26Fe27Ni
_chemical_formula_sum   'Cr26 Fe27 Ni1'
_cell_volume   603.34341470
_cell_formula_units_Z   1
loop_
 _symmetry_equiv_pos_site_id
 _symmetry_equiv_pos_as_xyz
  1  'x, y, z'
loop_
 _atom_site_type_symbol
 _atom_site_label
 _atom_site_symmetry_multiplicity
 _atom_site_fract_x
 _atom_site_fract_y
 _atom_site_fract_z
 _atom_site_occupancy
  Fe  Fe0  1  -0.00312959  -0.00238071  0.99562465  1
  Fe  Fe1  1  0.16209313  0.16067786  0.16495503  1
  Ni  Ni2  1  0.00081245  -0.00180914  0.32983747  1
  Cr  Cr3  1  -0.00390673  0.32650213  0.99585085  1
  Cr  Cr4  1  0.16502004  0.49409332  0.16456284  1
  Fe  Fe5  1  -0.00347863  0.32636462  0.32984307  1
  Cr  Cr6  1  -0.00328889  0.66361079  0.99477832  1
  Cr  Cr7  1  0.16168212  0.82802897  0.16249107  1
  Fe  Fe8  1  -0.00318911  0.66386269  0.32983772  1
  Cr  Cr9  1  0.32632916  -0.00341852  0.99466019  1
  Fe  Fe10  1  0.49534149  0.16255688  0.16381646  1
  Fe  Fe11  1  0.32770992  -0.00252241  0.32888266  1
  Cr  Cr12  1  0.32989079  0.32615800  -0.00143555  1
  Fe  Fe13  1  0.49608332  0.49551897  0.16317509  1
  Fe  Fe14  1  0.32784092  0.32612668  0.32827204  1
  Fe  Fe15  1  0.32892135  0.66250822  0.99593566  1
  Cr  Cr16  1  0.49662517  0.83099973  0.16360502  1
  Fe  Fe17  1  0.32763477  0.66383111  0.32994611  1
  Fe  Fe18  1  0.66162359  -0.00058168  0.99495878  1
  Cr  Cr19  1  0.82898683  0.15992271  0.16217883  1
  Fe  Fe20  1  0.66412939  -0.00196409  0.32976439  1
  Fe  Fe21  1  0.66229907  0.32660951  0.99556359  1
  Cr  Cr22  1  0.83240003  0.49478378  0.16260879  1
  Cr  Cr23  1  0.66259851  0.32972204  0.32892282  1
  Cr  Cr24  1  0.66224937  0.66015236  -0.00382408  1
  Cr  Cr25  1  0.82923805  0.83303585  0.16284992  1
  Cr  Cr26  1  0.66276659  0.66121729  0.33126164  1
  Fe  Fe27  1  0.16133807  0.16050564  0.49568039  1
  Fe  Fe28  1  -0.00226425  -0.00320764  0.66153222  1
  Fe  Fe29  1  0.16183588  0.16094011  0.82734821  1
  Cr  Cr30  1  0.16077795  0.49343898  0.49525332  1
  Fe  Fe31  1  -0.00389524  0.32768927  0.66274269  1
  Cr  Cr32  1  0.16223415  0.49435595  0.82870232  1
  Fe  Fe33  1  0.16252987  0.83117983  0.49460746  1
  Fe  Fe34  1  0.99529784  0.66329280  0.66260748  1
  Fe  Fe35  1  0.16177542  0.83122467  0.82858921  1
  Cr  Cr36  1  0.49455028  0.16210993  0.49639538  1
  Fe  Fe37  1  0.32607464  -0.00146668  0.66344560  1
  Fe  Fe38  1  0.49584530  0.16277378  0.82886433  1
  Cr  Cr39  1  0.49131743  0.49434888  0.49632596  1
  Fe  Fe40  1  0.32775690  0.32637248  0.66319089  1
  Cr  Cr41  1  0.49335230  0.49389376  0.83030989  1
  Cr  Cr42  1  0.49504353  0.83181747  0.49512292  1
  Cr  Cr43  1  0.32766248  0.66657032  0.66338793  1
  Cr  Cr44  1  0.49661172  0.83107534  0.82879850  1
  Fe  Fe45  1  0.83256413  0.16380758  0.49454484  1
  Cr  Cr46  1  0.66288948  -0.00256459  0.66153291  1
  Fe  Fe47  1  0.82975565  0.16356681  0.82976564  1
  Fe  Fe48  1  0.83124633  0.49425945  0.49547428  1
  Cr  Cr49  1  0.66504962  0.32989004  0.66368274  1
  Fe  Fe50  1  0.82985946  0.49508549  0.82928552  1
  Cr  Cr51  1  0.83130172  0.83239712  0.49309737  1
  Cr  Cr52  1  0.66512824  0.66095546  0.66059726  1
  Cr  Cr53  1  0.83024463  0.83324738  0.83135797  1
" 