2846,Ni2Fe66Cr31_11,-219.99633349367, 162.394791169611,Ni2Fe66Cr31,"# generated using pymatgen
 data_Cr18Fe35Ni
_symmetry_space_group_name_H-M   'P 1'
_cell_length_a   7.49379967
_cell_length_b   7.49379967
_cell_length_c   10.59783313
_cell_angle_alpha   90.00000000
_cell_angle_beta   90.00000000
_cell_angle_gamma   90.00000000
_symmetry_Int_Tables_number   1
_chemical_formula_structural   Cr18Fe35Ni
_chemical_formula_sum   'Cr18 Fe35 Ni1'
_cell_volume   595.14286975
_cell_formula_units_Z   1
loop_
 _symmetry_equiv_pos_site_id
 _symmetry_equiv_pos_as_xyz
  1  'x, y, z'
loop_
 _atom_site_type_symbol
 _atom_site_label
 _atom_site_symmetry_multiplicity
 _atom_site_fract_x
 _atom_site_fract_y
 _atom_site_fract_z
 _atom_site_occupancy
  Cr  Cr0  1  0.99744783  0.99640949  0.99667586  1
  Cr  Cr1  1  0.16359108  0.16506090  0.16572541  1
  Cr  Cr2  1  0.99701011  0.99769866  0.33285252  1
  Fe  Fe3  1  0.99798089  0.33213833  0.99797836  1
  Fe  Fe4  1  0.16599363  0.49768057  0.16444374  1
  Fe  Fe5  1  0.99616975  0.33203489  0.33115257  1
  Cr  Cr6  1  0.99752168  0.66294521  0.99727730  1
  Cr  Cr7  1  0.16755571  0.83026671  0.16509022  1
  Cr  Cr8  1  0.99601796  0.66311647  0.33026782  1
  Fe  Fe9  1  0.33166098  -0.00124213  0.99624251  1
  Fe  Fe10  1  0.49818278  0.16661905  0.16443982  1
  Fe  Fe11  1  0.33226057  0.99799353  0.33241672  1
  Fe  Fe12  1  0.33247812  0.33239565  0.99737628  1
  Fe  Fe13  1  0.49829611  0.49738444  0.16349586  1
  Cr  Cr14  1  0.33289846  0.33165422  0.33272658  1
  Fe  Fe15  1  0.33317157  0.66350875  0.99634996  1
  Cr  Cr16  1  0.49651062  0.82941676  0.16537072  1
  Fe  Fe17  1  0.33419002  0.66460671  0.33173544  1
  Cr  Cr18  1  0.66266871  -0.00153141  -0.00135111  1
  Fe  Fe19  1  0.83025577  0.16701289  0.16464916  1
  Cr  Cr20  1  0.66366202  0.99759734  0.33026134  1
  Fe  Fe21  1  0.66411404  0.33394398  0.99816893  1
  Fe  Fe22  1  0.83026697  0.49699891  0.16460557  1
  Fe  Fe23  1  0.66644719  0.33396701  0.33032575  1
  Fe  Fe24  1  0.66380430  0.66294771  0.99719263  1
  Fe  Fe25  1  0.83063743  0.83037189  0.16453347  1
  Fe  Fe26  1  0.66391341  0.66275353  0.33213198  1
  Fe  Fe27  1  0.16528664  0.16502328  0.49813134  1
  Fe  Fe28  1  0.99809172  0.99753362  0.66551296  1
  Fe  Fe29  1  0.16724499  0.16645075  0.83246282  1
  Cr  Cr30  1  0.16640700  0.49886660  0.49753517  1
  Cr  Cr31  1  0.00073510  0.33299035  0.66440861  1
  Fe  Fe32  1  0.16740190  0.49735173  0.83201500  1
  Cr  Cr33  1  0.16706637  0.83168788  0.49694433  1
  Cr  Cr34  1  0.99627933  0.66534702  0.66680656  1
  Fe  Fe35  1  0.16694710  0.83092538  0.83147618  1
  Cr  Cr36  1  0.49998862  0.16586106  0.49916226  1
  Cr  Cr37  1  0.33289075  0.00046125  0.66549079  1
  Fe  Fe38  1  0.49736794  0.16741529  0.83148138  1
  Fe  Fe39  1  0.50028008  0.50015752  0.49964269  1
  Fe  Fe40  1  0.33328261  0.33378287  0.66634552  1
  Ni  Ni41  1  0.49772056  0.49908170  0.83118929  1
  Fe  Fe42  1  0.49963383  0.82918098  0.49814197  1
  Fe  Fe43  1  0.33363543  0.66349683  0.66638174  1
  Fe  Fe44  1  0.49849488  0.82971442  0.83171796  1
  Cr  Cr45  1  0.83211599  0.16644117  0.49905178  1
  Fe  Fe46  1  0.66597054  0.99616930  0.66552493  1
  Cr  Cr47  1  0.83126077  0.16583058  0.83054188  1
  Fe  Fe48  1  0.82860680  0.49898052  0.49786842  1
  Fe  Fe49  1  0.66284775  0.33410250  0.66606575  1
  Fe  Fe50  1  0.82846247  0.49842701  0.83204068  1
  Fe  Fe51  1  0.82908433  0.83028151  0.49949240  1
  Fe  Fe52  1  0.66285722  0.66436993  0.66543474  1
  Fe  Fe53  1  0.82894441  0.82993181  0.83061032  1
" 