23,Ni2Fe46Cr50_16,-216.461815857777, 173.682765621938,Ni2Fe46Cr50,"# generated using pymatgen
 data_Cr28Fe25Ni
_symmetry_space_group_name_H-M   'P 1'
_cell_length_a   7.53483226
_cell_length_b   7.53483226
_cell_length_c   10.65586197
_cell_angle_alpha   90.00000000
_cell_angle_beta   90.00000000
_cell_angle_gamma   90.00000000
_symmetry_Int_Tables_number   1
_chemical_formula_structural   Cr28Fe25Ni
_chemical_formula_sum   'Cr28 Fe25 Ni1'
_cell_volume   604.97268095
_cell_formula_units_Z   1
loop_
 _symmetry_equiv_pos_site_id
 _symmetry_equiv_pos_as_xyz
  1  'x, y, z'
loop_
 _atom_site_type_symbol
 _atom_site_label
 _atom_site_symmetry_multiplicity
 _atom_site_fract_x
 _atom_site_fract_y
 _atom_site_fract_z
 _atom_site_occupancy
  Cr  Cr0  1  0.99474284  -0.00394686  -0.00192134  1
  Cr  Cr1  1  0.16553857  0.16337783  0.16038947  1
  Cr  Cr2  1  0.99498083  -0.00254773  0.32492766  1
  Cr  Cr3  1  0.99475112  0.32886073  -0.00403398  1
  Fe  Fe4  1  0.16322100  0.49386753  0.16143716  1
  Fe  Fe5  1  0.99484246  0.32914127  0.32857325  1
  Cr  Cr6  1  -0.00223482  0.66132055  -0.00205505  1
  Fe  Fe7  1  0.16588984  0.82856767  0.16112091  1
  Cr  Cr8  1  -0.00261553  0.66046421  0.32703723  1
  Fe  Fe9  1  0.33037163  0.99381523  -0.00369524  1
  Fe  Fe10  1  0.49752027  0.16158207  0.16049301  1
  Fe  Fe11  1  0.32956886  -0.00415513  0.32773555  1
  Fe  Fe12  1  0.32903796  0.32962018  0.99524056  1
  Cr  Cr13  1  0.49519452  0.49331226  0.15996615  1
  Fe  Fe14  1  0.32953530  0.32730533  0.32818822  1
  Fe  Fe15  1  0.33015929  0.66303960  -0.00438487  1
  Fe  Fe16  1  0.49513846  0.82920269  0.16207281  1
  Cr  Cr17  1  0.32813854  0.66041816  0.32649868  1
  Fe  Fe18  1  0.65971710  -0.00448139  -0.00314983  1
  Fe  Fe19  1  0.82533817  0.16456763  0.16132311  1
  Cr  Cr20  1  0.66137042  -0.00132217  0.32957704  1
  Fe  Fe21  1  0.66155055  0.32881684  0.99530218  1
  Cr  Cr22  1  0.82597206  0.49520358  0.16293712  1
  Fe  Fe23  1  0.66318333  0.32980693  0.32906210  1
  Fe  Fe24  1  0.66066152  0.66217719  0.99510887  1
  Cr  Cr25  1  0.82619818  0.82819716  0.16194620  1
  Ni  Ni26  1  0.66102213  0.66097713  0.32763596  1
  Cr  Cr27  1  0.16312070  0.16457432  0.49751586  1
  Cr  Cr28  1  0.99426463  -0.00146268  0.66377716  1
  Fe  Fe29  1  0.16252475  0.16239795  0.83037293  1
  Fe  Fe30  1  0.16047415  0.49538156  0.49569801  1
  Fe  Fe31  1  0.99397039  0.33183904  0.66202053  1
  Cr  Cr32  1  0.16321489  0.49342809  0.82855700  1
  Cr  Cr33  1  0.16084614  0.83016900  0.49585188  1
  Fe  Fe34  1  0.99492558  0.65793712  0.66191842  1
  Cr  Cr35  1  0.16152002  0.83003409  0.82811388  1
  Fe  Fe36  1  0.49526016  0.16309069  0.49340970  1
  Cr  Cr37  1  0.33108806  -0.00418351  0.66241610  1
  Cr  Cr38  1  0.49346265  0.16422321  0.83125387  1
  Cr  Cr39  1  0.49659048  0.49343437  0.49289290  1
  Cr  Cr40  1  0.33006881  0.33019225  0.66330179  1
  Fe  Fe41  1  0.49756205  0.49675610  0.83311272  1
  Cr  Cr42  1  0.49618187  0.82748022  0.49411643  1
  Cr  Cr43  1  0.32959044  0.66086076  0.66306488  1
  Fe  Fe44  1  0.49522639  0.82875836  0.83184667  1
  Fe  Fe45  1  0.82963098  0.16481917  0.49415423  1
  Cr  Cr46  1  0.66110980  -0.00271265  0.66069093  1
  Cr  Cr47  1  0.82862331  0.16247437  0.83083451  1
  Fe  Fe48  1  0.83018908  0.49416834  0.49322033  1
  Cr  Cr49  1  0.66326359  0.32918040  0.66146443  1
  Fe  Fe50  1  0.82816615  0.49488888  0.83050970  1
  Cr  Cr51  1  0.82905210  0.82587271  0.49654464  1
  Cr  Cr52  1  0.66089242  0.65960822  0.66441227  1
  Cr  Cr53  1  0.82748914  0.82670446  0.82869865  1
" 