7498,Ni2Fe66Cr31_0,-220.425360592152, 161.105481925888,Ni2Fe66Cr31,"# generated using pymatgen
 data_Cr18Fe35Ni
_symmetry_space_group_name_H-M   'P 1'
_cell_length_a   7.49903248
_cell_length_b   7.49903248
_cell_length_c   10.60523344
_cell_angle_alpha   90.00000000
_cell_angle_beta   90.00000000
_cell_angle_gamma   90.00000000
_symmetry_Int_Tables_number   1
_chemical_formula_structural   Cr18Fe35Ni
_chemical_formula_sum   'Cr18 Fe35 Ni1'
_cell_volume   596.39047986
_cell_formula_units_Z   1
loop_
 _symmetry_equiv_pos_site_id
 _symmetry_equiv_pos_as_xyz
  1  'x, y, z'
loop_
 _atom_site_type_symbol
 _atom_site_label
 _atom_site_symmetry_multiplicity
 _atom_site_fract_x
 _atom_site_fract_y
 _atom_site_fract_z
 _atom_site_occupancy
  Fe  Fe0  1  -0.00206935  -0.00014163  0.99743297  1
  Fe  Fe1  1  0.16143922  0.16214315  0.16333351  1
  Fe  Fe2  1  0.99706207  0.00160062  0.33130855  1
  Fe  Fe3  1  0.99649517  0.32869588  0.99727603  1
  Cr  Cr4  1  0.16406108  0.49827117  0.16266138  1
  Fe  Fe5  1  0.99667484  0.32644606  0.33221828  1
  Fe  Fe6  1  -0.00099858  0.66468772  0.99711838  1
  Fe  Fe7  1  0.16394759  0.83284304  0.16265871  1
  Cr  Cr8  1  0.99700009  0.66697370  0.33175623  1
  Fe  Fe9  1  0.33094969  0.99745127  -0.00117500  1
  Fe  Fe10  1  0.50173038  0.16487611  0.16376622  1
  Cr  Cr11  1  0.33015560  0.00041052  0.33187630  1
  Cr  Cr12  1  0.33242114  0.32960745  -0.00205707  1
  Fe  Fe13  1  0.49946954  0.49810513  0.16498845  1
  Cr  Cr14  1  0.33232793  0.32931456  0.32959301  1
  Fe  Fe15  1  0.33175992  0.66511731  0.99711939  1
  Cr  Cr16  1  0.49672580  0.83305076  0.16469175  1
  Fe  Fe17  1  0.33162897  0.66577810  0.33068955  1
  Fe  Fe18  1  0.66498205  0.00066096  -0.00183468  1
  Fe  Fe19  1  0.83080779  0.16397795  0.16476969  1
  Ni  Ni20  1  0.66525955  0.00098613  0.33088867  1
  Fe  Fe21  1  0.66559530  0.32940311  -0.00166546  1
  Cr  Cr22  1  0.83127574  0.49450103  0.16739540  1
  Fe  Fe23  1  0.66593623  0.32778766  0.33162543  1
  Cr  Cr24  1  0.66645235  0.66512172  0.99579036  1
  Cr  Cr25  1  0.83128850  0.83380800  0.16343763  1
  Fe  Fe26  1  0.66263846  0.66588174  0.33064493  1
  Fe  Fe27  1  0.16236029  0.16224660  0.49888455  1
  Fe  Fe28  1  -0.00172273  0.00096822  0.66480770  1
  Fe  Fe29  1  0.16149478  0.16467011  0.83156249  1
  Cr  Cr30  1  0.16316079  0.49672401  0.49865888  1
  Fe  Fe31  1  0.99631096  0.32776565  0.66427475  1
  Fe  Fe32  1  0.16556110  0.49677834  0.83190939  1
  Fe  Fe33  1  0.16462674  0.83285488  0.49925660  1
  Cr  Cr34  1  0.99509906  0.66609029  0.66531547  1
  Cr  Cr35  1  0.16630626  0.83189581  0.83239167  1
  Fe  Fe36  1  0.50117261  0.16392018  0.49873271  1
  Fe  Fe37  1  0.32950546  0.99701161  0.66407203  1
  Cr  Cr38  1  0.49945987  0.16142937  0.83060242  1
  Cr  Cr39  1  0.49917151  0.49808505  0.49656308  1
  Cr  Cr40  1  0.33118770  0.32875001  0.66530957  1
  Fe  Fe41  1  0.49685439  0.49926620  0.83010562  1
  Cr  Cr42  1  0.49721933  0.83301841  0.49986451  1
  Fe  Fe43  1  0.33197656  0.66491004  0.66604393  1
  Fe  Fe44  1  0.49903853  0.83059146  0.83000442  1
  Fe  Fe45  1  0.83020778  0.16609636  0.49748008  1
  Fe  Fe46  1  0.66602143  -0.00110661  0.66448945  1
  Fe  Fe47  1  0.83315421  0.16207459  0.83123140  1
  Fe  Fe48  1  0.82978984  0.49555917  0.49781608  1
  Fe  Fe49  1  0.66670609  0.33040795  0.66373982  1
  Cr  Cr50  1  0.83310129  0.49451380  0.83027459  1
  Cr  Cr51  1  0.82924640  0.83353170  0.49751318  1
  Fe  Fe52  1  0.66275698  0.66434145  0.66665265  1
  Fe  Fe53  1  0.83005530  0.83508574  0.83097399  1
" 