8196,Ni2Fe66Cr31_10,-220.099888950844, 157.501049430942,Ni2Fe66Cr31,"# generated using pymatgen
 data_Cr18Fe35Ni
_symmetry_space_group_name_H-M   'P 1'
_cell_length_a   7.49960425
_cell_length_b   7.49960425
_cell_length_c   10.60604205
_cell_angle_alpha   90.00000000
_cell_angle_beta   90.00000000
_cell_angle_gamma   90.00000000
_symmetry_Int_Tables_number   1
_chemical_formula_structural   Cr18Fe35Ni
_chemical_formula_sum   'Cr18 Fe35 Ni1'
_cell_volume   596.52690728
_cell_formula_units_Z   1
loop_
 _symmetry_equiv_pos_site_id
 _symmetry_equiv_pos_as_xyz
  1  'x, y, z'
loop_
 _atom_site_type_symbol
 _atom_site_label
 _atom_site_symmetry_multiplicity
 _atom_site_fract_x
 _atom_site_fract_y
 _atom_site_fract_z
 _atom_site_occupancy
  Fe  Fe0  1  0.00027805  -0.00157891  0.99652019  1
  Fe  Fe1  1  0.16457664  0.16405239  0.16282223  1
  Fe  Fe2  1  0.00006897  0.99633234  0.33172063  1
  Fe  Fe3  1  0.00124170  0.33246656  0.99765142  1
  Fe  Fe4  1  0.16337918  0.49902668  0.16321159  1
  Cr  Cr5  1  -0.00160774  0.33085809  0.32860771  1
  Fe  Fe6  1  -0.00194333  0.66204482  0.99702018  1
  Fe  Fe7  1  0.16694236  0.83028029  0.16241544  1
  Fe  Fe8  1  0.00106848  0.66629440  0.32979653  1
  Fe  Fe9  1  0.32944290  0.99648538  -0.00174687  1
  Cr  Cr10  1  0.49532115  0.16569358  0.16496316  1
  Cr  Cr11  1  0.32944335  0.99568116  0.33283349  1
  Fe  Fe12  1  0.32891440  0.33300295  0.99690737  1
  Cr  Cr13  1  0.49454422  0.49664546  0.16503238  1
  Fe  Fe14  1  0.33147038  0.33118695  0.33268900  1
  Ni  Ni15  1  0.32992677  0.66457775  -0.00100461  1
  Fe  Fe16  1  0.49562478  0.83023388  0.16240678  1
  Fe  Fe17  1  0.32901356  0.66424934  0.33044911  1
  Cr  Cr18  1  0.66442468  0.99532601  0.99626470  1
  Cr  Cr19  1  0.83133275  0.16311493  0.16601044  1
  Cr  Cr20  1  0.66271242  0.99723991  0.33206120  1
  Cr  Cr21  1  0.66882441  0.33300795  -0.00105962  1
  Fe  Fe22  1  0.83281313  0.49840946  0.16422301  1
  Fe  Fe23  1  0.66197686  0.33136844  0.33142028  1
  Fe  Fe24  1  0.66308081  0.66410078  0.99705638  1
  Cr  Cr25  1  0.83563815  0.82999295  0.16358299  1
  Cr  Cr26  1  0.66208257  0.66351917  0.32917334  1
  Fe  Fe27  1  0.16485608  0.16565573  0.49826553  1
  Cr  Cr28  1  -0.00137792  0.00096562  0.66359993  1
  Fe  Fe29  1  0.16372945  0.16611602  0.83192246  1
  Cr  Cr30  1  0.16583864  0.50038421  0.49833068  1
  Fe  Fe31  1  -0.00130990  0.33323634  0.66605156  1
  Fe  Fe32  1  0.16595476  0.49646485  0.83189566  1
  Fe  Fe33  1  0.16509782  0.83181722  0.49827901  1
  Fe  Fe34  1  0.99740870  0.66327225  0.66653553  1
  Cr  Cr35  1  0.16412536  0.83000829  0.83174087  1
  Fe  Fe36  1  0.49548102  0.16652558  0.49989334  1
  Fe  Fe37  1  0.33208777  -0.00121284  0.66292581  1
  Cr  Cr38  1  0.49575236  0.16528906  0.83095166  1
  Fe  Fe39  1  0.49898058  0.49596913  0.49763929  1
  Fe  Fe40  1  0.33013143  0.33009819  0.66464758  1
  Fe  Fe41  1  0.49655593  0.50006606  0.83276363  1
  Fe  Fe42  1  0.49832985  0.83034249  0.49912719  1
  Cr  Cr43  1  0.33345715  0.66424203  0.66258441  1
  Fe  Fe44  1  0.49723311  0.82902707  0.83192910  1
  Cr  Cr45  1  0.82763048  0.16443533  0.49736548  1
  Fe  Fe46  1  0.66215547  0.99634518  0.66554861  1
  Fe  Fe47  1  0.83295908  0.16522293  0.83065901  1
  Cr  Cr48  1  0.83137336  0.49903930  0.49731780  1
  Fe  Fe49  1  0.66376166  0.33273676  0.66608386  1
  Fe  Fe50  1  0.83215824  0.49866669  0.83017833  1
  Cr  Cr51  1  0.83450492  0.83002519  0.49902933  1
  Fe  Fe52  1  0.66529192  0.66438574  0.66597635  1
  Fe  Fe53  1  0.83003098  0.83005275  0.83051945  1
" 