1888,Ni2Fe41Cr55_0,-215.175333569031, 181.355370213397,Ni2Fe41Cr55,"# generated using pymatgen
 data_Cr31Fe22Ni
_symmetry_space_group_name_H-M   'P 1'
_cell_length_a   7.55695659
_cell_length_b   7.55695659
_cell_length_c   10.68715050
_cell_angle_alpha   90.00000000
_cell_angle_beta   90.00000000
_cell_angle_gamma   90.00000000
_symmetry_Int_Tables_number   1
_chemical_formula_structural   Cr31Fe22Ni
_chemical_formula_sum   'Cr31 Fe22 Ni1'
_cell_volume   610.31743970
_cell_formula_units_Z   1
loop_
 _symmetry_equiv_pos_site_id
 _symmetry_equiv_pos_as_xyz
  1  'x, y, z'
loop_
 _atom_site_type_symbol
 _atom_site_label
 _atom_site_symmetry_multiplicity
 _atom_site_fract_x
 _atom_site_fract_y
 _atom_site_fract_z
 _atom_site_occupancy
  Fe  Fe0  1  0.99366995  -0.00534241  0.99365649  1
  Cr  Cr1  1  0.16045601  0.16314602  0.16044389  1
  Cr  Cr2  1  0.99379582  0.99283597  0.32803042  1
  Ni  Ni3  1  0.99324944  0.32922410  -0.00545077  1
  Fe  Fe4  1  0.16023298  0.49356471  0.15867567  1
  Cr  Cr5  1  0.99377486  0.32879894  0.32620742  1
  Fe  Fe6  1  -0.00547504  0.65944851  0.99366254  1
  Cr  Cr7  1  0.16053490  0.82531496  0.16054008  1
  Cr  Cr8  1  0.99378662  0.66051935  0.32803316  1
  Cr  Cr9  1  0.32791000  0.99250129  0.99191621  1
  Cr  Cr10  1  0.49475783  0.16008681  0.16236044  1
  Fe  Fe11  1  0.32854741  0.99364780  0.32852804  1
  Fe  Fe12  1  0.32638405  0.32888762  -0.00594618  1
  Cr  Cr13  1  0.49178364  0.49455593  0.15837224  1
  Cr  Cr14  1  0.32815339  0.32660944  0.32614118  1
  Fe  Fe15  1  0.32685955  0.65944968  0.99328900  1
  Cr  Cr16  1  0.49554719  0.82750584  0.16095773  1
  Cr  Cr17  1  0.32727096  0.66183838  0.32701044  1
  Fe  Fe18  1  0.66160970  -0.00581495  0.99357488  1
  Cr  Cr19  1  0.82694141  0.15938979  0.15857551  1
  Fe  Fe20  1  0.65955666  0.99365921  0.32861434  1
  Fe  Fe21  1  0.66161782  0.32803950  0.99337885  1
  Cr  Cr22  1  0.82912111  0.49447901  0.15917463  1
  Cr  Cr23  1  0.66022331  0.32661684  0.32906362  1
  Fe  Fe24  1  0.66076848  0.65993014  0.99299552  1
  Cr  Cr25  1  0.82607323  0.82828625  0.16018778  1
  Cr  Cr26  1  0.66109481  0.66181764  0.32992861  1
  Cr  Cr27  1  0.16233944  0.15978436  0.49444821  1
  Cr  Cr28  1  -0.00459005  0.99260312  0.66187442  1
  Cr  Cr29  1  0.15974376  0.16080845  0.82725021  1
  Cr  Cr30  1  0.16093670  0.49489825  0.49236739  1
  Cr  Cr31  1  0.99107362  0.32821474  0.66022573  1
  Cr  Cr32  1  0.16161451  0.49468121  0.83026379  1
  Fe  Fe33  1  0.16103067  0.82783246  0.49359906  1
  Cr  Cr34  1  0.99220409  0.66133441  0.65905855  1
  Fe  Fe35  1  0.16110028  0.82714250  0.82857995  1
  Fe  Fe36  1  0.49435990  0.16040220  0.49367089  1
  Cr  Cr37  1  0.32743082  0.99240830  0.66017993  1
  Cr  Cr38  1  0.49492218  0.16209215  0.82735332  1
  Fe  Fe39  1  0.49557913  0.49388816  0.49474083  1
  Cr  Cr40  1  0.33047032  0.32711836  0.66063564  1
  Fe  Fe41  1  0.49563922  0.49475000  0.82820912  1
  Fe  Fe42  1  0.49433372  0.82786475  0.49358089  1
  Cr  Cr43  1  0.32953936  0.66262848  0.66194016  1
  Fe  Fe44  1  0.49398025  0.82597080  0.82823068  1
  Cr  Cr45  1  0.82560201  0.16040639  0.49431595  1
  Cr  Cr46  1  0.65931492  0.99353386  0.65983571  1
  Cr  Cr47  1  0.82748845  0.16136979  0.82926227  1
  Fe  Fe48  1  0.82592121  0.49474611  0.49474024  1
  Fe  Fe49  1  0.66030688  0.32926823  0.66022095  1
  Fe  Fe50  1  0.82638679  0.49339477  0.82872848  1
  Fe  Fe51  1  0.82678904  0.82662331  0.49405892  1
  Fe  Fe52  1  0.66034796  0.65959056  0.66024383  1
  Cr  Cr53  1  0.82665589  0.82641510  0.82923033  1
" 