8573,Ni2Fe46Cr50_17,-216.146230897422, 174.401170965717,Ni2Fe46Cr50,"# generated using pymatgen
 data_Cr28Fe25Ni
_symmetry_space_group_name_H-M   'P 1'
_cell_length_a   7.53609810
_cell_length_b   7.53609810
_cell_length_c   10.65765214
_cell_angle_alpha   90.00000000
_cell_angle_beta   90.00000000
_cell_angle_gamma   90.00000000
_symmetry_Int_Tables_number   1
_chemical_formula_structural   Cr28Fe25Ni
_chemical_formula_sum   'Cr28 Fe25 Ni1'
_cell_volume   605.27763463
_cell_formula_units_Z   1
loop_
 _symmetry_equiv_pos_site_id
 _symmetry_equiv_pos_as_xyz
  1  'x, y, z'
loop_
 _atom_site_type_symbol
 _atom_site_label
 _atom_site_symmetry_multiplicity
 _atom_site_fract_x
 _atom_site_fract_y
 _atom_site_fract_z
 _atom_site_occupancy
  Cr  Cr0  1  -0.00428963  0.99290564  -0.00326909  1
  Cr  Cr1  1  0.16162065  0.16045042  0.16178549  1
  Fe  Fe2  1  -0.00405793  0.99428135  0.32881379  1
  Cr  Cr3  1  -0.00318568  0.33161180  -0.00457948  1
  Cr  Cr4  1  0.16581962  0.49837879  0.16108881  1
  Fe  Fe5  1  -0.00293039  0.32830118  0.33080681  1
  Cr  Cr6  1  0.99400225  0.66087941  0.99303071  1
  Fe  Fe7  1  0.16381415  0.82790291  0.16187493  1
  Cr  Cr8  1  -0.00457817  0.65978010  0.32842547  1
  Fe  Fe9  1  0.33034809  0.99398980  0.99402143  1
  Cr  Cr10  1  0.49494359  0.16442556  0.15887563  1
  Cr  Cr11  1  0.32922387  0.99384087  0.32911068  1
  Fe  Fe12  1  0.32977671  0.32923855  0.99272363  1
  Cr  Cr13  1  0.49282951  0.49719801  0.16154517  1
  Cr  Cr14  1  0.32506841  0.32699128  0.33235718  1
  Fe  Fe15  1  0.32989258  0.66350729  0.99381762  1
  Fe  Fe16  1  0.49180753  0.82791944  0.16090860  1
  Fe  Fe17  1  0.32918706  0.66335245  0.32912028  1
  Cr  Cr18  1  0.65862117  0.99295804  0.99507359  1
  Cr  Cr19  1  0.82948693  0.16039905  0.16441251  1
  Cr  Cr20  1  0.65846887  0.99212297  0.32747162  1
  Cr  Cr21  1  0.66172112  0.32996304  0.99322925  1
  Cr  Cr22  1  0.82792800  0.49439400  0.16363534  1
  Cr  Cr23  1  0.66302546  0.33013953  0.32919872  1
  Cr  Cr24  1  0.66299064  0.66358647  0.99528050  1
  Fe  Fe25  1  0.83026214  0.82878828  0.16227985  1
  Cr  Cr26  1  0.66180588  0.66467675  0.32814544  1
  Fe  Fe27  1  0.16100146  0.16187042  0.49608888  1
  Fe  Fe28  1  -0.00402609  -0.00454719  0.66319054  1
  Cr  Cr29  1  0.16391625  0.16077775  0.82974940  1
  Fe  Fe30  1  0.16112130  0.49570989  0.49613025  1
  Cr  Cr31  1  -0.00231358  0.33217365  0.66016950  1
  Fe  Fe32  1  0.16567948  0.49454947  0.82777105  1
  Cr  Cr33  1  0.16200111  0.82684944  0.49559627  1
  Fe  Fe34  1  0.99533295  0.66168422  0.66335693  1
  Cr  Cr35  1  0.16095903  0.82587104  0.82883589  1
  Cr  Cr36  1  0.49824486  0.16418706  0.49793832  1
  Cr  Cr37  1  0.33117355  -0.00327830  0.66126106  1
  Ni  Ni38  1  0.49505875  0.16462897  0.82806141  1
  Cr  Cr39  1  0.49446033  0.49826617  0.49563323  1
  Fe  Fe40  1  0.33002363  0.33053918  0.66349985  1
  Fe  Fe41  1  0.49354064  0.49486497  0.82717001  1
  Fe  Fe42  1  0.49620083  0.82786902  0.49707798  1
  Fe  Fe43  1  0.32869517  0.66028609  0.66307804  1
  Fe  Fe44  1  0.49522325  0.83006628  0.82739211  1
  Cr  Cr45  1  0.82974008  0.16086536  0.49387304  1
  Fe  Fe46  1  0.66139569  0.99498201  0.66425621  1
  Cr  Cr47  1  0.82698225  0.15991933  0.82773107  1
  Fe  Fe48  1  0.82902443  0.49663992  0.49650471  1
  Fe  Fe49  1  0.66051131  0.32977397  0.66397630  1
  Fe  Fe50  1  0.82736258  0.49614160  0.82621509  1
  Cr  Cr51  1  0.82969009  0.82977506  0.49944771  1
  Fe  Fe52  1  0.66166585  0.66172480  0.66385985  1
  Fe  Fe53  1  0.82634128  0.82843581  0.82555982  1
" 