8645,Ni2Fe66Cr31_1,-220.147962690799, 149.917838524451,Ni2Fe66Cr31,"# generated using pymatgen
 data_Cr18Fe35Ni
_symmetry_space_group_name_H-M   'P 1'
_cell_length_a   7.51393046
_cell_length_b   7.51393046
_cell_length_c   10.62630236
_cell_angle_alpha   90.00000000
_cell_angle_beta   90.00000000
_cell_angle_gamma   90.00000000
_symmetry_Int_Tables_number   1
_chemical_formula_structural   Cr18Fe35Ni
_chemical_formula_sum   'Cr18 Fe35 Ni1'
_cell_volume   599.95200855
_cell_formula_units_Z   1
loop_
 _symmetry_equiv_pos_site_id
 _symmetry_equiv_pos_as_xyz
  1  'x, y, z'
loop_
 _atom_site_type_symbol
 _atom_site_label
 _atom_site_symmetry_multiplicity
 _atom_site_fract_x
 _atom_site_fract_y
 _atom_site_fract_z
 _atom_site_occupancy
  Fe  Fe0  1  0.99646704  -0.00268614  0.99682580  1
  Cr  Cr1  1  0.16205688  0.16253756  0.16287893  1
  Ni  Ni2  1  0.99433248  -0.00204844  0.32941720  1
  Fe  Fe3  1  0.99559064  0.32894333  0.99641386  1
  Cr  Cr4  1  0.16471007  0.49613348  0.16526355  1
  Fe  Fe5  1  0.99656409  0.32801351  0.33066294  1
  Cr  Cr6  1  -0.00260055  0.66457342  0.99550503  1
  Fe  Fe7  1  0.16458607  0.83091220  0.16360815  1
  Cr  Cr8  1  -0.00194791  0.66406645  0.33123432  1
  Fe  Fe9  1  0.33051648  0.99544631  0.99656051  1
  Cr  Cr10  1  0.49729173  0.16331086  0.16294689  1
  Cr  Cr11  1  0.33113228  0.99556435  0.32919621  1
  Fe  Fe12  1  0.33093747  0.33033984  0.99602908  1
  Cr  Cr13  1  0.49742612  0.49816383  0.16382469  1
  Fe  Fe14  1  0.32918097  0.33116992  0.33066346  1
  Fe  Fe15  1  0.33148405  0.66484899  0.99647694  1
  Fe  Fe16  1  0.49631817  0.82959876  0.16310207  1
  Fe  Fe17  1  0.33061553  0.66401132  0.33021623  1
  Fe  Fe18  1  0.66365421  0.99676277  0.99601391  1
  Fe  Fe19  1  0.83060992  0.16341970  0.16395434  1
  Fe  Fe20  1  0.66574494  0.99633457  0.33066270  1
  Fe  Fe21  1  0.66411245  0.32990674  0.99559650  1
  Cr  Cr22  1  0.82850773  0.49624833  0.16281154  1
  Fe  Fe23  1  0.66489049  0.32884721  0.33021086  1
  Fe  Fe24  1  0.66225574  0.66397377  0.99559714  1
  Cr  Cr25  1  0.82926913  0.83182080  0.16462647  1
  Fe  Fe26  1  0.66258231  0.66546717  0.33065374  1
  Cr  Cr27  1  0.16273064  0.16518179  0.49726524  1
  Cr  Cr28  1  0.99550378  0.99644179  0.66358165  1
  Cr  Cr29  1  0.16445337  0.16263501  0.83049041  1
  Fe  Fe30  1  0.16458858  0.49586017  0.49690296  1
  Fe  Fe31  1  0.99602830  0.33025419  0.66356176  1
  Cr  Cr32  1  0.16400473  0.49612579  0.82882358  1
  Cr  Cr33  1  0.16361514  0.83037629  0.49726950  1
  Cr  Cr34  1  0.99679127  0.66298288  0.66390658  1
  Fe  Fe35  1  0.16484012  0.83065933  0.83052782  1
  Cr  Cr36  1  0.49721957  0.16282568  0.49821135  1
  Fe  Fe37  1  0.33183588  0.99589108  0.66431926  1
  Fe  Fe38  1  0.49758197  0.16368952  0.83020584  1
  Cr  Cr39  1  0.49629897  0.49816132  0.49618866  1
  Fe  Fe40  1  0.33037102  0.33065200  0.66395107  1
  Fe  Fe41  1  0.49761037  0.49674880  0.83022186  1
  Fe  Fe42  1  0.49820120  0.82972968  0.49732847  1
  Fe  Fe43  1  0.33136167  0.66409895  0.66394999  1
  Fe  Fe44  1  0.49660611  0.83020316  0.83020615  1
  Fe  Fe45  1  0.83017433  0.16273413  0.49602743  1
  Fe  Fe46  1  0.66320538  0.99632198  0.66397123  1
  Fe  Fe47  1  0.82909240  0.16412329  0.83065614  1
  Cr  Cr48  1  0.82997148  0.49728719  0.49688274  1
  Fe  Fe49  1  0.66424349  0.32978152  0.66483184  1
  Fe  Fe50  1  0.82862876  0.49588469  0.83022163  1
  Fe  Fe51  1  0.82827910  0.83203086  0.49591756  1
  Fe  Fe52  1  0.66281665  0.66453879  0.66438914  1
  Fe  Fe53  1  0.82919190  0.83063415  0.83077172  1
" 