1750,Ni2Fe46Cr50_14,-216.460342540031, 177.501159490219,Ni2Fe46Cr50,"# generated using pymatgen
 data_Cr28Fe25Ni
_symmetry_space_group_name_H-M   'P 1'
_cell_length_a   7.52756354
_cell_length_b   7.52756354
_cell_length_c   10.64558244
_cell_angle_alpha   90.00000000
_cell_angle_beta   90.00000000
_cell_angle_gamma   90.00000000
_symmetry_Int_Tables_number   1
_chemical_formula_structural   Cr28Fe25Ni
_chemical_formula_sum   'Cr28 Fe25 Ni1'
_cell_volume   603.22354871
_cell_formula_units_Z   1
loop_
 _symmetry_equiv_pos_site_id
 _symmetry_equiv_pos_as_xyz
  1  'x, y, z'
loop_
 _atom_site_type_symbol
 _atom_site_label
 _atom_site_symmetry_multiplicity
 _atom_site_fract_x
 _atom_site_fract_y
 _atom_site_fract_z
 _atom_site_occupancy
  Cr  Cr0  1  0.99429424  0.99495996  -0.00287835  1
  Cr  Cr1  1  0.16241773  0.16424408  0.16110692  1
  Fe  Fe2  1  0.99402184  0.99519065  0.33041424  1
  Fe  Fe3  1  0.99433243  0.33045768  -0.00390579  1
  Cr  Cr4  1  0.16188317  0.49634480  0.15880194  1
  Cr  Cr5  1  0.99303701  0.32971899  0.32672325  1
  Fe  Fe6  1  0.99425307  0.66160685  -0.00366989  1
  Cr  Cr7  1  0.16148082  0.82621560  0.16686855  1
  Fe  Fe8  1  0.99336497  0.66274492  0.33030688  1
  Cr  Cr9  1  0.32847787  0.99257433  0.99391698  1
  Cr  Cr10  1  0.49666675  0.16214190  0.16143850  1
  Cr  Cr11  1  0.32722000  0.99323361  0.33205584  1
  Ni  Ni12  1  0.33060321  0.33199977  0.99546022  1
  Fe  Fe13  1  0.49465475  0.49683066  0.16183118  1
  Cr  Cr14  1  0.33128234  0.33145184  0.33077677  1
  Fe  Fe15  1  0.32952875  0.66109186  0.99544419  1
  Cr  Cr16  1  0.49887447  0.82737751  0.16020066  1
  Fe  Fe17  1  0.33105782  0.66071233  0.33038804  1
  Fe  Fe18  1  0.66405712  -0.00372666  0.99458504  1
  Fe  Fe19  1  0.82997972  0.16152087  0.16202429  1
  Cr  Cr20  1  0.66486925  -0.00313299  0.32713111  1
  Cr  Cr21  1  0.66568154  0.33098158  -0.00105802  1
  Fe  Fe22  1  0.82931169  0.49961166  0.16273182  1
  Cr  Cr23  1  0.66343075  0.33329232  0.32960959  1
  Cr  Cr24  1  0.66342303  0.66257531  0.99481616  1
  Fe  Fe25  1  0.83060632  0.82775778  0.16311841  1
  Fe  Fe26  1  0.66392760  0.66205733  0.32850068  1
  Cr  Cr27  1  0.16156102  0.16420363  0.49647293  1
  Cr  Cr28  1  -0.00399880  0.99432572  0.66038316  1
  Cr  Cr29  1  0.16277978  0.16558009  0.83032826  1
  Cr  Cr30  1  0.16023525  0.49661689  0.49820428  1
  Cr  Cr31  1  0.99240485  0.33057764  0.66529781  1
  Cr  Cr32  1  0.15997492  0.49550053  0.83161710  1
  Fe  Fe33  1  0.16047774  0.82667989  0.49441148  1
  Fe  Fe34  1  0.99173127  0.66291803  0.66242884  1
  Cr  Cr35  1  0.15956137  0.82611104  0.82867006  1
  Fe  Fe36  1  0.49747324  0.16284325  0.49654989  1
  Cr  Cr37  1  0.32845395  0.99417092  0.66190627  1
  Cr  Cr38  1  0.49766697  0.16260048  0.82914739  1
  Fe  Fe39  1  0.49655842  0.49765771  0.49671819  1
  Fe  Fe40  1  0.33003335  0.32928531  0.66220642  1
  Cr  Cr41  1  0.49617581  0.49553280  0.82789371  1
  Cr  Cr42  1  0.50151038  0.82840981  0.49653708  1
  Cr  Cr43  1  0.32929052  0.66336576  0.66330239  1
  Fe  Fe44  1  0.49722201  0.82774008  0.82998523  1
  Fe  Fe45  1  0.82851724  0.16157732  0.49529833  1
  Cr  Cr46  1  0.66432648  0.99570389  0.66663734  1
  Fe  Fe47  1  0.82972250  0.16362422  0.83077212  1
  Fe  Fe48  1  0.82877610  0.50025772  0.49535419  1
  Cr  Cr49  1  0.66414476  0.33218826  0.65848910  1
  Fe  Fe50  1  0.82905466  0.49745273  0.82965665  1
  Fe  Fe51  1  0.83146032  0.82729636  0.49495963  1
  Fe  Fe52  1  0.66639848  0.66333623  0.66331115  1
  Fe  Fe53  1  0.82868958  0.82754952  0.82966220  1
" 