732,Ni2Fe50Cr47_19,-216.994845673725, 175.253844960771,Ni2Fe50Cr47,"# generated using pymatgen
 data_Cr26Fe27Ni
_symmetry_space_group_name_H-M   'P 1'
_cell_length_a   7.52454905
_cell_length_b   7.52454905
_cell_length_c   10.64131932
_cell_angle_alpha   90.00000000
_cell_angle_beta   90.00000000
_cell_angle_gamma   90.00000000
_symmetry_Int_Tables_number   1
_chemical_formula_structural   Cr26Fe27Ni
_chemical_formula_sum   'Cr26 Fe27 Ni1'
_cell_volume   602.49913922
_cell_formula_units_Z   1
loop_
 _symmetry_equiv_pos_site_id
 _symmetry_equiv_pos_as_xyz
  1  'x, y, z'
loop_
 _atom_site_type_symbol
 _atom_site_label
 _atom_site_symmetry_multiplicity
 _atom_site_fract_x
 _atom_site_fract_y
 _atom_site_fract_z
 _atom_site_occupancy
  Fe  Fe0  1  0.99512596  0.99601375  -0.00191235  1
  Fe  Fe1  1  0.16001152  0.16074520  0.16388516  1
  Fe  Fe2  1  0.99570746  -0.00339197  0.32722538  1
  Cr  Cr3  1  0.99550611  0.33152485  -0.00070622  1
  Fe  Fe4  1  0.16197112  0.49785818  0.16295597  1
  Fe  Fe5  1  -0.00350965  0.32800052  0.32831048  1
  Cr  Cr6  1  0.99457142  0.66429371  0.99442195  1
  Fe  Fe7  1  0.16057847  0.83002123  0.16285343  1
  Cr  Cr8  1  0.99335763  0.66087021  0.33167376  1
  Cr  Cr9  1  0.33136044  -0.00380352  0.99571813  1
  Fe  Fe10  1  0.50037664  0.16143515  0.16346458  1
  Cr  Cr11  1  0.33350903  -0.00141859  0.33091738  1
  Cr  Cr12  1  0.32880688  0.32620695  -0.00043718  1
  Cr  Cr13  1  0.49626242  0.49972596  0.15976452  1
  Cr  Cr14  1  0.32901784  0.32681140  0.32716617  1
  Fe  Fe15  1  0.32834985  0.66469211  0.99546078  1
  Cr  Cr16  1  0.49793365  0.82631858  0.16267386  1
  Cr  Cr17  1  0.32550798  0.66335683  0.33006117  1
  Fe  Fe18  1  0.66517309  0.99338739  0.99567233  1
  Fe  Fe19  1  0.82859503  0.15911737  0.16466924  1
  Fe  Fe20  1  0.66481706  0.99575801  0.32966032  1
  Cr  Cr21  1  0.66408187  0.32634080  0.99523917  1
  Cr  Cr22  1  0.82596440  0.49565333  0.16505939  1
  Fe  Fe23  1  0.66329771  0.32799631  0.32923604  1
  Fe  Fe24  1  0.66400520  0.66619277  0.99444690  1
  Fe  Fe25  1  0.82960070  0.83149580  0.16310253  1
  Fe  Fe26  1  0.66287593  0.66466139  0.33136009  1
  Cr  Cr27  1  0.15903977  0.16309632  0.50054860  1
  Fe  Fe28  1  0.99362491  0.99225517  0.66312691  1
  Cr  Cr29  1  0.15860477  0.16070371  0.82510325  1
  Fe  Fe30  1  0.16091685  0.49337910  0.49705250  1
  Fe  Fe31  1  0.99376618  0.33146687  0.66221198  1
  Cr  Cr32  1  0.16504313  0.49492099  0.82834670  1
  Cr  Cr33  1  0.16126167  0.83198448  0.49702896  1
  Cr  Cr34  1  0.99307626  0.66092610  0.66248663  1
  Fe  Fe35  1  0.16388972  0.83056296  0.82964336  1
  Fe  Fe36  1  0.49774196  0.16421930  0.49602674  1
  Cr  Cr37  1  0.33324490  -0.00284479  0.66197384  1
  Cr  Cr38  1  0.49710498  0.16398455  0.82734201  1
  Cr  Cr39  1  0.49763814  0.49812969  0.49562419  1
  Fe  Fe40  1  0.33091816  0.33128757  0.66131860  1
  Cr  Cr41  1  0.49735303  0.50025720  0.83275843  1
  Fe  Fe42  1  0.49934451  0.83069267  0.49510404  1
  Cr  Cr43  1  0.32849153  0.66601851  0.66271248  1
  Ni  Ni44  1  0.49822871  0.82696914  0.83181807  1
  Cr  Cr45  1  0.83124300  0.16243436  0.49531749  1
  Cr  Cr46  1  0.66096509  0.99584433  0.66213975  1
  Cr  Cr47  1  0.83293359  0.16135730  0.82891880  1
  Fe  Fe48  1  0.83055320  0.49428870  0.49488114  1
  Fe  Fe49  1  0.66401974  0.33099566  0.66232158  1
  Fe  Fe50  1  0.82859406  0.49624492  0.82964528  1
  Fe  Fe51  1  0.82790894  0.83023853  0.49442773  1
  Cr  Cr52  1  0.66724796  0.66412025  0.66298766  1
  Fe  Fe53  1  0.82805966  0.83027286  0.83086046  1
" 