7572,Ni2Fe50Cr47_6,-217.377784755228, 168.839727641672,Ni2Fe50Cr47,"# generated using pymatgen
 data_Cr26Fe27Ni
_symmetry_space_group_name_H-M   'P 1'
_cell_length_a   7.53276480
_cell_length_b   7.53276480
_cell_length_c   10.65293815
_cell_angle_alpha   90.00000000
_cell_angle_beta   90.00000000
_cell_angle_gamma   90.00000000
_symmetry_Int_Tables_number   1
_chemical_formula_structural   Cr26Fe27Ni
_chemical_formula_sum   'Cr26 Fe27 Ni1'
_cell_volume   604.47482809
_cell_formula_units_Z   1
loop_
 _symmetry_equiv_pos_site_id
 _symmetry_equiv_pos_as_xyz
  1  'x, y, z'
loop_
 _atom_site_type_symbol
 _atom_site_label
 _atom_site_symmetry_multiplicity
 _atom_site_fract_x
 _atom_site_fract_y
 _atom_site_fract_z
 _atom_site_occupancy
  Cr  Cr0  1  -0.00190292  0.99435160  0.99161682  1
  Fe  Fe1  1  0.16373807  0.16241823  0.16199173  1
  Cr  Cr2  1  -0.00226232  -0.00331951  0.32879078  1
  Fe  Fe3  1  -0.00248765  0.32857473  -0.00226158  1
  Fe  Fe4  1  0.15950234  0.49542371  0.16220311  1
  Fe  Fe5  1  -0.00392294  0.33139341  0.32942722  1
  Fe  Fe6  1  -0.00185838  0.66317756  -0.00156164  1
  Fe  Fe7  1  0.16210282  0.82845710  0.16246417  1
  Fe  Fe8  1  0.99551939  0.65951520  0.32786042  1
  Ni  Ni9  1  0.32538023  0.99341357  -0.00039201  1
  Fe  Fe10  1  0.49347694  0.15973352  0.16256809  1
  Fe  Fe11  1  0.32989195  0.99510364  0.32666837  1
  Cr  Cr12  1  0.32953896  0.32945575  -0.00386553  1
  Cr  Cr13  1  0.49337149  0.49559355  0.15968521  1
  Cr  Cr14  1  0.32718817  0.32949360  0.33138022  1
  Fe  Fe15  1  0.32649417  0.66650900  -0.00309877  1
  Fe  Fe16  1  0.49492256  0.83100217  0.16197742  1
  Cr  Cr17  1  0.32895518  0.66257298  0.32925682  1
  Cr  Cr18  1  0.66389446  -0.00400028  -0.00425372  1
  Cr  Cr19  1  0.83021755  0.16207650  0.16252310  1
  Fe  Fe20  1  0.66116599  0.99463461  0.32722995  1
  Cr  Cr21  1  0.66473341  0.32975426  -0.00373008  1
  Fe  Fe22  1  0.83258716  0.49717312  0.16202680  1
  Cr  Cr23  1  0.66331698  0.33067717  0.32644967  1
  Cr  Cr24  1  0.66247310  0.66144892  -0.00318889  1
  Fe  Fe25  1  0.83056363  0.82758901  0.16315941  1
  Cr  Cr26  1  0.66192950  0.66103715  0.32940560  1
  Fe  Fe27  1  0.15945280  0.16319314  0.49617480  1
  Cr  Cr28  1  0.99368954  -0.00276879  0.66567749  1
  Cr  Cr29  1  0.16343760  0.16489599  0.82880557  1
  Fe  Fe30  1  0.15987720  0.49425187  0.49634605  1
  Fe  Fe31  1  -0.00306633  0.33048320  0.66077762  1
  Cr  Cr32  1  0.16148032  0.49707410  0.83005781  1
  Cr  Cr33  1  0.16034553  0.82767292  0.49523999  1
  Fe  Fe34  1  0.99561488  0.66054390  0.66109949  1
  Fe  Fe35  1  0.16432920  0.82738857  0.83019355  1
  Cr  Cr36  1  0.49506265  0.16025611  0.49323559  1
  Cr  Cr37  1  0.32464693  0.99395419  0.66175959  1
  Cr  Cr38  1  0.49437880  0.16075244  0.83154680  1
  Fe  Fe39  1  0.49689938  0.49593191  0.49684709  1
  Fe  Fe40  1  0.32762646  0.32789522  0.65963244  1
  Cr  Cr41  1  0.49429773  0.49599145  0.82827847  1
  Fe  Fe42  1  0.49546475  0.82885383  0.49573905  1
  Cr  Cr43  1  0.32973652  0.65977779  0.66131747  1
  Cr  Cr44  1  0.49571532  0.83001510  0.82841591  1
  Fe  Fe45  1  0.82964194  0.16350818  0.49505230  1
  Fe  Fe46  1  0.66081400  -0.00349345  0.66144990  1
  Fe  Fe47  1  0.82918080  0.16441923  0.82898083  1
  Fe  Fe48  1  0.83110522  0.49459537  0.49612615  1
  Cr  Cr49  1  0.66313321  0.33040861  0.66406083  1
  Cr  Cr50  1  0.83261412  0.49677521  0.83119150  1
  Cr  Cr51  1  0.82717624  0.82884187  0.49519421  1
  Fe  Fe52  1  0.66330214  0.66278971  0.66035009  1
  Cr  Cr53  1  0.82996037  0.82717918  0.82656385  1
" 