6070,Ni2Fe57Cr40_6,-218.685789762621, 163.430345673502,Ni2Fe57Cr40,"# generated using pymatgen
 data_Cr22Fe31Ni
_symmetry_space_group_name_H-M   'P 1'
_cell_length_a   7.51549876
_cell_length_b   7.51549876
_cell_length_c   10.62852028
_cell_angle_alpha   90.00000000
_cell_angle_beta   90.00000000
_cell_angle_gamma   90.00000000
_symmetry_Int_Tables_number   1
_chemical_formula_structural   Cr22Fe31Ni
_chemical_formula_sum   'Cr22 Fe31 Ni1'
_cell_volume   600.32775206
_cell_formula_units_Z   1
loop_
 _symmetry_equiv_pos_site_id
 _symmetry_equiv_pos_as_xyz
  1  'x, y, z'
loop_
 _atom_site_type_symbol
 _atom_site_label
 _atom_site_symmetry_multiplicity
 _atom_site_fract_x
 _atom_site_fract_y
 _atom_site_fract_z
 _atom_site_occupancy
  Fe  Fe0  1  0.99654765  -0.00117468  0.99515415  1
  Cr  Cr1  1  0.16433575  0.16579358  0.16135411  1
  Cr  Cr2  1  -0.00075657  0.99560170  0.32981738  1
  Fe  Fe3  1  0.99608756  0.33219696  0.99472628  1
  Cr  Cr4  1  0.16548700  0.49429300  0.16161484  1
  Fe  Fe5  1  0.00108742  0.33005520  0.33123950  1
  Cr  Cr6  1  0.99624559  0.66684277  0.99673308  1
  Fe  Fe7  1  0.16371184  0.83148587  0.16060024  1
  Cr  Cr8  1  -0.00204754  0.66573494  0.32908574  1
  Fe  Fe9  1  0.33028952  -0.00309439  0.99563214  1
  Fe  Fe10  1  0.49709683  0.16540770  0.16136251  1
  Cr  Cr11  1  0.32877449  -0.00159704  0.33207896  1
  Ni  Ni12  1  0.33432779  0.32853935  0.99426661  1
  Fe  Fe13  1  0.49640228  0.49227923  0.16129043  1
  Cr  Cr14  1  0.33424113  0.32923784  0.33349385  1
  Fe  Fe15  1  0.33070523  0.66124596  0.99550618  1
  Cr  Cr16  1  0.49471884  0.83059505  0.16249036  1
  Cr  Cr17  1  0.32974444  0.66286273  0.32909377  1
  Fe  Fe18  1  0.66245950  -0.00123424  0.99506076  1
  Cr  Cr19  1  0.82985347  0.16475567  0.16433541  1
  Fe  Fe20  1  0.65986883  -0.00193594  0.33069829  1
  Fe  Fe21  1  0.66294160  0.32832076  0.99465929  1
  Cr  Cr22  1  0.83087025  0.49323660  0.16649804  1
  Fe  Fe23  1  0.66133471  0.32742875  0.33096337  1
  Cr  Cr24  1  0.66476709  0.65893581  0.99612740  1
  Cr  Cr25  1  0.82598654  0.83239002  0.16393308  1
  Cr  Cr26  1  0.66141468  0.65918328  0.32981177  1
  Fe  Fe27  1  0.16219056  0.16673305  0.49825815  1
  Cr  Cr28  1  -0.00320267  0.99548803  0.66509794  1
  Cr  Cr29  1  0.16378703  0.16702364  0.83080923  1
  Fe  Fe30  1  0.16452413  0.49653676  0.49871754  1
  Fe  Fe31  1  -0.00244476  0.33095521  0.66422219  1
  Fe  Fe32  1  0.16564385  0.49845644  0.83084115  1
  Fe  Fe33  1  0.16237976  0.82729402  0.49838402  1
  Fe  Fe34  1  -0.00223706  0.66137128  0.66519830  1
  Fe  Fe35  1  0.16514947  0.82985067  0.82984114  1
  Fe  Fe36  1  0.49979050  0.16386989  0.49820340  1
  Cr  Cr37  1  0.32943780  0.00003309  0.66013772  1
  Fe  Fe38  1  0.49616896  0.16331343  0.83135196  1
  Fe  Fe39  1  0.49715883  0.49748192  0.49956097  1
  Fe  Fe40  1  0.32859877  0.33242502  0.66360813  1
  Fe  Fe41  1  0.49334361  0.49545490  0.83064504  1
  Fe  Fe42  1  0.49582375  0.82891047  0.49793031  1
  Fe  Fe43  1  0.32940953  0.66182795  0.66255253  1
  Cr  Cr44  1  0.49675584  0.82970008  0.82792458  1
  Cr  Cr45  1  0.83135344  0.16397336  0.49513094  1
  Fe  Fe46  1  0.66303992  -0.00151859  0.66438773  1
  Fe  Fe47  1  0.82869266  0.16295299  0.83156955  1
  Cr  Cr48  1  0.83253739  0.49573256  0.49580090  1
  Cr  Cr49  1  0.66116506  0.33083155  0.66681553  1
  Fe  Fe50  1  0.83210659  0.49615221  0.82916196  1
  Cr  Cr51  1  0.82497316  0.83001943  0.49806714  1
  Fe  Fe52  1  0.66324658  0.66294846  0.66454358  1
  Fe  Fe53  1  0.83004694  0.83073128  0.82954637  1
" 