6318,Ni2Fe50Cr47_4,-217.213867402205, 169.553989241947,Ni2Fe50Cr47,"# generated using pymatgen
 data_Cr26Fe27Ni
_symmetry_space_group_name_H-M   'P 1'
_cell_length_a   7.52922236
_cell_length_b   7.52922236
_cell_length_c   10.64792837
_cell_angle_alpha   90.00000000
_cell_angle_beta   90.00000000
_cell_angle_gamma   90.00000000
_symmetry_Int_Tables_number   1
_chemical_formula_structural   Cr26Fe27Ni
_chemical_formula_sum   'Cr26 Fe27 Ni1'
_cell_volume   603.62242691
_cell_formula_units_Z   1
loop_
 _symmetry_equiv_pos_site_id
 _symmetry_equiv_pos_as_xyz
  1  'x, y, z'
loop_
 _atom_site_type_symbol
 _atom_site_label
 _atom_site_symmetry_multiplicity
 _atom_site_fract_x
 _atom_site_fract_y
 _atom_site_fract_z
 _atom_site_occupancy
  Cr  Cr0  1  0.99542123  -0.00264294  -0.00232056  1
  Fe  Fe1  1  0.16191689  0.16398002  0.16524092  1
  Fe  Fe2  1  0.99572919  -0.00306333  0.32910380  1
  Cr  Cr3  1  -0.00277624  0.33017527  0.99151294  1
  Cr  Cr4  1  0.16239519  0.49648693  0.16323098  1
  Fe  Fe5  1  -0.00386872  0.32820875  0.32926774  1
  Fe  Fe6  1  -0.00236163  0.66202598  0.99480044  1
  Cr  Cr7  1  0.16060914  0.82935056  0.16209830  1
  Cr  Cr8  1  0.99155813  0.66329939  0.32958757  1
  Cr  Cr9  1  0.32887478  -0.00350323  0.99298884  1
  Cr  Cr10  1  0.49710170  0.16567552  0.16237797  1
  Cr  Cr11  1  0.33101685  -0.00266330  0.32948462  1
  Cr  Cr12  1  0.32711414  0.33117318  -0.00144779  1
  Fe  Fe13  1  0.49668645  0.49443224  0.16360650  1
  Ni  Ni14  1  0.33088261  0.33043279  0.32861195  1
  Fe  Fe15  1  0.32717127  0.66278423  0.99430021  1
  Cr  Cr16  1  0.49500346  0.82856929  0.16051226  1
  Cr  Cr17  1  0.33266281  0.65920139  0.32841547  1
  Cr  Cr18  1  0.66355175  0.99428573  0.99507340  1
  Cr  Cr19  1  0.82871069  0.16351091  0.16295496  1
  Cr  Cr20  1  0.66522824  0.99133480  0.33015779  1
  Fe  Fe21  1  0.66357990  0.32921226  0.99500669  1
  Cr  Cr22  1  0.82763346  0.49487291  0.16176364  1
  Fe  Fe23  1  0.66039106  0.33106231  0.33140877  1
  Cr  Cr24  1  0.66226669  0.66255177  -0.00048367  1
  Fe  Fe25  1  0.82966790  0.82863664  0.16333062  1
  Fe  Fe26  1  0.66117145  0.65991072  0.33037710  1
  Cr  Cr27  1  0.16268066  0.16261434  0.49172095  1
  Cr  Cr28  1  0.99451806  -0.00217467  0.66249709  1
  Fe  Fe29  1  0.16307842  0.16156707  0.82826248  1
  Cr  Cr30  1  0.16162893  0.49693064  0.49571149  1
  Cr  Cr31  1  0.99508056  0.33109789  0.66487328  1
  Fe  Fe32  1  0.16247170  0.49973518  0.82883890  1
  Cr  Cr33  1  0.16235404  0.82854463  0.49831473  1
  Fe  Fe34  1  0.99469640  0.66202460  0.66321393  1
  Fe  Fe35  1  0.16468573  0.82709730  0.82813825  1
  Fe  Fe36  1  0.49678421  0.16490602  0.49524496  1
  Fe  Fe37  1  0.32922400  0.99506779  0.66315771  1
  Cr  Cr38  1  0.49846423  0.16285917  0.82853177  1
  Fe  Fe39  1  0.49750636  0.49478754  0.49582259  1
  Cr  Cr40  1  0.32788550  0.32987430  0.66117539  1
  Cr  Cr41  1  0.49739590  0.49547763  0.83121870  1
  Fe  Fe42  1  0.49604191  0.82727997  0.49678722  1
  Fe  Fe43  1  0.33044814  0.66416006  0.66346382  1
  Fe  Fe44  1  0.49448436  0.82687018  0.82800656  1
  Fe  Fe45  1  0.82874674  0.16441682  0.49485536  1
  Cr  Cr46  1  0.66128223  0.99382514  0.66166658  1
  Fe  Fe47  1  0.82836506  0.16408283  0.82908003  1
  Fe  Fe48  1  0.82695869  0.49553675  0.49599742  1
  Fe  Fe49  1  0.66355262  0.33020566  0.66101596  1
  Fe  Fe50  1  0.82829091  0.49622369  0.82919085  1
  Fe  Fe51  1  0.82856741  0.82739152  0.49685829  1
  Fe  Fe52  1  0.66297812  0.66045449  0.66153365  1
  Cr  Cr53  1  0.83153034  0.82688228  0.83090022  1
" 