6997,Ni2Fe46Cr50_12,-216.496457418088, 179.565604507066,Ni2Fe46Cr50,"# generated using pymatgen
 data_Cr28Fe25Ni
_symmetry_space_group_name_H-M   'P 1'
_cell_length_a   7.53663489
_cell_length_b   7.53663489
_cell_length_c   10.65841127
_cell_angle_alpha   90.00000000
_cell_angle_beta   90.00000000
_cell_angle_gamma   90.00000000
_symmetry_Int_Tables_number   1
_chemical_formula_structural   Cr28Fe25Ni
_chemical_formula_sum   'Cr28 Fe25 Ni1'
_cell_volume   605.40698435
_cell_formula_units_Z   1
loop_
 _symmetry_equiv_pos_site_id
 _symmetry_equiv_pos_as_xyz
  1  'x, y, z'
loop_
 _atom_site_type_symbol
 _atom_site_label
 _atom_site_symmetry_multiplicity
 _atom_site_fract_x
 _atom_site_fract_y
 _atom_site_fract_z
 _atom_site_occupancy
  Fe  Fe0  1  0.99370323  0.99428369  0.99475952  1
  Cr  Cr1  1  0.16082407  0.15752613  0.15989043  1
  Fe  Fe2  1  -0.00397066  0.99239388  0.32944599  1
  Cr  Cr3  1  -0.00071635  0.32699657  -0.00403276  1
  Fe  Fe4  1  0.16239737  0.49437684  0.16365521  1
  Cr  Cr5  1  -0.00247296  0.32944174  0.33165297  1
  Cr  Cr6  1  0.99335140  0.66199655  0.00017396  1
  Cr  Cr7  1  0.16292964  0.82766237  0.16234963  1
  Fe  Fe8  1  -0.00229954  0.66246368  0.32938571  1
  Fe  Fe9  1  0.32939379  -0.00374124  -0.00452090  1
  Fe  Fe10  1  0.49420885  0.16023806  0.16297181  1
  Fe  Fe11  1  0.32782954  0.99347338  0.32739129  1
  Fe  Fe12  1  0.33235396  0.32519950  -0.00458790  1
  Cr  Cr13  1  0.49781926  0.49452844  0.15961888  1
  Cr  Cr14  1  0.32715879  0.32857807  0.32752807  1
  Cr  Cr15  1  0.32992156  0.66015034  -0.00144799  1
  Fe  Fe16  1  0.49437359  0.83161938  0.16417801  1
  Ni  Ni17  1  0.32835672  0.66299494  0.32751678  1
  Cr  Cr18  1  0.66160713  0.99481786  -0.00322188  1
  Cr  Cr19  1  0.82667978  0.16456514  0.16391017  1
  Fe  Fe20  1  0.66060343  -0.00406367  0.32643128  1
  Fe  Fe21  1  0.66199685  0.32825654  0.99464224  1
  Fe  Fe22  1  0.83015521  0.49603583  0.16313181  1
  Fe  Fe23  1  0.66120909  0.33231774  0.32779863  1
  Cr  Cr24  1  0.66229269  0.66586083  0.99429343  1
  Fe  Fe25  1  0.82960024  0.83122295  0.16415728  1
  Cr  Cr26  1  0.66251275  0.66666321  0.32708141  1
  Fe  Fe27  1  0.16424183  0.15740298  0.49361036  1
  Cr  Cr28  1  0.99495517  -0.00290754  0.66356356  1
  Fe  Fe29  1  0.16392143  0.16137937  0.83114693  1
  Fe  Fe30  1  0.16429206  0.49801529  0.49266952  1
  Cr  Cr31  1  -0.00081178  0.32743614  0.65849070  1
  Cr  Cr32  1  0.16223859  0.49719365  0.83109440  1
  Fe  Fe33  1  0.16069416  0.83013281  0.49192555  1
  Cr  Cr34  1  0.99439394  0.66332497  0.65725651  1
  Cr  Cr35  1  0.16106537  0.83111042  0.82970381  1
  Cr  Cr36  1  0.49656925  0.16120670  0.49130416  1
  Fe  Fe37  1  0.32692993  -0.00343607  0.66103651  1
  Fe  Fe38  1  0.49418480  0.16202002  0.83060258  1
  Cr  Cr39  1  0.49751756  0.49585137  0.49822809  1
  Cr  Cr40  1  0.32635351  0.32571635  0.66315948  1
  Fe  Fe41  1  0.49424936  0.49293395  0.83037869  1
  Cr  Cr42  1  0.49061483  0.82913908  0.49424606  1
  Cr  Cr43  1  0.32765700  0.66057935  0.66063396  1
  Cr  Cr44  1  0.49081779  0.82881238  0.82695154  1
  Cr  Cr45  1  0.82856508  0.16356777  0.49236896  1
  Cr  Cr46  1  0.66204768  0.99417189  0.66311894  1
  Fe  Fe47  1  0.82973051  0.16007001  0.83071814  1
  Fe  Fe48  1  0.82810829  0.49760620  0.49412951  1
  Cr  Cr49  1  0.66158688  0.32655239  0.66375637  1
  Cr  Cr50  1  0.82774177  0.49224571  0.82820545  1
  Fe  Fe51  1  0.82797240  0.83050082  0.49298180  1
  Cr  Cr52  1  0.66283400  0.66505728  0.66535413  1
  Fe  Fe53  1  0.83041268  0.82916142  0.82991473  1
" 