4728,Ni2Fe46Cr50_6,-216.370031037216, 179.432587906777,Ni2Fe46Cr50,"# generated using pymatgen
 data_Cr28Fe25Ni
_symmetry_space_group_name_H-M   'P 1'
_cell_length_a   7.54019966
_cell_length_b   7.54019966
_cell_length_c   10.66345262
_cell_angle_alpha   90.00000000
_cell_angle_beta   90.00000000
_cell_angle_gamma   90.00000000
_symmetry_Int_Tables_number   1
_chemical_formula_structural   Cr28Fe25Ni
_chemical_formula_sum   'Cr28 Fe25 Ni1'
_cell_volume   606.26644878
_cell_formula_units_Z   1
loop_
 _symmetry_equiv_pos_site_id
 _symmetry_equiv_pos_as_xyz
  1  'x, y, z'
loop_
 _atom_site_type_symbol
 _atom_site_label
 _atom_site_symmetry_multiplicity
 _atom_site_fract_x
 _atom_site_fract_y
 _atom_site_fract_z
 _atom_site_occupancy
  Cr  Cr0  1  0.99305320  -0.00453415  0.99397542  1
  Fe  Fe1  1  0.16423607  0.16145327  0.16226747  1
  Cr  Cr2  1  -0.00411015  0.99506889  0.32917833  1
  Cr  Cr3  1  0.99349255  0.32551182  0.99450084  1
  Fe  Fe4  1  0.16346088  0.49460414  0.16124886  1
  Cr  Cr5  1  -0.00168981  0.32667039  0.32683090  1
  Cr  Cr6  1  -0.00361147  0.66422081  0.99287433  1
  Cr  Cr7  1  0.16557980  0.82879704  0.15951781  1
  Cr  Cr8  1  -0.00259798  0.66385741  0.33150597  1
  Fe  Fe9  1  0.32955119  -0.00469220  -0.00300272  1
  Fe  Fe10  1  0.49353105  0.15955921  0.16144171  1
  Ni  Ni11  1  0.32797857  -0.00296839  0.32704943  1
  Cr  Cr12  1  0.33202624  0.33034191  -0.00248274  1
  Fe  Fe13  1  0.49460421  0.49657273  0.16049914  1
  Fe  Fe14  1  0.32800574  0.32616908  0.32760902  1
  Fe  Fe15  1  0.33091972  0.66247767  -0.00439090  1
  Fe  Fe16  1  0.49415278  0.82958732  0.16042636  1
  Cr  Cr17  1  0.32965618  0.65955239  0.32738906  1
  Fe  Fe18  1  0.66119477  -0.00372216  -0.00358040  1
  Fe  Fe19  1  0.82736936  0.16116011  0.16054500  1
  Cr  Cr20  1  0.66122876  -0.00446285  0.32636342  1
  Fe  Fe21  1  0.66180463  0.32788781  0.99490735  1
  Cr  Cr22  1  0.82988973  0.49470147  0.16102937  1
  Cr  Cr23  1  0.65740819  0.32794588  0.32576867  1
  Fe  Fe24  1  0.66022620  0.66088507  0.99494612  1
  Cr  Cr25  1  0.82621594  0.82651699  0.16381804  1
  Cr  Cr26  1  0.65876099  0.66212608  0.33070277  1
  Fe  Fe27  1  0.16349099  0.16012557  0.49430692  1
  Cr  Cr28  1  0.99417457  0.99302353  0.66205032  1
  Cr  Cr29  1  0.16469280  0.16013759  0.82669012  1
  Fe  Fe30  1  0.16384325  0.49411397  0.49490753  1
  Cr  Cr31  1  -0.00483377  0.32690209  0.66384793  1
  Cr  Cr32  1  0.15973017  0.49602742  0.83031263  1
  Fe  Fe33  1  0.16383277  0.83116221  0.49435753  1
  Cr  Cr34  1  -0.00439798  0.66581671  0.66147396  1
  Fe  Fe35  1  0.16356591  0.82965048  0.82918969  1
  Cr  Cr36  1  0.49181561  0.15925218  0.49586490  1
  Fe  Fe37  1  0.32692648  0.99385716  0.66051768  1
  Cr  Cr38  1  0.49507677  0.15865683  0.82699208  1
  Fe  Fe39  1  0.49501162  0.49490933  0.49485759  1
  Cr  Cr40  1  0.33028069  0.33049411  0.65827213  1
  Fe  Fe41  1  0.49656173  0.49624837  0.83031027  1
  Cr  Cr42  1  0.49491066  0.83102581  0.49555694  1
  Cr  Cr43  1  0.33000714  0.66134243  0.66276657  1
  Cr  Cr44  1  0.49435050  0.82977116  0.83058731  1
  Cr  Cr45  1  0.82747382  0.16282281  0.49537352  1
  Fe  Fe46  1  0.66275267  0.99286441  0.66237342  1
  Fe  Fe47  1  0.82627966  0.16052000  0.82893083  1
  Cr  Cr48  1  0.82966763  0.49682800  0.49559418  1
  Cr  Cr49  1  0.65959944  0.32956690  0.66521718  1
  Fe  Fe50  1  0.82477465  0.49631914  0.82932579  1
  Fe  Fe51  1  0.82736788  0.82972328  0.49612667  1
  Fe  Fe52  1  0.66234266  0.66286205  0.66258494  1
  Fe  Fe53  1  0.82642099  0.82874536  0.82872935  1
" 