8026,Ni2Fe66Cr31_4,-220.068288265929, 160.919085312329,Ni2Fe66Cr31,"# generated using pymatgen
 data_Cr18Fe35Ni
_symmetry_space_group_name_H-M   'P 1'
_cell_length_a   7.49771765
_cell_length_b   7.49771765
_cell_length_c   10.60337399
_cell_angle_alpha   90.00000000
_cell_angle_beta   90.00000000
_cell_angle_gamma   90.00000000
_symmetry_Int_Tables_number   1
_chemical_formula_structural   Cr18Fe35Ni
_chemical_formula_sum   'Cr18 Fe35 Ni1'
_cell_volume   596.07683346
_cell_formula_units_Z   1
loop_
 _symmetry_equiv_pos_site_id
 _symmetry_equiv_pos_as_xyz
  1  'x, y, z'
loop_
 _atom_site_type_symbol
 _atom_site_label
 _atom_site_symmetry_multiplicity
 _atom_site_fract_x
 _atom_site_fract_y
 _atom_site_fract_z
 _atom_site_occupancy
  Cr  Cr0  1  -0.00161252  -0.00085934  0.00154202  1
  Fe  Fe1  1  0.16504246  0.16503452  0.16423100  1
  Fe  Fe2  1  0.99684329  -0.00092404  0.33107161  1
  Cr  Cr3  1  0.99736675  0.32946209  0.99658941  1
  Cr  Cr4  1  0.16707344  0.49872099  0.16473500  1
  Cr  Cr5  1  -0.00137929  0.32803316  0.33230903  1
  Fe  Fe6  1  -0.00094361  0.66461820  0.99753949  1
  Cr  Cr7  1  0.16303363  0.83042334  0.16286428  1
  Cr  Cr8  1  0.99675026  0.66575515  0.33107090  1
  Fe  Fe9  1  0.33129226  -0.00122468  0.99698408  1
  Cr  Cr10  1  0.49889849  0.16748277  0.16270816  1
  Cr  Cr11  1  0.32983518  -0.00128385  0.33241048  1
  Ni  Ni12  1  0.33252813  0.33152152  -0.00166664  1
  Fe  Fe13  1  0.49682436  0.49713307  0.16477523  1
  Fe  Fe14  1  0.33238683  0.33241129  0.33181854  1
  Fe  Fe15  1  0.33096810  0.66380168  0.99667559  1
  Cr  Cr16  1  0.49812393  0.83130555  0.16361586  1
  Fe  Fe17  1  0.33352476  0.66244548  0.33258698  1
  Fe  Fe18  1  0.66423996  -0.00021183  -0.00188459  1
  Fe  Fe19  1  0.83143039  0.16328363  0.16466524  1
  Cr  Cr20  1  0.66728052  0.99685270  0.33188926  1
  Fe  Fe21  1  0.66341363  0.33056586  0.99723727  1
  Cr  Cr22  1  0.82993079  0.49795957  0.16347217  1
  Fe  Fe23  1  0.66355832  0.33239704  0.33255337  1
  Cr  Cr24  1  0.66271403  0.66374256  0.99696899  1
  Fe  Fe25  1  0.83129274  0.83241520  0.16447234  1
  Fe  Fe26  1  0.66348292  0.66352177  0.33222975  1
  Fe  Fe27  1  0.16463955  0.16572913  0.49904769  1
  Fe  Fe28  1  -0.00203481  -0.00092860  0.66478056  1
  Fe  Fe29  1  0.16491339  0.16377065  0.83059991  1
  Fe  Fe30  1  0.16518832  0.49631801  0.49849411  1
  Fe  Fe31  1  -0.00138251  0.33090191  0.66404836  1
  Cr  Cr32  1  0.16312893  0.49874103  0.83141307  1
  Cr  Cr33  1  0.16307982  0.83112955  0.49835845  1
  Fe  Fe34  1  0.99615317  0.66388865  0.66393590  1
  Fe  Fe35  1  0.16584362  0.83251994  0.83129087  1
  Fe  Fe36  1  0.49724908  0.16502464  0.49851018  1
  Fe  Fe37  1  0.33145232  -0.00083778  0.66444404  1
  Cr  Cr38  1  0.49781872  0.16364393  0.83259711  1
  Fe  Fe39  1  0.49778023  0.49810561  0.49680972  1
  Fe  Fe40  1  0.33019288  0.33019486  0.66408449  1
  Fe  Fe41  1  0.49824650  0.49821671  0.83228220  1
  Fe  Fe42  1  0.49960279  0.83073476  0.49834512  1
  Cr  Cr43  1  0.33362600  0.66565874  0.66529326  1
  Fe  Fe44  1  0.49672213  0.83116069  0.83142362  1
  Fe  Fe45  1  0.83198176  0.16390203  0.49849278  1
  Fe  Fe46  1  0.66444247  0.99669937  0.66337450  1
  Fe  Fe47  1  0.83194497  0.16529412  0.83072067  1
  Fe  Fe48  1  0.83090105  0.49867740  0.49836128  1
  Cr  Cr49  1  0.66645783  0.33255592  0.66545188  1
  Fe  Fe50  1  0.83058622  0.49729251  0.83086447  1
  Fe  Fe51  1  0.83018692  0.83128052  0.49919154  1
  Fe  Fe52  1  0.66516120  0.66516090  0.66423362  1
  Cr  Cr53  1  0.83177196  0.83033566  0.82964001  1
" 