4053,Ni2Fe57Cr40_18,-218.7554160633, 160.871730960611,Ni2Fe57Cr40,"# generated using pymatgen
 data_Cr22Fe31Ni
_symmetry_space_group_name_H-M   'P 1'
_cell_length_a   7.52021825
_cell_length_b   7.52021825
_cell_length_c   10.63519464
_cell_angle_alpha   90.00000000
_cell_angle_beta   90.00000000
_cell_angle_gamma   90.00000000
_symmetry_Int_Tables_number   1
_chemical_formula_structural   Cr22Fe31Ni
_chemical_formula_sum   'Cr22 Fe31 Ni1'
_cell_volume   601.45942155
_cell_formula_units_Z   1
loop_
 _symmetry_equiv_pos_site_id
 _symmetry_equiv_pos_as_xyz
  1  'x, y, z'
loop_
 _atom_site_type_symbol
 _atom_site_label
 _atom_site_symmetry_multiplicity
 _atom_site_fract_x
 _atom_site_fract_y
 _atom_site_fract_z
 _atom_site_occupancy
  Cr  Cr0  1  -0.00267127  -0.00233763  0.99635464  1
  Cr  Cr1  1  0.16503363  0.16459210  0.16534870  1
  Fe  Fe2  1  -0.00257819  0.99525931  0.33210646  1
  Fe  Fe3  1  -0.00340024  0.32986053  0.99530592  1
  Cr  Cr4  1  0.16410926  0.49598870  0.16239416  1
  Fe  Fe5  1  -0.00259511  0.33121965  0.33235668  1
  Fe  Fe6  1  0.99552393  0.65993720  0.99544379  1
  Cr  Cr7  1  0.16358903  0.82929762  0.16180743  1
  Cr  Cr8  1  -0.00208483  0.66232571  0.33240252  1
  Fe  Fe9  1  0.33020717  -0.00093340  0.99449727  1
  Cr  Cr10  1  0.49471012  0.16474179  0.16423110  1
  Fe  Fe11  1  0.32956340  0.99485798  0.33117172  1
  Ni  Ni12  1  0.33016585  0.33136792  0.99229414  1
  Cr  Cr13  1  0.49686637  0.49679857  0.16211327  1
  Fe  Fe14  1  0.32978999  0.33265982  0.33119940  1
  Fe  Fe15  1  0.33214005  0.66380532  0.99464192  1
  Fe  Fe16  1  0.49478997  0.82995604  0.16225626  1
  Cr  Cr17  1  0.32912204  0.66463931  0.33345547  1
  Cr  Cr18  1  0.66116581  -0.00304923  0.99593911  1
  Cr  Cr19  1  0.83094570  0.16384571  0.16672571  1
  Cr  Cr20  1  0.66391706  0.99618312  0.33111186  1
  Fe  Fe21  1  0.66277154  0.33046093  0.99435609  1
  Fe  Fe22  1  0.83107203  0.49563384  0.16118390  1
  Cr  Cr23  1  0.66637160  0.33087411  0.33011438  1
  Fe  Fe24  1  0.66162656  0.66098956  0.99455160  1
  Cr  Cr25  1  0.82888418  0.82650111  0.16216674  1
  Cr  Cr26  1  0.66204712  0.66282580  0.33228343  1
  Cr  Cr27  1  0.16447104  0.16486277  0.49605311  1
  Fe  Fe28  1  -0.00230563  -0.00331677  0.66174661  1
  Fe  Fe29  1  0.16404703  0.16355427  0.82857127  1
  Fe  Fe30  1  0.16304330  0.49492182  0.49829697  1
  Fe  Fe31  1  -0.00248346  0.33081184  0.66247029  1
  Cr  Cr32  1  0.16316049  0.49585588  0.82924934  1
  Fe  Fe33  1  0.16225413  0.83237981  0.49874318  1
  Fe  Fe34  1  0.99477855  0.66097203  0.65986441  1
  Cr  Cr35  1  0.16153365  0.82939464  0.82936401  1
  Cr  Cr36  1  0.49637793  0.16542742  0.49587016  1
  Fe  Fe37  1  0.33056895  -0.00230438  0.66400340  1
  Fe  Fe38  1  0.49284799  0.16304050  0.82959983  1
  Fe  Fe39  1  0.49599770  0.49582493  0.49775847  1
  Fe  Fe40  1  0.32958025  0.32877630  0.66538269  1
  Fe  Fe41  1  0.49777856  0.49814798  0.83072097  1
  Fe  Fe42  1  0.49636530  0.83172810  0.49863240  1
  Cr  Cr43  1  0.32932722  0.66256761  0.66028603  1
  Fe  Fe44  1  0.49566805  0.82928155  0.82829957  1
  Fe  Fe45  1  0.83151896  0.16263377  0.49874642  1
  Fe  Fe46  1  0.66031960  0.99437493  0.66176988  1
  Cr  Cr47  1  0.82918559  0.16175158  0.82634228  1
  Fe  Fe48  1  0.83078791  0.49498354  0.49883218  1
  Cr  Cr49  1  0.66227645  0.32953992  0.66521209  1
  Fe  Fe50  1  0.82987766  0.49629167  0.82975857  1
  Fe  Fe51  1  0.83045465  0.83095517  0.49979883  1
  Fe  Fe52  1  0.66241888  0.66211950  0.66044436  1
  Cr  Cr53  1  0.82816680  0.82622244  0.82546929  1
" 