1904,Ni2Fe41Cr55_12,-214.857011785248, 182.589950877775,Ni2Fe41Cr55,"# generated using pymatgen
 data_Cr31Fe22Ni
_symmetry_space_group_name_H-M   'P 1'
_cell_length_a   7.55222308
_cell_length_b   7.55222308
_cell_length_c   10.68045630
_cell_angle_alpha   90.00000000
_cell_angle_beta   90.00000000
_cell_angle_gamma   90.00000000
_symmetry_Int_Tables_number   1
_chemical_formula_structural   Cr31Fe22Ni
_chemical_formula_sum   'Cr31 Fe22 Ni1'
_cell_volume   609.17129011
_cell_formula_units_Z   1
loop_
 _symmetry_equiv_pos_site_id
 _symmetry_equiv_pos_as_xyz
  1  'x, y, z'
loop_
 _atom_site_type_symbol
 _atom_site_label
 _atom_site_symmetry_multiplicity
 _atom_site_fract_x
 _atom_site_fract_y
 _atom_site_fract_z
 _atom_site_occupancy
  Cr  Cr0  1  -0.00448191  -0.00545923  -0.00467680  1
  Fe  Fe1  1  0.16140851  0.16141807  0.16155185  1
  Fe  Fe2  1  0.99416651  -0.00447162  0.32808263  1
  Cr  Cr3  1  -0.00264929  0.32826735  -0.00526976  1
  Fe  Fe4  1  0.16141752  0.49319663  0.16064141  1
  Fe  Fe5  1  -0.00553451  0.32702950  0.32760942  1
  Cr  Cr6  1  0.99410580  0.66027733  0.99363310  1
  Cr  Cr7  1  0.16265741  0.82973548  0.16002936  1
  Cr  Cr8  1  0.99410501  0.66108785  0.32878558  1
  Fe  Fe9  1  0.32769631  -0.00387109  0.99340406  1
  Cr  Cr10  1  0.49239604  0.16091707  0.16166818  1
  Fe  Fe11  1  0.32721199  -0.00531796  0.32738677  1
  Fe  Fe12  1  0.32729663  0.32711645  0.99310223  1
  Cr  Cr13  1  0.49535756  0.49514635  0.16033642  1
  Cr  Cr14  1  0.32673710  0.32787140  0.32633078  1
  Fe  Fe15  1  0.32806820  0.65984095  0.99400823  1
  Cr  Cr16  1  0.49299952  0.82701576  0.16057940  1
  Cr  Cr17  1  0.32734260  0.65954980  0.32974297  1
  Cr  Cr18  1  0.65970352  0.99397794  0.99310784  1
  Cr  Cr19  1  0.82967266  0.16280512  0.16476425  1
  Fe  Fe20  1  0.66170583  0.99426564  0.32838356  1
  Cr  Cr21  1  0.65817955  0.32851610  0.99250579  1
  Cr  Cr22  1  0.82695876  0.49350594  0.16102518  1
  Fe  Fe23  1  0.66219126  0.32749809  0.32799218  1
  Fe  Fe24  1  0.66044444  0.66022006  0.99351773  1
  Cr  Cr25  1  0.82742168  0.82677166  0.16126439  1
  Fe  Fe26  1  0.66134726  0.66131611  0.32817695  1
  Cr  Cr27  1  0.15855301  0.16118698  0.49342851  1
  Cr  Cr28  1  0.99160123  -0.00520937  0.66054784  1
  Fe  Fe29  1  0.16315703  0.16203074  0.82799278  1
  Fe  Fe30  1  0.16040252  0.49353579  0.49436369  1
  Fe  Fe31  1  0.99408625  0.32822468  0.66147843  1
  Fe  Fe32  1  0.16182540  0.49274841  0.82808079  1
  Cr  Cr33  1  0.16122127  0.82777732  0.49441456  1
  Cr  Cr34  1  -0.00544085  0.65988548  0.66066145  1
  Cr  Cr35  1  0.16244371  0.82792666  0.82864198  1
  Cr  Cr36  1  0.49696786  0.16055434  0.49450884  1
  Cr  Cr37  1  0.32960930  -0.00356384  0.66224520  1
  Ni  Ni38  1  0.49309020  0.16353502  0.82742996  1
  Cr  Cr39  1  0.49559825  0.49419491  0.49366506  1
  Cr  Cr40  1  0.32818761  0.32830366  0.66315524  1
  Fe  Fe41  1  0.49446697  0.49271877  0.82848506  1
  Cr  Cr42  1  0.49437413  0.82833414  0.49307320  1
  Cr  Cr43  1  0.32656446  0.65833727  0.65937033  1
  Cr  Cr44  1  0.49295024  0.82799890  0.82942911  1
  Fe  Fe45  1  0.82722646  0.16055393  0.49393707  1
  Fe  Fe46  1  0.66083943  -0.00407029  0.66120830  1
  Cr  Cr47  1  0.82715155  0.16399695  0.82415595  1
  Cr  Cr48  1  0.82812476  0.49152293  0.49421938  1
  Fe  Fe49  1  0.66132335  0.32643026  0.66238107  1
  Fe  Fe50  1  0.82679085  0.49362370  0.82731139  1
  Fe  Fe51  1  0.82680502  0.82933052  0.49356876  1
  Cr  Cr52  1  0.66195812  0.66131690  0.66186464  1
  Cr  Cr53  1  0.82768459  0.82603714  0.82818639  1
" 