7757,Ni2Fe41Cr55_17,-214.692557662095, 183.391269556783,Ni2Fe41Cr55,"# generated using pymatgen
 data_Cr31Fe22Ni
_symmetry_space_group_name_H-M   'P 1'
_cell_length_a   7.54345971
_cell_length_b   7.54345971
_cell_length_c   10.66806303
_cell_angle_alpha   90.00000000
_cell_angle_beta   90.00000000
_cell_angle_gamma   90.00000000
_symmetry_Int_Tables_number   1
_chemical_formula_structural   Cr31Fe22Ni
_chemical_formula_sum   'Cr31 Fe22 Ni1'
_cell_volume   607.05315928
_cell_formula_units_Z   1
loop_
 _symmetry_equiv_pos_site_id
 _symmetry_equiv_pos_as_xyz
  1  'x, y, z'
loop_
 _atom_site_type_symbol
 _atom_site_label
 _atom_site_symmetry_multiplicity
 _atom_site_fract_x
 _atom_site_fract_y
 _atom_site_fract_z
 _atom_site_occupancy
  Cr  Cr0  1  0.99399371  -0.00414969  -0.00148985  1
  Fe  Fe1  1  0.16166782  0.16184417  0.16272536  1
  Cr  Cr2  1  0.99457540  -0.00451857  0.32699237  1
  Cr  Cr3  1  0.99482763  0.32803127  0.99334634  1
  Cr  Cr4  1  0.16272605  0.49467025  0.16195188  1
  Cr  Cr5  1  0.99434968  0.32659141  0.32831216  1
  Fe  Fe6  1  -0.00484855  0.66145052  0.99397476  1
  Cr  Cr7  1  0.15980371  0.82934893  0.16228521  1
  Cr  Cr8  1  -0.00441931  0.66278203  0.32975651  1
  Cr  Cr9  1  0.32834429  0.99473097  0.99452105  1
  Fe  Fe10  1  0.49535471  0.16210421  0.16313365  1
  Fe  Fe11  1  0.32864485  -0.00468728  0.32867508  1
  Cr  Cr12  1  0.32715585  0.32852489  -0.00306886  1
  Cr  Cr13  1  0.49468901  0.49306684  0.16455927  1
  Fe  Fe14  1  0.32960590  0.32637984  0.32774998  1
  Cr  Cr15  1  0.32667250  0.66151620  0.99190941  1
  Cr  Cr16  1  0.49553076  0.82865882  0.16114352  1
  Fe  Fe17  1  0.32804329  0.66300003  0.32929825  1
  Cr  Cr18  1  0.66242426  -0.00385880  -0.00405071  1
  Ni  Ni19  1  0.82760139  0.16048990  0.16186905  1
  Cr  Cr20  1  0.66166662  -0.00302971  0.32823947  1
  Cr  Cr21  1  0.66280599  0.32634285  -0.00349553  1
  Cr  Cr22  1  0.82741742  0.49558783  0.16105528  1
  Fe  Fe23  1  0.66217580  0.32601247  0.32817435  1
  Cr  Cr24  1  0.66167929  0.66230889  0.99341146  1
  Fe  Fe25  1  0.82848384  0.82934880  0.16117462  1
  Cr  Cr26  1  0.66115797  0.66179304  0.33105976  1
  Cr  Cr27  1  0.16305573  0.16035673  0.49614674  1
  Cr  Cr28  1  -0.00469315  -0.00357622  0.65950307  1
  Cr  Cr29  1  0.16108112  0.16188235  0.82549892  1
  Cr  Cr30  1  0.16188674  0.49409663  0.49499580  1
  Fe  Fe31  1  0.99430728  0.32893567  0.66202479  1
  Fe  Fe32  1  0.15999766  0.49529361  0.82767678  1
  Fe  Fe33  1  0.16336826  0.82865654  0.49426479  1
  Cr  Cr34  1  -0.00359387  0.65962320  0.66121109  1
  Fe  Fe35  1  0.16243753  0.82766769  0.82832765  1
  Fe  Fe36  1  0.49419483  0.16127477  0.49457717  1
  Fe  Fe37  1  0.32888159  0.99413717  0.66112073  1
  Cr  Cr38  1  0.49419685  0.16051187  0.82652547  1
  Cr  Cr39  1  0.49560309  0.49380883  0.49151511  1
  Fe  Fe40  1  0.32752604  0.32763347  0.66156028  1
  Cr  Cr41  1  0.49505357  0.49517093  0.82885061  1
  Fe  Fe42  1  0.49290960  0.82991750  0.49428136  1
  Cr  Cr43  1  0.32772739  0.66358592  0.66310424  1
  Fe  Fe44  1  0.49346982  0.82912569  0.82778366  1
  Fe  Fe45  1  0.82734361  0.16287541  0.49415146  1
  Cr  Cr46  1  0.66015067  -0.00447229  0.66068224  1
  Fe  Fe47  1  0.82865620  0.16297058  0.82831594  1
  Fe  Fe48  1  0.82853668  0.49370061  0.49482969  1
  Cr  Cr49  1  0.66422549  0.32721230  0.66045202  1
  Fe  Fe50  1  0.83023380  0.49365925  0.82821647  1
  Fe  Fe51  1  0.82847324  0.82828206  0.49512647  1
  Cr  Cr52  1  0.66067569  0.66205408  0.66044134  1
  Cr  Cr53  1  0.82866591  0.82777681  0.83210349  1
" 