2780,Ni2Fe50Cr47_10,-217.571613121658, 171.872912730453,Ni2Fe50Cr47,"# generated using pymatgen
 data_Cr26Fe27Ni
_symmetry_space_group_name_H-M   'P 1'
_cell_length_a   7.53135510
_cell_length_b   7.53135510
_cell_length_c   10.65094452
_cell_angle_alpha   90.00000000
_cell_angle_beta   90.00000000
_cell_angle_gamma   90.00000000
_symmetry_Int_Tables_number   1
_chemical_formula_structural   Cr26Fe27Ni
_chemical_formula_sum   'Cr26 Fe27 Ni1'
_cell_volume   604.13552184
_cell_formula_units_Z   1
loop_
 _symmetry_equiv_pos_site_id
 _symmetry_equiv_pos_as_xyz
  1  'x, y, z'
loop_
 _atom_site_type_symbol
 _atom_site_label
 _atom_site_symmetry_multiplicity
 _atom_site_fract_x
 _atom_site_fract_y
 _atom_site_fract_z
 _atom_site_occupancy
  Cr  Cr0  1  0.99280331  0.99323227  -0.00289828  1
  Cr  Cr1  1  0.16208668  0.16083108  0.16084228  1
  Cr  Cr2  1  0.99394392  0.99371185  0.32974765  1
  Cr  Cr3  1  -0.00372353  0.33067832  -0.00322304  1
  Fe  Fe4  1  0.16277899  0.49737190  0.16401663  1
  Fe  Fe5  1  0.99564992  0.32714967  0.32899692  1
  Cr  Cr6  1  -0.00409831  0.66341112  -0.00417138  1
  Fe  Fe7  1  0.16380523  0.82579064  0.16315393  1
  Fe  Fe8  1  -0.00340383  0.66420003  0.32903158  1
  Cr  Cr9  1  0.33178073  0.99445453  -0.00423047  1
  Fe  Fe10  1  0.49759337  0.16131899  0.16316770  1
  Cr  Cr11  1  0.33045217  0.99248037  0.33188698  1
  Cr  Cr12  1  0.33001925  0.33207140  0.99198033  1
  Cr  Cr13  1  0.49576635  0.49930251  0.16275673  1
  Cr  Cr14  1  0.33107753  0.32947892  0.32869907  1
  Fe  Fe15  1  0.32996852  0.66325006  0.99485548  1
  Fe  Fe16  1  0.49681230  0.83059992  0.16267456  1
  Fe  Fe17  1  0.32741042  0.66403623  0.32897955  1
  Fe  Fe18  1  0.66174164  0.99342587  -0.00335956  1
  Fe  Fe19  1  0.82640881  0.16094959  0.16337658  1
  Fe  Fe20  1  0.66251467  -0.00368877  0.33072051  1
  Cr  Cr21  1  0.66048531  0.32874235  -0.00373199  1
  Cr  Cr22  1  0.82854447  0.49591392  0.16634091  1
  Fe  Fe23  1  0.66329323  0.32538221  0.32937845  1
  Fe  Fe24  1  0.66124358  0.66548566  -0.00423231  1
  Fe  Fe25  1  0.82658766  0.82933770  0.16389895  1
  Cr  Cr26  1  0.66103465  0.66497517  0.33206505  1
  Cr  Cr27  1  0.16443877  0.15972595  0.50063406  1
  Cr  Cr28  1  0.99401207  0.99265496  0.66102318  1
  Cr  Cr29  1  0.16506475  0.16164449  0.82623060  1
  Cr  Cr30  1  0.16138467  0.49507622  0.49373646  1
  Cr  Cr31  1  0.99546856  0.33032428  0.66355491  1
  Fe  Fe32  1  0.16248423  0.49766175  0.82744939  1
  Fe  Fe33  1  0.16049093  0.82641024  0.49624175  1
  Fe  Fe34  1  0.99411818  0.66363794  0.66131566  1
  Cr  Cr35  1  0.16356219  0.83076327  0.82681832  1
  Fe  Fe36  1  0.49817496  0.16085590  0.49505140  1
  Fe  Fe37  1  0.33247925  0.99512944  0.66132260  1
  Fe  Fe38  1  0.49668023  0.16068275  0.82804249  1
  Cr  Cr39  1  0.49723711  0.49590951  0.49503555  1
  Fe  Fe40  1  0.33053956  0.32893883  0.66322283  1
  Fe  Fe41  1  0.49454301  0.49814647  0.82805810  1
  Fe  Fe42  1  0.49617443  0.82979767  0.49633746  1
  Cr  Cr43  1  0.32989111  0.66240596  0.66112793  1
  Fe  Fe44  1  0.49844287  0.82816054  0.82920140  1
  Fe  Fe45  1  0.82839730  0.16173093  0.49431756  1
  Cr  Cr46  1  0.66262025  0.99486853  0.66039468  1
  Cr  Cr47  1  0.82963737  0.16139586  0.83190156  1
  Cr  Cr48  1  0.82841875  0.49721235  0.49442922  1
  Cr  Cr49  1  0.65992910  0.32937177  0.66061146  1
  Cr  Cr50  1  0.82491435  0.50022883  0.82701213  1
  Ni  Ni51  1  0.82781095  0.82899300  0.49624933  1
  Fe  Fe52  1  0.66325249  0.66505461  0.66111326  1
  Fe  Fe53  1  0.82671237  0.82878132  0.82830078  1
" 