2988,Ni2Fe66Cr31_3,-219.936087649908, 157.625351397608,Ni2Fe66Cr31,"# generated using pymatgen
 data_Cr18Fe35Ni
_symmetry_space_group_name_H-M   'P 1'
_cell_length_a   7.50680264
_cell_length_b   7.50680264
_cell_length_c   10.61622210
_cell_angle_alpha   90.00000000
_cell_angle_beta   90.00000000
_cell_angle_gamma   90.00000000
_symmetry_Int_Tables_number   1
_chemical_formula_structural   Cr18Fe35Ni
_chemical_formula_sum   'Cr18 Fe35 Ni1'
_cell_volume   598.24625959
_cell_formula_units_Z   1
loop_
 _symmetry_equiv_pos_site_id
 _symmetry_equiv_pos_as_xyz
  1  'x, y, z'
loop_
 _atom_site_type_symbol
 _atom_site_label
 _atom_site_symmetry_multiplicity
 _atom_site_fract_x
 _atom_site_fract_y
 _atom_site_fract_z
 _atom_site_occupancy
  Fe  Fe0  1  0.99572913  0.99619003  0.99618785  1
  Cr  Cr1  1  0.16151228  0.16163505  0.16215394  1
  Fe  Fe2  1  0.99729934  -0.00187687  0.33288981  1
  Cr  Cr3  1  -0.00031901  0.33280856  -0.00064202  1
  Fe  Fe4  1  0.16355611  0.49730397  0.16480406  1
  Fe  Fe5  1  0.99482032  0.32867416  0.33107501  1
  Cr  Cr6  1  0.99651250  0.66332431  0.99492510  1
  Cr  Cr7  1  0.16370073  0.83229682  0.16398791  1
  Cr  Cr8  1  -0.00226497  0.66219827  0.33039430  1
  Fe  Fe9  1  0.33239777  -0.00134272  0.99581829  1
  Fe  Fe10  1  0.49728887  0.16214254  0.16289431  1
  Cr  Cr11  1  0.33245400  0.99727065  0.33519301  1
  Fe  Fe12  1  0.33112509  0.32983709  0.99590024  1
  Cr  Cr13  1  0.49825266  0.49859952  0.16596956  1
  Cr  Cr14  1  0.32731723  0.32995566  0.32948495  1
  Cr  Cr15  1  0.32917930  0.66295344  0.99716527  1
  Fe  Fe16  1  0.49784088  0.83241884  0.16383671  1
  Fe  Fe17  1  0.33039115  0.66613354  0.33241653  1
  Fe  Fe18  1  0.66372628  0.99670486  -0.00199182  1
  Fe  Fe19  1  0.82978110  0.16320866  0.16434604  1
  Cr  Cr20  1  0.66470018  0.99715499  0.32964158  1
  Cr  Cr21  1  0.66342406  0.32840496  0.99685259  1
  Fe  Fe22  1  0.83133286  0.49656966  0.16567614  1
  Fe  Fe23  1  0.66699938  0.33005706  0.33049322  1
  Cr  Cr24  1  0.66628489  0.66729176  0.99636389  1
  Fe  Fe25  1  0.82999467  0.83204271  0.16400304  1
  Fe  Fe26  1  0.66424872  0.66477765  0.33066892  1
  Fe  Fe27  1  0.16171763  0.16311102  0.49824669  1
  Fe  Fe28  1  -0.00015502  0.99600856  0.66286273  1
  Fe  Fe29  1  0.16483104  0.16205831  0.83159809  1
  Fe  Fe30  1  0.16199529  0.49820146  0.49768041  1
  Fe  Fe31  1  0.99618116  0.33177590  0.66344632  1
  Fe  Fe32  1  0.16278968  0.49627379  0.82971505  1
  Ni  Ni33  1  0.16184947  0.83298934  0.49894056  1
  Fe  Fe34  1  -0.00202289  0.66466890  0.66348333  1
  Fe  Fe35  1  0.16291427  0.83358259  0.82930898  1
  Fe  Fe36  1  0.49730463  0.16373406  0.49827924  1
  Fe  Fe37  1  0.32882409  0.99656044  0.66306801  1
  Fe  Fe38  1  0.49552595  0.16245744  0.83134415  1
  Cr  Cr39  1  0.50043876  0.49757795  0.49595125  1
  Cr  Cr40  1  0.32890973  0.32756495  0.66629822  1
  Fe  Fe41  1  0.49764332  0.49625276  0.83055058  1
  Fe  Fe42  1  0.49626085  0.83044880  0.49736191  1
  Cr  Cr43  1  0.32839262  0.66514130  0.66293654  1
  Fe  Fe44  1  0.49642551  0.83331834  0.83123492  1
  Fe  Fe45  1  0.83263463  0.16476064  0.49768444  1
  Cr  Cr46  1  0.66229227  -0.00237753  0.66266385  1
  Cr  Cr47  1  0.83240642  0.16329566  0.83006484  1
  Fe  Fe48  1  0.83326867  0.49675788  0.49761469  1
  Fe  Fe49  1  0.66484863  0.33103487  0.66412586  1
  Fe  Fe50  1  0.83171180  0.49695972  0.82886292  1
  Fe  Fe51  1  0.83288825  0.83045538  0.49716389  1
  Cr  Cr52  1  0.66724218  0.66572279  0.66589348  1
  Fe  Fe53  1  0.83260713  0.83194108  0.83012224  1
" 