3713,Ni2Fe66Cr31_13,-220.170615502394, 160.66415862789,Ni2Fe66Cr31,"# generated using pymatgen
 data_Cr18Fe35Ni
_symmetry_space_group_name_H-M   'P 1'
_cell_length_a   7.49805316
_cell_length_b   7.49805316
_cell_length_c   10.60384847
_cell_angle_alpha   90.00000000
_cell_angle_beta   90.00000000
_cell_angle_gamma   90.00000000
_symmetry_Int_Tables_number   1
_chemical_formula_structural   Cr18Fe35Ni
_chemical_formula_sum   'Cr18 Fe35 Ni1'
_cell_volume   596.15685685
_cell_formula_units_Z   1
loop_
 _symmetry_equiv_pos_site_id
 _symmetry_equiv_pos_as_xyz
  1  'x, y, z'
loop_
 _atom_site_type_symbol
 _atom_site_label
 _atom_site_symmetry_multiplicity
 _atom_site_fract_x
 _atom_site_fract_y
 _atom_site_fract_z
 _atom_site_occupancy
  Cr  Cr0  1  -0.00029831  0.00061075  -0.00189730  1
  Fe  Fe1  1  0.16438200  0.16592097  0.16547263  1
  Fe  Fe2  1  0.99770938  0.99703799  0.33221830  1
  Fe  Fe3  1  -0.00140724  0.33325775  -0.00042485  1
  Fe  Fe4  1  0.16471817  0.49633155  0.16455761  1
  Cr  Cr5  1  0.99585282  0.32997094  0.32827404  1
  Fe  Fe6  1  0.99700316  0.66353701  0.99776897  1
  Cr  Cr7  1  0.16411006  0.83027602  0.16989659  1
  Fe  Fe8  1  0.99598440  0.66467327  0.33253436  1
  Cr  Cr9  1  0.33064066  -0.00158310  0.99781846  1
  Cr  Cr10  1  0.49872967  0.16497040  0.16364176  1
  Fe  Fe11  1  0.33051904  -0.00109912  0.33156123  1
  Fe  Fe12  1  0.32977192  0.33080488  -0.00130869  1
  Fe  Fe13  1  0.49932334  0.49909291  0.16546033  1
  Fe  Fe14  1  0.33364553  0.33230958  0.33040777  1
  Cr  Cr15  1  0.33357005  0.66452958  0.00014272  1
  Fe  Fe16  1  0.49868759  0.82965170  0.16593290  1
  Fe  Fe17  1  0.33285872  0.66276272  0.33039051  1
  Fe  Fe18  1  0.66449070  0.99787205  -0.00118940  1
  Fe  Fe19  1  0.83139822  0.16611061  0.16319778  1
  Cr  Cr20  1  0.66551051  -0.00172081  0.33203274  1
  Fe  Fe21  1  0.66487755  0.33240215  -0.00117437  1
  Fe  Fe22  1  0.83004433  0.49741904  0.16346387  1
  Fe  Fe23  1  0.66332994  0.33337694  0.33198403  1
  Fe  Fe24  1  0.66674743  0.66345288  -0.00200006  1
  Cr  Cr25  1  0.82947560  0.83114211  0.16338490  1
  Fe  Fe26  1  0.66499770  0.66095601  0.33153131  1
  Cr  Cr27  1  0.16603094  0.16464515  0.49591055  1
  Cr  Cr28  1  -0.00073020  0.99691304  0.66306013  1
  Fe  Fe29  1  0.16796645  0.16463153  0.82984659  1
  Cr  Cr30  1  0.16567732  0.50027094  0.49870104  1
  Cr  Cr31  1  0.99508801  0.33209765  0.66561255  1
  Cr  Cr32  1  0.16337113  0.49808728  0.83096163  1
  Fe  Fe33  1  0.16491861  0.83124483  0.49694816  1
  Fe  Fe34  1  -0.00140944  0.66689986  0.66455718  1
  Fe  Fe35  1  0.16421304  0.83140877  0.82986276  1
  Fe  Fe36  1  0.49788538  0.16659691  0.49902958  1
  Ni  Ni37  1  0.33236331  -0.00170309  0.66536555  1
  Fe  Fe38  1  0.49624047  0.16554191  0.83012448  1
  Fe  Fe39  1  0.49841846  0.49542919  0.49739535  1
  Fe  Fe40  1  0.33334394  0.32832615  0.66404924  1
  Cr  Cr41  1  0.49693024  0.49515823  0.82978970  1
  Cr  Cr42  1  0.49672146  0.83170332  0.49605955  1
  Fe  Fe43  1  0.32970205  0.66776013  0.66470737  1
  Cr  Cr44  1  0.50050003  0.83400357  0.83320722  1
  Fe  Fe45  1  0.82880551  0.16509782  0.49817904  1
  Fe  Fe46  1  0.66319106  -0.00022177  0.66320823  1
  Cr  Cr47  1  0.82762618  0.16379743  0.83288635  1
  Fe  Fe48  1  0.82983549  0.49812611  0.49657899  1
  Fe  Fe49  1  0.66238654  0.32800017  0.66276684  1
  Fe  Fe50  1  0.83032037  0.49945660  0.83319692  1
  Fe  Fe51  1  0.83400266  0.82998221  0.49666846  1
  Cr  Cr52  1  0.66570214  0.66259690  0.66368988  1
  Fe  Fe53  1  0.83257689  0.82843345  0.83230953  1
" 