1104,Ni2Fe41Cr55_1,-214.779809196692, 184.056655288057,Ni2Fe41Cr55,"# generated using pymatgen
 data_Cr31Fe22Ni
_symmetry_space_group_name_H-M   'P 1'
_cell_length_a   7.54280632
_cell_length_b   7.54280632
_cell_length_c   10.66713900
_cell_angle_alpha   90.00000000
_cell_angle_beta   90.00000000
_cell_angle_gamma   90.00000000
_symmetry_Int_Tables_number   1
_chemical_formula_structural   Cr31Fe22Ni
_chemical_formula_sum   'Cr31 Fe22 Ni1'
_cell_volume   606.89542984
_cell_formula_units_Z   1
loop_
 _symmetry_equiv_pos_site_id
 _symmetry_equiv_pos_as_xyz
  1  'x, y, z'
loop_
 _atom_site_type_symbol
 _atom_site_label
 _atom_site_symmetry_multiplicity
 _atom_site_fract_x
 _atom_site_fract_y
 _atom_site_fract_z
 _atom_site_occupancy
  Cr  Cr0  1  0.99303362  0.99420446  0.99304666  1
  Cr  Cr1  1  0.15910165  0.16060952  0.16283447  1
  Fe  Fe2  1  -0.00397485  0.99287972  0.32803059  1
  Fe  Fe3  1  0.99363288  0.32965936  0.99484468  1
  Fe  Fe4  1  0.16149916  0.49560245  0.16131730  1
  Cr  Cr5  1  0.99469339  0.33302021  0.32651257  1
  Cr  Cr6  1  -0.00391989  0.65753711  0.99366909  1
  Fe  Fe7  1  0.16162272  0.82831731  0.16181843  1
  Cr  Cr8  1  0.99479618  0.65856062  0.32915971  1
  Cr  Cr9  1  0.33134960  0.99356679  -0.00235615  1
  Cr  Cr10  1  0.49494162  0.16359338  0.16095928  1
  Cr  Cr11  1  0.33034264  0.99283059  0.32746193  1
  Cr  Cr12  1  0.32604870  0.32998841  0.99489152  1
  Fe  Fe13  1  0.49655932  0.49570870  0.16246343  1
  Cr  Cr14  1  0.32716968  0.32934667  0.32989828  1
  Cr  Cr15  1  0.32633938  0.66139188  -0.00202337  1
  Ni  Ni16  1  0.49534107  0.82278196  0.16384405  1
  Cr  Cr17  1  0.32729722  0.66282120  0.32629168  1
  Cr  Cr18  1  0.66044803  -0.00403129  0.99009720  1
  Cr  Cr19  1  0.83084974  0.16260571  0.16075668  1
  Cr  Cr20  1  0.65847364  0.99354924  0.32973115  1
  Fe  Fe21  1  0.66280093  0.32861752  -0.00483487  1
  Fe  Fe22  1  0.82668529  0.49469298  0.16086514  1
  Cr  Cr23  1  0.66339322  0.32999481  0.32983540  1
  Cr  Cr24  1  0.66234192  0.66288741  -0.00058788  1
  Cr  Cr25  1  0.82808572  0.82798374  0.16309834  1
  Fe  Fe26  1  0.66017488  0.66076412  0.32763736  1
  Cr  Cr27  1  0.16100948  0.15954794  0.49233706  1
  Fe  Fe28  1  0.99432399  0.99448560  0.66216742  1
  Cr  Cr29  1  0.16056945  0.16207810  0.82946646  1
  Fe  Fe30  1  0.16130296  0.49715723  0.49668124  1
  Cr  Cr31  1  -0.00436705  0.33273478  0.66138937  1
  Fe  Fe32  1  0.16218963  0.49551687  0.82677930  1
  Fe  Fe33  1  0.16211292  0.82647671  0.49647953  1
  Fe  Fe34  1  -0.00312944  0.66261101  0.66094240  1
  Cr  Cr35  1  0.16006649  0.82802515  0.82575064  1
  Fe  Fe36  1  0.49566606  0.16216624  0.49606210  1
  Cr  Cr37  1  0.33153741  -0.00408835  0.65992412  1
  Fe  Fe38  1  0.49536924  0.16424213  0.82793805  1
  Cr  Cr39  1  0.49545397  0.49632947  0.49634535  1
  Fe  Fe40  1  0.32913945  0.32866530  0.66133157  1
  Cr  Cr41  1  0.49427074  0.49400220  0.82806659  1
  Fe  Fe42  1  0.49414659  0.82796775  0.49471417  1
  Fe  Fe43  1  0.32604463  0.66035713  0.66030245  1
  Cr  Cr44  1  0.49424588  0.82354199  0.82893498  1
  Cr  Cr45  1  0.83085325  0.16075291  0.49388929  1
  Cr  Cr46  1  0.66115760  -0.00258621  0.66495302  1
  Fe  Fe47  1  0.82744877  0.16298128  0.82764159  1
  Fe  Fe48  1  0.82920335  0.49524324  0.49595364  1
  Fe  Fe49  1  0.66080914  0.32707600  0.66118809  1
  Cr  Cr50  1  0.82574157  0.49480131  0.82870591  1
  Cr  Cr51  1  0.83050058  0.82749657  0.49508983  1
  Cr  Cr52  1  0.66461307  0.66359602  0.65964440  1
  Fe  Fe53  1  0.82940922  0.82815350  0.82687514  1
" 