1732,Ni2Fe41Cr55_3,-215.126820105909, 186.469058873337,Ni2Fe41Cr55,"# generated using pymatgen
 data_Cr31Fe22Ni
_symmetry_space_group_name_H-M   'P 1'
_cell_length_a   7.55241921
_cell_length_b   7.55241921
_cell_length_c   10.68073367
_cell_angle_alpha   90.00000000
_cell_angle_beta   90.00000000
_cell_angle_gamma   90.00000000
_symmetry_Int_Tables_number   1
_chemical_formula_structural   Cr31Fe22Ni
_chemical_formula_sum   'Cr31 Fe22 Ni1'
_cell_volume   609.21875159
_cell_formula_units_Z   1
loop_
 _symmetry_equiv_pos_site_id
 _symmetry_equiv_pos_as_xyz
  1  'x, y, z'
loop_
 _atom_site_type_symbol
 _atom_site_label
 _atom_site_symmetry_multiplicity
 _atom_site_fract_x
 _atom_site_fract_y
 _atom_site_fract_z
 _atom_site_occupancy
  Cr  Cr0  1  0.99295548  -0.00512184  -0.00451640  1
  Fe  Fe1  1  0.15985735  0.16242447  0.16149188  1
  Cr  Cr2  1  0.99416041  -0.00453752  0.32596492  1
  Fe  Fe3  1  0.99291641  0.32723658  -0.00444704  1
  Fe  Fe4  1  0.16113483  0.49364318  0.16096240  1
  Fe  Fe5  1  -0.00554385  0.32769808  0.32695219  1
  Cr  Cr6  1  0.99298190  0.66117714  0.99306479  1
  Cr  Cr7  1  0.16482294  0.82758573  0.16208756  1
  Cr  Cr8  1  0.99295599  0.66034612  0.32909678  1
  Cr  Cr9  1  0.32865003  -0.00396546  0.99387658  1
  Cr  Cr10  1  0.49677746  0.15996439  0.16110024  1
  Fe  Fe11  1  0.32840249  -0.00554609  0.32765938  1
  Cr  Cr12  1  0.32776043  0.32736340  0.99417874  1
  Cr  Cr13  1  0.49495603  0.49592682  0.16099375  1
  Cr  Cr14  1  0.32773435  0.32751043  0.32956374  1
  Fe  Fe15  1  0.32814332  0.66062917  -0.00563538  1
  Cr  Cr16  1  0.49239763  0.82719499  0.16238340  1
  Fe  Fe17  1  0.32789232  0.66042239  0.32810727  1
  Fe  Fe18  1  0.66090259  -0.00384113  0.99353994  1
  Fe  Fe19  1  0.82699744  0.16226940  0.16046918  1
  Fe  Fe20  1  0.66014849  -0.00476203  0.32773838  1
  Ni  Ni21  1  0.66095068  0.32612005  0.99412346  1
  Cr  Cr22  1  0.82753473  0.48933754  0.16064110  1
  Fe  Fe23  1  0.66152859  0.32728003  0.32746123  1
  Cr  Cr24  1  0.66117578  0.66203715  0.99409232  1
  Cr  Cr25  1  0.82570564  0.82935160  0.16209599  1
  Fe  Fe26  1  0.65978590  0.66046195  0.32813466  1
  Cr  Cr27  1  0.16134234  0.16054156  0.49335738  1
  Cr  Cr28  1  0.99265745  0.99119534  0.66169160  1
  Cr  Cr29  1  0.16068524  0.16073204  0.82887554  1
  Fe  Fe30  1  0.16180319  0.49532977  0.49443255  1
  Cr  Cr31  1  -0.00413405  0.32934067  0.65966007  1
  Cr  Cr32  1  0.16092932  0.49647893  0.82777810  1
  Cr  Cr33  1  0.16350619  0.82598070  0.49532152  1
  Fe  Fe34  1  -0.00467984  0.66084990  0.66095829  1
  Cr  Cr35  1  0.16303818  0.82587838  0.82563678  1
  Fe  Fe36  1  0.49581781  0.16128178  0.49373011  1
  Cr  Cr37  1  0.32988069  -0.00303742  0.66132280  1
  Fe  Fe38  1  0.49645668  0.16086574  0.82832004  1
  Fe  Fe39  1  0.49402782  0.49403126  0.49391275  1
  Cr  Cr40  1  0.33064183  0.32754755  0.65938397  1
  Cr  Cr41  1  0.49486905  0.49420162  0.82879584  1
  Cr  Cr42  1  0.49230724  0.82776545  0.49066763  1
  Fe  Fe43  1  0.32736917  0.66055254  0.66051115  1
  Fe  Fe44  1  0.49526118  0.82857279  0.82765189  1
  Cr  Cr45  1  0.82496347  0.16319937  0.49331255  1
  Fe  Fe46  1  0.66003617  -0.00463458  0.66176692  1
  Cr  Cr47  1  0.82438828  0.16209134  0.82894545  1
  Cr  Cr48  1  0.82664867  0.49202115  0.49454795  1
  Fe  Fe49  1  0.65972225  0.32619358  0.66118830  1
  Cr  Cr50  1  0.82730128  0.49206556  0.82781441  1
  Cr  Cr51  1  0.82721496  0.82781991  0.49522638  1
  Cr  Cr52  1  0.66254314  0.66170901  0.66156068  1
  Fe  Fe53  1  0.82651229  0.82801485  0.82724369  1
" 