7741,Ni2Fe66Cr31_7,-220.227595990289, 153.629538467956,Ni2Fe66Cr31,"# generated using pymatgen
 data_Cr18Fe35Ni
_symmetry_space_group_name_H-M   'P 1'
_cell_length_a   7.50993632
_cell_length_b   7.50993632
_cell_length_c   10.62065380
_cell_angle_alpha   90.00000000
_cell_angle_beta   90.00000000
_cell_angle_gamma   90.00000000
_symmetry_Int_Tables_number   1
_chemical_formula_structural   Cr18Fe35Ni
_chemical_formula_sum   'Cr18 Fe35 Ni1'
_cell_volume   598.99577867
_cell_formula_units_Z   1
loop_
 _symmetry_equiv_pos_site_id
 _symmetry_equiv_pos_as_xyz
  1  'x, y, z'
loop_
 _atom_site_type_symbol
 _atom_site_label
 _atom_site_symmetry_multiplicity
 _atom_site_fract_x
 _atom_site_fract_y
 _atom_site_fract_z
 _atom_site_occupancy
  Cr  Cr0  1  0.99472238  0.99476904  0.99609129  1
  Cr  Cr1  1  0.16601672  0.16455894  0.16262059  1
  Fe  Fe2  1  -0.00280749  -0.00211912  0.33223090  1
  Fe  Fe3  1  -0.00139549  0.33188842  0.99649099  1
  Fe  Fe4  1  0.16529308  0.49571933  0.16555564  1
  Fe  Fe5  1  0.00082655  0.32993385  0.33206864  1
  Cr  Cr6  1  -0.00032481  0.66522089  -0.00126663  1
  Cr  Cr7  1  0.16796584  0.83101712  0.16672433  1
  Fe  Fe8  1  -0.00090110  0.66389529  0.33122242  1
  Fe  Fe9  1  0.33389514  0.99513210  -0.00189322  1
  Fe  Fe10  1  0.49519632  0.16169744  0.16441210  1
  Fe  Fe11  1  0.33172815  -0.00021268  0.33169608  1
  Fe  Fe12  1  0.32863971  0.33290490  -0.00211219  1
  Cr  Cr13  1  0.49671184  0.49886475  0.16546426  1
  Ni  Ni14  1  0.32918001  0.33036927  0.33189321  1
  Fe  Fe15  1  0.33116788  0.66335768  0.99644201  1
  Fe  Fe16  1  0.49845758  0.83338715  0.16515803  1
  Fe  Fe17  1  0.32996960  0.66158966  0.33177048  1
  Fe  Fe18  1  0.66252595  0.99508417  -0.00245468  1
  Cr  Cr19  1  0.83062369  0.16530855  0.16273132  1
  Fe  Fe20  1  0.66289122  0.99640770  0.33057364  1
  Cr  Cr21  1  0.66093496  0.32843447  0.99596487  1
  Cr  Cr22  1  0.83244466  0.49725488  0.16673355  1
  Cr  Cr23  1  0.65886654  0.32816316  0.33341779  1
  Cr  Cr24  1  0.66324560  0.66713946  0.99671931  1
  Fe  Fe25  1  0.82878549  0.83143241  0.16654289  1
  Fe  Fe26  1  0.66275178  0.66624369  0.33061177  1
  Fe  Fe27  1  0.16374442  0.16347938  0.49570672  1
  Fe  Fe28  1  0.99580008  -0.00215662  0.66235598  1
  Cr  Cr29  1  0.16282082  0.16383964  0.83175399  1
  Fe  Fe30  1  0.16513060  0.49799408  0.49555906  1
  Fe  Fe31  1  -0.00214529  0.32959296  0.66266007  1
  Fe  Fe32  1  0.16565666  0.49698505  0.83032197  1
  Fe  Fe33  1  0.16180786  0.83015922  0.49719228  1
  Fe  Fe34  1  -0.00204423  0.66385672  0.66296864  1
  Cr  Cr35  1  0.16818596  0.83096071  0.82693961  1
  Fe  Fe36  1  0.49548903  0.16294640  0.49611392  1
  Fe  Fe37  1  0.33077597  -0.00278915  0.66218726  1
  Cr  Cr38  1  0.49620045  0.15981613  0.83278027  1
  Fe  Fe39  1  0.49435555  0.49827243  0.49532674  1
  Cr  Cr40  1  0.33134071  0.33232245  0.66104745  1
  Fe  Fe41  1  0.49366598  0.49959377  0.83046103  1
  Cr  Cr42  1  0.49518637  0.83022058  0.49798823  1
  Fe  Fe43  1  0.33090410  0.66341228  0.66341508  1
  Fe  Fe44  1  0.49821582  0.82944882  0.82894819  1
  Fe  Fe45  1  0.83170704  0.16052238  0.49693409  1
  Fe  Fe46  1  0.66487990  0.99601860  0.66367086  1
  Fe  Fe47  1  0.83082314  0.16142227  0.82942491  1
  Cr  Cr48  1  0.83014276  0.49756092  0.49556417  1
  Cr  Cr49  1  0.66128177  0.32929441  0.66207527  1
  Cr  Cr50  1  0.83114776  0.49574913  0.82941507  1
  Fe  Fe51  1  0.83157119  0.83177039  0.49707306  1
  Fe  Fe52  1  0.66280973  0.66535844  0.66459604  1
  Fe  Fe53  1  0.82893895  0.83271106  0.82791556  1
" 