1949,Ni2Fe41Cr55_2,-214.699636634646, 187.029308278388,Ni2Fe41Cr55,"# generated using pymatgen
 data_Cr31Fe22Ni
_symmetry_space_group_name_H-M   'P 1'
_cell_length_a   7.54182707
_cell_length_b   7.54182707
_cell_length_c   10.66575412
_cell_angle_alpha   90.00000000
_cell_angle_beta   90.00000000
_cell_angle_gamma   90.00000000
_symmetry_Int_Tables_number   1
_chemical_formula_structural   Cr31Fe22Ni
_chemical_formula_sum   'Cr31 Fe22 Ni1'
_cell_volume   606.65908713
_cell_formula_units_Z   1
loop_
 _symmetry_equiv_pos_site_id
 _symmetry_equiv_pos_as_xyz
  1  'x, y, z'
loop_
 _atom_site_type_symbol
 _atom_site_label
 _atom_site_symmetry_multiplicity
 _atom_site_fract_x
 _atom_site_fract_y
 _atom_site_fract_z
 _atom_site_occupancy
  Fe  Fe0  1  0.99100982  0.99484205  0.99332649  1
  Cr  Cr1  1  0.15882707  0.16449576  0.16110502  1
  Cr  Cr2  1  -0.00343956  0.99416787  0.32764044  1
  Fe  Fe3  1  0.99285727  0.32882282  0.99306432  1
  Cr  Cr4  1  0.15917344  0.49422543  0.15955755  1
  Fe  Fe5  1  -0.00198800  0.32835972  0.33059843  1
  Fe  Fe6  1  0.99344830  0.66130494  0.99408573  1
  Cr  Cr7  1  0.16333351  0.82690050  0.15669181  1
  Cr  Cr8  1  -0.00485743  0.66614029  0.33188511  1
  Cr  Cr9  1  0.32516779  -0.00294600  -0.00477425  1
  Cr  Cr10  1  0.49602306  0.15763303  0.16231866  1
  Cr  Cr11  1  0.32397392  -0.00375355  0.33138174  1
  Cr  Cr12  1  0.33146598  0.33035409  -0.00456977  1
  Fe  Fe13  1  0.49533971  0.49516635  0.16108883  1
  Cr  Cr14  1  0.32943442  0.32867062  0.32946582  1
  Fe  Fe15  1  0.33024562  0.65988105  0.99388653  1
  Cr  Cr16  1  0.49491020  0.82698581  0.16164739  1
  Cr  Cr17  1  0.32770791  0.65895210  0.32688255  1
  Fe  Fe18  1  0.66281501  -0.00445525  0.99327284  1
  Cr  Cr19  1  0.82974539  0.16440760  0.16062848  1
  Cr  Cr20  1  0.66502553  -0.00448174  0.32915418  1
  Cr  Cr21  1  0.66106374  0.32869669  0.99183974  1
  Cr  Cr22  1  0.83050337  0.49359436  0.16506974  1
  Cr  Cr23  1  0.65823109  0.33129731  0.32711101  1
  Cr  Cr24  1  0.66321602  0.65887426  -0.00439798  1
  Cr  Cr25  1  0.82570009  0.82801173  0.16184531  1
  Fe  Fe26  1  0.66080536  0.66179085  0.32992038  1
  Ni  Ni27  1  0.16172267  0.16393704  0.49677664  1
  Cr  Cr28  1  -0.00476260  0.99157362  0.66064916  1
  Cr  Cr29  1  0.16019333  0.16339868  0.82825608  1
  Fe  Fe30  1  0.16146454  0.49324886  0.49578544  1
  Fe  Fe31  1  -0.00483187  0.32831597  0.66106585  1
  Cr  Cr32  1  0.15780729  0.49432765  0.82841846  1
  Fe  Fe33  1  0.16171503  0.82894595  0.49707017  1
  Fe  Fe34  1  0.99503590  0.66022582  0.66089569  1
  Cr  Cr35  1  0.16420194  0.82639306  0.82975846  1
  Fe  Fe36  1  0.49516138  0.16196308  0.49604467  1
  Fe  Fe37  1  0.32854485  -0.00386511  0.66020331  1
  Fe  Fe38  1  0.49451456  0.16019119  0.82837017  1
  Fe  Fe39  1  0.49536924  0.49435560  0.49555669  1
  Cr  Cr40  1  0.33032120  0.32707158  0.66057333  1
  Fe  Fe41  1  0.49318359  0.49696217  0.82817011  1
  Cr  Cr42  1  0.49566224  0.82913991  0.49512251  1
  Cr  Cr43  1  0.32677623  0.65978358  0.66134664  1
  Cr  Cr44  1  0.49673801  0.83061405  0.82834740  1
  Cr  Cr45  1  0.82907520  0.16499466  0.49423416  1
  Fe  Fe46  1  0.66169077  -0.00398990  0.66184039  1
  Fe  Fe47  1  0.82861210  0.15968994  0.82820997  1
  Cr  Cr48  1  0.83019413  0.49460656  0.49434099  1
  Cr  Cr49  1  0.66014291  0.32819210  0.66660211  1
  Fe  Fe50  1  0.82981523  0.49552447  0.82811269  1
  Fe  Fe51  1  0.82895884  0.82970674  0.49620691  1
  Cr  Cr52  1  0.66514991  0.66064525  0.66148971  1
  Fe  Fe53  1  0.83009172  0.82839579  0.82911314  1
" 