5612,Ni2Fe41Cr55_6,-214.754887451645, 182.807569291003,Ni2Fe41Cr55,"# generated using pymatgen
 data_Cr31Fe22Ni
_symmetry_space_group_name_H-M   'P 1'
_cell_length_a   7.53696656
_cell_length_b   7.53696656
_cell_length_c   10.65888033
_cell_angle_alpha   90.00000000
_cell_angle_beta   90.00000000
_cell_angle_gamma   90.00000000
_symmetry_Int_Tables_number   1
_chemical_formula_structural   Cr31Fe22Ni
_chemical_formula_sum   'Cr31 Fe22 Ni1'
_cell_volume   605.48691681
_cell_formula_units_Z   1
loop_
 _symmetry_equiv_pos_site_id
 _symmetry_equiv_pos_as_xyz
  1  'x, y, z'
loop_
 _atom_site_type_symbol
 _atom_site_label
 _atom_site_symmetry_multiplicity
 _atom_site_fract_x
 _atom_site_fract_y
 _atom_site_fract_z
 _atom_site_occupancy
  Fe  Fe0  1  0.99498762  0.99526729  0.99370410  1
  Cr  Cr1  1  0.16360838  0.16168925  0.15904155  1
  Cr  Cr2  1  0.99415399  0.99504161  0.33004027  1
  Fe  Fe3  1  -0.00459453  0.32839264  -0.00462008  1
  Cr  Cr4  1  0.16131410  0.49548341  0.15981167  1
  Cr  Cr5  1  0.99438612  0.32914989  0.32903982  1
  Fe  Fe6  1  0.99462058  0.66230161  0.99423870  1
  Cr  Cr7  1  0.16265786  0.82925478  0.15742119  1
  Cr  Cr8  1  -0.00448931  0.66166860  0.32739846  1
  Fe  Fe9  1  0.33059202  -0.00345004  0.99317657  1
  Cr  Cr10  1  0.49506635  0.16140011  0.16307322  1
  Cr  Cr11  1  0.32971870  0.99341804  0.32605886  1
  Ni  Ni12  1  0.32836700  0.32702975  0.99297578  1
  Cr  Cr13  1  0.49651126  0.49448074  0.16188082  1
  Cr  Cr14  1  0.32823784  0.33002262  0.33182716  1
  Cr  Cr15  1  0.32943182  0.66350046  0.99383886  1
  Fe  Fe16  1  0.49570414  0.82916136  0.16119715  1
  Cr  Cr17  1  0.32909546  0.66255604  0.33186783  1
  Cr  Cr18  1  0.66245477  -0.00437435  0.99369009  1
  Cr  Cr19  1  0.82737179  0.16295202  0.16382073  1
  Fe  Fe20  1  0.66189544  0.99398615  0.32901877  1
  Cr  Cr21  1  0.66212153  0.32758641  -0.00452857  1
  Fe  Fe22  1  0.82913459  0.49459192  0.16085831  1
  Fe  Fe23  1  0.66223700  0.32932306  0.32893033  1
  Cr  Cr24  1  0.66301932  0.66284302  0.99433686  1
  Cr  Cr25  1  0.82836248  0.82717558  0.16235459  1
  Cr  Cr26  1  0.66152319  0.66324735  0.32836612  1
  Cr  Cr27  1  0.16161692  0.16163510  0.49687255  1
  Fe  Fe28  1  0.99312509  -0.00409018  0.66361467  1
  Cr  Cr29  1  0.16199772  0.16087028  0.83031244  1
  Fe  Fe30  1  0.16118419  0.49479184  0.49628577  1
  Fe  Fe31  1  0.99504711  0.32838397  0.66258396  1
  Cr  Cr32  1  0.16184943  0.49548137  0.82887060  1
  Cr  Cr33  1  0.16164588  0.82892664  0.49588274  1
  Cr  Cr34  1  0.99438721  0.66403234  0.66078618  1
  Fe  Fe35  1  0.16019662  0.82878750  0.82967964  1
  Cr  Cr36  1  0.49769225  0.16043939  0.49299596  1
  Cr  Cr37  1  0.32955626  0.99498041  0.66451389  1
  Fe  Fe38  1  0.49486905  0.16265004  0.82996750  1
  Fe  Fe39  1  0.49704059  0.49603310  0.49580310  1
  Cr  Cr40  1  0.32953213  0.32976814  0.66069900  1
  Fe  Fe41  1  0.49399574  0.49471660  0.82972956  1
  Fe  Fe42  1  0.49948363  0.82917207  0.49647095  1
  Cr  Cr43  1  0.33065868  0.66118290  0.65986728  1
  Fe  Fe44  1  0.49593797  0.82856426  0.82787757  1
  Cr  Cr45  1  0.82670487  0.16029859  0.49733490  1
  Fe  Fe46  1  0.66275982  0.99238735  0.66406186  1
  Fe  Fe47  1  0.83000569  0.16040739  0.82800533  1
  Cr  Cr48  1  0.82663411  0.49647194  0.49488752  1
  Cr  Cr49  1  0.66158667  0.32775912  0.66562354  1
  Cr  Cr50  1  0.82813278  0.49703994  0.83091189  1
  Fe  Fe51  1  0.82536518  0.83012423  0.49655699  1
  Fe  Fe52  1  0.66080472  0.66421086  0.66253924  1
  Fe  Fe53  1  0.83022650  0.83080178  0.82797253  1
" 