1905,Ni2Fe41Cr55_4,-215.006064335674, 183.804409319334,Ni2Fe41Cr55,"# generated using pymatgen
 data_Cr31Fe22Ni
_symmetry_space_group_name_H-M   'P 1'
_cell_length_a   7.54027755
_cell_length_b   7.54027755
_cell_length_c   10.66356278
_cell_angle_alpha   90.00000000
_cell_angle_beta   90.00000000
_cell_angle_gamma   90.00000000
_symmetry_Int_Tables_number   1
_chemical_formula_structural   Cr31Fe22Ni
_chemical_formula_sum   'Cr31 Fe22 Ni1'
_cell_volume   606.28523823
_cell_formula_units_Z   1
loop_
 _symmetry_equiv_pos_site_id
 _symmetry_equiv_pos_as_xyz
  1  'x, y, z'
loop_
 _atom_site_type_symbol
 _atom_site_label
 _atom_site_symmetry_multiplicity
 _atom_site_fract_x
 _atom_site_fract_y
 _atom_site_fract_z
 _atom_site_occupancy
  Cr  Cr0  1  0.99418635  0.99433217  -0.00428503  1
  Cr  Cr1  1  0.16455204  0.16088087  0.15605570  1
  Cr  Cr2  1  -0.00451233  0.99383849  0.32715228  1
  Cr  Cr3  1  -0.00248625  0.32793769  0.99416794  1
  Fe  Fe4  1  0.16515871  0.49701197  0.15953348  1
  Cr  Cr5  1  -0.00401734  0.32768997  0.32815424  1
  Cr  Cr6  1  -0.00429260  0.66345275  -0.00453692  1
  Fe  Fe7  1  0.16326491  0.82663481  0.15970069  1
  Cr  Cr8  1  -0.00179818  0.66386391  0.32849430  1
  Fe  Fe9  1  0.32826761  0.99231178  0.99383982  1
  Cr  Cr10  1  0.49373822  0.16071893  0.16268850  1
  Cr  Cr11  1  0.32757341  0.99356819  0.33010402  1
  Fe  Fe12  1  0.32924544  0.33161573  0.99461162  1
  Fe  Fe13  1  0.49395627  0.49618776  0.16032884  1
  Cr  Cr14  1  0.33040183  0.33084424  0.32668220  1
  Ni  Ni15  1  0.33187908  0.65975703  0.99465215  1
  Cr  Cr16  1  0.49481797  0.82693081  0.15963639  1
  Cr  Cr17  1  0.32862537  0.66113491  0.32835909  1
  Cr  Cr18  1  0.66282480  0.99169901  0.99202845  1
  Cr  Cr19  1  0.82746277  0.16287727  0.16392304  1
  Cr  Cr20  1  0.66218942  -0.00351205  0.33145602  1
  Cr  Cr21  1  0.65866104  0.33055668  0.99464304  1
  Cr  Cr22  1  0.82671338  0.49783113  0.16412020  1
  Fe  Fe23  1  0.66085739  0.32921565  0.32892452  1
  Fe  Fe24  1  0.65958864  0.66164639  0.99372946  1
  Fe  Fe25  1  0.82745182  0.82803451  0.16218955  1
  Fe  Fe26  1  0.66097233  0.66165579  0.32779205  1
  Cr  Cr27  1  0.16445050  0.16047771  0.49710437  1
  Cr  Cr28  1  0.99384852  0.99433950  0.66153315  1
  Fe  Fe29  1  0.16392178  0.16122628  0.82837954  1
  Cr  Cr30  1  0.16075697  0.49778498  0.49845152  1
  Cr  Cr31  1  -0.00462511  0.32749923  0.66275978  1
  Cr  Cr32  1  0.16305946  0.49496050  0.82706367  1
  Fe  Fe33  1  0.16222510  0.82760706  0.49779521  1
  Fe  Fe34  1  -0.00451403  0.66332981  0.66185391  1
  Cr  Cr35  1  0.16508265  0.82902602  0.82625178  1
  Fe  Fe36  1  0.49733853  0.16322384  0.49746570  1
  Fe  Fe37  1  0.32984314  0.99507747  0.66169424  1
  Cr  Cr38  1  0.49121060  0.15927712  0.82712018  1
  Cr  Cr39  1  0.49694699  0.49456407  0.49488131  1
  Fe  Fe40  1  0.33092569  0.32822970  0.66205847  1
  Fe  Fe41  1  0.49236780  0.49649702  0.82921421  1
  Cr  Cr42  1  0.49277562  0.83059587  0.49765757  1
  Fe  Fe43  1  0.32827901  0.66219247  0.66285572  1
  Fe  Fe44  1  0.49387151  0.82612292  0.82959659  1
  Fe  Fe45  1  0.82558159  0.16261647  0.49627991  1
  Fe  Fe46  1  0.66059930  -0.00360098  0.66175441  1
  Cr  Cr47  1  0.82788227  0.16219130  0.82748272  1
  Cr  Cr48  1  0.82789341  0.49413604  0.49514774  1
  Fe  Fe49  1  0.65978163  0.32664898  0.66154214  1
  Cr  Cr50  1  0.82835472  0.49737233  0.82710408  1
  Cr  Cr51  1  0.82819543  0.82640764  0.49559100  1
  Cr  Cr52  1  0.65842063  0.66284304  0.66729049  1
  Fe  Fe53  1  0.82802460  0.82841766  0.82770535  1
" 