759,Ni2Fe66Cr31_9,-220.308851227064, 154.915700191836,Ni2Fe66Cr31,"# generated using pymatgen
 data_Cr18Fe35Ni
_symmetry_space_group_name_H-M   'P 1'
_cell_length_a   7.50217461
_cell_length_b   7.50217461
_cell_length_c   10.60967707
_cell_angle_alpha   90.00000000
_cell_angle_beta   90.00000000
_cell_angle_gamma   90.00000000
_symmetry_Int_Tables_number   1
_chemical_formula_structural   Cr18Fe35Ni
_chemical_formula_sum   'Cr18 Fe35 Ni1'
_cell_volume   597.14046362
_cell_formula_units_Z   1
loop_
 _symmetry_equiv_pos_site_id
 _symmetry_equiv_pos_as_xyz
  1  'x, y, z'
loop_
 _atom_site_type_symbol
 _atom_site_label
 _atom_site_symmetry_multiplicity
 _atom_site_fract_x
 _atom_site_fract_y
 _atom_site_fract_z
 _atom_site_occupancy
  Cr  Cr0  1  0.99594474  -0.00081066  0.99584112  1
  Cr  Cr1  1  0.16651016  0.16367897  0.16526193  1
  Fe  Fe2  1  -0.00151933  0.99696232  0.33352742  1
  Fe  Fe3  1  -0.00030249  0.33262581  0.99636906  1
  Cr  Cr4  1  0.16181618  0.49854479  0.16223977  1
  Fe  Fe5  1  0.99713928  0.33200638  0.33345641  1
  Fe  Fe6  1  0.99494888  0.66377439  -0.00210891  1
  Cr  Cr7  1  0.16298697  0.83087605  0.16777131  1
  Fe  Fe8  1  0.99454821  0.66418139  0.33287803  1
  Fe  Fe9  1  0.33243512  0.99739175  0.99658132  1
  Cr  Cr10  1  0.49594694  0.16437244  0.16381510  1
  Fe  Fe11  1  0.33037282  -0.00224748  0.33348067  1
  Fe  Fe12  1  0.32883651  0.33040334  0.99564454  1
  Fe  Fe13  1  0.49885006  0.49849307  0.16531741  1
  Fe  Fe14  1  0.33087055  0.33154333  0.33311533  1
  Cr  Cr15  1  0.33356289  0.66420777  0.99600225  1
  Fe  Fe16  1  0.49912715  0.83019272  0.16375898  1
  Cr  Cr17  1  0.33353655  0.66420852  0.33407988  1
  Fe  Fe18  1  0.66273751  0.99316321  -0.00191030  1
  Cr  Cr19  1  0.83078177  0.16580088  0.16634713  1
  Cr  Cr20  1  0.66542473  0.99582716  0.33010650  1
  Cr  Cr21  1  0.66595715  0.33246812  -0.00001714  1
  Fe  Fe22  1  0.83049514  0.50027475  0.16525980  1
  Fe  Fe23  1  0.66460378  0.33510701  0.33147063  1
  Fe  Fe24  1  0.66589434  0.66726279  -0.00107494  1
  Fe  Fe25  1  0.83011691  0.82824597  0.16412888  1
  Fe  Fe26  1  0.66607317  0.66261004  0.33112763  1
  Fe  Fe27  1  0.16379618  0.16500097  0.49670543  1
  Fe  Fe28  1  0.99717989  0.99672073  0.66273852  1
  Fe  Fe29  1  0.16574714  0.16710110  0.83134741  1
  Fe  Fe30  1  0.16493266  0.49673512  0.49814127  1
  Cr  Cr31  1  -0.00114948  0.32982848  0.66548570  1
  Fe  Fe32  1  0.16496195  0.49531216  0.83084411  1
  Fe  Fe33  1  0.16271739  0.83118471  0.49763582  1
  Fe  Fe34  1  -0.00129309  0.66474299  0.66231596  1
  Cr  Cr35  1  0.16236240  0.82785311  0.82942856  1
  Cr  Cr36  1  0.49867026  0.16721319  0.49791637  1
  Cr  Cr37  1  0.33071744  0.99633095  0.66407023  1
  Cr  Cr38  1  0.49744075  0.16389486  0.83147205  1
  Fe  Fe39  1  0.49809646  0.49814740  0.49972283  1
  Ni  Ni40  1  0.32908693  0.33363790  0.66394683  1
  Cr  Cr41  1  0.49705789  0.49663899  0.82679267  1
  Fe  Fe42  1  0.49905547  0.82947787  0.49861342  1
  Fe  Fe43  1  0.33027662  0.66185647  0.66221196  1
  Fe  Fe44  1  0.50132317  0.83071715  0.83060595  1
  Fe  Fe45  1  0.83249931  0.16425425  0.49754963  1
  Fe  Fe46  1  0.66555693  0.99626711  0.66274386  1
  Cr  Cr47  1  0.82829241  0.16290131  0.82826266  1
  Fe  Fe48  1  0.83003945  0.49805169  0.49748430  1
  Fe  Fe49  1  0.66298071  0.33185887  0.66232958  1
  Cr  Cr50  1  0.83250137  0.50093478  0.83188737  1
  Fe  Fe51  1  0.83145830  0.83040721  0.49853402  1
  Fe  Fe52  1  0.66369610  0.66508732  0.66252698  1
  Fe  Fe53  1  0.82787917  0.83025795  0.82979615  1
" 