525,Ni2Fe57Cr40_0,-218.90765560697, 170.841685295887,Ni2Fe57Cr40,"# generated using pymatgen
 data_Cr22Fe31Ni
_symmetry_space_group_name_H-M   'P 1'
_cell_length_a   7.51608600
_cell_length_b   7.51608600
_cell_length_c   10.62935076
_cell_angle_alpha   90.00000000
_cell_angle_beta   90.00000000
_cell_angle_gamma   90.00000000
_symmetry_Int_Tables_number   1
_chemical_formula_structural   Cr22Fe31Ni
_chemical_formula_sum   'Cr22 Fe31 Ni1'
_cell_volume   600.46848635
_cell_formula_units_Z   1
loop_
 _symmetry_equiv_pos_site_id
 _symmetry_equiv_pos_as_xyz
  1  'x, y, z'
loop_
 _atom_site_type_symbol
 _atom_site_label
 _atom_site_symmetry_multiplicity
 _atom_site_fract_x
 _atom_site_fract_y
 _atom_site_fract_z
 _atom_site_occupancy
  Cr  Cr0  1  0.99550368  0.00079802  -0.00015714  1
  Fe  Fe1  1  0.16361459  0.16381625  0.16487413  1
  Fe  Fe2  1  0.99609711  0.99250010  0.33134448  1
  Cr  Cr3  1  -0.00246254  0.32796963  0.99047401  1
  Cr  Cr4  1  0.16252234  0.49775667  0.16211815  1
  Cr  Cr5  1  -0.00204585  0.32543543  0.33261468  1
  Fe  Fe6  1  -0.00178085  0.66593879  0.99560761  1
  Fe  Fe7  1  0.16378796  0.83229777  0.16494353  1
  Fe  Fe8  1  0.99495497  0.66336840  0.33036691  1
  Fe  Fe9  1  0.32896340  -0.00171571  0.99646316  1
  Cr  Cr10  1  0.49376079  0.16214428  0.16555410  1
  Fe  Fe11  1  0.32834328  -0.00251937  0.33063579  1
  Fe  Fe12  1  0.33031037  0.32706808  0.99481789  1
  Cr  Cr13  1  0.49837997  0.49050196  0.16613521  1
  Fe  Fe14  1  0.33028735  0.32987788  0.33284151  1
  Cr  Cr15  1  0.33598006  0.66491973  -0.00206128  1
  Fe  Fe16  1  0.49588083  0.83080003  0.16428026  1
  Cr  Cr17  1  0.33043950  0.66390300  0.33342919  1
  Cr  Cr18  1  0.66203623  0.99259649  -0.00312434  1
  Cr  Cr19  1  0.82690337  0.16445164  0.16819120  1
  Fe  Fe20  1  0.66339158  -0.00291744  0.33100140  1
  Fe  Fe21  1  0.66274538  0.32699708  0.99580241  1
  Cr  Cr22  1  0.83086880  0.49825121  0.15885724  1
  Ni  Ni23  1  0.66440449  0.32974366  0.33288428  1
  Fe  Fe24  1  0.66577934  0.66263912  0.99638223  1
  Fe  Fe25  1  0.83137531  0.82989745  0.16444299  1
  Cr  Cr26  1  0.66056628  0.66587764  0.32816917  1
  Fe  Fe27  1  0.16405414  0.16054630  0.49563595  1
  Cr  Cr28  1  0.99304764  0.00087198  0.66042648  1
  Fe  Fe29  1  0.16684701  0.16263242  0.82961633  1
  Fe  Fe30  1  0.16266763  0.49671722  0.49574308  1
  Cr  Cr31  1  0.99569350  0.32786916  0.66629866  1
  Fe  Fe32  1  0.16426298  0.49971037  0.83058286  1
  Fe  Fe33  1  0.16058344  0.83120831  0.49681366  1
  Fe  Fe34  1  -0.00053968  0.66263988  0.66143879  1
  Cr  Cr35  1  0.16431829  0.83209451  0.82817643  1
  Cr  Cr36  1  0.49664545  0.16560053  0.49603235  1
  Fe  Fe37  1  0.32828664  0.00048552  0.66423291  1
  Fe  Fe38  1  0.49554397  0.16037041  0.82903400  1
  Fe  Fe39  1  0.49939093  0.49655631  0.49573946  1
  Cr  Cr40  1  0.32737721  0.33351097  0.66110704  1
  Cr  Cr41  1  0.50052020  0.49264083  0.82957972  1
  Cr  Cr42  1  0.49669908  0.83593935  0.50179071  1
  Cr  Cr43  1  0.33335333  0.66403327  0.65958622  1
  Fe  Fe44  1  0.49781663  0.83054370  0.82731072  1
  Fe  Fe45  1  0.82739142  0.16147809  0.49498057  1
  Fe  Fe46  1  0.66194480  -0.00049021  0.66573327  1
  Fe  Fe47  1  0.82478774  0.16270114  0.82951944  1
  Cr  Cr48  1  0.83060596  0.49789899  0.49840660  1
  Fe  Fe49  1  0.66350008  0.32801213  0.66246938  1
  Fe  Fe50  1  0.83068014  0.49673240  0.82946227  1
  Fe  Fe51  1  0.82935754  0.83156063  0.49689774  1
  Fe  Fe52  1  0.66608891  0.66253249  0.66311538  1
  Cr  Cr53  1  0.83230684  0.82704514  0.82722083  1
" 