2098,Ni2Fe57Cr40_8,-218.864090971624, 158.937569143552,Ni2Fe57Cr40,"# generated using pymatgen
 data_Cr22Fe31Ni
_symmetry_space_group_name_H-M   'P 1'
_cell_length_a   7.52032503
_cell_length_b   7.52032503
_cell_length_c   10.63534565
_cell_angle_alpha   90.00000000
_cell_angle_beta   90.00000000
_cell_angle_gamma   90.00000000
_symmetry_Int_Tables_number   1
_chemical_formula_structural   Cr22Fe31Ni
_chemical_formula_sum   'Cr22 Fe31 Ni1'
_cell_volume   601.48504166
_cell_formula_units_Z   1
loop_
 _symmetry_equiv_pos_site_id
 _symmetry_equiv_pos_as_xyz
  1  'x, y, z'
loop_
 _atom_site_type_symbol
 _atom_site_label
 _atom_site_symmetry_multiplicity
 _atom_site_fract_x
 _atom_site_fract_y
 _atom_site_fract_z
 _atom_site_occupancy
  Cr  Cr0  1  0.99473951  -0.00331420  -0.00087767  1
  Fe  Fe1  1  0.16307361  0.16254802  0.16448165  1
  Fe  Fe2  1  0.99627010  -0.00156255  0.33015179  1
  Cr  Cr3  1  0.99414901  0.32641604  -0.00313896  1
  Cr  Cr4  1  0.16441837  0.49586370  0.16172151  1
  Fe  Fe5  1  -0.00294830  0.32798908  0.33119311  1
  Cr  Cr6  1  0.99569513  0.66639628  0.99531585  1
  Cr  Cr7  1  0.16430122  0.83052077  0.16412466  1
  Fe  Fe8  1  -0.00258750  0.66292037  0.33106580  1
  Fe  Fe9  1  0.33267139  0.99545663  -0.00334792  1
  Cr  Cr10  1  0.49582917  0.16128878  0.16221867  1
  Fe  Fe11  1  0.33020809  0.99554393  0.33132434  1
  Fe  Fe12  1  0.33123877  0.33032914  -0.00322209  1
  Fe  Fe13  1  0.49499915  0.49870409  0.16412984  1
  Cr  Cr14  1  0.32943892  0.32978266  0.33003052  1
  Fe  Fe15  1  0.33199738  0.66332441  0.99628676  1
  Fe  Fe16  1  0.49682177  0.82891959  0.16452576  1
  Fe  Fe17  1  0.33035585  0.66538843  0.33063677  1
  Fe  Fe18  1  0.66267396  -0.00333341  0.99608475  1
  Fe  Fe19  1  0.83016489  0.16101612  0.16456400  1
  Fe  Fe20  1  0.66272700  0.99560524  0.32977121  1
  Cr  Cr21  1  0.66154907  0.33014154  0.99548508  1
  Cr  Cr22  1  0.83006655  0.49793605  0.16645911  1
  Cr  Cr23  1  0.66391617  0.32913698  0.32977499  1
  Cr  Cr24  1  0.66004305  0.66340154  -0.00249375  1
  Fe  Fe25  1  0.82720005  0.83186064  0.16593806  1
  Fe  Fe26  1  0.66161123  0.66586176  0.32882515  1
  Fe  Fe27  1  0.16250265  0.16222453  0.49592730  1
  Cr  Cr28  1  -0.00271521  -0.00331757  0.66395281  1
  Cr  Cr29  1  0.16590910  0.16293489  0.83230999  1
  Fe  Fe30  1  0.16008410  0.49738264  0.49597532  1
  Fe  Fe31  1  -0.00300625  0.32854383  0.66167572  1
  Cr  Cr32  1  0.16353446  0.49611886  0.83070849  1
  Fe  Fe33  1  0.16420015  0.82995798  0.49480528  1
  Fe  Fe34  1  -0.00325565  0.66161685  0.66056404  1
  Cr  Cr35  1  0.16510207  0.83026707  0.82938860  1
  Fe  Fe36  1  0.49708899  0.15897543  0.49586766  1
  Fe  Fe37  1  0.33269382  -0.00277374  0.66155743  1
  Fe  Fe38  1  0.49781192  0.16003542  0.83058177  1
  Cr  Cr39  1  0.49823588  0.49711120  0.49404219  1
  Cr  Cr40  1  0.33162581  0.32904444  0.66256136  1
  Fe  Fe41  1  0.49611998  0.49681433  0.82972999  1
  Fe  Fe42  1  0.49582811  0.83203408  0.49553086  1
  Cr  Cr43  1  0.33052517  0.66516207  0.66236568  1
  Fe  Fe44  1  0.49685511  0.83258709  0.82966791  1
  Fe  Fe45  1  0.83018549  0.16328370  0.49681490  1
  Fe  Fe46  1  0.66013964  -0.00334328  0.66307377  1
  Ni  Ni47  1  0.82587740  0.16134308  0.82915247  1
  Fe  Fe48  1  0.83234183  0.49596076  0.49644818  1
  Cr  Cr49  1  0.66288536  0.32831410  0.66284890  1
  Cr  Cr50  1  0.83058327  0.49675402  0.82458506  1
  Cr  Cr51  1  0.82813174  0.82820307  0.49620735  1
  Fe  Fe52  1  0.66161707  0.66462661  0.66224892  1
  Cr  Cr53  1  0.82719401  0.83071654  0.82909873  1
" 