942,Ni2Fe41Cr55_16,-215.492845522076, 190.002726542213,Ni2Fe41Cr55,"# generated using pymatgen
 data_Cr31Fe22Ni
_symmetry_space_group_name_H-M   'P 1'
_cell_length_a   7.55292230
_cell_length_b   7.55292230
_cell_length_c   10.68144515
_cell_angle_alpha   90.00000000
_cell_angle_beta   90.00000000
_cell_angle_gamma   90.00000000
_symmetry_Int_Tables_number   1
_chemical_formula_structural   Cr31Fe22Ni
_chemical_formula_sum   'Cr31 Fe22 Ni1'
_cell_volume   609.34050582
_cell_formula_units_Z   1
loop_
 _symmetry_equiv_pos_site_id
 _symmetry_equiv_pos_as_xyz
  1  'x, y, z'
loop_
 _atom_site_type_symbol
 _atom_site_label
 _atom_site_symmetry_multiplicity
 _atom_site_fract_x
 _atom_site_fract_y
 _atom_site_fract_z
 _atom_site_occupancy
  Fe  Fe0  1  0.99299082  -0.00484019  0.99372840  1
  Fe  Fe1  1  0.16152574  0.16032280  0.15905132  1
  Fe  Fe2  1  -0.00563853  0.99394231  0.32699763  1
  Cr  Cr3  1  -0.00354542  0.32759560  0.99201749  1
  Fe  Fe4  1  0.16302474  0.49228577  0.15940410  1
  Cr  Cr5  1  -0.00312105  0.32820361  0.32654021  1
  Cr  Cr6  1  0.99165765  0.65947429  -0.00393138  1
  Cr  Cr7  1  0.15999090  0.82659514  0.15782848  1
  Cr  Cr8  1  0.99231097  0.66063945  0.32488638  1
  Fe  Fe9  1  0.32550227  -0.00259788  0.99396629  1
  Cr  Cr10  1  0.49634857  0.16220685  0.16134080  1
  Cr  Cr11  1  0.32628357  -0.00417822  0.32847370  1
  Fe  Fe12  1  0.32824185  0.32858084  -0.00523270  1
  Fe  Fe13  1  0.49332931  0.49418474  0.16058144  1
  Cr  Cr14  1  0.32645416  0.32611021  0.32886864  1
  Fe  Fe15  1  0.32822000  0.65752856  -0.00529250  1
  Cr  Cr16  1  0.49088903  0.82834238  0.15801172  1
  Cr  Cr17  1  0.32775822  0.66080424  0.32724744  1
  Cr  Cr18  1  0.66061914  0.99297031  0.99138507  1
  Cr  Cr19  1  0.82784692  0.16231753  0.16212886  1
  Cr  Cr20  1  0.65989906  0.99144378  0.32891117  1
  Cr  Cr21  1  0.66185808  0.32952057  0.99400823  1
  Fe  Fe22  1  0.82704733  0.49385315  0.16043430  1
  Fe  Fe23  1  0.66073293  0.32969466  0.32588640  1
  Cr  Cr24  1  0.66128157  0.66112144  0.99337262  1
  Fe  Fe25  1  0.82685688  0.83000822  0.16004389  1
  Cr  Cr26  1  0.66195961  0.66151631  0.32555650  1
  Fe  Fe27  1  0.16003768  0.16144765  0.49525542  1
  Fe  Fe28  1  0.99327807  0.99425917  0.66219891  1
  Fe  Fe29  1  0.16170794  0.16048694  0.82830926  1
  Cr  Cr30  1  0.16105813  0.49617743  0.49688364  1
  Cr  Cr31  1  -0.00362316  0.32662273  0.66357028  1
  Cr  Cr32  1  0.16230423  0.49619970  0.82701772  1
  Cr  Cr33  1  0.15862451  0.82705957  0.49451863  1
  Cr  Cr34  1  0.99032654  0.66064617  0.66119813  1
  Cr  Cr35  1  0.16016864  0.82770281  0.83032535  1
  Cr  Cr36  1  0.49863017  0.16241201  0.49328070  1
  Cr  Cr37  1  0.32749551  -0.00257572  0.65879443  1
  Cr  Cr38  1  0.49586049  0.16179851  0.82882956  1
  Cr  Cr39  1  0.49467475  0.49438121  0.49705614  1
  Fe  Fe40  1  0.32838227  0.32775013  0.66202741  1
  Fe  Fe41  1  0.49489969  0.49502917  0.82727491  1
  Cr  Cr42  1  0.49368953  0.82660249  0.49752968  1
  Fe  Fe43  1  0.32749193  0.66075915  0.66212995  1
  Cr  Cr44  1  0.49149684  0.82720780  0.82688940  1
  Cr  Cr45  1  0.82849580  0.16006621  0.49310905  1
  Fe  Fe46  1  0.66420868  0.99332625  0.66239273  1
  Fe  Fe47  1  0.82999772  0.15988665  0.82780440  1
  Cr  Cr48  1  0.82721307  0.49208270  0.49237615  1
  Cr  Cr49  1  0.66252810  0.32810062  0.66424154  1
  Ni  Ni50  1  0.82760756  0.49348293  0.82808556  1
  Fe  Fe51  1  0.82675089  0.82720951  0.49529927  1
  Fe  Fe52  1  0.66165177  0.66061407  0.66351865  1
  Fe  Fe53  1  0.82773561  0.82663490  0.82688589  1
" 