5342,Ni2Fe46Cr50_3,-216.143152823098, 180.231683684166,Ni2Fe46Cr50,"# generated using pymatgen
 data_Cr28Fe25Ni
_symmetry_space_group_name_H-M   'P 1'
_cell_length_a   7.53050500
_cell_length_b   7.53050500
_cell_length_c   10.64974230
_cell_angle_alpha   90.00000000
_cell_angle_beta   90.00000000
_cell_angle_gamma   90.00000000
_symmetry_Int_Tables_number   1
_chemical_formula_structural   Cr28Fe25Ni
_chemical_formula_sum   'Cr28 Fe25 Ni1'
_cell_volume   603.93097041
_cell_formula_units_Z   1
loop_
 _symmetry_equiv_pos_site_id
 _symmetry_equiv_pos_as_xyz
  1  'x, y, z'
loop_
 _atom_site_type_symbol
 _atom_site_label
 _atom_site_symmetry_multiplicity
 _atom_site_fract_x
 _atom_site_fract_y
 _atom_site_fract_z
 _atom_site_occupancy
  Fe  Fe0  1  0.99549758  0.99571052  -0.00364479  1
  Cr  Cr1  1  0.16427102  0.16205489  0.15983574  1
  Cr  Cr2  1  0.99411214  -0.00290352  0.32767802  1
  Fe  Fe3  1  -0.00342872  0.33089738  -0.00280923  1
  Fe  Fe4  1  0.16424458  0.49528970  0.16324949  1
  Cr  Cr5  1  -0.00038851  0.32896338  0.32891936  1
  Cr  Cr6  1  -0.00156638  0.66151638  0.99447944  1
  Cr  Cr7  1  0.16467978  0.82915262  0.16194849  1
  Fe  Fe8  1  0.99492989  0.66242844  0.32963269  1
  Fe  Fe9  1  0.32986307  0.99439484  -0.00408221  1
  Cr  Cr10  1  0.49511731  0.16456277  0.16181816  1
  Fe  Fe11  1  0.33119254  0.99480880  0.32914606  1
  Fe  Fe12  1  0.32921047  0.33118560  0.99542760  1
  Fe  Fe13  1  0.49421587  0.49722080  0.16501731  1
  Fe  Fe14  1  0.33139406  0.33030723  0.32872455  1
  Cr  Cr15  1  0.32946653  0.65913321  0.99530064  1
  Fe  Fe16  1  0.49585211  0.82802982  0.16337277  1
  Fe  Fe17  1  0.32980650  0.66229524  0.32783123  1
  Fe  Fe18  1  0.66206721  -0.00383201  -0.00274780  1
  Fe  Fe19  1  0.82844567  0.16291241  0.16002917  1
  Cr  Cr20  1  0.66207566  -0.00396157  0.33050162  1
  Fe  Fe21  1  0.66134534  0.33045377  -0.00378546  1
  Cr  Cr22  1  0.82602528  0.49592164  0.16411956  1
  Fe  Fe23  1  0.66168979  0.33003386  0.32836195  1
  Cr  Cr24  1  0.65950022  0.66176126  0.99408811  1
  Cr  Cr25  1  0.82859154  0.82628035  0.16302575  1
  Ni  Ni26  1  0.65752646  0.66384250  0.32886816  1
  Cr  Cr27  1  0.16650203  0.16186109  0.49722994  1
  Cr  Cr28  1  0.99428761  -0.00387825  0.66217497  1
  Cr  Cr29  1  0.16350781  0.16086691  0.82965610  1
  Fe  Fe30  1  0.16323325  0.49635408  0.49430928  1
  Fe  Fe31  1  -0.00394109  0.33091217  0.66334055  1
  Fe  Fe32  1  0.16150118  0.49309840  0.83019193  1
  Cr  Cr33  1  0.16446280  0.82869978  0.49529502  1
  Cr  Cr34  1  -0.00201658  0.66091021  0.66341074  1
  Fe  Fe35  1  0.16284792  0.83096604  0.83013815  1
  Fe  Fe36  1  0.49425078  0.16213477  0.49389607  1
  Fe  Fe37  1  0.33025922  0.99430506  0.66174630  1
  Cr  Cr38  1  0.49388565  0.16240139  0.82873184  1
  Cr  Cr39  1  0.49741059  0.49624656  0.49304547  1
  Cr  Cr40  1  0.32793357  0.33095861  0.66159792  1
  Fe  Fe41  1  0.49600501  0.49296158  0.83033626  1
  Fe  Fe42  1  0.49519867  0.82813340  0.49434608  1
  Cr  Cr43  1  0.32850180  0.66043595  0.66608297  1
  Cr  Cr44  1  0.49331742  0.83073758  0.82933270  1
  Cr  Cr45  1  0.82960373  0.16676058  0.49560771  1
  Cr  Cr46  1  0.66177556  0.99573578  0.65777850  1
  Cr  Cr47  1  0.82975860  0.16480748  0.83328687  1
  Cr  Cr48  1  0.82854252  0.49910121  0.49608325  1
  Cr  Cr49  1  0.66118812  0.32823708  0.66342098  1
  Fe  Fe50  1  0.82969616  0.49361861  0.83004584  1
  Fe  Fe51  1  0.82816636  0.82672594  0.49353072  1
  Cr  Cr52  1  0.66113518  0.66311515  0.66452081  1
  Cr  Cr53  1  0.82972794  0.82781134  0.82903547  1
" 