2299,Ni2Fe57Cr40_14,-218.855671810279, 163.891070613172,Ni2Fe57Cr40,"# generated using pymatgen
 data_Cr22Fe31Ni
_symmetry_space_group_name_H-M   'P 1'
_cell_length_a   7.51544054
_cell_length_b   7.51544054
_cell_length_c   10.62843793
_cell_angle_alpha   90.00000000
_cell_angle_beta   90.00000000
_cell_angle_gamma   90.00000000
_symmetry_Int_Tables_number   1
_chemical_formula_structural   Cr22Fe31Ni
_chemical_formula_sum   'Cr22 Fe31 Ni1'
_cell_volume   600.31379948
_cell_formula_units_Z   1
loop_
 _symmetry_equiv_pos_site_id
 _symmetry_equiv_pos_as_xyz
  1  'x, y, z'
loop_
 _atom_site_type_symbol
 _atom_site_label
 _atom_site_symmetry_multiplicity
 _atom_site_fract_x
 _atom_site_fract_y
 _atom_site_fract_z
 _atom_site_occupancy
  Cr  Cr0  1  -0.00313747  0.99460536  0.99608451  1
  Fe  Fe1  1  0.16477668  0.16598799  0.16433998  1
  Cr  Cr2  1  0.00046820  0.99200050  0.32905473  1
  Fe  Fe3  1  -0.00044158  0.32912097  -0.00262620  1
  Ni  Ni4  1  0.16507375  0.49801020  0.16161506  1
  Cr  Cr5  1  0.99645659  0.33104326  0.33023947  1
  Cr  Cr6  1  -0.00273401  0.66477444  0.00103606  1
  Fe  Fe7  1  0.16499116  0.82802886  0.16420496  1
  Fe  Fe8  1  -0.00253686  0.66198100  0.32903263  1
  Cr  Cr9  1  0.33055226  0.99540161  -0.00102356  1
  Fe  Fe10  1  0.49521127  0.16299219  0.16617138  1
  Fe  Fe11  1  0.33022069  -0.00234351  0.32757467  1
  Cr  Cr12  1  0.33009345  0.32965093  -0.00301741  1
  Cr  Cr13  1  0.49555496  0.49869685  0.16372057  1
  Fe  Fe14  1  0.32619177  0.33069236  0.32878395  1
  Fe  Fe15  1  0.32974381  0.66513099  -0.00167856  1
  Fe  Fe16  1  0.49826936  0.83062715  0.16457259  1
  Cr  Cr17  1  0.32788117  0.66497568  0.33098587  1
  Fe  Fe18  1  0.66271940  0.99386958  0.99577219  1
  Cr  Cr19  1  0.82931345  0.16155141  0.16204128  1
  Fe  Fe20  1  0.66313964  0.99436380  0.32819968  1
  Cr  Cr21  1  0.66280802  0.32905643  0.99540537  1
  Cr  Cr22  1  0.83101354  0.49681292  0.16385921  1
  Cr  Cr23  1  0.66129407  0.33321968  0.33322690  1
  Fe  Fe24  1  0.66233855  0.66821603  -0.00305858  1
  Fe  Fe25  1  0.82764851  0.82861089  0.16504239  1
  Fe  Fe26  1  0.66488049  0.66583114  0.33039681  1
  Fe  Fe27  1  0.16295737  0.16233535  0.49619053  1
  Fe  Fe28  1  0.99589829  -0.00235407  0.66509976  1
  Fe  Fe29  1  0.16158237  0.16557505  0.82946723  1
  Fe  Fe30  1  0.16213280  0.49813126  0.49645683  1
  Fe  Fe31  1  -0.00062896  0.33048609  0.66326764  1
  Fe  Fe32  1  0.16243723  0.49619650  0.83087908  1
  Fe  Fe33  1  0.16250248  0.82961788  0.49862252  1
  Fe  Fe34  1  -0.00212865  0.66130561  0.66268681  1
  Cr  Cr35  1  0.16567936  0.82728161  0.82731981  1
  Cr  Cr36  1  0.49519635  0.16191322  0.49159182  1
  Cr  Cr37  1  0.32856221  0.99659583  0.66283211  1
  Fe  Fe38  1  0.49735011  0.16145072  0.82938649  1
  Fe  Fe39  1  0.49646948  0.49961112  0.49658358  1
  Cr  Cr40  1  0.33113677  0.33075746  0.66103608  1
  Cr  Cr41  1  0.49358078  0.50171588  0.83061320  1
  Cr  Cr42  1  0.49616837  0.82993952  0.49812828  1
  Fe  Fe43  1  0.32925457  0.66169867  0.66141206  1
  Fe  Fe44  1  0.49953428  0.83125539  0.82962641  1
  Cr  Cr45  1  0.83178132  0.16211859  0.49912950  1
  Fe  Fe46  1  0.66329788  0.99627585  0.66580874  1
  Fe  Fe47  1  0.83108202  0.16091515  0.82868271  1
  Fe  Fe48  1  0.83127949  0.49950067  0.49783557  1
  Cr  Cr49  1  0.66330190  0.33171450  0.66160313  1
  Cr  Cr50  1  0.83262836  0.49554311  0.83170746  1
  Cr  Cr51  1  0.83126896  0.82950913  0.49745662  1
  Fe  Fe52  1  0.66347947  0.66463288  0.66426797  1
  Fe  Fe53  1  0.82854792  0.82951170  0.82849550  1
" 