2008,Ni2Fe46Cr50_13,-216.247089851994, 174.413627566989,Ni2Fe46Cr50,"# generated using pymatgen
 data_Cr28Fe25Ni
_symmetry_space_group_name_H-M   'P 1'
_cell_length_a   7.53855254
_cell_length_b   7.53855254
_cell_length_c   10.66112325
_cell_angle_alpha   90.00000000
_cell_angle_beta   90.00000000
_cell_angle_gamma   90.00000000
_symmetry_Int_Tables_number   1
_chemical_formula_structural   Cr28Fe25Ni
_chemical_formula_sum   'Cr28 Fe25 Ni1'
_cell_volume   605.86922984
_cell_formula_units_Z   1
loop_
 _symmetry_equiv_pos_site_id
 _symmetry_equiv_pos_as_xyz
  1  'x, y, z'
loop_
 _atom_site_type_symbol
 _atom_site_label
 _atom_site_symmetry_multiplicity
 _atom_site_fract_x
 _atom_site_fract_y
 _atom_site_fract_z
 _atom_site_occupancy
  Cr  Cr0  1  -0.00243853  -0.00233291  -0.00468469  1
  Fe  Fe1  1  0.16271432  0.16314397  0.16104343  1
  Cr  Cr2  1  -0.00449877  -0.00411092  0.32987039  1
  Fe  Fe3  1  -0.00430769  0.32864603  0.99510231  1
  Fe  Fe4  1  0.16188238  0.49529326  0.15948327  1
  Cr  Cr5  1  -0.00257146  0.33125524  0.32871321  1
  Fe  Fe6  1  -0.00346400  0.66185026  -0.00379834  1
  Cr  Cr7  1  0.16023910  0.82751130  0.16384101  1
  Fe  Fe8  1  -0.00232265  0.66079958  0.33033319  1
  Fe  Fe9  1  0.32780523  -0.00344873  -0.00399661  1
  Cr  Cr10  1  0.49585829  0.16259543  0.16401827  1
  Cr  Cr11  1  0.32998668  -0.00420147  0.33064774  1
  Fe  Fe12  1  0.32519866  0.32600786  -0.00389160  1
  Cr  Cr13  1  0.49413108  0.49559626  0.16061977  1
  Cr  Cr14  1  0.32725463  0.33012764  0.32685011  1
  Fe  Fe15  1  0.32601582  0.66340094  -0.00419110  1
  Cr  Cr16  1  0.49450268  0.82784133  0.16404427  1
  Fe  Fe17  1  0.32655730  0.66123391  0.33042651  1
  Cr  Cr18  1  0.66170340  0.99392765  -0.00315312  1
  Cr  Cr19  1  0.82869439  0.16180073  0.16541288  1
  Fe  Fe20  1  0.66165884  -0.00405824  0.33143787  1
  Cr  Cr21  1  0.66099867  0.32823443  0.99300409  1
  Cr  Cr22  1  0.82925745  0.49653198  0.16281375  1
  Fe  Fe23  1  0.66244344  0.32880645  0.33123056  1
  Cr  Cr24  1  0.66230362  0.66264878  0.99237227  1
  Fe  Fe25  1  0.82761771  0.82767342  0.16408434  1
  Fe  Fe26  1  0.66200928  0.66103364  0.33000685  1
  Cr  Cr27  1  0.16095356  0.16066546  0.49862949  1
  Fe  Fe28  1  0.99462714  -0.00439543  0.65941814  1
  Fe  Fe29  1  0.16226189  0.16353552  0.82556932  1
  Fe  Fe30  1  0.16179560  0.49509839  0.49615035  1
  Ni  Ni31  1  0.00025666  0.32746538  0.66078824  1
  Cr  Cr32  1  0.16231399  0.49581119  0.82976614  1
  Fe  Fe33  1  0.16494906  0.82607786  0.49575271  1
  Cr  Cr34  1  0.99513509  0.66008213  0.65960917  1
  Cr  Cr35  1  0.16189418  0.83169740  0.82418796  1
  Fe  Fe36  1  0.49629138  0.16198142  0.49578823  1
  Fe  Fe37  1  0.32756961  -0.00469285  0.65896513  1
  Cr  Cr38  1  0.49246073  0.16254597  0.82647390  1
  Cr  Cr39  1  0.49547525  0.49464324  0.49595497  1
  Fe  Fe40  1  0.32823763  0.32918409  0.66051482  1
  Cr  Cr41  1  0.49198629  0.49359845  0.82843689  1
  Fe  Fe42  1  0.49501660  0.82754714  0.49495806  1
  Fe  Fe43  1  0.32714564  0.66099522  0.65966075  1
  Cr  Cr44  1  0.49004188  0.82887580  0.82880106  1
  Fe  Fe45  1  0.82783676  0.16499951  0.49683608  1
  Cr  Cr46  1  0.66012740  0.99370171  0.66087985  1
  Cr  Cr47  1  0.83118439  0.16233506  0.82342311  1
  Fe  Fe48  1  0.82957309  0.49334528  0.49617367  1
  Fe  Fe49  1  0.66437779  0.32829978  0.65964664  1
  Cr  Cr50  1  0.83014778  0.49227568  0.82660305  1
  Cr  Cr51  1  0.83085761  0.82902077  0.49202762  1
  Cr  Cr52  1  0.66061790  0.66193643  0.66575558  1
  Cr  Cr53  1  0.83153394  0.82946026  0.83148714  1
" 