461,Ni2Fe50Cr47_7,-217.365537832132, 176.663960552225,Ni2Fe50Cr47,"# generated using pymatgen
 data_Cr26Fe27Ni
_symmetry_space_group_name_H-M   'P 1'
_cell_length_a   7.52753313
_cell_length_b   7.52753313
_cell_length_c   10.64553944
_cell_angle_alpha   90.00000000
_cell_angle_beta   90.00000000
_cell_angle_gamma   90.00000000
_symmetry_Int_Tables_number   1
_chemical_formula_structural   Cr26Fe27Ni
_chemical_formula_sum   'Cr26 Fe27 Ni1'
_cell_volume   603.21623882
_cell_formula_units_Z   1
loop_
 _symmetry_equiv_pos_site_id
 _symmetry_equiv_pos_as_xyz
  1  'x, y, z'
loop_
 _atom_site_type_symbol
 _atom_site_label
 _atom_site_symmetry_multiplicity
 _atom_site_fract_x
 _atom_site_fract_y
 _atom_site_fract_z
 _atom_site_occupancy
  Cr  Cr0  1  -0.00209643  0.99457363  -0.00324296  1
  Cr  Cr1  1  0.16088351  0.16188816  0.16077605  1
  Fe  Fe2  1  -0.00347559  -0.00396949  0.33096969  1
  Fe  Fe3  1  0.99429294  0.33145709  0.99530943  1
  Cr  Cr4  1  0.16298339  0.50036751  0.16414800  1
  Cr  Cr5  1  -0.00155447  0.33054299  0.33099916  1
  Cr  Cr6  1  0.99258324  0.66332654  0.99471593  1
  Cr  Cr7  1  0.16466120  0.82582435  0.16341157  1
  Fe  Fe8  1  0.99405630  0.66177779  0.33199941  1
  Fe  Fe9  1  0.32922158  0.99341817  0.99392365  1
  Cr  Cr10  1  0.50048703  0.16377623  0.16182884  1
  Cr  Cr11  1  0.32869489  0.00004679  0.32914935  1
  Cr  Cr12  1  0.33000455  0.32890942  -0.00227184  1
  Fe  Fe13  1  0.49813334  0.49662311  0.16366418  1
  Cr  Cr14  1  0.33150753  0.33009590  0.33247871  1
  Fe  Fe15  1  0.33000983  0.66361627  0.99367035  1
  Cr  Cr16  1  0.49308482  0.82671764  0.16208928  1
  Fe  Fe17  1  0.33167612  0.66124249  0.33102410  1
  Cr  Cr18  1  0.66312054  0.99212032  0.99426002  1
  Cr  Cr19  1  0.82700376  0.16647477  0.16218044  1
  Cr  Cr20  1  0.66295696  0.99301930  0.33281364  1
  Fe  Fe21  1  0.66423299  0.33226003  0.99524166  1
  Fe  Fe22  1  0.82729315  0.49600028  0.16458675  1
  Fe  Fe23  1  0.66269122  0.33275131  0.33113771  1
  Cr  Cr24  1  0.66340574  0.66035607  0.99451901  1
  Cr  Cr25  1  0.83032408  0.82902122  0.16900055  1
  Fe  Fe26  1  0.66240317  0.65837527  0.33158205  1
  Fe  Fe27  1  0.16117679  0.16261679  0.49661255  1
  Cr  Cr28  1  -0.00343487  0.99506371  0.66239116  1
  Fe  Fe29  1  0.16356813  0.16255157  0.82922709  1
  Fe  Fe30  1  0.16049522  0.49658178  0.49637968  1
  Fe  Fe31  1  0.99491350  0.33074575  0.66069245  1
  Cr  Cr32  1  0.16228627  0.49818501  0.82668359  1
  Cr  Cr33  1  0.16515567  0.82531071  0.49319583  1
  Cr  Cr34  1  0.99232431  0.66255060  0.66257094  1
  Fe  Fe35  1  0.16560734  0.83110421  0.82898061  1
  Fe  Fe36  1  0.49638696  0.16182197  0.49678875  1
  Fe  Fe37  1  0.33079735  0.99379476  0.66185782  1
  Cr  Cr38  1  0.49774822  0.16035091  0.82869214  1
  Fe  Fe39  1  0.49786990  0.49865063  0.49496355  1
  Cr  Cr40  1  0.32703082  0.32773486  0.65702106  1
  Fe  Fe41  1  0.49542809  0.49624916  0.82928675  1
  Fe  Fe42  1  0.49764086  0.82760537  0.49656704  1
  Fe  Fe43  1  0.33054128  0.66381550  0.66233545  1
  Fe  Fe44  1  0.49332110  0.82776909  0.82854247  1
  Cr  Cr45  1  0.82699105  0.16379273  0.49689866  1
  Fe  Fe46  1  0.66110240  0.99459824  0.66183236  1
  Cr  Cr47  1  0.82913421  0.16610459  0.82941907  1
  Ni  Ni48  1  0.82875362  0.49634215  0.49460794  1
  Cr  Cr49  1  0.65991946  0.33294830  0.66152329  1
  Fe  Fe50  1  0.82824362  0.49482670  0.82869297  1
  Fe  Fe51  1  0.82900544  0.82633083  0.49472393  1
  Cr  Cr52  1  0.66358022  0.66509025  0.66384857  1
  Fe  Fe53  1  0.82887627  0.82989927  0.82874818  1
" 