3143,Ni2Fe50Cr47_13,-217.82747236329, 171.274552915115,Ni2Fe50Cr47,"# generated using pymatgen
 data_Cr26Fe27Ni
_symmetry_space_group_name_H-M   'P 1'
_cell_length_a   7.54212280
_cell_length_b   7.54212280
_cell_length_c   10.66617236
_cell_angle_alpha   90.00000000
_cell_angle_beta   90.00000000
_cell_angle_gamma   90.00000000
_symmetry_Int_Tables_number   1
_chemical_formula_structural   Cr26Fe27Ni
_chemical_formula_sum   'Cr26 Fe27 Ni1'
_cell_volume   606.73045658
_cell_formula_units_Z   1
loop_
 _symmetry_equiv_pos_site_id
 _symmetry_equiv_pos_as_xyz
  1  'x, y, z'
loop_
 _atom_site_type_symbol
 _atom_site_label
 _atom_site_symmetry_multiplicity
 _atom_site_fract_x
 _atom_site_fract_y
 _atom_site_fract_z
 _atom_site_occupancy
  Fe  Fe0  1  -0.00485465  -0.00401906  -0.00418196  1
  Fe  Fe1  1  0.16096147  0.16105998  0.16073282  1
  Fe  Fe2  1  0.99488763  -0.00410936  0.32837816  1
  Fe  Fe3  1  -0.00409591  0.32671003  -0.00378560  1
  Fe  Fe4  1  0.16215059  0.49456202  0.16122254  1
  Cr  Cr5  1  -0.00431646  0.32800813  0.32702747  1
  Cr  Cr6  1  0.99375366  0.66241558  -0.00476475  1
  Cr  Cr7  1  0.16355892  0.82989578  0.16210402  1
  Cr  Cr8  1  -0.00326579  0.66208597  0.32887942  1
  Ni  Ni9  1  0.32847498  0.99406551  -0.00311623  1
  Cr  Cr10  1  0.49493661  0.15859520  0.16211192  1
  Fe  Fe11  1  0.32835656  0.99423326  0.32873291  1
  Cr  Cr12  1  0.32734834  0.32714318  0.99379313  1
  Cr  Cr13  1  0.49437235  0.49757707  0.16051039  1
  Cr  Cr14  1  0.32716553  0.32687667  0.32953905  1
  Fe  Fe15  1  0.32959970  0.66289191  -0.00458525  1
  Fe  Fe16  1  0.49504360  0.82909259  0.16073666  1
  Fe  Fe17  1  0.32794149  0.66260727  0.32876540  1
  Fe  Fe18  1  0.66157116  0.99344769  -0.00420171  1
  Fe  Fe19  1  0.82953572  0.15976053  0.16121362  1
  Fe  Fe20  1  0.66182900  -0.00487798  0.32838903  1
  Cr  Cr21  1  0.66192340  0.32842834  0.99493074  1
  Cr  Cr22  1  0.82896137  0.49418563  0.16176768  1
  Cr  Cr23  1  0.66222242  0.32545371  0.32917664  1
  Fe  Fe24  1  0.66031678  0.66366009  -0.00489320  1
  Fe  Fe25  1  0.82702268  0.83028046  0.16141223  1
  Cr  Cr26  1  0.66137724  0.66443955  0.32670010  1
  Fe  Fe27  1  0.16158263  0.16101805  0.49513452  1
  Fe  Fe28  1  0.99412420  -0.00488450  0.66088854  1
  Cr  Cr29  1  0.16116400  0.16030435  0.83030046  1
  Fe  Fe30  1  0.16277850  0.49551666  0.49550232  1
  Cr  Cr31  1  -0.00383369  0.32805519  0.66032449  1
  Cr  Cr32  1  0.16376632  0.49489596  0.82847792  1
  Fe  Fe33  1  0.16285752  0.82853259  0.49464452  1
  Cr  Cr34  1  -0.00489838  0.66368736  0.66096104  1
  Cr  Cr35  1  0.16144603  0.82987166  0.82811850  1
  Fe  Fe36  1  0.49522480  0.16013146  0.49503806  1
  Cr  Cr37  1  0.32863258  -0.00441156  0.65966047  1
  Cr  Cr38  1  0.49445166  0.16181871  0.82781880  1
  Cr  Cr39  1  0.49358964  0.49556937  0.49712070  1
  Fe  Fe40  1  0.32825873  0.32925202  0.66088613  1
  Fe  Fe41  1  0.49456032  0.49611957  0.82792642  1
  Fe  Fe42  1  0.49435717  0.82902423  0.49513188  1
  Fe  Fe43  1  0.32914667  0.66069986  0.66090020  1
  Cr  Cr44  1  0.49577916  0.82674233  0.82997137  1
  Fe  Fe45  1  0.82826199  0.16020975  0.49512799  1
  Fe  Fe46  1  0.66268529  0.99422129  0.66089534  1
  Cr  Cr47  1  0.82945223  0.15950311  0.82875705  1
  Cr  Cr48  1  0.82831212  0.49425022  0.49497088  1
  Cr  Cr49  1  0.65951648  0.32761091  0.66096604  1
  Cr  Cr50  1  0.82631575  0.49622429  0.82831700  1
  Cr  Cr51  1  0.82875733  0.83071130  0.49657775  1
  Fe  Fe52  1  0.66050597  0.66288524  0.66200399  1
  Fe  Fe53  1  0.82766538  0.82920957  0.82822118  1
" 