8940,Ni2Fe57Cr40_5,-218.820380647202, 163.055470724276,Ni2Fe57Cr40,"# generated using pymatgen
 data_Cr22Fe31Ni
_symmetry_space_group_name_H-M   'P 1'
_cell_length_a   7.51552276
_cell_length_b   7.51552276
_cell_length_c   10.62855422
_cell_angle_alpha   90.00000000
_cell_angle_beta   90.00000000
_cell_angle_gamma   90.00000000
_symmetry_Int_Tables_number   1
_chemical_formula_structural   Cr22Fe31Ni
_chemical_formula_sum   'Cr22 Fe31 Ni1'
_cell_volume   600.33350375
_cell_formula_units_Z   1
loop_
 _symmetry_equiv_pos_site_id
 _symmetry_equiv_pos_as_xyz
  1  'x, y, z'
loop_
 _atom_site_type_symbol
 _atom_site_label
 _atom_site_symmetry_multiplicity
 _atom_site_fract_x
 _atom_site_fract_y
 _atom_site_fract_z
 _atom_site_occupancy
  Fe  Fe0  1  0.99666865  -0.00215915  0.99408314  1
  Cr  Cr1  1  0.16218723  0.15994392  0.16267557  1
  Fe  Fe2  1  -0.00241059  -0.00170478  0.33308023  1
  Fe  Fe3  1  -0.00207418  0.33084456  0.99545399  1
  Fe  Fe4  1  0.16539462  0.49842667  0.16274970  1
  Cr  Cr5  1  -0.00061741  0.33140686  0.33343937  1
  Cr  Cr6  1  0.00025610  0.66635606  0.99660668  1
  Fe  Fe7  1  0.16332075  0.83010288  0.16367304  1
  Cr  Cr8  1  -0.00147857  0.66772622  0.33311372  1
  Fe  Fe9  1  0.32995029  0.99324457  0.99513509  1
  Fe  Fe10  1  0.49821419  0.15873198  0.16522436  1
  Fe  Fe11  1  0.32651115  0.99262350  0.33070223  1
  Cr  Cr12  1  0.32991254  0.32696781  -0.00211668  1
  Fe  Fe13  1  0.49638443  0.49651502  0.16441079  1
  Cr  Cr14  1  0.33273556  0.32585007  0.32846734  1
  Fe  Fe15  1  0.32985098  0.66260036  0.99557148  1
  Cr  Cr16  1  0.49415066  0.82774638  0.16451935  1
  Fe  Fe17  1  0.32838993  0.66187460  0.33037042  1
  Fe  Fe18  1  0.66124718  -0.00321480  0.99427418  1
  Cr  Cr19  1  0.83254228  0.16349821  0.16260567  1
  Fe  Fe20  1  0.66391946  -0.00143135  0.33094850  1
  Cr  Cr21  1  0.65910374  0.32694779  -0.00117727  1
  Cr  Cr22  1  0.83094661  0.49612278  0.16323608  1
  Fe  Fe23  1  0.66520300  0.32843050  0.33081981  1
  Cr  Cr24  1  0.66476741  0.66546282  0.99298321  1
  Cr  Cr25  1  0.83015145  0.83360502  0.16366940  1
  Cr  Cr26  1  0.66633986  0.66293705  0.33219135  1
  Fe  Fe27  1  0.16294253  0.16143475  0.49948103  1
  Fe  Fe28  1  0.99431695  -0.00175296  0.66213028  1
  Cr  Cr29  1  0.15952918  0.16412261  0.82730766  1
  Fe  Fe30  1  0.16581702  0.49682954  0.49909498  1
  Fe  Fe31  1  0.99669736  0.33061874  0.66092572  1
  Ni  Ni32  1  0.16406548  0.49675907  0.82877326  1
  Fe  Fe33  1  0.16498351  0.83329111  0.49781058  1
  Cr  Cr34  1  -0.00191401  0.66588698  0.66088415  1
  Fe  Fe35  1  0.16523867  0.82851636  0.82890034  1
  Cr  Cr36  1  0.49477224  0.16060668  0.49639605  1
  Fe  Fe37  1  0.32900252  0.99573928  0.66432884  1
  Fe  Fe38  1  0.49428187  0.16277557  0.82826871  1
  Cr  Cr39  1  0.49644474  0.49830327  0.49726174  1
  Fe  Fe40  1  0.32599331  0.33090639  0.66294432  1
  Cr  Cr41  1  0.49367175  0.49984674  0.82748642  1
  Cr  Cr42  1  0.49613802  0.82961201  0.49830790  1
  Fe  Fe43  1  0.32834480  0.66490850  0.66414282  1
  Fe  Fe44  1  0.49370634  0.83377080  0.82884106  1
  Fe  Fe45  1  0.83012513  0.16189963  0.49699282  1
  Fe  Fe46  1  0.66454994  -0.00300615  0.66540247  1
  Fe  Fe47  1  0.82871836  0.16221201  0.83041004  1
  Fe  Fe48  1  0.83070453  0.49561806  0.49804231  1
  Cr  Cr49  1  0.66110083  0.32749432  0.66233250  1
  Cr  Cr50  1  0.83368603  0.49371380  0.83041835  1
  Fe  Fe51  1  0.83027015  0.83536832  0.49707715  1
  Cr  Cr52  1  0.66707642  0.66696221  0.66526095  1
  Fe  Fe53  1  0.83401886  0.83395670  0.82991668  1
" 