4559,Ni2Fe66Cr31_19,-220.419815534529, 157.606567944445,Ni2Fe66Cr31,"# generated using pymatgen
 data_Cr18Fe35Ni
_symmetry_space_group_name_H-M   'P 1'
_cell_length_a   7.50867250
_cell_length_b   7.50867250
_cell_length_c   10.61886649
_cell_angle_alpha   90.00000000
_cell_angle_beta   90.00000000
_cell_angle_gamma   90.00000000
_symmetry_Int_Tables_number   1
_chemical_formula_structural   Cr18Fe35Ni
_chemical_formula_sum   'Cr18 Fe35 Ni1'
_cell_volume   598.69342064
_cell_formula_units_Z   1
loop_
 _symmetry_equiv_pos_site_id
 _symmetry_equiv_pos_as_xyz
  1  'x, y, z'
loop_
 _atom_site_type_symbol
 _atom_site_label
 _atom_site_symmetry_multiplicity
 _atom_site_fract_x
 _atom_site_fract_y
 _atom_site_fract_z
 _atom_site_occupancy
  Cr  Cr0  1  0.99593026  -0.00083016  0.99675905  1
  Cr  Cr1  1  0.16342584  0.16386488  0.16250323  1
  Cr  Cr2  1  0.99565491  -0.00126329  0.33191806  1
  Fe  Fe3  1  -0.00079005  0.33059186  0.99637107  1
  Fe  Fe4  1  0.16414269  0.49596958  0.16509804  1
  Fe  Fe5  1  0.99719014  0.33169898  0.33192032  1
  Cr  Cr6  1  0.99682559  0.66323009  0.99698501  1
  Cr  Cr7  1  0.16515973  0.83098186  0.16696726  1
  Fe  Fe8  1  -0.00202902  0.66276392  0.33158657  1
  Fe  Fe9  1  0.33180623  -0.00201897  0.99568798  1
  Cr  Cr10  1  0.49774981  0.16308972  0.16452517  1
  Fe  Fe11  1  0.33148617  -0.00231005  0.33160595  1
  Fe  Fe12  1  0.32895107  0.32899541  0.99576076  1
  Cr  Cr13  1  0.49781999  0.49692624  0.16446039  1
  Fe  Fe14  1  0.32923958  0.33025496  0.33150391  1
  Cr  Cr15  1  0.33252511  0.66297569  -0.00224837  1
  Fe  Fe16  1  0.49819706  0.83194335  0.16400395  1
  Fe  Fe17  1  0.32848948  0.66355618  0.33071110  1
  Fe  Fe18  1  0.66246792  0.99556328  -0.00272161  1
  Fe  Fe19  1  0.82942495  0.16389008  0.16380731  1
  Fe  Fe20  1  0.66389521  -0.00158090  0.33076088  1
  Fe  Fe21  1  0.66378151  0.32947789  -0.00260016  1
  Cr  Cr22  1  0.83088182  0.49518719  0.16334086  1
  Fe  Fe23  1  0.66541002  0.32819795  0.33169464  1
  Fe  Fe24  1  0.66406159  0.66653698  -0.00274190  1
  Fe  Fe25  1  0.82868475  0.83208344  0.16369527  1
  Cr  Cr26  1  0.66369675  0.66545862  0.32856411  1
  Fe  Fe27  1  0.16564710  0.16370337  0.49770750  1
  Fe  Fe28  1  0.99712883  0.99694744  0.66298933  1
  Ni  Ni29  1  0.16612022  0.16307941  0.83052730  1
  Fe  Fe30  1  0.16374000  0.49809223  0.49663912  1
  Cr  Cr31  1  -0.00063831  0.32954277  0.66379160  1
  Fe  Fe32  1  0.16436482  0.49486697  0.83014171  1
  Fe  Fe33  1  0.16318177  0.82988304  0.49779385  1
  Fe  Fe34  1  -0.00195211  0.66452668  0.66277935  1
  Cr  Cr35  1  0.16395812  0.83257283  0.82685201  1
  Fe  Fe36  1  0.49720244  0.16368969  0.49699324  1
  Fe  Fe37  1  0.33048430  -0.00070225  0.66394133  1
  Fe  Fe38  1  0.49550430  0.16271071  0.83069654  1
  Cr  Cr39  1  0.49809766  0.49512176  0.49711091  1
  Fe  Fe40  1  0.33056850  0.32904006  0.66433278  1
  Cr  Cr41  1  0.49811897  0.49603516  0.83022559  1
  Cr  Cr42  1  0.49448526  0.83172828  0.49633161  1
  Fe  Fe43  1  0.32874804  0.66322435  0.66371196  1
  Fe  Fe44  1  0.49785810  0.83350595  0.83044234  1
  Fe  Fe45  1  0.82892963  0.16401709  0.49760025  1
  Fe  Fe46  1  0.66399910  -0.00132211  0.66372563  1
  Cr  Cr47  1  0.83057368  0.16409524  0.83175068  1
  Fe  Fe48  1  0.83183468  0.49713077  0.49677122  1
  Fe  Fe49  1  0.66328725  0.32824439  0.66288015  1
  Cr  Cr50  1  0.82962172  0.49733685  0.83093119  1
  Fe  Fe51  1  0.83144374  0.83068544  0.49788621  1
  Cr  Cr52  1  0.66424651  0.66544880  0.66571131  1
  Fe  Fe53  1  0.82968997  0.83188382  0.83013991  1
" 