5996,Ni2Fe46Cr50_10,-216.29114309178, 177.141586578446,Ni2Fe46Cr50,"# generated using pymatgen
 data_Cr28Fe25Ni
_symmetry_space_group_name_H-M   'P 1'
_cell_length_a   7.53640023
_cell_length_b   7.53640023
_cell_length_c   10.65807942
_cell_angle_alpha   90.00000000
_cell_angle_beta   90.00000000
_cell_angle_gamma   90.00000000
_symmetry_Int_Tables_number   1
_chemical_formula_structural   Cr28Fe25Ni
_chemical_formula_sum   'Cr28 Fe25 Ni1'
_cell_volume   605.35043721
_cell_formula_units_Z   1
loop_
 _symmetry_equiv_pos_site_id
 _symmetry_equiv_pos_as_xyz
  1  'x, y, z'
loop_
 _atom_site_type_symbol
 _atom_site_label
 _atom_site_symmetry_multiplicity
 _atom_site_fract_x
 _atom_site_fract_y
 _atom_site_fract_z
 _atom_site_occupancy
  Fe  Fe0  1  0.99539324  0.99446140  -0.00449314  1
  Cr  Cr1  1  0.16329954  0.15898452  0.16226907  1
  Cr  Cr2  1  0.99444115  -0.00395405  0.32747803  1
  Cr  Cr3  1  -0.00430932  0.32724628  0.99482540  1
  Cr  Cr4  1  0.16227166  0.49603376  0.16300234  1
  Fe  Fe5  1  -0.00368421  0.32891736  0.32951004  1
  Cr  Cr6  1  -0.00359406  0.66376151  -0.00362089  1
  Fe  Fe7  1  0.16287146  0.82977948  0.16114511  1
  Cr  Cr8  1  -0.00407366  0.66153058  0.32801064  1
  Fe  Fe9  1  0.32816941  0.99298978  -0.00427158  1
  Cr  Cr10  1  0.49388927  0.16129299  0.16327842  1
  Fe  Fe11  1  0.33018620  -0.00426530  0.32836915  1
  Cr  Cr12  1  0.32875831  0.32991739  -0.00450215  1
  Fe  Fe13  1  0.49494913  0.49559538  0.16202614  1
  Fe  Fe14  1  0.32907578  0.32931534  0.33000741  1
  Fe  Fe15  1  0.32919545  0.66344686  -0.00403768  1
  Fe  Fe16  1  0.49447674  0.82878008  0.16214583  1
  Cr  Cr17  1  0.32926019  0.66036150  0.32812846  1
  Cr  Cr18  1  0.66292262  0.99441973  0.99380165  1
  Cr  Cr19  1  0.82900885  0.16263551  0.16146444  1
  Fe  Fe20  1  0.66118144  0.99516795  0.32870273  1
  Fe  Fe21  1  0.66216008  0.32884517  -0.00449001  1
  Cr  Cr22  1  0.82671110  0.49571858  0.16219790  1
  Cr  Cr23  1  0.66020413  0.32750529  0.32983702  1
  Cr  Cr24  1  0.66025651  0.66334949  -0.00251879  1
  Fe  Fe25  1  0.82884674  0.82978199  0.16217378  1
  Cr  Cr26  1  0.66101124  0.66352898  0.32650306  1
  Cr  Cr27  1  0.16289840  0.16299971  0.49362052  1
  Fe  Fe28  1  0.99393670  -0.00425435  0.66241876  1
  Cr  Cr29  1  0.16086752  0.16033964  0.83030294  1
  Fe  Fe30  1  0.16391896  0.49470953  0.49619368  1
  Fe  Fe31  1  0.99529224  0.32856493  0.66221350  1
  Fe  Fe32  1  0.16260564  0.49575745  0.82750457  1
  Cr  Cr33  1  0.16208928  0.82868798  0.49648989  1
  Fe  Fe34  1  -0.00323569  0.66187895  0.66256972  1
  Cr  Cr35  1  0.16237355  0.82897652  0.82889292  1
  Fe  Fe36  1  0.49595920  0.16425535  0.49493037  1
  Cr  Cr37  1  0.32975518  -0.00403073  0.66194117  1
  Cr  Cr38  1  0.49615453  0.16256595  0.82914292  1
  Ni  Ni39  1  0.49385806  0.49207757  0.49617068  1
  Fe  Fe40  1  0.32943318  0.33102261  0.66080190  1
  Cr  Cr41  1  0.49596358  0.49573847  0.82963498  1
  Cr  Cr42  1  0.49469888  0.82924418  0.49496524  1
  Fe  Fe43  1  0.32841453  0.65988546  0.66149200  1
  Fe  Fe44  1  0.49493132  0.82830826  0.82910373  1
  Fe  Fe45  1  0.82775118  0.16284819  0.49572263  1
  Cr  Cr46  1  0.66383496  -0.00335360  0.66150657  1
  Fe  Fe47  1  0.82917926  0.16160792  0.82840308  1
  Cr  Cr48  1  0.82880522  0.49415793  0.49547667  1
  Fe  Fe49  1  0.66146751  0.32818852  0.66056840  1
  Cr  Cr50  1  0.82809867  0.49422984  0.82852386  1
  Cr  Cr51  1  0.82940920  0.82886712  0.49562787  1
  Cr  Cr52  1  0.66111481  0.66291354  0.66221706  1
  Fe  Fe53  1  0.82908159  0.83020198  0.82815843  1
" 