6632,Ni2Fe57Cr40_15,-219.047386018952, 162.106683017337,Ni2Fe57Cr40,"# generated using pymatgen
 data_Cr22Fe31Ni
_symmetry_space_group_name_H-M   'P 1'
_cell_length_a   7.52320398
_cell_length_b   7.52320398
_cell_length_c   10.63941710
_cell_angle_alpha   90.00000000
_cell_angle_beta   90.00000000
_cell_angle_gamma   90.00000000
_symmetry_Int_Tables_number   1
_chemical_formula_structural   Cr22Fe31Ni
_chemical_formula_sum   'Cr22 Fe31 Ni1'
_cell_volume   602.17609343
_cell_formula_units_Z   1
loop_
 _symmetry_equiv_pos_site_id
 _symmetry_equiv_pos_as_xyz
  1  'x, y, z'
loop_
 _atom_site_type_symbol
 _atom_site_label
 _atom_site_symmetry_multiplicity
 _atom_site_fract_x
 _atom_site_fract_y
 _atom_site_fract_z
 _atom_site_occupancy
  Cr  Cr0  1  0.99576023  -0.00332891  -0.00354217  1
  Cr  Cr1  1  0.16570204  0.16415384  0.16212930  1
  Cr  Cr2  1  0.99385434  -0.00319863  0.32856825  1
  Fe  Fe3  1  0.99579372  0.33164759  0.99579686  1
  Cr  Cr4  1  0.16380622  0.49611695  0.16330873  1
  Fe  Fe5  1  0.99494389  0.33059829  0.32934894  1
  Fe  Fe6  1  0.99412621  0.66053384  -0.00349417  1
  Cr  Cr7  1  0.16381871  0.82836089  0.16309334  1
  Cr  Cr8  1  -0.00366124  0.66156089  0.32801524  1
  Fe  Fe9  1  0.33039954  -0.00357677  -0.00330282  1
  Fe  Fe10  1  0.49644412  0.16460437  0.16417971  1
  Fe  Fe11  1  0.33211654  0.99505407  0.32862154  1
  Fe  Fe12  1  0.33037592  0.32965474  0.99529885  1
  Fe  Fe13  1  0.49709906  0.49459369  0.16196734  1
  Fe  Fe14  1  0.33052046  0.33186176  0.32964216  1
  Cr  Cr15  1  0.33071485  0.66070203  0.99542720  1
  Fe  Fe16  1  0.49558022  0.82939107  0.16382919  1
  Fe  Fe17  1  0.33186337  0.66192737  0.32994211  1
  Cr  Cr18  1  0.66228373  0.99605212  0.00004068  1
  Fe  Fe19  1  0.82847907  0.16615501  0.16364911  1
  Fe  Fe20  1  0.66147012  0.99622839  0.32704415  1
  Fe  Fe21  1  0.66248756  0.33269818  -0.00333145  1
  Fe  Fe22  1  0.82821605  0.49481365  0.16153028  1
  Fe  Fe23  1  0.66366455  0.33045139  0.32771026  1
  Fe  Fe24  1  0.66318175  0.66047555  -0.00307850  1
  Fe  Fe25  1  0.82798041  0.82774136  0.16245206  1
  Cr  Cr26  1  0.66172655  0.66278231  0.32998755  1
  Cr  Cr27  1  0.16300603  0.16344213  0.49751048  1
  Fe  Fe28  1  -0.00161604  -0.00221898  0.66353309  1
  Fe  Fe29  1  0.16322502  0.16505040  0.83012499  1
  Fe  Fe30  1  0.16366365  0.49516265  0.49497609  1
  Fe  Fe31  1  -0.00316578  0.33081881  0.66346075  1
  Fe  Fe32  1  0.16269121  0.49457209  0.83107047  1
  Cr  Cr33  1  0.16552706  0.82783021  0.49547593  1
  Cr  Cr34  1  -0.00269052  0.65966179  0.66262668  1
  Cr  Cr35  1  0.16387226  0.83032987  0.82945545  1
  Cr  Cr36  1  0.49655618  0.16414742  0.49259496  1
  Fe  Fe37  1  0.33001310  0.99562473  0.66337307  1
  Cr  Cr38  1  0.49555834  0.16422659  0.83212219  1
  Fe  Fe39  1  0.49499217  0.49831737  0.49659073  1
  Cr  Cr40  1  0.32865585  0.33216990  0.66495919  1
  Ni  Ni41  1  0.49730822  0.49790687  0.83095718  1
  Fe  Fe42  1  0.49499279  0.82865876  0.49608990  1
  Fe  Fe43  1  0.33352947  0.66236824  0.66410922  1
  Fe  Fe44  1  0.49674124  0.82749660  0.82934759  1
  Cr  Cr45  1  0.82908246  0.16514338  0.49600917  1
  Cr  Cr46  1  0.66100141  0.99472502  0.66192462  1
  Cr  Cr47  1  0.83005505  0.16465968  0.82736644  1
  Fe  Fe48  1  0.82997353  0.49551066  0.49555463  1
  Cr  Cr49  1  0.66146737  0.33231518  0.66245934  1
  Fe  Fe50  1  0.82816572  0.49628937  0.83116998  1
  Cr  Cr51  1  0.82918148  0.82885699  0.49795303  1
  Fe  Fe52  1  0.65917538  0.66049107  0.66336293  1
  Cr  Cr53  1  0.82874998  0.82684873  0.82944875  1
" 