4173,Ni2Fe66Cr31_18,-220.082970254123, 161.375066317892,Ni2Fe66Cr31,"# generated using pymatgen
 data_Cr18Fe35Ni
_symmetry_space_group_name_H-M   'P 1'
_cell_length_a   7.49596687
_cell_length_b   7.49596687
_cell_length_c   10.60089801
_cell_angle_alpha   90.00000000
_cell_angle_beta   90.00000000
_cell_angle_gamma   90.00000000
_symmetry_Int_Tables_number   1
_chemical_formula_structural   Cr18Fe35Ni
_chemical_formula_sum   'Cr18 Fe35 Ni1'
_cell_volume   595.65936294
_cell_formula_units_Z   1
loop_
 _symmetry_equiv_pos_site_id
 _symmetry_equiv_pos_as_xyz
  1  'x, y, z'
loop_
 _atom_site_type_symbol
 _atom_site_label
 _atom_site_symmetry_multiplicity
 _atom_site_fract_x
 _atom_site_fract_y
 _atom_site_fract_z
 _atom_site_occupancy
  Fe  Fe0  1  0.00110152  0.99676166  0.99679210  1
  Cr  Cr1  1  0.16738255  0.16268035  0.16326691  1
  Cr  Cr2  1  -0.00049995  0.99652448  0.33076393  1
  Fe  Fe3  1  -0.00185177  0.32982686  0.99708086  1
  Cr  Cr4  1  0.16124836  0.49827758  0.16615145  1
  Fe  Fe5  1  -0.00166874  0.33028240  0.33366848  1
  Fe  Fe6  1  -0.00144416  0.66779089  0.99696978  1
  Fe  Fe7  1  0.16381012  0.83087676  0.16278219  1
  Fe  Fe8  1  0.99735786  0.66597397  0.33337389  1
  Fe  Fe9  1  0.33157653  0.99737004  0.99394649  1
  Cr  Cr10  1  0.49736436  0.16171808  0.16889292  1
  Fe  Fe11  1  0.33123519  0.99661556  0.33612517  1
  Cr  Cr12  1  0.33270911  0.33454465  0.99416060  1
  Fe  Fe13  1  0.49573097  0.49751870  0.16530460  1
  Fe  Fe14  1  0.33154679  0.32960431  0.33428142  1
  Fe  Fe15  1  0.33128787  0.66687126  0.99674802  1
  Cr  Cr16  1  0.49538861  0.83376336  0.16386379  1
  Cr  Cr17  1  0.32862718  0.66255355  0.33184439  1
  Cr  Cr18  1  0.66898374  -0.00181181  0.99574438  1
  Fe  Fe19  1  0.83326748  0.16449316  0.16481635  1
  Cr  Cr20  1  0.66933926  -0.00043784  0.33577605  1
  Cr  Cr21  1  0.66170234  0.33321822  0.00015046  1
  Cr  Cr22  1  0.83245609  0.49831781  0.16423740  1
  Fe  Fe23  1  0.66460092  0.33141192  0.33349118  1
  Fe  Fe24  1  0.66284833  0.66572440  0.99748059  1
  Fe  Fe25  1  0.83345230  0.83177125  0.16312241  1
  Cr  Cr26  1  0.66295332  0.66386325  0.33055763  1
  Fe  Fe27  1  0.16605511  0.16474353  0.49865200  1
  Cr  Cr28  1  0.99748609  0.99691938  0.66516668  1
  Fe  Fe29  1  0.16652247  0.16264422  0.83065143  1
  Fe  Fe30  1  0.16679714  0.49690775  0.49992250  1
  Fe  Fe31  1  0.00134334  0.32926641  0.66278729  1
  Cr  Cr32  1  0.16233658  0.49778952  0.82740765  1
  Fe  Fe33  1  0.16560099  0.83065311  0.49980478  1
  Fe  Fe34  1  0.00062704  0.66712963  0.66337552  1
  Fe  Fe35  1  0.16580197  0.83182010  0.83096601  1
  Fe  Fe36  1  0.49567998  0.16408842  0.49944912  1
  Ni  Ni37  1  0.32994788  0.99690757  0.66479974  1
  Fe  Fe38  1  0.49543690  0.16275383  0.82919657  1
  Fe  Fe39  1  0.49675828  0.49762741  0.49934589  1
  Fe  Fe40  1  0.32987320  0.32840075  0.66428914  1
  Fe  Fe41  1  0.49759033  0.50182730  0.82939299  1
  Fe  Fe42  1  0.49661933  0.83168942  0.50037610  1
  Fe  Fe43  1  0.33218466  0.66653988  0.66327713  1
  Fe  Fe44  1  0.49694420  0.83107445  0.82967737  1
  Fe  Fe45  1  0.83222299  0.16537289  0.49997711  1
  Fe  Fe46  1  0.66116071  0.99689171  0.66424071  1
  Cr  Cr47  1  0.83277470  0.16645360  0.83107086  1
  Cr  Cr48  1  0.83497889  0.49938065  0.50037100  1
  Cr  Cr49  1  0.66145355  0.33211810  0.66527692  1
  Cr  Cr50  1  0.83286483  0.50057335  0.83017231  1
  Fe  Fe51  1  0.83144629  0.83090614  0.50023954  1
  Fe  Fe52  1  0.66281620  0.66916331  0.66410688  1
  Fe  Fe53  1  0.83200483  0.83008740  0.83044795  1
" 