4494,Ni2Fe50Cr47_15,-217.356615133663, 174.970523203891,Ni2Fe50Cr47,"# generated using pymatgen
 data_Cr26Fe27Ni
_symmetry_space_group_name_H-M   'P 1'
_cell_length_a   7.52551521
_cell_length_b   7.52551521
_cell_length_c   10.64268567
_cell_angle_alpha   90.00000000
_cell_angle_beta   90.00000000
_cell_angle_gamma   90.00000000
_symmetry_Int_Tables_number   1
_chemical_formula_structural   Cr26Fe27Ni
_chemical_formula_sum   'Cr26 Fe27 Ni1'
_cell_volume   602.73125286
_cell_formula_units_Z   1
loop_
 _symmetry_equiv_pos_site_id
 _symmetry_equiv_pos_as_xyz
  1  'x, y, z'
loop_
 _atom_site_type_symbol
 _atom_site_label
 _atom_site_symmetry_multiplicity
 _atom_site_fract_x
 _atom_site_fract_y
 _atom_site_fract_z
 _atom_site_occupancy
  Cr  Cr0  1  0.99573138  0.99526444  0.99548419  1
  Cr  Cr1  1  0.16296983  0.16206685  0.16127336  1
  Cr  Cr2  1  0.99315945  0.99278420  0.32782390  1
  Cr  Cr3  1  -0.00304426  0.33065043  0.99430748  1
  Fe  Fe4  1  0.16208572  0.49649060  0.16424974  1
  Fe  Fe5  1  0.99570559  0.33186370  0.32830547  1
  Cr  Cr6  1  0.99430144  0.66297134  0.00206627  1
  Fe  Fe7  1  0.16344437  0.82884415  0.16438127  1
  Fe  Fe8  1  -0.00353387  0.66036311  0.32826263  1
  Fe  Fe9  1  0.32873484  0.99606929  -0.00312141  1
  Fe  Fe10  1  0.49788625  0.16369092  0.16371744  1
  Ni  Ni11  1  0.33080584  -0.00153609  0.32692624  1
  Cr  Cr12  1  0.33050248  0.32956229  0.99598486  1
  Fe  Fe13  1  0.49845217  0.49441595  0.16272544  1
  Cr  Cr14  1  0.33119261  0.32866810  0.33086426  1
  Cr  Cr15  1  0.32973674  0.65999609  0.99443603  1
  Cr  Cr16  1  0.49344556  0.82887834  0.16048028  1
  Cr  Cr17  1  0.32758036  0.65992542  0.33049980  1
  Cr  Cr18  1  0.66392395  0.99572917  -0.00212125  1
  Fe  Fe19  1  0.82668398  0.16479129  0.16402624  1
  Fe  Fe20  1  0.65955921  -0.00210909  0.32877403  1
  Fe  Fe21  1  0.66362375  0.33269419  -0.00235908  1
  Fe  Fe22  1  0.82823181  0.49427599  0.16402645  1
  Fe  Fe23  1  0.66290462  0.32792612  0.32885932  1
  Fe  Fe24  1  0.66305076  0.65915944  -0.00375722  1
  Fe  Fe25  1  0.82892231  0.82882637  0.16364797  1
  Cr  Cr26  1  0.66659215  0.66313860  0.33077095  1
  Cr  Cr27  1  0.16062912  0.16334223  0.49898465  1
  Fe  Fe28  1  -0.00371589  -0.00325582  0.66290243  1
  Fe  Fe29  1  0.16247357  0.16386498  0.82864757  1
  Fe  Fe30  1  0.16059391  0.49534653  0.49589976  1
  Fe  Fe31  1  0.99608807  0.33111051  0.66385484  1
  Fe  Fe32  1  0.16145473  0.49566164  0.82811426  1
  Cr  Cr33  1  0.16457805  0.82864116  0.49405822  1
  Cr  Cr34  1  0.99562907  0.66196032  0.65950435  1
  Cr  Cr35  1  0.16578593  0.82964586  0.82973173  1
  Fe  Fe36  1  0.49544550  0.16222971  0.49356911  1
  Cr  Cr37  1  0.33011697  -0.00139355  0.66525915  1
  Cr  Cr38  1  0.49691933  0.16270668  0.83239988  1
  Fe  Fe39  1  0.49655815  0.49510733  0.49598755  1
  Cr  Cr40  1  0.32814453  0.33248211  0.66241941  1
  Fe  Fe41  1  0.49749318  0.49805406  0.82999599  1
  Cr  Cr42  1  0.49436372  0.82850174  0.49762980  1
  Fe  Fe43  1  0.33032994  0.66085415  0.66365667  1
  Fe  Fe44  1  0.49659655  0.82820318  0.83036976  1
  Cr  Cr45  1  0.82929790  0.16622242  0.49564997  1
  Cr  Cr46  1  0.66469588  0.99522328  0.65881754  1
  Cr  Cr47  1  0.83179781  0.16684645  0.82761277  1
  Fe  Fe48  1  0.83133688  0.49629456  0.49459778  1
  Cr  Cr49  1  0.66038896  0.33113704  0.66151684  1
  Fe  Fe50  1  0.82894475  0.49662021  0.83027491  1
  Fe  Fe51  1  0.83083370  0.82910069  0.49521712  1
  Cr  Cr52  1  0.66230690  0.66226402  0.66448041  1
  Cr  Cr53  1  0.82849403  0.82805756  0.82854315  1
" 