335,Ni2Fe57Cr40_10,-218.684307400071, 165.770044512781,Ni2Fe57Cr40,"# generated using pymatgen
 data_Cr22Fe31Ni
_symmetry_space_group_name_H-M   'P 1'
_cell_length_a   7.52315347
_cell_length_b   7.52315347
_cell_length_c   10.63934567
_cell_angle_alpha   90.00000000
_cell_angle_beta   90.00000000
_cell_angle_gamma   90.00000000
_symmetry_Int_Tables_number   1
_chemical_formula_structural   Cr22Fe31Ni
_chemical_formula_sum   'Cr22 Fe31 Ni1'
_cell_volume   602.16396353
_cell_formula_units_Z   1
loop_
 _symmetry_equiv_pos_site_id
 _symmetry_equiv_pos_as_xyz
  1  'x, y, z'
loop_
 _atom_site_type_symbol
 _atom_site_label
 _atom_site_symmetry_multiplicity
 _atom_site_fract_x
 _atom_site_fract_y
 _atom_site_fract_z
 _atom_site_occupancy
  Fe  Fe0  1  -0.00271902  0.99481433  0.99608658  1
  Fe  Fe1  1  0.16341723  0.16200525  0.16396240  1
  Fe  Fe2  1  0.99499380  -0.00073071  0.32863847  1
  Cr  Cr3  1  -0.00298812  0.32621997  -0.00283548  1
  Cr  Cr4  1  0.16244016  0.49807149  0.16372038  1
  Fe  Fe5  1  -0.00285859  0.32697527  0.32837218  1
  Fe  Fe6  1  -0.00181620  0.66449684  0.99554225  1
  Cr  Cr7  1  0.15966652  0.82936038  0.16386787  1
  Fe  Fe8  1  0.99344038  0.66268114  0.32841160  1
  Fe  Fe9  1  0.32593996  0.99450655  0.99469640  1
  Cr  Cr10  1  0.49630641  0.16318232  0.15804228  1
  Fe  Fe11  1  0.32896921  -0.00203742  0.32973039  1
  Fe  Fe12  1  0.32697616  0.32913190  0.99591904  1
  Cr  Cr13  1  0.49407712  0.49338004  0.16344275  1
  Fe  Fe14  1  0.32792390  0.32768613  0.33045048  1
  Fe  Fe15  1  0.32634971  0.66473385  0.99420641  1
  Cr  Cr16  1  0.49483942  0.83257391  0.16435562  1
  Fe  Fe17  1  0.33163056  0.66300824  0.33080663  1
  Fe  Fe18  1  0.66571589  0.99622181  -0.00302783  1
  Fe  Fe19  1  0.83122468  0.16071410  0.16280734  1
  Fe  Fe20  1  0.66452698  0.99615519  0.32932392  1
  Fe  Fe21  1  0.66550262  0.32890968  -0.00236035  1
  Fe  Fe22  1  0.83053310  0.49771442  0.16339213  1
  Cr  Cr23  1  0.66583521  0.33100174  0.32882943  1
  Cr  Cr24  1  0.66269479  0.66417892  -0.00190820  1
  Fe  Fe25  1  0.82970579  0.83038301  0.16396608  1
  Fe  Fe26  1  0.66329250  0.66465229  0.32968427  1
  Fe  Fe27  1  0.15974580  0.16185056  0.49521565  1
  Fe  Fe28  1  -0.00009311  -0.00288225  0.66330670  1
  Fe  Fe29  1  0.16186620  0.15967911  0.82984502  1
  Cr  Cr30  1  0.16183363  0.49699681  0.49510174  1
  Fe  Fe31  1  -0.00157910  0.32785424  0.66303376  1
  Fe  Fe32  1  0.16198360  0.49826897  0.83065556  1
  Cr  Cr33  1  0.16210290  0.82988693  0.49460731  1
  Fe  Fe34  1  -0.00049359  0.66367564  0.66453876  1
  Ni  Ni35  1  0.16336467  0.83009326  0.83070951  1
  Cr  Cr36  1  0.49647933  0.16122150  0.49647252  1
  Fe  Fe37  1  0.32855840  0.99534812  0.66470958  1
  Cr  Cr38  1  0.49637739  0.16109281  0.83403572  1
  Fe  Fe39  1  0.49513383  0.49814029  0.49379457  1
  Cr  Cr40  1  0.32567581  0.32846462  0.66291593  1
  Cr  Cr41  1  0.49518302  0.49202155  0.83310697  1
  Fe  Fe42  1  0.49568792  0.82962807  0.49350843  1
  Cr  Cr43  1  0.33089123  0.66616585  0.66510001  1
  Fe  Fe44  1  0.49465523  0.83131229  0.83125480  1
  Fe  Fe45  1  0.83345671  0.16164392  0.49641657  1
  Fe  Fe46  1  0.66075510  0.99541325  0.66216128  1
  Cr  Cr47  1  0.82662877  0.16162162  0.82640780  1
  Cr  Cr48  1  0.83294916  0.49667094  0.49785424  1
  Cr  Cr49  1  0.66421840  0.33029539  0.66189134  1
  Cr  Cr50  1  0.83290710  0.49685283  0.82831117  1
  Cr  Cr51  1  0.83129675  0.83143155  0.49644275  1
  Cr  Cr52  1  0.65955533  0.66539910  0.66059248  1
  Cr  Cr53  1  0.83387986  0.83050287  0.82852733  1
" 