2445,Ni2Fe50Cr47_16,-217.113246314188, 169.229946003891,Ni2Fe50Cr47,"# generated using pymatgen
 data_Cr26Fe27Ni
_symmetry_space_group_name_H-M   'P 1'
_cell_length_a   7.53667994
_cell_length_b   7.53667994
_cell_length_c   10.65847498
_cell_angle_alpha   90.00000000
_cell_angle_beta   90.00000000
_cell_angle_gamma   90.00000000
_symmetry_Int_Tables_number   1
_chemical_formula_structural   Cr26Fe27Ni
_chemical_formula_sum   'Cr26 Fe27 Ni1'
_cell_volume   605.41784069
_cell_formula_units_Z   1
loop_
 _symmetry_equiv_pos_site_id
 _symmetry_equiv_pos_as_xyz
  1  'x, y, z'
loop_
 _atom_site_type_symbol
 _atom_site_label
 _atom_site_symmetry_multiplicity
 _atom_site_fract_x
 _atom_site_fract_y
 _atom_site_fract_z
 _atom_site_occupancy
  Fe  Fe0  1  -0.00295914  -0.00452043  -0.00450806  1
  Fe  Fe1  1  0.16296378  0.16135084  0.16111201  1
  Cr  Cr2  1  -0.00382772  0.99378556  0.32812567  1
  Cr  Cr3  1  -0.00257875  0.32685916  -0.00383880  1
  Fe  Fe4  1  0.16250166  0.49560051  0.16202796  1
  Cr  Cr5  1  -0.00091736  0.32962542  0.32715479  1
  Cr  Cr6  1  -0.00381607  0.66290549  -0.00205331  1
  Fe  Fe7  1  0.16249350  0.82918932  0.16158258  1
  Fe  Fe8  1  -0.00332152  0.66237206  0.32909335  1
  Fe  Fe9  1  0.32724422  0.99504991  0.99480347  1
  Cr  Cr10  1  0.49254588  0.15987197  0.16363535  1
  Fe  Fe11  1  0.32745359  0.99503205  0.32834509  1
  Fe  Fe12  1  0.32823353  0.32827455  0.99492368  1
  Cr  Cr13  1  0.49376376  0.49657086  0.16055165  1
  Cr  Cr14  1  0.32581424  0.32926821  0.32978725  1
  Fe  Fe15  1  0.32973267  0.66281839  0.99536241  1
  Fe  Fe16  1  0.49471310  0.82871226  0.16125619  1
  Cr  Cr17  1  0.32666473  0.66155725  0.33030262  1
  Cr  Cr18  1  0.66188832  0.99316054  -0.00427976  1
  Cr  Cr19  1  0.82977536  0.16070235  0.16182400  1
  Cr  Cr20  1  0.66241246  0.99293442  0.32800822  1
  Cr  Cr21  1  0.66185008  0.32952370  0.99180036  1
  Cr  Cr22  1  0.83058416  0.49776757  0.16205251  1
  Cr  Cr23  1  0.66124161  0.32874124  0.33044605  1
  Fe  Fe24  1  0.66083553  0.66242027  0.99490799  1
  Fe  Fe25  1  0.82893679  0.82825423  0.16145755  1
  Cr  Cr26  1  0.66277163  0.66446900  0.32772423  1
  Fe  Fe27  1  0.16159563  0.16256060  0.49583274  1
  Fe  Fe28  1  -0.00362328  0.99524255  0.66195631  1
  Fe  Fe29  1  0.16147290  0.16056245  0.82919090  1
  Ni  Ni30  1  0.16045832  0.49717624  0.49503756  1
  Fe  Fe31  1  -0.00455705  0.32876312  0.66202786  1
  Cr  Cr32  1  0.16196281  0.49620157  0.82937456  1
  Fe  Fe33  1  0.16008807  0.82785589  0.49538147  1
  Fe  Fe34  1  -0.00354847  0.66214125  0.66122276  1
  Fe  Fe35  1  0.16248212  0.83007138  0.82918773  1
  Cr  Cr36  1  0.49476289  0.16223180  0.49345305  1
  Cr  Cr37  1  0.32623596  0.99493973  0.66235502  1
  Fe  Fe38  1  0.49493419  0.16250083  0.82914599  1
  Fe  Fe39  1  0.49404672  0.49483008  0.49574809  1
  Cr  Cr40  1  0.32802630  0.32978067  0.66062824  1
  Fe  Fe41  1  0.49642170  0.49550212  0.82975114  1
  Cr  Cr42  1  0.49398607  0.82985109  0.49365500  1
  Cr  Cr43  1  0.32767673  0.66142386  0.66158048  1
  Fe  Fe44  1  0.49392400  0.82813732  0.82995111  1
  Cr  Cr45  1  0.82870145  0.16180861  0.49779122  1
  Cr  Cr46  1  0.66386949  -0.00389275  0.66241175  1
  Fe  Fe47  1  0.82973277  0.16306746  0.82780478  1
  Cr  Cr48  1  0.83124936  0.49644136  0.49699282  1
  Fe  Fe49  1  0.66223253  0.32915801  0.66345383  1
  Fe  Fe50  1  0.82780545  0.49449309  0.82784674  1
  Fe  Fe51  1  0.83145225  0.82780619  0.49596120  1
  Cr  Cr52  1  0.66184775  0.66083234  0.66317315  1
  Cr  Cr53  1  0.83030697  0.82876005  0.82802300  1
" 