6341,Ni2Fe50Cr47_8,-217.084482726361, 175.002151478561,Ni2Fe50Cr47,"# generated using pymatgen
 data_Cr26Fe27Ni
_symmetry_space_group_name_H-M   'P 1'
_cell_length_a   7.52944917
_cell_length_b   7.52944917
_cell_length_c   10.64824914
_cell_angle_alpha   90.00000000
_cell_angle_beta   90.00000000
_cell_angle_gamma   90.00000000
_symmetry_Int_Tables_number   1
_chemical_formula_structural   Cr26Fe27Ni
_chemical_formula_sum   'Cr26 Fe27 Ni1'
_cell_volume   603.67698041
_cell_formula_units_Z   1
loop_
 _symmetry_equiv_pos_site_id
 _symmetry_equiv_pos_as_xyz
  1  'x, y, z'
loop_
 _atom_site_type_symbol
 _atom_site_label
 _atom_site_symmetry_multiplicity
 _atom_site_fract_x
 _atom_site_fract_y
 _atom_site_fract_z
 _atom_site_occupancy
  Fe  Fe0  1  0.00013151  0.99572637  -0.00346076  1
  Fe  Fe1  1  0.16241910  0.16090425  0.15903930  1
  Cr  Cr2  1  -0.00233991  -0.00171595  0.32977949  1
  Fe  Fe3  1  -0.00220681  0.32513051  -0.00323034  1
  Fe  Fe4  1  0.16167367  0.49278232  0.16049422  1
  Cr  Cr5  1  0.99220505  0.32957824  0.32422913  1
  Cr  Cr6  1  0.99500852  0.65811995  -0.00195661  1
  Cr  Cr7  1  0.16245724  0.82672710  0.16490126  1
  Cr  Cr8  1  0.99457186  0.65915145  0.32691237  1
  Ni  Ni9  1  0.32951602  -0.00182974  -0.00399479  1
  Cr  Cr10  1  0.49556020  0.16222254  0.16206270  1
  Cr  Cr11  1  0.33137192  0.99245737  0.32853240  1
  Fe  Fe12  1  0.32608348  0.32896079  -0.00323517  1
  Cr  Cr13  1  0.49300988  0.49576094  0.16255794  1
  Cr  Cr14  1  0.32623522  0.32835171  0.32676510  1
  Cr  Cr15  1  0.33005139  0.66623107  0.99574360  1
  Fe  Fe16  1  0.49630351  0.82996389  0.16154344  1
  Fe  Fe17  1  0.33057630  0.66161477  0.32960164  1
  Fe  Fe18  1  0.65838860  0.99412683  0.99476837  1
  Cr  Cr19  1  0.82585904  0.15915315  0.16060166  1
  Fe  Fe20  1  0.66403656  0.99439103  0.33010449  1
  Fe  Fe21  1  0.66173662  0.33026802  0.99577987  1
  Fe  Fe22  1  0.82460047  0.49377776  0.15984930  1
  Fe  Fe23  1  0.66302607  0.33132158  0.32932996  1
  Fe  Fe24  1  0.65966292  0.66288682  0.99515729  1
  Cr  Cr25  1  0.82664783  0.82835924  0.15972344  1
  Fe  Fe26  1  0.66095113  0.66259860  0.32909968  1
  Cr  Cr27  1  0.16371142  0.16474140  0.49959174  1
  Fe  Fe28  1  -0.00398686  0.99502431  0.66283301  1
  Fe  Fe29  1  0.16067725  0.16144547  0.83031819  1
  Cr  Cr30  1  0.16422267  0.49840534  0.49685470  1
  Fe  Fe31  1  -0.00333812  0.32927728  0.66295042  1
  Cr  Cr32  1  0.16618262  0.49454128  0.82731875  1
  Fe  Fe33  1  0.16358830  0.82961827  0.49560530  1
  Fe  Fe34  1  -0.00320672  0.66408628  0.66312764  1
  Fe  Fe35  1  0.16262408  0.83168717  0.83157851  1
  Cr  Cr36  1  0.49784666  0.16483347  0.49272429  1
  Cr  Cr37  1  0.32735487  0.99521336  0.66455023  1
  Cr  Cr38  1  0.49255416  0.16653752  0.83178251  1
  Fe  Fe39  1  0.49770230  0.49856520  0.49356104  1
  Fe  Fe40  1  0.33268893  0.33092574  0.66268281  1
  Fe  Fe41  1  0.49731916  0.49624048  0.83187514  1
  Fe  Fe42  1  0.49590980  0.82746009  0.49472100  1
  Cr  Cr43  1  0.33101373  0.66551759  0.66336384  1
  Fe  Fe44  1  0.49596510  0.83160899  0.83208462  1
  Fe  Fe45  1  0.83108804  0.16432677  0.49543919  1
  Cr  Cr46  1  0.66093128  -0.00333046  0.66118424  1
  Cr  Cr47  1  0.82797652  0.15966336  0.82933849  1
  Fe  Fe48  1  0.82965173  0.49539626  0.49557892  1
  Cr  Cr49  1  0.66462971  0.33138207  0.65977139  1
  Cr  Cr50  1  0.83141687  0.49641106  0.83115332  1
  Cr  Cr51  1  0.83049193  0.82880089  0.49670169  1
  Cr  Cr52  1  0.66213176  0.66096429  0.66647796  1
  Cr  Cr53  1  0.83154842  0.82986894  0.83236508  1
" 