5127,Ni2Fe41Cr55_8,-214.812095453634, 183.927605532779,Ni2Fe41Cr55,"# generated using pymatgen
 data_Cr31Fe22Ni
_symmetry_space_group_name_H-M   'P 1'
_cell_length_a   7.54660956
_cell_length_b   7.54660956
_cell_length_c   10.67251759
_cell_angle_alpha   90.00000000
_cell_angle_beta   90.00000000
_cell_angle_gamma   90.00000000
_symmetry_Int_Tables_number   1
_chemical_formula_structural   Cr31Fe22Ni
_chemical_formula_sum   'Cr31 Fe22 Ni1'
_cell_volume   607.81392043
_cell_formula_units_Z   1
loop_
 _symmetry_equiv_pos_site_id
 _symmetry_equiv_pos_as_xyz
  1  'x, y, z'
loop_
 _atom_site_type_symbol
 _atom_site_label
 _atom_site_symmetry_multiplicity
 _atom_site_fract_x
 _atom_site_fract_y
 _atom_site_fract_z
 _atom_site_occupancy
  Cr  Cr0  1  0.99397214  -0.00322499  -0.00508593  1
  Fe  Fe1  1  0.16041525  0.16297762  0.16151330  1
  Cr  Cr2  1  -0.00489281  -0.00222006  0.32807459  1
  Cr  Cr3  1  0.99280176  0.32601924  -0.00475317  1
  Fe  Fe4  1  0.16057379  0.49385041  0.16331568  1
  Fe  Fe5  1  -0.00339341  0.32974108  0.32919922  1
  Cr  Cr6  1  0.99445315  0.66084515  0.99273338  1
  Fe  Fe7  1  0.16016990  0.82786453  0.16130763  1
  Fe  Fe8  1  -0.00310668  0.65883481  0.33000770  1
  Fe  Fe9  1  0.32673963  -0.00354294  -0.00485856  1
  Cr  Cr10  1  0.49599757  0.16106258  0.15904053  1
  Cr  Cr11  1  0.32620679  -0.00293223  0.32651225  1
  Cr  Cr12  1  0.32762579  0.32729632  0.99458653  1
  Cr  Cr13  1  0.49548848  0.49335130  0.16127534  1
  Cr  Cr14  1  0.32676992  0.32733360  0.33124249  1
  Cr  Cr15  1  0.32757613  0.66094688  -0.00348640  1
  Cr  Cr16  1  0.49471642  0.83006076  0.15902719  1
  Cr  Cr17  1  0.32930196  0.66012499  0.32670101  1
  Fe  Fe18  1  0.66313538  -0.00270223  0.99412200  1
  Fe  Fe19  1  0.82741705  0.16109246  0.16250119  1
  Fe  Fe20  1  0.66028572  -0.00388862  0.32847305  1
  Fe  Fe21  1  0.66302999  0.32556322  0.99384307  1
  Cr  Cr22  1  0.83087954  0.49209522  0.16290250  1
  Cr  Cr23  1  0.66155998  0.32871768  0.32851699  1
  Cr  Cr24  1  0.66227706  0.65945943  0.99419788  1
  Cr  Cr25  1  0.82830564  0.82828892  0.16542224  1
  Cr  Cr26  1  0.66229006  0.66068280  0.33196188  1
  Fe  Fe27  1  0.16133280  0.16342821  0.49560213  1
  Cr  Cr28  1  0.99331474  -0.00369792  0.66095441  1
  Cr  Cr29  1  0.16220170  0.16329526  0.82527738  1
  Ni  Ni30  1  0.16003065  0.49115563  0.49489520  1
  Cr  Cr31  1  0.99381428  0.32775997  0.66226716  1
  Fe  Fe32  1  0.16139988  0.49394490  0.82717676  1
  Cr  Cr33  1  0.16061233  0.82588891  0.49529574  1
  Cr  Cr34  1  0.99336087  0.66000537  0.66259045  1
  Cr  Cr35  1  0.16218077  0.82829389  0.82870556  1
  Fe  Fe36  1  0.49401834  0.16392517  0.49563891  1
  Cr  Cr37  1  0.32893772  -0.00117466  0.66072302  1
  Fe  Fe38  1  0.49716568  0.16101783  0.82827425  1
  Fe  Fe39  1  0.49306044  0.49245327  0.49598937  1
  Fe  Fe40  1  0.32863101  0.32933539  0.65855850  1
  Cr  Cr41  1  0.49549567  0.49098126  0.82765210  1
  Cr  Cr42  1  0.49645630  0.83114036  0.49394672  1
  Cr  Cr43  1  0.32922360  0.65961292  0.66175845  1
  Cr  Cr44  1  0.49472500  0.83008471  0.83070926  1
  Cr  Cr45  1  0.82666090  0.16157353  0.49323782  1
  Fe  Fe46  1  0.66085819  -0.00288251  0.66085916  1
  Fe  Fe47  1  0.82380345  0.16298392  0.82750749  1
  Fe  Fe48  1  0.83115150  0.49418354  0.49389800  1
  Fe  Fe49  1  0.66025690  0.32594596  0.66034453  1
  Fe  Fe50  1  0.82752165  0.49184988  0.82790379  1
  Fe  Fe51  1  0.82949190  0.82750993  0.49395184  1
  Cr  Cr52  1  0.66207889  0.65926570  0.65838086  1
  Cr  Cr53  1  0.82696464  0.82976766  0.82495357  1
" 