1469,Ni2Fe57Cr40_2,-218.870265863451, 156.565949044552,Ni2Fe57Cr40,"# generated using pymatgen
 data_Cr22Fe31Ni
_symmetry_space_group_name_H-M   'P 1'
_cell_length_a   7.52150981
_cell_length_b   7.52150981
_cell_length_c   10.63702118
_cell_angle_alpha   90.00000000
_cell_angle_beta   90.00000000
_cell_angle_gamma   90.00000000
_symmetry_Int_Tables_number   1
_chemical_formula_structural   Cr22Fe31Ni
_chemical_formula_sum   'Cr22 Fe31 Ni1'
_cell_volume   601.76936730
_cell_formula_units_Z   1
loop_
 _symmetry_equiv_pos_site_id
 _symmetry_equiv_pos_as_xyz
  1  'x, y, z'
loop_
 _atom_site_type_symbol
 _atom_site_label
 _atom_site_symmetry_multiplicity
 _atom_site_fract_x
 _atom_site_fract_y
 _atom_site_fract_z
 _atom_site_occupancy
  Fe  Fe0  1  0.99359501  0.99575466  0.99526960  1
  Cr  Cr1  1  0.16122882  0.16414421  0.16337650  1
  Cr  Cr2  1  0.99532836  0.99569672  0.32953168  1
  Cr  Cr3  1  0.99482205  0.32860748  0.99344245  1
  Cr  Cr4  1  0.15953489  0.49544290  0.16371742  1
  Fe  Fe5  1  -0.00259161  0.32817231  0.33094635  1
  Cr  Cr6  1  0.99548639  0.66499517  0.99400752  1
  Fe  Fe7  1  0.16102443  0.83026163  0.16283466  1
  Cr  Cr8  1  0.99566773  0.66650972  0.33140198  1
  Cr  Cr9  1  0.32664024  -0.00354374  -0.00310727  1
  Cr  Cr10  1  0.49826452  0.16213497  0.16209695  1
  Cr  Cr11  1  0.32901418  -0.00235879  0.33273208  1
  Cr  Cr12  1  0.33132294  0.33134887  0.99425861  1
  Fe  Fe13  1  0.49818656  0.49424631  0.16374675  1
  Cr  Cr14  1  0.33217570  0.32919591  0.33255418  1
  Cr  Cr15  1  0.32906797  0.66100948  -0.00348519  1
  Cr  Cr16  1  0.49637157  0.83015430  0.16250787  1
  Cr  Cr17  1  0.33020182  0.66181674  0.32889100  1
  Fe  Fe18  1  0.66788639  -0.00292753  0.99567803  1
  Fe  Fe19  1  0.82904645  0.16246488  0.16213694  1
  Cr  Cr20  1  0.66441932  -0.00325481  0.33107080  1
  Fe  Fe21  1  0.66449462  0.32971089  0.99509034  1
  Cr  Cr22  1  0.83010140  0.49389488  0.16607865  1
  Fe  Fe23  1  0.66131280  0.32965543  0.33131223  1
  Cr  Cr24  1  0.66433587  0.66149736  0.99604829  1
  Fe  Fe25  1  0.83011518  0.83138195  0.16157482  1
  Fe  Fe26  1  0.66165242  0.66303764  0.33036835  1
  Fe  Fe27  1  0.16318539  0.16377140  0.49912524  1
  Fe  Fe28  1  -0.00350011  0.99622190  0.66314537  1
  Fe  Fe29  1  0.16201762  0.16158849  0.82741355  1
  Fe  Fe30  1  0.16458914  0.49534459  0.49861145  1
  Fe  Fe31  1  -0.00261104  0.32976216  0.66482285  1
  Fe  Fe32  1  0.16330532  0.49651137  0.82664951  1
  Fe  Fe33  1  0.16181424  0.82999635  0.49925595  1
  Fe  Fe34  1  -0.00318031  0.66352598  0.66380965  1
  Fe  Fe35  1  0.16214061  0.83112668  0.82704442  1
  Ni  Ni36  1  0.49594142  0.16314438  0.49999766  1
  Fe  Fe37  1  0.32744044  -0.00175175  0.66201205  1
  Cr  Cr38  1  0.49723976  0.16065640  0.82909195  1
  Fe  Fe39  1  0.49802637  0.49471741  0.49881985  1
  Fe  Fe40  1  0.32971303  0.32962281  0.66211804  1
  Fe  Fe41  1  0.49750517  0.49624537  0.82671451  1
  Cr  Cr42  1  0.49609672  0.82999291  0.49875285  1
  Fe  Fe43  1  0.32812380  0.66129835  0.66308872  1
  Cr  Cr44  1  0.49544147  0.83067814  0.82845052  1
  Cr  Cr45  1  0.83047797  0.16616127  0.49614502  1
  Fe  Fe46  1  0.66491504  -0.00217900  0.66190973  1
  Fe  Fe47  1  0.82991446  0.16134791  0.82763924  1
  Cr  Cr48  1  0.83265281  0.49752125  0.49557932  1
  Fe  Fe49  1  0.66223189  0.32996979  0.66269167  1
  Fe  Fe50  1  0.82838453  0.49575736  0.82687647  1
  Fe  Fe51  1  0.82950453  0.83068942  0.49939609  1
  Fe  Fe52  1  0.66441886  0.66175270  0.66383356  1
  Fe  Fe53  1  0.83000163  0.83197365  0.82741995  1
" 