403,Ni2Fe57Cr40_17,-218.905999221589, 160.431433053726,Ni2Fe57Cr40,"# generated using pymatgen
 data_Cr22Fe31Ni
_symmetry_space_group_name_H-M   'P 1'
_cell_length_a   7.52504821
_cell_length_b   7.52504821
_cell_length_c   10.64202524
_cell_angle_alpha   90.00000000
_cell_angle_beta   90.00000000
_cell_angle_gamma   90.00000000
_symmetry_Int_Tables_number   1
_chemical_formula_structural   Cr22Fe31Ni
_chemical_formula_sum   'Cr22 Fe31 Ni1'
_cell_volume   602.61905162
_cell_formula_units_Z   1
loop_
 _symmetry_equiv_pos_site_id
 _symmetry_equiv_pos_as_xyz
  1  'x, y, z'
loop_
 _atom_site_type_symbol
 _atom_site_label
 _atom_site_symmetry_multiplicity
 _atom_site_fract_x
 _atom_site_fract_y
 _atom_site_fract_z
 _atom_site_occupancy
  Cr  Cr0  1  -0.00216322  0.99421716  0.99579784  1
  Cr  Cr1  1  0.16235137  0.16444114  0.16505781  1
  Cr  Cr2  1  -0.00088149  0.99547200  0.33352593  1
  Fe  Fe3  1  -0.00262172  0.33109785  -0.00197028  1
  Fe  Fe4  1  0.16262398  0.49782080  0.16369801  1
  Fe  Fe5  1  0.99354285  0.32889139  0.32880219  1
  Fe  Fe6  1  -0.00047852  0.66117698  -0.00340647  1
  Fe  Fe7  1  0.16357660  0.82702941  0.16490204  1
  Fe  Fe8  1  -0.00320943  0.66129892  0.32765462  1
  Cr  Cr9  1  0.32955646  0.99495190  -0.00048024  1
  Fe  Fe10  1  0.49667475  0.16346947  0.16418358  1
  Fe  Fe11  1  0.33208754  -0.00202237  0.32768731  1
  Cr  Cr12  1  0.32950876  0.33062634  0.99355449  1
  Fe  Fe13  1  0.49412113  0.49580825  0.16473000  1
  Fe  Fe14  1  0.33165861  0.32854387  0.32828263  1
  Fe  Fe15  1  0.32801866  0.66287780  -0.00357315  1
  Fe  Fe16  1  0.49369881  0.82835255  0.16394094  1
  Fe  Fe17  1  0.32933395  0.66219000  0.32670252  1
  Fe  Fe18  1  0.66053247  0.99583498  -0.00249420  1
  Fe  Fe19  1  0.82940534  0.16403133  0.16331221  1
  Cr  Cr20  1  0.66321188  -0.00205748  0.32846793  1
  Cr  Cr21  1  0.66074232  0.32949942  -0.00058475  1
  Fe  Fe22  1  0.83092874  0.49389681  0.16413979  1
  Ni  Ni23  1  0.66074172  0.32894066  0.32766167  1
  Cr  Cr24  1  0.66066596  0.66228685  0.99556761  1
  Cr  Cr25  1  0.82876579  0.82858403  0.16113154  1
  Cr  Cr26  1  0.66287840  0.66072877  0.33030777  1
  Fe  Fe27  1  0.16653251  0.16343769  0.49627609  1
  Fe  Fe28  1  0.99444858  -0.00373301  0.66145073  1
  Cr  Cr29  1  0.16283466  0.16307903  0.82676954  1
  Cr  Cr30  1  0.16418683  0.49482203  0.49402863  1
  Cr  Cr31  1  -0.00239462  0.32832025  0.66154727  1
  Fe  Fe32  1  0.16402031  0.49845311  0.82904374  1
  Cr  Cr33  1  0.16557521  0.83016958  0.49447397  1
  Cr  Cr34  1  0.99573766  0.66587618  0.66246809  1
  Fe  Fe35  1  0.16410081  0.82832011  0.82887296  1
  Fe  Fe36  1  0.49455859  0.16385695  0.49487412  1
  Fe  Fe37  1  0.33071560  -0.00341552  0.66299474  1
  Fe  Fe38  1  0.49636467  0.16075200  0.82878014  1
  Cr  Cr39  1  0.49459121  0.49598157  0.49607221  1
  Fe  Fe40  1  0.32992247  0.32968949  0.66372560  1
  Fe  Fe41  1  0.49380028  0.49673317  0.82823995  1
  Cr  Cr42  1  0.49582589  0.83109111  0.49535170  1
  Fe  Fe43  1  0.32921985  0.66265915  0.66470968  1
  Fe  Fe44  1  0.49512677  0.83143670  0.82868333  1
  Fe  Fe45  1  0.82753762  0.16273497  0.49547746  1
  Fe  Fe46  1  0.66373074  -0.00316891  0.66249339  1
  Cr  Cr47  1  0.82848672  0.16161186  0.83360561  1
  Cr  Cr48  1  0.82919475  0.49513471  0.49172099  1
  Cr  Cr49  1  0.65990541  0.32923971  0.66207998  1
  Cr  Cr50  1  0.83077874  0.49575853  0.83265474  1
  Fe  Fe51  1  0.82976075  0.83078451  0.49622596  1
  Cr  Cr52  1  0.66288750  0.66391900  0.66239774  1
  Fe  Fe53  1  0.82917160  0.83036010  0.83027516  1
" 