1177,Ni2Fe50Cr47_17,-217.494342907992, 170.725803719562,Ni2Fe50Cr47,"# generated using pymatgen
 data_Cr26Fe27Ni
_symmetry_space_group_name_H-M   'P 1'
_cell_length_a   7.53591732
_cell_length_b   7.53591732
_cell_length_c   10.65739648
_cell_angle_alpha   90.00000000
_cell_angle_beta   90.00000000
_cell_angle_gamma   90.00000000
_symmetry_Int_Tables_number   1
_chemical_formula_structural   Cr26Fe27Ni
_chemical_formula_sum   'Cr26 Fe27 Ni1'
_cell_volume   605.23407740
_cell_formula_units_Z   1
loop_
 _symmetry_equiv_pos_site_id
 _symmetry_equiv_pos_as_xyz
  1  'x, y, z'
loop_
 _atom_site_type_symbol
 _atom_site_label
 _atom_site_symmetry_multiplicity
 _atom_site_fract_x
 _atom_site_fract_y
 _atom_site_fract_z
 _atom_site_occupancy
  Fe  Fe0  1  0.99542900  -0.00456221  0.99542604  1
  Cr  Cr1  1  0.16301534  0.16063368  0.16128073  1
  Cr  Cr2  1  -0.00438558  0.99398375  0.32872679  1
  Cr  Cr3  1  0.99461192  0.32743986  -0.00395927  1
  Fe  Fe4  1  0.16315246  0.49742804  0.16209114  1
  Cr  Cr5  1  0.99443657  0.33056723  0.32716353  1
  Cr  Cr6  1  -0.00318408  0.66253257  -0.00403102  1
  Fe  Fe7  1  0.16319448  0.82796846  0.16206158  1
  Fe  Fe8  1  -0.00307846  0.66249485  0.32926776  1
  Fe  Fe9  1  0.32758332  0.99449216  0.99531572  1
  Cr  Cr10  1  0.49521631  0.16305341  0.16261557  1
  Fe  Fe11  1  0.32926475  0.99309933  0.32930592  1
  Fe  Fe12  1  0.32909914  0.33028685  -0.00397788  1
  Fe  Fe13  1  0.49545504  0.49543287  0.16115060  1
  Cr  Cr14  1  0.32901243  0.32965809  0.32824548  1
  Fe  Fe15  1  0.32817389  0.66151058  -0.00410905  1
  Cr  Cr16  1  0.49414667  0.82815660  0.16145158  1
  Fe  Fe17  1  0.32664717  0.66302585  0.32874120  1
  Fe  Fe18  1  0.66328018  -0.00362251  -0.00455766  1
  Fe  Fe19  1  0.82721510  0.16244952  0.16171828  1
  Fe  Fe20  1  0.66211059  -0.00438093  0.32971478  1
  Fe  Fe21  1  0.66222004  0.32887272  -0.00362320  1
  Fe  Fe22  1  0.82768039  0.49434793  0.16206602  1
  Fe  Fe23  1  0.66264188  0.32817292  0.32730270  1
  Fe  Fe24  1  0.66128286  0.66104336  -0.00361366  1
  Cr  Cr25  1  0.82994537  0.82760437  0.16139028  1
  Cr  Cr26  1  0.66169424  0.66262284  0.32835376  1
  Cr  Cr27  1  0.16434920  0.16255664  0.49513841  1
  Cr  Cr28  1  0.99389206  0.99506349  0.66398682  1
  Cr  Cr29  1  0.16253414  0.16224363  0.82987431  1
  Fe  Fe30  1  0.16248975  0.49765250  0.49543289  1
  Cr  Cr31  1  -0.00359214  0.32911152  0.66308266  1
  Fe  Fe32  1  0.16412048  0.49649668  0.82876151  1
  Fe  Fe33  1  0.16203515  0.82686342  0.49446995  1
  Cr  Cr34  1  -0.00259341  0.66212220  0.66027918  1
  Fe  Fe35  1  0.16320817  0.82769202  0.82975611  1
  Cr  Cr36  1  0.49512747  0.16132333  0.49553535  1
  Cr  Cr37  1  0.33031363  0.99391321  0.66027359  1
  Cr  Cr38  1  0.49530193  0.16344929  0.82813343  1
  Cr  Cr39  1  0.49373731  0.49520089  0.49731533  1
  Fe  Fe40  1  0.32866001  0.33079344  0.66199429  1
  Cr  Cr41  1  0.49388608  0.49483372  0.82942896  1
  Fe  Fe42  1  0.49611195  0.82935904  0.49494047  1
  Fe  Fe43  1  0.32710112  0.66157363  0.66167164  1
  Cr  Cr44  1  0.49539033  0.82800929  0.83003568  1
  Cr  Cr45  1  0.82681600  0.16033462  0.49601945  1
  Fe  Fe46  1  0.66329831  0.99540894  0.66113807  1
  Fe  Fe47  1  0.82707608  0.16166136  0.82915221  1
  Cr  Cr48  1  0.82994029  0.49793743  0.49438024  1
  Fe  Fe49  1  0.66168504  0.32721436  0.66261756  1
  Cr  Cr50  1  0.82795817  0.49563274  0.82830336  1
  Ni  Ni51  1  0.82885911  0.82837087  0.49484761  1
  Cr  Cr52  1  0.66050783  0.66420232  0.66154228  1
  Cr  Cr53  1  0.82917568  0.82991796  0.82962161  1
" 