1209,Ni2Fe46Cr50_7,-216.475625651306, 177.198266602115,Ni2Fe46Cr50,"# generated using pymatgen
 data_Cr28Fe25Ni
_symmetry_space_group_name_H-M   'P 1'
_cell_length_a   7.54265844
_cell_length_b   7.54265844
_cell_length_c   10.66692987
_cell_angle_alpha   90.00000000
_cell_angle_beta   90.00000000
_cell_angle_gamma   90.00000000
_symmetry_Int_Tables_number   1
_chemical_formula_structural   Cr28Fe25Ni
_chemical_formula_sum   'Cr28 Fe25 Ni1'
_cell_volume   606.85973518
_cell_formula_units_Z   1
loop_
 _symmetry_equiv_pos_site_id
 _symmetry_equiv_pos_as_xyz
  1  'x, y, z'
loop_
 _atom_site_type_symbol
 _atom_site_label
 _atom_site_symmetry_multiplicity
 _atom_site_fract_x
 _atom_site_fract_y
 _atom_site_fract_z
 _atom_site_occupancy
  Fe  Fe0  1  0.99403436  -0.00394998  -0.00472002  1
  Fe  Fe1  1  0.16052638  0.16158221  0.16156148  1
  Cr  Cr2  1  0.99322110  -0.00268578  0.32987736  1
  Fe  Fe3  1  0.99370505  0.32924717  -0.00457056  1
  Cr  Cr4  1  0.16008303  0.49275139  0.16183040  1
  Fe  Fe5  1  0.99345051  0.32792177  0.32719704  1
  Fe  Fe6  1  0.99453168  0.65994010  0.99378181  1
  Cr  Cr7  1  0.16209586  0.83071739  0.16087651  1
  Cr  Cr8  1  0.99393810  0.66297988  0.32821087  1
  Fe  Fe9  1  0.32963763  -0.00496722  -0.00467584  1
  Cr  Cr10  1  0.49545003  0.16014665  0.16108269  1
  Fe  Fe11  1  0.33052748  -0.00312995  0.32834111  1
  Cr  Cr12  1  0.32855553  0.32683363  0.99369304  1
  Cr  Cr13  1  0.49594501  0.49343727  0.16467757  1
  Fe  Fe14  1  0.32903621  0.32523032  0.32890548  1
  Cr  Cr15  1  0.32884066  0.66044714  -0.00477943  1
  Fe  Fe16  1  0.49470716  0.83015928  0.16138704  1
  Cr  Cr17  1  0.32885788  0.66168797  0.32864429  1
  Fe  Fe18  1  0.66113076  -0.00435687  0.99451007  1
  Fe  Fe19  1  0.82970252  0.16314877  0.16132264  1
  Fe  Fe20  1  0.66057639  -0.00296332  0.32870852  1
  Cr  Cr21  1  0.66145241  0.32800044  0.99425455  1
  Fe  Fe22  1  0.82921308  0.49241488  0.16175553  1
  Fe  Fe23  1  0.66263754  0.32457193  0.32870610  1
  Cr  Cr24  1  0.66322921  0.66152138  -0.00396773  1
  Cr  Cr25  1  0.82784102  0.83043498  0.15886088  1
  Cr  Cr26  1  0.66220203  0.66219604  0.32597457  1
  Cr  Cr27  1  0.16197817  0.16260013  0.49316602  1
  Cr  Cr28  1  0.99333237  -0.00391692  0.65954184  1
  Cr  Cr29  1  0.16054802  0.16120449  0.83103721  1
  Cr  Cr30  1  0.16134407  0.49399259  0.49578967  1
  Fe  Fe31  1  0.99430084  0.32813072  0.66239221  1
  Fe  Fe32  1  0.15976775  0.49462674  0.82844070  1
  Cr  Cr33  1  0.16326348  0.82871980  0.49576501  1
  Cr  Cr34  1  0.99423114  0.66206212  0.66318965  1
  Cr  Cr35  1  0.16134408  0.82909274  0.82867162  1
  Ni  Ni36  1  0.49745039  0.16134898  0.49586883  1
  Fe  Fe37  1  0.32980565  -0.00362400  0.66144072  1
  Fe  Fe38  1  0.49559542  0.15984980  0.82724027  1
  Cr  Cr39  1  0.49624209  0.49326374  0.49480455  1
  Cr  Cr40  1  0.32982953  0.32665379  0.66324882  1
  Cr  Cr41  1  0.49678561  0.49483921  0.82552459  1
  Cr  Cr42  1  0.49528399  0.82979195  0.49501526  1
  Fe  Fe43  1  0.32872497  0.66225974  0.66207130  1
  Cr  Cr44  1  0.49611430  0.83011183  0.82819316  1
  Fe  Fe45  1  0.82470277  0.16284270  0.49522016  1
  Fe  Fe46  1  0.65966762  -0.00263218  0.66148451  1
  Cr  Cr47  1  0.82745419  0.16170780  0.82789450  1
  Cr  Cr48  1  0.82762008  0.49225346  0.49465136  1
  Fe  Fe49  1  0.66311483  0.32606787  0.66120645  1
  Fe  Fe50  1  0.82982855  0.49533419  0.82787756  1
  Cr  Cr51  1  0.82617233  0.82907671  0.49687431  1
  Fe  Fe52  1  0.66187858  0.66174371  0.66236517  1
  Fe  Fe53  1  0.82783103  0.82862131  0.82891905  1
" 