5350,Ni2Fe57Cr40_11,-218.791975847082, 162.555259439722,Ni2Fe57Cr40,"# generated using pymatgen
 data_Cr22Fe31Ni
_symmetry_space_group_name_H-M   'P 1'
_cell_length_a   7.51636063
_cell_length_b   7.51636063
_cell_length_c   10.62973915
_cell_angle_alpha   90.00000000
_cell_angle_beta   90.00000000
_cell_angle_gamma   90.00000000
_symmetry_Int_Tables_number   1
_chemical_formula_structural   Cr22Fe31Ni
_chemical_formula_sum   'Cr22 Fe31 Ni1'
_cell_volume   600.53431161
_cell_formula_units_Z   1
loop_
 _symmetry_equiv_pos_site_id
 _symmetry_equiv_pos_as_xyz
  1  'x, y, z'
loop_
 _atom_site_type_symbol
 _atom_site_label
 _atom_site_symmetry_multiplicity
 _atom_site_fract_x
 _atom_site_fract_y
 _atom_site_fract_z
 _atom_site_occupancy
  Fe  Fe0  1  -0.00217533  -0.00236402  0.99648691  1
  Fe  Fe1  1  0.16020351  0.16693538  0.16321667  1
  Fe  Fe2  1  -0.00134335  -0.00003161  0.33146172  1
  Fe  Fe3  1  -0.00311265  0.32966821  0.99496329  1
  Fe  Fe4  1  0.16494123  0.49922017  0.16338439  1
  Fe  Fe5  1  0.99467250  0.32891460  0.33110227  1
  Cr  Cr6  1  -0.00234340  0.66501540  0.99377508  1
  Cr  Cr7  1  0.16273135  0.83503126  0.16367598  1
  Cr  Cr8  1  -0.00073240  0.66626839  0.33198746  1
  Fe  Fe9  1  0.32828712  0.99445382  0.99550150  1
  Cr  Cr10  1  0.49308983  0.16240958  0.16305313  1
  Fe  Fe11  1  0.32889553  0.99599344  0.33224566  1
  Cr  Cr12  1  0.32738373  0.33270479  0.99505210  1
  Cr  Cr13  1  0.49921770  0.49770731  0.16525299  1
  Cr  Cr14  1  0.32682614  0.33237859  0.33279890  1
  Ni  Ni15  1  0.32772693  0.66465036  -0.00307770  1
  Cr  Cr16  1  0.49332603  0.82920691  0.16085691  1
  Fe  Fe17  1  0.33045487  0.66630302  0.33222100  1
  Cr  Cr18  1  0.66640479  0.99321199  0.99622852  1
  Fe  Fe19  1  0.83365481  0.16183688  0.16377116  1
  Cr  Cr20  1  0.66690338  -0.00162939  0.32934078  1
  Cr  Cr21  1  0.66466483  0.32486109  0.99666253  1
  Cr  Cr22  1  0.83260983  0.49566214  0.16238316  1
  Fe  Fe23  1  0.66453979  0.33015939  0.33148607  1
  Fe  Fe24  1  0.66280245  0.66244897  0.99570646  1
  Fe  Fe25  1  0.83114233  0.83090401  0.16233866  1
  Cr  Cr26  1  0.66448243  0.66830835  0.32988438  1
  Fe  Fe27  1  0.16022026  0.16205651  0.49751378  1
  Fe  Fe28  1  0.99658721  0.99446867  0.66294110  1
  Cr  Cr29  1  0.16266367  0.15785151  0.83038615  1
  Fe  Fe30  1  0.16176494  0.49753916  0.49667427  1
  Cr  Cr31  1  -0.00148278  0.33050256  0.66581525  1
  Fe  Fe32  1  0.16400461  0.49852835  0.83015197  1
  Fe  Fe33  1  0.16280453  0.83334233  0.49693894  1
  Fe  Fe34  1  0.99546138  0.66562287  0.66436701  1
  Fe  Fe35  1  0.16526022  0.82808057  0.82938934  1
  Cr  Cr36  1  0.49564424  0.16166809  0.49846109  1
  Fe  Fe37  1  0.32787186  0.99423563  0.66191221  1
  Cr  Cr38  1  0.49479748  0.15846780  0.82827721  1
  Fe  Fe39  1  0.49705606  0.49850696  0.49585152  1
  Cr  Cr40  1  0.32857840  0.33128001  0.66304123  1
  Cr  Cr41  1  0.50081589  0.49793017  0.83034879  1
  Fe  Fe42  1  0.49746597  0.82989260  0.49712985  1
  Cr  Cr43  1  0.32747309  0.66282545  0.66043607  1
  Fe  Fe44  1  0.49435247  0.82813862  0.83060251  1
  Fe  Fe45  1  0.83230714  0.16150975  0.49734717  1
  Fe  Fe46  1  0.66416593  0.99161171  0.66354382  1
  Fe  Fe47  1  0.83064236  0.16019927  0.82924220  1
  Cr  Cr48  1  0.82897830  0.49784693  0.49855008  1
  Cr  Cr49  1  0.66383112  0.32578056  0.66306043  1
  Fe  Fe50  1  0.83174323  0.49668610  0.82946463  1
  Fe  Fe51  1  0.83115713  0.83320197  0.49906971  1
  Fe  Fe52  1  0.66340535  0.66459041  0.66312435  1
  Fe  Fe53  1  0.83003548  0.83026596  0.82745884  1
" 