2741,Ni2Fe46Cr50_5,-216.283804532557, 179.694594662501,Ni2Fe46Cr50,"# generated using pymatgen
 data_Cr28Fe25Ni
_symmetry_space_group_name_H-M   'P 1'
_cell_length_a   7.53989823
_cell_length_b   7.53989823
_cell_length_c   10.66302633
_cell_angle_alpha   90.00000000
_cell_angle_beta   90.00000000
_cell_angle_gamma   90.00000000
_symmetry_Int_Tables_number   1
_chemical_formula_structural   Cr28Fe25Ni
_chemical_formula_sum   'Cr28 Fe25 Ni1'
_cell_volume   606.19374279
_cell_formula_units_Z   1
loop_
 _symmetry_equiv_pos_site_id
 _symmetry_equiv_pos_as_xyz
  1  'x, y, z'
loop_
 _atom_site_type_symbol
 _atom_site_label
 _atom_site_symmetry_multiplicity
 _atom_site_fract_x
 _atom_site_fract_y
 _atom_site_fract_z
 _atom_site_occupancy
  Cr  Cr0  1  0.99502951  -0.00462464  -0.00431522  1
  Fe  Fe1  1  0.16064707  0.16431738  0.16306945  1
  Cr  Cr2  1  0.99412029  -0.00465997  0.32836348  1
  Cr  Cr3  1  0.99405629  0.32849090  -0.00342100  1
  Fe  Fe4  1  0.16307702  0.49346424  0.16316165  1
  Fe  Fe5  1  -0.00287058  0.32800391  0.32769686  1
  Cr  Cr6  1  -0.00181673  0.66177103  0.99168447  1
  Fe  Fe7  1  0.16263799  0.82697278  0.16247165  1
  Cr  Cr8  1  0.00118499  0.66195385  0.32927941  1
  Cr  Cr9  1  0.32638758  0.99201023  -0.00380020  1
  Cr  Cr10  1  0.49131240  0.16063930  0.15970988  1
  Cr  Cr11  1  0.32736282  0.98926254  0.32747647  1
  Fe  Fe12  1  0.32563105  0.32948988  0.99424245  1
  Cr  Cr13  1  0.49531578  0.49623597  0.16258394  1
  Fe  Fe14  1  0.32691672  0.33145251  0.32927845  1
  Cr  Cr15  1  0.32802818  0.66102358  -0.00241811  1
  Fe  Fe16  1  0.49573611  0.82689082  0.16202782  1
  Fe  Fe17  1  0.32995228  0.65902184  0.32918648  1
  Fe  Fe18  1  0.66324100  0.99452010  0.99515781  1
  Fe  Fe19  1  0.82836041  0.16273165  0.16190881  1
  Cr  Cr20  1  0.66324717  -0.00271708  0.32791542  1
  Cr  Cr21  1  0.66229921  0.32868645  0.99199063  1
  Cr  Cr22  1  0.83072408  0.49745412  0.16234496  1
  Cr  Cr23  1  0.66289594  0.32875345  0.33212819  1
  Fe  Fe24  1  0.66251917  0.66209827  0.99394227  1
  Cr  Cr25  1  0.82590217  0.82592138  0.15964187  1
  Fe  Fe26  1  0.66050730  0.66220810  0.32911299  1
  Cr  Cr27  1  0.16164985  0.16356762  0.49520827  1
  Cr  Cr28  1  0.99450515  0.99174583  0.66113492  1
  Fe  Fe29  1  0.16034673  0.16240482  0.82880883  1
  Fe  Fe30  1  0.16508127  0.49554678  0.49411944  1
  Cr  Cr31  1  0.99257944  0.32950965  0.66293839  1
  Fe  Fe32  1  0.16228532  0.49503766  0.82875540  1
  Fe  Fe33  1  0.16116892  0.82496717  0.49502569  1
  Fe  Fe34  1  0.99424754  0.66210056  0.66293028  1
  Fe  Fe35  1  0.16099805  0.82759403  0.82785735  1
  Cr  Cr36  1  0.49095891  0.16298858  0.49689873  1
  Cr  Cr37  1  0.32624934  0.99099140  0.66210445  1
  Cr  Cr38  1  0.49092188  0.16126426  0.82871879  1
  Ni  Ni39  1  0.49489357  0.49874083  0.49437043  1
  Cr  Cr40  1  0.33064483  0.33326329  0.66396683  1
  Fe  Fe41  1  0.49576092  0.49738257  0.82885845  1
  Cr  Cr42  1  0.49726869  0.82657860  0.49306718  1
  Cr  Cr43  1  0.32663798  0.66124878  0.66014162  1
  Cr  Cr44  1  0.49878638  0.82840103  0.83102568  1
  Fe  Fe45  1  0.82911699  0.16277301  0.49488699  1
  Cr  Cr46  1  0.66455383  -0.00283955  0.65962265  1
  Fe  Fe47  1  0.82853510  0.16034660  0.82879379  1
  Cr  Cr48  1  0.83046528  0.49965288  0.49488972  1
  Cr  Cr49  1  0.66185257  0.33081383  0.66120985  1
  Fe  Fe50  1  0.82738526  0.49798007  0.82778948  1
  Fe  Fe51  1  0.82894178  0.82708424  0.49503951  1
  Fe  Fe52  1  0.66237075  0.66127252  0.66205163  1
  Fe  Fe53  1  0.82851401  0.82733592  0.82849035  1
" 