5248,Ni2Fe46Cr50_8,-216.582592167686, 179.339753102065,Ni2Fe46Cr50,"# generated using pymatgen
 data_Cr28Fe25Ni
_symmetry_space_group_name_H-M   'P 1'
_cell_length_a   7.52858549
_cell_length_b   7.52858549
_cell_length_c   10.64702770
_cell_angle_alpha   90.00000000
_cell_angle_beta   90.00000000
_cell_angle_gamma   90.00000000
_symmetry_Int_Tables_number   1
_chemical_formula_structural   Cr28Fe25Ni
_chemical_formula_sum   'Cr28 Fe25 Ni1'
_cell_volume   603.46926576
_cell_formula_units_Z   1
loop_
 _symmetry_equiv_pos_site_id
 _symmetry_equiv_pos_as_xyz
  1  'x, y, z'
loop_
 _atom_site_type_symbol
 _atom_site_label
 _atom_site_symmetry_multiplicity
 _atom_site_fract_x
 _atom_site_fract_y
 _atom_site_fract_z
 _atom_site_occupancy
  Fe  Fe0  1  0.99588079  0.99465477  -0.00404184  1
  Cr  Cr1  1  0.16502285  0.16097153  0.16374694  1
  Fe  Fe2  1  -0.00210119  -0.00327184  0.33155243  1
  Cr  Cr3  1  -0.00274693  0.32723483  0.99062576  1
  Cr  Cr4  1  0.16321122  0.49375349  0.16053632  1
  Ni  Ni5  1  -0.00146480  0.32611639  0.33420588  1
  Fe  Fe6  1  0.99336384  0.66188217  -0.00318375  1
  Cr  Cr7  1  0.15960876  0.83217945  0.16210387  1
  Cr  Cr8  1  -0.00222084  0.66165979  0.33067643  1
  Fe  Fe9  1  0.33181886  -0.00377578  -0.00304740  1
  Fe  Fe10  1  0.49521231  0.16325848  0.16352481  1
  Fe  Fe11  1  0.32814070  -0.00250594  0.33127573  1
  Fe  Fe12  1  0.33141134  0.32701659  -0.00312842  1
  Fe  Fe13  1  0.49356209  0.49207903  0.16422485  1
  Fe  Fe14  1  0.32856618  0.32752430  0.33014062  1
  Cr  Cr15  1  0.32805169  0.66172466  -0.00401919  1
  Fe  Fe16  1  0.49244141  0.83340260  0.16279262  1
  Cr  Cr17  1  0.32876993  0.66392958  0.33007474  1
  Cr  Cr18  1  0.66445187  -0.00373958  0.99454041  1
  Cr  Cr19  1  0.83252760  0.16158073  0.16376374  1
  Cr  Cr20  1  0.66162869  -0.00307481  0.32852296  1
  Cr  Cr21  1  0.66413001  0.32753993  -0.00219068  1
  Cr  Cr22  1  0.82857364  0.49510940  0.16701307  1
  Fe  Fe23  1  0.66323104  0.32847546  0.32937423  1
  Cr  Cr24  1  0.65999109  0.66464271  0.00189973  1
  Fe  Fe25  1  0.83075792  0.83072710  0.16287984  1
  Cr  Cr26  1  0.66023481  0.66497767  0.32526670  1
  Fe  Fe27  1  0.16419676  0.16274336  0.49439878  1
  Cr  Cr28  1  -0.00407558  0.00004176  0.66206038  1
  Cr  Cr29  1  0.16522568  0.16076725  0.83128042  1
  Fe  Fe30  1  0.16069264  0.49440081  0.49535223  1
  Fe  Fe31  1  -0.00245774  0.33197952  0.66122105  1
  Fe  Fe32  1  0.16163403  0.49691350  0.82887266  1
  Fe  Fe33  1  0.16387682  0.83191821  0.49614439  1
  Fe  Fe34  1  -0.00306606  0.66202207  0.66016472  1
  Cr  Cr35  1  0.16213964  0.82933748  0.83045397  1
  Fe  Fe36  1  0.49386437  0.16050511  0.49597638  1
  Fe  Fe37  1  0.33041629  0.99588785  0.66047230  1
  Cr  Cr38  1  0.49582966  0.16127513  0.82750257  1
  Cr  Cr39  1  0.49785412  0.49360266  0.49213878  1
  Cr  Cr40  1  0.32548316  0.33052888  0.66260735  1
  Cr  Cr41  1  0.49566952  0.49541060  0.83241622  1
  Fe  Fe42  1  0.49477758  0.83242540  0.49523935  1
  Cr  Cr43  1  0.32755705  0.66412530  0.66141202  1
  Fe  Fe44  1  0.49508908  0.83017338  0.82898186  1
  Cr  Cr45  1  0.82863679  0.16385904  0.49641586  1
  Fe  Fe46  1  0.66034879  0.99469453  0.66193471  1
  Fe  Fe47  1  0.82998350  0.16175411  0.82748442  1
  Fe  Fe48  1  0.83081572  0.49508391  0.49472890  1
  Cr  Cr49  1  0.66477577  0.32651601  0.66201335  1
  Cr  Cr50  1  0.82881379  0.49803134  0.82532706  1
  Cr  Cr51  1  0.83020093  0.82785821  0.49466660  1
  Cr  Cr52  1  0.65936082  0.66478865  0.66075544  1
  Cr  Cr53  1  0.82960679  0.82858799  0.83015264  1
" 