6782,Ni2Fe57Cr40_13,-218.837465620023, 167.197615936614,Ni2Fe57Cr40,"# generated using pymatgen
 data_Cr22Fe31Ni
_symmetry_space_group_name_H-M   'P 1'
_cell_length_a   7.51358463
_cell_length_b   7.51358463
_cell_length_c   10.62581328
_cell_angle_alpha   90.00000000
_cell_angle_beta   90.00000000
_cell_angle_gamma   90.00000000
_symmetry_Int_Tables_number   1
_chemical_formula_structural   Cr22Fe31Ni
_chemical_formula_sum   'Cr22 Fe31 Ni1'
_cell_volume   599.86917372
_cell_formula_units_Z   1
loop_
 _symmetry_equiv_pos_site_id
 _symmetry_equiv_pos_as_xyz
  1  'x, y, z'
loop_
 _atom_site_type_symbol
 _atom_site_label
 _atom_site_symmetry_multiplicity
 _atom_site_fract_x
 _atom_site_fract_y
 _atom_site_fract_z
 _atom_site_occupancy
  Cr  Cr0  1  0.99609790  0.99508400  -0.00273642  1
  Cr  Cr1  1  0.16417340  0.16318985  0.16225172  1
  Fe  Fe2  1  -0.00161270  0.99583780  0.32961624  1
  Fe  Fe3  1  -0.00191488  0.32991104  0.99687027  1
  Cr  Cr4  1  0.16627359  0.49710544  0.16130548  1
  Cr  Cr5  1  0.99573926  0.33313383  0.32810872  1
  Cr  Cr6  1  -0.00145854  0.66255641  -0.00305090  1
  Fe  Fe7  1  0.16469774  0.82983018  0.16517979  1
  Fe  Fe8  1  -0.00229646  0.66487024  0.32981556  1
  Fe  Fe9  1  0.32948923  -0.00170256  0.99659340  1
  Fe  Fe10  1  0.49363470  0.16404029  0.16283053  1
  Fe  Fe11  1  0.32986688  0.99583583  0.33040996  1
  Ni  Ni12  1  0.32946586  0.33231764  -0.00217665  1
  Fe  Fe13  1  0.49612530  0.49676668  0.16337880  1
  Fe  Fe14  1  0.33137491  0.33010005  0.33007389  1
  Fe  Fe15  1  0.33129191  0.66361976  0.99621526  1
  Cr  Cr16  1  0.49560765  0.82786631  0.16000195  1
  Fe  Fe17  1  0.33171143  0.66370244  0.33079471  1
  Cr  Cr18  1  0.66330165  0.99561882  0.99564295  1
  Fe  Fe19  1  0.83062444  0.16390181  0.16402643  1
  Cr  Cr20  1  0.66160008  -0.00149842  0.32900254  1
  Cr  Cr21  1  0.66267599  0.32892119  0.00180904  1
  Fe  Fe22  1  0.82900787  0.49801341  0.16367689  1
  Cr  Cr23  1  0.66066259  0.33051912  0.33090884  1
  Fe  Fe24  1  0.66358310  0.66195076  0.99672783  1
  Cr  Cr25  1  0.82931185  0.82887732  0.16443229  1
  Fe  Fe26  1  0.66237165  0.66219470  0.33088994  1
  Cr  Cr27  1  0.16420823  0.16192662  0.49718432  1
  Fe  Fe28  1  -0.00055397  0.99555659  0.66484970  1
  Fe  Fe29  1  0.16434438  0.16637644  0.83125558  1
  Cr  Cr30  1  0.16457078  0.49857329  0.49732204  1
  Fe  Fe31  1  -0.00255367  0.33149607  0.66347909  1
  Fe  Fe32  1  0.16402427  0.49468306  0.83077514  1
  Fe  Fe33  1  0.16453525  0.83006683  0.49699157  1
  Fe  Fe34  1  -0.00174522  0.66395647  0.66424579  1
  Cr  Cr35  1  0.16680613  0.83067389  0.82988423  1
  Fe  Fe36  1  0.49583230  0.16294937  0.49764408  1
  Fe  Fe37  1  0.32982491  0.99531203  0.66288234  1
  Cr  Cr38  1  0.49429771  0.16370871  0.83124681  1
  Fe  Fe39  1  0.49849051  0.49909672  0.49725374  1
  Cr  Cr40  1  0.33052435  0.33197861  0.66294064  1
  Cr  Cr41  1  0.49582283  0.49952020  0.83238620  1
  Fe  Fe42  1  0.49413932  0.82953335  0.49613495  1
  Fe  Fe43  1  0.33209341  0.66634542  0.66288212  1
  Fe  Fe44  1  0.49768995  0.82890362  0.83095080  1
  Cr  Cr45  1  0.83104718  0.16366318  0.49876151  1
  Cr  Cr46  1  0.66155213  0.99580144  0.66551156  1
  Cr  Cr47  1  0.83313675  0.16431900  0.82850712  1
  Fe  Fe48  1  0.82971109  0.49754079  0.49871249  1
  Fe  Fe49  1  0.66258132  0.33201920  0.66201057  1
  Cr  Cr50  1  0.82992225  0.49692016  0.82806463  1
  Cr  Cr51  1  0.83028332  0.82878226  0.49725207  1
  Fe  Fe52  1  0.66124199  0.66242260  0.66247616  1
  Fe  Fe53  1  0.82953574  0.82807982  0.82856535  1
" 