142,Ni2Fe46Cr50_9,-216.52777972553, 173.028135827888,Ni2Fe46Cr50,"# generated using pymatgen
 data_Cr28Fe25Ni
_symmetry_space_group_name_H-M   'P 1'
_cell_length_a   7.53794100
_cell_length_b   7.53794100
_cell_length_c   10.66025839
_cell_angle_alpha   90.00000000
_cell_angle_beta   90.00000000
_cell_angle_gamma   90.00000000
_symmetry_Int_Tables_number   1
_chemical_formula_structural   Cr28Fe25Ni
_chemical_formula_sum   'Cr28 Fe25 Ni1'
_cell_volume   605.72179294
_cell_formula_units_Z   1
loop_
 _symmetry_equiv_pos_site_id
 _symmetry_equiv_pos_as_xyz
  1  'x, y, z'
loop_
 _atom_site_type_symbol
 _atom_site_label
 _atom_site_symmetry_multiplicity
 _atom_site_fract_x
 _atom_site_fract_y
 _atom_site_fract_z
 _atom_site_occupancy
  Fe  Fe0  1  -0.00457340  -0.00445717  -0.00393556  1
  Cr  Cr1  1  0.16168996  0.15992302  0.16445169  1
  Cr  Cr2  1  0.99392516  -0.00455723  0.32588501  1
  Cr  Cr3  1  0.99297504  0.32766827  0.99524673  1
  Cr  Cr4  1  0.16133066  0.49622553  0.16292781  1
  Fe  Fe5  1  0.99396589  0.33075115  0.32946962  1
  Fe  Fe6  1  0.99405430  0.66168826  -0.00407717  1
  Fe  Fe7  1  0.16249359  0.82780777  0.16147600  1
  Cr  Cr8  1  0.99411282  0.65998359  0.33143729  1
  Cr  Cr9  1  0.32899167  0.99519642  -0.00299230  1
  Fe  Fe10  1  0.49686311  0.16036666  0.16212974  1
  Fe  Fe11  1  0.33000829  0.99328893  0.32743628  1
  Cr  Cr12  1  0.33045985  0.32820933  0.99362674  1
  Cr  Cr13  1  0.49891350  0.49519224  0.15932459  1
  Cr  Cr14  1  0.32679757  0.32886431  0.32776025  1
  Cr  Cr15  1  0.32986700  0.66225292  0.99430127  1
  Fe  Fe16  1  0.49437015  0.82963122  0.16208160  1
  Cr  Cr17  1  0.32891185  0.66301885  0.32974505  1
  Cr  Cr18  1  0.66288280  -0.00302158  0.99410756  1
  Fe  Fe19  1  0.82749733  0.16377317  0.16125433  1
  Cr  Cr20  1  0.66120523  0.99315846  0.33038095  1
  Fe  Fe21  1  0.66239661  0.32893723  0.99429128  1
  Fe  Fe22  1  0.82919934  0.49463350  0.16063256  1
  Cr  Cr23  1  0.66475610  0.32867432  0.32578663  1
  Fe  Fe24  1  0.66265916  0.65996368  0.99401453  1
  Cr  Cr25  1  0.82920324  0.82740026  0.15900967  1
  Cr  Cr26  1  0.66316896  0.66364801  0.32975771  1
  Cr  Cr27  1  0.16185730  0.16385162  0.49422481  1
  Cr  Cr28  1  0.99256634  -0.00438248  0.66384642  1
  Cr  Cr29  1  0.16142366  0.16060985  0.82719409  1
  Ni  Ni30  1  0.15887518  0.49641799  0.49771232  1
  Fe  Fe31  1  0.99289702  0.33195652  0.66149446  1
  Cr  Cr32  1  0.16181374  0.49741510  0.82647462  1
  Cr  Cr33  1  0.16224142  0.82842499  0.49678800  1
  Fe  Fe34  1  -0.00461699  0.65936053  0.66032026  1
  Cr  Cr35  1  0.16040026  0.82803858  0.83098907  1
  Cr  Cr36  1  0.49550387  0.16044255  0.49538920  1
  Fe  Fe37  1  0.33138894  0.99312309  0.66291519  1
  Fe  Fe38  1  0.49787035  0.16138105  0.82708255  1
  Cr  Cr39  1  0.49479161  0.49510226  0.49551504  1
  Cr  Cr40  1  0.32789888  0.33012963  0.66394667  1
  Fe  Fe41  1  0.49876452  0.49613526  0.82829259  1
  Fe  Fe42  1  0.49410031  0.82945225  0.49699086  1
  Fe  Fe43  1  0.32802858  0.66324102  0.66152760  1
  Fe  Fe44  1  0.49499702  0.82865014  0.82722113  1
  Cr  Cr45  1  0.82804552  0.16206889  0.49646521  1
  Fe  Fe46  1  0.65977720  -0.00404803  0.66311784  1
  Fe  Fe47  1  0.82676793  0.16425128  0.82765473  1
  Fe  Fe48  1  0.83164753  0.49434615  0.49679554  1
  Fe  Fe49  1  0.66367738  0.32821350  0.66383788  1
  Fe  Fe50  1  0.82746224  0.49453017  0.82835132  1
  Fe  Fe51  1  0.82880616  0.82757430  0.49684866  1
  Cr  Cr52  1  0.66235918  0.66367244  0.65975158  1
  Cr  Cr53  1  0.82859743  0.82788860  0.82979089  1
" 