7319,Ni2Fe57Cr40_7,-218.620238775237, 162.453392121728,Ni2Fe57Cr40,"# generated using pymatgen
 data_Cr22Fe31Ni
_symmetry_space_group_name_H-M   'P 1'
_cell_length_a   7.51707826
_cell_length_b   7.51707826
_cell_length_c   10.63075403
_cell_angle_alpha   90.00000000
_cell_angle_beta   90.00000000
_cell_angle_gamma   90.00000000
_symmetry_Int_Tables_number   1
_chemical_formula_structural   Cr22Fe31Ni
_chemical_formula_sum   'Cr22 Fe31 Ni1'
_cell_volume   600.70633694
_cell_formula_units_Z   1
loop_
 _symmetry_equiv_pos_site_id
 _symmetry_equiv_pos_as_xyz
  1  'x, y, z'
loop_
 _atom_site_type_symbol
 _atom_site_label
 _atom_site_symmetry_multiplicity
 _atom_site_fract_x
 _atom_site_fract_y
 _atom_site_fract_z
 _atom_site_occupancy
  Cr  Cr0  1  -0.00250517  -0.00308838  0.99525098  1
  Fe  Fe1  1  0.16451025  0.16423448  0.16318253  1
  Fe  Fe2  1  -0.00314553  -0.00131236  0.32838839  1
  Cr  Cr3  1  0.99594634  0.33015030  -0.00331272  1
  Fe  Fe4  1  0.16303393  0.49385801  0.16312678  1
  Fe  Fe5  1  0.99491052  0.32797356  0.33002021  1
  Cr  Cr6  1  0.99439678  0.66266057  0.99510179  1
  Fe  Fe7  1  0.16296778  0.83198796  0.16314892  1
  Cr  Cr8  1  0.99593928  0.66061843  0.32732790  1
  Fe  Fe9  1  0.33012606  -0.00147841  -0.00129258  1
  Ni  Ni10  1  0.49784099  0.16374158  0.16091830  1
  Cr  Cr11  1  0.33141933  -0.00228887  0.32791098  1
  Fe  Fe12  1  0.32888669  0.32763584  -0.00168605  1
  Cr  Cr13  1  0.49674369  0.49426805  0.16154506  1
  Cr  Cr14  1  0.33018201  0.32961243  0.33217048  1
  Cr  Cr15  1  0.33032297  0.66505175  -0.00043164  1
  Fe  Fe16  1  0.49818107  0.83294702  0.16151764  1
  Cr  Cr17  1  0.33105895  0.66269889  0.32926650  1
  Fe  Fe18  1  0.66333926  0.99599221  -0.00055656  1
  Fe  Fe19  1  0.82847338  0.16438670  0.16331581  1
  Cr  Cr20  1  0.66287967  -0.00145083  0.33014685  1
  Fe  Fe21  1  0.66418175  0.32971367  -0.00192765  1
  Fe  Fe22  1  0.82912939  0.49355849  0.16285352  1
  Fe  Fe23  1  0.66367254  0.32933288  0.32967704  1
  Fe  Fe24  1  0.66526748  0.66381513  -0.00238109  1
  Fe  Fe25  1  0.82877750  0.83193129  0.16242780  1
  Cr  Cr26  1  0.66296005  0.66235992  0.32778680  1
  Fe  Fe27  1  0.16185748  0.16332727  0.49637825  1
  Cr  Cr28  1  -0.00298542  -0.00228301  0.66598210  1
  Fe  Fe29  1  0.16545332  0.16407840  0.83090896  1
  Fe  Fe30  1  0.16284353  0.49621516  0.49797547  1
  Cr  Cr31  1  0.99589618  0.33053160  0.66359487  1
  Cr  Cr32  1  0.16462568  0.49647381  0.82945169  1
  Cr  Cr33  1  0.16192332  0.82903505  0.49613875  1
  Fe  Fe34  1  0.99581791  0.66298220  0.66443952  1
  Fe  Fe35  1  0.16430605  0.82997057  0.82970121  1
  Fe  Fe36  1  0.49826348  0.16477520  0.49741973  1
  Cr  Cr37  1  0.33099627  -0.00146608  0.66414628  1
  Cr  Cr38  1  0.49714997  0.16482197  0.83255543  1
  Fe  Fe39  1  0.49788813  0.49545010  0.49872430  1
  Fe  Fe40  1  0.33067082  0.33017530  0.66080638  1
  Cr  Cr41  1  0.49652265  0.49523267  0.83039448  1
  Cr  Cr42  1  0.49695571  0.82887004  0.49741071  1
  Fe  Fe43  1  0.32933214  0.66185358  0.66273941  1
  Cr  Cr44  1  0.49834983  0.83016022  0.83116094  1
  Fe  Fe45  1  0.82984521  0.16527586  0.49644183  1
  Fe  Fe46  1  0.66346420  -0.00150543  0.66291357  1
  Cr  Cr47  1  0.82772025  0.16284237  0.83074359  1
  Fe  Fe48  1  0.82910897  0.49625809  0.49659245  1
  Fe  Fe49  1  0.66253928  0.32951023  0.66146451  1
  Fe  Fe50  1  0.82718776  0.49739289  0.82901304  1
  Cr  Cr51  1  0.83133719  0.83188146  0.49760369  1
  Fe  Fe52  1  0.66512329  0.66175532  0.66329302  1
  Fe  Fe53  1  0.82860872  0.82777369  0.82880867  1
" 