2151,Ni2Fe41Cr55_18,-214.790127889426, 180.493382845721,Ni2Fe41Cr55,"# generated using pymatgen
 data_Cr31Fe22Ni
_symmetry_space_group_name_H-M   'P 1'
_cell_length_a   7.54372565
_cell_length_b   7.54372565
_cell_length_c   10.66843912
_cell_angle_alpha   90.00000000
_cell_angle_beta   90.00000000
_cell_angle_gamma   90.00000000
_symmetry_Int_Tables_number   1
_chemical_formula_structural   Cr31Fe22Ni
_chemical_formula_sum   'Cr31 Fe22 Ni1'
_cell_volume   607.11736413
_cell_formula_units_Z   1
loop_
 _symmetry_equiv_pos_site_id
 _symmetry_equiv_pos_as_xyz
  1  'x, y, z'
loop_
 _atom_site_type_symbol
 _atom_site_label
 _atom_site_symmetry_multiplicity
 _atom_site_fract_x
 _atom_site_fract_y
 _atom_site_fract_z
 _atom_site_occupancy
  Fe  Fe0  1  -0.00430346  -0.00485811  0.99228988  1
  Fe  Fe1  1  0.16159732  0.16213266  0.16130324  1
  Cr  Cr2  1  0.99258205  -0.00333408  0.32510220  1
  Cr  Cr3  1  -0.00433537  0.32997075  -0.00400720  1
  Cr  Cr4  1  0.16224635  0.49634469  0.16151502  1
  Cr  Cr5  1  -0.00412959  0.32746897  0.32730190  1
  Fe  Fe6  1  -0.00423355  0.66215010  0.99160728  1
  Cr  Cr7  1  0.16174664  0.82990243  0.15913355  1
  Cr  Cr8  1  0.99451306  0.66078579  0.32777028  1
  Cr  Cr9  1  0.32917267  -0.00379123  -0.00474493  1
  Cr  Cr10  1  0.49523653  0.16287734  0.16041436  1
  Fe  Fe11  1  0.32740283  -0.00399445  0.32818834  1
  Cr  Cr12  1  0.32875725  0.33099512  0.99479067  1
  Cr  Cr13  1  0.49750927  0.49444262  0.16240152  1
  Fe  Fe14  1  0.32949593  0.32670409  0.32843971  1
  Fe  Fe15  1  0.32811675  0.66179592  0.99375336  1
  Cr  Cr16  1  0.49537283  0.82689169  0.16364951  1
  Cr  Cr17  1  0.33031719  0.65929384  0.33221277  1
  Cr  Cr18  1  0.66294391  0.99434465  0.99222503  1
  Fe  Fe19  1  0.82704117  0.16163151  0.15971666  1
  Cr  Cr20  1  0.66116381  0.99387928  0.33022370  1
  Fe  Fe21  1  0.66142815  0.32916007  0.99281096  1
  Cr  Cr22  1  0.82592492  0.49474881  0.16051672  1
  Fe  Fe23  1  0.66131250  0.32747911  0.32881566  1
  Fe  Fe24  1  0.66053552  0.65893058  0.99221413  1
  Cr  Cr25  1  0.82831549  0.82584320  0.15647184  1
  Fe  Fe26  1  0.66210202  0.66015384  0.32979321  1
  Cr  Cr27  1  0.16154632  0.16188348  0.49463648  1
  Cr  Cr28  1  0.99319878  0.99355679  0.66228469  1
  Cr  Cr29  1  0.16129930  0.15959346  0.82681718  1
  Cr  Cr30  1  0.16101612  0.49418616  0.49794341  1
  Fe  Fe31  1  0.99307949  0.32826637  0.66258137  1
  Fe  Fe32  1  0.16175080  0.49682379  0.82950258  1
  Cr  Cr33  1  0.16339389  0.82895833  0.49601539  1
  Cr  Cr34  1  -0.00459228  0.65912828  0.66479437  1
  Ni  Ni35  1  0.16185074  0.82382238  0.83000179  1
  Cr  Cr36  1  0.49538266  0.16301617  0.49682996  1
  Cr  Cr37  1  0.32993312  0.99438704  0.66218495  1
  Fe  Fe38  1  0.49475450  0.16330774  0.82826352  1
  Fe  Fe39  1  0.49471655  0.49435181  0.49511284  1
  Cr  Cr40  1  0.32814458  0.33267200  0.66518502  1
  Fe  Fe41  1  0.49608698  0.49559931  0.82929758  1
  Fe  Fe42  1  0.49453480  0.82697425  0.49458352  1
  Fe  Fe43  1  0.32812479  0.66250701  0.66331863  1
  Cr  Cr44  1  0.49325456  0.82735152  0.82855872  1
  Fe  Fe45  1  0.82854586  0.16229270  0.49598826  1
  Cr  Cr46  1  0.66170607  0.99473595  0.66149376  1
  Cr  Cr47  1  0.82604570  0.16532107  0.82522136  1
  Cr  Cr48  1  0.82637535  0.49175593  0.49481036  1
  Fe  Fe49  1  0.66107924  0.33016532  0.66258938  1
  Fe  Fe50  1  0.82776022  0.49748388  0.82927327  1
  Cr  Cr51  1  0.82851252  0.82650467  0.49459683  1
  Cr  Cr52  1  0.66000069  0.66172169  0.66013603  1
  Fe  Fe53  1  0.83022553  0.82724277  0.82962843  1
" 