1603,Ni30Fe29Cr40_15,-223.301859521851, 180.433217471233,Ni30Fe29Cr40,"# generated using pymatgen
 data_Cr23Fe15Ni16
_symmetry_space_group_name_H-M   'P 1'
_cell_length_a   7.48782589
_cell_length_b   7.48782589
_cell_length_c   10.58938493
_cell_angle_alpha   90.00000000
_cell_angle_beta   90.00000000
_cell_angle_gamma   90.00000000
_symmetry_Int_Tables_number   1
_chemical_formula_structural   Cr23Fe15Ni16
_chemical_formula_sum   'Cr23 Fe15 Ni16'
_cell_volume   593.72072647
_cell_formula_units_Z   1
loop_
 _symmetry_equiv_pos_site_id
 _symmetry_equiv_pos_as_xyz
  1  'x, y, z'
loop_
 _atom_site_type_symbol
 _atom_site_label
 _atom_site_symmetry_multiplicity
 _atom_site_fract_x
 _atom_site_fract_y
 _atom_site_fract_z
 _atom_site_occupancy
  Ni  Ni0  1  -0.00116247  -0.00037609  -0.00102450  1
  Cr  Cr1  1  0.16242177  0.16557700  0.16364174  1
  Fe  Fe2  1  0.99556581  -0.00093498  0.33112502  1
  Fe  Fe3  1  0.99660823  0.33027573  0.99852407  1
  Cr  Cr4  1  0.16304997  0.49800107  0.16522891  1
  Ni  Ni5  1  0.99109508  0.33151673  0.33063565  1
  Cr  Cr6  1  0.99665800  0.66559644  -0.00114390  1
  Ni  Ni7  1  0.16089981  0.83301220  0.16377284  1
  Fe  Fe8  1  0.99544115  0.66696864  0.33189970  1
  Ni  Ni9  1  0.33075830  0.99703713  -0.00036760  1
  Cr  Cr10  1  0.50117153  0.16442339  0.16537107  1
  Cr  Cr11  1  0.32995063  0.99667654  0.33068902  1
  Fe  Fe12  1  0.33303082  0.33156646  0.99809028  1
  Cr  Cr13  1  0.49992567  0.49865314  0.16762511  1
  Cr  Cr14  1  0.33187359  0.33002093  0.33282938  1
  Cr  Cr15  1  0.33309245  0.66867811  0.99691847  1
  Fe  Fe16  1  0.50059337  0.83414008  0.16479232  1
  Cr  Cr17  1  0.32946162  0.66912725  0.33183654  1
  Fe  Fe18  1  0.66680025  0.99668003  0.00039806  1
  Ni  Ni19  1  0.83249976  0.16234957  0.16423548  1
  Ni  Ni20  1  0.66967148  -0.00020348  0.33084391  1
  Cr  Cr21  1  0.66926149  0.33210960  0.99751225  1
  Fe  Fe22  1  0.83281721  0.49789898  0.16751058  1
  Ni  Ni23  1  0.67295035  0.33049981  0.33329613  1
  Cr  Cr24  1  0.66605645  0.66385415  -0.00065681  1
  Ni  Ni25  1  0.83232351  0.83373446  0.16760333  1
  Fe  Fe26  1  0.66925727  0.66508094  0.33128598  1
  Cr  Cr27  1  0.16078828  0.16582593  0.49790568  1
  Fe  Fe28  1  0.99700884  -0.00082006  0.66481315  1
  Cr  Cr29  1  0.16301065  0.16484474  0.83381185  1
  Cr  Cr30  1  0.16328121  0.49889391  0.49917773  1
  Ni  Ni31  1  0.99230120  0.33046494  0.66617399  1
  Cr  Cr32  1  0.16500110  0.49718202  0.83171899  1
  Ni  Ni33  1  0.16139520  0.83193046  0.49939354  1
  Cr  Cr34  1  -0.00122512  0.66469347  0.66476995  1
  Fe  Fe35  1  0.16653318  0.83285212  0.83237471  1
  Cr  Cr36  1  0.50297761  0.16579904  0.49859200  1
  Cr  Cr37  1  0.33076703  0.99579949  0.66399763  1
  Cr  Cr38  1  0.49948017  0.16367118  0.83158227  1
  Cr  Cr39  1  0.50040502  0.49843566  0.49981159  1
  Fe  Fe40  1  0.33097852  0.33379969  0.66588160  1
  Ni  Ni41  1  0.49869663  0.49902996  0.82947492  1
  Cr  Cr42  1  0.50236385  0.83152516  0.49740987  1
  Ni  Ni43  1  0.33259956  0.66809140  0.66767072  1
  Ni  Ni44  1  0.49997300  0.83269169  0.83338575  1
  Ni  Ni45  1  0.83256800  0.16449872  0.49991900  1
  Fe  Fe46  1  0.66791520  -0.00098505  0.66450356  1
  Fe  Fe47  1  0.83190395  0.16625277  0.83136339  1
  Ni  Ni48  1  0.83270894  0.49727672  0.49611392  1
  Fe  Fe49  1  0.66850809  0.33231344  0.66567503  1
  Ni  Ni50  1  0.83181732  0.49746685  0.83213668  1
  Fe  Fe51  1  0.83351069  0.83298116  0.49664584  1
  Cr  Cr52  1  0.66582065  0.66316502  0.66678565  1
  Cr  Cr53  1  0.83191468  0.83543232  0.83151457  1
" 