5424,Ni30Fe29Cr40_19,-222.90478226541, 169.720750375511,Ni30Fe29Cr40,"# generated using pymatgen
 data_Cr23Fe15Ni16
_symmetry_space_group_name_H-M   'P 1'
_cell_length_a   7.50033878
_cell_length_b   7.50033878
_cell_length_c   10.60708083
_cell_angle_alpha   90.00000000
_cell_angle_beta   90.00000000
_cell_angle_gamma   90.00000000
_symmetry_Int_Tables_number   1
_chemical_formula_structural   Cr23Fe15Ni16
_chemical_formula_sum   'Cr23 Fe15 Ni16'
_cell_volume   596.70219994
_cell_formula_units_Z   1
loop_
 _symmetry_equiv_pos_site_id
 _symmetry_equiv_pos_as_xyz
  1  'x, y, z'
loop_
 _atom_site_type_symbol
 _atom_site_label
 _atom_site_symmetry_multiplicity
 _atom_site_fract_x
 _atom_site_fract_y
 _atom_site_fract_z
 _atom_site_occupancy
  Fe  Fe0  1  -0.00080279  0.99630832  -0.00117941  1
  Fe  Fe1  1  0.16522956  0.16226049  0.16488754  1
  Cr  Cr2  1  0.99557011  0.99684206  0.32894997  1
  Cr  Cr3  1  0.00100529  0.33062938  0.00070478  1
  Fe  Fe4  1  0.16345290  0.49871483  0.16730480  1
  Ni  Ni5  1  -0.00061270  0.33358496  0.32986796  1
  Fe  Fe6  1  0.99579594  0.66592614  0.00023871  1
  Ni  Ni7  1  0.16231774  0.82921009  0.16366813  1
  Ni  Ni8  1  0.00091410  0.66189521  0.32852776  1
  Fe  Fe9  1  0.33013970  -0.00023115  0.99770094  1
  Cr  Cr10  1  0.49627309  0.16551846  0.16560559  1
  Fe  Fe11  1  0.32740068  0.99677608  0.33082044  1
  Fe  Fe12  1  0.33363117  0.32850857  0.99601439  1
  Cr  Cr13  1  0.49746914  0.49607949  0.16476596  1
  Fe  Fe14  1  0.32872682  0.33274223  0.33209636  1
  Cr  Cr15  1  0.32820976  0.66398933  0.99724940  1
  Cr  Cr16  1  0.49667408  0.83195239  0.16606119  1
  Ni  Ni17  1  0.32786817  0.66169336  0.33086322  1
  Ni  Ni18  1  0.66480048  -0.00147018  -0.00098232  1
  Cr  Cr19  1  0.83032378  0.16633739  0.16436662  1
  Cr  Cr20  1  0.66499756  -0.00050972  0.33449407  1
  Ni  Ni21  1  0.66402108  0.32953962  0.99754898  1
  Fe  Fe22  1  0.83244714  0.50032410  0.16417985  1
  Fe  Fe23  1  0.66714162  0.33352517  0.33349422  1
  Fe  Fe24  1  0.66482859  0.66376659  -0.00047654  1
  Ni  Ni25  1  0.83411884  0.83000231  0.16103699  1
  Cr  Cr26  1  0.66666934  0.66659308  0.33136305  1
  Cr  Cr27  1  0.16437539  0.16521550  0.49675504  1
  Ni  Ni28  1  -0.00003135  0.99695990  0.66557635  1
  Ni  Ni29  1  0.16716923  0.16120005  0.83328423  1
  Ni  Ni30  1  0.16373415  0.49838211  0.49483500  1
  Cr  Cr31  1  -0.00181341  0.33018182  0.66204227  1
  Cr  Cr32  1  0.16259995  0.49732815  0.83003241  1
  Cr  Cr33  1  0.16239053  0.82859289  0.50064584  1
  Ni  Ni34  1  -0.00180911  0.66577197  0.66315165  1
  Fe  Fe35  1  0.16358324  0.83322943  0.83029987  1
  Ni  Ni36  1  0.49722761  0.16825982  0.49599514  1
  Ni  Ni37  1  0.32981221  -0.00039210  0.66713989  1
  Fe  Fe38  1  0.49850635  0.16439231  0.83310922  1
  Fe  Fe39  1  0.49562798  0.49615426  0.49466331  1
  Cr  Cr40  1  0.33228130  0.33058673  0.66776360  1
  Ni  Ni41  1  0.49761046  0.49560744  0.83437748  1
  Cr  Cr42  1  0.49330999  0.83267495  0.49505381  1
  Cr  Cr43  1  0.33076811  0.66294185  0.66476279  1
  Cr  Cr44  1  0.49861552  0.83132232  0.83239859  1
  Ni  Ni45  1  0.83080662  0.16632146  0.49657130  1
  Cr  Cr46  1  0.66492699  -0.00065869  0.65930532  1
  Cr  Cr47  1  0.83341628  0.16333495  0.83086311  1
  Fe  Fe48  1  0.83570685  0.49839581  0.49525751  1
  Cr  Cr49  1  0.66333742  0.33150503  0.66190256  1
  Cr  Cr50  1  0.82886371  0.49854043  0.83313408  1
  Ni  Ni51  1  0.83373039  0.83021523  0.49885007  1
  Cr  Cr52  1  0.66387107  0.66256857  0.66182348  1
  Cr  Cr53  1  0.83292854  0.83101642  0.83139063  1
" 