1243,Ni30Fe9Cr59_3,-214.966306306551, 147.353871331835,Ni30Fe9Cr59,"# generated using pymatgen
 data_Cr33Fe5Ni16
_symmetry_space_group_name_H-M   'P 1'
_cell_length_a   7.54537829
_cell_length_b   7.54537829
_cell_length_c   10.67077631
_cell_angle_alpha   90.00000000
_cell_angle_beta   90.00000000
_cell_angle_gamma   90.00000000
_symmetry_Int_Tables_number   1
_chemical_formula_structural   Cr33Fe5Ni16
_chemical_formula_sum   'Cr33 Fe5 Ni16'
_cell_volume   607.51646466
_cell_formula_units_Z   1
loop_
 _symmetry_equiv_pos_site_id
 _symmetry_equiv_pos_as_xyz
  1  'x, y, z'
loop_
 _atom_site_type_symbol
 _atom_site_label
 _atom_site_symmetry_multiplicity
 _atom_site_fract_x
 _atom_site_fract_y
 _atom_site_fract_z
 _atom_site_occupancy
  Cr  Cr0  1  0.99465043  -0.00423881  -0.00472507  1
  Fe  Fe1  1  0.15842946  0.16298172  0.16088487  1
  Ni  Ni2  1  0.99151393  0.99442665  0.32642463  1
  Ni  Ni3  1  -0.00308741  0.32697560  -0.00034060  1
  Ni  Ni4  1  0.15793190  0.49131956  0.16385602  1
  Fe  Fe5  1  0.99251225  0.32593839  0.32542310  1
  Cr  Cr6  1  0.99180990  0.65915265  -0.00080545  1
  Cr  Cr7  1  0.15946151  0.82650566  0.16463919  1
  Ni  Ni8  1  0.99391443  0.66046480  0.32401351  1
  Cr  Cr9  1  0.32649949  -0.00357521  0.99263668  1
  Cr  Cr10  1  0.49702934  0.16292479  0.15958912  1
  Cr  Cr11  1  0.32859038  -0.00345041  0.32809591  1
  Ni  Ni12  1  0.32361869  0.33010747  0.99458171  1
  Cr  Cr13  1  0.49299090  0.49284487  0.15959656  1
  Cr  Cr14  1  0.32346347  0.32895052  0.32741211  1
  Cr  Cr15  1  0.32710745  0.66160030  -0.00468839  1
  Cr  Cr16  1  0.49595282  0.82955860  0.16467012  1
  Fe  Fe17  1  0.32759882  0.66256466  0.32773875  1
  Cr  Cr18  1  0.66349073  0.99130212  -0.00161949  1
  Ni  Ni19  1  0.83113087  0.16166461  0.16351798  1
  Ni  Ni20  1  0.66717026  0.99412989  0.32805676  1
  Fe  Fe21  1  0.66506943  0.32904359  -0.00291120  1
  Ni  Ni22  1  0.83221427  0.49177707  0.16163737  1
  Cr  Cr23  1  0.66401523  0.32726135  0.32818178  1
  Cr  Cr24  1  0.66305734  0.66163992  0.99440791  1
  Ni  Ni25  1  0.83062875  0.82967923  0.16518554  1
  Cr  Cr26  1  0.66473409  0.66211107  0.32759441  1
  Cr  Cr27  1  0.15727185  0.15932832  0.49414956  1
  Ni  Ni28  1  0.99387806  -0.00314133  0.66138956  1
  Ni  Ni29  1  0.15938125  0.16440411  0.83063119  1
  Cr  Cr30  1  0.16017130  0.49810365  0.49101760  1
  Cr  Cr31  1  -0.00466733  0.32526471  0.65897810  1
  Cr  Cr32  1  0.16113294  0.49405781  0.82895472  1
  Cr  Cr33  1  0.16091662  0.82687916  0.49420500  1
  Cr  Cr34  1  0.99458499  0.66075281  0.66278811  1
  Cr  Cr35  1  0.16055394  0.82943215  0.82533480  1
  Cr  Cr36  1  0.49878059  0.15975916  0.49116192  1
  Cr  Cr37  1  0.32767074  -0.00418199  0.66398864  1
  Cr  Cr38  1  0.49601514  0.16534073  0.83371393  1
  Cr  Cr39  1  0.49304396  0.49751970  0.49571581  1
  Cr  Cr40  1  0.32745499  0.32874470  0.66203789  1
  Ni  Ni41  1  0.49324438  0.49691670  0.82864020  1
  Ni  Ni42  1  0.49509265  0.82691585  0.49386962  1
  Ni  Ni43  1  0.33278443  0.66253249  0.66069159  1
  Ni  Ni44  1  0.49485375  0.82488027  0.82527227  1
  Ni  Ni45  1  0.83108217  0.15835819  0.49159298  1
  Cr  Cr46  1  0.66120744  -0.00509232  0.65855879  1
  Cr  Cr47  1  0.83016946  0.16221340  0.82812406  1
  Cr  Cr48  1  0.82984050  0.49350521  0.49438599  1
  Cr  Cr49  1  0.66141065  0.32974922  0.65934584  1
  Cr  Cr50  1  0.82575571  0.49221623  0.82920634  1
  Cr  Cr51  1  0.83016503  0.82959865  0.49471250  1
  Fe  Fe52  1  0.65869017  0.66292710  0.66195150  1
  Cr  Cr53  1  0.82772134  0.82906012  0.82623314  1
" 