1529,Ni30Fe44Cr24_6,-228.875638510636, 185.201332383883,Ni30Fe44Cr24,"# generated using pymatgen
 data_Cr7(Fe3Ni2)4
_symmetry_space_group_name_H-M   'P 1'
_cell_length_a   7.45547800
_cell_length_b   7.45547800
_cell_length_c   10.54363810
_cell_angle_alpha   90.00000000
_cell_angle_beta   90.00000000
_cell_angle_gamma   90.00000000
_symmetry_Int_Tables_number   1
_chemical_formula_structural   Cr7(Fe3Ni2)4
_chemical_formula_sum   'Cr14 Fe24 Ni16'
_cell_volume   586.05918498
_cell_formula_units_Z   2
loop_
 _symmetry_equiv_pos_site_id
 _symmetry_equiv_pos_as_xyz
  1  'x, y, z'
loop_
 _atom_site_type_symbol
 _atom_site_label
 _atom_site_symmetry_multiplicity
 _atom_site_fract_x
 _atom_site_fract_y
 _atom_site_fract_z
 _atom_site_occupancy
  Fe  Fe0  1  1.00055641  0.00276841  0.99906221  1
  Cr  Cr1  1  0.16766314  0.16758816  0.16822716  1
  Fe  Fe2  1  1.00074622  1.00004780  0.33609097  1
  Fe  Fe3  1  0.99858757  0.33085451  0.99900508  1
  Cr  Cr4  1  0.16882760  0.50121593  0.16821639  1
  Fe  Fe5  1  0.00110240  0.33351358  0.33514575  1
  Cr  Cr6  1  0.00171750  0.66747445  0.99977879  1
  Cr  Cr7  1  0.16886886  0.83352294  0.16770350  1
  Ni  Ni8  1  0.99865181  0.66857824  0.33567535  1
  Ni  Ni9  1  0.33562420  0.99945418  0.99901491  1
  Fe  Fe10  1  0.50196711  0.16597112  0.16806438  1
  Ni  Ni11  1  0.33518653  0.00084670  0.33517986  1
  Cr  Cr12  1  0.33411391  0.33362942  0.00239957  1
  Fe  Fe13  1  0.49965861  0.50149055  0.16869526  1
  Ni  Ni14  1  0.33557504  0.33421075  0.33387920  1
  Ni  Ni15  1  0.33520134  0.66986994  0.00124680  1
  Ni  Ni16  1  0.50174787  0.83533722  0.16705541  1
  Ni  Ni17  1  0.33562160  0.66726965  0.33365112  1
  Ni  Ni18  1  0.66788160  0.00254557  0.00300906  1
  Fe  Fe19  1  0.83238910  0.16560071  0.16654796  1
  Fe  Fe20  1  0.66680371  0.99887873  0.33339142  1
  Fe  Fe21  1  0.66890211  0.33170629  0.00108491  1
  Cr  Cr22  1  0.83427531  0.50021953  0.16766271  1
  Fe  Fe23  1  0.66649907  0.33462754  0.33403984  1
  Cr  Cr24  1  0.66585674  0.66870959  0.00132709  1
  Fe  Fe25  1  0.83275071  0.83646103  0.16894704  1
  Fe  Fe26  1  0.66572764  0.66882057  0.33486165  1
  Fe  Fe27  1  0.16710069  0.16506577  0.50136266  1
  Ni  Ni28  1  0.00211130  0.00199637  0.66697766  1
  Ni  Ni29  1  0.16520499  0.16591827  0.83272780  1
  Cr  Cr30  1  0.16793059  0.50043620  0.49954668  1
  Fe  Fe31  1  0.00090635  0.33162140  0.66817910  1
  Cr  Cr32  1  0.16685775  0.50081427  0.83456625  1
  Fe  Fe33  1  0.16800043  0.83539717  0.50062487  1
  Fe  Fe34  1  0.00111539  0.66896330  0.66624236  1
  Fe  Fe35  1  0.16983416  0.83713165  0.83346561  1
  Cr  Cr36  1  0.49892152  0.16715673  0.50064529  1
  Ni  Ni37  1  0.33098470  0.99988266  0.66813193  1
  Cr  Cr38  1  0.50052512  0.16534914  0.83446155  1
  Fe  Fe39  1  0.50141046  0.50285861  0.50105175  1
  Ni  Ni40  1  0.33320481  0.33396754  0.66638077  1
  Cr  Cr41  1  0.50099295  0.50214501  0.83236844  1
  Ni  Ni42  1  0.50114415  0.83278455  0.50093558  1
  Ni  Ni43  1  0.33503727  0.66847968  0.66742771  1
  Fe  Fe44  1  0.49738984  0.83512419  0.83453840  1
  Fe  Fe45  1  0.83575597  0.16690485  0.50092462  1
  Cr  Cr46  1  0.66825665  1.00006828  0.66707380  1
  Ni  Ni47  1  0.83647431  0.16866777  0.83566508  1
  Fe  Fe48  1  0.83253366  0.50196366  0.50029480  1
  Fe  Fe49  1  0.66853501  0.33527186  0.66720252  1
  Fe  Fe50  1  0.83442339  0.49709887  0.83316046  1
  Ni  Ni51  1  0.83424551  0.83311469  0.49862164  1
  Fe  Fe52  1  0.66642673  0.66720977  0.66582779  1
  Cr  Cr53  1  0.83407191  0.83529399  0.83453080  1
" 