8408,Ni30Fe44Cr24_19,-229.024341948455, 187.968706598406,Ni30Fe44Cr24,"# generated using pymatgen
 data_Cr7(Fe3Ni2)4
_symmetry_space_group_name_H-M   'P 1'
_cell_length_a   7.46052303
_cell_length_b   7.46052303
_cell_length_c   10.55077286
_cell_angle_alpha   90.00000000
_cell_angle_beta   90.00000000
_cell_angle_gamma   90.00000000
_symmetry_Int_Tables_number   1
_chemical_formula_structural   Cr7(Fe3Ni2)4
_chemical_formula_sum   'Cr14 Fe24 Ni16'
_cell_volume   587.24972852
_cell_formula_units_Z   2
loop_
 _symmetry_equiv_pos_site_id
 _symmetry_equiv_pos_as_xyz
  1  'x, y, z'
loop_
 _atom_site_type_symbol
 _atom_site_label
 _atom_site_symmetry_multiplicity
 _atom_site_fract_x
 _atom_site_fract_y
 _atom_site_fract_z
 _atom_site_occupancy
  Ni  Ni0  1  0.00183321  0.00158751  0.99914766  1
  Cr  Cr1  1  0.17041346  0.16894600  0.16749219  1
  Cr  Cr2  1  1.00018586  0.00263842  0.33314465  1
  Cr  Cr3  1  0.00096513  0.33262325  0.99785357  1
  Ni  Ni4  1  0.16827615  0.50330195  0.16620989  1
  Cr  Cr5  1  0.00077442  0.33484617  0.33572650  1
  Fe  Fe6  1  0.00098179  0.66939223  0.99712482  1
  Ni  Ni7  1  0.16756652  0.83037202  0.16590867  1
  Fe  Fe8  1  0.00154470  0.66759397  0.33630374  1
  Cr  Cr9  1  0.33227215  0.99849539  0.00074654  1
  Ni  Ni10  1  0.50230810  0.16955144  0.16721489  1
  Cr  Cr11  1  0.33378131  0.99724013  0.33339588  1
  Fe  Fe12  1  0.33585074  0.33486801  0.99907549  1
  Fe  Fe13  1  0.49817788  0.50293191  0.16578988  1
  Fe  Fe14  1  0.33612440  0.33719576  0.33407701  1
  Fe  Fe15  1  0.33261926  0.66633166  0.99983275  1
  Ni  Ni16  1  0.50025917  0.83369300  0.16932055  1
  Fe  Fe17  1  0.33158278  0.66478722  0.33367663  1
  Cr  Cr18  1  0.66826622  0.99823610  0.00185883  1
  Fe  Fe19  1  0.83258416  0.16669088  0.16665342  1
  Fe  Fe20  1  0.66666179  1.00011180  0.33312124  1
  Fe  Fe21  1  0.66609317  0.33341275  0.99908935  1
  Cr  Cr22  1  0.83358753  0.50168391  0.16661320  1
  Fe  Fe23  1  0.66555335  0.33372031  0.33469228  1
  Ni  Ni24  1  0.66336996  0.66435418  0.99851996  1
  Cr  Cr25  1  0.83489279  0.83091204  0.16611611  1
  Ni  Ni26  1  0.66279858  0.66553595  0.33568333  1
  Fe  Fe27  1  0.16649723  0.16854107  0.50300739  1
  Ni  Ni28  1  0.00121010  0.00181402  0.66742336  1
  Ni  Ni29  1  0.16978268  0.16675791  0.83100028  1
  Ni  Ni30  1  0.16599376  0.50151472  0.50055046  1
  Cr  Cr31  1  0.99982702  0.33550019  0.66759612  1
  Fe  Fe32  1  0.16736090  0.50353194  0.83401045  1
  Fe  Fe33  1  0.16442247  0.83242778  0.50231092  1
  Ni  Ni34  1  1.00035151  0.66820416  0.66723199  1
  Ni  Ni35  1  0.16260031  0.83656362  0.83311860  1
  Cr  Cr36  1  0.49899326  0.16572934  0.50481271  1
  Fe  Fe37  1  0.32992613  0.99964283  0.66750954  1
  Fe  Fe38  1  0.50111951  0.16836351  0.83212591  1
  Fe  Fe39  1  0.50017869  0.49913724  0.50010892  1
  Fe  Fe40  1  0.33262343  0.33526192  0.66869875  1
  Ni  Ni41  1  0.50216512  0.49569982  0.83481874  1
  Fe  Fe42  1  0.50155540  0.83075467  0.49918471  1
  Cr  Cr43  1  0.33455377  0.66656407  0.66683844  1
  Cr  Cr44  1  0.50075675  0.83439355  0.83234729  1
  Fe  Fe45  1  0.83322127  0.16791522  0.50198518  1
  Fe  Fe46  1  0.67177083  1.00000688  0.66769506  1
  Fe  Fe47  1  0.83453785  0.16467051  0.83280654  1
  Ni  Ni48  1  0.83396053  0.50283926  0.49981210  1
  Fe  Fe49  1  0.66859232  0.33428393  0.66842049  1
  Ni  Ni50  1  0.83226167  0.50228110  0.83439811  1
  Fe  Fe51  1  0.83476511  0.83287936  0.50118908  1
  Cr  Cr52  1  0.66811828  0.66512619  0.66704735  1
  Ni  Ni53  1  0.83714230  0.83215392  0.83317525  1
" 