6807,Ni30Fe44Cr25_16,-228.388209546056, 191.009046657289,Ni30Fe44Cr25,"# generated using pymatgen
 data_Cr15Fe23Ni16
_symmetry_space_group_name_H-M   'P 1'
_cell_length_a   7.45597608
_cell_length_b   7.45597608
_cell_length_c   10.54434249
_cell_angle_alpha   90.00000000
_cell_angle_beta   90.00000000
_cell_angle_gamma   90.00000000
_symmetry_Int_Tables_number   1
_chemical_formula_structural   Cr15Fe23Ni16
_chemical_formula_sum   'Cr15 Fe23 Ni16'
_cell_volume   586.17665177
_cell_formula_units_Z   1
loop_
 _symmetry_equiv_pos_site_id
 _symmetry_equiv_pos_as_xyz
  1  'x, y, z'
loop_
 _atom_site_type_symbol
 _atom_site_label
 _atom_site_symmetry_multiplicity
 _atom_site_fract_x
 _atom_site_fract_y
 _atom_site_fract_z
 _atom_site_occupancy
  Ni  Ni0  1  0.00082475  0.99889333  0.99920649  1
  Ni  Ni1  1  0.16614746  0.16621561  0.16982441  1
  Ni  Ni2  1  0.00136528  0.99985768  0.33406628  1
  Fe  Fe3  1  0.99902094  0.33315751  0.99978654  1
  Cr  Cr4  1  0.16931194  0.49881689  0.16871479  1
  Fe  Fe5  1  0.99929565  0.33257478  0.33431644  1
  Cr  Cr6  1  0.00300824  0.66911911  1.00011688  1
  Ni  Ni7  1  0.16775279  0.83568970  0.16864675  1
  Cr  Cr8  1  0.99963443  0.66903145  0.33548902  1
  Cr  Cr9  1  0.33238477  0.99856019  0.00406032  1
  Fe  Fe10  1  0.50100359  0.16673847  0.16771845  1
  Fe  Fe11  1  0.33567484  0.99925326  0.33286199  1
  Cr  Cr12  1  0.33703982  0.33529352  0.99954675  1
  Ni  Ni13  1  0.50162255  0.50415569  0.16593351  1
  Ni  Ni14  1  0.33663494  0.33302591  0.33361567  1
  Fe  Fe15  1  0.33683572  0.66904590  1.00063445  1
  Fe  Fe16  1  0.50113041  0.83410269  0.16837716  1
  Ni  Ni17  1  0.33484482  0.66871924  0.33227337  1
  Ni  Ni18  1  0.66757102  0.00208519  0.99769369  1
  Cr  Cr19  1  0.83581959  0.16526802  0.16415570  1
  Ni  Ni20  1  0.66726852  0.00102587  0.33707129  1
  Ni  Ni21  1  0.66801195  0.33615642  1.00067767  1
  Fe  Fe22  1  0.83304841  0.50144498  0.16571327  1
  Cr  Cr23  1  0.66747807  0.33435611  0.33324505  1
  Fe  Fe24  1  0.66603504  0.66758962  1.00020257  1
  Cr  Cr25  1  0.83026557  0.83579073  0.16681888  1
  Ni  Ni26  1  0.66624412  0.66734827  0.33409880  1
  Cr  Cr27  1  0.16602290  0.16761505  0.49851640  1
  Ni  Ni28  1  0.99888272  0.99775794  0.66845230  1
  Cr  Cr29  1  0.16369285  0.16806320  0.83398607  1
  Cr  Cr30  1  0.16879166  0.50110073  0.50200418  1
  Fe  Fe31  1  0.99928675  0.33435206  0.66804400  1
  Fe  Fe32  1  0.16783321  0.50283361  0.83222658  1
  Fe  Fe33  1  0.16744737  0.83372370  0.50054725  1
  Fe  Fe34  1  0.99966767  0.66843944  0.66874543  1
  Fe  Fe35  1  0.16752808  0.83302413  0.83369667  1
  Fe  Fe36  1  0.50155506  0.16638088  0.49994867  1
  Cr  Cr37  1  0.33359501  0.99880196  0.66544820  1
  Cr  Cr38  1  0.50209499  0.16466987  0.83253156  1
  Cr  Cr39  1  0.49884543  0.50533581  0.50245300  1
  Fe  Fe40  1  0.33270845  0.33471631  0.66830031  1
  Fe  Fe41  1  0.50236904  0.50320717  0.83409459  1
  Fe  Fe42  1  0.50119211  0.83404780  0.50037355  1
  Ni  Ni43  1  0.33267989  0.66831532  0.67096858  1
  Ni  Ni44  1  0.50323298  0.83079704  0.83471642  1
  Ni  Ni45  1  0.83537413  0.16339208  0.50260758  1
  Fe  Fe46  1  0.66892254  0.99680355  0.66670465  1
  Fe  Fe47  1  0.83326904  0.16646881  0.83466194  1
  Fe  Fe48  1  0.83432385  0.50036830  0.50213732  1
  Cr  Cr49  1  0.66743741  0.33343795  0.66668790  1
  Ni  Ni50  1  0.83376614  0.50181922  0.83449760  1
  Fe  Fe51  1  0.83332818  0.83536062  0.50058468  1
  Fe  Fe52  1  0.66822598  0.67040569  0.66818634  1
  Fe  Fe53  1  0.83274416  0.83553843  0.83410490  1
" 