301,Ni30Fe29Cr40_16,-223.188061884292, 178.812163317262,Ni30Fe29Cr40,"# generated using pymatgen
 data_Cr23Fe15Ni16
_symmetry_space_group_name_H-M   'P 1'
_cell_length_a   7.49095305
_cell_length_b   7.49095305
_cell_length_c   10.59380739
_cell_angle_alpha   90.00000000
_cell_angle_beta   90.00000000
_cell_angle_gamma   90.00000000
_symmetry_Int_Tables_number   1
_chemical_formula_structural   Cr23Fe15Ni16
_chemical_formula_sum   'Cr23 Fe15 Ni16'
_cell_volume   594.46490787
_cell_formula_units_Z   1
loop_
 _symmetry_equiv_pos_site_id
 _symmetry_equiv_pos_as_xyz
  1  'x, y, z'
loop_
 _atom_site_type_symbol
 _atom_site_label
 _atom_site_symmetry_multiplicity
 _atom_site_fract_x
 _atom_site_fract_y
 _atom_site_fract_z
 _atom_site_occupancy
  Cr  Cr0  1  0.00011764  0.00055028  0.00023741  1
  Cr  Cr1  1  0.16461332  0.16761146  0.16416513  1
  Fe  Fe2  1  0.99574957  0.00231062  0.33151095  1
  Fe  Fe3  1  -0.00129822  0.33503719  0.99786043  1
  Ni  Ni4  1  0.16556732  0.49632384  0.16768125  1
  Ni  Ni5  1  0.99442704  0.33215358  0.33167496  1
  Fe  Fe6  1  -0.00072341  0.66031043  0.99674205  1
  Cr  Cr7  1  0.16529293  0.83042385  0.16482594  1
  Cr  Cr8  1  -0.00080627  0.66402416  0.33164212  1
  Ni  Ni9  1  0.33197785  -0.00136614  0.99435503  1
  Cr  Cr10  1  0.50092504  0.16818350  0.16443819  1
  Cr  Cr11  1  0.33414633  0.99620976  0.33113965  1
  Cr  Cr12  1  0.33369795  0.33188878  0.99640922  1
  Fe  Fe13  1  0.49930213  0.49708270  0.16558164  1
  Fe  Fe14  1  0.33160087  0.33215847  0.33118962  1
  Cr  Cr15  1  0.33217175  0.66475160  -0.00077682  1
  Cr  Cr16  1  0.50022774  0.82942012  0.16490173  1
  Fe  Fe17  1  0.33380575  0.66089904  0.33086514  1
  Cr  Cr18  1  0.66083807  0.00037149  0.99817791  1
  Ni  Ni19  1  0.83125277  0.16808043  0.16776147  1
  Fe  Fe20  1  0.66797434  0.00121996  0.33231333  1
  Ni  Ni21  1  0.66641928  0.33396250  0.99708068  1
  Cr  Cr22  1  0.82978487  0.49694184  0.16151915  1
  Ni  Ni23  1  0.66664423  0.33089481  0.33222258  1
  Ni  Ni24  1  0.66335151  0.66110894  0.99561046  1
  Cr  Cr25  1  0.83050873  0.83200079  0.16253274  1
  Fe  Fe26  1  0.66535996  0.66281928  0.33236682  1
  Cr  Cr27  1  0.16621207  0.16582095  0.50025249  1
  Fe  Fe28  1  0.99704154  -0.00078771  0.66612986  1
  Fe  Fe29  1  0.16810972  0.16700091  0.83045289  1
  Cr  Cr30  1  0.16656012  0.49672465  0.49812075  1
  Cr  Cr31  1  0.99743495  0.33255518  0.66641752  1
  Ni  Ni32  1  0.16719887  0.49701612  0.83027267  1
  Cr  Cr33  1  0.16630015  0.83207882  0.50037787  1
  Cr  Cr34  1  0.99615342  0.66233776  0.66730053  1
  Cr  Cr35  1  0.16627119  0.83263280  0.83039618  1
  Fe  Fe36  1  0.50074467  0.16452031  0.49902085  1
  Fe  Fe37  1  0.33586170  -0.00094009  0.66645898  1
  Ni  Ni38  1  0.49594365  0.16561266  0.83022339  1
  Cr  Cr39  1  0.49885958  0.49697424  0.49695401  1
  Ni  Ni40  1  0.33320655  0.33085642  0.66659995  1
  Ni  Ni41  1  0.49893653  0.49854188  0.83139637  1
  Fe  Fe42  1  0.49902719  0.83031551  0.50020767  1
  Ni  Ni43  1  0.33482695  0.66521050  0.66532618  1
  Ni  Ni44  1  0.49706332  0.83124745  0.82908731  1
  Fe  Fe45  1  0.83079536  0.16819590  0.49651662  1
  Fe  Fe46  1  0.66123309  0.99812047  0.66606711  1
  Cr  Cr47  1  0.83046868  0.16623726  0.83371143  1
  Ni  Ni48  1  0.82874820  0.49842671  0.49809329  1
  Cr  Cr49  1  0.66459590  0.33332342  0.66641312  1
  Ni  Ni50  1  0.83024401  0.49835952  0.83428671  1
  Cr  Cr51  1  0.82917979  0.83330886  0.50006645  1
  Ni  Ni52  1  0.66182288  0.66620221  0.66606815  1
  Cr  Cr53  1  0.82806731  0.82857051  0.83358938  1
" 