3536,Ni30Fe44Cr24_2,-229.046761794047, 191.756233691386,Ni30Fe44Cr24,"# generated using pymatgen
 data_Cr7(Fe3Ni2)4
_symmetry_space_group_name_H-M   'P 1'
_cell_length_a   7.45381916
_cell_length_b   7.45381916
_cell_length_c   10.54129214
_cell_angle_alpha   90.00000000
_cell_angle_beta   90.00000000
_cell_angle_gamma   90.00000000
_symmetry_Int_Tables_number   1
_chemical_formula_structural   Cr7(Fe3Ni2)4
_chemical_formula_sum   'Cr14 Fe24 Ni16'
_cell_volume   585.66807767
_cell_formula_units_Z   2
loop_
 _symmetry_equiv_pos_site_id
 _symmetry_equiv_pos_as_xyz
  1  'x, y, z'
loop_
 _atom_site_type_symbol
 _atom_site_label
 _atom_site_symmetry_multiplicity
 _atom_site_fract_x
 _atom_site_fract_y
 _atom_site_fract_z
 _atom_site_occupancy
  Fe  Fe0  1  1.00067806  0.99994519  0.99998411  1
  Cr  Cr1  1  0.16549829  0.16890214  0.16713764  1
  Fe  Fe2  1  0.99685368  1.00016024  0.33534645  1
  Cr  Cr3  1  1.00076323  0.33488114  0.99991172  1
  Ni  Ni4  1  0.16880036  0.50190532  0.16797298  1
  Ni  Ni5  1  0.99844635  0.33582215  0.33467667  1
  Ni  Ni6  1  0.00346836  0.66849123  0.99986627  1
  Cr  Cr7  1  0.16425083  0.83257785  0.16591873  1
  Ni  Ni8  1  0.99979229  0.66725997  0.33557891  1
  Fe  Fe9  1  0.33220261  0.00220641  0.99796744  1
  Cr  Cr10  1  0.50187214  0.17077364  0.16628450  1
  Cr  Cr11  1  0.33573928  0.99904209  0.33717059  1
  Fe  Fe12  1  0.33628540  0.33644491  0.99906719  1
  Ni  Ni13  1  0.49967027  0.50052085  0.16715833  1
  Cr  Cr14  1  0.33391413  0.33748059  0.33375556  1
  Fe  Fe15  1  0.33257197  0.66400320  1.00011743  1
  Cr  Cr16  1  0.50259019  0.83127084  0.16774326  1
  Fe  Fe17  1  0.33308175  0.66503119  0.33539416  1
  Cr  Cr18  1  0.66837567  0.00345667  0.00152418  1
  Fe  Fe19  1  0.83413024  0.16707881  0.16948578  1
  Fe  Fe20  1  0.67205552  1.00073659  0.33563454  1
  Ni  Ni21  1  0.66533973  0.33369754  0.99976857  1
  Cr  Cr22  1  0.83396643  0.50195082  0.16905552  1
  Fe  Fe23  1  0.66960684  0.33451702  0.33492605  1
  Cr  Cr24  1  0.66758273  0.66494446  0.00192666  1
  Ni  Ni25  1  0.83605870  0.83480202  0.16951800  1
  Fe  Fe26  1  0.66848120  0.66740616  0.33511191  1
  Cr  Cr27  1  0.16696557  0.16932759  0.50125306  1
  Cr  Cr28  1  0.00102201  0.00162294  0.66809959  1
  Ni  Ni29  1  0.16980183  0.16817227  0.83415574  1
  Fe  Fe30  1  0.16534585  0.50256499  0.50124063  1
  Ni  Ni31  1  0.99998151  0.33615339  0.66805258  1
  Fe  Fe32  1  0.16923553  0.50086235  0.83337053  1
  Fe  Fe33  1  0.16676918  0.83188029  0.50110066  1
  Fe  Fe34  1  0.00293572  0.66544180  0.66658763  1
  Fe  Fe35  1  0.16973677  0.83396004  0.83479256  1
  Fe  Fe36  1  0.50407230  0.16689719  0.50309440  1
  Ni  Ni37  1  0.33658049  1.00063785  0.66824288  1
  Ni  Ni38  1  0.49815723  0.17086368  0.83262092  1
  Fe  Fe39  1  0.50190846  0.50142384  0.50215144  1
  Ni  Ni40  1  0.33503442  0.33476115  0.66908364  1
  Ni  Ni41  1  0.50023914  0.49777187  0.83431483  1
  Fe  Fe42  1  0.50193853  0.83434158  0.50222651  1
  Ni  Ni43  1  0.33462964  0.66726284  0.66624082  1
  Cr  Cr44  1  0.49917491  0.83396192  0.83273860  1
  Ni  Ni45  1  0.83297725  0.16766603  0.49949598  1
  Fe  Fe46  1  0.66558416  0.00291082  0.66594273  1
  Fe  Fe47  1  0.83276407  0.17056754  0.83305501  1
  Fe  Fe48  1  0.83537690  0.50029592  0.50046706  1
  Fe  Fe49  1  0.66632431  0.33376883  0.66845110  1
  Fe  Fe50  1  0.83368654  0.49834004  0.83342027  1
  Ni  Ni51  1  0.83291469  0.83323360  0.49927876  1
  Fe  Fe52  1  0.66653221  0.66591896  0.66638031  1
  Cr  Cr53  1  0.83615195  0.83199913  0.83405611  1
" 