6841,Ni30Fe63Cr6_19,-234.436391042353, 200.816051800395,Ni30Fe63Cr6,"# generated using pymatgen
 data_Cr2Fe17Ni8
_symmetry_space_group_name_H-M   'P 1'
_cell_length_a   7.41174995
_cell_length_b   7.41174995
_cell_length_c   10.48179731
_cell_angle_alpha   90.00000000
_cell_angle_beta   90.00000000
_cell_angle_gamma   90.00000000
_symmetry_Int_Tables_number   1
_chemical_formula_structural   Cr2Fe17Ni8
_chemical_formula_sum   'Cr4 Fe34 Ni16'
_cell_volume   575.80744496
_cell_formula_units_Z   2
loop_
 _symmetry_equiv_pos_site_id
 _symmetry_equiv_pos_as_xyz
  1  'x, y, z'
loop_
 _atom_site_type_symbol
 _atom_site_label
 _atom_site_symmetry_multiplicity
 _atom_site_fract_x
 _atom_site_fract_y
 _atom_site_fract_z
 _atom_site_occupancy
  Fe  Fe0  1  0.00460601  1.00347695  0.00442575  1
  Ni  Ni1  1  0.17101543  0.16977999  0.17077801  1
  Fe  Fe2  1  0.00459532  0.00413360  0.33745146  1
  Ni  Ni3  1  0.00406107  0.33889911  0.00418620  1
  Fe  Fe4  1  0.17052672  0.50205651  0.17044497  1
  Ni  Ni5  1  0.00492655  0.33790483  0.33793453  1
  Fe  Fe6  1  0.00402524  0.67038305  1.00284189  1
  Ni  Ni7  1  0.16814491  0.83567412  0.16968954  1
  Fe  Fe8  1  1.00371020  0.66958124  0.33779844  1
  Ni  Ni9  1  0.33778344  1.00236384  0.00493003  1
  Ni  Ni10  1  0.50380409  0.17224880  0.16986184  1
  Fe  Fe11  1  0.33580511  0.00439153  0.33422303  1
  Fe  Fe12  1  0.33804615  0.33673047  0.00388495  1
  Ni  Ni13  1  0.50490066  0.50307896  0.17020908  1
  Fe  Fe14  1  0.33661602  0.33894863  0.33690847  1
  Fe  Fe15  1  0.33689901  0.66892954  0.00463556  1
  Fe  Fe16  1  0.50235005  0.83808707  0.17035725  1
  Fe  Fe17  1  0.33697278  0.66829098  0.33654690  1
  Fe  Fe18  1  0.66911498  0.00445843  1.00165881  1
  Cr  Cr19  1  0.83593517  0.17052930  0.16929841  1
  Fe  Fe20  1  0.67108946  1.00345949  0.33778758  1
  Ni  Ni21  1  0.67014315  0.33829438  1.00188947  1
  Fe  Fe22  1  0.83719303  0.50362387  0.17034440  1
  Ni  Ni23  1  0.67079023  0.33896360  0.33775660  1
  Fe  Fe24  1  0.66997993  0.66972895  1.00372010  1
  Fe  Fe25  1  0.83639713  0.83532362  0.17051758  1
  Fe  Fe26  1  0.67025121  0.66854054  0.33738467  1
  Fe  Fe27  1  0.16975895  0.17253071  0.50350747  1
  Fe  Fe28  1  1.00234269  1.00240957  0.66897874  1
  Cr  Cr29  1  0.17119370  0.17139789  0.83709468  1
  Ni  Ni30  1  0.17028616  0.50523622  0.50403662  1
  Fe  Fe31  1  1.00306614  0.33933343  0.66954804  1
  Ni  Ni32  1  0.16974761  0.50626138  0.83727647  1
  Fe  Fe33  1  0.17151716  0.83619066  0.50282601  1
  Ni  Ni34  1  0.00493806  0.67017015  0.67043529  1
  Fe  Fe35  1  0.17141172  0.83588879  0.83831874  1
  Cr  Cr36  1  0.50466134  0.17152072  0.50341155  1
  Fe  Fe37  1  0.33798462  1.00184453  0.67148015  1
  Ni  Ni38  1  0.50573537  0.17005420  0.83732184  1
  Ni  Ni39  1  0.50238950  0.50404791  0.50468555  1
  Ni  Ni40  1  0.33612255  0.33773156  0.67068330  1
  Fe  Fe41  1  0.50131782  0.50161447  0.83765603  1
  Fe  Fe42  1  0.50202255  0.83584205  0.50278497  1
  Fe  Fe43  1  0.33522989  0.66955501  0.67011747  1
  Fe  Fe44  1  0.50152150  0.83838247  0.83801096  1
  Fe  Fe45  1  0.83883301  0.17190738  0.50331405  1
  Ni  Ni46  1  0.67028222  1.00370006  0.67137351  1
  Fe  Fe47  1  0.83644993  0.17161079  0.83769412  1
  Fe  Fe48  1  0.83799984  0.50260571  0.50268073  1
  Fe  Fe49  1  0.67086017  0.33655262  0.67151194  1
  Fe  Fe50  1  0.83893198  0.50219636  0.83812282  1
  Fe  Fe51  1  0.83769359  0.83706999  0.50363395  1
  Cr  Cr52  1  0.67070532  0.66974009  0.67042290  1
  Fe  Fe53  1  0.83875539  0.83816575  0.83704844  1
" 