9012,Ni30Fe9Cr59_17,-215.288550197423, 153.048985803633,Ni30Fe9Cr59,"# generated using pymatgen
 data_Cr33Fe5Ni16
_symmetry_space_group_name_H-M   'P 1'
_cell_length_a   7.53648934
_cell_length_b   7.53648934
_cell_length_c   10.65820543
_cell_angle_alpha   90.00000000
_cell_angle_beta   90.00000000
_cell_angle_gamma   90.00000000
_symmetry_Int_Tables_number   1
_chemical_formula_structural   Cr33Fe5Ni16
_chemical_formula_sum   'Cr33 Fe5 Ni16'
_cell_volume   605.37190955
_cell_formula_units_Z   1
loop_
 _symmetry_equiv_pos_site_id
 _symmetry_equiv_pos_as_xyz
  1  'x, y, z'
loop_
 _atom_site_type_symbol
 _atom_site_label
 _atom_site_symmetry_multiplicity
 _atom_site_fract_x
 _atom_site_fract_y
 _atom_site_fract_z
 _atom_site_occupancy
  Cr  Cr0  1  -0.00398350  0.99331081  -0.00450532  1
  Cr  Cr1  1  0.16344555  0.16352928  0.16224553  1
  Cr  Cr2  1  0.99220099  -0.00414284  0.32901129  1
  Cr  Cr3  1  0.99446259  0.32922641  0.99531952  1
  Cr  Cr4  1  0.16303026  0.49345273  0.16286652  1
  Fe  Fe5  1  0.99399233  0.32930466  0.33144168  1
  Cr  Cr6  1  0.99442244  0.66363728  0.99373601  1
  Cr  Cr7  1  0.16217683  0.82921545  0.16017668  1
  Cr  Cr8  1  0.99441860  0.66193996  0.32944313  1
  Ni  Ni9  1  0.33112531  -0.00141746  0.99442361  1
  Ni  Ni10  1  0.49628015  0.16212251  0.15810641  1
  Cr  Cr11  1  0.32985482  -0.00342185  0.32727093  1
  Ni  Ni12  1  0.33336337  0.32597310  -0.00336921  1
  Ni  Ni13  1  0.49521639  0.49237988  0.16038581  1
  Cr  Cr14  1  0.32953135  0.33072162  0.32835615  1
  Cr  Cr15  1  0.32860402  0.66174292  -0.00270505  1
  Cr  Cr16  1  0.49793195  0.83068860  0.16246365  1
  Cr  Cr17  1  0.32988485  0.65886432  0.32855302  1
  Ni  Ni18  1  0.65988602  -0.00171787  -0.00286083  1
  Cr  Cr19  1  0.82642007  0.16082959  0.16262642  1
  Ni  Ni20  1  0.66523909  -0.00403324  0.32848210  1
  Ni  Ni21  1  0.65845895  0.32710803  0.99519578  1
  Cr  Cr22  1  0.82790783  0.49511959  0.16017002  1
  Cr  Cr23  1  0.66119024  0.32852279  0.33000128  1
  Cr  Cr24  1  0.66317959  0.66022259  -0.00288592  1
  Ni  Ni25  1  0.82634395  0.83079542  0.16260756  1
  Cr  Cr26  1  0.66196613  0.66209132  0.32896178  1
  Cr  Cr27  1  0.16082416  0.16457804  0.49511744  1
  Cr  Cr28  1  -0.00376691  0.99393989  0.66173415  1
  Cr  Cr29  1  0.16578532  0.16143126  0.82879839  1
  Ni  Ni30  1  0.16149162  0.49564081  0.49706875  1
  Cr  Cr31  1  0.99459228  0.33020504  0.65963191  1
  Cr  Cr32  1  0.16161888  0.49586916  0.82709058  1
  Cr  Cr33  1  0.16356760  0.82677037  0.49878847  1
  Fe  Fe34  1  -0.00304777  0.66031151  0.66129418  1
  Fe  Fe35  1  0.16376600  0.82852822  0.82736260  1
  Cr  Cr36  1  0.49628828  0.16105075  0.49732707  1
  Ni  Ni37  1  0.32745544  0.99465134  0.66406694  1
  Fe  Fe38  1  0.49424689  0.16258788  0.83079795  1
  Ni  Ni39  1  0.49405400  0.49624844  0.49711408  1
  Ni  Ni40  1  0.32870057  0.33057798  0.66094743  1
  Cr  Cr41  1  0.49567834  0.49375457  0.82884551  1
  Cr  Cr42  1  0.49585664  0.82811819  0.49571182  1
  Ni  Ni43  1  0.32640633  0.66095381  0.66043413  1
  Cr  Cr44  1  0.49304015  0.83144060  0.82797473  1
  Ni  Ni45  1  0.82892258  0.16281887  0.49349259  1
  Cr  Cr46  1  0.66220837  -0.00329639  0.66040949  1
  Cr  Cr47  1  0.82628678  0.16406580  0.83073802  1
  Ni  Ni48  1  0.83059885  0.49450434  0.49609543  1
  Cr  Cr49  1  0.66129570  0.33001943  0.66222527  1
  Ni  Ni50  1  0.82898970  0.49532706  0.82897812  1
  Fe  Fe51  1  0.82832737  0.82833586  0.49446469  1
  Cr  Cr52  1  0.66300894  0.65946101  0.66006558  1
  Cr  Cr53  1  0.82847385  0.82726073  0.82912625  1
" 