863,Ni30Fe70_19,-243.772222638779, 221.145344722165,Ni30Fe70,"# generated using pymatgen
 data_Fe8Ni19
_symmetry_space_group_name_H-M   'P 1'
_cell_length_a   7.41812512
_cell_length_b   7.41812512
_cell_length_c   10.49081315
_cell_angle_alpha   90.00000000
_cell_angle_beta   90.00000000
_cell_angle_gamma   90.00000000
_symmetry_Int_Tables_number   1
_chemical_formula_structural   Fe8Ni19
_chemical_formula_sum   'Fe16 Ni38'
_cell_volume   577.29455397
_cell_formula_units_Z   2
loop_
 _symmetry_equiv_pos_site_id
 _symmetry_equiv_pos_as_xyz
  1  'x, y, z'
loop_
 _atom_site_type_symbol
 _atom_site_label
 _atom_site_symmetry_multiplicity
 _atom_site_fract_x
 _atom_site_fract_y
 _atom_site_fract_z
 _atom_site_occupancy
  Fe  Fe0  1  0.00417151  1.00209157  0.00435089  1
  Fe  Fe1  1  0.17132491  0.16947179  0.17028668  1
  Ni  Ni2  1  1.00267747  0.00333977  0.33751292  1
  Ni  Ni3  1  0.00341279  0.33692139  0.00414813  1
  Ni  Ni4  1  0.17158630  0.50319920  0.16980461  1
  Fe  Fe5  1  1.00268556  0.33781020  0.33685118  1
  Ni  Ni6  1  1.00298411  0.66825976  1.00232549  1
  Ni  Ni7  1  0.16957711  0.83518581  0.17007959  1
  Ni  Ni8  1  0.00357415  0.67094729  0.33777028  1
  Ni  Ni9  1  0.33830366  1.00324488  0.00388167  1
  Fe  Fe10  1  0.50239466  0.16892537  0.17020138  1
  Fe  Fe11  1  0.33744950  1.00136744  0.33676726  1
  Ni  Ni12  1  0.33451500  0.33608028  1.00122635  1
  Ni  Ni13  1  0.50194963  0.50254695  0.16964563  1
  Ni  Ni14  1  0.33651831  0.33666707  0.33837310  1
  Ni  Ni15  1  0.33671982  0.66998550  1.00194928  1
  Ni  Ni16  1  0.50410507  0.83546178  0.16987251  1
  Ni  Ni17  1  0.33673021  0.66856175  0.33742072  1
  Ni  Ni18  1  0.66956707  1.00301655  1.00197706  1
  Fe  Fe19  1  0.83592806  0.16953897  0.17038466  1
  Ni  Ni20  1  0.67070103  1.00316532  0.33835733  1
  Fe  Fe21  1  0.66866008  0.33773957  0.00401301  1
  Fe  Fe22  1  0.83661178  0.50703547  0.17032299  1
  Ni  Ni23  1  0.66889612  0.33643531  0.33650000  1
  Ni  Ni24  1  0.67020082  0.67198389  1.00278595  1
  Ni  Ni25  1  0.83662060  0.83845608  0.17033634  1
  Ni  Ni26  1  0.66978480  0.67054488  0.33726330  1
  Ni  Ni27  1  0.16999910  0.16986574  0.50204256  1
  Fe  Fe28  1  0.00498362  0.00445602  0.66911878  1
  Ni  Ni29  1  0.16967062  0.16913212  0.83742158  1
  Ni  Ni30  1  0.17009031  0.50311248  0.50310492  1
  Ni  Ni31  1  1.00255786  0.33735508  0.66897549  1
  Ni  Ni32  1  0.17002403  0.50304236  0.83658924  1
  Ni  Ni33  1  0.16994361  0.83679810  0.50199101  1
  Fe  Fe34  1  0.00380568  0.67020041  0.67002907  1
  Ni  Ni35  1  0.16933305  0.83736424  0.83793321  1
  Ni  Ni36  1  0.50353164  0.17009434  0.50213326  1
  Ni  Ni37  1  0.33761041  0.00331577  0.66891514  1
  Ni  Ni38  1  0.50347335  0.17096945  0.83732491  1
  Ni  Ni39  1  0.50330149  0.50276013  0.50294177  1
  Fe  Fe40  1  0.33571987  0.33524490  0.66981043  1
  Ni  Ni41  1  0.50317487  0.50235691  0.83701526  1
  Ni  Ni42  1  0.50383248  0.83631092  0.50292171  1
  Fe  Fe43  1  0.33545414  0.66989957  0.66955451  1
  Fe  Fe44  1  0.50284065  0.83707646  0.83638100  1
  Ni  Ni45  1  0.83652061  0.17006624  0.50283355  1
  Fe  Fe46  1  0.67060094  0.00465690  0.66985628  1
  Ni  Ni47  1  0.83683029  0.16986411  0.83773078  1
  Ni  Ni48  1  0.83602904  0.50339349  0.50165430  1
  Fe  Fe49  1  0.67003993  0.33608260  0.66931733  1
  Ni  Ni50  1  0.83590757  0.50288181  0.83803213  1
  Ni  Ni51  1  0.83681784  0.83705890  0.50336109  1
  Fe  Fe52  1  0.67052312  0.66925916  0.66992005  1
  Ni  Ni53  1  0.83779860  0.83746278  0.83674715  1
" 