7385,Ni30Fe63Cr6_3,-234.048711519893, 194.03459024667,Ni30Fe63Cr6,"# generated using pymatgen
 data_Cr2Fe17Ni8
_symmetry_space_group_name_H-M   'P 1'
_cell_length_a   7.41531153
_cell_length_b   7.41531153
_cell_length_c   10.48683413
_cell_angle_alpha   90.00000000
_cell_angle_beta   90.00000000
_cell_angle_gamma   90.00000000
_symmetry_Int_Tables_number   1
_chemical_formula_structural   Cr2Fe17Ni8
_chemical_formula_sum   'Cr4 Fe34 Ni16'
_cell_volume   576.63792318
_cell_formula_units_Z   2
loop_
 _symmetry_equiv_pos_site_id
 _symmetry_equiv_pos_as_xyz
  1  'x, y, z'
loop_
 _atom_site_type_symbol
 _atom_site_label
 _atom_site_symmetry_multiplicity
 _atom_site_fract_x
 _atom_site_fract_y
 _atom_site_fract_z
 _atom_site_occupancy
  Ni  Ni0  1  0.00434920  1.00348394  0.00385679  1
  Fe  Fe1  1  0.17057885  0.16972117  0.16813205  1
  Fe  Fe2  1  0.00358530  1.00169920  0.33675300  1
  Ni  Ni3  1  0.00435271  0.33679183  0.00384638  1
  Ni  Ni4  1  0.17022646  0.50483782  0.16762174  1
  Cr  Cr5  1  0.00396837  0.33755339  0.33583986  1
  Ni  Ni6  1  1.00325554  0.67018693  0.00483939  1
  Ni  Ni7  1  0.17076353  0.83678256  0.17104857  1
  Fe  Fe8  1  0.00401444  0.67119512  0.33605109  1
  Ni  Ni9  1  0.33646274  0.00401838  1.00323817  1
  Fe  Fe10  1  0.50271667  0.17087467  0.16983202  1
  Fe  Fe11  1  0.33582144  0.00416713  0.33582450  1
  Ni  Ni12  1  0.33586208  0.33567190  0.00477092  1
  Fe  Fe13  1  0.50339401  0.50373698  0.16943854  1
  Fe  Fe14  1  0.33799133  0.33734863  0.33663776  1
  Fe  Fe15  1  0.33518039  0.67044557  0.00475473  1
  Fe  Fe16  1  0.50302655  0.83585542  0.17013409  1
  Fe  Fe17  1  0.33516711  0.66895474  0.33609182  1
  Fe  Fe18  1  0.67078853  0.00418878  1.00279803  1
  Fe  Fe19  1  0.83716992  0.17009020  0.16852723  1
  Fe  Fe20  1  0.67106094  0.00452509  0.33678921  1
  Ni  Ni21  1  0.67024761  0.33676212  0.00585903  1
  Ni  Ni22  1  0.83598973  0.50373279  0.16913231  1
  Fe  Fe23  1  0.66881904  0.33691655  0.33627859  1
  Ni  Ni24  1  0.67078038  0.67078534  0.00546727  1
  Fe  Fe25  1  0.83798866  0.83551456  0.16976605  1
  Fe  Fe26  1  0.67128323  0.66902709  0.33548578  1
  Fe  Fe27  1  0.17118837  0.16925206  0.50517962  1
  Ni  Ni28  1  0.00351453  1.00342430  0.66892405  1
  Ni  Ni29  1  0.16945873  0.16885005  0.83708952  1
  Ni  Ni30  1  0.17055425  0.50395571  0.50526953  1
  Fe  Fe31  1  0.00449303  0.33443681  0.66965082  1
  Fe  Fe32  1  0.16951680  0.50225955  0.83724397  1
  Fe  Fe33  1  0.16859134  0.83675998  0.50336946  1
  Fe  Fe34  1  0.00455683  0.67207881  0.66927391  1
  Fe  Fe35  1  0.16947950  0.83817468  0.83736713  1
  Fe  Fe36  1  0.50301319  0.17183164  0.50374514  1
  Ni  Ni37  1  0.33635977  0.00430740  0.67030185  1
  Fe  Fe38  1  0.50338490  0.16861672  0.83689795  1
  Fe  Fe39  1  0.50306087  0.50192692  0.50368853  1
  Fe  Fe40  1  0.33558749  0.33479783  0.66956831  1
  Cr  Cr41  1  0.50257839  0.50414045  0.83729758  1
  Cr  Cr42  1  0.50317516  0.83767474  0.50401175  1
  Fe  Fe43  1  0.33511000  0.67131567  0.66962475  1
  Fe  Fe44  1  0.50374588  0.83951522  0.83636740  1
  Fe  Fe45  1  0.83626515  0.16923410  0.50514552  1
  Ni  Ni46  1  0.67059169  0.00399235  0.67156493  1
  Ni  Ni47  1  0.83763116  0.16825384  0.83714573  1
  Fe  Fe48  1  0.83621539  0.50452319  0.50387979  1
  Fe  Fe49  1  0.67038465  0.33357443  0.66905460  1
  Cr  Cr50  1  0.83824234  0.50217493  0.83747440  1
  Fe  Fe51  1  0.83879313  0.83671102  0.50394169  1
  Fe  Fe52  1  0.67079846  0.67247111  0.66972007  1
  Fe  Fe53  1  0.83724123  0.83925556  0.83676408  1
" 