1389,Ni30Fe63Cr6_15,-234.631658606969, 196.881156395501,Ni30Fe63Cr6,"# generated using pymatgen
 data_Cr2Fe17Ni8
_symmetry_space_group_name_H-M   'P 1'
_cell_length_a   7.41885074
_cell_length_b   7.41885074
_cell_length_c   10.49183933
_cell_angle_alpha   90.00000000
_cell_angle_beta   90.00000000
_cell_angle_gamma   90.00000000
_symmetry_Int_Tables_number   1
_chemical_formula_structural   Cr2Fe17Ni8
_chemical_formula_sum   'Cr4 Fe34 Ni16'
_cell_volume   577.46397771
_cell_formula_units_Z   2
loop_
 _symmetry_equiv_pos_site_id
 _symmetry_equiv_pos_as_xyz
  1  'x, y, z'
loop_
 _atom_site_type_symbol
 _atom_site_label
 _atom_site_symmetry_multiplicity
 _atom_site_fract_x
 _atom_site_fract_y
 _atom_site_fract_z
 _atom_site_occupancy
  Ni  Ni0  1  1.00233933  1.00218962  1.00166317  1
  Fe  Fe1  1  0.17054923  0.16972575  0.16919071  1
  Ni  Ni2  1  1.00152414  0.00415223  0.33811746  1
  Fe  Fe3  1  0.00494992  0.33565322  1.00308805  1
  Fe  Fe4  1  0.17247374  0.50291025  0.16935465  1
  Fe  Fe5  1  0.00412829  0.33479013  0.33675827  1
  Fe  Fe6  1  0.00502641  0.67126655  1.00265994  1
  Ni  Ni7  1  0.17004765  0.83873259  0.16923502  1
  Cr  Cr8  1  0.00368016  0.67031493  0.33504740  1
  Ni  Ni9  1  0.33657595  0.00355076  0.00341619  1
  Fe  Fe10  1  0.50210495  0.17035816  0.16989819  1
  Fe  Fe11  1  0.33558810  1.00267354  0.33627324  1
  Ni  Ni12  1  0.33770869  0.33688673  1.00273515  1
  Ni  Ni13  1  0.50355996  0.50293287  0.17088050  1
  Ni  Ni14  1  0.33721997  0.33622510  0.33550640  1
  Ni  Ni15  1  0.33669431  0.66930848  1.00233775  1
  Fe  Fe16  1  0.50203613  0.83562045  0.16937502  1
  Ni  Ni17  1  0.33752498  0.66933968  0.33643669  1
  Fe  Fe18  1  0.66884979  1.00278618  1.00244440  1
  Fe  Fe19  1  0.83708724  0.16936312  0.17016695  1
  Fe  Fe20  1  0.66958668  1.00309031  0.33717276  1
  Fe  Fe21  1  0.66842437  0.33661636  0.00344189  1
  Fe  Fe22  1  0.83560245  0.50284293  0.16920516  1
  Fe  Fe23  1  0.67037297  0.33617128  0.33545217  1
  Fe  Fe24  1  0.66831141  0.67033577  1.00271461  1
  Fe  Fe25  1  0.83622862  0.83753876  0.16869514  1
  Fe  Fe26  1  0.66823275  0.67048622  0.33552515  1
  Fe  Fe27  1  0.16949410  0.17142729  0.50263922  1
  Fe  Fe28  1  0.00399666  1.00303220  0.67054001  1
  Ni  Ni29  1  0.16816045  0.16958329  0.83733941  1
  Fe  Fe30  1  0.16952560  0.50229028  0.50416142  1
  Fe  Fe31  1  0.00390784  0.33652776  0.66989950  1
  Fe  Fe32  1  0.17099302  0.50428370  0.83622303  1
  Fe  Fe33  1  0.16971156  0.83602860  0.50278220  1
  Ni  Ni34  1  1.00209782  0.66934596  0.67032451  1
  Ni  Ni35  1  0.16810768  0.83789285  0.83672763  1
  Fe  Fe36  1  0.50285832  0.17047114  0.50146612  1
  Cr  Cr37  1  0.33642087  0.00437841  0.67075298  1
  Fe  Fe38  1  0.50196686  0.17089310  0.83838682  1
  Cr  Cr39  1  0.50301169  0.50369780  0.50370161  1
  Ni  Ni40  1  0.33632008  0.33760145  0.67150390  1
  Ni  Ni41  1  0.50367554  0.50317557  0.83571575  1
  Fe  Fe42  1  0.50320516  0.83642320  0.50164829  1
  Fe  Fe43  1  0.33568594  0.66898796  0.67135729  1
  Ni  Ni44  1  0.50332532  0.83293834  0.83838617  1
  Fe  Fe45  1  0.83739128  0.17066057  0.50186569  1
  Cr  Cr46  1  0.67080553  1.00318674  0.67147363  1
  Fe  Fe47  1  0.83765295  0.16933907  0.83771909  1
  Fe  Fe48  1  0.83778370  0.50263684  0.50450763  1
  Fe  Fe49  1  0.67046812  0.33813960  0.67085323  1
  Fe  Fe50  1  0.83680117  0.50468593  0.83602714  1
  Fe  Fe51  1  0.83682663  0.83644554  0.50383150  1
  Fe  Fe52  1  0.67047315  0.66889102  0.67150885  1
  Ni  Ni53  1  0.83831139  0.83658044  0.83727200  1
" 