7141,Ni30Fe41Cr28_10,-228.164821317029, 184.453180742256,Ni30Fe41Cr28,"# generated using pymatgen
 data_Cr8Fe11Ni8
_symmetry_space_group_name_H-M   'P 1'
_cell_length_a   7.46392947
_cell_length_b   7.46392947
_cell_length_c   10.55559028
_cell_angle_alpha   90.00000000
_cell_angle_beta   90.00000000
_cell_angle_gamma   90.00000000
_symmetry_Int_Tables_number   1
_chemical_formula_structural   Cr8Fe11Ni8
_chemical_formula_sum   'Cr16 Fe22 Ni16'
_cell_volume   588.05450043
_cell_formula_units_Z   2
loop_
 _symmetry_equiv_pos_site_id
 _symmetry_equiv_pos_as_xyz
  1  'x, y, z'
loop_
 _atom_site_type_symbol
 _atom_site_label
 _atom_site_symmetry_multiplicity
 _atom_site_fract_x
 _atom_site_fract_y
 _atom_site_fract_z
 _atom_site_occupancy
  Cr  Cr0  1  0.00052455  0.00451468  0.00153141  1
  Fe  Fe1  1  0.17056453  0.16631587  0.16751158  1
  Fe  Fe2  1  0.00051135  0.99983527  0.33372005  1
  Fe  Fe3  1  0.99864454  0.33424024  1.00005802  1
  Cr  Cr4  1  0.16867323  0.50211656  0.16418573  1
  Cr  Cr5  1  0.00154059  0.32982799  0.33162964  1
  Fe  Fe6  1  0.99959298  0.66739033  0.99903384  1
  Cr  Cr7  1  0.16665663  0.83417842  0.16592030  1
  Cr  Cr8  1  1.00000777  0.66737875  0.33495385  1
  Ni  Ni9  1  0.33465630  0.99968719  0.99916302  1
  Ni  Ni10  1  0.50186830  0.16616364  0.16754780  1
  Fe  Fe11  1  0.33541491  1.00019703  0.33234934  1
  Cr  Cr12  1  0.33433805  0.33016176  0.99854283  1
  Ni  Ni13  1  0.49924297  0.49565833  0.16944742  1
  Ni  Ni14  1  0.33165371  0.33225447  0.33399129  1
  Ni  Ni15  1  0.33344921  0.66821265  0.99805235  1
  Fe  Fe16  1  0.49936399  0.83489852  0.16572422  1
  Ni  Ni17  1  0.33344872  0.66628489  0.33524210  1
  Ni  Ni18  1  0.66529792  0.00288923  0.99987707  1
  Fe  Fe19  1  0.83019519  0.16609377  0.16701455  1
  Ni  Ni20  1  0.66828218  0.00129585  0.33322141  1
  Ni  Ni21  1  0.66902766  0.33115492  0.00243924  1
  Fe  Fe22  1  0.83131956  0.49984561  0.16491626  1
  Fe  Fe23  1  0.66483619  0.33154245  0.33065333  1
  Cr  Cr24  1  0.66441523  0.66745038  0.00188425  1
  Ni  Ni25  1  0.83336670  0.83674329  0.16726941  1
  Cr  Cr26  1  0.66401941  0.67011562  0.33217249  1
  Fe  Fe27  1  0.16697793  0.16778279  0.50093275  1
  Fe  Fe28  1  0.00122094  0.00244029  0.66692436  1
  Fe  Fe29  1  0.16738477  0.16568417  0.83213131  1
  Ni  Ni30  1  0.16698667  0.50001334  0.50098205  1
  Fe  Fe31  1  0.00083974  0.33271866  0.66779654  1
  Fe  Fe32  1  0.16680710  0.50127591  0.83446311  1
  Fe  Fe33  1  0.16912873  0.83599414  0.49990701  1
  Cr  Cr34  1  0.00108782  0.66718664  0.66669229  1
  Ni  Ni35  1  0.16752552  0.83525765  0.83510483  1
  Cr  Cr36  1  0.50133940  0.16608984  0.50065386  1
  Fe  Fe37  1  0.33347496  0.00160621  0.66963260  1
  Ni  Ni38  1  0.50119997  0.16485036  0.83262576  1
  Cr  Cr39  1  0.49763419  0.49575570  0.49832855  1
  Fe  Fe40  1  0.33215480  0.33164533  0.66722795  1
  Cr  Cr41  1  0.50343994  0.49611474  0.83222283  1
  Fe  Fe42  1  0.49835965  0.83460847  0.49948955  1
  Cr  Cr43  1  0.33371627  0.66831116  0.66765653  1
  Ni  Ni44  1  0.49691334  0.83936165  0.83546257  1
  Fe  Fe45  1  0.83493025  0.16533516  0.50094984  1
  Fe  Fe46  1  0.66606552  0.00081737  0.66769945  1
  Fe  Fe47  1  0.83092341  0.16822436  0.83342435  1
  Cr  Cr48  1  0.83245651  0.49809868  0.49984714  1
  Ni  Ni49  1  0.66977687  0.32915757  0.66788112  1
  Ni  Ni50  1  0.83689578  0.49607067  0.83554064  1
  Fe  Fe51  1  0.83341637  0.83819049  0.49956421  1
  Cr  Cr52  1  0.66581265  0.66808083  0.66599501  1
  Cr  Cr53  1  0.83389810  0.83415968  0.83409057  1
" 