2697,Ni30Fe44Cr25_14,-228.315151739601, 184.507678494762,Ni30Fe44Cr25,"# generated using pymatgen
 data_Cr15Fe23Ni16
_symmetry_space_group_name_H-M   'P 1'
_cell_length_a   7.46155719
_cell_length_b   7.46155719
_cell_length_c   10.55223537
_cell_angle_alpha   90.00000000
_cell_angle_beta   90.00000000
_cell_angle_gamma   90.00000000
_symmetry_Int_Tables_number   1
_chemical_formula_structural   Cr15Fe23Ni16
_chemical_formula_sum   'Cr15 Fe23 Ni16'
_cell_volume   587.49397016
_cell_formula_units_Z   1
loop_
 _symmetry_equiv_pos_site_id
 _symmetry_equiv_pos_as_xyz
  1  'x, y, z'
loop_
 _atom_site_type_symbol
 _atom_site_label
 _atom_site_symmetry_multiplicity
 _atom_site_fract_x
 _atom_site_fract_y
 _atom_site_fract_z
 _atom_site_occupancy
  Cr  Cr0  1  0.00116296  0.99941118  0.00102411  1
  Fe  Fe1  1  0.16725785  0.16595465  0.16825362  1
  Ni  Ni2  1  0.99960186  0.00114870  0.33401133  1
  Cr  Cr3  1  0.00120336  0.33449299  0.99924116  1
  Cr  Cr4  1  0.16568038  0.50003371  0.16779085  1
  Ni  Ni5  1  0.00059892  0.33198566  0.33497426  1
  Fe  Fe6  1  0.99805600  0.66729728  0.00062749  1
  Ni  Ni7  1  0.16671452  0.83566336  0.16780699  1
  Ni  Ni8  1  0.99801304  0.66796903  0.33211918  1
  Fe  Fe9  1  0.33507330  0.00102561  1.00007357  1
  Fe  Fe10  1  0.49952637  0.16550339  0.16693878  1
  Fe  Fe11  1  0.33310578  0.00203902  0.33213763  1
  Fe  Fe12  1  0.33492058  0.33146638  0.99902312  1
  Fe  Fe13  1  0.50202112  0.50138006  0.16715647  1
  Fe  Fe14  1  0.33263102  0.33083043  0.33361505  1
  Cr  Cr15  1  0.33366431  0.66746633  0.99839898  1
  Fe  Fe16  1  0.50240246  0.83422032  0.16709842  1
  Cr  Cr17  1  0.33399374  0.66729201  0.33288615  1
  Ni  Ni18  1  0.66444020  0.99899190  0.00191795  1
  Fe  Fe19  1  0.83431951  0.16557545  0.16903605  1
  Ni  Ni20  1  0.66833663  0.99985130  0.33299104  1
  Cr  Cr21  1  0.66604221  0.33398977  0.00042276  1
  Ni  Ni22  1  0.83268105  0.50238813  0.16827741  1
  Cr  Cr23  1  0.66786885  0.33308555  0.33386066  1
  Ni  Ni24  1  0.66633128  0.66762849  0.00066335  1
  Fe  Fe25  1  0.83318806  0.83240773  0.16847006  1
  Ni  Ni26  1  0.66915953  0.66849972  0.33287407  1
  Fe  Fe27  1  0.16580418  0.16672116  0.50091546  1
  Ni  Ni28  1  0.00231674  0.00212697  0.66594770  1
  Ni  Ni29  1  0.17058857  0.16675846  0.83219183  1
  Cr  Cr30  1  0.16635782  0.49805488  0.49939115  1
  Fe  Fe31  1  0.00045975  0.33155392  0.66709394  1
  Fe  Fe32  1  0.16710978  0.49942921  0.83276422  1
  Cr  Cr33  1  0.16550641  0.83592614  0.50010447  1
  Cr  Cr34  1  0.00047599  0.66755717  0.66810104  1
  Ni  Ni35  1  0.16997286  0.83487681  0.83294452  1
  Fe  Fe36  1  0.49993118  0.16662346  0.50040281  1
  Fe  Fe37  1  0.33122625  0.00189012  0.66889082  1
  Fe  Fe38  1  0.49757380  0.16692178  0.83376358  1
  Cr  Cr39  1  0.50114481  0.49974747  0.50067629  1
  Ni  Ni40  1  0.33398635  0.33306208  0.66878637  1
  Fe  Fe41  1  0.50020980  0.50038452  0.83228318  1
  Cr  Cr42  1  0.50201572  0.83425620  0.50030263  1
  Fe  Fe43  1  0.33427056  0.66739162  0.66963134  1
  Fe  Fe44  1  0.49942399  0.83379836  0.83417610  1
  Ni  Ni45  1  0.83496628  0.16629583  0.50025855  1
  Cr  Cr46  1  0.66779740  0.00129481  0.66604843  1
  Cr  Cr47  1  0.83382317  0.16826048  0.83307259  1
  Fe  Fe48  1  0.83393094  0.50101573  0.49953791  1
  Fe  Fe49  1  0.66758310  0.33460157  0.66706873  1
  Ni  Ni50  1  0.83207936  0.50087859  0.83271734  1
  Ni  Ni51  1  0.83324056  0.83544878  0.49779296  1
  Fe  Fe52  1  0.66691539  0.66515316  0.66763712  1
  Cr  Cr53  1  0.83316171  0.83223988  0.83567577  1
" 