2512,Ni30Fe44Cr24_15,-228.746882318965, 185.672541798983,Ni30Fe44Cr24,"# generated using pymatgen
 data_Cr7(Fe3Ni2)4
_symmetry_space_group_name_H-M   'P 1'
_cell_length_a   7.45805360
_cell_length_b   7.45805360
_cell_length_c   10.54728055
_cell_angle_alpha   90.00000000
_cell_angle_beta   90.00000000
_cell_angle_gamma   90.00000000
_symmetry_Int_Tables_number   1
_chemical_formula_structural   Cr7(Fe3Ni2)4
_chemical_formula_sum   'Cr14 Fe24 Ni16'
_cell_volume   586.66678200
_cell_formula_units_Z   2
loop_
 _symmetry_equiv_pos_site_id
 _symmetry_equiv_pos_as_xyz
  1  'x, y, z'
loop_
 _atom_site_type_symbol
 _atom_site_label
 _atom_site_symmetry_multiplicity
 _atom_site_fract_x
 _atom_site_fract_y
 _atom_site_fract_z
 _atom_site_occupancy
  Fe  Fe0  1  0.00083213  0.99829950  1.00013228  1
  Fe  Fe1  1  0.16933290  0.16678385  0.16820486  1
  Cr  Cr2  1  0.00144320  0.99999126  0.33270314  1
  Cr  Cr3  1  0.99914945  0.33218933  0.00270956  1
  Fe  Fe4  1  0.16587083  0.50220185  0.16833675  1
  Fe  Fe5  1  0.00192849  0.33683801  0.33278096  1
  Ni  Ni6  1  0.00077330  0.67080295  0.00240923  1
  Fe  Fe7  1  0.16924466  0.83283842  0.16592102  1
  Fe  Fe8  1  0.00163295  0.66689177  0.33322057  1
  Ni  Ni9  1  0.33300605  0.99869116  0.00122534  1
  Ni  Ni10  1  0.49967291  0.16374092  0.16939830  1
  Ni  Ni11  1  0.33392001  0.99904762  0.33198788  1
  Cr  Cr12  1  0.33509313  0.33212143  0.99918602  1
  Cr  Cr13  1  0.49978489  0.50136204  0.16770345  1
  Fe  Fe14  1  0.33356554  0.33452750  0.33288388  1
  Fe  Fe15  1  0.33232360  0.67033409  0.99994173  1
  Fe  Fe16  1  0.49952914  0.83630091  0.16789546  1
  Ni  Ni17  1  0.33368824  0.66769963  0.33284258  1
  Fe  Fe18  1  0.66683648  1.00044923  0.00067565  1
  Fe  Fe19  1  0.83172929  0.16763079  0.16859613  1
  Fe  Fe20  1  0.66584545  0.99897255  0.33174931  1
  Cr  Cr21  1  0.66754791  0.33321370  0.99976857  1
  Ni  Ni22  1  0.83706016  0.50169420  0.17044921  1
  Fe  Fe23  1  0.66639734  0.33472195  0.33310153  1
  Cr  Cr24  1  0.66660555  0.66789463  0.99968055  1
  Fe  Fe25  1  0.83315706  0.83319812  0.16701818  1
  Fe  Fe26  1  0.66808216  0.66769001  0.33468300  1
  Cr  Cr27  1  0.16967532  0.16845315  0.50131437  1
  Cr  Cr28  1  0.00245462  0.99878661  0.66895707  1
  Fe  Fe29  1  0.16868485  0.16436065  0.83281947  1
  Fe  Fe30  1  0.16685505  0.50204974  0.50003455  1
  Ni  Ni31  1  0.99873409  0.33386657  0.66651249  1
  Cr  Cr32  1  0.16710513  0.50150443  0.83454466  1
  Fe  Fe33  1  0.16790334  0.83207401  0.49989274  1
  Fe  Fe34  1  0.99878514  0.66792974  0.66688184  1
  Ni  Ni35  1  0.16721055  0.83628377  0.83596468  1
  Cr  Cr36  1  0.49967864  0.16788572  0.50096814  1
  Ni  Ni37  1  0.33356257  1.00049584  0.66893354  1
  Fe  Fe38  1  0.50030235  0.16439464  0.83258196  1
  Ni  Ni39  1  0.50063745  0.50021326  0.49992070  1
  Fe  Fe40  1  0.33572726  0.33406331  0.66844955  1
  Ni  Ni41  1  0.50047851  0.50038494  0.83231449  1
  Cr  Cr42  1  0.50194484  0.83454683  0.49903580  1
  Cr  Cr43  1  0.33614876  0.66949725  0.66853882  1
  Ni  Ni44  1  0.50044110  0.83635571  0.83509169  1
  Cr  Cr45  1  0.83244576  0.16708408  0.50071957  1
  Fe  Fe46  1  0.66681039  0.99896472  0.66955069  1
  Fe  Fe47  1  0.83274031  0.16524423  0.83223122  1
  Fe  Fe48  1  0.83265416  0.50178978  0.50102732  1
  Ni  Ni49  1  0.66712907  0.33657870  0.66815374  1
  Cr  Cr50  1  0.83401910  0.50218115  0.83117537  1
  Ni  Ni51  1  0.83477284  0.83001910  0.50080368  1
  Ni  Ni52  1  0.66761706  0.66552908  0.66654320  1
  Ni  Ni53  1  0.83398948  0.83589613  0.83439407  1
" 