4406,Ni30Fe9Cr59_6,-215.658473070363, 160.009244063183,Ni30Fe9Cr59,"# generated using pymatgen
 data_Cr33Fe5Ni16
_symmetry_space_group_name_H-M   'P 1'
_cell_length_a   7.52975171
_cell_length_b   7.52975171
_cell_length_c   10.64867699
_cell_angle_alpha   90.00000000
_cell_angle_beta   90.00000000
_cell_angle_gamma   90.00000000
_symmetry_Int_Tables_number   1
_chemical_formula_structural   Cr33Fe5Ni16
_chemical_formula_sum   'Cr33 Fe5 Ni16'
_cell_volume   603.74975194
_cell_formula_units_Z   1
loop_
 _symmetry_equiv_pos_site_id
 _symmetry_equiv_pos_as_xyz
  1  'x, y, z'
loop_
 _atom_site_type_symbol
 _atom_site_label
 _atom_site_symmetry_multiplicity
 _atom_site_fract_x
 _atom_site_fract_y
 _atom_site_fract_z
 _atom_site_occupancy
  Cr  Cr0  1  0.99286890  0.99345227  0.99560172  1
  Fe  Fe1  1  0.16365094  0.16186107  0.16339345  1
  Cr  Cr2  1  0.99384910  0.99533581  0.32935554  1
  Cr  Cr3  1  0.99409253  0.32960139  -0.00042943  1
  Ni  Ni4  1  0.16043987  0.49445704  0.16220875  1
  Cr  Cr5  1  -0.00352865  0.33006096  0.32863169  1
  Ni  Ni6  1  0.99312236  0.66355164  -0.00121932  1
  Cr  Cr7  1  0.16209277  0.83177181  0.16185115  1
  Cr  Cr8  1  0.99509507  0.66213723  0.32711851  1
  Ni  Ni9  1  0.33040134  -0.00395437  -0.00315367  1
  Cr  Cr10  1  0.49488865  0.16037252  0.16342998  1
  Ni  Ni11  1  0.33027840  -0.00345122  0.32737490  1
  Cr  Cr12  1  0.33074727  0.32804483  -0.00313029  1
  Cr  Cr13  1  0.49857390  0.49532657  0.16403182  1
  Ni  Ni14  1  0.32740553  0.32754189  0.32647344  1
  Cr  Cr15  1  0.32745343  0.66482795  -0.00187856  1
  Ni  Ni16  1  0.49790326  0.83239785  0.16635282  1
  Cr  Cr17  1  0.32923406  0.66298166  0.32812310  1
  Cr  Cr18  1  0.66203405  -0.00373942  0.99530633  1
  Cr  Cr19  1  0.82753098  0.16123947  0.16407162  1
  Ni  Ni20  1  0.66158343  0.99247743  0.32730095  1
  Ni  Ni21  1  0.66468333  0.32772280  0.99379684  1
  Ni  Ni22  1  0.83049711  0.49802723  0.16268291  1
  Cr  Cr23  1  0.66456276  0.32873519  0.33103465  1
  Cr  Cr24  1  0.66390787  0.66540306  -0.00118614  1
  Ni  Ni25  1  0.82679833  0.82698832  0.16316478  1
  Ni  Ni26  1  0.66449687  0.66500352  0.32658487  1
  Cr  Cr27  1  0.16278329  0.15955208  0.49386055  1
  Ni  Ni28  1  0.99535518  0.99578790  0.66176619  1
  Cr  Cr29  1  0.16185063  0.16018001  0.83021660  1
  Cr  Cr30  1  0.16258675  0.49463956  0.49588736  1
  Cr  Cr31  1  0.99322774  0.32598495  0.65992524  1
  Cr  Cr32  1  0.16040775  0.49669011  0.83142110  1
  Fe  Fe33  1  0.16393777  0.83191423  0.49590724  1
  Cr  Cr34  1  0.99528004  0.66456049  0.66143474  1
  Cr  Cr35  1  0.15944457  0.83085389  0.82664632  1
  Cr  Cr36  1  0.49448557  0.16036866  0.49346006  1
  Ni  Ni37  1  0.32777741  -0.00410191  0.66209359  1
  Fe  Fe38  1  0.49675256  0.16037404  0.83090329  1
  Cr  Cr39  1  0.49855603  0.49708930  0.49513655  1
  Cr  Cr40  1  0.33052074  0.32768725  0.66436535  1
  Cr  Cr41  1  0.49833340  0.49532733  0.82857879  1
  Cr  Cr42  1  0.49786158  0.83047975  0.49292827  1
  Cr  Cr43  1  0.33093579  0.66464243  0.66106186  1
  Cr  Cr44  1  0.49602353  0.82932586  0.82863140  1
  Fe  Fe45  1  0.82753453  0.15999044  0.49563557  1
  Cr  Cr46  1  0.66350007  -0.00333216  0.66532217  1
  Ni  Ni47  1  0.82964851  0.16059346  0.82769483  1
  Fe  Fe48  1  0.82726976  0.49806523  0.49480457  1
  Cr  Cr49  1  0.66382929  0.32765216  0.66368893  1
  Cr  Cr50  1  0.82905487  0.49822617  0.83075420  1
  Cr  Cr51  1  0.82833344  0.82967726  0.49541292  1
  Ni  Ni52  1  0.66553935  0.66371784  0.66201590  1
  Ni  Ni53  1  0.82966353  0.83103631  0.82871115  1
" 