5737,Ni30Fe41Cr28_16,-228.092466002255, 196.434039147706,Ni30Fe41Cr28,"# generated using pymatgen
 data_Cr8Fe11Ni8
_symmetry_space_group_name_H-M   'P 1'
_cell_length_a   7.45671338
_cell_length_b   7.45671338
_cell_length_c   10.54538519
_cell_angle_alpha   90.00000000
_cell_angle_beta   90.00000000
_cell_angle_gamma   90.00000000
_symmetry_Int_Tables_number   1
_chemical_formula_structural   Cr8Fe11Ni8
_chemical_formula_sum   'Cr16 Fe22 Ni16'
_cell_volume   586.35056394
_cell_formula_units_Z   2
loop_
 _symmetry_equiv_pos_site_id
 _symmetry_equiv_pos_as_xyz
  1  'x, y, z'
loop_
 _atom_site_type_symbol
 _atom_site_label
 _atom_site_symmetry_multiplicity
 _atom_site_fract_x
 _atom_site_fract_y
 _atom_site_fract_z
 _atom_site_occupancy
  Fe  Fe0  1  0.99949432  1.00027450  0.00337994  1
  Fe  Fe1  1  0.16646405  0.16540045  0.16872145  1
  Ni  Ni2  1  0.00150386  0.99936842  0.33357368  1
  Cr  Cr3  1  0.00151719  0.33621644  0.00147437  1
  Fe  Fe4  1  0.16688642  0.50349066  0.16896727  1
  Fe  Fe5  1  0.00085312  0.33363668  0.33389366  1
  Ni  Ni6  1  0.00278433  0.66766792  0.00279365  1
  Ni  Ni7  1  0.16556490  0.83427564  0.16758799  1
  Ni  Ni8  1  0.00194286  0.66705432  0.33233806  1
  Fe  Fe9  1  0.33408945  0.99829110  0.00311260  1
  Ni  Ni10  1  0.50100620  0.16665494  0.16655651  1
  Cr  Cr11  1  0.33561605  0.99994855  0.33321130  1
  Cr  Cr12  1  0.33262955  0.33192041  0.00173736  1
  Cr  Cr13  1  0.50023592  0.50071439  0.16901232  1
  Fe  Fe14  1  0.33185472  0.33403388  0.33421925  1
  Fe  Fe15  1  0.33276106  0.66996656  0.00246593  1
  Ni  Ni16  1  0.50059589  0.83546258  0.16759749  1
  Fe  Fe17  1  0.33376308  0.67020146  0.33467470  1
  Ni  Ni18  1  0.66505455  0.00150244  0.00259216  1
  Fe  Fe19  1  0.83328080  0.16419672  0.16712504  1
  Ni  Ni20  1  0.66673415  0.99902512  0.33247187  1
  Fe  Fe21  1  0.66899386  0.33171952  0.00236989  1
  Ni  Ni22  1  0.83517344  0.50105762  0.16869321  1
  Cr  Cr23  1  0.66684948  0.33208158  0.33401056  1
  Cr  Cr24  1  0.66991871  0.67159159  0.00233293  1
  Ni  Ni25  1  0.83533607  0.83469485  0.16887582  1
  Ni  Ni26  1  0.66823908  0.66962095  0.33462754  1
  Fe  Fe27  1  0.16641357  0.16489234  0.49872331  1
  Fe  Fe28  1  0.00245191  0.00349663  0.66571712  1
  Fe  Fe29  1  0.16587758  0.16625584  0.83430074  1
  Ni  Ni30  1  0.16876045  0.50061061  0.49724616  1
  Cr  Cr31  1  0.00206214  0.33477931  0.66653429  1
  Ni  Ni32  1  0.16968766  0.50203374  0.83559660  1
  Ni  Ni33  1  0.16788161  0.83360870  0.50079483  1
  Cr  Cr34  1  0.00180047  0.66626898  0.66680114  1
  Cr  Cr35  1  0.16832035  0.83510380  0.83375451  1
  Fe  Fe36  1  0.49922569  0.16561913  0.49879844  1
  Fe  Fe37  1  0.33262739  0.99960519  0.66540760  1
  Fe  Fe38  1  0.50061157  0.16430182  0.83648084  1
  Fe  Fe39  1  0.49928442  0.50413417  0.49937065  1
  Cr  Cr40  1  0.33258190  0.33234349  0.66591656  1
  Cr  Cr41  1  0.49926330  0.50116917  0.83456063  1
  Ni  Ni42  1  0.49951668  0.83343572  0.50089185  1
  Fe  Fe43  1  0.33461839  0.66785732  0.66528768  1
  Fe  Fe44  1  0.49998677  0.83564281  0.83452838  1
  Fe  Fe45  1  0.83625669  0.16621870  0.49922125  1
  Cr  Cr46  1  0.66476454  0.99975595  0.66605959  1
  Ni  Ni47  1  0.83360658  0.16512711  0.83585476  1
  Fe  Fe48  1  0.83543967  0.50248278  0.49795400  1
  Cr  Cr49  1  0.66742253  0.33281793  0.66692973  1
  Cr  Cr50  1  0.83347083  0.50022426  0.83447457  1
  Cr  Cr51  1  0.83561295  0.83562986  0.49870460  1
  Fe  Fe52  1  0.66501865  0.66702764  0.66509562  1
  Cr  Cr53  1  0.83571181  0.83690691  0.83399718  1
" 