6545,Ni30Fe29Cr40_3,-223.167579826508, 180.753780576511,Ni30Fe29Cr40,"# generated using pymatgen
 data_Cr23Fe15Ni16
_symmetry_space_group_name_H-M   'P 1'
_cell_length_a   7.48999999
_cell_length_b   7.48999999
_cell_length_c   10.59245956
_cell_angle_alpha   90.00000000
_cell_angle_beta   90.00000000
_cell_angle_gamma   90.00000000
_symmetry_Int_Tables_number   1
_chemical_formula_structural   Cr23Fe15Ni16
_chemical_formula_sum   'Cr23 Fe15 Ni16'
_cell_volume   594.23803875
_cell_formula_units_Z   1
loop_
 _symmetry_equiv_pos_site_id
 _symmetry_equiv_pos_as_xyz
  1  'x, y, z'
loop_
 _atom_site_type_symbol
 _atom_site_label
 _atom_site_symmetry_multiplicity
 _atom_site_fract_x
 _atom_site_fract_y
 _atom_site_fract_z
 _atom_site_occupancy
  Ni  Ni0  1  0.99807171  -0.00100652  0.99783259  1
  Fe  Fe1  1  0.16302436  0.16357451  0.16520417  1
  Cr  Cr2  1  -0.00027580  -0.00146191  0.33151914  1
  Fe  Fe3  1  0.99586732  0.32770438  -0.00060572  1
  Fe  Fe4  1  0.16478452  0.50050400  0.16427039  1
  Fe  Fe5  1  0.99825808  0.33201624  0.33180057  1
  Fe  Fe6  1  0.00048835  0.66605783  0.00020165  1
  Ni  Ni7  1  0.16834784  0.83307701  0.16294855  1
  Cr  Cr8  1  0.99594573  0.66235605  0.33505469  1
  Cr  Cr9  1  0.33321716  0.00031880  0.00285922  1
  Fe  Fe10  1  0.50187045  0.16579392  0.16646009  1
  Ni  Ni11  1  0.33435773  0.00052055  0.32933585  1
  Cr  Cr12  1  0.33240179  0.33282184  0.00048615  1
  Ni  Ni13  1  0.49894042  0.49880974  0.16349021  1
  Cr  Cr14  1  0.33076947  0.33034632  0.33087928  1
  Fe  Fe15  1  0.33268812  0.66606889  0.00176291  1
  Ni  Ni16  1  0.49388883  0.82916988  0.16664742  1
  Cr  Cr17  1  0.33408744  0.66407802  0.33121337  1
  Cr  Cr18  1  0.66599206  0.00025389  0.99639121  1
  Ni  Ni19  1  0.83329064  0.16875335  0.16221009  1
  Cr  Cr20  1  0.66140936  0.99526170  0.33083879  1
  Ni  Ni21  1  0.66341324  0.33128301  0.99804951  1
  Cr  Cr22  1  0.82838187  0.49391700  0.16631308  1
  Fe  Fe23  1  0.66240926  0.33284416  0.33090381  1
  Cr  Cr24  1  0.66373991  0.66578686  0.99799648  1
  Cr  Cr25  1  0.83178007  0.83288275  0.16407697  1
  Ni  Ni26  1  0.66360198  0.66271448  0.33427013  1
  Cr  Cr27  1  0.16681302  0.16467936  0.49948645  1
  Ni  Ni28  1  0.99479137  0.99773862  0.66673683  1
  Cr  Cr29  1  0.16222697  0.16371906  0.82953069  1
  Ni  Ni30  1  0.16845367  0.49752956  0.49958015  1
  Cr  Cr31  1  0.00096572  0.33294416  0.66254628  1
  Cr  Cr32  1  0.16853894  0.50091972  0.83322367  1
  Cr  Cr33  1  0.16787599  0.83289991  0.50008514  1
  Cr  Cr34  1  0.99562528  0.66558823  0.66120845  1
  Cr  Cr35  1  0.16704428  0.83154312  0.83142087  1
  Ni  Ni36  1  0.49964886  0.16787128  0.49841325  1
  Cr  Cr37  1  0.33591392  0.00269642  0.66295506  1
  Fe  Fe38  1  0.49975230  0.16979299  0.83062286  1
  Ni  Ni39  1  0.49950687  0.49734101  0.50078211  1
  Ni  Ni40  1  0.33586714  0.33535201  0.66420718  1
  Fe  Fe41  1  0.49844989  0.49614894  0.83103070  1
  Ni  Ni42  1  0.49963821  0.83016687  0.49660707  1
  Fe  Fe43  1  0.33372999  0.66309227  0.66308233  1
  Fe  Fe44  1  0.49793773  0.83052696  0.83193923  1
  Cr  Cr45  1  0.82926589  0.16648681  0.49817307  1
  Cr  Cr46  1  0.66676311  0.99723580  0.66808647  1
  Ni  Ni47  1  0.82949421  0.16494734  0.83357693  1
  Fe  Fe48  1  0.82782087  0.49839551  0.49619767  1
  Fe  Fe49  1  0.66252909  0.33008290  0.66624808  1
  Cr  Cr50  1  0.82906393  0.49403933  0.83438615  1
  Ni  Ni51  1  0.82898175  0.83165411  0.49943538  1
  Cr  Cr52  1  0.66483111  0.66564166  0.66315146  1
  Fe  Fe53  1  0.83497911  0.83378041  0.83213695  1
" 