2069,Ni30Fe9Cr59_19,-215.134750962786, 149.821003308572,Ni30Fe9Cr59,"# generated using pymatgen
 data_Cr33Fe5Ni16
_symmetry_space_group_name_H-M   'P 1'
_cell_length_a   7.53739058
_cell_length_b   7.53739058
_cell_length_c   10.65947998
_cell_angle_alpha   90.00000000
_cell_angle_beta   90.00000000
_cell_angle_gamma   90.00000000
_symmetry_Int_Tables_number   1
_chemical_formula_structural   Cr33Fe5Ni16
_chemical_formula_sum   'Cr33 Fe5 Ni16'
_cell_volume   605.58911270
_cell_formula_units_Z   1
loop_
 _symmetry_equiv_pos_site_id
 _symmetry_equiv_pos_as_xyz
  1  'x, y, z'
loop_
 _atom_site_type_symbol
 _atom_site_label
 _atom_site_symmetry_multiplicity
 _atom_site_fract_x
 _atom_site_fract_y
 _atom_site_fract_z
 _atom_site_occupancy
  Fe  Fe0  1  0.99316801  0.99307096  0.99448417  1
  Cr  Cr1  1  0.16094648  0.16306727  0.16174783  1
  Cr  Cr2  1  -0.00388627  -0.00331355  0.32874899  1
  Cr  Cr3  1  0.99443430  0.32918554  0.99473305  1
  Cr  Cr4  1  0.16285912  0.49657972  0.16367489  1
  Ni  Ni5  1  0.99408243  0.33184905  0.33009781  1
  Fe  Fe6  1  0.99486167  0.66324219  0.99353761  1
  Cr  Cr7  1  0.16173962  0.82627407  0.16200431  1
  Ni  Ni8  1  0.99375119  0.65809903  0.32948693  1
  Cr  Cr9  1  0.33016303  0.99187122  -0.00366091  1
  Cr  Cr10  1  0.49698834  0.16240648  0.16214834  1
  Cr  Cr11  1  0.32957867  0.99468404  0.32838691  1
  Cr  Cr12  1  0.32755192  0.32997295  0.99459639  1
  Cr  Cr13  1  0.49442679  0.49667019  0.16468623  1
  Ni  Ni14  1  0.32896795  0.32917907  0.32981137  1
  Ni  Ni15  1  0.32885177  0.66502604  -0.00369461  1
  Ni  Ni16  1  0.49538972  0.82720472  0.16156995  1
  Fe  Fe17  1  0.32961944  0.66040949  0.32734947  1
  Ni  Ni18  1  0.66229437  0.99159553  0.99405079  1
  Cr  Cr19  1  0.82805133  0.16132864  0.16178995  1
  Cr  Cr20  1  0.66029031  0.99520872  0.32921399  1
  Cr  Cr21  1  0.66401088  0.32905588  0.99473371  1
  Cr  Cr22  1  0.82869843  0.49581425  0.16484946  1
  Ni  Ni23  1  0.66295647  0.33098220  0.33096480  1
  Cr  Cr24  1  0.66085641  0.66448610  0.99306219  1
  Cr  Cr25  1  0.82795457  0.82883292  0.16080561  1
  Ni  Ni26  1  0.66280250  0.65932618  0.32837432  1
  Cr  Cr27  1  0.16437530  0.16311823  0.49611266  1
  Cr  Cr28  1  0.99522927  0.99436051  0.66148046  1
  Cr  Cr29  1  0.16342847  0.16165767  0.82804683  1
  Cr  Cr30  1  0.16045630  0.49585018  0.49391984  1
  Cr  Cr31  1  0.99393213  0.33151144  0.66120664  1
  Cr  Cr32  1  0.16141809  0.49671516  0.82843407  1
  Cr  Cr33  1  0.16057863  0.82703414  0.49557301  1
  Ni  Ni34  1  0.99330945  0.66062219  0.66367742  1
  Cr  Cr35  1  0.16035776  0.82766179  0.82845630  1
  Ni  Ni36  1  0.49580352  0.16310635  0.49647681  1
  Ni  Ni37  1  0.33212367  -0.00361528  0.66222140  1
  Cr  Cr38  1  0.49564991  0.15990453  0.82628163  1
  Cr  Cr39  1  0.49633110  0.49238507  0.49239869  1
  Fe  Fe40  1  0.32956712  0.32611795  0.66059938  1
  Cr  Cr41  1  0.49475577  0.49562520  0.82890835  1
  Cr  Cr42  1  0.49625842  0.83055076  0.49562204  1
  Cr  Cr43  1  0.32844256  0.66420947  0.66313276  1
  Ni  Ni44  1  0.49759227  0.83056800  0.82904719  1
  Fe  Fe45  1  0.82592582  0.16458917  0.49438016  1
  Ni  Ni46  1  0.65881371  -0.00460564  0.66277928  1
  Cr  Cr47  1  0.82695362  0.15881360  0.83049116  1
  Ni  Ni48  1  0.82974075  0.49483516  0.49258274  1
  Cr  Cr49  1  0.66339809  0.32861455  0.66081151  1
  Ni  Ni50  1  0.83062551  0.49922364  0.82829058  1
  Cr  Cr51  1  0.82918979  0.82668469  0.49582609  1
  Cr  Cr52  1  0.66481828  0.66278122  0.66430731  1
  Ni  Ni53  1  0.82753681  0.82759289  0.82940372  1
" 