4347,Ni30Fe63Cr6_2,-234.561711356048, 203.254355306657,Ni30Fe63Cr6,"# generated using pymatgen
 data_Cr2Fe17Ni8
_symmetry_space_group_name_H-M   'P 1'
_cell_length_a   7.41267307
_cell_length_b   7.41267307
_cell_length_c   10.48310279
_cell_angle_alpha   90.00000000
_cell_angle_beta   90.00000000
_cell_angle_gamma   90.00000000
_symmetry_Int_Tables_number   1
_chemical_formula_structural   Cr2Fe17Ni8
_chemical_formula_sum   'Cr4 Fe34 Ni16'
_cell_volume   576.02261912
_cell_formula_units_Z   2
loop_
 _symmetry_equiv_pos_site_id
 _symmetry_equiv_pos_as_xyz
  1  'x, y, z'
loop_
 _atom_site_type_symbol
 _atom_site_label
 _atom_site_symmetry_multiplicity
 _atom_site_fract_x
 _atom_site_fract_y
 _atom_site_fract_z
 _atom_site_occupancy
  Ni  Ni0  1  1.00203235  0.00452050  0.00433224  1
  Fe  Fe1  1  0.16960434  0.16902540  0.16924530  1
  Ni  Ni2  1  1.00292067  1.00366714  0.33756856  1
  Ni  Ni3  1  1.00345609  0.33568160  1.00303063  1
  Cr  Cr4  1  0.16964024  0.50390866  0.16882349  1
  Fe  Fe5  1  1.00307393  0.33649779  0.33810597  1
  Ni  Ni6  1  1.00258530  0.67080018  0.00436356  1
  Fe  Fe7  1  0.16807629  0.83786110  0.17038275  1
  Fe  Fe8  1  1.00334214  0.67156442  0.33776263  1
  Fe  Fe9  1  0.33534774  0.00552364  1.00340820  1
  Fe  Fe10  1  0.50384865  0.17294642  0.17013764  1
  Fe  Fe11  1  0.33583321  1.00354555  0.33816684  1
  Ni  Ni12  1  0.33786801  0.33740776  1.00285213  1
  Fe  Fe13  1  0.50505863  0.50226877  0.17031141  1
  Fe  Fe14  1  0.33645462  0.33557920  0.33665886  1
  Ni  Ni15  1  0.33821036  0.66854560  1.00266333  1
  Cr  Cr16  1  0.50265657  0.83672113  0.16983287  1
  Ni  Ni17  1  0.33698232  0.67069951  0.33837464  1
  Fe  Fe18  1  0.67142740  0.00435148  1.00231903  1
  Fe  Fe19  1  0.83754829  0.17055414  0.17071685  1
  Fe  Fe20  1  0.67115514  0.00381297  0.33902959  1
  Fe  Fe21  1  0.67094213  0.33785701  0.00414733  1
  Ni  Ni22  1  0.83595970  0.50271877  0.17061571  1
  Fe  Fe23  1  0.67147186  0.33624503  0.33597641  1
  Fe  Fe24  1  0.67188140  0.66879240  1.00311200  1
  Fe  Fe25  1  0.83939012  0.83664812  0.17042302  1
  Fe  Fe26  1  0.67207769  0.67094658  0.33707273  1
  Fe  Fe27  1  0.16955347  0.16965378  0.50414353  1
  Fe  Fe28  1  1.00237116  0.00496305  0.66909945  1
  Ni  Ni29  1  0.16992378  0.17224818  0.83764824  1
  Ni  Ni30  1  0.16925386  0.50397494  0.50472901  1
  Ni  Ni31  1  0.00414454  0.33715358  0.66979486  1
  Fe  Fe32  1  0.17026069  0.50136966  0.83730535  1
  Ni  Ni33  1  0.17074699  0.83647835  0.50265640  1
  Fe  Fe34  1  1.00251065  0.66965042  0.66931945  1
  Cr  Cr35  1  0.17037753  0.83749341  0.83836495  1
  Fe  Fe36  1  0.50401328  0.16761089  0.50386579  1
  Fe  Fe37  1  0.33775229  0.00475744  0.66943356  1
  Fe  Fe38  1  0.50302280  0.17012962  0.83699794  1
  Cr  Cr39  1  0.50298675  0.50442317  0.50227052  1
  Fe  Fe40  1  0.33583457  0.33568840  0.67174009  1
  Fe  Fe41  1  0.50245608  0.50342130  0.83736988  1
  Ni  Ni42  1  0.50351754  0.83846138  0.50472943  1
  Fe  Fe43  1  0.33690530  0.67056220  0.66952123  1
  Fe  Fe44  1  0.50482245  0.83745033  0.83662643  1
  Ni  Ni45  1  0.83706919  0.16973045  0.50396895  1
  Ni  Ni46  1  0.67000431  1.00301579  0.66933023  1
  Fe  Fe47  1  0.83803816  0.17006746  0.83638739  1
  Fe  Fe48  1  0.83925563  0.50431752  0.50345826  1
  Fe  Fe49  1  0.67179258  0.33554434  0.67087789  1
  Fe  Fe50  1  0.83829004  0.50316327  0.83776332  1
  Ni  Ni51  1  0.83673920  0.83869223  0.50355663  1
  Fe  Fe52  1  0.67158583  0.67157010  0.67081651  1
  Fe  Fe53  1  0.83598054  0.83777224  0.83684539  1
" 