1293,Ni30Fe63Cr6_5,-234.105548339986, 200.983185684591,Ni30Fe63Cr6,"# generated using pymatgen
 data_Cr2Fe17Ni8
_symmetry_space_group_name_H-M   'P 1'
_cell_length_a   7.41069591
_cell_length_b   7.41069591
_cell_length_c   10.48030667
_cell_angle_alpha   90.00000000
_cell_angle_beta   90.00000000
_cell_angle_gamma   90.00000000
_symmetry_Int_Tables_number   1
_chemical_formula_structural   Cr2Fe17Ni8
_chemical_formula_sum   'Cr4 Fe34 Ni16'
_cell_volume   575.56181985
_cell_formula_units_Z   2
loop_
 _symmetry_equiv_pos_site_id
 _symmetry_equiv_pos_as_xyz
  1  'x, y, z'
loop_
 _atom_site_type_symbol
 _atom_site_label
 _atom_site_symmetry_multiplicity
 _atom_site_fract_x
 _atom_site_fract_y
 _atom_site_fract_z
 _atom_site_occupancy
  Ni  Ni0  1  1.00319667  0.00579776  1.00269186  1
  Fe  Fe1  1  0.16945565  0.16938494  0.16954411  1
  Fe  Fe2  1  1.00352310  0.00390368  0.33660363  1
  Fe  Fe3  1  0.00553212  0.33539402  0.00399215  1
  Ni  Ni4  1  0.17046350  0.50395387  0.17071468  1
  Fe  Fe5  1  1.00214913  0.33749045  0.33745085  1
  Cr  Cr6  1  0.00408477  0.67233747  1.00349598  1
  Fe  Fe7  1  0.17094669  0.83772267  0.17113921  1
  Fe  Fe8  1  1.00323275  0.67001325  0.33680346  1
  Fe  Fe9  1  0.33615085  1.00274081  0.00485676  1
  Fe  Fe10  1  0.50431209  0.17001680  0.17040042  1
  Ni  Ni11  1  0.33612427  1.00314618  0.33744986  1
  Ni  Ni12  1  0.33650907  0.33810008  1.00335892  1
  Fe  Fe13  1  0.50485443  0.50523464  0.16933936  1
  Cr  Cr14  1  0.33774742  0.33634322  0.33855660  1
  Ni  Ni15  1  0.33923007  0.66894090  1.00379169  1
  Fe  Fe16  1  0.50375103  0.83614857  0.17045253  1
  Fe  Fe17  1  0.33771098  0.67174613  0.33690153  1
  Fe  Fe18  1  0.67142521  1.00240320  0.00438139  1
  Fe  Fe19  1  0.83763867  0.17048312  0.16984760  1
  Fe  Fe20  1  0.66972729  0.00398944  0.33713596  1
  Fe  Fe21  1  0.67035042  0.33739713  0.00546404  1
  Fe  Fe22  1  0.83606938  0.50374684  0.17200232  1
  Ni  Ni23  1  0.67202909  0.33783254  0.33752760  1
  Ni  Ni24  1  0.66813955  0.67107081  1.00339336  1
  Ni  Ni25  1  0.83554385  0.83722872  0.17105808  1
  Ni  Ni26  1  0.67172274  0.66989060  0.33767721  1
  Ni  Ni27  1  0.17160649  0.16946007  0.50449114  1
  Fe  Fe28  1  0.00436956  0.00392765  0.67132641  1
  Ni  Ni29  1  0.16958790  0.17063183  0.83805472  1
  Fe  Fe30  1  0.16987983  0.50393618  0.50488817  1
  Fe  Fe31  1  0.00521054  0.33676209  0.66996841  1
  Ni  Ni32  1  0.17234068  0.50346383  0.83604724  1
  Fe  Fe33  1  0.17097623  0.83767701  0.50383321  1
  Fe  Fe34  1  0.00494721  0.67071789  0.66973260  1
  Fe  Fe35  1  0.17097779  0.83816240  0.83642772  1
  Ni  Ni36  1  0.50354627  0.16887973  0.50401703  1
  Fe  Fe37  1  0.33632102  1.00324859  0.66875146  1
  Cr  Cr38  1  0.50300462  0.16973047  0.83765141  1
  Fe  Fe39  1  0.50493966  0.50384612  0.50443214  1
  Fe  Fe40  1  0.33592857  0.33787953  0.67008087  1
  Fe  Fe41  1  0.50150716  0.50487131  0.83763814  1
  Fe  Fe42  1  0.50343983  0.83736618  0.50370938  1
  Ni  Ni43  1  0.33712482  0.66964748  0.67066445  1
  Fe  Fe44  1  0.50332986  0.83515603  0.83724255  1
  Fe  Fe45  1  0.83690295  0.17128642  0.50418695  1
  Fe  Fe46  1  0.67071763  1.00298679  0.66989032  1
  Ni  Ni47  1  0.83857495  0.16868857  0.83732307  1
  Ni  Ni48  1  0.83706697  0.50479250  0.50241500  1
  Fe  Fe49  1  0.67027074  0.33730338  0.66820269  1
  Cr  Cr50  1  0.83743318  0.50390211  0.83828949  1
  Fe  Fe51  1  0.83698981  0.83729864  0.50317264  1
  Fe  Fe52  1  0.66959714  0.67111243  0.66951788  1
  Fe  Fe53  1  0.83709861  0.84011770  0.83732451  1
" 