5978,Ni30Fe41Cr28_18,-227.641618812416, 187.102614043384,Ni30Fe41Cr28,"# generated using pymatgen
 data_Cr8Fe11Ni8
_symmetry_space_group_name_H-M   'P 1'
_cell_length_a   7.46785189
_cell_length_b   7.46785189
_cell_length_c   10.56113742
_cell_angle_alpha   90.00000000
_cell_angle_beta   90.00000000
_cell_angle_gamma   90.00000000
_symmetry_Int_Tables_number   1
_chemical_formula_structural   Cr8Fe11Ni8
_chemical_formula_sum   'Cr16 Fe22 Ni16'
_cell_volume   588.98208574
_cell_formula_units_Z   2
loop_
 _symmetry_equiv_pos_site_id
 _symmetry_equiv_pos_as_xyz
  1  'x, y, z'
loop_
 _atom_site_type_symbol
 _atom_site_label
 _atom_site_symmetry_multiplicity
 _atom_site_fract_x
 _atom_site_fract_y
 _atom_site_fract_z
 _atom_site_occupancy
  Fe  Fe0  1  0.99990834  0.00233175  0.99810095  1
  Ni  Ni1  1  0.16679431  0.16605777  0.16745770  1
  Fe  Fe2  1  0.00449987  0.99761219  0.33434968  1
  Fe  Fe3  1  0.00195628  0.33260852  0.99848761  1
  Fe  Fe4  1  0.16641579  0.49906538  0.16558940  1
  Cr  Cr5  1  0.00356236  0.33529439  0.33519716  1
  Fe  Fe6  1  0.00163630  0.66452242  0.00042211  1
  Fe  Fe7  1  0.16457425  0.83393582  0.16778230  1
  Ni  Ni8  1  0.00215160  0.66644954  0.33204740  1
  Cr  Cr9  1  0.33226604  0.00380107  -0.00001845  1
  Ni  Ni10  1  0.49668035  0.16809925  0.16728535  1
  Fe  Fe11  1  0.32837557  0.00058631  0.33349331  1
  Ni  Ni12  1  0.32849425  0.33241129  -0.00002192  1
  Cr  Cr13  1  0.49806344  0.49918519  0.16834600  1
  Fe  Fe14  1  0.33135536  0.33288401  0.33292642  1
  Fe  Fe15  1  0.33050937  0.66357380  0.99966729  1
  Cr  Cr16  1  0.49710592  0.83164662  0.16686754  1
  Fe  Fe17  1  0.33022235  0.66621261  0.33635319  1
  Cr  Cr18  1  0.66732923  0.00116380  0.99564814  1
  Cr  Cr19  1  0.83621453  0.16649294  0.16869359  1
  Cr  Cr20  1  0.66346292  0.99967338  0.33273535  1
  Cr  Cr21  1  0.66666117  0.33185523  0.00008940  1
  Fe  Fe22  1  0.83612926  0.50093250  0.16747744  1
  Fe  Fe23  1  0.66563023  0.33564931  0.33353840  1
  Cr  Cr24  1  0.67135557  0.66677038  0.99917074  1
  Fe  Fe25  1  0.83733319  0.83292284  0.16685176  1
  Fe  Fe26  1  0.66864274  0.66539160  0.33325636  1
  Ni  Ni27  1  0.16846280  0.16566710  0.50030557  1
  Ni  Ni28  1  0.00267250  0.00011832  0.66637934  1
  Ni  Ni29  1  0.16476102  0.16801897  0.83188981  1
  Ni  Ni30  1  0.16882002  0.50098988  0.50098416  1
  Fe  Fe31  1  0.00404350  0.33351231  0.66752679  1
  Ni  Ni32  1  0.16512160  0.49812503  0.83420045  1
  Ni  Ni33  1  0.16775466  0.83272491  0.49887994  1
  Fe  Fe34  1  0.00289326  0.66585971  0.66690999  1
  Cr  Cr35  1  0.16616215  0.83251651  0.83363192  1
  Cr  Cr36  1  0.49876259  0.16851882  0.50048645  1
  Ni  Ni37  1  0.33034892  0.99948476  0.66478986  1
  Fe  Fe38  1  0.49797849  0.16870291  0.83014030  1
  Fe  Fe39  1  0.49719411  0.50120166  0.50134728  1
  Fe  Fe40  1  0.32963783  0.33253301  0.66718919  1
  Cr  Cr41  1  0.49637907  0.49980349  0.83205289  1
  Fe  Fe42  1  0.49650114  0.83151813  0.50139410  1
  Ni  Ni43  1  0.33041435  0.66608266  0.66422311  1
  Cr  Cr44  1  0.49812741  0.83264665  0.83005608  1
  Cr  Cr45  1  0.83665996  0.16643051  0.50183439  1
  Fe  Fe46  1  0.66655578  0.00085260  0.66862353  1
  Ni  Ni47  1  0.83609364  0.16710557  0.82999955  1
  Cr  Cr48  1  0.83270830  0.50007157  0.50128672  1
  Ni  Ni49  1  0.66783283  0.33427742  0.66797290  1
  Ni  Ni50  1  0.83583798  0.49905913  0.83208750  1
  Cr  Cr51  1  0.83535825  0.83331301  0.50149005  1
  Fe  Fe52  1  0.66706761  0.66702537  0.66787450  1
  Ni  Ni53  1  0.83561183  0.83380219  0.83174154  1
" 