4423,Ni30Fe70_15,-243.093455017691, 218.839559732278,Ni30Fe70,"# generated using pymatgen
 data_Fe8Ni19
_symmetry_space_group_name_H-M   'P 1'
_cell_length_a   7.41709925
_cell_length_b   7.41709925
_cell_length_c   10.48936235
_cell_angle_alpha   90.00000000
_cell_angle_beta   90.00000000
_cell_angle_gamma   90.00000000
_symmetry_Int_Tables_number   1
_chemical_formula_structural   Fe8Ni19
_chemical_formula_sum   'Fe16 Ni38'
_cell_volume   577.05508021
_cell_formula_units_Z   2
loop_
 _symmetry_equiv_pos_site_id
 _symmetry_equiv_pos_as_xyz
  1  'x, y, z'
loop_
 _atom_site_type_symbol
 _atom_site_label
 _atom_site_symmetry_multiplicity
 _atom_site_fract_x
 _atom_site_fract_y
 _atom_site_fract_z
 _atom_site_occupancy
  Ni  Ni0  1  1.00286615  0.00405850  1.00259706  1
  Fe  Fe1  1  0.16953847  0.17122636  0.17090474  1
  Ni  Ni2  1  1.00288886  0.00363131  0.33720938  1
  Ni  Ni3  1  0.00546086  0.33603249  0.00359621  1
  Ni  Ni4  1  0.17041791  0.50511690  0.16931355  1
  Ni  Ni5  1  0.00339857  0.33658621  0.33654990  1
  Ni  Ni6  1  1.00324202  0.67022590  1.00330344  1
  Fe  Fe7  1  0.17000820  0.83671303  0.16911100  1
  Ni  Ni8  1  1.00297946  0.67018867  0.33691374  1
  Fe  Fe9  1  0.33643071  1.00295164  1.00250598  1
  Ni  Ni10  1  0.50431340  0.17001259  0.17051497  1
  Ni  Ni11  1  0.33671810  0.00369166  0.33585957  1
  Ni  Ni12  1  0.33563808  0.33663691  1.00268102  1
  Ni  Ni13  1  0.50065109  0.50223482  0.16960648  1
  Ni  Ni14  1  0.33624352  0.33701582  0.33726341  1
  Ni  Ni15  1  0.33749305  0.66902122  1.00260664  1
  Fe  Fe16  1  0.50432986  0.83617121  0.17094401  1
  Ni  Ni17  1  0.33683510  0.66984187  0.33751550  1
  Ni  Ni18  1  0.67006428  1.00193819  1.00221982  1
  Ni  Ni19  1  0.83506071  0.16760688  0.16975275  1
  Ni  Ni20  1  0.67061488  1.00261148  0.33762978  1
  Fe  Fe21  1  0.67045493  0.33673472  0.00349901  1
  Fe  Fe22  1  0.83603835  0.50263853  0.16930059  1
  Ni  Ni23  1  0.67018613  0.33669673  0.33634796  1
  Ni  Ni24  1  0.66921347  0.67128732  0.00391196  1
  Ni  Ni25  1  0.83754601  0.83739603  0.16940175  1
  Ni  Ni26  1  0.67028982  0.67033297  0.33592504  1
  Ni  Ni27  1  0.17058289  0.17215936  0.50334173  1
  Ni  Ni28  1  0.00364799  0.00381506  0.67018471  1
  Fe  Fe29  1  0.17011405  0.17087702  0.83573019  1
  Ni  Ni30  1  0.16978058  0.50422540  0.50408739  1
  Ni  Ni31  1  0.00407874  0.33636368  0.67024811  1
  Ni  Ni32  1  0.16908711  0.50482258  0.83669527  1
  Fe  Fe33  1  0.17032763  0.83946208  0.50345160  1
  Fe  Fe34  1  1.00255828  0.66973024  0.67023576  1
  Ni  Ni35  1  0.16921035  0.83505751  0.83644432  1
  Ni  Ni36  1  0.50380897  0.16897788  0.50302893  1
  Ni  Ni37  1  0.33658638  0.00416393  0.67069038  1
  Ni  Ni38  1  0.50468692  0.16926588  0.83662239  1
  Fe  Fe39  1  0.50411457  0.50257539  0.50250210  1
  Ni  Ni40  1  0.33663124  0.33701942  0.66992006  1
  Fe  Fe41  1  0.50307232  0.50307157  0.83739512  1
  Ni  Ni42  1  0.50442607  0.83771517  0.50318596  1
  Fe  Fe43  1  0.33685286  0.67015993  0.66965405  1
  Fe  Fe44  1  0.50298051  0.83550910  0.83567352  1
  Ni  Ni45  1  0.83568644  0.16873271  0.50418999  1
  Ni  Ni46  1  0.67009277  1.00242790  0.67028268  1
  Fe  Fe47  1  0.83797100  0.17072382  0.83628401  1
  Fe  Fe48  1  0.83620083  0.50213387  0.50413748  1
  Ni  Ni49  1  0.66955935  0.33740817  0.67117852  1
  Ni  Ni50  1  0.83810211  0.50402359  0.83794378  1
  Ni  Ni51  1  0.83618221  0.83657352  0.50437259  1
  Ni  Ni52  1  0.66952700  0.66997281  0.67047415  1
  Fe  Fe53  1  0.83703270  0.83625631  0.83688384  1
" 