8525,Ni30Fe29Cr40_12,-223.714982053208, 183.041351892191,Ni30Fe29Cr40,"# generated using pymatgen
 data_Cr23Fe15Ni16
_symmetry_space_group_name_H-M   'P 1'
_cell_length_a   7.48874857
_cell_length_b   7.48874857
_cell_length_c   10.59068979
_cell_angle_alpha   90.00000000
_cell_angle_beta   90.00000000
_cell_angle_gamma   90.00000000
_symmetry_Int_Tables_number   1
_chemical_formula_structural   Cr23Fe15Ni16
_chemical_formula_sum   'Cr23 Fe15 Ni16'
_cell_volume   593.94023564
_cell_formula_units_Z   1
loop_
 _symmetry_equiv_pos_site_id
 _symmetry_equiv_pos_as_xyz
  1  'x, y, z'
loop_
 _atom_site_type_symbol
 _atom_site_label
 _atom_site_symmetry_multiplicity
 _atom_site_fract_x
 _atom_site_fract_y
 _atom_site_fract_z
 _atom_site_occupancy
  Ni  Ni0  1  -0.00143614  0.00040070  0.99740433  1
  Ni  Ni1  1  0.16326875  0.16522116  0.16485058  1
  Cr  Cr2  1  0.99742490  -0.00048627  0.33565342  1
  Ni  Ni3  1  -0.00100547  0.32801734  0.99715620  1
  Cr  Cr4  1  0.16439885  0.49530092  0.16720423  1
  Ni  Ni5  1  0.00090337  0.33224295  0.33137832  1
  Cr  Cr6  1  0.99714408  0.66278191  -0.00042342  1
  Cr  Cr7  1  0.16414635  0.83384572  0.16727468  1
  Fe  Fe8  1  0.00036544  0.66378273  0.33320970  1
  Cr  Cr9  1  0.33066873  -0.00127085  0.99828967  1
  Fe  Fe10  1  0.49545075  0.16622939  0.16657490  1
  Cr  Cr11  1  0.33120275  0.00157587  0.33360575  1
  Cr  Cr12  1  0.32774102  0.33196226  0.99570769  1
  Cr  Cr13  1  0.49845463  0.49781417  0.16852238  1
  Ni  Ni14  1  0.32822856  0.33067713  0.33331761  1
  Cr  Cr15  1  0.33392914  0.66483965  0.99348662  1
  Fe  Fe16  1  0.49917644  0.83363237  0.16414337  1
  Fe  Fe17  1  0.32865210  0.66370110  0.33445982  1
  Fe  Fe18  1  0.66680328  0.99694198  -0.00055643  1
  Cr  Cr19  1  0.83466810  0.16543401  0.16217366  1
  Cr  Cr20  1  0.66699347  0.99849343  0.33200009  1
  Cr  Cr21  1  0.66695480  0.33506186  -0.00094808  1
  Fe  Fe22  1  0.83463122  0.49740303  0.16561486  1
  Fe  Fe23  1  0.66657478  0.32865451  0.33253072  1
  Ni  Ni24  1  0.66439515  0.66792039  -0.00024715  1
  Fe  Fe25  1  0.83216493  0.83240200  0.16254298  1
  Cr  Cr26  1  0.66951538  0.66622718  0.32938824  1
  Ni  Ni27  1  0.16301422  0.16720105  0.49801563  1
  Ni  Ni28  1  -0.00098654  0.00102575  0.66320197  1
  Ni  Ni29  1  0.15968266  0.16212005  0.83336703  1
  Ni  Ni30  1  0.16194085  0.49704273  0.49762975  1
  Ni  Ni31  1  -0.00124652  0.32888896  0.66606046  1
  Fe  Fe32  1  0.16214239  0.49692399  0.83069757  1
  Fe  Fe33  1  0.16271918  0.83003351  0.50023078  1
  Fe  Fe34  1  -0.00129634  0.66494963  0.66472500  1
  Ni  Ni35  1  0.16202328  0.83560275  0.82983730  1
  Ni  Ni36  1  0.49874087  0.16713499  0.49597634  1
  Cr  Cr37  1  0.32817740  0.00004411  0.66419251  1
  Cr  Cr38  1  0.50131466  0.16640627  0.83122878  1
  Cr  Cr39  1  0.49792651  0.49567059  0.49873351  1
  Cr  Cr40  1  0.32922243  0.33149711  0.66677945  1
  Ni  Ni41  1  0.50310768  0.50019196  0.82955529  1
  Cr  Cr42  1  0.49822015  0.83071987  0.50056232  1
  Cr  Cr43  1  0.33069878  0.66372533  0.66898807  1
  Fe  Fe44  1  0.49988175  0.83151665  0.83116105  1
  Fe  Fe45  1  0.83417560  0.16883808  0.49956317  1
  Cr  Cr46  1  0.66847705  0.00035615  0.66281288  1
  Fe  Fe47  1  0.83577308  0.16571780  0.83102909  1
  Cr  Cr48  1  0.83327258  0.49835159  0.49866130  1
  Ni  Ni49  1  0.66809455  0.33258144  0.66278123  1
  Cr  Cr50  1  0.83061833  0.49683896  0.83100916  1
  Fe  Fe51  1  0.83519609  0.83111316  0.50147169  1
  Ni  Ni52  1  0.66614839  0.66427748  0.66734801  1
  Cr  Cr53  1  0.83330472  0.83418253  0.83182510  1
" 