6508,Ni30Fe29Cr40_9,-223.000797855967, 174.351001446783,Ni30Fe29Cr40,"# generated using pymatgen
 data_Cr23Fe15Ni16
_symmetry_space_group_name_H-M   'P 1'
_cell_length_a   7.49326754
_cell_length_b   7.49326754
_cell_length_c   10.59708058
_cell_angle_alpha   90.00000000
_cell_angle_beta   90.00000000
_cell_angle_gamma   90.00000000
_symmetry_Int_Tables_number   1
_chemical_formula_structural   Cr23Fe15Ni16
_chemical_formula_sum   'Cr23 Fe15 Ni16'
_cell_volume   595.01609716
_cell_formula_units_Z   1
loop_
 _symmetry_equiv_pos_site_id
 _symmetry_equiv_pos_as_xyz
  1  'x, y, z'
loop_
 _atom_site_type_symbol
 _atom_site_label
 _atom_site_symmetry_multiplicity
 _atom_site_fract_x
 _atom_site_fract_y
 _atom_site_fract_z
 _atom_site_occupancy
  Fe  Fe0  1  -0.00081742  -0.00081718  0.99735202  1
  Ni  Ni1  1  0.16562252  0.16267988  0.16391782  1
  Fe  Fe2  1  0.00216708  0.99722075  0.33283587  1
  Cr  Cr3  1  -0.00114378  0.33080557  0.99665328  1
  Cr  Cr4  1  0.16667766  0.49771153  0.16593226  1
  Cr  Cr5  1  0.99570933  0.33328050  0.33292983  1
  Cr  Cr6  1  -0.00130323  0.66528998  0.99803872  1
  Fe  Fe7  1  0.16506153  0.83313778  0.16707792  1
  Ni  Ni8  1  -0.00149867  0.66509756  0.33265908  1
  Cr  Cr9  1  0.33038665  -0.00086912  0.00034519  1
  Fe  Fe10  1  0.49610592  0.16628934  0.16504452  1
  Ni  Ni11  1  0.33063394  0.99671433  0.33180538  1
  Fe  Fe12  1  0.33145925  0.33247746  -0.00171845  1
  Ni  Ni13  1  0.49925774  0.49857320  0.16503849  1
  Cr  Cr14  1  0.33349969  0.32966846  0.33135784  1
  Cr  Cr15  1  0.33141705  0.66458136  0.99573925  1
  Cr  Cr16  1  0.49817966  0.82977819  0.16467546  1
  Ni  Ni17  1  0.33067663  0.66732573  0.33328793  1
  Fe  Fe18  1  0.66659712  -0.00151652  0.99751487  1
  Cr  Cr19  1  0.83322477  0.16396523  0.16433961  1
  Cr  Cr20  1  0.66221691  0.00017496  0.33391109  1
  Cr  Cr21  1  0.66416786  0.33187642  -0.00003947  1
  Fe  Fe22  1  0.82948160  0.49937118  0.16674384  1
  Fe  Fe23  1  0.66390946  0.33449076  0.33271821  1
  Fe  Fe24  1  0.66365454  0.66357971  -0.00126596  1
  Cr  Cr25  1  0.83232615  0.83088598  0.16396184  1
  Fe  Fe26  1  0.66361369  0.66235293  0.33336040  1
  Ni  Ni27  1  0.16281827  0.16309016  0.49791991  1
  Fe  Fe28  1  0.99698443  -0.00044905  0.66451827  1
  Fe  Fe29  1  0.16306618  0.16465958  0.83222567  1
  Ni  Ni30  1  0.16517253  0.49906788  0.49732615  1
  Cr  Cr31  1  0.99804243  0.33122290  0.66515052  1
  Ni  Ni32  1  0.16793327  0.49769994  0.83196550  1
  Fe  Fe33  1  0.16494208  0.83116885  0.49598226  1
  Cr  Cr34  1  0.00023938  0.66446401  0.66403488  1
  Ni  Ni35  1  0.16335661  0.83229797  0.83210494  1
  Fe  Fe36  1  0.49872471  0.16468737  0.49791119  1
  Cr  Cr37  1  0.33198549  0.99721824  0.66262878  1
  Cr  Cr38  1  0.49959896  0.16564993  0.83178507  1
  Ni  Ni39  1  0.49849962  0.50092518  0.49628767  1
  Cr  Cr40  1  0.33059398  0.33262181  0.66610168  1
  Ni  Ni41  1  0.49501821  0.49840508  0.83346406  1
  Ni  Ni42  1  0.49844521  0.83101264  0.49726874  1
  Cr  Cr43  1  0.33026302  0.66490452  0.66527431  1
  Cr  Cr44  1  0.49990068  0.83010765  0.83183968  1
  Ni  Ni45  1  0.83261520  0.16318011  0.49933300  1
  Ni  Ni46  1  0.66678106  -0.00039569  0.66414285  1
  Ni  Ni47  1  0.83344940  0.16112716  0.83125511  1
  Ni  Ni48  1  0.83103158  0.49821953  0.49461304  1
  Cr  Cr49  1  0.66611617  0.32953173  0.66208638  1
  Cr  Cr50  1  0.83131529  0.49742511  0.83264139  1
  Fe  Fe51  1  0.83189260  0.83155384  0.49769185  1
  Cr  Cr52  1  0.66426411  0.66577563  0.66379995  1
  Cr  Cr53  1  0.83118932  0.83622535  0.83195377  1
" 