2953,Ni30Fe70_2,-243.401942034389, 220.236790759311,Ni30Fe70,"# generated using pymatgen
 data_Fe8Ni19
_symmetry_space_group_name_H-M   'P 1'
_cell_length_a   7.41374328
_cell_length_b   7.41374328
_cell_length_c   10.48461630
_cell_angle_alpha   90.00000000
_cell_angle_beta   90.00000000
_cell_angle_gamma   90.00000000
_symmetry_Int_Tables_number   1
_chemical_formula_structural   Fe8Ni19
_chemical_formula_sum   'Fe16 Ni38'
_cell_volume   576.27214590
_cell_formula_units_Z   2
loop_
 _symmetry_equiv_pos_site_id
 _symmetry_equiv_pos_as_xyz
  1  'x, y, z'
loop_
 _atom_site_type_symbol
 _atom_site_label
 _atom_site_symmetry_multiplicity
 _atom_site_fract_x
 _atom_site_fract_y
 _atom_site_fract_z
 _atom_site_occupancy
  Ni  Ni0  1  0.00397205  1.00263536  0.00361663  1
  Ni  Ni1  1  0.17019904  0.16842765  0.17038563  1
  Ni  Ni2  1  0.00427957  1.00356451  0.33670188  1
  Fe  Fe3  1  1.00307382  0.33701398  0.00359747  1
  Fe  Fe4  1  0.16984363  0.50317609  0.17012499  1
  Ni  Ni5  1  0.00421952  0.33635529  0.33610780  1
  Ni  Ni6  1  0.00476968  0.67169152  0.00382610  1
  Ni  Ni7  1  0.16938035  0.83810631  0.17071175  1
  Fe  Fe8  1  1.00282608  0.67049424  0.33662737  1
  Fe  Fe9  1  0.33609121  1.00315864  0.00378302  1
  Ni  Ni10  1  0.50315066  0.17143663  0.17054525  1
  Ni  Ni11  1  0.33644064  0.00391844  0.33643750  1
  Fe  Fe12  1  0.33695729  0.33699602  1.00359285  1
  Ni  Ni13  1  0.50527678  0.50306975  0.17074813  1
  Ni  Ni14  1  0.33715654  0.33666084  0.33596156  1
  Ni  Ni15  1  0.33640046  0.67020626  1.00357797  1
  Fe  Fe16  1  0.50414622  0.83734802  0.17072580  1
  Fe  Fe17  1  0.33769493  0.67062890  0.33660163  1
  Fe  Fe18  1  0.67066583  1.00356163  1.00352879  1
  Ni  Ni19  1  0.83743282  0.17091150  0.17106080  1
  Ni  Ni20  1  0.67006272  1.00308839  0.33618254  1
  Ni  Ni21  1  0.66929408  0.33682507  1.00359486  1
  Ni  Ni22  1  0.83560835  0.50389009  0.17034547  1
  Ni  Ni23  1  0.66941021  0.33755057  0.33737210  1
  Fe  Fe24  1  0.67068328  0.66967488  0.00366405  1
  Ni  Ni25  1  0.83861579  0.83598221  0.17034585  1
  Ni  Ni26  1  0.66976011  0.67014661  0.33587993  1
  Ni  Ni27  1  0.17032900  0.16855763  0.50357205  1
  Ni  Ni28  1  0.00375359  1.00297197  0.67046695  1
  Ni  Ni29  1  0.16961611  0.16852249  0.83682518  1
  Fe  Fe30  1  0.17107426  0.50288993  0.50389645  1
  Ni  Ni31  1  0.00449665  0.33676860  0.67132639  1
  Fe  Fe32  1  0.17065331  0.50341120  0.83676463  1
  Ni  Ni33  1  0.17030546  0.83841002  0.50359149  1
  Ni  Ni34  1  0.00369112  0.67104480  0.67055808  1
  Ni  Ni35  1  0.17042092  0.83791548  0.83648117  1
  Ni  Ni36  1  0.50287530  0.17067716  0.50381493  1
  Fe  Fe37  1  0.33685873  0.00399516  0.66977675  1
  Ni  Ni38  1  0.50345567  0.17070220  0.83642143  1
  Ni  Ni39  1  0.50586406  0.50352436  0.50391931  1
  Ni  Ni40  1  0.33743604  0.33707300  0.67098492  1
  Ni  Ni41  1  0.50556115  0.50396430  0.83611869  1
  Ni  Ni42  1  0.50260489  0.83658434  0.50303494  1
  Fe  Fe43  1  0.33739541  0.67039589  0.67088549  1
  Ni  Ni44  1  0.50226883  0.83611727  0.83706020  1
  Fe  Fe45  1  0.83651007  0.17010964  0.50366284  1
  Ni  Ni46  1  0.67028102  1.00329425  0.67068180  1
  Ni  Ni47  1  0.83771130  0.17181645  0.83645259  1
  Ni  Ni48  1  0.83575199  0.50354394  0.50337267  1
  Ni  Ni49  1  0.66885575  0.33713455  0.66981890  1
  Ni  Ni50  1  0.83591650  0.50316243  0.83706879  1
  Fe  Fe51  1  0.83613566  0.83711107  0.50333998  1
  Ni  Ni52  1  0.66998241  0.67035754  0.67163223  1
  Fe  Fe53  1  0.83691135  0.83755318  0.83695162  1
" 