5815,Ni30Fe63Cr6_7,-233.912442075473, 201.406339694173,Ni30Fe63Cr6,"# generated using pymatgen
 data_Cr2Fe17Ni8
_symmetry_space_group_name_H-M   'P 1'
_cell_length_a   7.41090111
_cell_length_b   7.41090111
_cell_length_c   10.48059686
_cell_angle_alpha   90.00000000
_cell_angle_beta   90.00000000
_cell_angle_gamma   90.00000000
_symmetry_Int_Tables_number   1
_chemical_formula_structural   Cr2Fe17Ni8
_chemical_formula_sum   'Cr4 Fe34 Ni16'
_cell_volume   575.60963243
_cell_formula_units_Z   2
loop_
 _symmetry_equiv_pos_site_id
 _symmetry_equiv_pos_as_xyz
  1  'x, y, z'
loop_
 _atom_site_type_symbol
 _atom_site_label
 _atom_site_symmetry_multiplicity
 _atom_site_fract_x
 _atom_site_fract_y
 _atom_site_fract_z
 _atom_site_occupancy
  Fe  Fe0  1  0.00399141  1.00157579  1.00361301  1
  Fe  Fe1  1  0.17184332  0.16852463  0.17088124  1
  Fe  Fe2  1  0.00398251  0.00490188  0.33813761  1
  Cr  Cr3  1  1.00225587  0.33724237  0.00433192  1
  Cr  Cr4  1  0.17230202  0.50425426  0.16994694  1
  Ni  Ni5  1  1.00225701  0.33608371  0.33784870  1
  Fe  Fe6  1  0.00403608  0.67279335  1.00180184  1
  Fe  Fe7  1  0.17306431  0.83892213  0.17008098  1
  Fe  Fe8  1  1.00362114  0.66991606  0.33952536  1
  Ni  Ni9  1  0.33800125  1.00238125  0.00529103  1
  Ni  Ni10  1  0.50397926  0.17198779  0.16926637  1
  Fe  Fe11  1  0.33709730  0.00468536  0.33645025  1
  Fe  Fe12  1  0.34119234  0.33728172  1.00361239  1
  Ni  Ni13  1  0.50481496  0.50175573  0.17056517  1
  Fe  Fe14  1  0.33814988  0.33659952  0.33792915  1
  Fe  Fe15  1  0.33819431  0.67128400  1.00254826  1
  Fe  Fe16  1  0.50216772  0.83699619  0.16999379  1
  Fe  Fe17  1  0.33752000  0.67007676  0.33839995  1
  Fe  Fe18  1  0.66942728  0.00457992  1.00330336  1
  Fe  Fe19  1  0.83582027  0.17230696  0.17162719  1
  Fe  Fe20  1  0.67028360  0.00553391  0.33790764  1
  Fe  Fe21  1  0.66791853  0.33723955  0.00457029  1
  Fe  Fe22  1  0.83390362  0.50238681  0.17132888  1
  Ni  Ni23  1  0.67186996  0.33742686  0.33598960  1
  Ni  Ni24  1  0.66914386  0.67000593  0.00396423  1
  Cr  Cr25  1  0.83789142  0.83743445  0.17014175  1
  Fe  Fe26  1  0.67022526  0.66887217  0.33763521  1
  Fe  Fe27  1  0.16976243  0.17065707  0.50408759  1
  Fe  Fe28  1  1.00357470  1.00197991  0.66961275  1
  Cr  Cr29  1  0.17161583  0.16968172  0.83561505  1
  Ni  Ni30  1  0.17088363  0.50368985  0.50538134  1
  Ni  Ni31  1  1.00374392  0.33780624  0.66900476  1
  Fe  Fe32  1  0.17147232  0.50617791  0.83526171  1
  Ni  Ni33  1  0.16875078  0.83648880  0.50357332  1
  Ni  Ni34  1  0.00381004  0.66994153  0.67102538  1
  Ni  Ni35  1  0.16893366  0.83581152  0.83773441  1
  Fe  Fe36  1  0.50332966  0.17018523  0.50326067  1
  Fe  Fe37  1  0.33700877  1.00227606  0.67021732  1
  Fe  Fe38  1  0.50433659  0.17033139  0.83763709  1
  Fe  Fe39  1  0.50335429  0.50477666  0.50417089  1
  Ni  Ni40  1  0.33654647  0.33752975  0.66976286  1
  Ni  Ni41  1  0.50406381  0.50302426  0.83740616  1
  Fe  Fe42  1  0.50344295  0.83640440  0.50410738  1
  Ni  Ni43  1  0.33728351  0.67102833  0.67112311  1
  Fe  Fe44  1  0.50328825  0.83654573  0.83726667  1
  Fe  Fe45  1  0.83827078  0.17056603  0.50346396  1
  Fe  Fe46  1  0.67077807  1.00332755  0.67015143  1
  Fe  Fe47  1  0.83526863  0.16996244  0.83627056  1
  Fe  Fe48  1  0.83831277  0.50446213  0.50381669  1
  Fe  Fe49  1  0.67015017  0.33845360  0.67040209  1
  Fe  Fe50  1  0.83661919  0.50514409  0.83621836  1
  Ni  Ni51  1  0.83776687  0.83752976  0.50476208  1
  Ni  Ni52  1  0.67026928  0.67146836  0.66971862  1
  Fe  Fe53  1  0.83696564  0.83625814  0.83681312  1
" 