661,Ni30Fe70_18,-242.907974789934, 218.670827135998,Ni30Fe70,"# generated using pymatgen
 data_Fe8Ni19
_symmetry_space_group_name_H-M   'P 1'
_cell_length_a   7.41079317
_cell_length_b   7.41079317
_cell_length_c   10.48044421
_cell_angle_alpha   90.00000000
_cell_angle_beta   90.00000000
_cell_angle_gamma   90.00000000
_symmetry_Int_Tables_number   1
_chemical_formula_structural   Fe8Ni19
_chemical_formula_sum   'Fe16 Ni38'
_cell_volume   575.58448022
_cell_formula_units_Z   2
loop_
 _symmetry_equiv_pos_site_id
 _symmetry_equiv_pos_as_xyz
  1  'x, y, z'
loop_
 _atom_site_type_symbol
 _atom_site_label
 _atom_site_symmetry_multiplicity
 _atom_site_fract_x
 _atom_site_fract_y
 _atom_site_fract_z
 _atom_site_occupancy
  Fe  Fe0  1  1.00243456  0.00439566  0.00439054  1
  Fe  Fe1  1  0.17094015  0.17023463  0.17147811  1
  Ni  Ni2  1  1.00345573  1.00333201  0.33653085  1
  Fe  Fe3  1  1.00246590  0.33651792  0.00499660  1
  Ni  Ni4  1  0.17051898  0.50405928  0.17099898  1
  Ni  Ni5  1  1.00344703  0.33755001  0.33724306  1
  Ni  Ni6  1  0.00429284  0.67063860  0.00427616  1
  Ni  Ni7  1  0.17004685  0.83713378  0.17003244  1
  Fe  Fe8  1  1.00346493  0.67024456  0.33642539  1
  Ni  Ni9  1  0.33761655  0.00465107  1.00372613  1
  Ni  Ni10  1  0.50353481  0.17065492  0.17058877  1
  Ni  Ni11  1  0.33729253  1.00339385  0.33741234  1
  Ni  Ni12  1  0.33689344  0.33631081  0.00498787  1
  Ni  Ni13  1  0.50378579  0.50308758  0.17073446  1
  Ni  Ni14  1  0.33715996  0.33759137  0.33661318  1
  Fe  Fe15  1  0.33985833  0.67060538  0.00484924  1
  Ni  Ni16  1  0.50375021  0.83754253  0.17120392  1
  Ni  Ni17  1  0.33589670  0.67022574  0.33623302  1
  Ni  Ni18  1  0.66984669  0.00421174  1.00377466  1
  Ni  Ni19  1  0.83681550  0.17022506  0.17149043  1
  Ni  Ni20  1  0.67060989  0.00431939  0.33684000  1
  Ni  Ni21  1  0.66974389  0.33604688  1.00323900  1
  Ni  Ni22  1  0.83725586  0.50383986  0.17029083  1
  Ni  Ni23  1  0.67056279  0.33648657  0.33696053  1
  Ni  Ni24  1  0.67288368  0.67095031  0.00403158  1
  Ni  Ni25  1  0.83772612  0.83727082  0.17061852  1
  Fe  Fe26  1  0.66973102  0.67001522  0.33674018  1
  Ni  Ni27  1  0.17112349  0.16985886  0.50283273  1
  Fe  Fe28  1  1.00376365  1.00346875  0.66936357  1
  Ni  Ni29  1  0.17016568  0.17131295  0.83759184  1
  Fe  Fe30  1  0.17097686  0.50324256  0.50303687  1
  Fe  Fe31  1  1.00342244  0.33808334  0.66920742  1
  Fe  Fe32  1  0.17060295  0.50329720  0.83821914  1
  Fe  Fe33  1  0.17134669  0.83636826  0.50258560  1
  Ni  Ni34  1  0.00478070  0.67138590  0.67014658  1
  Fe  Fe35  1  0.17114253  0.83817747  0.83836078  1
  Ni  Ni36  1  0.50138445  0.17162235  0.50452756  1
  Fe  Fe37  1  0.33835829  1.00359443  0.67098658  1
  Ni  Ni38  1  0.50275014  0.17125182  0.83653272  1
  Ni  Ni39  1  0.50390892  0.50344173  0.50366228  1
  Ni  Ni40  1  0.33645163  0.33766795  0.67016057  1
  Ni  Ni41  1  0.50308769  0.50391467  0.83725574  1
  Fe  Fe42  1  0.50464745  0.83686215  0.50406048  1
  Ni  Ni43  1  0.33543358  0.66934954  0.67177435  1
  Ni  Ni44  1  0.50526197  0.83613879  0.83632824  1
  Fe  Fe45  1  0.83554522  0.17130042  0.50283668  1
  Ni  Ni46  1  0.67143311  0.00418623  0.67040612  1
  Ni  Ni47  1  0.83832584  0.16912232  0.83539510  1
  Ni  Ni48  1  0.83634837  0.50583919  0.50425614  1
  Ni  Ni49  1  0.66943575  0.33629038  0.67090276  1
  Fe  Fe50  1  0.83553711  0.50327481  0.83691485  1
  Ni  Ni51  1  0.83840233  0.83645620  0.50289388  1
  Ni  Ni52  1  0.67128156  0.67098266  0.67058430  1
  Ni  Ni53  1  0.83800464  0.83692727  0.83742405  1
" 