6892,Ni30Fe63Cr6_14,-234.044972075841, 204.664183440607,Ni30Fe63Cr6,"# generated using pymatgen
 data_Cr2Fe17Ni8
_symmetry_space_group_name_H-M   'P 1'
_cell_length_a   7.41058698
_cell_length_b   7.41058698
_cell_length_c   10.48015262
_cell_angle_alpha   90.00000000
_cell_angle_beta   90.00000000
_cell_angle_gamma   90.00000000
_symmetry_Int_Tables_number   1
_chemical_formula_structural   Cr2Fe17Ni8
_chemical_formula_sum   'Cr4 Fe34 Ni16'
_cell_volume   575.53643943
_cell_formula_units_Z   2
loop_
 _symmetry_equiv_pos_site_id
 _symmetry_equiv_pos_as_xyz
  1  'x, y, z'
loop_
 _atom_site_type_symbol
 _atom_site_label
 _atom_site_symmetry_multiplicity
 _atom_site_fract_x
 _atom_site_fract_y
 _atom_site_fract_z
 _atom_site_occupancy
  Ni  Ni0  1  1.00225949  1.00339803  0.00551920  1
  Fe  Fe1  1  0.16827348  0.17058036  0.17142216  1
  Fe  Fe2  1  0.00387345  0.00387219  0.33648283  1
  Fe  Fe3  1  0.00435495  0.33666945  0.00473677  1
  Fe  Fe4  1  0.17098920  0.50339712  0.17063274  1
  Fe  Fe5  1  1.00376943  0.33718792  0.33758775  1
  Fe  Fe6  1  0.00389505  0.67089050  1.00309696  1
  Fe  Fe7  1  0.16979333  0.83745449  0.17120099  1
  Fe  Fe8  1  0.00383107  0.67037021  0.33805013  1
  Cr  Cr9  1  0.33667258  0.00520529  1.00199109  1
  Cr  Cr10  1  0.50541530  0.16958020  0.17005391  1
  Ni  Ni11  1  0.33590913  0.00447581  0.33831563  1
  Ni  Ni12  1  0.33625510  0.33902493  1.00344169  1
  Fe  Fe13  1  0.50418253  0.50541965  0.16984829  1
  Fe  Fe14  1  0.33653896  0.33764779  0.33829233  1
  Fe  Fe15  1  0.33753705  0.66937925  1.00341114  1
  Ni  Ni16  1  0.50396490  0.83515542  0.17093397  1
  Fe  Fe17  1  0.33761287  0.67104770  0.33731340  1
  Ni  Ni18  1  0.67291807  1.00189306  0.00460326  1
  Ni  Ni19  1  0.83871113  0.17004537  0.17072894  1
  Fe  Fe20  1  0.67044432  1.00279168  0.33708332  1
  Fe  Fe21  1  0.67057036  0.33770602  1.00349544  1
  Fe  Fe22  1  0.83625786  0.50389814  0.17086894  1
  Fe  Fe23  1  0.67112288  0.33768821  0.33818832  1
  Fe  Fe24  1  0.66999575  0.67088758  1.00366257  1
  Fe  Fe25  1  0.83628757  0.83811023  0.17014112  1
  Ni  Ni26  1  0.67097107  0.67003371  0.33696637  1
  Ni  Ni27  1  0.17055500  0.16957045  0.50275300  1
  Fe  Fe28  1  0.00511491  1.00199810  0.67009890  1
  Fe  Fe29  1  0.17049589  0.17141680  0.83726672  1
  Ni  Ni30  1  0.16862943  0.50512113  0.50375423  1
  Fe  Fe31  1  1.00295940  0.33981457  0.66910679  1
  Fe  Fe32  1  0.16986766  0.50462449  0.83740054  1
  Fe  Fe33  1  0.17065199  0.83705403  0.50412753  1
  Ni  Ni34  1  1.00233529  0.67032520  0.67030854  1
  Fe  Fe35  1  0.16915803  0.83539336  0.83610030  1
  Ni  Ni36  1  0.50412368  0.16844906  0.50360128  1
  Fe  Fe37  1  0.33714186  1.00126452  0.66959670  1
  Fe  Fe38  1  0.50428333  0.17152389  0.83730153  1
  Fe  Fe39  1  0.50435437  0.50418538  0.50367947  1
  Cr  Cr40  1  0.33693094  0.33691980  0.67021211  1
  Ni  Ni41  1  0.50433001  0.50546326  0.83842698  1
  Fe  Fe42  1  0.50331996  0.83682501  0.50320395  1
  Ni  Ni43  1  0.33721438  0.67120573  0.67012722  1
  Fe  Fe44  1  0.50552337  0.83538985  0.83659781  1
  Fe  Fe45  1  0.83764952  0.17141408  0.50347485  1
  Fe  Fe46  1  0.66917292  1.00206037  0.67003163  1
  Cr  Cr47  1  0.83698549  0.17112419  0.83662308  1
  Ni  Ni48  1  0.83809475  0.50419804  0.50471280  1
  Fe  Fe49  1  0.67132445  0.33975339  0.66974735  1
  Ni  Ni50  1  0.83700541  0.50518870  0.83723776  1
  Fe  Fe51  1  0.83745524  0.83653825  0.50412723  1
  Ni  Ni52  1  0.67187818  0.67032089  0.67085555  1
  Fe  Fe53  1  0.83674836  0.83475785  0.83716757  1
" 