8147,Ni30Fe44Cr25_12,-227.963197501784, 187.741840626256,Ni30Fe44Cr25,"# generated using pymatgen
 data_Cr15Fe23Ni16
_symmetry_space_group_name_H-M   'P 1'
_cell_length_a   7.45747673
_cell_length_b   7.45747673
_cell_length_c   10.54646473
_cell_angle_alpha   90.00000000
_cell_angle_beta   90.00000000
_cell_angle_gamma   90.00000000
_symmetry_Int_Tables_number   1
_chemical_formula_structural   Cr15Fe23Ni16
_chemical_formula_sum   'Cr15 Fe23 Ni16'
_cell_volume   586.53065851
_cell_formula_units_Z   1
loop_
 _symmetry_equiv_pos_site_id
 _symmetry_equiv_pos_as_xyz
  1  'x, y, z'
loop_
 _atom_site_type_symbol
 _atom_site_label
 _atom_site_symmetry_multiplicity
 _atom_site_fract_x
 _atom_site_fract_y
 _atom_site_fract_z
 _atom_site_occupancy
  Fe  Fe0  1  0.00140624  1.00012118  1.00005512  1
  Fe  Fe1  1  0.16550434  0.16832983  0.16843773  1
  Fe  Fe2  1  0.99888620  0.99990262  0.33358858  1
  Ni  Ni3  1  0.00211869  0.33544340  0.00191557  1
  Fe  Fe4  1  0.16443542  0.50136728  0.16712360  1
  Ni  Ni5  1  0.99971692  0.33649493  0.33261667  1
  Ni  Ni6  1  0.00177914  0.66727762  1.00017900  1
  Cr  Cr7  1  0.16745134  0.83350885  0.16734073  1
  Ni  Ni8  1  1.00040942  0.66643243  0.33564078  1
  Cr  Cr9  1  0.33379611  1.00037816  0.99950013  1
  Fe  Fe10  1  0.50139196  0.16484705  0.16988838  1
  Fe  Fe11  1  0.33511334  0.00110007  0.33347913  1
  Cr  Cr12  1  0.33246318  0.33472471  0.99927566  1
  Cr  Cr13  1  0.50087273  0.50339673  0.16649009  1
  Fe  Fe14  1  0.33346758  0.33430892  0.33381758  1
  Ni  Ni15  1  0.33113039  0.66715203  0.99967860  1
  Ni  Ni16  1  0.50234943  0.83336890  0.16905238  1
  Fe  Fe17  1  0.33360895  0.66651849  0.33494071  1
  Cr  Cr18  1  0.66774524  1.00026237  0.00179825  1
  Fe  Fe19  1  0.83502721  0.16710796  0.16893529  1
  Fe  Fe20  1  0.66792731  0.99975959  0.33287499  1
  Cr  Cr21  1  0.66713688  0.33290330  0.00093700  1
  Fe  Fe22  1  0.83649765  0.50218284  0.16865264  1
  Ni  Ni23  1  0.66744323  0.33218444  0.33411486  1
  Fe  Fe24  1  0.66821745  0.66814079  0.00146366  1
  Ni  Ni25  1  0.83276814  0.83371494  0.16696253  1
  Fe  Fe26  1  0.66982442  0.66745385  0.33522566  1
  Cr  Cr27  1  0.16810506  0.16798177  0.50128309  1
  Cr  Cr28  1  0.00209700  0.99839327  0.66957522  1
  Ni  Ni29  1  0.16808567  0.16822171  0.83348277  1
  Fe  Fe30  1  0.16631806  0.50194887  0.50009584  1
  Fe  Fe31  1  0.00350838  0.33646339  0.66762343  1
  Ni  Ni32  1  0.16873231  0.50024749  0.83436317  1
  Fe  Fe33  1  0.16739748  0.83175701  0.49966538  1
  Cr  Cr34  1  0.00202673  0.66745697  0.66579366  1
  Ni  Ni35  1  0.16823949  0.83345984  0.83450892  1
  Fe  Fe36  1  0.50070679  0.16760157  0.49948775  1
  Fe  Fe37  1  0.33425076  0.99995744  0.66837735  1
  Ni  Ni38  1  0.49688683  0.16831811  0.83188730  1
  Fe  Fe39  1  0.50149437  0.50179715  0.50020611  1
  Fe  Fe40  1  0.33345483  0.33516174  0.66913699  1
  Fe  Fe41  1  0.49680572  0.50141823  0.83307912  1
  Fe  Fe42  1  0.50103038  0.83252221  0.50030856  1
  Ni  Ni43  1  0.33378280  0.66631309  0.66672962  1
  Cr  Cr44  1  0.49937860  0.83071249  0.83435467  1
  Cr  Cr45  1  0.83463312  0.16919457  0.49917316  1
  Cr  Cr46  1  0.66593710  0.99995281  0.66672120  1
  Cr  Cr47  1  0.83712137  0.16767695  0.83402927  1
  Ni  Ni48  1  0.83308765  0.50258775  0.49835444  1
  Cr  Cr49  1  0.66487448  0.33479365  0.66723443  1
  Cr  Cr50  1  0.83411224  0.50218333  0.83499118  1
  Ni  Ni51  1  0.83221337  0.83031918  0.49907841  1
  Ni  Ni52  1  0.66544715  0.66712354  0.66583415  1
  Fe  Fe53  1  0.83643505  0.83270426  0.83529115  1
" 