3170,Ni30Fe63Cr6_8,-234.242009634689, 199.492523512006,Ni30Fe63Cr6,"# generated using pymatgen
 data_Cr2Fe17Ni8
_symmetry_space_group_name_H-M   'P 1'
_cell_length_a   7.41545968
_cell_length_b   7.41545968
_cell_length_c   10.48704365
_cell_angle_alpha   90.00000000
_cell_angle_beta   90.00000000
_cell_angle_gamma   90.00000000
_symmetry_Int_Tables_number   1
_chemical_formula_structural   Cr2Fe17Ni8
_chemical_formula_sum   'Cr4 Fe34 Ni16'
_cell_volume   576.67248638
_cell_formula_units_Z   2
loop_
 _symmetry_equiv_pos_site_id
 _symmetry_equiv_pos_as_xyz
  1  'x, y, z'
loop_
 _atom_site_type_symbol
 _atom_site_label
 _atom_site_symmetry_multiplicity
 _atom_site_fract_x
 _atom_site_fract_y
 _atom_site_fract_z
 _atom_site_occupancy
  Ni  Ni0  1  0.00353301  1.00146549  0.00352304  1
  Ni  Ni1  1  0.17014605  0.16835109  0.16940308  1
  Ni  Ni2  1  1.00295958  1.00238421  0.33563389  1
  Fe  Fe3  1  0.00588528  0.33631684  0.00378196  1
  Fe  Fe4  1  0.16883923  0.50298628  0.16856525  1
  Fe  Fe5  1  0.00502373  0.33573777  0.33581750  1
  Ni  Ni6  1  1.00298102  0.67162501  1.00334645  1
  Fe  Fe7  1  0.16907712  0.83690014  0.16965580  1
  Fe  Fe8  1  1.00264730  0.67082720  0.33554395  1
  Ni  Ni9  1  0.33510763  0.00471542  1.00296537  1
  Fe  Fe10  1  0.50277931  0.16875099  0.16860750  1
  Fe  Fe11  1  0.33667141  1.00294825  0.33566735  1
  Ni  Ni12  1  0.33889800  0.33762614  0.00406273  1
  Fe  Fe13  1  0.50131250  0.50403108  0.16964090  1
  Fe  Fe14  1  0.33326226  0.33439745  0.33534775  1
  Fe  Fe15  1  0.33500473  0.67124261  0.00390413  1
  Fe  Fe16  1  0.50303560  0.83777983  0.17059124  1
  Ni  Ni17  1  0.33471845  0.66934254  0.33515467  1
  Fe  Fe18  1  0.66991322  1.00328723  0.00419986  1
  Fe  Fe19  1  0.83894519  0.16881926  0.16865847  1
  Ni  Ni20  1  0.67217124  1.00344100  0.33736872  1
  Fe  Fe21  1  0.67127942  0.33665535  1.00345212  1
  Ni  Ni22  1  0.83558594  0.50488888  0.16923820  1
  Cr  Cr23  1  0.66946187  0.33522636  0.33554242  1
  Fe  Fe24  1  0.66979296  0.67093803  0.00408491  1
  Fe  Fe25  1  0.83795325  0.83791919  0.16990968  1
  Fe  Fe26  1  0.67122967  0.67422306  0.33464031  1
  Ni  Ni27  1  0.16905035  0.16826258  0.50191420  1
  Cr  Cr28  1  0.00513768  1.00112950  0.67255660  1
  Ni  Ni29  1  0.16891663  0.17004746  0.83892738  1
  Fe  Fe30  1  0.16823376  0.50493514  0.50282775  1
  Fe  Fe31  1  1.00186701  0.33701515  0.67101146  1
  Ni  Ni32  1  0.17038313  0.50442161  0.83772566  1
  Ni  Ni33  1  0.17073070  0.83760418  0.50200053  1
  Fe  Fe34  1  0.00451772  0.66776234  0.67143540  1
  Ni  Ni35  1  0.17223500  0.83614608  0.83852731  1
  Fe  Fe36  1  0.50278184  0.16618265  0.50375346  1
  Fe  Fe37  1  0.33791821  1.00227248  0.67122684  1
  Fe  Fe38  1  0.50266936  0.16945280  0.83856307  1
  Cr  Cr39  1  0.50571724  0.50581990  0.50183263  1
  Cr  Cr40  1  0.33616042  0.33597957  0.67010367  1
  Fe  Fe41  1  0.50313839  0.50349972  0.83766102  1
  Fe  Fe42  1  0.50183157  0.83953576  0.50226342  1
  Fe  Fe43  1  0.33543317  0.67319520  0.67016333  1
  Fe  Fe44  1  0.50249878  0.83802111  0.83743010  1
  Fe  Fe45  1  0.83771736  0.16933250  0.50448651  1
  Fe  Fe46  1  0.66862024  0.00495040  0.67011225  1
  Ni  Ni47  1  0.83557560  0.17087077  0.83880016  1
  Fe  Fe48  1  0.84110535  0.50387322  0.50384165  1
  Ni  Ni49  1  0.67076647  0.33708078  0.67165952  1
  Fe  Fe50  1  0.83916173  0.50320688  0.83808789  1
  Fe  Fe51  1  0.83752193  0.83660854  0.50219137  1
  Fe  Fe52  1  0.67158445  0.67100419  0.67161072  1
  Fe  Fe53  1  0.83834474  0.83679661  0.83881263  1
" 