6743,Ni30Fe70_16,-243.377973734037, 220.765940123229,Ni30Fe70,"# generated using pymatgen
 data_Fe8Ni19
_symmetry_space_group_name_H-M   'P 1'
_cell_length_a   7.41309312
_cell_length_b   7.41309312
_cell_length_c   10.48369683
_cell_angle_alpha   90.00000000
_cell_angle_beta   90.00000000
_cell_angle_gamma   90.00000000
_symmetry_Int_Tables_number   1
_chemical_formula_structural   Fe8Ni19
_chemical_formula_sum   'Fe16 Ni38'
_cell_volume   576.12054684
_cell_formula_units_Z   2
loop_
 _symmetry_equiv_pos_site_id
 _symmetry_equiv_pos_as_xyz
  1  'x, y, z'
loop_
 _atom_site_type_symbol
 _atom_site_label
 _atom_site_symmetry_multiplicity
 _atom_site_fract_x
 _atom_site_fract_y
 _atom_site_fract_z
 _atom_site_occupancy
  Fe  Fe0  1  0.00364018  1.00319411  0.00364190  1
  Ni  Ni1  1  0.17163996  0.17055043  0.17033119  1
  Ni  Ni2  1  0.00365846  0.00370979  0.33725517  1
  Ni  Ni3  1  1.00339688  0.33804654  1.00361616  1
  Ni  Ni4  1  0.16989192  0.50262190  0.16979850  1
  Ni  Ni5  1  0.00368405  0.33754979  0.33756764  1
  Ni  Ni6  1  1.00304370  0.66915779  0.00370784  1
  Fe  Fe7  1  0.17055252  0.83634427  0.17059395  1
  Ni  Ni8  1  1.00333186  0.66965897  0.33748012  1
  Ni  Ni9  1  0.33820490  0.00408241  0.00369145  1
  Ni  Ni10  1  0.50204555  0.17084188  0.16988567  1
  Ni  Ni11  1  0.33735228  0.00408160  0.33747794  1
  Ni  Ni12  1  0.33711812  0.33659140  0.00385233  1
  Ni  Ni13  1  0.50345934  0.50199431  0.17011854  1
  Ni  Ni14  1  0.33702957  0.33688477  0.33702090  1
  Ni  Ni15  1  0.33710476  0.67024171  1.00317256  1
  Fe  Fe16  1  0.50324005  0.83656887  0.16986113  1
  Ni  Ni17  1  0.33701380  0.66994767  0.33770450  1
  Ni  Ni18  1  0.66931628  0.00372769  1.00319152  1
  Fe  Fe19  1  0.83725753  0.17146406  0.17014714  1
  Fe  Fe20  1  0.67014951  1.00348175  0.33719391  1
  Ni  Ni21  1  0.67040184  0.33694503  1.00347294  1
  Ni  Ni22  1  0.83756566  0.50483685  0.17019920  1
  Fe  Fe23  1  0.66979531  0.33734923  0.33663766  1
  Ni  Ni24  1  0.67077085  0.67024426  1.00350084  1
  Ni  Ni25  1  0.83786136  0.83632699  0.16990299  1
  Fe  Fe26  1  0.67059602  0.67008659  0.33726451  1
  Fe  Fe27  1  0.17068738  0.16992808  0.50272830  1
  Ni  Ni28  1  1.00359918  1.00306549  0.67026382  1
  Fe  Fe29  1  0.17090848  0.16964212  0.83759814  1
  Ni  Ni30  1  0.16953188  0.50377435  0.50364458  1
  Fe  Fe31  1  1.00288434  0.33710868  0.67008520  1
  Fe  Fe32  1  0.17048451  0.50471062  0.83763598  1
  Ni  Ni33  1  0.16921201  0.83732922  0.50303555  1
  Ni  Ni34  1  1.00247647  0.67010217  0.66973003  1
  Ni  Ni35  1  0.16930412  0.83783508  0.83755076  1
  Ni  Ni36  1  0.50290883  0.17013379  0.50356741  1
  Ni  Ni37  1  0.33769976  0.00420963  0.66974797  1
  Ni  Ni38  1  0.50295540  0.17039901  0.83746188  1
  Ni  Ni39  1  0.50355434  0.50235227  0.50355370  1
  Fe  Fe40  1  0.33770176  0.33662039  0.67001769  1
  Ni  Ni41  1  0.50440142  0.50235366  0.83724494  1
  Ni  Ni42  1  0.50355555  0.83843209  0.50377471  1
  Fe  Fe43  1  0.33712647  0.67191296  0.67001642  1
  Ni  Ni44  1  0.50360889  0.83816542  0.83725494  1
  Fe  Fe45  1  0.83696546  0.16992751  0.50370548  1
  Ni  Ni46  1  0.66961650  1.00310369  0.66993580  1
  Fe  Fe47  1  0.83589960  0.16968071  0.83706456  1
  Ni  Ni48  1  0.83783103  0.50441917  0.50325723  1
  Fe  Fe49  1  0.67033002  0.33688279  0.67070516  1
  Ni  Ni50  1  0.83692227  0.50442066  0.83746190  1
  Ni  Ni51  1  0.83815032  0.83668399  0.50430850  1
  Ni  Ni52  1  0.67107150  0.67039880  0.67016992  1
  Ni  Ni53  1  0.83800355  0.83639028  0.83670449  1
" 