4745,Ni30Fe63Cr6_6,-234.251179659341, 200.754385797179,Ni30Fe63Cr6,"# generated using pymatgen
 data_Cr2Fe17Ni8
_symmetry_space_group_name_H-M   'P 1'
_cell_length_a   7.41236457
_cell_length_b   7.41236457
_cell_length_c   10.48266651
_cell_angle_alpha   90.00000000
_cell_angle_beta   90.00000000
_cell_angle_gamma   90.00000000
_symmetry_Int_Tables_number   1
_chemical_formula_structural   Cr2Fe17Ni8
_chemical_formula_sum   'Cr4 Fe34 Ni16'
_cell_volume   575.95070306
_cell_formula_units_Z   2
loop_
 _symmetry_equiv_pos_site_id
 _symmetry_equiv_pos_as_xyz
  1  'x, y, z'
loop_
 _atom_site_type_symbol
 _atom_site_label
 _atom_site_symmetry_multiplicity
 _atom_site_fract_x
 _atom_site_fract_y
 _atom_site_fract_z
 _atom_site_occupancy
  Fe  Fe0  1  0.00420594  0.00513638  1.00337084  1
  Fe  Fe1  1  0.17034242  0.17183078  0.16982524  1
  Ni  Ni2  1  0.00432298  1.00181465  0.33580705  1
  Ni  Ni3  1  0.00393186  0.33694532  1.00233431  1
  Fe  Fe4  1  0.17278074  0.50303451  0.17028601  1
  Fe  Fe5  1  0.00554507  0.33645433  0.33696342  1
  Fe  Fe6  1  0.00505031  0.67006054  1.00296547  1
  Fe  Fe7  1  0.16995943  0.83620069  0.16938052  1
  Ni  Ni8  1  0.00396305  0.67094027  0.33906785  1
  Ni  Ni9  1  0.33776264  0.00378413  1.00303055  1
  Ni  Ni10  1  0.50336733  0.17206941  0.16975185  1
  Cr  Cr11  1  0.33588645  0.00454180  0.33816833  1
  Ni  Ni12  1  0.33786582  0.33668769  0.00376668  1
  Ni  Ni13  1  0.50250359  0.50334763  0.17073714  1
  Fe  Fe14  1  0.33640669  0.33826834  0.33643739  1
  Fe  Fe15  1  0.33718246  0.66968176  1.00350672  1
  Fe  Fe16  1  0.50371516  0.83536333  0.16863273  1
  Fe  Fe17  1  0.33673150  0.66940967  0.33712787  1
  Fe  Fe18  1  0.66927438  0.00568080  1.00354388  1
  Fe  Fe19  1  0.83704380  0.17019091  0.16918002  1
  Cr  Cr20  1  0.67070256  1.00337401  0.33592634  1
  Ni  Ni21  1  0.66927326  0.33666281  1.00260649  1
  Cr  Cr22  1  0.83671636  0.50254940  0.17132150  1
  Fe  Fe23  1  0.66911467  0.33851196  0.33606635  1
  Fe  Fe24  1  0.66883338  0.66992097  1.00273905  1
  Fe  Fe25  1  0.83739169  0.83779609  0.17047283  1
  Fe  Fe26  1  0.66993266  0.67029923  0.33799643  1
  Ni  Ni27  1  0.17006712  0.17055323  0.50417468  1
  Ni  Ni28  1  0.00460543  1.00237181  0.67071495  1
  Fe  Fe29  1  0.17026564  0.16980750  0.83683677  1
  Fe  Fe30  1  0.17054365  0.50366876  0.50332840  1
  Fe  Fe31  1  0.00419097  0.33719773  0.67175989  1
  Fe  Fe32  1  0.17028155  0.50334061  0.83745379  1
  Fe  Fe33  1  0.16903857  0.83714933  0.50466106  1
  Fe  Fe34  1  1.00365929  0.67067954  0.67031357  1
  Ni  Ni35  1  0.17150669  0.83681311  0.83651025  1
  Fe  Fe36  1  0.50154004  0.17164619  0.50524556  1
  Fe  Fe37  1  0.33688874  1.00334302  0.67075461  1
  Ni  Ni38  1  0.50438453  0.16953881  0.83617754  1
  Fe  Fe39  1  0.50336644  0.50345117  0.50304009  1
  Fe  Fe40  1  0.33646437  0.33607358  0.67038016  1
  Fe  Fe41  1  0.50426048  0.50328778  0.83787535  1
  Ni  Ni42  1  0.50276684  0.83465217  0.50451197  1
  Fe  Fe43  1  0.33683195  0.67164517  0.67043264  1
  Ni  Ni44  1  0.50179982  0.83763226  0.83805323  1
  Cr  Cr45  1  0.83927412  0.17149858  0.50298628  1
  Fe  Fe46  1  0.66945312  1.00281569  0.67126689  1
  Ni  Ni47  1  0.83691919  0.17245480  0.83822769  1
  Fe  Fe48  1  0.83715564  0.50560573  0.50371294  1
  Fe  Fe49  1  0.67041507  0.33714268  0.67226489  1
  Ni  Ni50  1  0.83773852  0.50215146  0.83656296  1
  Fe  Fe51  1  0.83855518  0.83532170  0.50393714  1
  Fe  Fe52  1  0.67057434  0.67110739  0.67033624  1
  Fe  Fe53  1  0.83683287  0.83767914  0.83665401  1
" 