8959,Ni30Fe41Cr28_11,-228.099295897527, 191.581340514323,Ni30Fe41Cr28,"# generated using pymatgen
 data_Cr8Fe11Ni8
_symmetry_space_group_name_H-M   'P 1'
_cell_length_a   7.46214188
_cell_length_b   7.46214188
_cell_length_c   10.55306225
_cell_angle_alpha   90.00000000
_cell_angle_beta   90.00000000
_cell_angle_gamma   90.00000000
_symmetry_Int_Tables_number   1
_chemical_formula_structural   Cr8Fe11Ni8
_chemical_formula_sum   'Cr16 Fe22 Ni16'
_cell_volume   587.63209026
_cell_formula_units_Z   2
loop_
 _symmetry_equiv_pos_site_id
 _symmetry_equiv_pos_as_xyz
  1  'x, y, z'
loop_
 _atom_site_type_symbol
 _atom_site_label
 _atom_site_symmetry_multiplicity
 _atom_site_fract_x
 _atom_site_fract_y
 _atom_site_fract_z
 _atom_site_occupancy
  Fe  Fe0  1  0.99929551  0.00262621  0.99955912  1
  Cr  Cr1  1  0.16764161  0.16700110  0.16848465  1
  Fe  Fe2  1  0.99762353  0.00283056  0.33576254  1
  Cr  Cr3  1  0.00061742  0.33349339  0.99916233  1
  Ni  Ni4  1  0.16773306  0.49874520  0.16814140  1
  Ni  Ni5  1  0.99901004  0.33316601  0.33484246  1
  Cr  Cr6  1  1.00015366  0.66464518  0.00158691  1
  Cr  Cr7  1  0.16590901  0.83625366  0.16785756  1
  Cr  Cr8  1  0.00154856  0.66426422  0.33315981  1
  Fe  Fe9  1  0.33460365  0.00204324  1.00004281  1
  Fe  Fe10  1  0.50130067  0.16603284  0.16794278  1
  Fe  Fe11  1  0.33601932  0.00197154  0.33580631  1
  Ni  Ni12  1  0.33151491  0.33144736  0.00087823  1
  Cr  Cr13  1  0.50055865  0.49727628  0.16958449  1
  Fe  Fe14  1  0.33209501  0.33502390  0.33534130  1
  Cr  Cr15  1  0.33282986  0.66745548  0.99934360  1
  Fe  Fe16  1  0.50069758  0.83499629  0.16942430  1
  Ni  Ni17  1  0.33482427  0.66846995  0.33482442  1
  Fe  Fe18  1  0.66716788  0.00088627  0.00136614  1
  Fe  Fe19  1  0.83353427  0.16763017  0.16889543  1
  Fe  Fe20  1  0.66736296  0.00050326  0.33507226  1
  Cr  Cr21  1  0.66955631  0.33195160  1.00026959  1
  Ni  Ni22  1  0.83218318  0.49943172  0.16957150  1
  Ni  Ni23  1  0.66839012  0.33086945  0.33471753  1
  Cr  Cr24  1  0.66743571  0.66851561  0.00143252  1
  Fe  Fe25  1  0.83209371  0.83531602  0.16893425  1
  Fe  Fe26  1  0.66733024  0.66573149  0.33586925  1
  Fe  Fe27  1  0.16582826  0.16977671  0.50110632  1
  Ni  Ni28  1  1.00030763  0.00371303  0.66566632  1
  Ni  Ni29  1  0.16687124  0.16578607  0.83223418  1
  Ni  Ni30  1  0.16829147  0.49889769  0.50094398  1
  Fe  Fe31  1  0.00155639  0.33216151  0.66638626  1
  Fe  Fe32  1  0.16575148  0.49683817  0.83097315  1
  Cr  Cr33  1  0.16478700  0.83613878  0.50051344  1
  Fe  Fe34  1  0.99965693  0.66596599  0.66476360  1
  Cr  Cr35  1  0.16647682  0.83586157  0.83157890  1
  Fe  Fe36  1  0.50050653  0.16704251  0.50018035  1
  Ni  Ni37  1  0.33396144  0.00082929  0.66603776  1
  Cr  Cr38  1  0.49964561  0.16729300  0.83438718  1
  Ni  Ni39  1  0.50013130  0.49788647  0.49798570  1
  Fe  Fe40  1  0.33204845  0.33103109  0.66586690  1
  Cr  Cr41  1  0.49958758  0.49953685  0.83272022  1
  Fe  Fe42  1  0.50073700  0.83265792  0.49963562  1
  Fe  Fe43  1  0.33346825  0.66721243  0.66449088  1
  Fe  Fe44  1  0.50076519  0.83639790  0.83197833  1
  Fe  Fe45  1  0.83480659  0.16744667  0.50021121  1
  Ni  Ni46  1  0.66668354  0.00100123  0.66575047  1
  Ni  Ni47  1  0.83550089  0.16508700  0.83252406  1
  Ni  Ni48  1  0.83280002  0.50017745  0.49928775  1
  Cr  Cr49  1  0.66974342  0.33165896  0.66635073  1
  Ni  Ni50  1  0.83460992  0.49974368  0.83148450  1
  Ni  Ni51  1  0.83315710  0.83623449  0.49977267  1
  Cr  Cr52  1  0.66630076  0.66749710  0.66474992  1
  Cr  Cr53  1  0.83473870  0.83529867  0.83229638  1
" 