5579,Ni30Fe41Cr28_12,-227.703482688808, 185.414672039543,Ni30Fe41Cr28,"# generated using pymatgen
 data_Cr8Fe11Ni8
_symmetry_space_group_name_H-M   'P 1'
_cell_length_a   7.46463663
_cell_length_b   7.46463663
_cell_length_c   10.55659036
_cell_angle_alpha   90.00000000
_cell_angle_beta   90.00000000
_cell_angle_gamma   90.00000000
_symmetry_Int_Tables_number   1
_chemical_formula_structural   Cr8Fe11Ni8
_chemical_formula_sum   'Cr16 Fe22 Ni16'
_cell_volume   588.22166059
_cell_formula_units_Z   2
loop_
 _symmetry_equiv_pos_site_id
 _symmetry_equiv_pos_as_xyz
  1  'x, y, z'
loop_
 _atom_site_type_symbol
 _atom_site_label
 _atom_site_symmetry_multiplicity
 _atom_site_fract_x
 _atom_site_fract_y
 _atom_site_fract_z
 _atom_site_occupancy
  Ni  Ni0  1  0.99867499  1.00001705  0.00098664  1
  Fe  Fe1  1  0.16309182  0.16734259  0.16643754  1
  Ni  Ni2  1  0.99994913  0.99770163  0.33137065  1
  Ni  Ni3  1  0.00035081  0.33389999  0.00133162  1
  Fe  Fe4  1  0.16491078  0.50046296  0.16630548  1
  Ni  Ni5  1  0.00094902  0.33522973  0.33188896  1
  Cr  Cr6  1  1.00000261  0.66700754  0.99925754  1
  Ni  Ni7  1  0.16550453  0.83402985  0.16768828  1
  Fe  Fe8  1  0.00042420  0.66712694  0.33277434  1
  Cr  Cr9  1  0.33218031  0.99830495  0.00078828  1
  Cr  Cr10  1  0.50158657  0.16626664  0.16537388  1
  Fe  Fe11  1  0.33184511  0.99737636  0.33304788  1
  Ni  Ni12  1  0.33053275  0.33494936  0.00056465  1
  Cr  Cr13  1  0.50087998  0.50195034  0.16402367  1
  Cr  Cr14  1  0.33082946  0.33578075  0.33412917  1
  Fe  Fe15  1  0.32990783  0.66746967  0.00050357  1
  Fe  Fe16  1  0.50019791  0.83272601  0.16779089  1
  Fe  Fe17  1  0.33204613  0.66954800  0.33408631  1
  Fe  Fe18  1  0.67000668  0.00080514  0.99955725  1
  Fe  Fe19  1  0.83678418  0.16585265  0.16699352  1
  Ni  Ni20  1  0.66719660  0.99499724  0.33206077  1
  Fe  Fe21  1  0.67188516  0.33299497  1.00004986  1
  Ni  Ni22  1  0.83549357  0.49979329  0.16825552  1
  Cr  Cr23  1  0.66785133  0.33471888  0.33431735  1
  Cr  Cr24  1  0.66782264  0.66898283  0.99998986  1
  Fe  Fe25  1  0.83422118  0.83391177  0.16794571  1
  Fe  Fe26  1  0.66858561  0.66742946  0.33368906  1
  Cr  Cr27  1  0.16519207  0.16375806  0.50012637  1
  Cr  Cr28  1  0.99988403  0.99794849  0.66924981  1
  Cr  Cr29  1  0.16566544  0.16675466  0.83219735  1
  Fe  Fe30  1  0.16615236  0.50143857  0.50096549  1
  Ni  Ni31  1  0.00145642  0.33756235  0.66721261  1
  Fe  Fe32  1  0.16596587  0.49926098  0.83311772  1
  Ni  Ni33  1  0.16597026  0.83093934  0.49994484  1
  Fe  Fe34  1  0.00115535  0.66563920  0.66704456  1
  Fe  Fe35  1  0.16745931  0.83163700  0.83301948  1
  Cr  Cr36  1  0.49870221  0.16648244  0.50175945  1
  Ni  Ni37  1  0.33337440  0.99617752  0.66553755  1
  Cr  Cr38  1  0.49990821  0.16709384  0.83332735  1
  Ni  Ni39  1  0.50066351  0.50547598  0.50103963  1
  Ni  Ni40  1  0.33145721  0.33669794  0.66547243  1
  Cr  Cr41  1  0.49912100  0.50135773  0.83553458  1
  Fe  Fe42  1  0.49904211  0.83209890  0.49985427  1
  Fe  Fe43  1  0.33247616  0.66749626  0.66582776  1
  Ni  Ni44  1  0.49784125  0.83142235  0.83321870  1
  Cr  Cr45  1  0.83619544  0.16663384  0.49864779  1
  Cr  Cr46  1  0.66669769  0.99684638  0.66899108  1
  Ni  Ni47  1  0.83621595  0.16868552  0.83700146  1
  Fe  Fe48  1  0.83658232  0.50325432  0.49998609  1
  Cr  Cr49  1  0.66834864  0.33564634  0.66667676  1
  Ni  Ni50  1  0.83562976  0.49981145  0.83206589  1
  Fe  Fe51  1  0.83409358  0.83160356  0.49818322  1
  Fe  Fe52  1  0.66716385  0.66668551  0.66714179  1
  Fe  Fe53  1  0.83259533  0.83363552  0.83436837  1
" 