4861,Ni30Fe9Cr59_5,-215.549913655931, 158.535214634945,Ni30Fe9Cr59,"# generated using pymatgen
 data_Cr33Fe5Ni16
_symmetry_space_group_name_H-M   'P 1'
_cell_length_a   7.53383864
_cell_length_b   7.53383864
_cell_length_c   10.65445678
_cell_angle_alpha   90.00000000
_cell_angle_beta   90.00000000
_cell_angle_gamma   90.00000000
_symmetry_Int_Tables_number   1
_chemical_formula_structural   Cr33Fe5Ni16
_chemical_formula_sum   'Cr33 Fe5 Ni16'
_cell_volume   604.73337800
_cell_formula_units_Z   1
loop_
 _symmetry_equiv_pos_site_id
 _symmetry_equiv_pos_as_xyz
  1  'x, y, z'
loop_
 _atom_site_type_symbol
 _atom_site_label
 _atom_site_symmetry_multiplicity
 _atom_site_fract_x
 _atom_site_fract_y
 _atom_site_fract_z
 _atom_site_occupancy
  Cr  Cr0  1  -0.00437858  0.99363769  0.99545858  1
  Cr  Cr1  1  0.16266323  0.16225289  0.16296623  1
  Ni  Ni2  1  -0.00332057  -0.00277155  0.32922467  1
  Fe  Fe3  1  -0.00372231  0.32950752  -0.00184286  1
  Ni  Ni4  1  0.16282924  0.49492889  0.16339202  1
  Ni  Ni5  1  0.99493738  0.33026663  0.32675532  1
  Cr  Cr6  1  0.99515216  0.66137820  -0.00425190  1
  Cr  Cr7  1  0.16498330  0.82941169  0.16603043  1
  Cr  Cr8  1  0.99506160  0.66102667  0.33051391  1
  Ni  Ni9  1  0.33212196  0.99454195  -0.00394324  1
  Ni  Ni10  1  0.49380993  0.16117695  0.16330507  1
  Ni  Ni11  1  0.33085790  0.99490085  0.32739039  1
  Cr  Cr12  1  0.33027805  0.32808887  -0.00190220  1
  Ni  Ni13  1  0.49560600  0.49817603  0.16349898  1
  Cr  Cr14  1  0.33140037  0.32945185  0.32868039  1
  Cr  Cr15  1  0.32891827  0.66348686  -0.00366107  1
  Ni  Ni16  1  0.49453337  0.82701391  0.16261827  1
  Ni  Ni17  1  0.33205396  0.66133486  0.32707670  1
  Cr  Cr18  1  0.65898470  0.99499131  -0.00282652  1
  Cr  Cr19  1  0.83034077  0.16370448  0.16307121  1
  Cr  Cr20  1  0.66018640  -0.00361377  0.32710776  1
  Cr  Cr21  1  0.66085950  0.32831457  -0.00166464  1
  Fe  Fe22  1  0.82749258  0.49591343  0.16404487  1
  Cr  Cr23  1  0.66076201  0.32897922  0.33032112  1
  Fe  Fe24  1  0.65935157  0.66326126  -0.00212165  1
  Cr  Cr25  1  0.82603756  0.82756474  0.16455413  1
  Ni  Ni26  1  0.65905645  0.65968336  0.32685018  1
  Cr  Cr27  1  0.16215310  0.16046036  0.49376489  1
  Ni  Ni28  1  0.99431690  -0.00394284  0.66240151  1
  Cr  Cr29  1  0.16260807  0.16202847  0.82996342  1
  Cr  Cr30  1  0.16445396  0.49532984  0.49346919  1
  Cr  Cr31  1  0.99489711  0.33055155  0.66206635  1
  Cr  Cr32  1  0.16299563  0.49347401  0.83029031  1
  Cr  Cr33  1  0.16423169  0.83132908  0.49358888  1
  Cr  Cr34  1  -0.00433140  0.66358714  0.66120637  1
  Cr  Cr35  1  0.16507698  0.83128762  0.82650105  1
  Fe  Fe36  1  0.49619144  0.16137755  0.49565483  1
  Fe  Fe37  1  0.33117076  0.99555693  0.66142089  1
  Cr  Cr38  1  0.49585437  0.16157146  0.82654476  1
  Ni  Ni39  1  0.49877642  0.49625126  0.49481977  1
  Cr  Cr40  1  0.33222212  0.32887966  0.65994481  1
  Cr  Cr41  1  0.49751123  0.49732734  0.82830291  1
  Cr  Cr42  1  0.49506704  0.82725435  0.49359649  1
  Cr  Cr43  1  0.32879536  0.66195128  0.66215283  1
  Ni  Ni44  1  0.49578054  0.83069288  0.82953626  1
  Cr  Cr45  1  0.82968752  0.16233410  0.49632101  1
  Ni  Ni46  1  0.66094433  -0.00260548  0.66262385  1
  Cr  Cr47  1  0.82847236  0.16337827  0.82800943  1
  Ni  Ni48  1  0.82477687  0.49365424  0.49378302  1
  Ni  Ni49  1  0.66105497  0.32697557  0.65899207  1
  Cr  Cr50  1  0.82629460  0.49370885  0.83076202  1
  Cr  Cr51  1  0.82736755  0.82990339  0.49458745  1
  Cr  Cr52  1  0.66229628  0.66205481  0.66172533  1
  Cr  Cr53  1  0.82510969  0.82965124  0.82795646  1
" 