1751,Ni30Fe29Cr40_11,-223.41496764969, 185.761949322477,Ni30Fe29Cr40,"# generated using pymatgen
 data_Cr23Fe15Ni16
_symmetry_space_group_name_H-M   'P 1'
_cell_length_a   7.48651476
_cell_length_b   7.48651476
_cell_length_c   10.58753072
_cell_angle_alpha   90.00000000
_cell_angle_beta   90.00000000
_cell_angle_gamma   90.00000000
_symmetry_Int_Tables_number   1
_chemical_formula_structural   Cr23Fe15Ni16
_chemical_formula_sum   'Cr23 Fe15 Ni16'
_cell_volume   593.40889792
_cell_formula_units_Z   1
loop_
 _symmetry_equiv_pos_site_id
 _symmetry_equiv_pos_as_xyz
  1  'x, y, z'
loop_
 _atom_site_type_symbol
 _atom_site_label
 _atom_site_symmetry_multiplicity
 _atom_site_fract_x
 _atom_site_fract_y
 _atom_site_fract_z
 _atom_site_occupancy
  Ni  Ni0  1  0.99815842  -0.00071927  0.99661157  1
  Cr  Cr1  1  0.16243161  0.16396912  0.16832204  1
  Ni  Ni2  1  0.99489373  0.00050289  0.33181957  1
  Cr  Cr3  1  -0.00129617  0.33351706  0.00185842  1
  Fe  Fe4  1  0.16785552  0.49674904  0.16580265  1
  Fe  Fe5  1  0.99778823  0.33280812  0.33108693  1
  Cr  Cr6  1  -0.00083211  0.66232790  0.99574694  1
  Cr  Cr7  1  0.16564476  0.83217050  0.16356463  1
  Cr  Cr8  1  0.99757709  0.66087601  0.33357186  1
  Cr  Cr9  1  0.33517912  0.00082383  0.99733254  1
  Ni  Ni10  1  0.50144015  0.17061975  0.16581330  1
  Cr  Cr11  1  0.33708337  0.00149480  0.33229991  1
  Fe  Fe12  1  0.33357756  0.33277737  0.00033736  1
  Ni  Ni13  1  0.49944746  0.49656971  0.16448229  1
  Ni  Ni14  1  0.33400863  0.33327077  0.33090855  1
  Fe  Fe15  1  0.33219592  0.66541800  0.99860366  1
  Ni  Ni16  1  0.49789739  0.82953025  0.16615741  1
  Cr  Cr17  1  0.33362923  0.66176876  0.33126117  1
  Cr  Cr18  1  0.66379663  0.00136106  0.00127421  1
  Ni  Ni19  1  0.83104037  0.16843212  0.16788848  1
  Fe  Fe20  1  0.66437012  0.00129806  0.33058289  1
  Fe  Fe21  1  0.66599047  0.33160297  0.00202448  1
  Ni  Ni22  1  0.82840344  0.49396652  0.16713977  1
  Ni  Ni23  1  0.66450768  0.33217487  0.32993028  1
  Cr  Cr24  1  0.66581233  0.66501139  0.99865838  1
  Cr  Cr25  1  0.83342846  0.83468904  0.16654259  1
  Cr  Cr26  1  0.66478962  0.66515919  0.33447428  1
  Cr  Cr27  1  0.16345824  0.16571366  0.49940991  1
  Fe  Fe28  1  -0.00110333  0.99808962  0.66622076  1
  Cr  Cr29  1  0.16455103  0.16382541  0.82845180  1
  Fe  Fe30  1  0.16845222  0.49475315  0.49893728  1
  Ni  Ni31  1  0.00034836  0.33425107  0.66391102  1
  Fe  Fe32  1  0.16577624  0.49812578  0.83097862  1
  Cr  Cr33  1  0.16476262  0.83452509  0.49875696  1
  Cr  Cr34  1  0.99690795  0.66247203  0.66650152  1
  Ni  Ni35  1  0.16597049  0.83294767  0.83205948  1
  Cr  Cr36  1  0.49857957  0.16962314  0.50078936  1
  Fe  Fe37  1  0.33227177  0.99805095  0.66676172  1
  Fe  Fe38  1  0.49795872  0.16614463  0.83101798  1
  Ni  Ni39  1  0.49994027  0.49768797  0.49853211  1
  Ni  Ni40  1  0.33049987  0.33095518  0.66582865  1
  Cr  Cr41  1  0.50091385  0.49689202  0.83324380  1
  Ni  Ni42  1  0.49900066  0.82936409  0.49821533  1
  Cr  Cr43  1  0.33212554  0.66468352  0.66418443  1
  Ni  Ni44  1  0.49433654  0.83043038  0.83151890  1
  Cr  Cr45  1  0.83386850  0.16726608  0.49639807  1
  Cr  Cr46  1  0.66219333  0.99712102  0.66619020  1
  Cr  Cr47  1  0.83234527  0.16872290  0.83208075  1
  Fe  Fe48  1  0.83030187  0.49587065  0.49873218  1
  Fe  Fe49  1  0.66607954  0.33472478  0.66429139  1
  Ni  Ni50  1  0.83091152  0.49593365  0.82979983  1
  Fe  Fe51  1  0.83061915  0.83427076  0.49717321  1
  Cr  Cr52  1  0.66702936  0.66699170  0.66299526  1
  Fe  Fe53  1  0.83287380  0.83218529  0.83271529  1
" 