8241,Ni30Fe70_10,-243.17408396829, 220.219934072139,Ni30Fe70,"# generated using pymatgen
 data_Fe8Ni19
_symmetry_space_group_name_H-M   'P 1'
_cell_length_a   7.41144360
_cell_length_b   7.41144360
_cell_length_c   10.48136406
_cell_angle_alpha   90.00000000
_cell_angle_beta   90.00000000
_cell_angle_gamma   90.00000000
_symmetry_Int_Tables_number   1
_chemical_formula_structural   Fe8Ni19
_chemical_formula_sum   'Fe16 Ni38'
_cell_volume   575.73604822
_cell_formula_units_Z   2
loop_
 _symmetry_equiv_pos_site_id
 _symmetry_equiv_pos_as_xyz
  1  'x, y, z'
loop_
 _atom_site_type_symbol
 _atom_site_label
 _atom_site_symmetry_multiplicity
 _atom_site_fract_x
 _atom_site_fract_y
 _atom_site_fract_z
 _atom_site_occupancy
  Ni  Ni0  1  1.00278617  0.00529961  0.00452114  1
  Ni  Ni1  1  0.17052945  0.17060559  0.17031169  1
  Fe  Fe2  1  0.00527323  1.00211537  0.33651890  1
  Ni  Ni3  1  0.00382746  0.33634459  0.00400746  1
  Fe  Fe4  1  0.17068620  0.50382908  0.16986176  1
  Fe  Fe5  1  0.00424830  0.33814780  0.33687470  1
  Fe  Fe6  1  0.00444410  0.67137057  1.00326629  1
  Ni  Ni7  1  0.17048656  0.83676544  0.16858872  1
  Ni  Ni8  1  1.00315258  0.67035787  0.33657548  1
  Ni  Ni9  1  0.33753653  0.00418563  1.00358359  1
  Ni  Ni10  1  0.50353575  0.17125745  0.16978494  1
  Ni  Ni11  1  0.33698818  0.00430929  0.33681244  1
  Ni  Ni12  1  0.33567096  0.33718966  0.00473976  1
  Fe  Fe13  1  0.50382124  0.50424586  0.17098122  1
  Ni  Ni14  1  0.33644453  0.33640415  0.33681338  1
  Ni  Ni15  1  0.33925110  0.66986060  0.00498818  1
  Ni  Ni16  1  0.50325948  0.83745001  0.17051191  1
  Ni  Ni17  1  0.33719185  0.67043966  0.33685559  1
  Ni  Ni18  1  0.67110017  1.00216599  0.00501385  1
  Ni  Ni19  1  0.83692005  0.17100314  0.17056993  1
  Fe  Fe20  1  0.66894264  1.00295683  0.33710029  1
  Fe  Fe21  1  0.66918666  0.33603933  1.00310850  1
  Fe  Fe22  1  0.83669549  0.50410279  0.17108095  1
  Fe  Fe23  1  0.66905451  0.33798871  0.33853222  1
  Ni  Ni24  1  0.67030479  0.67142648  0.00388405  1
  Ni  Ni25  1  0.83773621  0.83700354  0.17104066  1
  Ni  Ni26  1  0.67088634  0.67129074  0.33853897  1
  Fe  Fe27  1  0.17068143  0.16967503  0.50299180  1
  Ni  Ni28  1  1.00255551  0.00444479  0.66985259  1
  Fe  Fe29  1  0.17109237  0.17049025  0.83783430  1
  Fe  Fe30  1  0.17048155  0.50478102  0.50424089  1
  Ni  Ni31  1  0.00458211  0.33592725  0.66949711  1
  Ni  Ni32  1  0.17008720  0.50316690  0.83691320  1
  Ni  Ni33  1  0.16982186  0.83580103  0.50461077  1
  Ni  Ni34  1  1.00333518  0.67080402  0.67117791  1
  Fe  Fe35  1  0.17237847  0.83636657  0.83697749  1
  Ni  Ni36  1  0.50401163  0.17153516  0.50423813  1
  Fe  Fe37  1  0.33795667  1.00370492  0.67003520  1
  Ni  Ni38  1  0.50352846  0.17074494  0.83737021  1
  Ni  Ni39  1  0.50358032  0.50295517  0.50426245  1
  Ni  Ni40  1  0.33663354  0.33708464  0.66995709  1
  Ni  Ni41  1  0.50146541  0.50314940  0.83723978  1
  Ni  Ni42  1  0.50283932  0.83682933  0.50407033  1
  Ni  Ni43  1  0.33803828  0.66904802  0.66938933  1
  Ni  Ni44  1  0.50510832  0.83716056  0.83656435  1
  Ni  Ni45  1  0.83707011  0.17104536  0.50336742  1
  Ni  Ni46  1  0.67151262  1.00333653  0.66915382  1
  Fe  Fe47  1  0.83616959  0.17019275  0.83680499  1
  Ni  Ni48  1  0.83768062  0.50357465  0.50526068  1
  Ni  Ni49  1  0.66984767  0.33667082  0.67079146  1
  Fe  Fe50  1  0.83547632  0.50425037  0.83592648  1
  Ni  Ni51  1  0.83864682  0.83678695  0.50322338  1
  Ni  Ni52  1  0.66994861  0.67125131  0.66935986  1
  Ni  Ni53  1  0.83807570  0.83763272  0.83698860  1
" 