2341,Ni30Fe70_14,-243.140386915005, 218.45779434785,Ni30Fe70,"# generated using pymatgen
 data_Fe8Ni19
_symmetry_space_group_name_H-M   'P 1'
_cell_length_a   7.41307649
_cell_length_b   7.41307649
_cell_length_c   10.48367331
_cell_angle_alpha   90.00000000
_cell_angle_beta   90.00000000
_cell_angle_gamma   90.00000000
_symmetry_Int_Tables_number   1
_chemical_formula_structural   Fe8Ni19
_chemical_formula_sum   'Fe16 Ni38'
_cell_volume   576.11667025
_cell_formula_units_Z   2
loop_
 _symmetry_equiv_pos_site_id
 _symmetry_equiv_pos_as_xyz
  1  'x, y, z'
loop_
 _atom_site_type_symbol
 _atom_site_label
 _atom_site_symmetry_multiplicity
 _atom_site_fract_x
 _atom_site_fract_y
 _atom_site_fract_z
 _atom_site_occupancy
  Ni  Ni0  1  0.00388397  1.00335481  1.00347249  1
  Ni  Ni1  1  0.17130609  0.17215638  0.16965258  1
  Ni  Ni2  1  1.00359111  0.00406264  0.33738245  1
  Ni  Ni3  1  1.00322787  0.33667685  0.00417306  1
  Ni  Ni4  1  0.16945694  0.50229083  0.17009590  1
  Ni  Ni5  1  1.00290669  0.33542216  0.33734000  1
  Ni  Ni6  1  1.00354916  0.67088650  0.00368711  1
  Fe  Fe7  1  0.16979381  0.83748404  0.16996302  1
  Fe  Fe8  1  0.00371266  0.66913767  0.33653604  1
  Ni  Ni9  1  0.33650258  1.00267011  0.00471943  1
  Ni  Ni10  1  0.50281376  0.16940339  0.16997018  1
  Fe  Fe11  1  0.33686941  0.00491251  0.33750663  1
  Ni  Ni12  1  0.33712092  0.33732489  1.00360479  1
  Fe  Fe13  1  0.50383564  0.50288735  0.17027607  1
  Ni  Ni14  1  0.33743965  0.33781696  0.33790415  1
  Ni  Ni15  1  0.33748624  0.67092695  1.00312542  1
  Ni  Ni16  1  0.50399892  0.83801923  0.16974988  1
  Ni  Ni17  1  0.33781074  0.67060801  0.33757870  1
  Ni  Ni18  1  0.67053229  1.00299158  1.00314621  1
  Ni  Ni19  1  0.83680026  0.17127285  0.16990674  1
  Fe  Fe20  1  0.67014204  0.00457156  0.33639633  1
  Ni  Ni21  1  0.67057390  0.33766129  0.00391437  1
  Ni  Ni22  1  0.83834494  0.50347658  0.16950964  1
  Ni  Ni23  1  0.67057666  0.33731045  0.33727434  1
  Ni  Ni24  1  0.66988536  0.67026849  0.00427205  1
  Ni  Ni25  1  0.83558793  0.83616884  0.16974725  1
  Fe  Fe26  1  0.67082226  0.66986854  0.33719177  1
  Ni  Ni27  1  0.17120365  0.17082562  0.50397241  1
  Ni  Ni28  1  0.00500364  0.00390149  0.67006687  1
  Fe  Fe29  1  0.16955304  0.16947487  0.83700447  1
  Fe  Fe30  1  0.17002674  0.50322433  0.50301191  1
  Ni  Ni31  1  1.00255024  0.33592302  0.66940336  1
  Ni  Ni32  1  0.16932453  0.50321829  0.83669084  1
  Ni  Ni33  1  0.17124622  0.83725624  0.50360781  1
  Fe  Fe34  1  1.00283376  0.67040644  0.67113151  1
  Ni  Ni35  1  0.17125369  0.83639303  0.83788574  1
  Ni  Ni36  1  0.50289146  0.16983904  0.50371819  1
  Ni  Ni37  1  0.33560567  1.00234808  0.66916439  1
  Fe  Fe38  1  0.50356608  0.16996083  0.83738852  1
  Fe  Fe39  1  0.50444897  0.50347222  0.50339977  1
  Fe  Fe40  1  0.33672969  0.33609280  0.67006286  1
  Fe  Fe41  1  0.50413413  0.50522884  0.83724682  1
  Ni  Ni42  1  0.50321152  0.83788055  0.50419544  1
  Fe  Fe43  1  0.33670477  0.67108683  0.67047698  1
  Ni  Ni44  1  0.50352772  0.83791568  0.83697420  1
  Ni  Ni45  1  0.83682447  0.17173361  0.50379789  1
  Fe  Fe46  1  0.67060319  0.00366918  0.67025563  1
  Fe  Fe47  1  0.83780133  0.17011279  0.83707438  1
  Ni  Ni48  1  0.83745268  0.50316034  0.50376878  1
  Ni  Ni49  1  0.67122240  0.33867886  0.66973219  1
  Ni  Ni50  1  0.83801985  0.50356983  0.83764368  1
  Ni  Ni51  1  0.83646249  0.83602412  0.50427954  1
  Ni  Ni52  1  0.66966247  0.66954876  0.66963126  1
  Ni  Ni53  1  0.83613806  0.83599716  0.83689222  1
" 