6162,Ni30Fe41Cr28_15,-227.913422096804, 193.103058366362,Ni30Fe41Cr28,"# generated using pymatgen
 data_Cr8Fe11Ni8
_symmetry_space_group_name_H-M   'P 1'
_cell_length_a   7.46160047
_cell_length_b   7.46160047
_cell_length_c   10.55229658
_cell_angle_alpha   90.00000000
_cell_angle_beta   90.00000000
_cell_angle_gamma   90.00000000
_symmetry_Int_Tables_number   1
_chemical_formula_structural   Cr8Fe11Ni8
_chemical_formula_sum   'Cr16 Fe22 Ni16'
_cell_volume   587.50419311
_cell_formula_units_Z   2
loop_
 _symmetry_equiv_pos_site_id
 _symmetry_equiv_pos_as_xyz
  1  'x, y, z'
loop_
 _atom_site_type_symbol
 _atom_site_label
 _atom_site_symmetry_multiplicity
 _atom_site_fract_x
 _atom_site_fract_y
 _atom_site_fract_z
 _atom_site_occupancy
  Cr  Cr0  1  1.00002483  0.99975385  0.00116267  1
  Fe  Fe1  1  0.16566511  0.17107739  0.16808037  1
  Fe  Fe2  1  0.99946351  0.00176077  0.33146983  1
  Fe  Fe3  1  0.00099342  0.33500881  0.00112753  1
  Fe  Fe4  1  0.16613793  0.49853289  0.16746116  1
  Ni  Ni5  1  0.99933390  0.33556182  0.33166082  1
  Fe  Fe6  1  0.99865619  0.66501006  0.00132214  1
  Fe  Fe7  1  0.16520260  0.83160074  0.16694770  1
  Cr  Cr8  1  1.00024717  0.66668496  0.33338330  1
  Cr  Cr9  1  0.33457837  0.00348138  1.00028532  1
  Fe  Fe10  1  0.50275785  0.16895016  0.16709290  1
  Cr  Cr11  1  0.33439287  0.00038172  0.33164501  1
  Ni  Ni12  1  0.33171535  0.33329953  0.99950081  1
  Cr  Cr13  1  0.49959217  0.50041991  0.16881414  1
  Ni  Ni14  1  0.33368352  0.33463604  0.33419733  1
  Cr  Cr15  1  0.32990988  0.66516905  0.99968598  1
  Cr  Cr16  1  0.50334502  0.83228535  0.16525320  1
  Ni  Ni17  1  0.33033766  0.66562246  0.33538791  1
  Ni  Ni18  1  0.66885228  0.00260944  0.00064956  1
  Fe  Fe19  1  0.83280062  0.16742728  0.16844700  1
  Ni  Ni20  1  0.66863644  0.00239526  0.33202120  1
  Cr  Cr21  1  0.66730972  0.33254915  0.99981299  1
  Ni  Ni22  1  0.83513267  0.49976382  0.16680479  1
  Ni  Ni23  1  0.66797293  0.33259606  0.33411103  1
  Ni  Ni24  1  0.67126887  0.66528385  0.00068649  1
  Ni  Ni25  1  0.83290673  0.83374299  0.16784467  1
  Fe  Fe26  1  0.66797359  0.66464421  0.33345490  1
  Cr  Cr27  1  0.16507441  0.17008072  0.50152321  1
  Fe  Fe28  1  0.99976471  0.00060005  0.66892378  1
  Fe  Fe29  1  0.16575137  0.16877290  0.83325660  1
  Fe  Fe30  1  0.16878439  0.49968538  0.49949610  1
  Fe  Fe31  1  0.99890815  0.33512023  0.66823981  1
  Fe  Fe32  1  0.16713947  0.49806174  0.83334908  1
  Fe  Fe33  1  0.16654082  0.83334188  0.50099630  1
  Cr  Cr34  1  0.00052667  0.66632593  0.66647163  1
  Ni  Ni35  1  0.16630406  0.83209709  0.83264072  1
  Fe  Fe36  1  0.50115066  0.16990193  0.49985104  1
  Cr  Cr37  1  0.33272508  0.00068544  0.66941633  1
  Ni  Ni38  1  0.50053708  0.17095241  0.83377787  1
  Fe  Fe39  1  0.50010131  0.49740258  0.49996067  1
  Fe  Fe40  1  0.33634734  0.33683886  0.66808837  1
  Fe  Fe41  1  0.50079858  0.49949337  0.83249961  1
  Cr  Cr42  1  0.50172381  0.82937956  0.49978412  1
  Ni  Ni43  1  0.33228035  0.66462929  0.66673513  1
  Cr  Cr44  1  0.50158311  0.83017228  0.83586478  1
  Cr  Cr45  1  0.83590081  0.16812725  0.49943262  1
  Cr  Cr46  1  0.66676220  0.00386796  0.66837152  1
  Ni  Ni47  1  0.83585226  0.17042863  0.83333682  1
  Fe  Fe48  1  0.83187993  0.49923692  0.49920374  1
  Ni  Ni49  1  0.66775846  0.33556649  0.66752836  1
  Fe  Fe50  1  0.83306323  0.49947652  0.83368668  1
  Fe  Fe51  1  0.83354554  0.83383654  0.49913163  1
  Ni  Ni52  1  0.66757656  0.66200985  0.66570394  1
  Cr  Cr53  1  0.83243905  0.83336989  0.83412944  1
" 