6753,Ni30Fe9Cr59_15,-215.053421283165, 147.40816048589,Ni30Fe9Cr59,"# generated using pymatgen
 data_Cr33Fe5Ni16
_symmetry_space_group_name_H-M   'P 1'
_cell_length_a   7.53922754
_cell_length_b   7.53922754
_cell_length_c   10.66207784
_cell_angle_alpha   90.00000000
_cell_angle_beta   90.00000000
_cell_angle_gamma   90.00000000
_symmetry_Int_Tables_number   1
_chemical_formula_structural   Cr33Fe5Ni16
_chemical_formula_sum   'Cr33 Fe5 Ni16'
_cell_volume   606.03199121
_cell_formula_units_Z   1
loop_
 _symmetry_equiv_pos_site_id
 _symmetry_equiv_pos_as_xyz
  1  'x, y, z'
loop_
 _atom_site_type_symbol
 _atom_site_label
 _atom_site_symmetry_multiplicity
 _atom_site_fract_x
 _atom_site_fract_y
 _atom_site_fract_z
 _atom_site_occupancy
  Cr  Cr0  1  0.99472476  0.00200493  0.99516474  1
  Cr  Cr1  1  0.16164903  0.16284526  0.16115406  1
  Ni  Ni2  1  0.99475679  -0.00399003  0.32717939  1
  Ni  Ni3  1  0.99422601  0.32702701  0.99115651  1
  Cr  Cr4  1  0.16249578  0.49566645  0.16403063  1
  Cr  Cr5  1  0.99280076  0.32666845  0.32800377  1
  Cr  Cr6  1  0.99431822  0.65839119  0.99222166  1
  Cr  Cr7  1  0.16211164  0.82810390  0.16170446  1
  Ni  Ni8  1  -0.00249328  0.66412830  0.32925066  1
  Cr  Cr9  1  0.33021345  -0.00416658  0.99124568  1
  Cr  Cr10  1  0.49601424  0.16136917  0.16474328  1
  Cr  Cr11  1  0.32960708  0.99408893  0.32934057  1
  Cr  Cr12  1  0.32729511  0.32786420  0.99383006  1
  Cr  Cr13  1  0.49410508  0.49566370  0.16211643  1
  Fe  Fe14  1  0.32697141  0.32987575  0.32873466  1
  Cr  Cr15  1  0.33194267  0.66230186  0.99277189  1
  Ni  Ni16  1  0.49654816  0.82767176  0.16157688  1
  Ni  Ni17  1  0.33064286  0.66611373  0.32902284  1
  Cr  Cr18  1  0.66124071  -0.00432656  -0.00187007  1
  Ni  Ni19  1  0.82902903  0.16116172  0.16260065  1
  Fe  Fe20  1  0.66320695  0.99276423  0.32837853  1
  Cr  Cr21  1  0.66449058  0.32794284  0.99363587  1
  Cr  Cr22  1  0.82878932  0.49563027  0.15840939  1
  Cr  Cr23  1  0.66230130  0.32616881  0.32826956  1
  Ni  Ni24  1  0.65881236  0.66166068  0.99218580  1
  Cr  Cr25  1  0.82850165  0.82862640  0.16209278  1
  Cr  Cr26  1  0.66086376  0.66208842  0.32924337  1
  Cr  Cr27  1  0.16273502  0.16215512  0.49704935  1
  Cr  Cr28  1  0.99509484  -0.00130547  0.66386452  1
  Ni  Ni29  1  0.16314477  0.16625581  0.82722345  1
  Cr  Cr30  1  0.16156065  0.49566784  0.49146574  1
  Ni  Ni31  1  0.99352475  0.32641665  0.66693386  1
  Ni  Ni32  1  0.15997063  0.49162607  0.82867591  1
  Cr  Cr33  1  0.16161711  0.82916223  0.49492184  1
  Cr  Cr34  1  -0.00399539  0.65765360  0.66203919  1
  Cr  Cr35  1  0.16261813  0.83008350  0.82784159  1
  Cr  Cr36  1  0.49661984  0.16113630  0.49661981  1
  Fe  Fe37  1  0.33137682  -0.00290051  0.66400290  1
  Ni  Ni38  1  0.49622993  0.16114947  0.82520057  1
  Cr  Cr39  1  0.49461660  0.49340517  0.49386501  1
  Cr  Cr40  1  0.32744756  0.32918586  0.66291696  1
  Fe  Fe41  1  0.49635859  0.49144029  0.82841778  1
  Ni  Ni42  1  0.49517922  0.83046596  0.49681208  1
  Cr  Cr43  1  0.33004285  0.66349249  0.66271462  1
  Fe  Fe44  1  0.49752563  0.83120806  0.82757286  1
  Cr  Cr45  1  0.82672028  0.16070187  0.49829133  1
  Ni  Ni46  1  0.65858499  -0.00316661  0.66218407  1
  Ni  Ni47  1  0.82619363  0.16492173  0.82675643  1
  Cr  Cr48  1  0.82860357  0.49360571  0.49918340  1
  Ni  Ni49  1  0.66223069  0.32488316  0.66577133  1
  Ni  Ni50  1  0.82748828  0.49135815  0.82808649  1
  Cr  Cr51  1  0.82822338  0.82995096  0.49447547  1
  Cr  Cr52  1  0.66005936  0.66074300  0.66333084  1
  Cr  Cr53  1  0.82656709  0.82886308  0.82909279  1
" 