8728,Ni30Fe44Cr24_14,-229.329038550957, 193.960359032722,Ni30Fe44Cr24,"# generated using pymatgen
 data_Cr7(Fe3Ni2)4
_symmetry_space_group_name_H-M   'P 1'
_cell_length_a   7.45309875
_cell_length_b   7.45309875
_cell_length_c   10.54027333
_cell_angle_alpha   90.00000000
_cell_angle_beta   90.00000000
_cell_angle_gamma   90.00000000
_symmetry_Int_Tables_number   1
_chemical_formula_structural   Cr7(Fe3Ni2)4
_chemical_formula_sum   'Cr14 Fe24 Ni16'
_cell_volume   585.49828075
_cell_formula_units_Z   2
loop_
 _symmetry_equiv_pos_site_id
 _symmetry_equiv_pos_as_xyz
  1  'x, y, z'
loop_
 _atom_site_type_symbol
 _atom_site_label
 _atom_site_symmetry_multiplicity
 _atom_site_fract_x
 _atom_site_fract_y
 _atom_site_fract_z
 _atom_site_occupancy
  Cr  Cr0  1  1.00008247  0.00244685  0.00192790  1
  Fe  Fe1  1  0.16709845  0.16803942  0.16791634  1
  Fe  Fe2  1  0.99960301  0.00477992  0.33472484  1
  Fe  Fe3  1  0.99731240  0.33642009  0.00263467  1
  Cr  Cr4  1  0.16711320  0.50132606  0.16737779  1
  Ni  Ni5  1  0.99830192  0.33316544  0.33448961  1
  Fe  Fe6  1  0.99633648  0.66428548  0.99993251  1
  Cr  Cr7  1  0.16775523  0.83292760  0.17047541  1
  Ni  Ni8  1  0.99998070  0.66651867  0.33470427  1
  Fe  Fe9  1  0.33841279  0.00216764  0.00298741  1
  Ni  Ni10  1  0.50240139  0.16858105  0.16633112  1
  Fe  Fe11  1  0.33665642  0.00134190  0.33544239  1
  Fe  Fe12  1  0.33712954  0.33497627  0.00201959  1
  Fe  Fe13  1  0.50527766  0.50079550  0.16770149  1
  Cr  Cr14  1  0.33728698  0.33219273  0.33457803  1
  Cr  Cr15  1  0.33707818  0.66809444  0.99987889  1
  Fe  Fe16  1  0.50282347  0.83508221  0.16867471  1
  Fe  Fe17  1  0.33627597  0.66644761  0.33638760  1
  Fe  Fe18  1  0.66653457  1.00026933  0.00191123  1
  Ni  Ni19  1  0.83141910  0.16887560  0.16915556  1
  Fe  Fe20  1  0.66675983  0.00446203  0.33445434  1
  Ni  Ni21  1  0.66826772  0.33592952  0.00331640  1
  Fe  Fe22  1  0.83181103  0.49930935  0.16953389  1
  Ni  Ni23  1  0.66872459  0.33407940  0.33433518  1
  Ni  Ni24  1  0.66801715  0.66565166  0.99900812  1
  Cr  Cr25  1  0.83331092  0.83212157  0.16875442  1
  Ni  Ni26  1  0.66695574  0.66581877  0.33472210  1
  Fe  Fe27  1  0.16598385  0.16960692  0.50133651  1
  Fe  Fe28  1  0.99966607  0.00323192  0.66672691  1
  Cr  Cr29  1  0.16892499  0.17077837  0.83534717  1
  Fe  Fe30  1  0.16560762  0.49876694  0.49945145  1
  Fe  Fe31  1  0.00107765  0.33450393  0.66448908  1
  Fe  Fe32  1  0.16748824  0.49844804  0.83498580  1
  Fe  Fe33  1  0.16797492  0.83438897  0.49792124  1
  Cr  Cr34  1  0.99906397  0.66677336  0.66948088  1
  Cr  Cr35  1  0.16578146  0.83370691  0.83564205  1
  Ni  Ni36  1  0.50239847  0.16971716  0.50190315  1
  Cr  Cr37  1  0.33487273  0.00097118  0.66636180  1
  Cr  Cr38  1  0.50257535  0.17139775  0.83451347  1
  Ni  Ni39  1  0.50167701  0.49935140  0.50016729  1
  Ni  Ni40  1  0.33573754  0.33498088  0.66726002  1
  Ni  Ni41  1  0.50153746  0.49970336  0.83383901  1
  Fe  Fe42  1  0.50341165  0.83428209  0.49839731  1
  Cr  Cr43  1  0.33599670  0.66573809  0.66536816  1
  Fe  Fe44  1  0.50528203  0.83425434  0.83432295  1
  Ni  Ni45  1  0.83293418  0.16880809  0.50109717  1
  Fe  Fe46  1  0.66758549  1.00073140  0.66609052  1
  Cr  Cr47  1  0.83181281  0.16736640  0.83167865  1
  Ni  Ni48  1  0.83273417  0.50021586  0.49931704  1
  Ni  Ni49  1  0.66744412  0.33548820  0.66477497  1
  Fe  Fe50  1  0.83094728  0.49966664  0.83450336  1
  Cr  Cr51  1  0.83498765  0.83435150  0.50014784  1
  Fe  Fe52  1  0.66644560  0.66473444  0.66779308  1
  Ni  Ni53  1  0.83185599  0.83246163  0.83423923  1
" 