5263,Ni30Fe24Cr45_10,-222.252346972566, 177.752986707112,Ni30Fe24Cr45,"# generated using pymatgen
 data_Cr25Fe13Ni16
_symmetry_space_group_name_H-M   'P 1'
_cell_length_a   7.49797142
_cell_length_b   7.49797142
_cell_length_c   10.60373287
_cell_angle_alpha   90.00000000
_cell_angle_beta   90.00000000
_cell_angle_gamma   90.00000000
_symmetry_Int_Tables_number   1
_chemical_formula_structural   Cr25Fe13Ni16
_chemical_formula_sum   'Cr25 Fe13 Ni16'
_cell_volume   596.13735872
_cell_formula_units_Z   1
loop_
 _symmetry_equiv_pos_site_id
 _symmetry_equiv_pos_as_xyz
  1  'x, y, z'
loop_
 _atom_site_type_symbol
 _atom_site_label
 _atom_site_symmetry_multiplicity
 _atom_site_fract_x
 _atom_site_fract_y
 _atom_site_fract_z
 _atom_site_occupancy
  Ni  Ni0  1  0.00021042  0.99441469  -0.00162549  1
  Ni  Ni1  1  0.16374857  0.16238744  0.16269457  1
  Ni  Ni2  1  0.99752993  0.99476143  0.32854206  1
  Cr  Cr3  1  -0.00014619  0.33145093  0.99553590  1
  Cr  Cr4  1  0.16530752  0.50223488  0.16358452  1
  Cr  Cr5  1  -0.00066246  0.33120876  0.33275190  1
  Fe  Fe6  1  -0.00118424  0.66802755  0.99553268  1
  Ni  Ni7  1  0.16172523  0.83114447  0.16546300  1
  Fe  Fe8  1  -0.00053559  0.66625156  0.33233936  1
  Cr  Cr9  1  0.32760952  0.99654329  0.99526795  1
  Cr  Cr10  1  0.49904467  0.16403433  0.16469389  1
  Cr  Cr11  1  0.32818905  0.99738998  0.33297782  1
  Fe  Fe12  1  0.32856962  0.33009846  0.99705876  1
  Cr  Cr13  1  0.49518584  0.49943109  0.16269675  1
  Cr  Cr14  1  0.33044481  0.33216626  0.33130197  1
  Fe  Fe15  1  0.32669616  0.66642460  0.99601204  1
  Cr  Cr16  1  0.49746288  0.83061512  0.16341415  1
  Ni  Ni17  1  0.33094565  0.66490932  0.33111799  1
  Fe  Fe18  1  0.66767138  0.99577233  0.99639815  1
  Cr  Cr19  1  0.83219704  0.16100344  0.16439370  1
  Fe  Fe20  1  0.66601844  0.99554035  0.33249373  1
  Cr  Cr21  1  0.66570331  0.33399780  -0.00164447  1
  Cr  Cr22  1  0.83349656  0.50101004  0.16492588  1
  Cr  Cr23  1  0.66415771  0.33360800  0.33409025  1
  Cr  Cr24  1  0.66720346  0.66684607  0.99502683  1
  Ni  Ni25  1  0.83527624  0.83296309  0.16442154  1
  Cr  Cr26  1  0.66592236  0.66476035  0.33363762  1
  Cr  Cr27  1  0.16224654  0.16402933  0.50045509  1
  Cr  Cr28  1  -0.00073213  0.99531102  0.66701769  1
  Fe  Fe29  1  0.16280088  0.16402322  0.83095032  1
  Ni  Ni30  1  0.16621074  0.50044888  0.49959982  1
  Ni  Ni31  1  0.99684338  0.33542454  0.66558323  1
  Fe  Fe32  1  0.16179018  0.50106799  0.82902158  1
  Cr  Cr33  1  0.16276210  0.82746160  0.49745383  1
  Ni  Ni34  1  -0.00193688  0.66408844  0.66489515  1
  Ni  Ni35  1  0.16430176  0.82879129  0.83039021  1
  Fe  Fe36  1  0.49808373  0.16529817  0.49957428  1
  Fe  Fe37  1  0.32950919  0.99547216  0.66693502  1
  Cr  Cr38  1  0.49852572  0.16480571  0.83029999  1
  Ni  Ni39  1  0.49634159  0.49883081  0.49947486  1
  Cr  Cr40  1  0.32946927  0.33135383  0.66396214  1
  Cr  Cr41  1  0.49637787  0.49883686  0.83203240  1
  Cr  Cr42  1  0.49622065  0.82900392  0.50124657  1
  Ni  Ni43  1  0.33065554  0.66493270  0.66627846  1
  Fe  Fe44  1  0.49772578  0.82968712  0.82988603  1
  Cr  Cr45  1  0.83131443  0.16340785  0.49858355  1
  Cr  Cr46  1  0.66431272  0.99436312  0.66549258  1
  Cr  Cr47  1  0.83171731  0.16535398  0.83161313  1
  Fe  Fe48  1  0.83359572  0.50078202  0.50152750  1
  Ni  Ni49  1  0.66519765  0.33443334  0.66244938  1
  Ni  Ni50  1  0.83249162  0.50002117  0.82699398  1
  Ni  Ni51  1  0.83255314  0.83031048  0.49709054  1
  Fe  Fe52  1  0.66748859  0.66256400  0.66460944  1
  Ni  Ni53  1  0.83498919  0.82954498  0.83212437  1
" 