6183,Ni30Fe70_6,-243.679735793974, 221.395434204317,Ni30Fe70,"# generated using pymatgen
 data_Fe8Ni19
_symmetry_space_group_name_H-M   'P 1'
_cell_length_a   7.41457585
_cell_length_b   7.41457585
_cell_length_c   10.48579372
_cell_angle_alpha   90.00000000
_cell_angle_beta   90.00000000
_cell_angle_gamma   90.00000000
_symmetry_Int_Tables_number   1
_chemical_formula_structural   Fe8Ni19
_chemical_formula_sum   'Fe16 Ni38'
_cell_volume   576.46631383
_cell_formula_units_Z   2
loop_
 _symmetry_equiv_pos_site_id
 _symmetry_equiv_pos_as_xyz
  1  'x, y, z'
loop_
 _atom_site_type_symbol
 _atom_site_label
 _atom_site_symmetry_multiplicity
 _atom_site_fract_x
 _atom_site_fract_y
 _atom_site_fract_z
 _atom_site_occupancy
  Ni  Ni0  1  1.00336100  1.00306241  1.00270898  1
  Fe  Fe1  1  0.17136500  0.17110884  0.17028365  1
  Ni  Ni2  1  1.00169228  1.00213904  0.33841711  1
  Ni  Ni3  1  0.00391499  0.33753267  0.00460826  1
  Ni  Ni4  1  0.17135690  0.50554666  0.17000783  1
  Fe  Fe5  1  0.00447845  0.33667645  0.33701519  1
  Ni  Ni6  1  0.00387951  0.67000375  1.00272866  1
  Ni  Ni7  1  0.16893912  0.83575593  0.17022155  1
  Ni  Ni8  1  0.00446099  0.67024973  0.33831655  1
  Ni  Ni9  1  0.33714645  0.00367782  0.00498965  1
  Ni  Ni10  1  0.50619551  0.17139056  0.16999501  1
  Fe  Fe11  1  0.33554169  1.00272688  0.33678841  1
  Ni  Ni12  1  0.33712465  0.33722487  1.00192100  1
  Ni  Ni13  1  0.50274580  0.50333338  0.16931474  1
  Ni  Ni14  1  0.33758743  0.33836737  0.33854948  1
  Ni  Ni15  1  0.33635658  0.67009924  1.00319354  1
  Fe  Fe16  1  0.50297929  0.83706864  0.17020986  1
  Ni  Ni17  1  0.33576128  0.66864521  0.33766790  1
  Ni  Ni18  1  0.67019549  0.00364289  1.00287489  1
  Ni  Ni19  1  0.83655387  0.16897355  0.16997356  1
  Ni  Ni20  1  0.67057201  0.00415338  0.33794229  1
  Ni  Ni21  1  0.67044931  0.33672967  1.00330116  1
  Fe  Fe22  1  0.83742172  0.50343567  0.17027552  1
  Fe  Fe23  1  0.67033375  0.33725730  0.33649050  1
  Ni  Ni24  1  0.67039060  0.67008713  0.00379714  1
  Fe  Fe25  1  0.83689369  0.83677485  0.17080601  1
  Fe  Fe26  1  0.66981808  0.67053791  0.33670493  1
  Ni  Ni27  1  0.16837645  0.16980689  0.50236302  1
  Fe  Fe28  1  1.00337010  0.00609654  0.66999237  1
  Ni  Ni29  1  0.16890319  0.16984034  0.83873650  1
  Ni  Ni30  1  0.17084821  0.50378072  0.50388087  1
  Ni  Ni31  1  1.00342758  0.33854511  0.66884605  1
  Ni  Ni32  1  0.17056909  0.50428509  0.83694132  1
  Ni  Ni33  1  0.17025507  0.83682110  0.50390822  1
  Fe  Fe34  1  1.00307246  0.67070185  0.66940506  1
  Ni  Ni35  1  0.17054063  0.83677121  0.83662334  1
  Fe  Fe36  1  0.50323235  0.16973651  0.50359288  1
  Ni  Ni37  1  0.33772375  1.00231253  0.66875067  1
  Ni  Ni38  1  0.50505074  0.16985998  0.83687334  1
  Ni  Ni39  1  0.50384331  0.50405667  0.50374552  1
  Fe  Fe40  1  0.33702687  0.33502192  0.67057261  1
  Ni  Ni41  1  0.50393594  0.50370086  0.83742953  1
  Ni  Ni42  1  0.50347158  0.83570364  0.50201457  1
  Fe  Fe43  1  0.33820017  0.66996140  0.67032618  1
  Ni  Ni44  1  0.50291831  0.83655329  0.83877390  1
  Ni  Ni45  1  0.83660113  0.17021639  0.50329827  1
  Ni  Ni46  1  0.66875415  1.00347306  0.67007506  1
  Ni  Ni47  1  0.83671335  0.17043385  0.83711564  1
  Ni  Ni48  1  0.83625661  0.50314508  0.50229279  1
  Ni  Ni49  1  0.67117285  0.33630273  0.66913658  1
  Fe  Fe50  1  0.83717136  0.50241163  0.83642765  1
  Ni  Ni51  1  0.83631303  0.83787447  0.50395880  1
  Fe  Fe52  1  0.66942675  0.67014959  0.67024348  1
  Fe  Fe53  1  0.83638419  0.83731042  0.83664707  1
" 