7314,Ni30Fe29Cr40_17,-223.057178371447, 179.7823999458,Ni30Fe29Cr40,"# generated using pymatgen
 data_Cr23Fe15Ni16
_symmetry_space_group_name_H-M   'P 1'
_cell_length_a   7.49127640
_cell_length_b   7.49127640
_cell_length_c   10.59426469
_cell_angle_alpha   90.00000000
_cell_angle_beta   90.00000000
_cell_angle_gamma   90.00000000
_symmetry_Int_Tables_number   1
_chemical_formula_structural   Cr23Fe15Ni16
_chemical_formula_sum   'Cr23 Fe15 Ni16'
_cell_volume   594.54189325
_cell_formula_units_Z   1
loop_
 _symmetry_equiv_pos_site_id
 _symmetry_equiv_pos_as_xyz
  1  'x, y, z'
loop_
 _atom_site_type_symbol
 _atom_site_label
 _atom_site_symmetry_multiplicity
 _atom_site_fract_x
 _atom_site_fract_y
 _atom_site_fract_z
 _atom_site_occupancy
  Fe  Fe0  1  0.99679025  0.99771183  0.00122744  1
  Ni  Ni1  1  0.16091614  0.16356969  0.16411111  1
  Ni  Ni2  1  -0.00087721  -0.00087851  0.32867353  1
  Ni  Ni3  1  0.99581146  0.33359943  0.00037483  1
  Cr  Cr4  1  0.16727415  0.49712349  0.16040851  1
  Cr  Cr5  1  0.99714286  0.33273754  0.33072134  1
  Ni  Ni6  1  -0.00075881  0.66457115  -0.00055031  1
  Fe  Fe7  1  0.16627385  0.83268375  0.16348458  1
  Cr  Cr8  1  -0.00141471  0.66403863  0.33102865  1
  Cr  Cr9  1  0.33480714  0.99508939  0.99722247  1
  Cr  Cr10  1  0.49544854  0.16650141  0.16580543  1
  Cr  Cr11  1  0.33127564  0.99511100  0.33308489  1
  Fe  Fe12  1  0.33208883  0.32904099  -0.00150789  1
  Cr  Cr13  1  0.49969149  0.49929247  0.16533301  1
  Fe  Fe14  1  0.32778451  0.33182444  0.33325526  1
  Fe  Fe15  1  0.33320730  0.66694551  -0.00150882  1
  Ni  Ni16  1  0.50330452  0.82976644  0.16230358  1
  Cr  Cr17  1  0.33300507  0.66706078  0.33360897  1
  Ni  Ni18  1  0.66402479  0.99810355  0.99791440  1
  Fe  Fe19  1  0.83113177  0.16391509  0.16270242  1
  Cr  Cr20  1  0.66436283  0.99545721  0.32908311  1
  Ni  Ni21  1  0.66808189  0.33000147  0.99819770  1
  Fe  Fe22  1  0.83077446  0.49879111  0.16194705  1
  Fe  Fe23  1  0.66585535  0.33379356  0.33050025  1
  Fe  Fe24  1  0.66780393  0.66620646  -0.00106803  1
  Fe  Fe25  1  0.83349039  0.83220431  0.16265448  1
  Fe  Fe26  1  0.66534365  0.66595247  0.33181493  1
  Ni  Ni27  1  0.16369186  0.16340292  0.49565023  1
  Fe  Fe28  1  0.00255971  0.99634867  0.66420175  1
  Cr  Cr29  1  0.16454483  0.16283820  0.83448266  1
  Ni  Ni30  1  0.16751960  0.50062994  0.49968317  1
  Cr  Cr31  1  0.99756953  0.33419472  0.66414457  1
  Cr  Cr32  1  0.16618696  0.50143486  0.83544623  1
  Ni  Ni33  1  0.16465861  0.83171999  0.49930579  1
  Fe  Fe34  1  0.00283710  0.66740760  0.66489675  1
  Ni  Ni35  1  0.16492883  0.82988600  0.83328766  1
  Cr  Cr36  1  0.49794516  0.16823170  0.49602419  1
  Cr  Cr37  1  0.33271098  0.99520096  0.66533993  1
  Ni  Ni38  1  0.49981191  0.16606894  0.83493292  1
  Ni  Ni39  1  0.49702319  0.50096431  0.49673340  1
  Cr  Cr40  1  0.32935880  0.33223116  0.66356018  1
  Cr  Cr41  1  0.49792975  0.49784205  0.83421736  1
  Ni  Ni42  1  0.49860198  0.82770406  0.49976226  1
  Ni  Ni43  1  0.33237583  0.66685612  0.66455065  1
  Fe  Fe44  1  0.49806687  0.82950356  0.83270135  1
  Cr  Cr45  1  0.83226859  0.16231571  0.49972536  1
  Cr  Cr46  1  0.66033396  0.99831775  0.66860642  1
  Cr  Cr47  1  0.83109243  0.16349287  0.83144340  1
  Cr  Cr48  1  0.82763974  0.50080199  0.50127224  1
  Fe  Fe49  1  0.66042137  0.33414949  0.66635234  1
  Cr  Cr50  1  0.83070398  0.50080893  0.83081747  1
  Cr  Cr51  1  0.83360566  0.83248850  0.50028169  1
  Ni  Ni52  1  0.66093778  0.66604919  0.66416045  1
  Cr  Cr53  1  0.83470970  0.83156994  0.83027150  1
" 