7699,Ni30Fe70_17,-243.407643705426, 220.491295556366,Ni30Fe70,"# generated using pymatgen
 data_Fe8Ni19
_symmetry_space_group_name_H-M   'P 1'
_cell_length_a   7.41038921
_cell_length_b   7.41038921
_cell_length_c   10.47987292
_cell_angle_alpha   90.00000000
_cell_angle_beta   90.00000000
_cell_angle_gamma   90.00000000
_symmetry_Int_Tables_number   1
_chemical_formula_structural   Fe8Ni19
_chemical_formula_sum   'Fe16 Ni38'
_cell_volume   575.49036111
_cell_formula_units_Z   2
loop_
 _symmetry_equiv_pos_site_id
 _symmetry_equiv_pos_as_xyz
  1  'x, y, z'
loop_
 _atom_site_type_symbol
 _atom_site_label
 _atom_site_symmetry_multiplicity
 _atom_site_fract_x
 _atom_site_fract_y
 _atom_site_fract_z
 _atom_site_occupancy
  Ni  Ni0  1  1.00353364  0.00477833  1.00353011  1
  Ni  Ni1  1  0.16941849  0.17147393  0.17215087  1
  Ni  Ni2  1  1.00338410  0.00449995  0.33786503  1
  Ni  Ni3  1  0.00391677  0.33535540  1.00319328  1
  Ni  Ni4  1  0.17195576  0.50292296  0.17018829  1
  Ni  Ni5  1  0.00465815  0.33654043  0.33716728  1
  Fe  Fe6  1  1.00364578  0.66969210  1.00350412  1
  Fe  Fe7  1  0.17049010  0.83722750  0.17105789  1
  Ni  Ni8  1  1.00272719  0.67043080  0.33641201  1
  Fe  Fe9  1  0.33693676  0.00403658  1.00336003  1
  Fe  Fe10  1  0.50350483  0.17074318  0.17148337  1
  Ni  Ni11  1  0.33741925  0.00448126  0.33640567  1
  Ni  Ni12  1  0.33725286  0.33755851  1.00355816  1
  Ni  Ni13  1  0.50256166  0.50508311  0.17176866  1
  Ni  Ni14  1  0.33650222  0.33691027  0.33680560  1
  Ni  Ni15  1  0.33928167  0.67004340  1.00296470  1
  Ni  Ni16  1  0.50434768  0.83579421  0.17110772  1
  Ni  Ni17  1  0.33844815  0.67007920  0.33799745  1
  Fe  Fe18  1  0.67102661  0.00392619  0.00448948  1
  Ni  Ni19  1  0.83823427  0.16968463  0.17085013  1
  Ni  Ni20  1  0.67066693  1.00254779  0.33706004  1
  Ni  Ni21  1  0.67029575  0.33828576  1.00362435  1
  Fe  Fe22  1  0.83708333  0.50389200  0.17048520  1
  Fe  Fe23  1  0.67073906  0.33668532  0.33709338  1
  Ni  Ni24  1  0.66938424  0.67043395  0.00388401  1
  Ni  Ni25  1  0.83607024  0.83832871  0.17110441  1
  Ni  Ni26  1  0.67029665  0.67134248  0.33677865  1
  Fe  Fe27  1  0.17019294  0.17109034  0.50396951  1
  Ni  Ni28  1  0.00422659  0.00416395  0.67007542  1
  Ni  Ni29  1  0.16956629  0.16999801  0.83592921  1
  Ni  Ni30  1  0.17026303  0.50500213  0.50439838  1
  Ni  Ni31  1  0.00452427  0.33654085  0.67111148  1
  Fe  Fe32  1  0.17003591  0.50377672  0.83715865  1
  Ni  Ni33  1  0.17116655  0.83629164  0.50278357  1
  Ni  Ni34  1  1.00171539  0.67076525  0.67152349  1
  Ni  Ni35  1  0.17115410  0.83799488  0.83806892  1
  Ni  Ni36  1  0.50457059  0.17015710  0.50336476  1
  Ni  Ni37  1  0.33672981  0.00503710  0.67108408  1
  Fe  Fe38  1  0.50371214  0.17045953  0.83633797  1
  Fe  Fe39  1  0.50365394  0.50342074  0.50365606  1
  Ni  Ni40  1  0.33675972  0.33599576  0.67111039  1
  Ni  Ni41  1  0.50413703  0.50475475  0.83632456  1
  Fe  Fe42  1  0.50392834  0.83727714  0.50326012  1
  Fe  Fe43  1  0.33577278  0.67089121  0.67081277  1
  Ni  Ni44  1  0.50325798  0.83580137  0.83664677  1
  Ni  Ni45  1  0.83641882  0.17105221  0.50381037  1
  Fe  Fe46  1  0.67111374  0.00424381  0.67006381  1
  Ni  Ni47  1  0.83833630  0.17088516  0.83681009  1
  Ni  Ni48  1  0.83783100  0.50292315  0.50280300  1
  Fe  Fe49  1  0.67151429  0.33706112  0.67093938  1
  Ni  Ni50  1  0.83613596  0.50316207  0.83791310  1
  Fe  Fe51  1  0.83783062  0.83675364  0.50350025  1
  Ni  Ni52  1  0.67105378  0.67073665  0.67080152  1
  Ni  Ni53  1  0.83705273  0.83742253  0.83628923  1
" 