1659,Ni30Fe41Cr28_13,-227.915031001772, 190.492949890368,Ni30Fe41Cr28,"# generated using pymatgen
 data_Cr8Fe11Ni8
_symmetry_space_group_name_H-M   'P 1'
_cell_length_a   7.45980408
_cell_length_b   7.45980408
_cell_length_c   10.54975610
_cell_angle_alpha   90.00000000
_cell_angle_beta   90.00000000
_cell_angle_gamma   90.00000000
_symmetry_Int_Tables_number   1
_chemical_formula_structural   Cr8Fe11Ni8
_chemical_formula_sum   'Cr16 Fe22 Ni16'
_cell_volume   587.07996911
_cell_formula_units_Z   2
loop_
 _symmetry_equiv_pos_site_id
 _symmetry_equiv_pos_as_xyz
  1  'x, y, z'
loop_
 _atom_site_type_symbol
 _atom_site_label
 _atom_site_symmetry_multiplicity
 _atom_site_fract_x
 _atom_site_fract_y
 _atom_site_fract_z
 _atom_site_occupancy
  Fe  Fe0  1  0.99958394  0.99999596  0.99871815  1
  Cr  Cr1  1  0.16806238  0.16780497  0.16552581  1
  Cr  Cr2  1  0.00132971  0.00183443  0.33386933  1
  Fe  Fe3  1  0.99956631  0.33450816  0.99993972  1
  Cr  Cr4  1  0.16554707  0.49874185  0.16404727  1
  Ni  Ni5  1  0.99931839  0.33291283  0.33362478  1
  Ni  Ni6  1  0.99957342  0.66920308  0.99867773  1
  Cr  Cr7  1  0.17046744  0.83582517  0.16524796  1
  Cr  Cr8  1  0.00324073  0.66659364  0.33654417  1
  Ni  Ni9  1  0.33527342  0.99894577  0.00064205  1
  Cr  Cr10  1  0.49712201  0.16538777  0.16774204  1
  Fe  Fe11  1  0.33382940  0.00088920  0.33608417  1
  Ni  Ni12  1  0.33608722  0.33512807  0.99833595  1
  Fe  Fe13  1  0.50064190  0.50144716  0.16723094  1
  Fe  Fe14  1  0.33220962  0.33371700  0.33558276  1
  Fe  Fe15  1  0.33538336  0.66732477  0.99832257  1
  Ni  Ni16  1  0.50289512  0.83311123  0.16670666  1
  Cr  Cr17  1  0.33478393  0.66749126  0.33385038  1
  Fe  Fe18  1  0.66665362  0.99809081  0.99957429  1
  Fe  Fe19  1  0.83372946  0.16847370  0.16633448  1
  Cr  Cr20  1  0.66671168  0.00123432  0.33531610  1
  Cr  Cr21  1  0.66626452  0.33395109  0.00054050  1
  Ni  Ni22  1  0.83214910  0.50144345  0.16851870  1
  Fe  Fe23  1  0.66734456  0.33544370  0.33369343  1
  Fe  Fe24  1  0.66580335  0.66835636  0.00060428  1
  Fe  Fe25  1  0.83274655  0.83195886  0.16519254  1
  Fe  Fe26  1  0.66672163  0.66575375  0.33248469  1
  Ni  Ni27  1  0.16901272  0.16889610  0.49913347  1
  Cr  Cr28  1  0.00136065  0.00218901  0.66709204  1
  Cr  Cr29  1  0.16897628  0.16779536  0.83585848  1
  Ni  Ni30  1  0.16885847  0.49716922  0.50414762  1
  Ni  Ni31  1  0.00141744  0.33222383  0.66687096  1
  Fe  Fe32  1  0.16881733  0.50229853  0.83359858  1
  Fe  Fe33  1  0.16968584  0.83312809  0.50275936  1
  Fe  Fe34  1  0.00585807  0.66639739  0.66831362  1
  Ni  Ni35  1  0.17058716  0.83367694  0.83396915  1
  Fe  Fe36  1  0.49880318  0.16861035  0.50031514  1
  Ni  Ni37  1  0.33483393  0.99914418  0.66492666  1
  Fe  Fe38  1  0.49940695  0.16321771  0.83441204  1
  Ni  Ni39  1  0.49865860  0.50079213  0.49902812  1
  Fe  Fe40  1  0.33243954  0.33412315  0.66661670  1
  Fe  Fe41  1  0.49693689  0.50115737  0.83319202  1
  Fe  Fe42  1  0.49742495  0.83432756  0.50161396  1
  Ni  Ni43  1  0.33329440  0.66749026  0.66844093  1
  Ni  Ni44  1  0.49937649  0.83544490  0.83406629  1
  Ni  Ni45  1  0.83486528  0.16819757  0.50007462  1
  Fe  Fe46  1  0.66461721  0.00154356  0.66841273  1
  Ni  Ni47  1  0.83302262  0.16652951  0.83474427  1
  Cr  Cr48  1  0.83454426  0.49967446  0.50084914  1
  Cr  Cr49  1  0.66553358  0.33046720  0.66686560  1
  Cr  Cr50  1  0.83623710  0.50087745  0.83128782  1
  Cr  Cr51  1  0.83135126  0.83269357  0.50381689  1
  Cr  Cr52  1  0.66292795  0.66671359  0.66783691  1
  Fe  Fe53  1  0.83432924  0.83586985  0.83502264  1
" 