8093,Ni30Fe44Cr24_18,-229.028087468499, 190.381042464839,Ni30Fe44Cr24,"# generated using pymatgen
 data_Cr7(Fe3Ni2)4
_symmetry_space_group_name_H-M   'P 1'
_cell_length_a   7.45832038
_cell_length_b   7.45832038
_cell_length_c   10.54765783
_cell_angle_alpha   90.00000000
_cell_angle_beta   90.00000000
_cell_angle_gamma   90.00000000
_symmetry_Int_Tables_number   1
_chemical_formula_structural   Cr7(Fe3Ni2)4
_chemical_formula_sum   'Cr14 Fe24 Ni16'
_cell_volume   586.72974091
_cell_formula_units_Z   2
loop_
 _symmetry_equiv_pos_site_id
 _symmetry_equiv_pos_as_xyz
  1  'x, y, z'
loop_
 _atom_site_type_symbol
 _atom_site_label
 _atom_site_symmetry_multiplicity
 _atom_site_fract_x
 _atom_site_fract_y
 _atom_site_fract_z
 _atom_site_occupancy
  Ni  Ni0  1  1.00026510  0.99799925  0.00264332  1
  Fe  Fe1  1  0.16920535  0.16775475  0.16747879  1
  Cr  Cr2  1  0.99883261  0.00135079  0.33378430  1
  Cr  Cr3  1  0.99989593  0.33310243  0.00073340  1
  Ni  Ni4  1  0.16661234  0.50131958  0.16804830  1
  Fe  Fe5  1  0.00217422  0.33234269  0.33557343  1
  Fe  Fe6  1  0.00362332  0.66907326  0.99968166  1
  Fe  Fe7  1  0.16732724  0.83338577  0.16459126  1
  Cr  Cr8  1  0.00095310  0.66771966  0.33468822  1
  Ni  Ni9  1  0.33318114  0.99965829  0.99971077  1
  Ni  Ni10  1  0.50243530  0.16577464  0.16658045  1
  Cr  Cr11  1  0.33443633  0.00367462  0.33655756  1
  Cr  Cr12  1  0.33582281  0.33251536  0.00067839  1
  Cr  Cr13  1  0.49876125  0.50008855  0.16934295  1
  Ni  Ni14  1  0.33329723  0.33463593  0.33395594  1
  Fe  Fe15  1  0.33003377  0.66933784  0.99940268  1
  Cr  Cr16  1  0.49988012  0.83605355  0.16625011  1
  Fe  Fe17  1  0.33286688  0.66697363  0.33637718  1
  Fe  Fe18  1  0.66752178  0.00444110  0.99944406  1
  Fe  Fe19  1  0.83132416  0.16562941  0.16729911  1
  Ni  Ni20  1  0.66788368  0.00184353  0.33327512  1
  Ni  Ni21  1  0.66750120  0.33157245  1.00024363  1
  Cr  Cr22  1  0.83487198  0.49831411  0.16802145  1
  Fe  Fe23  1  0.66656569  0.32893291  0.33450104  1
  Cr  Cr24  1  0.66897927  0.66737425  0.99882976  1
  Fe  Fe25  1  0.83459570  0.83642810  0.16588681  1
  Cr  Cr26  1  0.66752474  0.66896625  0.33822890  1
  Ni  Ni27  1  0.16620254  0.17058268  0.50140050  1
  Cr  Cr28  1  1.00002014  0.99976043  0.66472582  1
  Cr  Cr29  1  0.16604904  0.16633681  0.83090905  1
  Fe  Fe30  1  0.16705634  0.49787566  0.50057563  1
  Ni  Ni31  1  1.00034906  0.33697890  0.66572852  1
  Fe  Fe32  1  0.16559673  0.50262150  0.83263438  1
  Fe  Fe33  1  0.16778969  0.83503395  0.50218256  1
  Ni  Ni34  1  0.99758571  0.66478821  0.66863972  1
  Fe  Fe35  1  0.16820501  0.83332215  0.83491591  1
  Fe  Fe36  1  0.50170633  0.16689949  0.50095990  1
  Ni  Ni37  1  0.33763234  0.00235508  0.66603992  1
  Fe  Fe38  1  0.50212177  0.16420558  0.83368654  1
  Fe  Fe39  1  0.49982696  0.49664082  0.50064961  1
  Ni  Ni40  1  0.33419262  0.33224648  0.66595622  1
  Cr  Cr41  1  0.50155869  0.50082413  0.83365540  1
  Ni  Ni42  1  0.50212591  0.83387899  0.50175948  1
  Cr  Cr43  1  0.33342568  0.66788681  0.66584639  1
  Ni  Ni44  1  0.50100332  0.83654516  0.83401910  1
  Ni  Ni45  1  0.83392304  0.16926643  0.50029112  1
  Ni  Ni46  1  0.66538238  0.99991027  0.66758139  1
  Fe  Fe47  1  0.83064857  0.16655521  0.83289094  1
  Fe  Fe48  1  0.83444967  0.49852712  0.50283447  1
  Fe  Fe49  1  0.66840914  0.33164665  0.66709464  1
  Fe  Fe50  1  0.83534131  0.50006295  0.83226622  1
  Fe  Fe51  1  0.83190531  0.83641038  0.50263414  1
  Fe  Fe52  1  0.66862985  0.66923139  0.66653699  1
  Fe  Fe53  1  0.83408421  0.83493765  0.83337046  1
" 