8568,Ni30Fe41Cr28_4,-228.238215460511, 191.018414669982,Ni30Fe41Cr28,"# generated using pymatgen
 data_Cr8Fe11Ni8
_symmetry_space_group_name_H-M   'P 1'
_cell_length_a   7.46660358
_cell_length_b   7.46660358
_cell_length_c   10.55937205
_cell_angle_alpha   90.00000000
_cell_angle_beta   90.00000000
_cell_angle_gamma   90.00000000
_symmetry_Int_Tables_number   1
_chemical_formula_structural   Cr8Fe11Ni8
_chemical_formula_sum   'Cr16 Fe22 Ni16'
_cell_volume   588.68677730
_cell_formula_units_Z   2
loop_
 _symmetry_equiv_pos_site_id
 _symmetry_equiv_pos_as_xyz
  1  'x, y, z'
loop_
 _atom_site_type_symbol
 _atom_site_label
 _atom_site_symmetry_multiplicity
 _atom_site_fract_x
 _atom_site_fract_y
 _atom_site_fract_z
 _atom_site_occupancy
  Cr  Cr0  1  0.00163827  0.99896809  0.00172419  1
  Fe  Fe1  1  0.16770744  0.16543902  0.16636331  1
  Ni  Ni2  1  0.00080678  0.00077654  0.33127726  1
  Ni  Ni3  1  0.00223174  0.33497180  0.99999082  1
  Cr  Cr4  1  0.16778077  0.49983031  0.16479685  1
  Cr  Cr5  1  0.99908451  0.33203928  0.33470599  1
  Ni  Ni6  1  0.00009021  0.66660888  0.99983635  1
  Fe  Fe7  1  0.16787661  0.83424551  0.16634228  1
  Cr  Cr8  1  0.99931884  0.66659751  0.33120898  1
  Fe  Fe9  1  0.33336999  0.99984328  0.00152344  1
  Ni  Ni10  1  0.49937662  0.16885458  0.16521469  1
  Cr  Cr11  1  0.33328604  0.00103594  0.33212747  1
  Ni  Ni12  1  0.33256666  0.33227271  0.00191501  1
  Fe  Fe13  1  0.50232002  0.50024871  0.16590521  1
  Fe  Fe14  1  0.33557009  0.33284575  0.33417064  1
  Fe  Fe15  1  0.33378656  0.66701186  0.00056373  1
  Ni  Ni16  1  0.50071405  0.83226697  0.16604258  1
  Fe  Fe17  1  0.33693282  0.66517823  0.33262926  1
  Cr  Cr18  1  0.66475028  0.99833206  0.99997545  1
  Fe  Fe19  1  0.83203930  0.16773049  0.16644759  1
  Cr  Cr20  1  0.66661027  0.00151961  0.33375690  1
  Ni  Ni21  1  0.66544174  0.33535397  0.00413448  1
  Fe  Fe22  1  0.82959414  0.50009941  0.16421068  1
  Ni  Ni23  1  0.66398182  0.33529091  0.33290259  1
  Ni  Ni24  1  0.66700419  0.66668993  0.00264589  1
  Ni  Ni25  1  0.83360531  0.83151233  0.16610652  1
  Fe  Fe26  1  0.66525192  0.66541822  0.33181364  1
  Ni  Ni27  1  0.16812322  0.16954979  0.50001045  1
  Cr  Cr28  1  0.00100003  0.00021335  0.66669702  1
  Fe  Fe29  1  0.16754246  0.17084519  0.83391676  1
  Fe  Fe30  1  0.16829144  0.49828704  0.50160708  1
  Fe  Fe31  1  0.00103870  0.33564705  0.66524870  1
  Fe  Fe32  1  0.16694741  0.49889874  0.83419785  1
  Cr  Cr33  1  0.16635291  0.83218323  0.49729890  1
  Ni  Ni34  1  0.00073100  0.66386444  0.66821892  1
  Fe  Fe35  1  0.16681185  0.83015084  0.83386214  1
  Ni  Ni36  1  0.49940393  0.17160278  0.50070372  1
  Cr  Cr37  1  0.33428292  0.00134491  0.66810960  1
  Cr  Cr38  1  0.49878174  0.16926726  0.83487368  1
  Fe  Fe39  1  0.49996573  0.49913406  0.50061016  1
  Ni  Ni40  1  0.33198441  0.33481469  0.66411656  1
  Cr  Cr41  1  0.49962460  0.49920689  0.83509952  1
  Fe  Fe42  1  0.49921333  0.83180260  0.49956920  1
  Fe  Fe43  1  0.33403407  0.66462958  0.66656614  1
  Fe  Fe44  1  0.50047400  0.83009384  0.83469318  1
  Fe  Fe45  1  0.83316972  0.16925383  0.49986478  1
  Cr  Cr46  1  0.66465043  0.99932220  0.66632573  1
  Cr  Cr47  1  0.83288128  0.16951566  0.83242300  1
  Fe  Fe48  1  0.83166843  0.49777903  0.50206297  1
  Ni  Ni49  1  0.66492064  0.33576059  0.66316193  1
  Cr  Cr50  1  0.83394792  0.50092323  0.83459456  1
  Cr  Cr51  1  0.83331548  0.83175162  0.50039953  1
  Ni  Ni52  1  0.66683746  0.66514522  0.66533705  1
  Fe  Fe53  1  0.83287355  0.82963610  0.83370474  1
" 