2633,Ni30Fe9Cr59_14,-215.110631895702, 150.159158134343,Ni30Fe9Cr59,"# generated using pymatgen
 data_Cr33Fe5Ni16
_symmetry_space_group_name_H-M   'P 1'
_cell_length_a   7.53506470
_cell_length_b   7.53506470
_cell_length_c   10.65619070
_cell_angle_alpha   90.00000000
_cell_angle_beta   90.00000000
_cell_angle_gamma   90.00000000
_symmetry_Int_Tables_number   1
_chemical_formula_structural   Cr33Fe5Ni16
_chemical_formula_sum   'Cr33 Fe5 Ni16'
_cell_volume   605.02867155
_cell_formula_units_Z   1
loop_
 _symmetry_equiv_pos_site_id
 _symmetry_equiv_pos_as_xyz
  1  'x, y, z'
loop_
 _atom_site_type_symbol
 _atom_site_label
 _atom_site_symmetry_multiplicity
 _atom_site_fract_x
 _atom_site_fract_y
 _atom_site_fract_z
 _atom_site_occupancy
  Cr  Cr0  1  0.99201614  -0.00421622  0.99379782  1
  Cr  Cr1  1  0.16207157  0.15920558  0.16295928  1
  Ni  Ni2  1  0.99310999  0.99434611  0.33265770  1
  Cr  Cr3  1  -0.00414916  0.33035348  -0.00242326  1
  Ni  Ni4  1  0.16542289  0.49840163  0.16102434  1
  Cr  Cr5  1  0.99492474  0.32872567  0.32706849  1
  Cr  Cr6  1  -0.00274787  0.66050759  0.99511633  1
  Cr  Cr7  1  0.16288705  0.82987385  0.16394972  1
  Cr  Cr8  1  -0.00328730  0.66251816  0.33086024  1
  Cr  Cr9  1  0.33293701  0.99344053  0.99357938  1
  Cr  Cr10  1  0.49635598  0.16074190  0.16507179  1
  Fe  Fe11  1  0.32936670  0.99365802  0.33024999  1
  Cr  Cr12  1  0.32807594  0.33087239  0.99433279  1
  Cr  Cr13  1  0.49682406  0.49727451  0.16480089  1
  Cr  Cr14  1  0.32736249  0.33154117  0.32930149  1
  Ni  Ni15  1  0.32806947  0.66125520  0.99504897  1
  Cr  Cr16  1  0.49558420  0.82838874  0.16321193  1
  Ni  Ni17  1  0.32879646  0.66364424  0.32827640  1
  Cr  Cr18  1  0.66176321  0.99535537  0.98983377  1
  Cr  Cr19  1  0.82812597  0.16012076  0.16425432  1
  Ni  Ni20  1  0.66495727  0.99482811  0.33081557  1
  Cr  Cr21  1  0.66266028  0.32592546  0.99495131  1
  Cr  Cr22  1  0.82642529  0.49691020  0.16409707  1
  Ni  Ni23  1  0.66294452  0.32679145  0.33075656  1
  Cr  Cr24  1  0.66027473  0.66541295  0.99367733  1
  Cr  Cr25  1  0.82822605  0.82954392  0.16341563  1
  Ni  Ni26  1  0.66073226  0.66454563  0.33040049  1
  Cr  Cr27  1  0.16070691  0.15840555  0.49586375  1
  Ni  Ni28  1  0.99271171  0.99412944  0.66073809  1
  Cr  Cr29  1  0.16188571  0.16225126  0.82779615  1
  Cr  Cr30  1  0.16297228  0.49655081  0.49878462  1
  Cr  Cr31  1  0.99467863  0.32773085  0.66250223  1
  Ni  Ni32  1  0.16378648  0.49733496  0.82831017  1
  Fe  Fe33  1  0.15967503  0.82963101  0.49521502  1
  Fe  Fe34  1  0.99222128  0.66511344  0.66205398  1
  Cr  Cr35  1  0.15964434  0.82845636  0.82786654  1
  Cr  Cr36  1  0.49733720  0.16350896  0.49488480  1
  Cr  Cr37  1  0.33017046  0.99466443  0.66174145  1
  Ni  Ni38  1  0.49696982  0.16332779  0.82640059  1
  Cr  Cr39  1  0.49789228  0.49545829  0.49588540  1
  Fe  Fe40  1  0.33080443  0.32803134  0.66341497  1
  Cr  Cr41  1  0.49615479  0.49515717  0.82607773  1
  Cr  Cr42  1  0.49702401  0.82747755  0.49253256  1
  Cr  Cr43  1  0.32826338  0.66251119  0.66200261  1
  Fe  Fe44  1  0.49590515  0.82741638  0.82747788  1
  Ni  Ni45  1  0.82845789  0.15899863  0.49496505  1
  Cr  Cr46  1  0.66341936  0.99489897  0.66451355  1
  Ni  Ni47  1  0.82750255  0.16049274  0.82640968  1
  Cr  Cr48  1  0.82507564  0.49685362  0.49656097  1
  Ni  Ni49  1  0.66351585  0.32737324  0.66231234  1
  Cr  Cr50  1  0.82885568  0.49712801  0.82690017  1
  Ni  Ni51  1  0.82935884  0.83052168  0.49627959  1
  Ni  Ni52  1  0.66291873  0.66348095  0.66214008  1
  Ni  Ni53  1  0.82863958  0.82940692  0.82556164  1
" 