8399,Ni30Fe44Cr25_6,-228.389911710309, 191.108511671178,Ni30Fe44Cr25,"# generated using pymatgen
 data_Cr15Fe23Ni16
_symmetry_space_group_name_H-M   'P 1'
_cell_length_a   7.45651292
_cell_length_b   7.45651292
_cell_length_c   10.54510170
_cell_angle_alpha   90.00000000
_cell_angle_beta   90.00000000
_cell_angle_gamma   90.00000000
_symmetry_Int_Tables_number   1
_chemical_formula_structural   Cr15Fe23Ni16
_chemical_formula_sum   'Cr15 Fe23 Ni16'
_cell_volume   586.30327676
_cell_formula_units_Z   1
loop_
 _symmetry_equiv_pos_site_id
 _symmetry_equiv_pos_as_xyz
  1  'x, y, z'
loop_
 _atom_site_type_symbol
 _atom_site_label
 _atom_site_symmetry_multiplicity
 _atom_site_fract_x
 _atom_site_fract_y
 _atom_site_fract_z
 _atom_site_occupancy
  Fe  Fe0  1  0.00294772  0.00181051  0.99850174  1
  Cr  Cr1  1  0.16672271  0.16785851  0.16953024  1
  Ni  Ni2  1  0.00094819  0.99981060  0.33647383  1
  Fe  Fe3  1  0.00116970  0.33364454  0.99779637  1
  Fe  Fe4  1  0.16465826  0.49994168  0.16987515  1
  Ni  Ni5  1  0.99857203  0.33417132  0.33501247  1
  Cr  Cr6  1  0.00347334  0.66691800  0.00198666  1
  Ni  Ni7  1  0.16495622  0.83808590  0.16653928  1
  Fe  Fe8  1  0.99719748  0.66994257  0.33471224  1
  Fe  Fe9  1  0.33378924  0.00187512  0.99999509  1
  Fe  Fe10  1  0.50233739  0.16641788  0.16782560  1
  Cr  Cr11  1  0.33352355  0.99929659  0.33535876  1
  Cr  Cr12  1  0.33490834  0.33592005  0.00144821  1
  Cr  Cr13  1  0.50344629  0.49897014  0.17237960  1
  Fe  Fe14  1  0.33530504  0.33223654  0.33566041  1
  Cr  Cr15  1  0.33221852  0.66878019  0.00166834  1
  Fe  Fe16  1  0.50311690  0.83527952  0.16662847  1
  Cr  Cr17  1  0.33053628  0.66792141  0.33097572  1
  Fe  Fe18  1  0.66446006  0.99991373  0.99924228  1
  Cr  Cr19  1  0.83477482  0.16700780  0.16443623  1
  Cr  Cr20  1  0.67019894  0.00181817  0.33671071  1
  Ni  Ni21  1  0.66695377  0.33077917  0.99688194  1
  Cr  Cr22  1  0.83276755  0.50005503  0.16684002  1
  Ni  Ni23  1  0.66881100  0.33385443  0.33739230  1
  Fe  Fe24  1  0.66548392  0.66460538  0.99972751  1
  Fe  Fe25  1  0.83446897  0.83434897  0.16760811  1
  Ni  Ni26  1  0.66827422  0.66631092  0.33675191  1
  Fe  Fe27  1  0.16629783  0.16789205  0.50173108  1
  Ni  Ni28  1  0.00161757  0.00117751  0.66613505  1
  Ni  Ni29  1  0.16644134  0.16605493  0.83232234  1
  Cr  Cr30  1  0.16765035  0.50111982  0.49837428  1
  Fe  Fe31  1  0.00220563  0.33460484  0.66721696  1
  Ni  Ni32  1  0.16809038  0.49760889  0.83330238  1
  Ni  Ni33  1  0.16378026  0.83653059  0.50406967  1
  Ni  Ni34  1  0.00452485  0.66732136  0.66662704  1
  Fe  Fe35  1  0.16807469  0.83396920  0.83113299  1
  Ni  Ni36  1  0.49843798  0.16988609  0.49972297  1
  Fe  Fe37  1  0.33143013  0.00180803  0.66689817  1
  Fe  Fe38  1  0.49796282  0.16785473  0.83333298  1
  Ni  Ni39  1  0.50246973  0.49876088  0.50090950  1
  Fe  Fe40  1  0.33264194  0.33396507  0.66829892  1
  Ni  Ni41  1  0.50202925  0.50193525  0.83150429  1
  Cr  Cr42  1  0.49860802  0.82997286  0.50523054  1
  Ni  Ni43  1  0.33150580  0.66504425  0.67012916  1
  Fe  Fe44  1  0.49754837  0.83413756  0.83160815  1
  Fe  Fe45  1  0.83820836  0.17010136  0.49951723  1
  Cr  Cr46  1  0.66919730  0.00581904  0.66404879  1
  Fe  Fe47  1  0.83693580  0.16913310  0.83495438  1
  Ni  Ni48  1  0.83364165  0.50118305  0.50125967  1
  Cr  Cr49  1  0.66790510  0.33427483  0.66643374  1
  Fe  Fe50  1  0.83635417  0.49923599  0.83316374  1
  Fe  Fe51  1  0.83614563  0.83114060  0.50239693  1
  Fe  Fe52  1  0.66951064  0.66632422  0.66677102  1
  Cr  Cr53  1  0.83291008  0.83371532  0.83309490  1
" 