6443,Ni30Fe24Cr45_1,-222.005795634735, 179.100684062334,Ni30Fe24Cr45,"# generated using pymatgen
 data_Cr25Fe13Ni16
_symmetry_space_group_name_H-M   'P 1'
_cell_length_a   7.49789509
_cell_length_b   7.49789509
_cell_length_c   10.60362493
_cell_angle_alpha   90.00000000
_cell_angle_beta   90.00000000
_cell_angle_gamma   90.00000000
_symmetry_Int_Tables_number   1
_chemical_formula_structural   Cr25Fe13Ni16
_chemical_formula_sum   'Cr25 Fe13 Ni16'
_cell_volume   596.11915435
_cell_formula_units_Z   1
loop_
 _symmetry_equiv_pos_site_id
 _symmetry_equiv_pos_as_xyz
  1  'x, y, z'
loop_
 _atom_site_type_symbol
 _atom_site_label
 _atom_site_symmetry_multiplicity
 _atom_site_fract_x
 _atom_site_fract_y
 _atom_site_fract_z
 _atom_site_occupancy
  Ni  Ni0  1  0.00083960  0.99446984  0.00059711  1
  Ni  Ni1  1  0.16187647  0.15975233  0.16533425  1
  Fe  Fe2  1  -0.00005807  0.99754869  0.32877623  1
  Cr  Cr3  1  0.00009371  0.33070746  -0.00204802  1
  Cr  Cr4  1  0.16350811  0.50214145  0.16656357  1
  Ni  Ni5  1  0.99711238  0.33109325  0.33184304  1
  Ni  Ni6  1  0.99726312  0.66829251  -0.00200579  1
  Fe  Fe7  1  0.16450118  0.83351523  0.16526475  1
  Ni  Ni8  1  0.99739041  0.66563899  0.33180058  1
  Ni  Ni9  1  0.32803098  0.99708107  -0.00020100  1
  Cr  Cr10  1  0.49900567  0.16209823  0.16597742  1
  Ni  Ni11  1  0.32957775  0.99583212  0.33175023  1
  Fe  Fe12  1  0.32810285  0.32932756  -0.00168537  1
  Cr  Cr13  1  0.49680639  0.50112935  0.16282079  1
  Cr  Cr14  1  0.32935207  0.33012931  0.33033757  1
  Fe  Fe15  1  0.33056767  0.66726782  -0.00105789  1
  Ni  Ni16  1  0.49308389  0.83200410  0.16470105  1
  Ni  Ni17  1  0.32972908  0.66965615  0.32900556  1
  Cr  Cr18  1  0.66710451  0.99452748  -0.00125665  1
  Ni  Ni19  1  0.83556620  0.16179967  0.16686791  1
  Cr  Cr20  1  0.66417318  0.99559178  0.33181773  1
  Cr  Cr21  1  0.66392904  0.33421753  -0.00072024  1
  Cr  Cr22  1  0.83311829  0.49595910  0.16751928  1
  Ni  Ni23  1  0.66826403  0.33086713  0.33156802  1
  Fe  Fe24  1  0.66645921  0.66748840  0.99748141  1
  Fe  Fe25  1  0.83425122  0.83165042  0.16359787  1
  Cr  Cr26  1  0.66619887  0.66561971  0.33028811  1
  Fe  Fe27  1  0.16284128  0.16516446  0.49498256  1
  Cr  Cr28  1  -0.00101096  0.99775924  0.66638084  1
  Fe  Fe29  1  0.16518764  0.16265100  0.83473509  1
  Cr  Cr30  1  0.16135740  0.50169136  0.49732853  1
  Fe  Fe31  1  -0.00198719  0.33280409  0.66266764  1
  Cr  Cr32  1  0.16542036  0.50138829  0.83005386  1
  Cr  Cr33  1  0.16647181  0.83051259  0.49531241  1
  Fe  Fe34  1  0.99583943  0.66548256  0.66336871  1
  Cr  Cr35  1  0.16396550  0.83100977  0.83326184  1
  Fe  Fe36  1  0.49683636  0.16462904  0.49584748  1
  Cr  Cr37  1  0.33018544  -0.00134727  0.66148643  1
  Cr  Cr38  1  0.49743230  0.16411775  0.83305579  1
  Cr  Cr39  1  0.49849636  0.50018945  0.49621261  1
  Cr  Cr40  1  0.32815045  0.33086471  0.66655547  1
  Ni  Ni41  1  0.49619357  0.50121900  0.83332333  1
  Fe  Fe42  1  0.49785932  0.82874399  0.49702646  1
  Ni  Ni43  1  0.33378845  0.66381226  0.66468545  1
  Cr  Cr44  1  0.49682311  0.82925776  0.83057286  1
  Cr  Cr45  1  0.83154952  0.16621079  0.49533913  1
  Cr  Cr46  1  0.66505937  0.99305560  0.66251461  1
  Cr  Cr47  1  0.83304642  0.16179597  0.83269417  1
  Ni  Ni48  1  0.83273984  0.49841054  0.49790080  1
  Cr  Cr49  1  0.66356728  0.33369397  0.66373958  1
  Cr  Cr50  1  0.83098296  0.50065668  0.82891380  1
  Fe  Fe51  1  0.83288993  0.82612218  0.49908836  1
  Ni  Ni52  1  0.66598483  0.66416157  0.66518026  1
  Ni  Ni53  1  0.83339928  0.82945386  0.83175228  1
" 