3939,Ni30Fe44Cr25_4,-228.711283194079, 200.54658949915,Ni30Fe44Cr25,"# generated using pymatgen
 data_Cr15Fe23Ni16
_symmetry_space_group_name_H-M   'P 1'
_cell_length_a   7.45140340
_cell_length_b   7.45140340
_cell_length_c   10.53787575
_cell_angle_alpha   90.00000000
_cell_angle_beta   90.00000000
_cell_angle_gamma   90.00000000
_symmetry_Int_Tables_number   1
_chemical_formula_structural   Cr15Fe23Ni16
_chemical_formula_sum   'Cr15 Fe23 Ni16'
_cell_volume   585.09882319
_cell_formula_units_Z   1
loop_
 _symmetry_equiv_pos_site_id
 _symmetry_equiv_pos_as_xyz
  1  'x, y, z'
loop_
 _atom_site_type_symbol
 _atom_site_label
 _atom_site_symmetry_multiplicity
 _atom_site_fract_x
 _atom_site_fract_y
 _atom_site_fract_z
 _atom_site_occupancy
  Fe  Fe0  1  0.00249834  0.00185819  0.00106045  1
  Cr  Cr1  1  0.16825564  0.16680396  0.16527673  1
  Fe  Fe2  1  0.00152023  0.00167847  0.33535939  1
  Cr  Cr3  1  0.00387011  0.33689976  0.99543097  1
  Fe  Fe4  1  0.16839267  0.50272867  0.16707970  1
  Cr  Cr5  1  0.00351440  0.33684120  0.33780505  1
  Cr  Cr6  1  0.99932255  0.66925120  0.00142592  1
  Ni  Ni7  1  0.16845519  0.83714008  0.17008433  1
  Fe  Fe8  1  0.99940525  0.66929284  0.33441575  1
  Ni  Ni9  1  0.33690502  0.00184592  1.00034739  1
  Fe  Fe10  1  0.50092742  0.16650670  0.16700855  1
  Ni  Ni11  1  0.33311207  0.00165813  0.33526146  1
  Ni  Ni12  1  0.33632452  0.33417492  1.00031713  1
  Cr  Cr13  1  0.50064240  0.49946803  0.16844043  1
  Fe  Fe14  1  0.33838197  0.33109072  0.33693739  1
  Fe  Fe15  1  0.33480465  0.66853538  1.00101690  1
  Ni  Ni16  1  0.49739290  0.83229010  0.16637445  1
  Cr  Cr17  1  0.33218673  0.66739643  0.33659490  1
  Cr  Cr18  1  0.66614871  0.99854664  0.00120957  1
  Ni  Ni19  1  0.83616497  0.16797492  0.16906682  1
  Cr  Cr20  1  0.66273520  0.00227438  0.33322237  1
  Fe  Fe21  1  0.66542428  0.33211208  1.00019542  1
  Cr  Cr22  1  0.83102384  0.49887641  0.16748780  1
  Ni  Ni23  1  0.66887913  0.33371253  0.33610775  1
  Fe  Fe24  1  0.66268046  0.66670582  0.99890334  1
  Fe  Fe25  1  0.83432863  0.83540245  0.16950058  1
  Ni  Ni26  1  0.66802498  0.66661749  0.33360127  1
  Ni  Ni27  1  0.16947000  0.16724790  0.50290501  1
  Cr  Cr28  1  0.00165969  0.00196539  0.66730268  1
  Fe  Fe29  1  0.17586711  0.17007355  0.83288317  1
  Fe  Fe30  1  0.16942850  0.49999239  0.50322528  1
  Fe  Fe31  1  0.00356761  0.33520258  0.66543678  1
  Fe  Fe32  1  0.17395677  0.50021559  0.83274223  1
  Fe  Fe33  1  0.16677145  0.83661986  0.50095685  1
  Cr  Cr34  1  1.00038062  0.66420802  0.66685537  1
  Cr  Cr35  1  0.17074508  0.83815491  0.83339960  1
  Fe  Fe36  1  0.50039816  0.16925278  0.50274006  1
  Ni  Ni37  1  0.33679782  0.00436058  0.66818914  1
  Ni  Ni38  1  0.50090157  0.16895772  0.83387500  1
  Fe  Fe39  1  0.50398506  0.49846228  0.50225457  1
  Ni  Ni40  1  0.33513560  0.33360261  0.66687136  1
  Ni  Ni41  1  0.50141698  0.50067587  0.83372063  1
  Cr  Cr42  1  0.49855957  0.83251869  0.50603134  1
  Fe  Fe43  1  0.33608498  0.66530078  0.66841657  1
  Ni  Ni44  1  0.49926223  0.83233614  0.83260098  1
  Fe  Fe45  1  0.83320365  0.16944920  0.50165065  1
  Fe  Fe46  1  0.66456304  0.00131488  0.66980028  1
  Cr  Cr47  1  0.83727752  0.16998921  0.83129073  1
  Ni  Ni48  1  0.83221287  0.49950013  0.50191146  1
  Fe  Fe49  1  0.66542565  0.33525181  0.66641335  1
  Fe  Fe50  1  0.82951286  0.50263052  0.83257109  1
  Cr  Cr51  1  0.83157883  0.83271056  0.49969641  1
  Ni  Ni52  1  0.66751978  0.66590701  0.67013015  1
  Fe  Fe53  1  0.82968119  0.83310206  0.83328389  1
" 