2290,Ni30Fe29Cr40_10,-222.976413144474, 174.992429318972,Ni30Fe29Cr40,"# generated using pymatgen
 data_Cr23Fe15Ni16
_symmetry_space_group_name_H-M   'P 1'
_cell_length_a   7.49555012
_cell_length_b   7.49555012
_cell_length_c   10.60030864
_cell_angle_alpha   90.00000000
_cell_angle_beta   90.00000000
_cell_angle_gamma   90.00000000
_symmetry_Int_Tables_number   1
_chemical_formula_structural   Cr23Fe15Ni16
_chemical_formula_sum   'Cr23 Fe15 Ni16'
_cell_volume   595.56001952
_cell_formula_units_Z   1
loop_
 _symmetry_equiv_pos_site_id
 _symmetry_equiv_pos_as_xyz
  1  'x, y, z'
loop_
 _atom_site_type_symbol
 _atom_site_label
 _atom_site_symmetry_multiplicity
 _atom_site_fract_x
 _atom_site_fract_y
 _atom_site_fract_z
 _atom_site_occupancy
  Cr  Cr0  1  -0.00090995  0.99767736  -0.00005716  1
  Cr  Cr1  1  0.16562108  0.16462278  0.16598750  1
  Cr  Cr2  1  -0.00167884  0.99712012  0.33368101  1
  Cr  Cr3  1  -0.00097312  0.33423363  0.99672578  1
  Cr  Cr4  1  0.16743596  0.50104999  0.16503619  1
  Cr  Cr5  1  -0.00158052  0.33037255  0.33069673  1
  Ni  Ni6  1  0.99781846  0.66370878  -0.00161896  1
  Ni  Ni7  1  0.16633143  0.82922567  0.16396737  1
  Cr  Cr8  1  0.99764256  0.66754679  0.33069280  1
  Cr  Cr9  1  0.33459074  0.99796072  0.99681003  1
  Fe  Fe10  1  0.49730795  0.16439293  0.16433135  1
  Cr  Cr11  1  0.33107780  0.99717917  0.33119872  1
  Cr  Cr12  1  0.33270836  0.33293065  0.99596913  1
  Ni  Ni13  1  0.49878148  0.50100504  0.16654094  1
  Ni  Ni14  1  0.33256731  0.33197571  0.33218490  1
  Ni  Ni15  1  0.33356671  0.66442314  -0.00165712  1
  Ni  Ni16  1  0.49869049  0.82839862  0.16251761  1
  Fe  Fe17  1  0.33323346  0.66596494  0.33066266  1
  Ni  Ni18  1  0.66221308  0.99642535  -0.00022910  1
  Fe  Fe19  1  0.82890811  0.16299883  0.16396039  1
  Cr  Cr20  1  0.66487981  0.99615060  0.32992050  1
  Cr  Cr21  1  0.66255614  0.33258038  -0.00112278  1
  Fe  Fe22  1  0.82978176  0.50231310  0.16260688  1
  Cr  Cr23  1  0.66328173  0.33225488  0.32927745  1
  Ni  Ni24  1  0.66275878  0.66480112  0.99713245  1
  Fe  Fe25  1  0.83003792  0.82888592  0.16186601  1
  Cr  Cr26  1  0.66317002  0.66610612  0.33453268  1
  Ni  Ni27  1  0.16465603  0.16332873  0.50125809  1
  Fe  Fe28  1  0.00060517  0.99777480  0.66282043  1
  Fe  Fe29  1  0.16692336  0.16595186  0.82808867  1
  Cr  Cr30  1  0.16760635  0.49859608  0.49582029  1
  Fe  Fe31  1  -0.00079284  0.33088224  0.66509241  1
  Fe  Fe32  1  0.16722168  0.49958562  0.83084929  1
  Ni  Ni33  1  0.16767819  0.83196546  0.49824367  1
  Cr  Cr34  1  -0.00131060  0.66432133  0.66547397  1
  Cr  Cr35  1  0.16689110  0.82991475  0.83313634  1
  Cr  Cr36  1  0.49819251  0.16696362  0.49787584  1
  Fe  Fe37  1  0.33078925  0.99615399  0.66530225  1
  Ni  Ni38  1  0.49796640  0.16480309  0.83104301  1
  Fe  Fe39  1  0.49493151  0.49787557  0.49862046  1
  Fe  Fe40  1  0.33217707  0.33225140  0.66599914  1
  Ni  Ni41  1  0.49780985  0.49926145  0.82990037  1
  Fe  Fe42  1  0.49434782  0.83097181  0.49907626  1
  Ni  Ni43  1  0.33212315  0.66420966  0.66360457  1
  Ni  Ni44  1  0.49647238  0.83003072  0.83213791  1
  Ni  Ni45  1  0.83232442  0.16452022  0.49968768  1
  Cr  Cr46  1  0.66292042  0.99721127  0.66411086  1
  Cr  Cr47  1  0.83037083  0.16466414  0.83009337  1
  Cr  Cr48  1  0.82921145  0.49547937  0.49921718  1
  Fe  Fe49  1  0.66295230  0.33263864  0.66660589  1
  Ni  Ni50  1  0.83050137  0.49744735  0.83263796  1
  Fe  Fe51  1  0.83363076  0.83387914  0.49974456  1
  Cr  Cr52  1  0.66196838  0.66419791  0.66450137  1
  Cr  Cr53  1  0.82934301  0.83014494  0.83477426  1
" 