7417,Ni30Fe24Cr45_8,-221.698602869638, 172.665779734056,Ni30Fe24Cr45,"# generated using pymatgen
 data_Cr25Fe13Ni16
_symmetry_space_group_name_H-M   'P 1'
_cell_length_a   7.50235803
_cell_length_b   7.50235803
_cell_length_c   10.60993647
_cell_angle_alpha   90.00000000
_cell_angle_beta   90.00000000
_cell_angle_gamma   90.00000000
_symmetry_Int_Tables_number   1
_chemical_formula_structural   Cr25Fe13Ni16
_chemical_formula_sum   'Cr25 Fe13 Ni16'
_cell_volume   597.18426359
_cell_formula_units_Z   1
loop_
 _symmetry_equiv_pos_site_id
 _symmetry_equiv_pos_as_xyz
  1  'x, y, z'
loop_
 _atom_site_type_symbol
 _atom_site_label
 _atom_site_symmetry_multiplicity
 _atom_site_fract_x
 _atom_site_fract_y
 _atom_site_fract_z
 _atom_site_occupancy
  Ni  Ni0  1  -0.00216727  -0.00178881  -0.00208885  1
  Cr  Cr1  1  0.16466769  0.16767654  0.16321950  1
  Cr  Cr2  1  -0.00096435  -0.00135126  0.33340061  1
  Fe  Fe3  1  0.99588894  0.33214404  -0.00078311  1
  Fe  Fe4  1  0.16392237  0.49710182  0.16442856  1
  Cr  Cr5  1  0.99680106  0.33230437  0.33149458  1
  Fe  Fe6  1  0.99603699  0.66119747  -0.00172710  1
  Cr  Cr7  1  0.16330768  0.82815350  0.16312318  1
  Cr  Cr8  1  -0.00008287  0.66189142  0.33124495  1
  Cr  Cr9  1  0.33143359  0.99717343  -0.00229497  1
  Fe  Fe10  1  0.49932057  0.16686174  0.16636852  1
  Cr  Cr11  1  0.33039563  0.99566711  0.33144484  1
  Ni  Ni12  1  0.32964286  0.33335244  -0.00095448  1
  Cr  Cr13  1  0.49601613  0.49720410  0.16647667  1
  Ni  Ni14  1  0.33177477  0.33280822  0.33222237  1
  Fe  Fe15  1  0.33208786  0.66283290  -0.00158764  1
  Cr  Cr16  1  0.49987492  0.82740015  0.16665889  1
  Ni  Ni17  1  0.33213870  0.66240542  0.33242720  1
  Cr  Cr18  1  0.66393430  -0.00160375  -0.00027533  1
  Ni  Ni19  1  0.83078916  0.16588206  0.16626463  1
  Fe  Fe20  1  0.66413376  -0.00099457  0.33090064  1
  Cr  Cr21  1  0.66545280  0.33256670  0.99709476  1
  Ni  Ni22  1  0.82931951  0.49720441  0.16416504  1
  Ni  Ni23  1  0.66470666  0.33221550  0.33023858  1
  Ni  Ni24  1  0.66653690  0.66098298  0.99617362  1
  Cr  Cr25  1  0.83028208  0.82982020  0.16402166  1
  Ni  Ni26  1  0.66332187  0.66077655  0.33368486  1
  Ni  Ni27  1  0.16579267  0.16615409  0.50011091  1
  Ni  Ni28  1  0.00083387  0.99620695  0.66150010  1
  Cr  Cr29  1  0.16437283  0.16510128  0.82877510  1
  Ni  Ni30  1  0.16758707  0.49758348  0.49675046  1
  Cr  Cr31  1  0.99619346  0.33367525  0.66231137  1
  Cr  Cr32  1  0.16437383  0.49682572  0.83367145  1
  Fe  Fe33  1  0.16586954  0.82953998  0.49969056  1
  Ni  Ni34  1  -0.00048067  0.66309167  0.66349676  1
  Cr  Cr35  1  0.16208902  0.83095610  0.82969409  1
  Cr  Cr36  1  0.49657024  0.16720219  0.49589313  1
  Ni  Ni37  1  0.32887417  0.99493384  0.66250266  1
  Cr  Cr38  1  0.49320686  0.16693472  0.83082940  1
  Fe  Fe39  1  0.49621656  0.49899037  0.49625631  1
  Fe  Fe40  1  0.32867915  0.33242729  0.66167982  1
  Cr  Cr41  1  0.49635635  0.49858505  0.82845958  1
  Fe  Fe42  1  0.49496265  0.82832093  0.49782904  1
  Ni  Ni43  1  0.32966437  0.66482122  0.66168060  1
  Cr  Cr44  1  0.49797585  0.82806748  0.82980938  1
  Fe  Fe45  1  0.83177229  0.16546276  0.49708846  1
  Cr  Cr46  1  0.66253728  -0.00125032  0.66477273  1
  Cr  Cr47  1  0.83500103  0.16335899  0.83043956  1
  Fe  Fe48  1  0.83076601  0.49763895  0.49699104  1
  Cr  Cr49  1  0.66505853  0.33431635  0.66456549  1
  Ni  Ni50  1  0.83181292  0.50092349  0.83041964  1
  Cr  Cr51  1  0.82991180  0.83000817  0.49794570  1
  Fe  Fe52  1  0.66547981  0.66426307  0.66278659  1
  Cr  Cr53  1  0.83287263  0.82889866  0.83163032  1
" 