5584,Ni30Fe29Cr40_14,-223.289443561996, 171.330006441656,Ni30Fe29Cr40,"# generated using pymatgen
 data_Cr23Fe15Ni16
_symmetry_space_group_name_H-M   'P 1'
_cell_length_a   7.49879785
_cell_length_b   7.49879785
_cell_length_c   10.60490161
_cell_angle_alpha   90.00000000
_cell_angle_beta   90.00000000
_cell_angle_gamma   90.00000000
_symmetry_Int_Tables_number   1
_chemical_formula_structural   Cr23Fe15Ni16
_chemical_formula_sum   'Cr23 Fe15 Ni16'
_cell_volume   596.33450008
_cell_formula_units_Z   1
loop_
 _symmetry_equiv_pos_site_id
 _symmetry_equiv_pos_as_xyz
  1  'x, y, z'
loop_
 _atom_site_type_symbol
 _atom_site_label
 _atom_site_symmetry_multiplicity
 _atom_site_fract_x
 _atom_site_fract_y
 _atom_site_fract_z
 _atom_site_occupancy
  Fe  Fe0  1  0.99535140  -0.00172596  -0.00077136  1
  Ni  Ni1  1  0.16497538  0.16758767  0.16549658  1
  Cr  Cr2  1  0.99618483  0.99756681  0.32894169  1
  Cr  Cr3  1  -0.00155197  0.33157092  -0.00166428  1
  Ni  Ni4  1  0.16544138  0.49682475  0.16802022  1
  Ni  Ni5  1  0.00096839  0.33487248  0.32933292  1
  Cr  Cr6  1  -0.00179140  0.66342265  -0.00120430  1
  Cr  Cr7  1  0.16336267  0.82977056  0.16459878  1
  Ni  Ni8  1  -0.00148397  0.66123454  0.33023746  1
  Cr  Cr9  1  0.33479055  -0.00140863  -0.00009444  1
  Ni  Ni10  1  0.49786487  0.16629909  0.16348192  1
  Cr  Cr11  1  0.33485149  -0.00204421  0.32921713  1
  Fe  Fe12  1  0.33180654  0.33324507  -0.00188940  1
  Cr  Cr13  1  0.49685586  0.49746311  0.16273309  1
  Ni  Ni14  1  0.32734342  0.33257122  0.32877009  1
  Ni  Ni15  1  0.33352876  0.66331435  0.99533204  1
  Fe  Fe16  1  0.49771990  0.83064270  0.16252968  1
  Ni  Ni17  1  0.32900093  0.66274028  0.33218624  1
  Fe  Fe18  1  0.66518370  0.99750349  0.99781700  1
  Fe  Fe19  1  0.83220459  0.16473891  0.16299719  1
  Cr  Cr20  1  0.66259826  0.99607341  0.33017359  1
  Fe  Fe21  1  0.66183289  0.32950620  0.99684480  1
  Fe  Fe22  1  0.83394880  0.49776861  0.16536601  1
  Cr  Cr23  1  0.66579515  0.32926214  0.32912336  1
  Fe  Fe24  1  0.66222167  0.66660650  0.99772339  1
  Ni  Ni25  1  0.83059443  0.83116740  0.16292563  1
  Cr  Cr26  1  0.66606644  0.66836784  0.33078862  1
  Cr  Cr27  1  0.16483928  0.16435407  0.49718403  1
  Fe  Fe28  1  0.99625859  0.99754103  0.66509340  1
  Cr  Cr29  1  0.16383239  0.16234788  0.83088145  1
  Fe  Fe30  1  0.16450656  0.49849358  0.49464906  1
  Cr  Cr31  1  -0.00167422  0.33276359  0.66488082  1
  Ni  Ni32  1  0.16893771  0.49962504  0.83143792  1
  Cr  Cr33  1  0.16456913  0.83038163  0.49792864  1
  Cr  Cr34  1  0.99749589  0.66392914  0.66470991  1
  Cr  Cr35  1  0.16464073  0.83161896  0.83119327  1
  Cr  Cr36  1  0.49671218  0.16482633  0.49794742  1
  Ni  Ni37  1  0.33574198  0.99517971  0.66536008  1
  Ni  Ni38  1  0.50079697  0.16422598  0.83183924  1
  Cr  Cr39  1  0.49601698  0.49946538  0.49776259  1
  Cr  Cr40  1  0.33098923  0.33148508  0.66782878  1
  Ni  Ni41  1  0.49685357  0.49962191  0.83299110  1
  Fe  Fe42  1  0.49866027  0.83077063  0.50045822  1
  Fe  Fe43  1  0.33341131  0.66508889  0.66652366  1
  Ni  Ni44  1  0.49942555  0.82974341  0.82987381  1
  Cr  Cr45  1  0.83218986  0.16297029  0.49856683  1
  Fe  Fe46  1  0.66402791  0.99553804  0.66638531  1
  Ni  Ni47  1  0.82845091  0.16086443  0.83205428  1
  Cr  Cr48  1  0.83119910  0.49961893  0.49461185  1
  Cr  Cr49  1  0.66423289  0.33017132  0.66716606  1
  Cr  Cr50  1  0.82724321  0.49813467  0.83241434  1
  Ni  Ni51  1  0.83114007  0.83033315  0.50028256  1
  Fe  Fe52  1  0.66178537  0.66789192  0.66524225  1
  Fe  Fe53  1  0.82773247  0.83375393  0.83140030  1
" 