8203,Ni30Fe44Cr24_5,-228.910299453685, 190.872248669785,Ni30Fe44Cr24,"# generated using pymatgen
 data_Cr7(Fe3Ni2)4
_symmetry_space_group_name_H-M   'P 1'
_cell_length_a   7.45066377
_cell_length_b   7.45066377
_cell_length_c   10.53682975
_cell_angle_alpha   90.00000000
_cell_angle_beta   90.00000000
_cell_angle_gamma   90.00000000
_symmetry_Int_Tables_number   1
_chemical_formula_structural   Cr7(Fe3Ni2)4
_chemical_formula_sum   'Cr14 Fe24 Ni16'
_cell_volume   584.92460841
_cell_formula_units_Z   2
loop_
 _symmetry_equiv_pos_site_id
 _symmetry_equiv_pos_as_xyz
  1  'x, y, z'
loop_
 _atom_site_type_symbol
 _atom_site_label
 _atom_site_symmetry_multiplicity
 _atom_site_fract_x
 _atom_site_fract_y
 _atom_site_fract_z
 _atom_site_occupancy
  Fe  Fe0  1  1.00077360  1.00006382  1.00063811  1
  Cr  Cr1  1  0.16836635  0.16714888  0.16619282  1
  Ni  Ni2  1  0.99994240  0.99925074  0.33564977  1
  Fe  Fe3  1  1.00095303  0.33463714  0.99914855  1
  Fe  Fe4  1  0.16930644  0.50406743  0.16798139  1
  Cr  Cr5  1  1.00021918  0.33383804  0.33360881  1
  Fe  Fe6  1  0.00207232  0.66859805  1.00057139  1
  Fe  Fe7  1  0.16584549  0.83220342  0.16669498  1
  Ni  Ni8  1  0.00279379  0.66997665  0.33450687  1
  Ni  Ni9  1  0.33494025  1.00020360  0.99898398  1
  Ni  Ni10  1  0.50146883  0.16963695  0.16784647  1
  Cr  Cr11  1  0.33372639  1.00108365  0.33714597  1
  Fe  Fe12  1  0.33573132  0.33376144  1.00034757  1
  Cr  Cr13  1  0.49878759  0.49902552  0.16838244  1
  Ni  Ni14  1  0.33518098  0.33467548  0.33405296  1
  Ni  Ni15  1  0.33255781  0.66882514  0.99971024  1
  Cr  Cr16  1  0.50029575  0.83479768  0.16514589  1
  Ni  Ni17  1  0.33102733  0.66728115  0.33432420  1
  Fe  Fe18  1  0.66716797  0.00257203  1.00047529  1
  Fe  Fe19  1  0.83203364  0.16566948  0.16629677  1
  Cr  Cr20  1  0.66939683  0.00361352  0.33442915  1
  Ni  Ni21  1  0.66916661  0.33230954  0.99979164  1
  Cr  Cr22  1  0.83522887  0.50192486  0.16844853  1
  Fe  Fe23  1  0.66686786  0.33212207  0.33453391  1
  Fe  Fe24  1  0.66799548  0.66824600  0.99894190  1
  Ni  Ni25  1  0.83830420  0.83536517  0.16645260  1
  Cr  Cr26  1  0.66912723  0.66821332  0.33637501  1
  Ni  Ni27  1  0.16567283  0.16644502  0.50321247  1
  Fe  Fe28  1  1.00102964  0.00135309  0.66722196  1
  Fe  Fe29  1  0.16676132  0.16796641  0.83493358  1
  Cr  Cr30  1  0.16728645  0.50120645  0.49977380  1
  Fe  Fe31  1  0.99970694  0.33317867  0.66830364  1
  Fe  Fe32  1  0.16669619  0.50029144  0.83520131  1
  Fe  Fe33  1  0.16553934  0.83573314  0.50019316  1
  Fe  Fe34  1  1.00037555  0.66875436  0.66869915  1
  Ni  Ni35  1  0.16695545  0.83411082  0.83567549  1
  Fe  Fe36  1  0.50064769  0.16919816  0.50085076  1
  Cr  Cr37  1  0.33368942  0.00228299  0.66659404  1
  Ni  Ni38  1  0.50116716  0.16948051  0.83543505  1
  Cr  Cr39  1  0.50163471  0.50015052  0.49906733  1
  Fe  Fe40  1  0.33475867  0.33250653  0.66843190  1
  Fe  Fe41  1  0.50176327  0.49909938  0.83644499  1
  Ni  Ni42  1  0.50035086  0.83411107  0.50035669  1
  Cr  Cr43  1  0.33369322  0.66886249  0.66910549  1
  Fe  Fe44  1  0.50088379  0.83505144  0.83731636  1
  Ni  Ni45  1  0.83631111  0.16769181  0.50075747  1
  Cr  Cr46  1  0.66808681  0.00222653  0.66786574  1
  Ni  Ni47  1  0.83458159  0.16960697  0.83617247  1
  Fe  Fe48  1  0.83539951  0.50003858  0.50207944  1
  Fe  Fe49  1  0.66881732  0.33317337  0.66973883  1
  Ni  Ni50  1  0.83482151  0.50011094  0.83367890  1
  Fe  Fe51  1  0.83774692  0.83525885  0.49991826  1
  Cr  Cr52  1  0.66967398  0.66735631  0.66928360  1
  Fe  Fe53  1  0.83604359  0.83501580  0.83638326  1
" 