6507,Ni30Fe29Cr40_8,-223.191492555767, 183.362209465623,Ni30Fe29Cr40,"# generated using pymatgen
 data_Cr23Fe15Ni16
_symmetry_space_group_name_H-M   'P 1'
_cell_length_a   7.48175416
_cell_length_b   7.48175416
_cell_length_c   10.58079820
_cell_angle_alpha   90.00000000
_cell_angle_beta   90.00000000
_cell_angle_gamma   90.00000000
_symmetry_Int_Tables_number   1
_chemical_formula_structural   Cr23Fe15Ni16
_chemical_formula_sum   'Cr23 Fe15 Ni16'
_cell_volume   592.27758752
_cell_formula_units_Z   1
loop_
 _symmetry_equiv_pos_site_id
 _symmetry_equiv_pos_as_xyz
  1  'x, y, z'
loop_
 _atom_site_type_symbol
 _atom_site_label
 _atom_site_symmetry_multiplicity
 _atom_site_fract_x
 _atom_site_fract_y
 _atom_site_fract_z
 _atom_site_occupancy
  Cr  Cr0  1  0.00051419  0.99602807  0.00066369  1
  Ni  Ni1  1  0.16870319  0.16345645  0.16466941  1
  Ni  Ni2  1  0.99888860  0.99685033  0.33134784  1
  Cr  Cr3  1  0.99685740  0.33431056  0.99834591  1
  Cr  Cr4  1  0.16575717  0.49762463  0.16594068  1
  Cr  Cr5  1  0.99612668  0.33226984  0.33383847  1
  Fe  Fe6  1  0.99572151  0.66583674  0.00023954  1
  Ni  Ni7  1  0.16379756  0.83536906  0.16536161  1
  Cr  Cr8  1  -0.00011385  0.66742332  0.33018703  1
  Ni  Ni9  1  0.33147694  0.00024774  0.00112899  1
  Fe  Fe10  1  0.49797703  0.16686059  0.16567386  1
  Cr  Cr11  1  0.33230648  0.99763934  0.33119763  1
  Ni  Ni12  1  0.33535230  0.33094810  0.00009842  1
  Cr  Cr13  1  0.50161181  0.49635312  0.16558805  1
  Fe  Fe14  1  0.33465398  0.33003106  0.33130483  1
  Cr  Cr15  1  0.33129918  0.66638859  -0.00063004  1
  Cr  Cr16  1  0.50094897  0.83334035  0.16705194  1
  Fe  Fe17  1  0.33264715  0.66731572  0.33289055  1
  Cr  Cr18  1  0.66515555  0.00009183  0.99891673  1
  Cr  Cr19  1  0.83140194  0.16504358  0.16835113  1
  Ni  Ni20  1  0.66534786  0.00067874  0.33389733  1
  Ni  Ni21  1  0.66452905  0.33545757  0.99821271  1
  Ni  Ni22  1  0.82956712  0.50136889  0.16476352  1
  Ni  Ni23  1  0.66493647  0.33178121  0.33305452  1
  Fe  Fe24  1  0.66882778  0.66295623  0.99864910  1
  Ni  Ni25  1  0.83327602  0.83054266  0.16531133  1
  Fe  Fe26  1  0.66733392  0.66575748  0.33193921  1
  Cr  Cr27  1  0.16548121  0.16545350  0.50068657  1
  Cr  Cr28  1  0.99755096  0.00042833  0.66524200  1
  Cr  Cr29  1  0.16676897  0.16683489  0.83192441  1
  Cr  Cr30  1  0.16558553  0.49872422  0.50010938  1
  Ni  Ni31  1  0.99714913  0.33371313  0.66549369  1
  Cr  Cr32  1  0.16540944  0.49673058  0.83101225  1
  Ni  Ni33  1  0.16809909  0.83315664  0.49891555  1
  Cr  Cr34  1  -0.00054133  0.66344746  0.66628366  1
  Cr  Cr35  1  0.16579047  0.83347200  0.83294979  1
  Ni  Ni36  1  0.50057131  0.16405011  0.49827114  1
  Fe  Fe37  1  0.33428921  0.99893985  0.66365537  1
  Cr  Cr38  1  0.49807956  0.16605574  0.83453362  1
  Cr  Cr39  1  0.50008364  0.49946541  0.49827111  1
  Fe  Fe40  1  0.33236942  0.33140032  0.66583101  1
  Fe  Fe41  1  0.50039611  0.49844946  0.83313606  1
  Fe  Fe42  1  0.49858212  0.83370367  0.49980262  1
  Fe  Fe43  1  0.33376697  0.66671677  0.66482848  1
  Cr  Cr44  1  0.50118928  0.83220276  0.82957681  1
  Fe  Fe45  1  0.83005309  0.16632815  0.49800152  1
  Ni  Ni46  1  0.66359185  0.99894583  0.66438316  1
  Fe  Fe47  1  0.83161473  0.16703905  0.83146983  1
  Ni  Ni48  1  0.83038162  0.49793523  0.49871419  1
  Cr  Cr49  1  0.66797885  0.33149111  0.66597360  1
  Ni  Ni50  1  0.83014580  0.49984083  0.83359289  1
  Cr  Cr51  1  0.83009182  0.83352829  0.49756933  1
  Fe  Fe52  1  0.66662477  0.66581191  0.66637003  1
  Fe  Fe53  1  0.83092168  0.83109029  0.83233527  1
" 