1020,Ni30Fe41Cr28_9,-228.183761353241, 191.210651098828,Ni30Fe41Cr28,"# generated using pymatgen
 data_Cr8Fe11Ni8
_symmetry_space_group_name_H-M   'P 1'
_cell_length_a   7.46609714
_cell_length_b   7.46609714
_cell_length_c   10.55865583
_cell_angle_alpha   90.00000000
_cell_angle_beta   90.00000000
_cell_angle_gamma   90.00000000
_symmetry_Int_Tables_number   1
_chemical_formula_structural   Cr8Fe11Ni8
_chemical_formula_sum   'Cr16 Fe22 Ni16'
_cell_volume   588.56699626
_cell_formula_units_Z   2
loop_
 _symmetry_equiv_pos_site_id
 _symmetry_equiv_pos_as_xyz
  1  'x, y, z'
loop_
 _atom_site_type_symbol
 _atom_site_label
 _atom_site_symmetry_multiplicity
 _atom_site_fract_x
 _atom_site_fract_y
 _atom_site_fract_z
 _atom_site_occupancy
  Ni  Ni0  1  0.99746539  0.99874466  0.99757422  1
  Fe  Fe1  1  0.16638900  0.16537094  0.16820765  1
  Ni  Ni2  1  0.99633301  1.00000791  0.33333066  1
  Cr  Cr3  1  0.00007656  0.33283948  0.00314412  1
  Fe  Fe4  1  0.16900943  0.50372738  0.16628335  1
  Fe  Fe5  1  0.99996591  0.33132648  0.33092580  1
  Ni  Ni6  1  0.99933237  0.66918227  0.99848265  1
  Cr  Cr7  1  0.16797708  0.83699307  0.16609923  1
  Cr  Cr8  1  0.99976891  0.66745757  0.33396456  1
  Cr  Cr9  1  0.33473592  0.00037578  0.99952321  1
  Fe  Fe10  1  0.50036495  0.16335123  0.16804244  1
  Ni  Ni11  1  0.33624779  0.99911051  0.33298090  1
  Cr  Cr12  1  0.33426052  0.33365113  0.99958663  1
  Ni  Ni13  1  0.50208930  0.50333816  0.16682546  1
  Cr  Cr14  1  0.33428098  0.33550868  0.33233923  1
  Ni  Ni15  1  0.33317590  0.66641560  0.00099990  1
  Ni  Ni16  1  0.50118838  0.83160493  0.16787721  1
  Ni  Ni17  1  0.33488851  0.66750524  0.33369589  1
  Fe  Fe18  1  0.66944033  0.99650215  0.00208037  1
  Fe  Fe19  1  0.83338886  0.16223794  0.16775063  1
  Ni  Ni20  1  0.66696966  0.99896087  0.33308976  1
  Cr  Cr21  1  0.66573717  0.32941559  0.00097504  1
  Fe  Fe22  1  0.83254341  0.50354350  0.16626083  1
  Cr  Cr23  1  0.66686779  0.33220685  0.33288681  1
  Ni  Ni24  1  0.66800118  0.66780578  0.00324740  1
  Fe  Fe25  1  0.83225895  0.83433243  0.16529102  1
  Fe  Fe26  1  0.66429319  0.67035755  0.33221688  1
  Cr  Cr27  1  0.16617970  0.16571717  0.49664664  1
  Fe  Fe28  1  0.00163225  0.99917527  0.66878769  1
  Ni  Ni29  1  0.16632369  0.16459934  0.83291639  1
  Fe  Fe30  1  0.16802953  0.50145336  0.50068638  1
  Cr  Cr31  1  0.00049030  0.33411442  0.66679765  1
  Fe  Fe32  1  0.16611679  0.50175887  0.83363709  1
  Cr  Cr33  1  0.16867575  0.83776031  0.50028577  1
  Ni  Ni34  1  0.99690589  0.66912603  0.66834716  1
  Fe  Fe35  1  0.16446679  0.83357016  0.83368950  1
  Fe  Fe36  1  0.50074165  0.16341509  0.50093956  1
  Ni  Ni37  1  0.33628465  0.00177979  0.66725356  1
  Fe  Fe38  1  0.50127619  0.16517067  0.83049493  1
  Fe  Fe39  1  0.49797971  0.50129833  0.50053612  1
  Ni  Ni40  1  0.33508488  0.33073385  0.66696203  1
  Cr  Cr41  1  0.50150962  0.50038303  0.83253938  1
  Ni  Ni42  1  0.50172446  0.83348723  0.49744243  1
  Cr  Cr43  1  0.33031657  0.66802240  0.66618429  1
  Cr  Cr44  1  0.50178415  0.83234815  0.83646624  1
  Fe  Fe45  1  0.83168846  0.16228842  0.49962758  1
  Fe  Fe46  1  0.66687063  0.99863939  0.66537852  1
  Fe  Fe47  1  0.83286789  0.16317878  0.83291945  1
  Cr  Cr48  1  0.83071794  0.49979489  0.50007354  1
  Fe  Fe49  1  0.66465370  0.33114269  0.66554992  1
  Cr  Cr50  1  0.83121311  0.50214592  0.83488540  1
  Fe  Fe51  1  0.83236797  0.83592697  0.50152098  1
  Fe  Fe52  1  0.66638142  0.67021450  0.66586622  1
  Ni  Ni53  1  0.83410308  0.83431854  0.83332101  1
" 