5672,Ni30Fe24Cr45_0,-221.798523868421, 173.103937103907,Ni30Fe24Cr45,"# generated using pymatgen
 data_Cr25Fe13Ni16
_symmetry_space_group_name_H-M   'P 1'
_cell_length_a   7.50122140
_cell_length_b   7.50122140
_cell_length_c   10.60832904
_cell_angle_alpha   90.00000000
_cell_angle_beta   90.00000000
_cell_angle_gamma   90.00000000
_symmetry_Int_Tables_number   1
_chemical_formula_structural   Cr25Fe13Ni16
_chemical_formula_sum   'Cr25 Fe13 Ni16'
_cell_volume   596.91288034
_cell_formula_units_Z   1
loop_
 _symmetry_equiv_pos_site_id
 _symmetry_equiv_pos_as_xyz
  1  'x, y, z'
loop_
 _atom_site_type_symbol
 _atom_site_label
 _atom_site_symmetry_multiplicity
 _atom_site_fract_x
 _atom_site_fract_y
 _atom_site_fract_z
 _atom_site_occupancy
  Cr  Cr0  1  -0.00098360  0.99765753  0.99587566  1
  Cr  Cr1  1  0.16576705  0.16531639  0.16483980  1
  Cr  Cr2  1  -0.00011528  0.99538852  0.33330177  1
  Ni  Ni3  1  -0.00115428  0.33137989  0.99610086  1
  Fe  Fe4  1  0.16352497  0.49787161  0.16560940  1
  Fe  Fe5  1  -0.00154332  0.33323807  0.33027703  1
  Cr  Cr6  1  -0.00026439  0.66303274  0.99702552  1
  Ni  Ni7  1  0.16798593  0.83152238  0.16482419  1
  Ni  Ni8  1  -0.00181755  0.66583469  0.33110498  1
  Ni  Ni9  1  0.33111280  -0.00100413  -0.00033874  1
  Fe  Fe10  1  0.49647018  0.16286255  0.16465999  1
  Fe  Fe11  1  0.33160996  -0.00177508  0.33061144  1
  Fe  Fe12  1  0.32923829  0.33034546  0.99641375  1
  Cr  Cr13  1  0.49791527  0.49721371  0.16568579  1
  Ni  Ni14  1  0.33225208  0.32852838  0.33125288  1
  Cr  Cr15  1  0.32974714  0.66371325  -0.00160555  1
  Ni  Ni16  1  0.49476384  0.83334883  0.16426537  1
  Cr  Cr17  1  0.32918044  0.66487534  0.32798681  1
  Fe  Fe18  1  0.66203748  -0.00198250  -0.00102696  1
  Cr  Cr19  1  0.83050013  0.16759679  0.16213696  1
  Cr  Cr20  1  0.66338906  -0.00137191  0.33128234  1
  Fe  Fe21  1  0.66422871  0.33148505  0.99688464  1
  Cr  Cr22  1  0.83281698  0.49591467  0.16809668  1
  Ni  Ni23  1  0.66137892  0.33084054  0.33072612  1
  Cr  Cr24  1  0.66368461  0.66313528  0.99632487  1
  Cr  Cr25  1  0.83020741  0.82978933  0.16511064  1
  Ni  Ni26  1  0.66625292  0.66375305  0.33180363  1
  Fe  Fe27  1  0.16712159  0.16495830  0.49747268  1
  Cr  Cr28  1  -0.00139981  0.99662825  0.66408517  1
  Ni  Ni29  1  0.16446439  0.16667503  0.83077118  1
  Cr  Cr30  1  0.16296852  0.49634560  0.49695706  1
  Fe  Fe31  1  0.00001695  0.33266729  0.66709074  1
  Fe  Fe32  1  0.16398930  0.49386914  0.83042952  1
  Ni  Ni33  1  0.16201484  0.83205040  0.49678372  1
  Fe  Fe34  1  0.99614058  0.66430050  0.66462588  1
  Fe  Fe35  1  0.16404083  0.83179498  0.83138681  1
  Ni  Ni36  1  0.49399989  0.16587143  0.49521305  1
  Cr  Cr37  1  0.32807604  0.00074460  0.66101257  1
  Cr  Cr38  1  0.49451155  0.16490187  0.83423886  1
  Cr  Cr39  1  0.49858523  0.49665600  0.49834142  1
  Ni  Ni40  1  0.32908918  0.33080231  0.66599085  1
  Ni  Ni41  1  0.49841946  0.49733319  0.83008661  1
  Cr  Cr42  1  0.49806810  0.83086518  0.49705161  1
  Cr  Cr43  1  0.33065370  0.66135927  0.66685224  1
  Cr  Cr44  1  0.49754847  0.83028651  0.83149140  1
  Cr  Cr45  1  0.83213040  0.16639421  0.49666541  1
  Cr  Cr46  1  0.66665489  0.99671366  0.66311503  1
  Cr  Cr47  1  0.83366735  0.16614382  0.83420519  1
  Cr  Cr48  1  0.83142480  0.49995996  0.49549400  1
  Cr  Cr49  1  0.66191535  0.33321344  0.66463175  1
  Ni  Ni50  1  0.83223423  0.49845498  0.83003691  1
  Ni  Ni51  1  0.83330014  0.82807859  0.49850928  1
  Ni  Ni52  1  0.66800700  0.66313977  0.66573880  1
  Fe  Fe53  1  0.83116567  0.82827567  0.82948678  1
" 