8549,Ni30Fe24Cr45_19,-222.179874885781, 174.675322200069,Ni30Fe24Cr45,"# generated using pymatgen
 data_Cr25Fe13Ni16
_symmetry_space_group_name_H-M   'P 1'
_cell_length_a   7.50517970
_cell_length_b   7.50517970
_cell_length_c   10.61392692
_cell_angle_alpha   90.00000000
_cell_angle_beta   90.00000000
_cell_angle_gamma   90.00000000
_symmetry_Int_Tables_number   1
_chemical_formula_structural   Cr25Fe13Ni16
_chemical_formula_sum   'Cr25 Fe13 Ni16'
_cell_volume   597.85832792
_cell_formula_units_Z   1
loop_
 _symmetry_equiv_pos_site_id
 _symmetry_equiv_pos_as_xyz
  1  'x, y, z'
loop_
 _atom_site_type_symbol
 _atom_site_label
 _atom_site_symmetry_multiplicity
 _atom_site_fract_x
 _atom_site_fract_y
 _atom_site_fract_z
 _atom_site_occupancy
  Ni  Ni0  1  0.99685443  0.99380779  0.99677530  1
  Cr  Cr1  1  0.16100282  0.16228655  0.16519719  1
  Fe  Fe2  1  -0.00235115  0.99616743  0.33198059  1
  Cr  Cr3  1  0.00024642  0.33188015  0.99552998  1
  Fe  Fe4  1  0.16319065  0.49868022  0.16490125  1
  Ni  Ni5  1  -0.00148083  0.33170688  0.32943185  1
  Cr  Cr6  1  -0.00122321  0.66509547  0.99592114  1
  Ni  Ni7  1  0.16245956  0.83063226  0.16495311  1
  Fe  Fe8  1  0.00067562  0.66565687  0.33007680  1
  Cr  Cr9  1  0.32877522  0.00088686  -0.00244324  1
  Fe  Fe10  1  0.49602662  0.16413963  0.16161341  1
  Cr  Cr11  1  0.32977931  -0.00156189  0.33469173  1
  Ni  Ni12  1  0.33164875  0.33163070  0.99658746  1
  Cr  Cr13  1  0.49635687  0.50040199  0.16361484  1
  Cr  Cr14  1  0.32991196  0.32792732  0.33120341  1
  Fe  Fe15  1  0.32744722  0.66258328  0.99555224  1
  Cr  Cr16  1  0.49453485  0.83044525  0.16119122  1
  Ni  Ni17  1  0.32656108  0.66614784  0.32895170  1
  Fe  Fe18  1  0.66554690  -0.00130831  0.99492777  1
  Cr  Cr19  1  0.83322585  0.16423552  0.16055645  1
  Cr  Cr20  1  0.66359390  -0.00189329  0.32936544  1
  Cr  Cr21  1  0.66213686  0.32977904  0.99733998  1
  Ni  Ni22  1  0.83345529  0.49717221  0.16750505  1
  Cr  Cr23  1  0.66346438  0.32895328  0.32956174  1
  Cr  Cr24  1  0.66856469  0.66399749  0.99539456  1
  Fe  Fe25  1  0.83400068  0.83051172  0.16357203  1
  Cr  Cr26  1  0.66818060  0.66562062  0.33266467  1
  Fe  Fe27  1  0.16336717  0.16477384  0.50065498  1
  Ni  Ni28  1  -0.00161009  0.99684002  0.66350656  1
  Cr  Cr29  1  0.16050875  0.16221492  0.82744029  1
  Cr  Cr30  1  0.16390546  0.49726894  0.49723255  1
  Ni  Ni31  1  -0.00089129  0.32869746  0.66549119  1
  Fe  Fe32  1  0.16829222  0.49582584  0.83000951  1
  Ni  Ni33  1  0.16276993  0.83486494  0.49685569  1
  Cr  Cr34  1  -0.00147974  0.66656169  0.66594969  1
  Ni  Ni35  1  0.16272147  0.83399332  0.83110141  1
  Fe  Fe36  1  0.49778498  0.16397334  0.50232645  1
  Ni  Ni37  1  0.32961140  0.00011419  0.66248764  1
  Ni  Ni38  1  0.49708830  0.16503517  0.82946141  1
  Cr  Cr39  1  0.49682796  0.49791150  0.49991421  1
  Ni  Ni40  1  0.33165571  0.32687009  0.66576076  1
  Ni  Ni41  1  0.49654823  0.49434993  0.83014266  1
  Cr  Cr42  1  0.49446183  0.83118355  0.49999451  1
  Cr  Cr43  1  0.32812632  0.66465709  0.66797399  1
  Cr  Cr44  1  0.49471229  0.83146555  0.83150524  1
  Cr  Cr45  1  0.83439784  0.16464279  0.50081130  1
  Ni  Ni46  1  0.66423576  0.00040923  0.66658618  1
  Fe  Fe47  1  0.82948653  0.15991126  0.82888479  1
  Cr  Cr48  1  0.83253635  0.49335884  0.49721155  1
  Ni  Ni49  1  0.66230590  0.32715036  0.66572698  1
  Cr  Cr50  1  0.83078120  0.49135982  0.82598484  1
  Fe  Fe51  1  0.83320727  0.83321319  0.49884698  1
  Cr  Cr52  1  0.66697431  0.66497028  0.66435045  1
  Fe  Fe53  1  0.83190780  0.83561923  0.82998969  1
" 