7026,Ni30Fe41Cr28_6,-227.937802005936, 186.950638449939,Ni30Fe41Cr28,"# generated using pymatgen
 data_Cr8Fe11Ni8
_symmetry_space_group_name_H-M   'P 1'
_cell_length_a   7.46927392
_cell_length_b   7.46927392
_cell_length_c   10.56314848
_cell_angle_alpha   90.00000000
_cell_angle_beta   90.00000000
_cell_angle_gamma   90.00000000
_symmetry_Int_Tables_number   1
_chemical_formula_structural   Cr8Fe11Ni8
_chemical_formula_sum   'Cr16 Fe22 Ni16'
_cell_volume   589.31861234
_cell_formula_units_Z   2
loop_
 _symmetry_equiv_pos_site_id
 _symmetry_equiv_pos_as_xyz
  1  'x, y, z'
loop_
 _atom_site_type_symbol
 _atom_site_label
 _atom_site_symmetry_multiplicity
 _atom_site_fract_x
 _atom_site_fract_y
 _atom_site_fract_z
 _atom_site_occupancy
  Ni  Ni0  1  0.00306895  0.00186180  0.00070075  1
  Fe  Fe1  1  0.16614477  0.16774457  0.16399528  1
  Ni  Ni2  1  0.00216221  0.99901656  0.33336934  1
  Ni  Ni3  1  0.00042200  0.33377234  0.99858800  1
  Fe  Fe4  1  0.16691695  0.49956765  0.16375914  1
  Cr  Cr5  1  0.00234882  0.33376735  0.33069633  1
  Ni  Ni6  1  0.00145965  0.66413044  0.99956616  1
  Cr  Cr7  1  0.16370724  0.83353295  0.16478438  1
  Fe  Fe8  1  0.99728442  0.66818223  0.33247093  1
  Ni  Ni9  1  0.33262271  0.99974340  0.99790405  1
  Ni  Ni10  1  0.49677736  0.16870795  0.16530877  1
  Cr  Cr11  1  0.33071801  0.00061924  0.33511187  1
  Fe  Fe12  1  0.32971917  0.33328891  0.00121547  1
  Ni  Ni13  1  0.49635702  0.49872896  0.16837902  1
  Fe  Fe14  1  0.33256875  0.33348130  0.33209305  1
  Ni  Ni15  1  0.33133664  0.66843392  0.99934061  1
  Fe  Fe16  1  0.50053309  0.83183701  0.16457320  1
  Fe  Fe17  1  0.33322381  0.66560709  0.33141860  1
  Fe  Fe18  1  0.66658363  -0.00009773  0.00103971  1
  Fe  Fe19  1  0.83499067  0.16465106  0.16428903  1
  Cr  Cr20  1  0.66579424  0.99702849  0.33124292  1
  Cr  Cr21  1  0.66954809  0.33439934  0.00089956  1
  Ni  Ni22  1  0.83393462  0.50245404  0.16754334  1
  Cr  Cr23  1  0.66693781  0.33656697  0.33081334  1
  Cr  Cr24  1  0.66686084  0.66532402  0.00179808  1
  Ni  Ni25  1  0.83620372  0.83373588  0.16767930  1
  Ni  Ni26  1  0.66669008  0.66620939  0.33194352  1
  Fe  Fe27  1  0.16803491  0.16954439  0.49965017  1
  Cr  Cr28  1  0.00360685  0.99948353  0.66619269  1
  Fe  Fe29  1  0.16608633  0.16729930  0.83553354  1
  Fe  Fe30  1  0.16533161  0.50000954  0.50108458  1
  Fe  Fe31  1  0.00268646  0.33474304  0.66850586  1
  Fe  Fe32  1  0.16417564  0.50105160  0.83404196  1
  Fe  Fe33  1  0.16494495  0.82987914  0.49905105  1
  Fe  Fe34  1  0.00360373  0.66379320  0.66752698  1
  Ni  Ni35  1  0.16824030  0.83236131  0.83408376  1
  Fe  Fe36  1  0.49699691  0.16775040  0.49952113  1
  Cr  Cr37  1  0.33210652  0.99947002  0.66656814  1
  Fe  Fe38  1  0.49868850  0.16482011  0.83577568  1
  Cr  Cr39  1  0.49719175  0.49921568  0.49849334  1
  Ni  Ni40  1  0.32882817  0.33250392  0.66622194  1
  Cr  Cr41  1  0.49547461  0.49931582  0.83380303  1
  Fe  Fe42  1  0.49974419  0.83118210  0.49955508  1
  Fe  Fe43  1  0.33003600  0.66660459  0.66797453  1
  Ni  Ni44  1  0.49412005  0.83408226  0.83540847  1
  Cr  Cr45  1  0.83447688  0.16503701  0.49944837  1
  Cr  Cr46  1  0.66359829  0.99899498  0.66840626  1
  Ni  Ni47  1  0.83621577  0.16791004  0.83556259  1
  Fe  Fe48  1  0.83633462  0.50328828  0.49917947  1
  Cr  Cr49  1  0.66807999  0.33347724  0.66796226  1
  Ni  Ni50  1  0.83799042  0.49657068  0.83118511  1
  Fe  Fe51  1  0.83494840  0.82954986  0.49684736  1
  Cr  Cr52  1  0.66839281  0.66681222  0.66735701  1
  Cr  Cr53  1  0.83710242  0.83490695  0.83648819  1
" 