2214,Ni30Fe9Cr59_11,-215.25132965548, 152.453606066294,Ni30Fe9Cr59,"# generated using pymatgen
 data_Cr33Fe5Ni16
_symmetry_space_group_name_H-M   'P 1'
_cell_length_a   7.53648848
_cell_length_b   7.53648848
_cell_length_c   10.65820422
_cell_angle_alpha   90.00000000
_cell_angle_beta   90.00000000
_cell_angle_gamma   90.00000000
_symmetry_Int_Tables_number   1
_chemical_formula_structural   Cr33Fe5Ni16
_chemical_formula_sum   'Cr33 Fe5 Ni16'
_cell_volume   605.37170338
_cell_formula_units_Z   1
loop_
 _symmetry_equiv_pos_site_id
 _symmetry_equiv_pos_as_xyz
  1  'x, y, z'
loop_
 _atom_site_type_symbol
 _atom_site_label
 _atom_site_symmetry_multiplicity
 _atom_site_fract_x
 _atom_site_fract_y
 _atom_site_fract_z
 _atom_site_occupancy
  Ni  Ni0  1  0.99447090  -0.00359271  0.99357081  1
  Cr  Cr1  1  0.16464664  0.16048160  0.16086946  1
  Cr  Cr2  1  0.99404004  -0.00320740  0.32948767  1
  Cr  Cr3  1  -0.00345628  0.32788979  -0.00257889  1
  Ni  Ni4  1  0.16422574  0.49320293  0.16221543  1
  Fe  Fe5  1  -0.00396236  0.32950225  0.32806215  1
  Cr  Cr6  1  0.99533080  0.66399134  0.99319751  1
  Cr  Cr7  1  0.16334875  0.83070056  0.16114618  1
  Cr  Cr8  1  -0.00232880  0.66343498  0.32773921  1
  Ni  Ni9  1  0.33214756  -0.00148125  -0.00350022  1
  Ni  Ni10  1  0.49577415  0.16330030  0.15809333  1
  Fe  Fe11  1  0.33040106  0.99524628  0.32947145  1
  Fe  Fe12  1  0.33222113  0.32602590  -0.00363645  1
  Ni  Ni13  1  0.49520740  0.49241176  0.15842753  1
  Cr  Cr14  1  0.33076843  0.32925892  0.32289443  1
  Cr  Cr15  1  0.32914731  0.65812552  -0.00351473  1
  Cr  Cr16  1  0.49586657  0.83118152  0.16159245  1
  Cr  Cr17  1  0.32908279  0.66164904  0.33073960  1
  Ni  Ni18  1  0.66061697  -0.00195735  0.99406295  1
  Cr  Cr19  1  0.82764719  0.16174671  0.16213874  1
  Cr  Cr20  1  0.66131626  -0.00320663  0.33031800  1
  Ni  Ni21  1  0.65831605  0.32616723  -0.00413462  1
  Cr  Cr22  1  0.82704914  0.49548404  0.16215355  1
  Cr  Cr23  1  0.66120312  0.32581841  0.32906640  1
  Ni  Ni24  1  0.66034701  0.66129606  -0.00430807  1
  Cr  Cr25  1  0.82695170  0.82973444  0.15558927  1
  Cr  Cr26  1  0.65853189  0.66192894  0.32669609  1
  Cr  Cr27  1  0.16218482  0.16151516  0.49429058  1
  Cr  Cr28  1  0.99332411  0.99450556  0.66379097  1
  Cr  Cr29  1  0.16667921  0.15996636  0.83116089  1
  Cr  Cr30  1  0.15974271  0.49435535  0.49722943  1
  Ni  Ni31  1  0.99364734  0.32720179  0.65934217  1
  Cr  Cr32  1  0.16009750  0.49336778  0.82572745  1
  Ni  Ni33  1  0.16358332  0.83185124  0.49697834  1
  Ni  Ni34  1  0.99374332  0.66237262  0.66195232  1
  Cr  Cr35  1  0.16278790  0.83133265  0.82823655  1
  Cr  Cr36  1  0.49492096  0.16073684  0.49813875  1
  Ni  Ni37  1  0.33171932  -0.00321815  0.65992578  1
  Ni  Ni38  1  0.49740864  0.15904796  0.83043302  1
  Cr  Cr39  1  0.49782779  0.49611075  0.49809276  1
  Cr  Cr40  1  0.33013961  0.32648294  0.66724729  1
  Cr  Cr41  1  0.49840285  0.49166824  0.83060237  1
  Ni  Ni42  1  0.49310406  0.83395502  0.49607458  1
  Cr  Cr43  1  0.32726380  0.66427520  0.65977093  1
  Cr  Cr44  1  0.49622315  0.83246242  0.82971257  1
  Fe  Fe45  1  0.82815704  0.16028031  0.49815612  1
  Ni  Ni46  1  0.66001653  -0.00197770  0.66264259  1
  Cr  Cr47  1  0.82719226  0.16255701  0.82842279  1
  Cr  Cr48  1  0.82905173  0.49152129  0.49686612  1
  Fe  Fe49  1  0.66322043  0.32525541  0.66377870  1
  Cr  Cr50  1  0.82795421  0.49676352  0.82633672  1
  Cr  Cr51  1  0.82668377  0.82676607  0.49611323  1
  Cr  Cr52  1  0.66102430  0.66652762  0.66287239  1
  Ni  Ni53  1  0.82621139  0.83040674  0.83146856  1
" 