5838,Ni30Fe29Cr40_4,-222.955734765133, 175.017292107333,Ni30Fe29Cr40,"# generated using pymatgen
 data_Cr23Fe15Ni16
_symmetry_space_group_name_H-M   'P 1'
_cell_length_a   7.49319777
_cell_length_b   7.49319777
_cell_length_c   10.59698191
_cell_angle_alpha   90.00000000
_cell_angle_beta   90.00000000
_cell_angle_gamma   90.00000000
_symmetry_Int_Tables_number   1
_chemical_formula_structural   Cr23Fe15Ni16
_chemical_formula_sum   'Cr23 Fe15 Ni16'
_cell_volume   594.99947537
_cell_formula_units_Z   1
loop_
 _symmetry_equiv_pos_site_id
 _symmetry_equiv_pos_as_xyz
  1  'x, y, z'
loop_
 _atom_site_type_symbol
 _atom_site_label
 _atom_site_symmetry_multiplicity
 _atom_site_fract_x
 _atom_site_fract_y
 _atom_site_fract_z
 _atom_site_occupancy
  Fe  Fe0  1  0.99805670  -0.00083878  -0.00136272  1
  Fe  Fe1  1  0.16364167  0.16503307  0.16558659  1
  Ni  Ni2  1  0.99807664  -0.00120365  0.33336756  1
  Ni  Ni3  1  0.99710275  0.33260532  0.99821871  1
  Cr  Cr4  1  0.16363893  0.49395596  0.16379333  1
  Fe  Fe5  1  -0.00121487  0.32842918  0.33135944  1
  Fe  Fe6  1  0.99545111  0.66408658  -0.00142505  1
  Cr  Cr7  1  0.16270001  0.83330515  0.16444684  1
  Cr  Cr8  1  0.99534460  0.66821092  0.33169057  1
  Cr  Cr9  1  0.33056207  0.99674365  -0.00136294  1
  Cr  Cr10  1  0.49509115  0.16377473  0.16634081  1
  Ni  Ni11  1  0.32928454  -0.00037704  0.33120704  1
  Ni  Ni12  1  0.32968866  0.33242992  0.00027040  1
  Fe  Fe13  1  0.50034745  0.50025315  0.16501640  1
  Ni  Ni14  1  0.33082034  0.32969198  0.33096387  1
  Cr  Cr15  1  0.33274893  0.66679868  0.99812971  1
  Ni  Ni16  1  0.50188343  0.83149569  0.16580547  1
  Cr  Cr17  1  0.33400949  0.66600158  0.33229664  1
  Cr  Cr18  1  0.66559961  0.99611495  -0.00173757  1
  Cr  Cr19  1  0.83365027  0.16302165  0.16561616  1
  Ni  Ni20  1  0.66725882  0.99525748  0.33219957  1
  Cr  Cr21  1  0.66691228  0.33365106  0.99689597  1
  Ni  Ni22  1  0.83205246  0.50103552  0.16235066  1
  Cr  Cr23  1  0.66547498  0.33381468  0.33221823  1
  Fe  Fe24  1  0.66622504  0.66443218  0.00109181  1
  Ni  Ni25  1  0.82898892  0.82953423  0.16607608  1
  Ni  Ni26  1  0.66565688  0.66654664  0.32864952  1
  Fe  Fe27  1  0.16296358  0.16005177  0.49697737  1
  Ni  Ni28  1  -0.00117612  0.99467392  0.66381684  1
  Cr  Cr29  1  0.16451731  0.16484371  0.83392400  1
  Cr  Cr30  1  0.16571816  0.49878373  0.49854129  1
  Cr  Cr31  1  0.99520898  0.32981135  0.66377636  1
  Cr  Cr32  1  0.16247662  0.49998923  0.83229210  1
  Ni  Ni33  1  0.16314357  0.83370550  0.50179097  1
  Ni  Ni34  1  0.99798576  0.66920022  0.66573109  1
  Fe  Fe35  1  0.16493516  0.83200960  0.82881075  1
  Cr  Cr36  1  0.49808362  0.16311546  0.49746651  1
  Ni  Ni37  1  0.32948847  0.99364628  0.66571608  1
  Cr  Cr38  1  0.49858521  0.16253914  0.83078262  1
  Fe  Fe39  1  0.49936138  0.50010772  0.49771218  1
  Cr  Cr40  1  0.33259845  0.33109317  0.66279658  1
  Cr  Cr41  1  0.49779218  0.49946322  0.83082565  1
  Cr  Cr42  1  0.50003379  0.83291650  0.49918314  1
  Fe  Fe43  1  0.32957592  0.66845739  0.66477156  1
  Fe  Fe44  1  0.49719981  0.83117470  0.82965896  1
  Ni  Ni45  1  0.83285109  0.16049874  0.49884600  1
  Fe  Fe46  1  0.66776437  0.99698449  0.66397216  1
  Fe  Fe47  1  0.83378556  0.16477975  0.83119848  1
  Cr  Cr48  1  0.83235758  0.50117769  0.49843484  1
  Cr  Cr49  1  0.66709640  0.33123137  0.66558443  1
  Fe  Fe50  1  0.83294643  0.49903217  0.83250789  1
  Ni  Ni51  1  0.83280946  0.83424560  0.49766490  1
  Fe  Fe52  1  0.66629369  0.66738098  0.66402167  1
  Cr  Cr53  1  0.83232468  0.83105607  0.83126645  1
" 