1680,Ni30Fe44Cr24_8,-228.825865486692, 186.780466510605,Ni30Fe44Cr24,"# generated using pymatgen
 data_Cr7(Fe3Ni2)4
_symmetry_space_group_name_H-M   'P 1'
_cell_length_a   7.45317680
_cell_length_b   7.45317680
_cell_length_c   10.54038372
_cell_angle_alpha   90.00000000
_cell_angle_beta   90.00000000
_cell_angle_gamma   90.00000000
_symmetry_Int_Tables_number   1
_chemical_formula_structural   Cr7(Fe3Ni2)4
_chemical_formula_sum   'Cr14 Fe24 Ni16'
_cell_volume   585.51667592
_cell_formula_units_Z   2
loop_
 _symmetry_equiv_pos_site_id
 _symmetry_equiv_pos_as_xyz
  1  'x, y, z'
loop_
 _atom_site_type_symbol
 _atom_site_label
 _atom_site_symmetry_multiplicity
 _atom_site_fract_x
 _atom_site_fract_y
 _atom_site_fract_z
 _atom_site_occupancy
  Ni  Ni0  1  0.99791917  0.99976664  0.00268511  1
  Cr  Cr1  1  0.16979370  0.16613481  0.16923246  1
  Fe  Fe2  1  0.99849602  0.99844153  0.33437085  1
  Cr  Cr3  1  0.99758323  0.33469989  0.00267150  1
  Cr  Cr4  1  0.16810979  0.50300195  0.16984149  1
  Fe  Fe5  1  0.99897622  0.33463141  0.33453062  1
  Fe  Fe6  1  0.99895664  0.66891131  0.00354692  1
  Ni  Ni7  1  0.16663935  0.83402502  0.16735745  1
  Fe  Fe8  1  0.99863195  0.66999183  0.33414275  1
  Fe  Fe9  1  0.33456170  0.99898732  0.00359794  1
  Fe  Fe10  1  0.50440657  0.16748244  0.16904724  1
  Cr  Cr11  1  0.33534110  0.99713109  0.33640618  1
  Fe  Fe12  1  0.33638301  0.33598328  0.00194361  1
  Fe  Fe13  1  0.50212955  0.50300823  0.16889730  1
  Fe  Fe14  1  0.33786131  0.33471343  0.33669718  1
  Ni  Ni15  1  0.33720672  0.66712299  0.00227201  1
  Fe  Fe16  1  0.50144887  0.83211297  0.16785590  1
  Ni  Ni17  1  0.33388267  0.66684678  0.33548462  1
  Fe  Fe18  1  0.66835740  0.99964138  0.00412166  1
  Fe  Fe19  1  0.83340615  0.16606487  0.16875991  1
  Ni  Ni20  1  0.66999393  0.00149118  0.33413139  1
  Fe  Fe21  1  0.66612784  0.33628060  0.00445737  1
  Ni  Ni22  1  0.83133150  0.50295452  0.17017860  1
  Ni  Ni23  1  0.67005996  0.33430030  0.33351839  1
  Fe  Fe24  1  0.66889135  0.66705434  0.00213688  1
  Ni  Ni25  1  0.83350176  0.83363749  0.16730239  1
  Fe  Fe26  1  0.66726167  0.66874015  0.33550333  1
  Fe  Fe27  1  0.16615524  0.16902984  0.50087056  1
  Ni  Ni28  1  0.99942505  0.00135434  0.66553619  1
  Cr  Cr29  1  0.16808344  0.16646139  0.83342787  1
  Fe  Fe30  1  0.16766615  0.50100337  0.49904364  1
  Fe  Fe31  1  1.00086178  0.33456693  0.66444378  1
  Cr  Cr32  1  0.16821676  0.50243663  0.83394885  1
  Ni  Ni33  1  0.16347868  0.83370758  0.49930184  1
  Fe  Fe34  1  1.00018242  0.66974350  0.66447987  1
  Cr  Cr35  1  0.16432360  0.83429097  0.83613425  1
  Ni  Ni36  1  0.50201970  0.17070737  0.50015186  1
  Cr  Cr37  1  0.33363207  1.00058706  0.66385440  1
  Cr  Cr38  1  0.50151805  0.16974324  0.83491151  1
  Ni  Ni39  1  0.50255114  0.49887418  0.49967591  1
  Ni  Ni40  1  0.33425779  0.33652271  0.66613057  1
  Ni  Ni41  1  0.50294466  0.50024823  0.83526395  1
  Fe  Fe42  1  0.50419658  0.83187252  0.49884168  1
  Cr  Cr43  1  0.33672730  0.66626677  0.66501524  1
  Cr  Cr44  1  0.50284966  0.83297130  0.83430406  1
  Fe  Fe45  1  0.83392975  0.16758243  0.49921368  1
  Cr  Cr46  1  0.66875542  0.99914291  0.66497484  1
  Cr  Cr47  1  0.83280052  0.16651865  0.83321374  1
  Fe  Fe48  1  0.83280773  0.50168662  0.49959227  1
  Fe  Fe49  1  0.66527291  0.33576698  0.66449105  1
  Cr  Cr50  1  0.83202348  0.50358960  0.83172461  1
  Ni  Ni51  1  0.83526517  0.83367337  0.50101451  1
  Ni  Ni52  1  0.66879740  0.66508125  0.66570865  1
  Fe  Fe53  1  0.83424698  0.83366111  0.83428816  1
" 