1400,Ni30Fe70_7,-242.85099091886, 218.481066592056,Ni30Fe70,"# generated using pymatgen
 data_Fe8Ni19
_symmetry_space_group_name_H-M   'P 1'
_cell_length_a   7.41051643
_cell_length_b   7.41051643
_cell_length_c   10.48005284
_cell_angle_alpha   90.00000000
_cell_angle_beta   90.00000000
_cell_angle_gamma   90.00000000
_symmetry_Int_Tables_number   1
_chemical_formula_structural   Fe8Ni19
_chemical_formula_sum   'Fe16 Ni38'
_cell_volume   575.52000174
_cell_formula_units_Z   2
loop_
 _symmetry_equiv_pos_site_id
 _symmetry_equiv_pos_as_xyz
  1  'x, y, z'
loop_
 _atom_site_type_symbol
 _atom_site_label
 _atom_site_symmetry_multiplicity
 _atom_site_fract_x
 _atom_site_fract_y
 _atom_site_fract_z
 _atom_site_occupancy
  Fe  Fe0  1  1.00318488  1.00270187  0.00384264  1
  Fe  Fe1  1  0.17006543  0.16938528  0.17133135  1
  Ni  Ni2  1  1.00323447  0.00394294  0.33661775  1
  Fe  Fe3  1  0.00430945  0.33807180  1.00342702  1
  Ni  Ni4  1  0.16964966  0.50328321  0.17131293  1
  Ni  Ni5  1  1.00236472  0.33629867  0.33707016  1
  Ni  Ni6  1  0.00434185  0.67105367  0.00398391  1
  Ni  Ni7  1  0.17058016  0.83559339  0.17049200  1
  Fe  Fe8  1  1.00244924  0.67010253  0.33649325  1
  Ni  Ni9  1  0.33708090  0.00390541  0.00482233  1
  Ni  Ni10  1  0.50365597  0.16991966  0.17066783  1
  Fe  Fe11  1  0.33779872  0.00447730  0.33722950  1
  Ni  Ni12  1  0.33739977  0.33663078  0.00498301  1
  Fe  Fe13  1  0.50397791  0.50544221  0.16969236  1
  Fe  Fe14  1  0.33736768  0.33610875  0.33697326  1
  Ni  Ni15  1  0.33620243  0.67084682  1.00328044  1
  Ni  Ni16  1  0.50408720  0.83933870  0.17007210  1
  Ni  Ni17  1  0.33726574  0.67097572  0.33696218  1
  Ni  Ni18  1  0.67046263  0.00457113  1.00365169  1
  Fe  Fe19  1  0.83648295  0.16965773  0.17071097  1
  Ni  Ni20  1  0.67141920  0.00490843  0.33793332  1
  Ni  Ni21  1  0.67033955  0.33626486  0.00426567  1
  Ni  Ni22  1  0.83917870  0.50368698  0.16922122  1
  Ni  Ni23  1  0.67132962  0.33677191  0.33689020  1
  Ni  Ni24  1  0.67069385  0.67073509  0.00494520  1
  Ni  Ni25  1  0.83674999  0.83654011  0.17085572  1
  Fe  Fe26  1  0.67162015  0.67068148  0.33725704  1
  Ni  Ni27  1  0.17045758  0.17224618  0.50378791  1
  Ni  Ni28  1  0.00396189  0.00383317  0.67012069  1
  Fe  Fe29  1  0.17207685  0.17028984  0.83582519  1
  Fe  Fe30  1  0.17057284  0.50372573  0.50407683  1
  Ni  Ni31  1  1.00288857  0.33630317  0.67094343  1
  Ni  Ni32  1  0.16988087  0.50327535  0.83627197  1
  Fe  Fe33  1  0.16985711  0.83893236  0.50303135  1
  Ni  Ni34  1  0.00406764  0.67155788  0.66943068  1
  Fe  Fe35  1  0.17103905  0.83716427  0.83750928  1
  Ni  Ni36  1  0.50336587  0.16961794  0.50490340  1
  Ni  Ni37  1  0.33624677  1.00296177  0.66962318  1
  Ni  Ni38  1  0.50363793  0.17027047  0.83600120  1
  Fe  Fe39  1  0.50554885  0.50347030  0.50463422  1
  Ni  Ni40  1  0.33772953  0.33713325  0.66940050  1
  Ni  Ni41  1  0.50123680  0.50341032  0.83787809  1
  Ni  Ni42  1  0.50398702  0.83782766  0.50400832  1
  Ni  Ni43  1  0.33736163  0.67152476  0.67137415  1
  Ni  Ni44  1  0.50472896  0.83769754  0.83780893  1
  Ni  Ni45  1  0.83762427  0.17076673  0.50381497  1
  Fe  Fe46  1  0.67074684  1.00342076  0.67028407  1
  Ni  Ni47  1  0.83683501  0.16983171  0.83705721  1
  Ni  Ni48  1  0.83943677  0.50369106  0.50496154  1
  Ni  Ni49  1  0.67081782  0.33699760  0.67037812  1
  Fe  Fe50  1  0.83507009  0.50444819  0.83697395  1
  Ni  Ni51  1  0.83666190  0.83678213  0.50351505  1
  Ni  Ni52  1  0.67000096  0.66981893  0.67044855  1
  Ni  Ni53  1  0.83683750  0.83707418  0.83692185  1
" 