8238,Ni30Fe41Cr28_2,-228.134752061834, 187.662646105539,Ni30Fe41Cr28,"# generated using pymatgen
 data_Cr8Fe11Ni8
_symmetry_space_group_name_H-M   'P 1'
_cell_length_a   7.46545709
_cell_length_b   7.46545709
_cell_length_c   10.55775067
_cell_angle_alpha   90.00000000
_cell_angle_beta   90.00000000
_cell_angle_gamma   90.00000000
_symmetry_Int_Tables_number   1
_chemical_formula_structural   Cr8Fe11Ni8
_chemical_formula_sum   'Cr16 Fe22 Ni16'
_cell_volume   588.41564164
_cell_formula_units_Z   2
loop_
 _symmetry_equiv_pos_site_id
 _symmetry_equiv_pos_as_xyz
  1  'x, y, z'
loop_
 _atom_site_type_symbol
 _atom_site_label
 _atom_site_symmetry_multiplicity
 _atom_site_fract_x
 _atom_site_fract_y
 _atom_site_fract_z
 _atom_site_occupancy
  Fe  Fe0  1  0.99969450  0.99915022  0.00064970  1
  Cr  Cr1  1  0.16540963  0.16709628  0.16706441  1
  Ni  Ni2  1  0.00121867  0.99867700  0.33418762  1
  Cr  Cr3  1  0.00211021  0.33301668  0.99690082  1
  Cr  Cr4  1  0.16705116  0.50049738  0.17034401  1
  Ni  Ni5  1  0.00112795  0.33026422  0.33809770  1
  Cr  Cr6  1  0.00373750  0.66926332  0.99921244  1
  Fe  Fe7  1  0.16761371  0.83443708  0.16840411  1
  Fe  Fe8  1  0.99995622  0.66617458  0.33696248  1
  Fe  Fe9  1  0.33478354  0.99950089  0.99976406  1
  Fe  Fe10  1  0.49921721  0.16672478  0.16923088  1
  Fe  Fe11  1  0.33091151  0.00227829  0.33345085  1
  Fe  Fe12  1  0.33408737  0.33467636  0.99987312  1
  Fe  Fe13  1  0.49828074  0.49942502  0.16930626  1
  Ni  Ni14  1  0.33340314  0.33559895  0.33419152  1
  Ni  Ni15  1  0.33490164  0.66633340  0.00120021  1
  Fe  Fe16  1  0.49843630  0.83462524  0.16559497  1
  Fe  Fe17  1  0.33132282  0.66598528  0.33491738  1
  Ni  Ni18  1  0.66630816  0.99967441  0.00220952  1
  Ni  Ni19  1  0.83225481  0.16477853  0.16941749  1
  Cr  Cr20  1  0.66837440  0.00195972  0.33412572  1
  Cr  Cr21  1  0.66235808  0.33132338  0.00403687  1
  Cr  Cr22  1  0.83459868  0.49772593  0.17019107  1
  Ni  Ni23  1  0.66587258  0.33339724  0.33401321  1
  Fe  Fe24  1  0.66520365  0.66811435  0.00216381  1
  Fe  Fe25  1  0.83558968  0.83530020  0.16773604  1
  Cr  Cr26  1  0.66407379  0.66650014  0.33463245  1
  Ni  Ni27  1  0.16551937  0.16727151  0.50000926  1
  Cr  Cr28  1  0.00237061  0.99917174  0.66650479  1
  Fe  Fe29  1  0.17081483  0.16637766  0.83224122  1
  Ni  Ni30  1  0.16740509  0.49864958  0.49779615  1
  Fe  Fe31  1  0.00206156  0.33449447  0.66505721  1
  Ni  Ni32  1  0.17004251  0.50009109  0.83297727  1
  Ni  Ni33  1  0.16638902  0.83431152  0.49632812  1
  Cr  Cr34  1  0.00536402  0.66813813  0.66453787  1
  Ni  Ni35  1  0.17185967  0.83345811  0.83541655  1
  Cr  Cr36  1  0.49714689  0.16780249  0.49925697  1
  Fe  Fe37  1  0.33065016  0.99968596  0.66613844  1
  Fe  Fe38  1  0.49747768  0.16815618  0.83216108  1
  Ni  Ni39  1  0.49906743  0.49916335  0.50066918  1
  Fe  Fe40  1  0.33097861  0.33506067  0.66499082  1
  Fe  Fe41  1  0.49666109  0.49962463  0.83101621  1
  Cr  Cr42  1  0.49626156  0.83203316  0.50254186  1
  Ni  Ni43  1  0.33187227  0.66391976  0.66496066  1
  Cr  Cr44  1  0.50212482  0.83247393  0.82947322  1
  Fe  Fe45  1  0.83647946  0.16911724  0.49869414  1
  Cr  Cr46  1  0.66853604  0.00240198  0.66343153  1
  Cr  Cr47  1  0.83294403  0.16747543  0.83306497  1
  Fe  Fe48  1  0.83393212  0.49811553  0.49988652  1
  Ni  Ni49  1  0.66324058  0.33426379  0.66354762  1
  Cr  Cr50  1  0.83124539  0.50173952  0.83044614  1
  Ni  Ni51  1  0.83481702  0.83238659  0.49987113  1
  Fe  Fe52  1  0.66705432  0.66423583  0.66307528  1
  Fe  Fe53  1  0.83553854  0.83363363  0.83377945  1
" 