8957,Ni30Fe44Cr25_11,-228.305530621179, 193.267209230845,Ni30Fe44Cr25,"# generated using pymatgen
 data_Cr15Fe23Ni16
_symmetry_space_group_name_H-M   'P 1'
_cell_length_a   7.45274560
_cell_length_b   7.45274560
_cell_length_c   10.53977390
_cell_angle_alpha   90.00000000
_cell_angle_beta   90.00000000
_cell_angle_gamma   90.00000000
_symmetry_Int_Tables_number   1
_chemical_formula_structural   Cr15Fe23Ni16
_chemical_formula_sum   'Cr15 Fe23 Ni16'
_cell_volume   585.41505678
_cell_formula_units_Z   1
loop_
 _symmetry_equiv_pos_site_id
 _symmetry_equiv_pos_as_xyz
  1  'x, y, z'
loop_
 _atom_site_type_symbol
 _atom_site_label
 _atom_site_symmetry_multiplicity
 _atom_site_fract_x
 _atom_site_fract_y
 _atom_site_fract_z
 _atom_site_occupancy
  Fe  Fe0  1  0.00240661  1.00092264  1.00014283  1
  Ni  Ni1  1  0.16606046  0.16805755  0.16804294  1
  Cr  Cr2  1  0.99920010  0.00208338  0.33391374  1
  Ni  Ni3  1  0.99847211  0.33522108  0.00118042  1
  Ni  Ni4  1  0.16776289  0.50013604  0.16880451  1
  Cr  Cr5  1  0.00266951  0.33426997  0.33593689  1
  Ni  Ni6  1  0.99978120  0.66762633  0.00221678  1
  Fe  Fe7  1  0.16811377  0.83388251  0.16712755  1
  Fe  Fe8  1  0.00313934  0.66580002  0.33338205  1
  Cr  Cr9  1  0.33425049  1.00016787  0.99736966  1
  Fe  Fe10  1  0.49992689  0.16754410  0.16882809  1
  Ni  Ni11  1  0.33398166  0.00387226  0.33459596  1
  Cr  Cr12  1  0.33379922  0.33283913  0.00397692  1
  Ni  Ni13  1  0.49844148  0.50117689  0.16588382  1
  Ni  Ni14  1  0.33541882  0.33197833  0.33407974  1
  Ni  Ni15  1  0.33239781  0.66865727  1.00086100  1
  Cr  Cr16  1  0.50028501  0.83491642  0.16873319  1
  Cr  Cr17  1  0.33566615  0.66392492  0.33440868  1
  Fe  Fe18  1  0.66891818  0.00153519  0.99988194  1
  Ni  Ni19  1  0.83493380  0.16681557  0.16503572  1
  Fe  Fe20  1  0.66473813  0.00384991  0.33595445  1
  Fe  Fe21  1  0.66864503  0.33554068  0.00321428  1
  Fe  Fe22  1  0.83573063  0.49945205  0.16471915  1
  Cr  Cr23  1  0.66644145  0.33434861  0.33046744  1
  Fe  Fe24  1  0.66783099  0.66710368  1.00062515  1
  Cr  Cr25  1  0.83517343  0.83565065  0.16837760  1
  Cr  Cr26  1  0.66982005  0.66727225  0.33757970  1
  Fe  Fe27  1  0.17046824  0.16891785  0.50235725  1
  Ni  Ni28  1  0.99904619  0.00294025  0.66870074  1
  Fe  Fe29  1  0.16686434  0.16774687  0.83252594  1
  Fe  Fe30  1  0.17326306  0.49797633  0.50282787  1
  Fe  Fe31  1  0.00378604  0.33276156  0.66790615  1
  Cr  Cr32  1  0.16789263  0.50029941  0.83194512  1
  Cr  Cr33  1  0.16689521  0.83464607  0.49853729  1
  Cr  Cr34  1  0.99949708  0.67007126  0.66689549  1
  Fe  Fe35  1  0.16532451  0.83323319  0.83312054  1
  Ni  Ni36  1  0.50031685  0.16727351  0.49992835  1
  Fe  Fe37  1  0.33265783  1.00055969  0.66753503  1
  Fe  Fe38  1  0.50179313  0.16702748  0.83103577  1
  Ni  Ni39  1  0.50080385  0.49838358  0.50338569  1
  Ni  Ni40  1  0.33761006  0.33193894  0.66501298  1
  Cr  Cr41  1  0.50143346  0.50048935  0.83407753  1
  Fe  Fe42  1  0.50057886  0.83560019  0.50198235  1
  Ni  Ni43  1  0.33770732  0.66764771  0.66678331  1
  Fe  Fe44  1  0.50268021  0.83288225  0.83361717  1
  Fe  Fe45  1  0.83176599  0.16636761  0.50343965  1
  Fe  Fe46  1  0.66505955  1.00007801  0.66763340  1
  Cr  Cr47  1  0.83489032  0.16949672  0.83433590  1
  Cr  Cr48  1  0.83595052  0.50066152  0.50380373  1
  Fe  Fe49  1  0.66746746  0.33396641  0.66694270  1
  Ni  Ni50  1  0.83367371  0.50316542  0.83625836  1
  Fe  Fe51  1  0.83055015  0.83850756  0.50321687  1
  Fe  Fe52  1  0.66611106  0.66896605  0.66821985  1
  Ni  Ni53  1  0.83372084  0.83556362  0.83444845  1
" 