3545,Ni30Fe44Cr25_19,-228.568521317785, 189.678736434367,Ni30Fe44Cr25,"# generated using pymatgen
 data_Cr15Fe23Ni16
_symmetry_space_group_name_H-M   'P 1'
_cell_length_a   7.45566505
_cell_length_b   7.45566505
_cell_length_c   10.54390263
_cell_angle_alpha   90.00000000
_cell_angle_beta   90.00000000
_cell_angle_gamma   90.00000000
_symmetry_Int_Tables_number   1
_chemical_formula_structural   Cr15Fe23Ni16
_chemical_formula_sum   'Cr15 Fe23 Ni16'
_cell_volume   586.10329706
_cell_formula_units_Z   1
loop_
 _symmetry_equiv_pos_site_id
 _symmetry_equiv_pos_as_xyz
  1  'x, y, z'
loop_
 _atom_site_type_symbol
 _atom_site_label
 _atom_site_symmetry_multiplicity
 _atom_site_fract_x
 _atom_site_fract_y
 _atom_site_fract_z
 _atom_site_occupancy
  Ni  Ni0  1  0.99971094  1.00022470  0.99750172  1
  Cr  Cr1  1  0.16869815  0.16813936  0.16635265  1
  Fe  Fe2  1  0.99838921  0.99963396  0.33671881  1
  Cr  Cr3  1  0.00082308  0.33406671  0.99891607  1
  Ni  Ni4  1  0.17018864  0.50103001  0.16798158  1
  Cr  Cr5  1  0.99957748  0.33672705  0.33491192  1
  Cr  Cr6  1  0.00131725  0.66701604  0.00116619  1
  Cr  Cr7  1  0.16784484  0.83175555  0.16952811  1
  Fe  Fe8  1  0.00087716  0.66797526  0.33599283  1
  Cr  Cr9  1  0.33466758  0.99809745  1.00050488  1
  Fe  Fe10  1  0.50111761  0.16821323  0.16784085  1
  Cr  Cr11  1  0.33734241  0.99884381  0.33543878  1
  Ni  Ni12  1  0.33616891  0.33742720  0.00080000  1
  Fe  Fe13  1  0.49919220  0.50075804  0.16626027  1
  Fe  Fe14  1  0.33731887  0.33586579  0.33412495  1
  Ni  Ni15  1  0.33665607  0.66666266  0.00111490  1
  Ni  Ni16  1  0.50165388  0.83323776  0.16612922  1
  Fe  Fe17  1  0.33523493  0.66595099  0.33441806  1
  Fe  Fe18  1  0.66667896  0.99986913  0.99972294  1
  Cr  Cr19  1  0.83121901  0.16690337  0.16728713  1
  Ni  Ni20  1  0.66532600  0.99953585  0.33583411  1
  Ni  Ni21  1  0.66585699  0.33638803  0.00354115  1
  Fe  Fe22  1  0.83325921  0.50127673  0.16771784  1
  Fe  Fe23  1  0.66495719  0.33312533  0.33555029  1
  Fe  Fe24  1  0.66393776  0.66733196  0.00088325  1
  Cr  Cr25  1  0.83358442  0.83509445  0.16643291  1
  Cr  Cr26  1  0.66597143  0.66746003  0.33405491  1
  Fe  Fe27  1  0.16836772  0.16681832  0.49975507  1
  Cr  Cr28  1  1.00074338  1.00069040  0.66729613  1
  Fe  Fe29  1  0.16855168  0.16660174  0.83523438  1
  Fe  Fe30  1  0.16953648  0.50350492  0.50031587  1
  Cr  Cr31  1  0.00091310  0.33506395  0.66853795  1
  Fe  Fe32  1  0.17278854  0.50272954  0.83445963  1
  Ni  Ni33  1  0.16680886  0.83118251  0.49904322  1
  Fe  Fe34  1  1.00043948  0.66843316  0.66634853  1
  Ni  Ni35  1  0.16743246  0.83176666  0.83492145  1
  Ni  Ni36  1  0.50201843  0.16960340  0.49996609  1
  Cr  Cr37  1  0.33534216  0.99844867  0.66647721  1
  Cr  Cr38  1  0.50287527  0.16999525  0.83475716  1
  Fe  Fe39  1  0.50079578  0.50233625  0.50194143  1
  Fe  Fe40  1  0.33643754  0.33425533  0.66670411  1
  Fe  Fe41  1  0.49958950  0.50248330  0.83413752  1
  Ni  Ni42  1  0.50095152  0.83488075  0.50210227  1
  Fe  Fe43  1  0.33482500  0.66736128  0.66803791  1
  Ni  Ni44  1  0.50126881  0.83244898  0.83391116  1
  Fe  Fe45  1  0.83056799  0.16512535  0.50025167  1
  Ni  Ni46  1  0.66640379  0.99983330  0.66629746  1
  Fe  Fe47  1  0.83116255  0.16462375  0.83459924  1
  Ni  Ni48  1  0.83431974  0.50096368  0.50043399  1
  Ni  Ni49  1  0.66772889  0.33551616  0.66390867  1
  Cr  Cr50  1  0.83072570  0.50086271  0.83410475  1
  Ni  Ni51  1  0.83415902  0.83252455  0.50164997  1
  Fe  Fe52  1  0.66705454  0.66883366  0.66567552  1
  Fe  Fe53  1  0.83184280  0.83572284  0.83362624  1
" 