2139,Ni30Fe41Cr28_14,-227.690036550534, 190.81703600586,Ni30Fe41Cr28,"# generated using pymatgen
 data_Cr8Fe11Ni8
_symmetry_space_group_name_H-M   'P 1'
_cell_length_a   7.46042289
_cell_length_b   7.46042289
_cell_length_c   10.55063124
_cell_angle_alpha   90.00000000
_cell_angle_beta   90.00000000
_cell_angle_gamma   90.00000000
_symmetry_Int_Tables_number   1
_chemical_formula_structural   Cr8Fe11Ni8
_chemical_formula_sum   'Cr16 Fe22 Ni16'
_cell_volume   587.22608147
_cell_formula_units_Z   2
loop_
 _symmetry_equiv_pos_site_id
 _symmetry_equiv_pos_as_xyz
  1  'x, y, z'
loop_
 _atom_site_type_symbol
 _atom_site_label
 _atom_site_symmetry_multiplicity
 _atom_site_fract_x
 _atom_site_fract_y
 _atom_site_fract_z
 _atom_site_occupancy
  Cr  Cr0  1  0.99809584  1.00014834  1.00005820  1
  Cr  Cr1  1  0.16751761  0.16615301  0.16781616  1
  Ni  Ni2  1  0.99991850  0.99914701  0.33379186  1
  Ni  Ni3  1  0.99809257  0.33637218  0.00215869  1
  Fe  Fe4  1  0.16754882  0.50236041  0.16430758  1
  Cr  Cr5  1  0.00081178  0.33437455  0.33383964  1
  Fe  Fe6  1  0.99817602  0.66873631  0.00092922  1
  Ni  Ni7  1  0.16744220  0.83365713  0.16538182  1
  Cr  Cr8  1  1.00041681  0.66665263  0.33262094  1
  Ni  Ni9  1  0.33603500  0.99763558  0.99812244  1
  Cr  Cr10  1  0.50038563  0.16575115  0.16670516  1
  Fe  Fe11  1  0.33296131  0.00111351  0.33408120  1
  Fe  Fe12  1  0.33478063  0.33123367  1.00003241  1
  Cr  Cr13  1  0.50269869  0.50163039  0.16616541  1
  Fe  Fe14  1  0.33429601  0.33383616  0.33627254  1
  Fe  Fe15  1  0.33317056  0.66970607  0.99996861  1
  Cr  Cr16  1  0.50100453  0.83387022  0.16874492  1
  Fe  Fe17  1  0.33334768  0.66676896  0.33379981  1
  Ni  Ni18  1  0.66562477  1.00041330  0.99981492  1
  Fe  Fe19  1  0.83299928  0.16589022  0.16665754  1
  Ni  Ni20  1  0.66787085  0.99961101  0.33305396  1
  Fe  Fe21  1  0.66902846  0.33213174  0.99876631  1
  Ni  Ni22  1  0.83382185  0.50232466  0.16403991  1
  Cr  Cr23  1  0.66736557  0.33291850  0.33427782  1
  Fe  Fe24  1  0.66943422  0.66899710  0.99977049  1
  Fe  Fe25  1  0.83277327  0.83410314  0.16791641  1
  Ni  Ni26  1  0.66776586  0.66705384  0.33539145  1
  Ni  Ni27  1  0.17081281  0.16716921  0.50059611  1
  Fe  Fe28  1  0.99736331  0.99977314  0.66741651  1
  Cr  Cr29  1  0.16836448  0.16624557  0.83175503  1
  Fe  Fe30  1  0.16862762  0.49911609  0.50013633  1
  Cr  Cr31  1  0.99876487  0.33469949  0.66497752  1
  Cr  Cr32  1  0.16536238  0.49870371  0.83749284  1
  Cr  Cr33  1  0.16562090  0.83811787  0.50109707  1
  Cr  Cr34  1  1.00000386  0.66773656  0.66717833  1
  Fe  Fe35  1  0.16591149  0.83315348  0.83510079  1
  Ni  Ni36  1  0.49800112  0.16704050  0.50122884  1
  Fe  Fe37  1  0.33643436  0.00285454  0.66770359  1
  Fe  Fe38  1  0.50383340  0.16678761  0.83380020  1
  Fe  Fe39  1  0.50167737  0.49886101  0.50066954  1
  Fe  Fe40  1  0.33694994  0.33246097  0.66579993  1
  Fe  Fe41  1  0.50314652  0.50002510  0.83475926  1
  Cr  Cr42  1  0.50401466  0.83515685  0.49847744  1
  Cr  Cr43  1  0.33560197  0.66728964  0.66791043  1
  Fe  Fe44  1  0.50259279  0.83429305  0.83469379  1
  Cr  Cr45  1  0.83325393  0.16386531  0.50102417  1
  Ni  Ni46  1  0.66549574  0.00111121  0.66821981  1
  Fe  Fe47  1  0.83167523  0.16791375  0.83388082  1
  Ni  Ni48  1  0.83041286  0.50280798  0.50205301  1
  Ni  Ni49  1  0.66489417  0.33302482  0.66850285  1
  Ni  Ni50  1  0.83097118  0.50163660  0.83496224  1
  Ni  Ni51  1  0.83201634  0.83237619  0.49990123  1
  Fe  Fe52  1  0.66823699  0.66644444  0.66731772  1
  Ni  Ni53  1  0.83055089  0.83272002  0.83283467  1
" 