2922,Ni30Fe29Cr40_1,-223.38502104134, 179.701942904972,Ni30Fe29Cr40,"# generated using pymatgen
 data_Cr23Fe15Ni16
_symmetry_space_group_name_H-M   'P 1'
_cell_length_a   7.49076523
_cell_length_b   7.49076523
_cell_length_c   10.59354179
_cell_angle_alpha   90.00000000
_cell_angle_beta   90.00000000
_cell_angle_gamma   90.00000000
_symmetry_Int_Tables_number   1
_chemical_formula_structural   Cr23Fe15Ni16
_chemical_formula_sum   'Cr23 Fe15 Ni16'
_cell_volume   594.42019591
_cell_formula_units_Z   1
loop_
 _symmetry_equiv_pos_site_id
 _symmetry_equiv_pos_as_xyz
  1  'x, y, z'
loop_
 _atom_site_type_symbol
 _atom_site_label
 _atom_site_symmetry_multiplicity
 _atom_site_fract_x
 _atom_site_fract_y
 _atom_site_fract_z
 _atom_site_occupancy
  Ni  Ni0  1  0.99692142  0.00030934  0.00167938  1
  Fe  Fe1  1  0.16691881  0.16442716  0.16367998  1
  Ni  Ni2  1  0.99567070  0.99777369  0.32970991  1
  Cr  Cr3  1  -0.00067655  0.33179785  0.00167792  1
  Ni  Ni4  1  0.16610989  0.49931255  0.16338327  1
  Cr  Cr5  1  -0.00043365  0.33221832  0.32758606  1
  Cr  Cr6  1  0.99600257  0.66410945  0.99831535  1
  Cr  Cr7  1  0.16598727  0.83371130  0.16480848  1
  Ni  Ni8  1  0.99790848  0.66416568  0.32968230  1
  Ni  Ni9  1  0.33520286  -0.00106362  0.00133573  1
  Fe  Fe10  1  0.49742551  0.16456559  0.16394650  1
  Fe  Fe11  1  0.33114106  0.99672462  0.32934596  1
  Ni  Ni12  1  0.33396223  0.33099204  0.00102908  1
  Fe  Fe13  1  0.49721629  0.50175932  0.16421251  1
  Cr  Cr14  1  0.33454101  0.33134960  0.32798992  1
  Ni  Ni15  1  0.33528123  0.66598824  -0.00046691  1
  Ni  Ni16  1  0.49924164  0.83245025  0.16401903  1
  Fe  Fe17  1  0.33202512  0.66668212  0.32826235  1
  Fe  Fe18  1  0.66293268  0.99820043  0.00060607  1
  Fe  Fe19  1  0.83129903  0.16147583  0.16540998  1
  Cr  Cr20  1  0.66178690  0.99704742  0.33160241  1
  Cr  Cr21  1  0.66525843  0.33219442  0.00149088  1
  Ni  Ni22  1  0.82894719  0.49804966  0.16732197  1
  Fe  Fe23  1  0.66754790  0.33008680  0.32800931  1
  Ni  Ni24  1  0.66137845  0.66760068  0.00287683  1
  Fe  Fe25  1  0.83144681  0.82965202  0.16549835  1
  Fe  Fe26  1  0.66477257  0.66512807  0.32781927  1
  Cr  Cr27  1  0.16443141  0.16295410  0.49413290  1
  Cr  Cr28  1  0.99500370  0.99773552  0.66498651  1
  Cr  Cr29  1  0.16648402  0.16343973  0.83755044  1
  Cr  Cr30  1  0.16716233  0.50019711  0.50099296  1
  Cr  Cr31  1  -0.00144129  0.32992976  0.66634570  1
  Cr  Cr32  1  0.16880235  0.49855765  0.83027570  1
  Cr  Cr33  1  0.16605263  0.83138617  0.49526523  1
  Ni  Ni34  1  -0.00123724  0.66435723  0.66513726  1
  Cr  Cr35  1  0.16790421  0.83300758  0.83352467  1
  Fe  Fe36  1  0.50080048  0.16476514  0.49726494  1
  Cr  Cr37  1  0.33754287  -0.00127489  0.66242428  1
  Fe  Fe38  1  0.49949971  0.16313524  0.83456715  1
  Cr  Cr39  1  0.50050069  0.49843288  0.49611016  1
  Fe  Fe40  1  0.33518836  0.32988146  0.66544829  1
  Cr  Cr41  1  0.49816223  0.49890601  0.83420222  1
  Ni  Ni42  1  0.49776933  0.83212264  0.49542035  1
  Fe  Fe43  1  0.33432453  0.66842618  0.66569333  1
  Ni  Ni44  1  0.49878028  0.83422918  0.83611104  1
  Ni  Ni45  1  0.82755240  0.16457157  0.49725703  1
  Ni  Ni46  1  0.66114858  0.00140677  0.66596671  1
  Ni  Ni47  1  0.82812086  0.16252518  0.83382029  1
  Cr  Cr48  1  0.82991954  0.49594996  0.49803622  1
  Fe  Fe49  1  0.66362923  0.32763953  0.66554912  1
  Cr  Cr50  1  0.82855576  0.49698899  0.82977754  1
  Cr  Cr51  1  0.83144162  0.83250399  0.49565736  1
  Cr  Cr52  1  0.66355703  0.67155965  0.66561347  1
  Cr  Cr53  1  0.82903985  0.83446815  0.83654853  1
" 