168,Ni30Fe63Cr6_0,-234.684696713001, 198.927264986079,Ni30Fe63Cr6,"# generated using pymatgen
 data_Cr2Fe17Ni8
_symmetry_space_group_name_H-M   'P 1'
_cell_length_a   7.41863441
_cell_length_b   7.41863441
_cell_length_c   10.49153340
_cell_angle_alpha   90.00000000
_cell_angle_beta   90.00000000
_cell_angle_gamma   90.00000000
_symmetry_Int_Tables_number   1
_chemical_formula_structural   Cr2Fe17Ni8
_chemical_formula_sum   'Cr4 Fe34 Ni16'
_cell_volume   577.41346535
_cell_formula_units_Z   2
loop_
 _symmetry_equiv_pos_site_id
 _symmetry_equiv_pos_as_xyz
  1  'x, y, z'
loop_
 _atom_site_type_symbol
 _atom_site_label
 _atom_site_symmetry_multiplicity
 _atom_site_fract_x
 _atom_site_fract_y
 _atom_site_fract_z
 _atom_site_occupancy
  Fe  Fe0  1  0.00439431  1.00306766  1.00312105  1
  Fe  Fe1  1  0.17036625  0.16942438  0.16975985  1
  Cr  Cr2  1  0.00355054  1.00180270  0.33683373  1
  Fe  Fe3  1  1.00216572  0.33659271  1.00281884  1
  Fe  Fe4  1  0.16936898  0.50478507  0.17127897  1
  Fe  Fe5  1  0.00387454  0.33853005  0.33677027  1
  Ni  Ni6  1  1.00185379  0.67079146  0.00372970  1
  Ni  Ni7  1  0.17090343  0.83614906  0.16903818  1
  Fe  Fe8  1  0.00550929  0.66804588  0.33685921  1
  Ni  Ni9  1  0.33661015  1.00282318  1.00307944  1
  Fe  Fe10  1  0.50351515  0.16892072  0.17077286  1
  Fe  Fe11  1  0.33805036  0.00332888  0.33603875  1
  Cr  Cr12  1  0.33637351  0.33520209  0.00397179  1
  Fe  Fe13  1  0.50265573  0.50343220  0.17097810  1
  Ni  Ni14  1  0.33770830  0.33702252  0.33666760  1
  Fe  Fe15  1  0.33535895  0.67290877  0.00485297  1
  Fe  Fe16  1  0.50164371  0.83742924  0.16894971  1
  Ni  Ni17  1  0.33547944  0.66868260  0.33633305  1
  Fe  Fe18  1  0.66963184  1.00291360  0.00334923  1
  Fe  Fe19  1  0.83590862  0.17043782  0.16950273  1
  Fe  Fe20  1  0.66788870  0.00496520  0.33669945  1
  Fe  Fe21  1  0.67241706  0.33618603  0.00429825  1
  Fe  Fe22  1  0.83775920  0.50291096  0.16843874  1
  Ni  Ni23  1  0.66830673  0.33568789  0.33659438  1
  Fe  Fe24  1  0.67067038  0.67069094  0.00382731  1
  Fe  Fe25  1  0.83725965  0.83643744  0.16867476  1
  Cr  Cr26  1  0.67027126  0.66964694  0.33736120  1
  Ni  Ni27  1  0.17079335  0.17033964  0.50312294  1
  Ni  Ni28  1  1.00283995  1.00192539  0.67111330  1
  Ni  Ni29  1  0.16903254  0.16806898  0.83659125  1
  Ni  Ni30  1  0.17104816  0.50310251  0.50299163  1
  Fe  Fe31  1  0.00418330  0.33647002  0.67019794  1
  Fe  Fe32  1  0.16705957  0.50369698  0.83532991  1
  Ni  Ni33  1  0.16969025  0.83634572  0.50383480  1
  Ni  Ni34  1  1.00226980  0.67133782  0.66891521  1
  Fe  Fe35  1  0.16924751  0.83638850  0.83686554  1
  Fe  Fe36  1  0.50229545  0.17063997  0.50295593  1
  Fe  Fe37  1  0.33503148  0.00356203  0.67048942  1
  Fe  Fe38  1  0.50360743  0.16823399  0.83605840  1
  Ni  Ni39  1  0.50266665  0.50198468  0.50341012  1
  Ni  Ni40  1  0.33676197  0.33568221  0.66899256  1
  Cr  Cr41  1  0.50464640  0.50415613  0.83637346  1
  Fe  Fe42  1  0.50154127  0.83664481  0.50375755  1
  Fe  Fe43  1  0.33497463  0.67040011  0.66804066  1
  Fe  Fe44  1  0.50313569  0.83837138  0.83708354  1
  Fe  Fe45  1  0.83663794  0.17046884  0.50376967  1
  Fe  Fe46  1  0.67065043  1.00289717  0.66974149  1
  Fe  Fe47  1  0.83688948  0.17042374  0.83652084  1
  Fe  Fe48  1  0.83815144  0.50304413  0.50442688  1
  Fe  Fe49  1  0.67108127  0.33640866  0.66894232  1
  Ni  Ni50  1  0.83683684  0.50330643  0.83684652  1
  Ni  Ni51  1  0.83692900  0.83686892  0.50437761  1
  Fe  Fe52  1  0.67130098  0.67048219  0.66898290  1
  Fe  Fe53  1  0.83740066  0.83613212  0.83586651  1
" 