2991,Ni30Fe63Cr6_1,-234.309956480199, 204.136961844078,Ni30Fe63Cr6,"# generated using pymatgen
 data_Cr2Fe17Ni8
_symmetry_space_group_name_H-M   'P 1'
_cell_length_a   7.41010001
_cell_length_b   7.41010001
_cell_length_c   10.47946393
_cell_angle_alpha   90.00000000
_cell_angle_beta   90.00000000
_cell_angle_gamma   90.00000000
_symmetry_Int_Tables_number   1
_chemical_formula_structural   Cr2Fe17Ni8
_chemical_formula_sum   'Cr4 Fe34 Ni16'
_cell_volume   575.42298487
_cell_formula_units_Z   2
loop_
 _symmetry_equiv_pos_site_id
 _symmetry_equiv_pos_as_xyz
  1  'x, y, z'
loop_
 _atom_site_type_symbol
 _atom_site_label
 _atom_site_symmetry_multiplicity
 _atom_site_fract_x
 _atom_site_fract_y
 _atom_site_fract_z
 _atom_site_occupancy
  Fe  Fe0  1  1.00373880  1.00382257  1.00373088  1
  Fe  Fe1  1  0.17090535  0.16947324  0.17013872  1
  Fe  Fe2  1  0.00444053  1.00310589  0.33648220  1
  Fe  Fe3  1  1.00190282  0.33796271  1.00365646  1
  Ni  Ni4  1  0.17136243  0.50550486  0.17016377  1
  Cr  Cr5  1  0.00387497  0.33635131  0.33623107  1
  Fe  Fe6  1  1.00373650  0.66974173  1.00354213  1
  Fe  Fe7  1  0.17128942  0.83638349  0.17022996  1
  Fe  Fe8  1  0.00599903  0.67186426  0.33566556  1
  Fe  Fe9  1  0.33783037  1.00176159  1.00303522  1
  Fe  Fe10  1  0.50478882  0.17038416  0.17104706  1
  Fe  Fe11  1  0.33713568  1.00330108  0.33746160  1
  Cr  Cr12  1  0.33680387  0.33783186  0.00446614  1
  Ni  Ni13  1  0.50399419  0.50545707  0.17129659  1
  Fe  Fe14  1  0.33874292  0.33832403  0.33730767  1
  Ni  Ni15  1  0.33772557  0.67234014  1.00335963  1
  Ni  Ni16  1  0.50335183  0.83621864  0.17039927  1
  Ni  Ni17  1  0.33792373  0.67097898  0.33782049  1
  Fe  Fe18  1  0.66996096  1.00359279  0.00442525  1
  Ni  Ni19  1  0.83677129  0.16984926  0.16942460  1
  Fe  Fe20  1  0.66995382  0.00451326  0.33634312  1
  Ni  Ni21  1  0.67277801  0.33746371  0.00419412  1
  Fe  Fe22  1  0.83569542  0.50452211  0.16902625  1
  Fe  Fe23  1  0.66799588  0.33675554  0.33609011  1
  Ni  Ni24  1  0.67036892  0.67074803  0.00454714  1
  Fe  Fe25  1  0.83659848  0.83662117  0.17066350  1
  Fe  Fe26  1  0.66819394  0.67025725  0.33530288  1
  Fe  Fe27  1  0.17109334  0.17041497  0.50570122  1
  Fe  Fe28  1  0.00562424  0.00560003  0.67131583  1
  Ni  Ni29  1  0.16990947  0.16876337  0.83655140  1
  Fe  Fe30  1  0.17258298  0.50411335  0.50414888  1
  Ni  Ni31  1  0.00447310  0.33617259  0.67168165  1
  Fe  Fe32  1  0.16939016  0.50435388  0.83660184  1
  Fe  Fe33  1  0.17207961  0.83699813  0.50418246  1
  Fe  Fe34  1  0.00606189  0.67014387  0.67231670  1
  Ni  Ni35  1  0.17132501  0.83824403  0.83741963  1
  Fe  Fe36  1  0.50425790  0.17087186  0.50433774  1
  Ni  Ni37  1  0.33722480  1.00379334  0.67026894  1
  Fe  Fe38  1  0.50382898  0.16987850  0.83614220  1
  Ni  Ni39  1  0.50182806  0.50362565  0.50376168  1
  Ni  Ni40  1  0.33601062  0.33679876  0.66924653  1
  Fe  Fe41  1  0.50425099  0.50455236  0.83683887  1
  Fe  Fe42  1  0.50273874  0.83708303  0.50335873  1
  Fe  Fe43  1  0.33675165  0.67012293  0.67030317  1
  Fe  Fe44  1  0.50324586  0.83709924  0.83779979  1
  Ni  Ni45  1  0.83700500  0.16952179  0.50577653  1
  Fe  Fe46  1  0.66961234  0.00560012  0.67076239  1
  Fe  Fe47  1  0.83805875  0.17090815  0.83721291  1
  Cr  Cr48  1  0.83576666  0.50244976  0.50351144  1
  Fe  Fe49  1  0.66958506  0.33623769  0.67131048  1
  Ni  Ni50  1  0.83643744  0.50340874  0.83762137  1
  Cr  Cr51  1  0.83792126  0.83907402  0.50385874  1
  Fe  Fe52  1  0.66871017  0.66968884  0.67230735  1
  Fe  Fe53  1  0.83786095  0.83684887  0.83710873  1
" 