8449,Ni30Fe24Cr45_12,-221.993709198122, 173.532696279717,Ni30Fe24Cr45,"# generated using pymatgen
 data_Cr25Fe13Ni16
_symmetry_space_group_name_H-M   'P 1'
_cell_length_a   7.50429137
_cell_length_b   7.50429137
_cell_length_c   10.61267064
_cell_angle_alpha   90.00000000
_cell_angle_beta   90.00000000
_cell_angle_gamma   90.00000000
_symmetry_Int_Tables_number   1
_chemical_formula_structural   Cr25Fe13Ni16
_chemical_formula_sum   'Cr25 Fe13 Ni16'
_cell_volume   597.64606253
_cell_formula_units_Z   1
loop_
 _symmetry_equiv_pos_site_id
 _symmetry_equiv_pos_as_xyz
  1  'x, y, z'
loop_
 _atom_site_type_symbol
 _atom_site_label
 _atom_site_symmetry_multiplicity
 _atom_site_fract_x
 _atom_site_fract_y
 _atom_site_fract_z
 _atom_site_occupancy
  Fe  Fe0  1  -0.00117420  0.00080412  -0.00238722  1
  Fe  Fe1  1  0.16249483  0.16343858  0.16176184  1
  Cr  Cr2  1  0.00038069  -0.00152545  0.33164077  1
  Fe  Fe3  1  -0.00126122  0.32881869  0.99559033  1
  Fe  Fe4  1  0.16556415  0.49673916  0.16299684  1
  Cr  Cr5  1  0.99728259  0.33077874  0.33042738  1
  Cr  Cr6  1  0.99734158  0.66199478  0.99609274  1
  Fe  Fe7  1  0.16599102  0.83238624  0.16226916  1
  Cr  Cr8  1  -0.00109081  0.66326778  0.33375162  1
  Ni  Ni9  1  0.32910627  0.99742050  -0.00096230  1
  Cr  Cr10  1  0.49827555  0.16431732  0.16590976  1
  Cr  Cr11  1  0.33187896  0.99673242  0.33223649  1
  Cr  Cr12  1  0.32794024  0.32936098  0.99722210  1
  Ni  Ni13  1  0.49765766  0.49810909  0.16645446  1
  Cr  Cr14  1  0.33080343  0.32903150  0.33219810  1
  Cr  Cr15  1  0.33185986  0.66673892  -0.00062695  1
  Fe  Fe16  1  0.49895482  0.83055470  0.16448079  1
  Cr  Cr17  1  0.33137345  0.66677315  0.32877477  1
  Fe  Fe18  1  0.66262211  0.99653295  0.99629374  1
  Fe  Fe19  1  0.82965314  0.16403755  0.16477881  1
  Ni  Ni20  1  0.66217673  -0.00233562  0.33040447  1
  Cr  Cr21  1  0.66810404  0.33023313  0.99620563  1
  Cr  Cr22  1  0.82855225  0.49702443  0.16785534  1
  Ni  Ni23  1  0.66450883  0.33055193  0.33124875  1
  Cr  Cr24  1  0.66356557  0.66535670  0.99463668  1
  Cr  Cr25  1  0.83102126  0.83325134  0.16533926  1
  Ni  Ni26  1  0.66283719  0.66429684  0.33062301  1
  Ni  Ni27  1  0.16630604  0.16401219  0.49911809  1
  Fe  Fe28  1  -0.00226040  -0.00041083  0.66440365  1
  Ni  Ni29  1  0.16110512  0.16431734  0.83288500  1
  Fe  Fe30  1  0.16584497  0.49626322  0.50035307  1
  Cr  Cr31  1  -0.00125227  0.33082720  0.66563493  1
  Ni  Ni32  1  0.16171265  0.49484407  0.82998782  1
  Fe  Fe33  1  0.16691260  0.83101925  0.49948078  1
  Cr  Cr34  1  -0.00230798  0.66274320  0.66299090  1
  Cr  Cr35  1  0.16467693  0.83278794  0.82968316  1
  Ni  Ni36  1  0.49599499  0.16199389  0.49714120  1
  Cr  Cr37  1  0.33289243  -0.00176958  0.66028679  1
  Cr  Cr38  1  0.49470835  0.16175475  0.82835114  1
  Cr  Cr39  1  0.49829415  0.49635724  0.49777977  1
  Ni  Ni40  1  0.32624434  0.32984828  0.66369604  1
  Cr  Cr41  1  0.49397743  0.49851996  0.82840499  1
  Ni  Ni42  1  0.49820944  0.83235588  0.49611776  1
  Ni  Ni43  1  0.32928093  0.66482541  0.66446531  1
  Ni  Ni44  1  0.49877538  0.83401350  0.83245587  1
  Cr  Cr45  1  0.82853863  0.16330519  0.49537581  1
  Ni  Ni46  1  0.66370740  0.99620213  0.66603018  1
  Fe  Fe47  1  0.83329699  0.16198579  0.83089487  1
  Ni  Ni48  1  0.83081939  0.49852423  0.49392340  1
  Cr  Cr49  1  0.66520018  0.32838377  0.66370974  1
  Ni  Ni50  1  0.83476154  0.49726675  0.83214548  1
  Cr  Cr51  1  0.82971922  0.83043831  0.49765791  1
  Cr  Cr52  1  0.66431600  0.66704415  0.66735882  1
  Fe  Fe53  1  0.83010466  0.83385542  0.83045024  1
" 