8796,Ni30Fe41Cr28_3,-227.830985120149, 190.076645234633,Ni30Fe41Cr28,"# generated using pymatgen
 data_Cr8Fe11Ni8
_symmetry_space_group_name_H-M   'P 1'
_cell_length_a   7.46100420
_cell_length_b   7.46100420
_cell_length_c   10.55145333
_cell_angle_alpha   90.00000000
_cell_angle_beta   90.00000000
_cell_angle_gamma   90.00000000
_symmetry_Int_Tables_number   1
_chemical_formula_structural   Cr8Fe11Ni8
_chemical_formula_sum   'Cr16 Fe22 Ni16'
_cell_volume   587.36336058
_cell_formula_units_Z   2
loop_
 _symmetry_equiv_pos_site_id
 _symmetry_equiv_pos_as_xyz
  1  'x, y, z'
loop_
 _atom_site_type_symbol
 _atom_site_label
 _atom_site_symmetry_multiplicity
 _atom_site_fract_x
 _atom_site_fract_y
 _atom_site_fract_z
 _atom_site_occupancy
  Fe  Fe0  1  0.00139764  0.99972482  0.99797370  1
  Cr  Cr1  1  0.16722016  0.16459683  0.16592362  1
  Cr  Cr2  1  0.00182743  0.00068867  0.33492366  1
  Cr  Cr3  1  1.00017451  0.33513635  0.99944869  1
  Ni  Ni4  1  0.17128626  0.50195673  0.16670628  1
  Cr  Cr5  1  0.99982416  0.33389057  0.33574887  1
  Cr  Cr6  1  0.00205414  0.66665799  0.99955633  1
  Fe  Fe7  1  0.17117225  0.83328085  0.16738445  1
  Cr  Cr8  1  0.00199726  0.66650933  0.33429936  1
  Ni  Ni9  1  0.33404105  0.99905519  0.99929807  1
  Fe  Fe10  1  0.50106972  0.16569826  0.16742992  1
  Ni  Ni11  1  0.33755884  0.99867316  0.33565670  1
  Fe  Fe12  1  0.33231146  0.33347609  0.99894807  1
  Cr  Cr13  1  0.49944835  0.50107684  0.16596874  1
  Cr  Cr14  1  0.33402655  0.33023519  0.33435413  1
  Fe  Fe15  1  0.33259183  0.66920516  0.99892072  1
  Fe  Fe16  1  0.49725762  0.83555042  0.16797315  1
  Fe  Fe17  1  0.33446311  0.66987805  0.33477884  1
  Cr  Cr18  1  0.66566407  0.00066347  0.00044021  1
  Ni  Ni19  1  0.83162593  0.16540869  0.16677628  1
  Fe  Fe20  1  0.66503451  0.00269748  0.33547778  1
  Fe  Fe21  1  0.66729937  0.33273666  0.00043383  1
  Cr  Cr22  1  0.83176318  0.49968134  0.16861902  1
  Ni  Ni23  1  0.66662870  0.33071868  0.33385158  1
  Cr  Cr24  1  0.66755962  0.66927426  0.99655374  1
  Cr  Cr25  1  0.83368536  0.83628720  0.16873654  1
  Fe  Fe26  1  0.66527364  0.66839064  0.33550767  1
  Ni  Ni27  1  0.16838943  0.16311594  0.50312810  1
  Fe  Fe28  1  0.00139768  0.99953254  0.66687132  1
  Ni  Ni29  1  0.16712031  0.16457807  0.83251124  1
  Cr  Cr30  1  0.16736992  0.50061732  0.50225014  1
  Fe  Fe31  1  0.00047817  0.33377129  0.66796059  1
  Ni  Ni32  1  0.16771373  0.49924921  0.83200386  1
  Ni  Ni33  1  0.16746432  0.83637314  0.50134144  1
  Ni  Ni34  1  1.00006593  0.66644743  0.66749223  1
  Fe  Fe35  1  0.16716487  0.83371131  0.83176095  1
  Fe  Fe36  1  0.50033349  0.16573975  0.50224829  1
  Fe  Fe37  1  0.33317864  0.99909381  0.66654833  1
  Cr  Cr38  1  0.49840453  0.16721601  0.83274478  1
  Cr  Cr39  1  0.50167675  0.50107509  0.50224038  1
  Ni  Ni40  1  0.33190978  0.33238324  0.66739545  1
  Cr  Cr41  1  0.49982811  0.50023675  0.83241548  1
  Fe  Fe42  1  0.49920669  0.83463502  0.50186589  1
  Ni  Ni43  1  0.33143616  0.66822053  0.66817122  1
  Fe  Fe44  1  0.49863900  0.83491316  0.83123040  1
  Fe  Fe45  1  0.83325903  0.16761160  0.50136227  1
  Ni  Ni46  1  0.66705369  1.00025185  0.66598780  1
  Fe  Fe47  1  0.83500413  0.16732126  0.83216492  1
  Ni  Ni48  1  0.83072392  0.50189186  0.50158991  1
  Fe  Fe49  1  0.66876773  0.33336993  0.66613485  1
  Ni  Ni50  1  0.83381397  0.50173060  0.83086373  1
  Fe  Fe51  1  0.83470246  0.83283447  0.50320232  1
  Fe  Fe52  1  0.66770618  0.66910377  0.66792350  1
  Ni  Ni53  1  0.83480461  0.83569611  0.83077065  1
" 