3733,Ni30Fe9Cr59_18,-215.434462783464, 154.508453544084,Ni30Fe9Cr59,"# generated using pymatgen
 data_Cr33Fe5Ni16
_symmetry_space_group_name_H-M   'P 1'
_cell_length_a   7.53662785
_cell_length_b   7.53662785
_cell_length_c   10.65840132
_cell_angle_alpha   90.00000000
_cell_angle_beta   90.00000000
_cell_angle_gamma   90.00000000
_symmetry_Int_Tables_number   1
_chemical_formula_structural   Cr33Fe5Ni16
_chemical_formula_sum   'Cr33 Fe5 Ni16'
_cell_volume   605.40528846
_cell_formula_units_Z   1
loop_
 _symmetry_equiv_pos_site_id
 _symmetry_equiv_pos_as_xyz
  1  'x, y, z'
loop_
 _atom_site_type_symbol
 _atom_site_label
 _atom_site_symmetry_multiplicity
 _atom_site_fract_x
 _atom_site_fract_y
 _atom_site_fract_z
 _atom_site_occupancy
  Cr  Cr0  1  -0.00215525  0.00017862  -0.00374755  1
  Ni  Ni1  1  0.16509384  0.16401819  0.16353225  1
  Cr  Cr2  1  -0.00245485  -0.00329572  0.32741596  1
  Ni  Ni3  1  0.00084892  0.32963755  0.99474449  1
  Ni  Ni4  1  0.16535228  0.49385840  0.16186366  1
  Cr  Cr5  1  -0.00100696  0.32800511  0.32752120  1
  Cr  Cr6  1  -0.00400873  0.66034400  -0.00358967  1
  Cr  Cr7  1  0.16441792  0.82755084  0.16430975  1
  Ni  Ni8  1  -0.00334074  0.66008796  0.32776885  1
  Cr  Cr9  1  0.32843352  -0.00430792  -0.00435080  1
  Cr  Cr10  1  0.49480026  0.16285088  0.16579735  1
  Ni  Ni11  1  0.33111700  -0.00187953  0.33014630  1
  Cr  Cr12  1  0.32585749  0.32834926  -0.00332192  1
  Ni  Ni13  1  0.49192984  0.49495251  0.16346127  1
  Ni  Ni14  1  0.33039920  0.32729361  0.32872786  1
  Fe  Fe15  1  0.32768043  0.66036935  -0.00301199  1
  Fe  Fe16  1  0.49374103  0.82920325  0.16438167  1
  Cr  Cr17  1  0.33016592  0.65985003  0.32761471  1
  Cr  Cr18  1  0.66022805  0.99262053  -0.00447602  1
  Cr  Cr19  1  0.82660858  0.16293817  0.16133944  1
  Ni  Ni20  1  0.65778139  -0.00419260  0.32992705  1
  Cr  Cr21  1  0.66130747  0.33028846  -0.00301238  1
  Cr  Cr22  1  0.82869307  0.49398632  0.16370030  1
  Ni  Ni23  1  0.65765252  0.32833505  0.32954797  1
  Cr  Cr24  1  0.65752573  0.66318456  -0.00403914  1
  Cr  Cr25  1  0.82868831  0.82944889  0.16515390  1
  Cr  Cr26  1  0.66057314  0.66141906  0.32994581  1
  Fe  Fe27  1  0.16526091  0.16209616  0.49459051  1
  Cr  Cr28  1  -0.00229091  -0.00083276  0.66222528  1
  Ni  Ni29  1  0.16310697  0.16368406  0.82706432  1
  Cr  Cr30  1  0.16358725  0.49546776  0.49461114  1
  Ni  Ni31  1  -0.00138522  0.32712263  0.66457423  1
  Ni  Ni32  1  0.16258831  0.49310999  0.82974991  1
  Cr  Cr33  1  0.16543813  0.82990721  0.49369899  1
  Cr  Cr34  1  -0.00424885  0.66001713  0.66060227  1
  Cr  Cr35  1  0.16503354  0.82745038  0.82789253  1
  Fe  Fe36  1  0.49365803  0.16074664  0.49365518  1
  Ni  Ni37  1  0.33103819  -0.00340294  0.66075052  1
  Cr  Cr38  1  0.49436758  0.16075325  0.82633418  1
  Ni  Ni39  1  0.49393480  0.49346543  0.49294686  1
  Cr  Cr40  1  0.32668814  0.32694310  0.65988946  1
  Cr  Cr41  1  0.49204176  0.49476905  0.83003831  1
  Ni  Ni42  1  0.49404119  0.83276433  0.49576796  1
  Cr  Cr43  1  0.33095368  0.66152883  0.66298726  1
  Fe  Fe44  1  0.49372726  0.83035761  0.82701445  1
  Cr  Cr45  1  0.82489748  0.16228213  0.49531162  1
  Ni  Ni46  1  0.65784745  0.99440255  0.66104444  1
  Cr  Cr47  1  0.82764052  0.16329248  0.82962946  1
  Cr  Cr48  1  0.82892793  0.49354664  0.49450538  1
  Cr  Cr49  1  0.66057951  0.32917946  0.65979953  1
  Cr  Cr50  1  0.83058753  0.49365834  0.82764769  1
  Cr  Cr51  1  0.82897162  0.83021548  0.49364726  1
  Cr  Cr52  1  0.65964217  0.66318283  0.66047966  1
  Cr  Cr53  1  0.82816415  0.82992590  0.82691979  1
" 