5357,Ni30Fe9Cr59_8,-215.187058755026, 153.713630661776,Ni30Fe9Cr59,"# generated using pymatgen
 data_Cr33Fe5Ni16
_symmetry_space_group_name_H-M   'P 1'
_cell_length_a   7.54368780
_cell_length_b   7.54368780
_cell_length_c   10.66838560
_cell_angle_alpha   90.00000000
_cell_angle_beta   90.00000000
_cell_angle_gamma   90.00000000
_symmetry_Int_Tables_number   1
_chemical_formula_structural   Cr33Fe5Ni16
_chemical_formula_sum   'Cr33 Fe5 Ni16'
_cell_volume   607.10822736
_cell_formula_units_Z   1
loop_
 _symmetry_equiv_pos_site_id
 _symmetry_equiv_pos_as_xyz
  1  'x, y, z'
loop_
 _atom_site_type_symbol
 _atom_site_label
 _atom_site_symmetry_multiplicity
 _atom_site_fract_x
 _atom_site_fract_y
 _atom_site_fract_z
 _atom_site_occupancy
  Cr  Cr0  1  0.99148396  -0.00357742  -0.00344019  1
  Ni  Ni1  1  0.16248386  0.16104328  0.16052303  1
  Cr  Cr2  1  0.99358476  -0.00327801  0.32468452  1
  Cr  Cr3  1  0.99349079  0.32704584  -0.00191196  1
  Ni  Ni4  1  0.16094993  0.49215993  0.16157094  1
  Cr  Cr5  1  -0.00451188  0.32797647  0.32545978  1
  Cr  Cr6  1  0.99431284  0.66146478  -0.00414790  1
  Cr  Cr7  1  0.16412598  0.83224735  0.15954496  1
  Cr  Cr8  1  -0.00171062  0.66033533  0.32861071  1
  Ni  Ni9  1  0.33112814  -0.00424263  0.99347058  1
  Cr  Cr10  1  0.49416403  0.16064384  0.16412906  1
  Ni  Ni11  1  0.33174262  -0.00446643  0.32976340  1
  Cr  Cr12  1  0.32918000  0.32933729  -0.00400268  1
  Cr  Cr13  1  0.49815146  0.49513788  0.16168497  1
  Cr  Cr14  1  0.32750526  0.32943800  0.32904126  1
  Cr  Cr15  1  0.33098986  0.66133881  -0.00418518  1
  Cr  Cr16  1  0.49601581  0.82905431  0.16178313  1
  Cr  Cr17  1  0.32844333  0.66276649  0.32940719  1
  Cr  Cr18  1  0.66167194  0.99447441  0.99191028  1
  Ni  Ni19  1  0.82710782  0.16226646  0.16259858  1
  Fe  Fe20  1  0.65800396  -0.00448977  0.32948805  1
  Cr  Cr21  1  0.66210315  0.32677090  0.99087760  1
  Cr  Cr22  1  0.82397341  0.49521436  0.16251942  1
  Ni  Ni23  1  0.66148550  0.32591715  0.32796319  1
  Fe  Fe24  1  0.66131703  0.66263154  0.99107906  1
  Cr  Cr25  1  0.82426146  0.82732403  0.16417634  1
  Ni  Ni26  1  0.65926534  0.66249257  0.32887318  1
  Cr  Cr27  1  0.16540012  0.16002465  0.49769221  1
  Cr  Cr28  1  0.99040828  0.99333511  0.66367039  1
  Cr  Cr29  1  0.16580958  0.15903355  0.82828161  1
  Ni  Ni30  1  0.16021816  0.49607198  0.49682843  1
  Cr  Cr31  1  0.99338576  0.32989974  0.66164805  1
  Cr  Cr32  1  0.16180119  0.49518237  0.82605727  1
  Cr  Cr33  1  0.16226780  0.83001253  0.49863008  1
  Ni  Ni34  1  0.99142330  0.66129418  0.66220398  1
  Cr  Cr35  1  0.16037449  0.83054986  0.82692727  1
  Ni  Ni36  1  0.49459332  0.15726113  0.49285941  1
  Ni  Ni37  1  0.33411622  0.99438231  0.66217931  1
  Ni  Ni38  1  0.49494540  0.16110051  0.82765295  1
  Cr  Cr39  1  0.49972836  0.49415237  0.49294667  1
  Cr  Cr40  1  0.33199810  0.32830213  0.65976260  1
  Ni  Ni41  1  0.50087951  0.49574631  0.82852274  1
  Ni  Ni42  1  0.49678694  0.83104601  0.49516687  1
  Cr  Cr43  1  0.33110007  0.66228221  0.65872635  1
  Fe  Fe44  1  0.49452395  0.82856978  0.82715897  1
  Cr  Cr45  1  0.82422117  0.16281309  0.49203776  1
  Cr  Cr46  1  0.65882916  0.99400673  0.66183351  1
  Fe  Fe47  1  0.82716284  0.16051978  0.82857787  1
  Cr  Cr48  1  0.82688042  0.49708984  0.49628911  1
  Cr  Cr49  1  0.66002424  0.32620972  0.66463934  1
  Fe  Fe50  1  0.82651713  0.49805206  0.82701857  1
  Cr  Cr51  1  0.82487645  0.82509611  0.49357721  1
  Ni  Ni52  1  0.66211159  0.66318520  0.66608046  1
  Ni  Ni53  1  0.82458984  0.82344711  0.82725282  1
" 