5969,Ni30Fe24Cr45_4,-222.131521445259, 178.228805518594,Ni30Fe24Cr45,"# generated using pymatgen
 data_Cr25Fe13Ni16
_symmetry_space_group_name_H-M   'P 1'
_cell_length_a   7.49840869
_cell_length_b   7.49840869
_cell_length_c   10.60435126
_cell_angle_alpha   90.00000000
_cell_angle_beta   90.00000000
_cell_angle_gamma   90.00000000
_symmetry_Int_Tables_number   1
_chemical_formula_structural   Cr25Fe13Ni16
_chemical_formula_sum   'Cr25 Fe13 Ni16'
_cell_volume   596.24166288
_cell_formula_units_Z   1
loop_
 _symmetry_equiv_pos_site_id
 _symmetry_equiv_pos_as_xyz
  1  'x, y, z'
loop_
 _atom_site_type_symbol
 _atom_site_label
 _atom_site_symmetry_multiplicity
 _atom_site_fract_x
 _atom_site_fract_y
 _atom_site_fract_z
 _atom_site_occupancy
  Cr  Cr0  1  0.99652715  0.99773036  0.99652332  1
  Cr  Cr1  1  0.16597355  0.16472522  0.16564699  1
  Ni  Ni2  1  0.99564431  -0.00119751  0.33194933  1
  Cr  Cr3  1  -0.00111452  0.33234448  -0.00003680  1
  Fe  Fe4  1  0.16148602  0.49959244  0.16606352  1
  Ni  Ni5  1  0.99663766  0.33154683  0.33157295  1
  Ni  Ni6  1  0.00105715  0.66336566  -0.00111628  1
  Fe  Fe7  1  0.16422263  0.83041426  0.16662463  1
  Ni  Ni8  1  0.00002175  0.66302868  0.33103118  1
  Ni  Ni9  1  0.33366478  -0.00199732  0.00076823  1
  Fe  Fe10  1  0.49962181  0.16157260  0.16370723  1
  Fe  Fe11  1  0.33087896  0.99482196  0.32843139  1
  Ni  Ni12  1  0.33049663  0.33179019  0.99644423  1
  Cr  Cr13  1  0.49834675  0.49791244  0.16416468  1
  Cr  Cr14  1  0.32928369  0.33428695  0.33211701  1
  Cr  Cr15  1  0.32797357  0.66461639  -0.00132012  1
  Fe  Fe16  1  0.49762933  0.83481406  0.16667058  1
  Ni  Ni17  1  0.33031083  0.66546897  0.33089376  1
  Ni  Ni18  1  0.66337248  -0.00016129  -0.00085488  1
  Ni  Ni19  1  0.83145374  0.16312986  0.16626234  1
  Ni  Ni20  1  0.66643444  0.99757328  0.32934093  1
  Cr  Cr21  1  0.66540995  0.32780895  0.99766048  1
  Fe  Fe22  1  0.83429340  0.49765132  0.16670875  1
  Cr  Cr23  1  0.66780531  0.33002625  0.33345782  1
  Cr  Cr24  1  0.66419762  0.66674916  0.99780600  1
  Cr  Cr25  1  0.83148204  0.82887671  0.16493660  1
  Ni  Ni26  1  0.66371582  0.66545787  0.33242101  1
  Cr  Cr27  1  0.16403675  0.16444551  0.49800472  1
  Fe  Fe28  1  -0.00168814  -0.00116504  0.66392085  1
  Cr  Cr29  1  0.16674877  0.16575001  0.82992230  1
  Fe  Fe30  1  0.16504635  0.49932083  0.49724525  1
  Cr  Cr31  1  0.99765479  0.32973907  0.66264904  1
  Fe  Fe32  1  0.16603853  0.49776189  0.83070678  1
  Cr  Cr33  1  0.16379488  0.83107794  0.49780682  1
  Fe  Fe34  1  0.00037990  0.66196115  0.66397713  1
  Cr  Cr35  1  0.16365091  0.83066089  0.82932111  1
  Cr  Cr36  1  0.49595655  0.16603541  0.49662710  1
  Fe  Fe37  1  0.33152647  -0.00207091  0.66471102  1
  Cr  Cr38  1  0.49531385  0.16692200  0.83362692  1
  Ni  Ni39  1  0.49584923  0.49966146  0.49936977  1
  Ni  Ni40  1  0.32960386  0.33702423  0.66520504  1
  Fe  Fe41  1  0.49385285  0.49668550  0.82987002  1
  Cr  Cr42  1  0.49704078  0.82878129  0.49469880  1
  Ni  Ni43  1  0.32849237  0.66099847  0.66434608  1
  Cr  Cr44  1  0.49698567  0.83088045  0.83170941  1
  Ni  Ni45  1  0.83405066  0.16434053  0.49551610  1
  Cr  Cr46  1  0.66788861  -0.00025935  0.66496035  1
  Ni  Ni47  1  0.83175849  0.16436544  0.83151838  1
  Fe  Fe48  1  0.83228195  0.49804973  0.49535803  1
  Cr  Cr49  1  0.66463837  0.33064536  0.66295013  1
  Cr  Cr50  1  0.83170496  0.49950894  0.83356250  1
  Cr  Cr51  1  0.83320414  0.82983063  0.49749845  1
  Cr  Cr52  1  0.66135320  0.66342400  0.66326932  1
  Cr  Cr53  1  0.83308456  0.83075193  0.83084983  1
" 