6555,Ni30Fe44Cr25_8,-229.117354888729, 189.03060164375,Ni30Fe44Cr25,"# generated using pymatgen
 data_Cr15Fe23Ni16
_symmetry_space_group_name_H-M   'P 1'
_cell_length_a   7.46829589
_cell_length_b   7.46829589
_cell_length_c   10.56176533
_cell_angle_alpha   90.00000000
_cell_angle_beta   90.00000000
_cell_angle_gamma   90.00000000
_symmetry_Int_Tables_number   1
_chemical_formula_structural   Cr15Fe23Ni16
_chemical_formula_sum   'Cr15 Fe23 Ni16'
_cell_volume   589.08714566
_cell_formula_units_Z   1
loop_
 _symmetry_equiv_pos_site_id
 _symmetry_equiv_pos_as_xyz
  1  'x, y, z'
loop_
 _atom_site_type_symbol
 _atom_site_label
 _atom_site_symmetry_multiplicity
 _atom_site_fract_x
 _atom_site_fract_y
 _atom_site_fract_z
 _atom_site_occupancy
  Fe  Fe0  1  0.99810461  0.99744218  0.99730557  1
  Cr  Cr1  1  0.16913155  0.16529546  0.16371490  1
  Cr  Cr2  1  0.00002489  0.99897586  0.33584163  1
  Fe  Fe3  1  0.00189268  0.33407931  0.99724406  1
  Fe  Fe4  1  0.16429222  0.50049175  0.16563540  1
  Cr  Cr5  1  0.00073694  0.33237789  0.33424876  1
  Fe  Fe6  1  0.99828194  0.66846661  0.99821456  1
  Fe  Fe7  1  0.16298470  0.83180760  0.16441771  1
  Ni  Ni8  1  0.00122503  0.66689373  0.33256485  1
  Ni  Ni9  1  0.33194191  0.99695299  0.99824085  1
  Cr  Cr10  1  0.49736005  0.16668874  0.16514537  1
  Cr  Cr11  1  0.33293492  0.99772284  0.33457904  1
  Fe  Fe12  1  0.33325029  0.33454961  0.99742529  1
  Fe  Fe13  1  0.49832877  0.49923578  0.16511064  1
  Ni  Ni14  1  0.33274469  0.33557516  0.33557626  1
  Cr  Cr15  1  0.33126130  0.66787107  0.99727803  1
  Fe  Fe16  1  0.50069564  0.83513436  0.16367891  1
  Cr  Cr17  1  0.33153356  0.66740781  0.33228710  1
  Ni  Ni18  1  0.66805504  0.99847482  0.99882248  1
  Fe  Fe19  1  0.83519177  0.16432617  0.16384646  1
  Cr  Cr20  1  0.66779882  0.99946695  0.33443108  1
  Cr  Cr21  1  0.67158447  0.33433190  0.99894893  1
  Ni  Ni22  1  0.83579722  0.50391910  0.16591922  1
  Cr  Cr23  1  0.66703659  0.33269582  0.33322740  1
  Cr  Cr24  1  0.66523514  0.66788497  0.99868937  1
  Ni  Ni25  1  0.83566012  0.83036340  0.16661381  1
  Cr  Cr26  1  0.66460707  0.66815935  0.33083982  1
  Ni  Ni27  1  0.17139313  0.16454650  0.50157701  1
  Ni  Ni28  1  0.00285776  0.99884545  0.66746833  1
  Ni  Ni29  1  0.16825663  0.16374189  0.83457163  1
  Fe  Fe30  1  0.16645886  0.50173948  0.50142836  1
  Cr  Cr31  1  -0.00007668  0.33128297  0.66945537  1
  Fe  Fe32  1  0.16568137  0.50115668  0.83280950  1
  Ni  Ni33  1  0.16517856  0.83346788  0.50134221  1
  Ni  Ni34  1  0.00124065  0.66773699  0.66841391  1
  Ni  Ni35  1  0.16407995  0.83611147  0.83284321  1
  Fe  Fe36  1  0.49864154  0.16667217  0.50308144  1
  Ni  Ni37  1  0.33247930  0.99791003  0.66690160  1
  Cr  Cr38  1  0.49670154  0.16569480  0.83301257  1
  Fe  Fe39  1  0.49583152  0.49980044  0.50343660  1
  Fe  Fe40  1  0.33062400  0.33241949  0.66614681  1
  Ni  Ni41  1  0.50068348  0.49887886  0.82969548  1
  Fe  Fe42  1  0.49900093  0.83291327  0.50396433  1
  Fe  Fe43  1  0.32976675  0.66871987  0.66832570  1
  Fe  Fe44  1  0.49962461  0.83368735  0.83153471  1
  Fe  Fe45  1  0.83516613  0.16486971  0.50390195  1
  Fe  Fe46  1  0.66927710  0.99830733  0.66758546  1
  Fe  Fe47  1  0.83486573  0.16327363  0.83339528  1
  Cr  Cr48  1  0.83194402  0.50601816  0.50094458  1
  Fe  Fe49  1  0.66683144  0.33307611  0.66772831  1
  Ni  Ni50  1  0.83271663  0.50342948  0.83275599  1
  Fe  Fe51  1  0.83646712  0.83412402  0.50301699  1
  Fe  Fe52  1  0.66667783  0.66914682  0.66917870  1
  Ni  Ni53  1  0.83542527  0.83132505  0.83112357  1
" 