6310,Ni30Fe24Cr45_13,-221.634156940882, 170.165997356261,Ni30Fe24Cr45,"# generated using pymatgen
 data_Cr25Fe13Ni16
_symmetry_space_group_name_H-M   'P 1'
_cell_length_a   7.49802173
_cell_length_b   7.49802173
_cell_length_c   10.60380403
_cell_angle_alpha   90.00000000
_cell_angle_beta   90.00000000
_cell_angle_gamma   90.00000000
_symmetry_Int_Tables_number   1
_chemical_formula_structural   Cr25Fe13Ni16
_chemical_formula_sum   'Cr25 Fe13 Ni16'
_cell_volume   596.14936063
_cell_formula_units_Z   1
loop_
 _symmetry_equiv_pos_site_id
 _symmetry_equiv_pos_as_xyz
  1  'x, y, z'
loop_
 _atom_site_type_symbol
 _atom_site_label
 _atom_site_symmetry_multiplicity
 _atom_site_fract_x
 _atom_site_fract_y
 _atom_site_fract_z
 _atom_site_occupancy
  Ni  Ni0  1  0.00023990  0.00182421  0.99522172  1
  Ni  Ni1  1  0.16672707  0.16341485  0.16466033  1
  Fe  Fe2  1  0.00124503  -0.00018391  0.33116862  1
  Ni  Ni3  1  -0.00199363  0.32643541  0.99747072  1
  Cr  Cr4  1  0.16513186  0.49305593  0.16181025  1
  Cr  Cr5  1  0.99712176  0.32912059  0.32952883  1
  Cr  Cr6  1  0.99677115  0.66413933  0.99783693  1
  Cr  Cr7  1  0.16538944  0.83539154  0.16482763  1
  Cr  Cr8  1  0.99678260  0.66405204  0.32928491  1
  Ni  Ni9  1  0.32832157  0.00237822  0.99745199  1
  Fe  Fe10  1  0.49573249  0.16537348  0.16406282  1
  Ni  Ni11  1  0.33170029  0.00248099  0.33394552  1
  Ni  Ni12  1  0.33035754  0.32556136  -0.00165837  1
  Cr  Cr13  1  0.49738890  0.49347620  0.16246193  1
  Fe  Fe14  1  0.33379295  0.32743418  0.33082576  1
  Cr  Cr15  1  0.33085105  0.66491349  0.99434100  1
  Cr  Cr16  1  0.49754096  0.83724512  0.16310019  1
  Cr  Cr17  1  0.33230743  0.66818688  0.33199160  1
  Fe  Fe18  1  0.66623846  0.00153911  0.99582042  1
  Cr  Cr19  1  0.82979581  0.16434936  0.16242631  1
  Fe  Fe20  1  0.66132384  0.00109162  0.33218296  1
  Ni  Ni21  1  0.66514047  0.32920506  0.99726545  1
  Ni  Ni22  1  0.82872418  0.49304334  0.16546902  1
  Ni  Ni23  1  0.66274057  0.32876315  0.33353846  1
  Cr  Cr24  1  0.66586780  0.66422478  0.99638236  1
  Cr  Cr25  1  0.83109461  0.83531915  0.16371541  1
  Cr  Cr26  1  0.66492375  0.66308891  0.33216458  1
  Fe  Fe27  1  0.16550731  0.16062501  0.49626475  1
  Fe  Fe28  1  0.00043255  -0.00168359  0.66744033  1
  Fe  Fe29  1  0.16357570  0.16403292  0.83491815  1
  Cr  Cr30  1  0.16662515  0.49778383  0.49648526  1
  Cr  Cr31  1  -0.00186137  0.32670756  0.66733963  1
  Ni  Ni32  1  0.16726284  0.49626593  0.83430007  1
  Ni  Ni33  1  0.16694709  0.83564192  0.49799714  1
  Cr  Cr34  1  -0.00121757  0.66601233  0.66633569  1
  Ni  Ni35  1  0.16291703  0.83475302  0.83064209  1
  Fe  Fe36  1  0.49597041  0.16417501  0.49693561  1
  Fe  Fe37  1  0.32833689  -0.00132198  0.66390223  1
  Cr  Cr38  1  0.49978858  0.16749051  0.83413171  1
  Fe  Fe39  1  0.49999620  0.49505996  0.49831313  1
  Cr  Cr40  1  0.33133733  0.32738984  0.66486391  1
  Ni  Ni41  1  0.49562551  0.49358702  0.83075019  1
  Fe  Fe42  1  0.49566892  0.83498040  0.49749645  1
  Cr  Cr43  1  0.33133385  0.66659698  0.66637164  1
  Cr  Cr44  1  0.49667139  0.83305951  0.83275518  1
  Cr  Cr45  1  0.82977216  0.16514478  0.49930485  1
  Cr  Cr46  1  0.66356926  -0.00041778  0.66680314  1
  Ni  Ni47  1  0.83216631  0.16289472  0.83231750  1
  Fe  Fe48  1  0.83016756  0.49635532  0.49792360  1
  Ni  Ni49  1  0.66374764  0.32997167  0.66305390  1
  Cr  Cr50  1  0.83022300  0.49301640  0.83069063  1
  Cr  Cr51  1  0.83394844  0.83462126  0.49719434  1
  Cr  Cr52  1  0.66369252  0.66345541  0.66434247  1
  Ni  Ni53  1  0.83500119  0.83734135  0.83229282  1
" 