4246,Ni30Fe44Cr25_15,-228.360591795953, 187.768693115794,Ni30Fe44Cr25,"# generated using pymatgen
 data_Cr15Fe23Ni16
_symmetry_space_group_name_H-M   'P 1'
_cell_length_a   7.45565200
_cell_length_b   7.45565200
_cell_length_c   10.54388418
_cell_angle_alpha   90.00000000
_cell_angle_beta   90.00000000
_cell_angle_gamma   90.00000000
_symmetry_Int_Tables_number   1
_chemical_formula_structural   Cr15Fe23Ni16
_chemical_formula_sum   'Cr15 Fe23 Ni16'
_cell_volume   586.10022039
_cell_formula_units_Z   1
loop_
 _symmetry_equiv_pos_site_id
 _symmetry_equiv_pos_as_xyz
  1  'x, y, z'
loop_
 _atom_site_type_symbol
 _atom_site_label
 _atom_site_symmetry_multiplicity
 _atom_site_fract_x
 _atom_site_fract_y
 _atom_site_fract_z
 _atom_site_occupancy
  Ni  Ni0  1  0.00347916  0.00361063  0.00145561  1
  Fe  Fe1  1  0.16615165  0.16552442  0.16441677  1
  Cr  Cr2  1  1.00040930  0.99997591  0.33388976  1
  Ni  Ni3  1  0.99913661  0.33194282  0.00097575  1
  Cr  Cr4  1  0.16616762  0.50090145  0.16697281  1
  Cr  Cr5  1  0.99981361  0.33470207  0.33432192  1
  Cr  Cr6  1  0.00100537  0.66721387  0.00198890  1
  Fe  Fe7  1  0.16884369  0.83548664  0.16675794  1
  Fe  Fe8  1  0.00091177  0.66724035  0.33474825  1
  Ni  Ni9  1  0.33203505  0.99919643  0.00089074  1
  Cr  Cr10  1  0.50046817  0.16500256  0.16758022  1
  Fe  Fe11  1  0.33479167  0.99969490  0.33413630  1
  Fe  Fe12  1  0.33278963  0.33283381  0.99889026  1
  Cr  Cr13  1  0.50124589  0.50292503  0.16525883  1
  Cr  Cr14  1  0.33448853  0.33357206  0.33581326  1
  Ni  Ni15  1  0.33573810  0.66944173  0.99974928  1
  Ni  Ni16  1  0.49897990  0.83446536  0.16674649  1
  Fe  Fe17  1  0.33261005  0.66903958  0.33413203  1
  Cr  Cr18  1  0.66715854  0.00115025  0.00195238  1
  Ni  Ni19  1  0.83604552  0.16738790  0.16499006  1
  Fe  Fe20  1  0.66743655  0.00159570  0.33410541  1
  Ni  Ni21  1  0.66948129  0.33564585  0.99986097  1
  Ni  Ni22  1  0.83522652  0.50036886  0.16528831  1
  Cr  Cr23  1  0.66799058  0.33346167  0.33593324  1
  Fe  Fe24  1  0.66615321  0.66619306  0.00096331  1
  Fe  Fe25  1  0.83366312  0.83421056  0.16713548  1
  Cr  Cr26  1  0.66841157  0.66772402  0.33269767  1
  Fe  Fe27  1  0.16878965  0.16817456  0.50294728  1
  Cr  Cr28  1  0.00282526  0.00292308  0.66738766  1
  Ni  Ni29  1  0.16799337  0.16790856  0.83541927  1
  Fe  Fe30  1  0.16788457  0.50035145  0.50132356  1
  Ni  Ni31  1  0.00082978  0.33452442  0.66678915  1
  Fe  Fe32  1  0.16814946  0.49896768  0.83452691  1
  Fe  Fe33  1  0.16826242  0.83376809  0.50032848  1
  Cr  Cr34  1  1.00066734  0.66542466  0.66521197  1
  Fe  Fe35  1  0.17092625  0.83580021  0.83520379  1
  Ni  Ni36  1  0.50023916  0.16765906  0.50155018  1
  Ni  Ni37  1  0.33395258  0.00175257  0.66758098  1
  Fe  Fe38  1  0.49887672  0.16809252  0.83401843  1
  Ni  Ni39  1  0.50020499  0.50033541  0.50304883  1
  Fe  Fe40  1  0.33412278  0.33358727  0.66687473  1
  Fe  Fe41  1  0.50075206  0.50085956  0.83409256  1
  Cr  Cr42  1  0.49956495  0.83465266  0.50099812  1
  Fe  Fe43  1  0.33500835  0.66699872  0.66820079  1
  Fe  Fe44  1  0.49740420  0.83334126  0.83440672  1
  Ni  Ni45  1  0.83383440  0.16881937  0.50227622  1
  Cr  Cr46  1  0.66579097  0.00175414  0.66607909  1
  Fe  Fe47  1  0.83585105  0.17086966  0.83531336  1
  Ni  Ni48  1  0.83488062  0.50018743  0.50262050  1
  Fe  Fe49  1  0.66779339  0.33537679  0.66655040  1
  Fe  Fe50  1  0.83339179  0.49749508  0.83406740  1
  Fe  Fe51  1  0.83350610  0.83320690  0.50062896  1
  Ni  Ni52  1  0.66570153  0.66420334  0.66786991  1
  Cr  Cr53  1  0.83343180  0.83372621  0.83430102  1
" 