6420,Ni30Fe41Cr28_7,-227.72979257997, 195.79666655476,Ni30Fe41Cr28,"# generated using pymatgen
 data_Cr8Fe11Ni8
_symmetry_space_group_name_H-M   'P 1'
_cell_length_a   7.45647634
_cell_length_b   7.45647634
_cell_length_c   10.54504996
_cell_angle_alpha   90.00000000
_cell_angle_beta   90.00000000
_cell_angle_gamma   90.00000000
_symmetry_Int_Tables_number   1
_chemical_formula_structural   Cr8Fe11Ni8
_chemical_formula_sum   'Cr16 Fe22 Ni16'
_cell_volume   586.29464760
_cell_formula_units_Z   2
loop_
 _symmetry_equiv_pos_site_id
 _symmetry_equiv_pos_as_xyz
  1  'x, y, z'
loop_
 _atom_site_type_symbol
 _atom_site_label
 _atom_site_symmetry_multiplicity
 _atom_site_fract_x
 _atom_site_fract_y
 _atom_site_fract_z
 _atom_site_occupancy
  Fe  Fe0  1  0.99684682  0.00208581  1.00063685  1
  Ni  Ni1  1  0.16652403  0.17089792  0.16876576  1
  Cr  Cr2  1  0.00313142  0.00343087  0.33167117  1
  Cr  Cr3  1  0.00169126  0.33049510  0.00083803  1
  Ni  Ni4  1  0.16751688  0.49852686  0.16532203  1
  Fe  Fe5  1  0.99819879  0.33568841  0.33158880  1
  Ni  Ni6  1  0.99700640  0.66516672  0.00105313  1
  Cr  Cr7  1  0.16527425  0.82989701  0.16386693  1
  Fe  Fe8  1  0.99855878  0.66487971  0.33256785  1
  Cr  Cr9  1  0.33154641  0.00455226  0.00244906  1
  Fe  Fe10  1  0.49947963  0.17024377  0.16934834  1
  Fe  Fe11  1  0.33561444  0.00262497  0.33322844  1
  Ni  Ni12  1  0.33347450  0.33536761  0.00203163  1
  Fe  Fe13  1  0.50003211  0.49802457  0.16787685  1
  Fe  Fe14  1  0.33425308  0.33287358  0.33160904  1
  Fe  Fe15  1  0.33555456  0.66121480  1.00049867  1
  Cr  Cr16  1  0.50401802  0.83414415  0.16562030  1
  Cr  Cr17  1  0.33497719  0.66663823  0.33471703  1
  Fe  Fe18  1  0.67109819  0.00099926  0.00127731  1
  Ni  Ni19  1  0.83106345  0.16756529  0.16736929  1
  Ni  Ni20  1  0.66772809  0.00273421  0.33150419  1
  Cr  Cr21  1  0.66790218  0.33595331  0.00165381  1
  Fe  Fe22  1  0.83578569  0.50181926  0.16886222  1
  Ni  Ni23  1  0.66776642  0.33545387  0.33274029  1
  Ni  Ni24  1  0.66820816  0.66713993  0.00151703  1
  Fe  Fe25  1  0.83495487  0.83404796  0.16565996  1
  Fe  Fe26  1  0.66891868  0.66517064  0.33332479  1
  Fe  Fe27  1  0.16771998  0.16885176  0.50115424  1
  Cr  Cr28  1  0.00242637  0.00137166  0.66994367  1
  Ni  Ni29  1  0.16778622  0.16935040  0.83276941  1
  Cr  Cr30  1  0.16367740  0.50121490  0.50129422  1
  Ni  Ni31  1  0.99965321  0.33402706  0.66850733  1
  Fe  Fe32  1  0.16471876  0.49747067  0.83488788  1
  Ni  Ni33  1  0.16968155  0.83399951  0.50015003  1
  Ni  Ni34  1  0.99992576  0.66577983  0.66688135  1
  Cr  Cr35  1  0.16481444  0.82888771  0.83891240  1
  Cr  Cr36  1  0.50105894  0.16783442  0.50118370  1
  Fe  Fe37  1  0.33280947  0.00079354  0.66770201  1
  Cr  Cr38  1  0.50260245  0.16970246  0.83281196  1
  Ni  Ni39  1  0.50122343  0.49820978  0.49945855  1
  Fe  Fe40  1  0.33179387  0.33581129  0.66887302  1
  Fe  Fe41  1  0.50086027  0.50172812  0.83556985  1
  Fe  Fe42  1  0.50180131  0.83416452  0.49811271  1
  Cr  Cr43  1  0.33636004  0.66948691  0.66937896  1
  Fe  Fe44  1  0.50364354  0.83582857  0.83773443  1
  Cr  Cr45  1  0.83229488  0.17085101  0.50282697  1
  Fe  Fe46  1  0.66846535  0.99829987  0.66891552  1
  Ni  Ni47  1  0.83317100  0.16654053  0.83234950  1
  Ni  Ni48  1  0.83254926  0.50021905  0.49931090  1
  Fe  Fe49  1  0.66937238  0.33742070  0.66803360  1
  Fe  Fe50  1  0.83637444  0.50139972  0.83274206  1
  Cr  Cr51  1  0.83667475  0.83235559  0.49741588  1
  Cr  Cr52  1  0.66713908  0.66651797  0.66556922  1
  Ni  Ni53  1  0.83255628  0.83252507  0.83819053  1
" 