960,Ni30Fe63Cr6_12,-234.213533283406, 201.581549894784,Ni30Fe63Cr6,"# generated using pymatgen
 data_Cr2Fe17Ni8
_symmetry_space_group_name_H-M   'P 1'
_cell_length_a   7.41203376
_cell_length_b   7.41203376
_cell_length_c   10.48219867
_cell_angle_alpha   90.00000000
_cell_angle_beta   90.00000000
_cell_angle_gamma   90.00000000
_symmetry_Int_Tables_number   1
_chemical_formula_structural   Cr2Fe17Ni8
_chemical_formula_sum   'Cr4 Fe34 Ni16'
_cell_volume   575.87359365
_cell_formula_units_Z   2
loop_
 _symmetry_equiv_pos_site_id
 _symmetry_equiv_pos_as_xyz
  1  'x, y, z'
loop_
 _atom_site_type_symbol
 _atom_site_label
 _atom_site_symmetry_multiplicity
 _atom_site_fract_x
 _atom_site_fract_y
 _atom_site_fract_z
 _atom_site_occupancy
  Fe  Fe0  1  0.00563681  1.00321777  1.00211108  1
  Fe  Fe1  1  0.16986810  0.16864116  0.16882152  1
  Fe  Fe2  1  0.00449621  1.00364276  0.33870202  1
  Fe  Fe3  1  0.00511448  0.33676818  1.00358626  1
  Ni  Ni4  1  0.16858817  0.50482536  0.17095505  1
  Fe  Fe5  1  1.00133906  0.33806806  0.33699116  1
  Ni  Ni6  1  0.00477737  0.66834074  1.00176147  1
  Ni  Ni7  1  0.16993748  0.83503734  0.17021084  1
  Ni  Ni8  1  1.00338110  0.66979669  0.33853248  1
  Ni  Ni9  1  0.33762919  0.00574116  0.00508755  1
  Ni  Ni10  1  0.50559224  0.16976789  0.17042914  1
  Fe  Fe11  1  0.33711868  1.00029009  0.33640069  1
  Fe  Fe12  1  0.33680915  0.33675456  0.00394984  1
  Fe  Fe13  1  0.50412875  0.50534061  0.17003948  1
  Cr  Cr14  1  0.33686558  0.33508525  0.33684979  1
  Ni  Ni15  1  0.33464713  0.66881389  0.00598422  1
  Fe  Fe16  1  0.50157064  0.83717918  0.16959546  1
  Fe  Fe17  1  0.33666043  0.67167106  0.33664450  1
  Ni  Ni18  1  0.67040734  0.00795872  1.00355748  1
  Fe  Fe19  1  0.83825556  0.17205197  0.17095989  1
  Fe  Fe20  1  0.66982866  0.00428156  0.33704385  1
  Fe  Fe21  1  0.66913631  0.33675462  1.00361665  1
  Fe  Fe22  1  0.83828783  0.50284653  0.17061873  1
  Fe  Fe23  1  0.67289514  0.33757515  0.33694007  1
  Fe  Fe24  1  0.66989720  0.66995359  0.00441783  1
  Cr  Cr25  1  0.83768533  0.83695887  0.16984061  1
  Ni  Ni26  1  0.67075838  0.66983640  0.33731108  1
  Fe  Fe27  1  0.16807374  0.16906538  0.50573090  1
  Ni  Ni28  1  1.00345897  1.00347021  0.67169493  1
  Ni  Ni29  1  0.17145705  0.17199284  0.83708903  1
  Fe  Fe30  1  0.16647051  0.50295655  0.50345328  1
  Fe  Fe31  1  0.00449303  0.33623889  0.67029249  1
  Ni  Ni32  1  0.16896284  0.50283331  0.83680728  1
  Fe  Fe33  1  0.16767644  0.83933678  0.50290446  1
  Ni  Ni34  1  1.00177240  0.67056569  0.67047914  1
  Fe  Fe35  1  0.16982270  0.83911247  0.83842683  1
  Fe  Fe36  1  0.50522001  0.16933786  0.50466224  1
  Ni  Ni37  1  0.33648222  0.00631066  0.66913336  1
  Ni  Ni38  1  0.50344188  0.17076946  0.83485625  1
  Fe  Fe39  1  0.50711087  0.50300999  0.50333389  1
  Fe  Fe40  1  0.33503946  0.33556330  0.67038477  1
  Fe  Fe41  1  0.50234853  0.50080959  0.83808996  1
  Fe  Fe42  1  0.50543409  0.83894107  0.50309588  1
  Cr  Cr43  1  0.33477607  0.67017961  0.66940913  1
  Cr  Cr44  1  0.50470603  0.83875023  0.83939806  1
  Ni  Ni45  1  0.83667211  0.17019529  0.50332635  1
  Fe  Fe46  1  0.67220031  0.00406930  0.67006259  1
  Fe  Fe47  1  0.83740168  0.17057196  0.83626225  1
  Fe  Fe48  1  0.83724818  0.50342665  0.50365511  1
  Fe  Fe49  1  0.67125602  0.33614534  0.66991577  1
  Fe  Fe50  1  0.83713975  0.50292566  0.83688968  1
  Fe  Fe51  1  0.83775940  0.83742110  0.50340036  1
  Fe  Fe52  1  0.67274600  0.67134324  0.66875845  1
  Fe  Fe53  1  0.83991771  0.83785871  0.83792912  1
" 