3942,Ni30Fe63Cr6_4,-234.42476814926, 202.094189258501,Ni30Fe63Cr6,"# generated using pymatgen
 data_Cr2Fe17Ni8
_symmetry_space_group_name_H-M   'P 1'
_cell_length_a   7.41221914
_cell_length_b   7.41221914
_cell_length_c   10.48246084
_cell_angle_alpha   90.00000000
_cell_angle_beta   90.00000000
_cell_angle_gamma   90.00000000
_symmetry_Int_Tables_number   1
_chemical_formula_structural   Cr2Fe17Ni8
_chemical_formula_sum   'Cr4 Fe34 Ni16'
_cell_volume   575.91680388
_cell_formula_units_Z   2
loop_
 _symmetry_equiv_pos_site_id
 _symmetry_equiv_pos_as_xyz
  1  'x, y, z'
loop_
 _atom_site_type_symbol
 _atom_site_label
 _atom_site_symmetry_multiplicity
 _atom_site_fract_x
 _atom_site_fract_y
 _atom_site_fract_z
 _atom_site_occupancy
  Fe  Fe0  1  0.00426133  0.00445856  0.00398058  1
  Fe  Fe1  1  0.16833349  0.17021099  0.16958527  1
  Ni  Ni2  1  1.00331937  1.00357216  0.33676702  1
  Ni  Ni3  1  1.00356083  0.33773702  1.00356130  1
  Ni  Ni4  1  0.17004574  0.50431917  0.16974144  1
  Fe  Fe5  1  0.00465808  0.33786870  0.33674823  1
  Ni  Ni6  1  1.00294489  0.67010690  1.00284086  1
  Fe  Fe7  1  0.16985693  0.83659368  0.17031712  1
  Ni  Ni8  1  1.00361393  0.67138135  0.33819077  1
  Ni  Ni9  1  0.33678169  1.00358521  1.00234694  1
  Cr  Cr10  1  0.50356252  0.17083330  0.16957484  1
  Fe  Fe11  1  0.33464177  1.00112199  0.33661177  1
  Ni  Ni12  1  0.33589508  0.33574438  1.00368062  1
  Fe  Fe13  1  0.50368365  0.50549579  0.17016092  1
  Fe  Fe14  1  0.33401791  0.33959614  0.33723240  1
  Fe  Fe15  1  0.33519118  0.66996044  0.00480881  1
  Fe  Fe16  1  0.50328305  0.83497679  0.17056295  1
  Ni  Ni17  1  0.33763777  0.67021318  0.33768352  1
  Fe  Fe18  1  0.67109030  0.00381651  1.00292160  1
  Fe  Fe19  1  0.83915735  0.17061370  0.17043455  1
  Fe  Fe20  1  0.67269358  1.00083413  0.33696203  1
  Ni  Ni21  1  0.67165335  0.33712008  1.00243722  1
  Fe  Fe22  1  0.83753979  0.50397615  0.16980795  1
  Fe  Fe23  1  0.67242380  0.33898753  0.33671072  1
  Fe  Fe24  1  0.67140196  0.67052118  0.00454591  1
  Ni  Ni25  1  0.83742399  0.83681147  0.17074578  1
  Fe  Fe26  1  0.67096354  0.67127758  0.33713721  1
  Fe  Fe27  1  0.16874789  0.17076143  0.50414701  1
  Fe  Fe28  1  0.00423922  0.00400671  0.67011535  1
  Ni  Ni29  1  0.17156593  0.17043837  0.83711234  1
  Ni  Ni30  1  0.16995903  0.50494745  0.50461288  1
  Fe  Fe31  1  0.00458231  0.33746402  0.67087802  1
  Ni  Ni32  1  0.16860755  0.50441848  0.83674856  1
  Fe  Fe33  1  0.17033010  0.83658867  0.50344771  1
  Fe  Fe34  1  0.00631402  0.66963071  0.67062157  1
  Ni  Ni35  1  0.16890891  0.83623769  0.83698886  1
  Cr  Cr36  1  0.50412212  0.17045532  0.50447181  1
  Fe  Fe37  1  0.33643731  1.00338938  0.67242610  1
  Ni  Ni38  1  0.50436800  0.16914814  0.83666144  1
  Fe  Fe39  1  0.50210605  0.50444111  0.50307446  1
  Ni  Ni40  1  0.33532846  0.33619220  0.67054704  1
  Cr  Cr41  1  0.50149415  0.50038550  0.83859307  1
  Fe  Fe42  1  0.50225179  0.83547962  0.50267093  1
  Fe  Fe43  1  0.33412869  0.67046194  0.66903174  1
  Fe  Fe44  1  0.50124525  0.84018573  0.83785224  1
  Fe  Fe45  1  0.83920582  0.17061733  0.50339453  1
  Fe  Fe46  1  0.67042792  0.00513333  0.67121381  1
  Fe  Fe47  1  0.83766239  0.17102215  0.83725910  1
  Fe  Fe48  1  0.83809557  0.50286112  0.50283502  1
  Fe  Fe49  1  0.67126541  0.33515027  0.67087708  1
  Fe  Fe50  1  0.84042944  0.50227305  0.83843891  1
  Fe  Fe51  1  0.83851134  0.83762007  0.50196332  1
  Cr  Cr52  1  0.67095325  0.67086787  0.66930236  1
  Fe  Fe53  1  0.83879524  0.83780829  0.83833645  1
" 