2939,Ni30Fe44Cr25_7,-228.638919628803, 196.959850512543,Ni30Fe44Cr25,"# generated using pymatgen
 data_Cr15Fe23Ni16
_symmetry_space_group_name_H-M   'P 1'
_cell_length_a   7.45087068
_cell_length_b   7.45087068
_cell_length_c   10.53712236
_cell_angle_alpha   90.00000000
_cell_angle_beta   90.00000000
_cell_angle_gamma   90.00000000
_symmetry_Int_Tables_number   1
_chemical_formula_structural   Cr15Fe23Ni16
_chemical_formula_sum   'Cr15 Fe23 Ni16'
_cell_volume   584.97334051
_cell_formula_units_Z   1
loop_
 _symmetry_equiv_pos_site_id
 _symmetry_equiv_pos_as_xyz
  1  'x, y, z'
loop_
 _atom_site_type_symbol
 _atom_site_label
 _atom_site_symmetry_multiplicity
 _atom_site_fract_x
 _atom_site_fract_y
 _atom_site_fract_z
 _atom_site_occupancy
  Fe  Fe0  1  0.99939130  0.00163061  0.00197003  1
  Fe  Fe1  1  0.16876759  0.16574968  0.16764109  1
  Cr  Cr2  1  0.99921521  1.00107659  0.33228173  1
  Cr  Cr3  1  0.00154525  0.33166662  1.00075408  1
  Cr  Cr4  1  0.16877445  0.50151451  0.16615558  1
  Fe  Fe5  1  0.00225112  0.33314245  0.33348450  1
  Fe  Fe6  1  0.00127566  0.66991949  1.00083323  1
  Fe  Fe7  1  0.16803189  0.83699717  0.16463377  1
  Cr  Cr8  1  0.00290826  0.66930163  0.33468973  1
  Ni  Ni9  1  0.33614949  1.00080435  0.00266083  1
  Ni  Ni10  1  0.50131545  0.16572574  0.16754535  1
  Fe  Fe11  1  0.33619370  0.00126830  0.33158158  1
  Fe  Fe12  1  0.33741382  0.33321233  1.00098121  1
  Fe  Fe13  1  0.50252969  0.49952044  0.16593602  1
  Ni  Ni14  1  0.33487735  0.33497755  0.33158886  1
  Ni  Ni15  1  0.33535556  0.66691248  1.00050802  1
  Fe  Fe16  1  0.50337120  0.83619699  0.16575902  1
  Cr  Cr17  1  0.33505336  0.66742551  0.33467145  1
  Ni  Ni18  1  0.66801071  0.00261879  0.99951088  1
  Ni  Ni19  1  0.83079498  0.16599241  0.16900405  1
  Ni  Ni20  1  0.66776769  1.00098008  0.33478097  1
  Ni  Ni21  1  0.66638870  0.33152791  0.00161262  1
  Cr  Cr22  1  0.83212205  0.50200551  0.16782047  1
  Fe  Fe23  1  0.66642653  0.33170887  0.33248671  1
  Fe  Fe24  1  0.66399242  0.66927211  1.00018988  1
  Ni  Ni25  1  0.83250072  0.83602118  0.16466495  1
  Fe  Fe26  1  0.66702411  0.67181655  0.33335608  1
  Cr  Cr27  1  0.16968004  0.16837628  0.50048080  1
  Cr  Cr28  1  0.99934910  1.00075817  0.66887861  1
  Fe  Fe29  1  0.17048212  0.16885226  0.83462508  1
  Ni  Ni30  1  0.16737660  0.50080358  0.50381884  1
  Fe  Fe31  1  1.00055477  0.33490124  0.66951240  1
  Ni  Ni32  1  0.16972377  0.50141695  0.83243727  1
  Fe  Fe33  1  0.16968259  0.83356519  0.50333288  1
  Ni  Ni34  1  0.00422128  0.66747282  0.66714697  1
  Cr  Cr35  1  0.16843635  0.83452441  0.83628518  1
  Cr  Cr36  1  0.50122515  0.16572640  0.50102700  1
  Fe  Fe37  1  0.33542234  0.99982821  0.66979490  1
  Fe  Fe38  1  0.50017027  0.16874858  0.83667584  1
  Cr  Cr39  1  0.50107869  0.49915365  0.50026925  1
  Fe  Fe40  1  0.33438420  0.33612538  0.66895614  1
  Ni  Ni41  1  0.49927384  0.50069618  0.83630603  1
  Fe  Fe42  1  0.49996821  0.83508178  0.50112762  1
  Fe  Fe43  1  0.33477376  0.66700190  0.66901309  1
  Ni  Ni44  1  0.49977999  0.83605822  0.83562082  1
  Fe  Fe45  1  0.83371359  0.16958592  0.50063873  1
  Cr  Cr46  1  0.66776617  0.00231721  0.66963326  1
  Ni  Ni47  1  0.83291156  0.16751259  0.83467041  1
  Cr  Cr48  1  0.83524700  0.49933634  0.50009554  1
  Ni  Ni49  1  0.66620826  0.33346229  0.66935666  1
  Cr  Cr50  1  0.83424011  0.50142177  0.83538921  1
  Fe  Fe51  1  0.83355039  0.83466277  0.50024703  1
  Cr  Cr52  1  0.66641092  0.66852608  0.66896922  1
  Fe  Fe53  1  0.83354160  0.83371893  0.83720946  1
" 