764,Ni30Fe29Cr40_13,-223.087344621529, 178.788759870728,Ni30Fe29Cr40,"# generated using pymatgen
 data_Cr23Fe15Ni16
_symmetry_space_group_name_H-M   'P 1'
_cell_length_a   7.48651059
_cell_length_b   7.48651059
_cell_length_c   10.58752481
_cell_angle_alpha   90.00000000
_cell_angle_beta   90.00000000
_cell_angle_gamma   90.00000000
_symmetry_Int_Tables_number   1
_chemical_formula_structural   Cr23Fe15Ni16
_chemical_formula_sum   'Cr23 Fe15 Ni16'
_cell_volume   593.40790484
_cell_formula_units_Z   1
loop_
 _symmetry_equiv_pos_site_id
 _symmetry_equiv_pos_as_xyz
  1  'x, y, z'
loop_
 _atom_site_type_symbol
 _atom_site_label
 _atom_site_symmetry_multiplicity
 _atom_site_fract_x
 _atom_site_fract_y
 _atom_site_fract_z
 _atom_site_occupancy
  Cr  Cr0  1  0.99626415  -0.00045695  0.99598451  1
  Ni  Ni1  1  0.16590077  0.16611542  0.16756689  1
  Ni  Ni2  1  -0.00065184  0.00104998  0.33250736  1
  Cr  Cr3  1  0.99676084  0.33156008  -0.00017560  1
  Ni  Ni4  1  0.16418991  0.49620212  0.16546212  1
  Ni  Ni5  1  -0.00087183  0.32935302  0.33159148  1
  Fe  Fe6  1  0.99539461  0.66441200  0.99780016  1
  Cr  Cr7  1  0.16361359  0.83274184  0.16548442  1
  Cr  Cr8  1  -0.00100205  0.66355057  0.33290552  1
  Cr  Cr9  1  0.33354958  -0.00014137  0.00202257  1
  Ni  Ni10  1  0.50053818  0.16264038  0.16544997  1
  Fe  Fe11  1  0.33123676  0.00091811  0.33283672  1
  Cr  Cr12  1  0.33303969  0.33125033  -0.00018374  1
  Cr  Cr13  1  0.49966509  0.49766365  0.16254241  1
  Cr  Cr14  1  0.33044471  0.32963241  0.33017931  1
  Cr  Cr15  1  0.33177125  0.66505795  -0.00082844  1
  Fe  Fe16  1  0.50018316  0.83482458  0.16604300  1
  Cr  Cr17  1  0.33294905  0.66829190  0.33288156  1
  Ni  Ni18  1  0.66667806  -0.00041580  -0.00071538  1
  Fe  Fe19  1  0.83179725  0.16466740  0.16653826  1
  Ni  Ni20  1  0.66281000  0.99776139  0.33092210  1
  Ni  Ni21  1  0.66648961  0.33104310  0.99773813  1
  Cr  Cr22  1  0.83293035  0.49883597  0.16647908  1
  Cr  Cr23  1  0.66731334  0.33023150  0.33192803  1
  Fe  Fe24  1  0.66765150  0.66542203  0.99681431  1
  Cr  Cr25  1  0.82974726  0.83404325  0.16483061  1
  Fe  Fe26  1  0.66581985  0.66691750  0.33336898  1
  Ni  Ni27  1  0.16527025  0.16343629  0.49972229  1
  Ni  Ni28  1  0.99815576  -0.00012398  0.66660920  1
  Fe  Fe29  1  0.16313864  0.16556458  0.82892142  1
  Cr  Cr30  1  0.16382791  0.49539999  0.49902353  1
  Ni  Ni31  1  0.99699160  0.33024292  0.66516919  1
  Cr  Cr32  1  0.16675399  0.49639101  0.83108369  1
  Ni  Ni33  1  0.16628362  0.83634013  0.49903579  1
  Cr  Cr34  1  0.99699288  0.66672264  0.66493755  1
  Cr  Cr35  1  0.16226156  0.83263802  0.83151388  1
  Fe  Fe36  1  0.49829174  0.16412770  0.49927657  1
  Cr  Cr37  1  0.33068128  0.99847812  0.66206992  1
  Cr  Cr38  1  0.50056612  0.16839477  0.83115119  1
  Cr  Cr39  1  0.50075318  0.49760253  0.50291779  1
  Ni  Ni40  1  0.33319193  0.33170366  0.66601085  1
  Fe  Fe41  1  0.50222622  0.49883319  0.83035598  1
  Fe  Fe42  1  0.49875752  0.83383330  0.49841908  1
  Fe  Fe43  1  0.33265506  0.66417172  0.66449151  1
  Cr  Cr44  1  0.50219594  0.83171033  0.83226286  1
  Cr  Cr45  1  0.83343451  0.16597674  0.49875989  1
  Fe  Fe46  1  0.66813401  0.00051468  0.66594200  1
  Fe  Fe47  1  0.83162639  0.16478206  0.82995436  1
  Ni  Ni48  1  0.83028223  0.49761709  0.49980113  1
  Ni  Ni49  1  0.66590047  0.33396559  0.66663890  1
  Fe  Fe50  1  0.82890537  0.49843874  0.83101850  1
  Cr  Cr51  1  0.83169037  0.83333053  0.49832916  1
  Fe  Fe52  1  0.66642339  0.66389791  0.66618928  1
  Ni  Ni53  1  0.83020223  0.83264438  0.83222717  1
" 