118,Ni30Fe44Cr24_3,-229.162429085497, 195.520100208506,Ni30Fe44Cr24,"# generated using pymatgen
 data_Cr7(Fe3Ni2)4
_symmetry_space_group_name_H-M   'P 1'
_cell_length_a   7.45117598
_cell_length_b   7.45117598
_cell_length_c   10.53755412
_cell_angle_alpha   90.00000000
_cell_angle_beta   90.00000000
_cell_angle_gamma   90.00000000
_symmetry_Int_Tables_number   1
_chemical_formula_structural   Cr7(Fe3Ni2)4
_chemical_formula_sum   'Cr14 Fe24 Ni16'
_cell_volume   585.04525220
_cell_formula_units_Z   2
loop_
 _symmetry_equiv_pos_site_id
 _symmetry_equiv_pos_as_xyz
  1  'x, y, z'
loop_
 _atom_site_type_symbol
 _atom_site_label
 _atom_site_symmetry_multiplicity
 _atom_site_fract_x
 _atom_site_fract_y
 _atom_site_fract_z
 _atom_site_occupancy
  Cr  Cr0  1  1.00063961  1.00060993  0.99999601  1
  Fe  Fe1  1  0.17082171  0.16712666  0.16814128  1
  Fe  Fe2  1  0.00346389  0.00154435  0.33583490  1
  Ni  Ni3  1  0.00172962  0.33651422  1.00070230  1
  Cr  Cr4  1  0.16595957  0.49909143  0.16620173  1
  Fe  Fe5  1  0.00463549  0.33115024  0.33495433  1
  Ni  Ni6  1  0.00246387  0.66693396  0.99882769  1
  Fe  Fe7  1  0.16912640  0.83525960  0.16747778  1
  Fe  Fe8  1  0.00162682  0.67031306  0.33542911  1
  Fe  Fe9  1  0.33605104  0.00119727  0.00224174  1
  Fe  Fe10  1  0.49847563  0.16549714  0.16650504  1
  Ni  Ni11  1  0.33306638  1.00105547  0.33213436  1
  Ni  Ni12  1  0.33526425  0.33451215  1.00100979  1
  Cr  Cr13  1  0.50051248  0.50152908  0.16675514  1
  Ni  Ni14  1  0.33330860  0.33144305  0.33500875  1
  Fe  Fe15  1  0.33359625  0.66901255  0.99953526  1
  Ni  Ni16  1  0.50040297  0.83856309  0.16678205  1
  Cr  Cr17  1  0.33569699  0.66975909  0.33570221  1
  Ni  Ni18  1  0.66466672  1.00096738  1.00049167  1
  Cr  Cr19  1  0.83425973  0.16774978  0.16715709  1
  Fe  Fe20  1  0.66506236  0.99867951  0.33526548  1
  Fe  Fe21  1  0.66813082  0.33343800  0.99794194  1
  Cr  Cr22  1  0.83699124  0.50269068  0.16701590  1
  Cr  Cr23  1  0.66704076  0.33384891  0.33483515  1
  Fe  Fe24  1  0.66779951  0.66835442  0.99885875  1
  Cr  Cr25  1  0.83191540  0.83285393  0.16925360  1
  Fe  Fe26  1  0.66582666  0.67141823  0.33618929  1
  Fe  Fe27  1  0.16626352  0.16512502  0.50088213  1
  Fe  Fe28  1  0.99875296  1.00014549  0.66678062  1
  Cr  Cr29  1  0.17005479  0.16981150  0.83244598  1
  Cr  Cr30  1  0.16712975  0.49804663  0.50207674  1
  Ni  Ni31  1  0.99938746  0.33347916  0.66815069  1
  Ni  Ni32  1  0.16489637  0.50136530  0.83557532  1
  Fe  Fe33  1  0.16633077  0.83727033  0.50119735  1
  Ni  Ni34  1  0.00202287  0.66893240  0.66935244  1
  Fe  Fe35  1  0.16724076  0.83213371  0.83440142  1
  Cr  Cr36  1  0.49887477  0.16594402  0.50238836  1
  Fe  Fe37  1  0.33532893  1.00105483  0.66723375  1
  Ni  Ni38  1  0.50216558  0.16576412  0.83554025  1
  Fe  Fe39  1  0.50173192  0.50143295  0.50087314  1
  Fe  Fe40  1  0.33563654  0.33423281  0.66924464  1
  Fe  Fe41  1  0.50070133  0.49782182  0.83598563  1
  Ni  Ni42  1  0.50289546  0.83782677  0.50005304  1
  Cr  Cr43  1  0.33348757  0.66811596  0.66815701  1
  Fe  Fe44  1  0.50144760  0.83627280  0.83571428  1
  Fe  Fe45  1  0.83568092  0.16503738  0.50253301  1
  Ni  Ni46  1  0.66884313  0.00275724  0.66781410  1
  Fe  Fe47  1  0.83217436  0.16992376  0.83389064  1
  Cr  Cr48  1  0.83613210  0.50258930  0.49952357  1
  Ni  Ni49  1  0.66868217  0.33158770  0.67032850  1
  Ni  Ni50  1  0.83730089  0.50155003  0.83614907  1
  Ni  Ni51  1  0.83403171  0.83617202  0.49996795  1
  Cr  Cr52  1  0.66739137  0.66783664  0.66704492  1
  Fe  Fe53  1  0.83439187  0.83416941  0.83395939  1
" 