2210,Ni30Fe44Cr25_3,-228.27681649319, 191.940459195878,Ni30Fe44Cr25,"# generated using pymatgen
 data_Cr15Fe23Ni16
_symmetry_space_group_name_H-M   'P 1'
_cell_length_a   7.45240992
_cell_length_b   7.45240992
_cell_length_c   10.53929919
_cell_angle_alpha   90.00000000
_cell_angle_beta   90.00000000
_cell_angle_gamma   90.00000000
_symmetry_Int_Tables_number   1
_chemical_formula_structural   Cr15Fe23Ni16
_chemical_formula_sum   'Cr15 Fe23 Ni16'
_cell_volume   585.33595786
_cell_formula_units_Z   1
loop_
 _symmetry_equiv_pos_site_id
 _symmetry_equiv_pos_as_xyz
  1  'x, y, z'
loop_
 _atom_site_type_symbol
 _atom_site_label
 _atom_site_symmetry_multiplicity
 _atom_site_fract_x
 _atom_site_fract_y
 _atom_site_fract_z
 _atom_site_occupancy
  Ni  Ni0  1  0.00115063  0.00303774  0.00301832  1
  Ni  Ni1  1  0.16741998  0.16707151  0.16881697  1
  Ni  Ni2  1  0.99866781  0.00187144  0.33242179  1
  Fe  Fe3  1  1.00070845  0.33235615  1.00020769  1
  Cr  Cr4  1  0.16836393  0.49854650  0.16837998  1
  Fe  Fe5  1  1.00096590  0.33077085  0.33448351  1
  Fe  Fe6  1  0.00346754  0.67135036  0.00156128  1
  Fe  Fe7  1  0.16474963  0.83585482  0.16881587  1
  Ni  Ni8  1  0.00185253  0.66912648  0.33513511  1
  Cr  Cr9  1  0.33172863  0.99736005  0.00162126  1
  Cr  Cr10  1  0.49788318  0.16868062  0.16810605  1
  Ni  Ni11  1  0.33484158  1.00046096  0.33421062  1
  Fe  Fe12  1  0.33465339  0.33510494  0.99941738  1
  Fe  Fe13  1  0.50034170  0.50019223  0.16800633  1
  Fe  Fe14  1  0.33386517  0.33175521  0.33616589  1
  Ni  Ni15  1  0.33305502  0.66505353  0.99998123  1
  Fe  Fe16  1  0.50118112  0.83448412  0.16949645  1
  Cr  Cr17  1  0.33533608  0.66697654  0.33557854  1
  Cr  Cr18  1  0.67112335  0.00286419  0.00229831  1
  Ni  Ni19  1  0.83680297  0.16618093  0.16632071  1
  Ni  Ni20  1  0.66958327  0.00165366  0.33503278  1
  Fe  Fe21  1  0.66789631  0.33352176  1.00009524  1
  Cr  Cr22  1  0.83440713  0.50344305  0.16790314  1
  Cr  Cr23  1  0.66941364  0.33148783  0.33616880  1
  Cr  Cr24  1  0.66458449  0.66757913  0.00304281  1
  Ni  Ni25  1  0.83559224  0.83457027  0.17025398  1
  Fe  Fe26  1  0.66836394  0.67212909  0.33500012  1
  Cr  Cr27  1  0.16934180  0.16683639  0.49912296  1
  Fe  Fe28  1  0.99884159  0.00302514  0.66706595  1
  Cr  Cr29  1  0.16972545  0.16683900  0.83339734  1
  Fe  Fe30  1  0.16687272  0.49920161  0.50080830  1
  Ni  Ni31  1  1.00092280  0.33376421  0.66692688  1
  Fe  Fe32  1  0.16602541  0.50119992  0.83487441  1
  Cr  Cr33  1  0.16415386  0.83627915  0.50268538  1
  Fe  Fe34  1  0.00099974  0.66581826  0.66739474  1
  Fe  Fe35  1  0.16731129  0.83281446  0.83472749  1
  Ni  Ni36  1  0.50031130  0.16797167  0.50348227  1
  Fe  Fe37  1  0.33743773  0.00309484  0.66769063  1
  Fe  Fe38  1  0.50317213  0.16846774  0.83167541  1
  Ni  Ni39  1  0.49988717  0.49841645  0.49975801  1
  Ni  Ni40  1  0.33317923  0.33626952  0.66650071  1
  Fe  Fe41  1  0.49996352  0.49818353  0.83410577  1
  Fe  Fe42  1  0.50304469  0.83883199  0.49966745  1
  Cr  Cr43  1  0.33339280  0.66681100  0.66747251  1
  Fe  Fe44  1  0.49990017  0.83610829  0.83377035  1
  Ni  Ni45  1  0.83382109  0.16458593  0.50310722  1
  Ni  Ni46  1  0.66860569  0.00327608  0.66620771  1
  Fe  Fe47  1  0.83451497  0.16936937  0.83299881  1
  Cr  Cr48  1  0.83527044  0.50353784  0.50042962  1
  Fe  Fe49  1  0.66636898  0.33275422  0.66684306  1
  Fe  Fe50  1  0.83587297  0.49775008  0.83399930  1
  Ni  Ni51  1  0.83434244  0.83604735  0.49955632  1
  Cr  Cr52  1  0.66575251  0.66917408  0.66425872  1
  Cr  Cr53  1  0.83600007  0.83312008  0.83296471  1
" 