7222,Ni30Fe44Cr24_12,-228.92266857676, 191.099795949939,Ni30Fe44Cr24,"# generated using pymatgen
 data_Cr7(Fe3Ni2)4
_symmetry_space_group_name_H-M   'P 1'
_cell_length_a   7.45326765
_cell_length_b   7.45326765
_cell_length_c   10.54051219
_cell_angle_alpha   90.00000000
_cell_angle_beta   90.00000000
_cell_angle_gamma   90.00000000
_symmetry_Int_Tables_number   1
_chemical_formula_structural   Cr7(Fe3Ni2)4
_chemical_formula_sum   'Cr14 Fe24 Ni16'
_cell_volume   585.53808612
_cell_formula_units_Z   2
loop_
 _symmetry_equiv_pos_site_id
 _symmetry_equiv_pos_as_xyz
  1  'x, y, z'
loop_
 _atom_site_type_symbol
 _atom_site_label
 _atom_site_symmetry_multiplicity
 _atom_site_fract_x
 _atom_site_fract_y
 _atom_site_fract_z
 _atom_site_occupancy
  Fe  Fe0  1  0.00232398  0.99801027  0.99986883  1
  Cr  Cr1  1  0.16845232  0.16418320  0.16834565  1
  Fe  Fe2  1  0.00258214  0.99951021  0.33642286  1
  Cr  Cr3  1  0.00232909  0.33985342  0.99902359  1
  Ni  Ni4  1  0.16856258  0.50387259  0.16745430  1
  Cr  Cr5  1  0.00212363  0.33540479  0.33391567  1
  Ni  Ni6  1  0.99975217  0.66795344  1.00076839  1
  Fe  Fe7  1  0.16863923  0.83243431  0.16583851  1
  Cr  Cr8  1  0.99961365  0.66819980  0.33274167  1
  Ni  Ni9  1  0.33611860  0.99923049  0.00187163  1
  Fe  Fe10  1  0.50074448  0.16675636  0.16762133  1
  Ni  Ni11  1  0.33580859  1.00024636  0.33444548  1
  Cr  Cr12  1  0.33297249  0.33393054  0.99995081  1
  Cr  Cr13  1  0.50127874  0.50206166  0.16903157  1
  Fe  Fe14  1  0.33631375  0.33283126  0.33543894  1
  Fe  Fe15  1  0.33189239  0.66865848  1.00062992  1
  Fe  Fe16  1  0.49965507  0.83488038  0.16658841  1
  Fe  Fe17  1  0.33545813  0.67013195  0.33454930  1
  Ni  Ni18  1  0.66589700  0.99748262  0.00172952  1
  Cr  Cr19  1  0.83287912  0.16673109  0.16630778  1
  Cr  Cr20  1  0.66574324  0.99913934  0.33592275  1
  Fe  Fe21  1  0.66775851  0.33634839  1.00004516  1
  Ni  Ni22  1  0.83264778  0.50246131  0.16685895  1
  Fe  Fe23  1  0.66534417  0.33403860  0.33565566  1
  Fe  Fe24  1  0.66897203  0.66723546  0.99966722  1
  Fe  Fe25  1  0.83402768  0.83221639  0.16495306  1
  Fe  Fe26  1  0.66564231  0.66798759  0.33499941  1
  Fe  Fe27  1  0.16961710  0.16686733  0.50157224  1
  Fe  Fe28  1  0.00166202  1.00051762  0.66724330  1
  Fe  Fe29  1  0.16794033  0.16528187  0.83276622  1
  Cr  Cr30  1  0.16998055  0.50263300  0.50224173  1
  Ni  Ni31  1  0.00260384  0.33524233  0.66897436  1
  Fe  Fe32  1  0.16749822  0.50418509  0.83219421  1
  Fe  Fe33  1  0.16936640  0.83582284  0.50233170  1
  Ni  Ni34  1  0.00114221  0.66854796  0.66964661  1
  Ni  Ni35  1  0.16669117  0.83429056  0.83460732  1
  Ni  Ni36  1  0.50013801  0.16761377  0.50093871  1
  Fe  Fe37  1  0.33258295  0.00166550  0.66645086  1
  Cr  Cr38  1  0.50142763  0.16777423  0.83508177  1
  Ni  Ni39  1  0.49996495  0.49987726  0.50025214  1
  Ni  Ni40  1  0.33447340  0.33255927  0.66735953  1
  Ni  Ni41  1  0.50063735  0.50082277  0.83267179  1
  Fe  Fe42  1  0.49824442  0.83316756  0.50129894  1
  Fe  Fe43  1  0.33337238  0.66521397  0.66833936  1
  Cr  Cr44  1  0.49911083  0.83384562  0.83390641  1
  Fe  Fe45  1  0.83375135  0.16779538  0.50324041  1
  Fe  Fe46  1  0.66864827  0.00242721  0.66609802  1
  Cr  Cr47  1  0.83441030  0.16691653  0.83333105  1
  Cr  Cr48  1  0.83271055  0.50008515  0.50153551  1
  Ni  Ni49  1  0.66576864  0.33433467  0.66701960  1
  Ni  Ni50  1  0.83373087  0.50195908  0.83411153  1
  Fe  Fe51  1  0.83516982  0.83547075  0.50274785  1
  Cr  Cr52  1  0.66864407  0.66928460  0.66790154  1
  Ni  Ni53  1  0.83709840  0.83392669  0.83540983  1
" 