6586,Ni30Fe63Cr6_18,-234.316717546094, 201.586588199945,Ni30Fe63Cr6,"# generated using pymatgen
 data_Cr2Fe17Ni8
_symmetry_space_group_name_H-M   'P 1'
_cell_length_a   7.41313677
_cell_length_b   7.41313677
_cell_length_c   10.48375856
_cell_angle_alpha   90.00000000
_cell_angle_beta   90.00000000
_cell_angle_gamma   90.00000000
_symmetry_Int_Tables_number   1
_chemical_formula_structural   Cr2Fe17Ni8
_chemical_formula_sum   'Cr4 Fe34 Ni16'
_cell_volume   576.13072433
_cell_formula_units_Z   2
loop_
 _symmetry_equiv_pos_site_id
 _symmetry_equiv_pos_as_xyz
  1  'x, y, z'
loop_
 _atom_site_type_symbol
 _atom_site_label
 _atom_site_symmetry_multiplicity
 _atom_site_fract_x
 _atom_site_fract_y
 _atom_site_fract_z
 _atom_site_occupancy
  Ni  Ni0  1  1.00305029  0.00483783  1.00212663  1
  Fe  Fe1  1  0.16907614  0.17031109  0.16975209  1
  Ni  Ni2  1  1.00209390  0.00473936  0.33749803  1
  Fe  Fe3  1  0.00383979  0.33488076  0.00456810  1
  Fe  Fe4  1  0.17060738  0.50389215  0.17086369  1
  Fe  Fe5  1  0.00469518  0.33649251  0.33681472  1
  Fe  Fe6  1  0.00454812  0.67150470  1.00275029  1
  Fe  Fe7  1  0.17079741  0.83670733  0.16938730  1
  Fe  Fe8  1  0.00539721  0.66954492  0.33816924  1
  Fe  Fe9  1  0.33606168  1.00271039  0.00437881  1
  Fe  Fe10  1  0.50518896  0.17048805  0.16982715  1
  Cr  Cr11  1  0.33631120  1.00357684  0.33627147  1
  Fe  Fe12  1  0.33622081  0.33674372  0.00433904  1
  Fe  Fe13  1  0.50378457  0.50383687  0.17025212  1
  Ni  Ni14  1  0.33793887  0.33947655  0.33706796  1
  Fe  Fe15  1  0.33733256  0.67145523  1.00353971  1
  Ni  Ni16  1  0.50304498  0.83597751  0.16932302  1
  Ni  Ni17  1  0.33765341  0.66781727  0.33654883  1
  Ni  Ni18  1  0.67157864  0.00401578  1.00351931  1
  Ni  Ni19  1  0.83720660  0.17161592  0.17040711  1
  Fe  Fe20  1  0.67022106  0.00453310  0.33697800  1
  Fe  Fe21  1  0.67084604  0.33615144  0.00514994  1
  Fe  Fe22  1  0.83651828  0.50211586  0.17017692  1
  Fe  Fe23  1  0.66976985  0.33647277  0.33700464  1
  Fe  Fe24  1  0.66902735  0.67134621  1.00345437  1
  Cr  Cr25  1  0.83698476  0.83735289  0.17072598  1
  Fe  Fe26  1  0.66872118  0.66990499  0.33743644  1
  Ni  Ni27  1  0.17059627  0.17114942  0.50405443  1
  Ni  Ni28  1  1.00284208  0.00383471  0.67129003  1
  Ni  Ni29  1  0.16949404  0.16930103  0.83690357  1
  Fe  Fe30  1  0.17125665  0.50318752  0.50344606  1
  Fe  Fe31  1  0.00520284  0.33634599  0.66952832  1
  Fe  Fe32  1  0.17208614  0.50439848  0.83659876  1
  Fe  Fe33  1  0.16970885  0.83683739  0.50502022  1
  Ni  Ni34  1  0.00505634  0.67176059  0.66991283  1
  Ni  Ni35  1  0.16877862  0.83770676  0.83720659  1
  Ni  Ni36  1  0.50314486  0.17149106  0.50328824  1
  Fe  Fe37  1  0.33489566  1.00249506  0.66930760  1
  Cr  Cr38  1  0.50227001  0.17081346  0.83710983  1
  Fe  Fe39  1  0.50252981  0.50281506  0.50390412  1
  Fe  Fe40  1  0.33537774  0.33764637  0.66910739  1
  Ni  Ni41  1  0.50271898  0.50477126  0.83669167  1
  Fe  Fe42  1  0.50357573  0.83670702  0.50373249  1
  Ni  Ni43  1  0.33726742  0.66916475  0.67095559  1
  Fe  Fe44  1  0.50339421  0.83518987  0.83757563  1
  Fe  Fe45  1  0.83725095  0.16983897  0.50305907  1
  Fe  Fe46  1  0.67141394  1.00192205  0.66988868  1
  Fe  Fe47  1  0.83903781  0.16771314  0.83785086  1
  Fe  Fe48  1  0.83712675  0.50291421  0.50401648  1
  Fe  Fe49  1  0.67032673  0.33761209  0.66875448  1
  Cr  Cr50  1  0.83648019  0.50543683  0.83766314  1
  Fe  Fe51  1  0.83762365  0.83815800  0.50418055  1
  Fe  Fe52  1  0.67011566  0.67137918  0.67001957  1
  Ni  Ni53  1  0.83826495  0.83726084  0.83695602  1
" 