3122,Ni30Fe24Cr45_16,-221.724727555351, 175.314069965389,Ni30Fe24Cr45,"# generated using pymatgen
 data_Cr25Fe13Ni16
_symmetry_space_group_name_H-M   'P 1'
_cell_length_a   7.49360689
_cell_length_b   7.49360689
_cell_length_c   10.59756049
_cell_angle_alpha   90.00000000
_cell_angle_beta   90.00000000
_cell_angle_gamma   90.00000000
_symmetry_Int_Tables_number   1
_chemical_formula_structural   Cr25Fe13Ni16
_chemical_formula_sum   'Cr25 Fe13 Ni16'
_cell_volume   595.09693998
_cell_formula_units_Z   1
loop_
 _symmetry_equiv_pos_site_id
 _symmetry_equiv_pos_as_xyz
  1  'x, y, z'
loop_
 _atom_site_type_symbol
 _atom_site_label
 _atom_site_symmetry_multiplicity
 _atom_site_fract_x
 _atom_site_fract_y
 _atom_site_fract_z
 _atom_site_occupancy
  Ni  Ni0  1  0.99816070  -0.00060038  -0.00084435  1
  Ni  Ni1  1  0.16487273  0.16582956  0.16410378  1
  Cr  Cr2  1  0.99664612  0.99735240  0.33134224  1
  Ni  Ni3  1  0.99452361  0.33255040  -0.00154911  1
  Ni  Ni4  1  0.15947448  0.49573682  0.16391905  1
  Cr  Cr5  1  -0.00173320  0.33243277  0.32842631  1
  Ni  Ni6  1  0.99691170  0.66278738  0.99793515  1
  Cr  Cr7  1  0.16199463  0.83292883  0.16110145  1
  Ni  Ni8  1  0.99506856  0.66548965  0.33152200  1
  Ni  Ni9  1  0.33109644  -0.00134492  0.99616038  1
  Ni  Ni10  1  0.49664447  0.16385101  0.16388513  1
  Cr  Cr11  1  0.32950371  -0.00078198  0.33108318  1
  Cr  Cr12  1  0.33228921  0.33249913  0.00091533  1
  Cr  Cr13  1  0.50041706  0.49834389  0.16659109  1
  Ni  Ni14  1  0.32999662  0.32960981  0.33027096  1
  Cr  Cr15  1  0.33005851  0.66567221  0.99720747  1
  Cr  Cr16  1  0.50162967  0.83279452  0.16408586  1
  Cr  Cr17  1  0.32754994  0.66284412  0.32981685  1
  Cr  Cr18  1  0.66521065  0.00133125  -0.00164343  1
  Fe  Fe19  1  0.83294938  0.16620034  0.16204367  1
  Fe  Fe20  1  0.66668205  0.99759009  0.32974587  1
  Ni  Ni21  1  0.66888644  0.33220652  -0.00170352  1
  Ni  Ni22  1  0.83387864  0.50111894  0.16253731  1
  Cr  Cr23  1  0.66671580  0.33057409  0.32818135  1
  Fe  Fe24  1  0.66817382  0.66290181  0.99810961  1
  Fe  Fe25  1  0.83299769  0.82943694  0.16426000  1
  Ni  Ni26  1  0.67021845  0.66596824  0.33031573  1
  Fe  Fe27  1  0.16459584  0.16555968  0.49813561  1
  Cr  Cr28  1  -0.00159295  0.99678183  0.66335390  1
  Cr  Cr29  1  0.16306220  0.16555548  0.83310773  1
  Cr  Cr30  1  0.16326704  0.49502219  0.49906786  1
  Fe  Fe31  1  -0.00115976  0.33382754  0.66801833  1
  Fe  Fe32  1  0.16089997  0.49918042  0.83292397  1
  Fe  Fe33  1  0.16235680  0.82944338  0.49761619  1
  Fe  Fe34  1  0.99607134  0.66509263  0.66614084  1
  Fe  Fe35  1  0.16261414  0.83083868  0.83457572  1
  Cr  Cr36  1  0.49608646  0.16615454  0.49775224  1
  Cr  Cr37  1  0.33064706  0.99585091  0.66670722  1
  Fe  Fe38  1  0.49909789  0.16482727  0.83403443  1
  Cr  Cr39  1  0.49896916  0.49801653  0.49661864  1
  Fe  Fe40  1  0.33067961  0.33124880  0.66579825  1
  Cr  Cr41  1  0.50135884  0.49928617  0.83199213  1
  Cr  Cr42  1  0.50299717  0.83023035  0.49635484  1
  Cr  Cr43  1  0.32949573  0.66590045  0.66715232  1
  Ni  Ni44  1  0.49876233  0.83244312  0.83261501  1
  Cr  Cr45  1  0.83292987  0.16434861  0.49895202  1
  Cr  Cr46  1  0.66573681  0.99766496  0.66569358  1
  Fe  Fe47  1  0.83263253  0.16640513  0.83374216  1
  Cr  Cr48  1  0.83186510  0.50127048  0.49977921  1
  Cr  Cr49  1  0.66712617  0.33172618  0.66833980  1
  Ni  Ni50  1  0.83443598  0.49818359  0.83195218  1
  Ni  Ni51  1  0.83275507  0.82970781  0.49671916  1
  Ni  Ni52  1  0.66592689  0.66494552  0.66600771  1
  Cr  Cr53  1  0.83186984  0.82946934  0.83333462  1
" 