6261,Ni30Fe44Cr25_9,-228.71947241234, 187.974961225073,Ni30Fe44Cr25,"# generated using pymatgen
 data_Cr15Fe23Ni16
_symmetry_space_group_name_H-M   'P 1'
_cell_length_a   7.46426236
_cell_length_b   7.46426236
_cell_length_c   10.55606106
_cell_angle_alpha   90.00000000
_cell_angle_beta   90.00000000
_cell_angle_gamma   90.00000000
_symmetry_Int_Tables_number   1
_chemical_formula_structural   Cr15Fe23Ni16
_chemical_formula_sum   'Cr15 Fe23 Ni16'
_cell_volume   588.13318551
_cell_formula_units_Z   1
loop_
 _symmetry_equiv_pos_site_id
 _symmetry_equiv_pos_as_xyz
  1  'x, y, z'
loop_
 _atom_site_type_symbol
 _atom_site_label
 _atom_site_symmetry_multiplicity
 _atom_site_fract_x
 _atom_site_fract_y
 _atom_site_fract_z
 _atom_site_occupancy
  Ni  Ni0  1  0.99800950  0.00102288  0.00197929  1
  Cr  Cr1  1  0.16705207  0.16507133  0.16881241  1
  Cr  Cr2  1  0.99650762  0.99841067  0.33206254  1
  Ni  Ni3  1  0.99908893  0.33263533  0.99999686  1
  Fe  Fe4  1  0.16921745  0.49826575  0.16835400  1
  Fe  Fe5  1  0.99665351  0.33507609  0.33124840  1
  Cr  Cr6  1  0.99920570  0.66499577  0.00265605  1
  Fe  Fe7  1  0.17024985  0.83213232  0.16664396  1
  Cr  Cr8  1  0.99932822  0.66697280  0.33213318  1
  Fe  Fe9  1  0.33310958  0.00043057  0.00036605  1
  Ni  Ni10  1  0.50006015  0.16691944  0.16751506  1
  Fe  Fe11  1  0.33775698  0.99891823  0.33379921  1
  Cr  Cr12  1  0.33502111  0.33412791  0.99942513  1
  Ni  Ni13  1  0.50325093  0.50071942  0.16820585  1
  Ni  Ni14  1  0.33777602  0.33432711  0.33177546  1
  Fe  Fe15  1  0.33407363  0.66840903  0.00333643  1
  Fe  Fe16  1  0.50119557  0.83348873  0.16858661  1
  Ni  Ni17  1  0.33406987  0.66711759  0.33319451  1
  Fe  Fe18  1  0.66634713  0.00240381  0.00279416  1
  Fe  Fe19  1  0.82985397  0.16930575  0.16637573  1
  Ni  Ni20  1  0.66500719  0.00247645  0.33422236  1
  Fe  Fe21  1  0.67048352  0.33327263  0.00277735  1
  Ni  Ni22  1  0.83035336  0.50057732  0.16730047  1
  Ni  Ni23  1  0.66592881  0.33160181  0.33297875  1
  Fe  Fe24  1  0.66703495  0.66555644  0.00200461  1
  Fe  Fe25  1  0.82845245  0.83536905  0.16588763  1
  Fe  Fe26  1  0.66579725  0.66706945  0.33235204  1
  Cr  Cr27  1  0.16672065  0.16645465  0.49562982  1
  Ni  Ni28  1  0.99895570  0.00187056  0.66656559  1
  Ni  Ni29  1  0.16519205  0.16589680  0.83524350  1
  Cr  Cr30  1  0.16584606  0.49928990  0.50031256  1
  Fe  Fe31  1  0.99781002  0.33182720  0.66905373  1
  Fe  Fe32  1  0.16329574  0.49920444  0.83311868  1
  Ni  Ni33  1  0.16784517  0.83463147  0.50030735  1
  Fe  Fe34  1  0.00110573  0.66560311  0.66671479  1
  Cr  Cr35  1  0.16662267  0.83588381  0.83294241  1
  Ni  Ni36  1  0.50185002  0.16604597  0.49801663  1
  Cr  Cr37  1  0.33522760  0.00180179  0.66477208  1
  Fe  Fe38  1  0.50358963  0.16430893  0.83504502  1
  Cr  Cr39  1  0.50258185  0.49872295  0.49652549  1
  Cr  Cr40  1  0.33565364  0.33284921  0.66888732  1
  Cr  Cr41  1  0.50321130  0.50154683  0.83469195  1
  Ni  Ni42  1  0.49969305  0.83525127  0.49809443  1
  Fe  Fe43  1  0.33292582  0.66907602  0.66493408  1
  Fe  Fe44  1  0.50063416  0.83509753  0.83455393  1
  Fe  Fe45  1  0.83117588  0.16794100  0.49996313  1
  Fe  Fe46  1  0.66665844  0.00356524  0.66519909  1
  Fe  Fe47  1  0.83509991  0.16776371  0.83449903  1
  Ni  Ni48  1  0.83303335  0.49711083  0.49984362  1
  Fe  Fe49  1  0.66998790  0.32982379  0.66563228  1
  Ni  Ni50  1  0.83245901  0.49795767  0.83329991  1
  Cr  Cr51  1  0.83320690  0.83304351  0.50099877  1
  Cr  Cr52  1  0.66661912  0.66668686  0.66437789  1
  Cr  Cr53  1  0.83218823  0.83414618  0.83406774  1
" 