3919,Ni30Fe29Cr40_2,-223.206291845015, 177.440275312795,Ni30Fe29Cr40,"# generated using pymatgen
 data_Cr23Fe15Ni16
_symmetry_space_group_name_H-M   'P 1'
_cell_length_a   7.49159925
_cell_length_b   7.49159925
_cell_length_c   10.59472126
_cell_angle_alpha   90.00000000
_cell_angle_beta   90.00000000
_cell_angle_gamma   90.00000000
_symmetry_Int_Tables_number   1
_chemical_formula_structural   Cr23Fe15Ni16
_chemical_formula_sum   'Cr23 Fe15 Ni16'
_cell_volume   594.61876494
_cell_formula_units_Z   1
loop_
 _symmetry_equiv_pos_site_id
 _symmetry_equiv_pos_as_xyz
  1  'x, y, z'
loop_
 _atom_site_type_symbol
 _atom_site_label
 _atom_site_symmetry_multiplicity
 _atom_site_fract_x
 _atom_site_fract_y
 _atom_site_fract_z
 _atom_site_occupancy
  Fe  Fe0  1  0.99644412  0.99669938  0.00025570  1
  Ni  Ni1  1  0.16695868  0.16529889  0.16620816  1
  Ni  Ni2  1  0.00026437  0.00042978  0.33110624  1
  Cr  Cr3  1  0.00089736  0.33197349  -0.00025537  1
  Ni  Ni4  1  0.16363221  0.49592456  0.16445268  1
  Cr  Cr5  1  -0.00154760  0.33056812  0.33140903  1
  Fe  Fe6  1  0.99535909  0.66529874  -0.00042174  1
  Cr  Cr7  1  0.16315773  0.83380684  0.16721540  1
  Fe  Fe8  1  0.99697045  0.66547351  0.33030842  1
  Cr  Cr9  1  0.33332277  -0.00137229  0.00050030  1
  Ni  Ni10  1  0.49505579  0.16677323  0.16715249  1
  Ni  Ni11  1  0.33000570  0.00001262  0.33274407  1
  Fe  Fe12  1  0.33341778  0.33382354  0.00048614  1
  Ni  Ni13  1  0.50121170  0.49681247  0.16692750  1
  Fe  Fe14  1  0.33429134  0.32918029  0.33101439  1
  Cr  Cr15  1  0.33388707  0.66086325  0.99825461  1
  Ni  Ni16  1  0.50031103  0.83131358  0.16616374  1
  Cr  Cr17  1  0.33280505  0.66348242  0.33165651  1
  Cr  Cr18  1  0.66667627  0.99601785  0.00124041  1
  Fe  Fe19  1  0.83223404  0.16634157  0.16634187  1
  Cr  Cr20  1  0.66439206  0.00025491  0.32799260  1
  Cr  Cr21  1  0.66432683  0.33280014  0.00059708  1
  Ni  Ni22  1  0.83039899  0.50147295  0.16646852  1
  Ni  Ni23  1  0.66421967  0.33245214  0.33179593  1
  Ni  Ni24  1  0.66523583  0.66533749  -0.00045572  1
  Fe  Fe25  1  0.83087241  0.82887965  0.16529060  1
  Ni  Ni26  1  0.66381937  0.66254718  0.32814730  1
  Fe  Fe27  1  0.16798504  0.16382364  0.49687622  1
  Cr  Cr28  1  0.99736799  -0.00030119  0.66386769  1
  Cr  Cr29  1  0.16809491  0.16538841  0.83301955  1
  Fe  Fe30  1  0.16788526  0.49684973  0.49734793  1
  Cr  Cr31  1  -0.00005379  0.33110965  0.66368035  1
  Fe  Fe32  1  0.16767772  0.49741045  0.83258382  1
  Fe  Fe33  1  0.16536783  0.83431067  0.49616618  1
  Cr  Cr34  1  0.00015718  0.66421227  0.66543140  1
  Cr  Cr35  1  0.16263080  0.83302313  0.83177547  1
  Ni  Ni36  1  0.49426050  0.16836638  0.49903951  1
  Fe  Fe37  1  0.33125460  0.00077589  0.66203736  1
  Cr  Cr38  1  0.49537980  0.16882199  0.82982598  1
  Fe  Fe39  1  0.49950492  0.49552923  0.49837016  1
  Ni  Ni40  1  0.33235225  0.33326282  0.66439187  1
  Ni  Ni41  1  0.49908428  0.49748990  0.82943958  1
  Cr  Cr42  1  0.49716580  0.83283099  0.49844665  1
  Cr  Cr43  1  0.33279061  0.66244276  0.66489988  1
  Cr  Cr44  1  0.50037370  0.83004910  0.83037087  1
  Fe  Fe45  1  0.82930444  0.16514041  0.49682846  1
  Cr  Cr46  1  0.66553411  -0.00136905  0.66571978  1
  Cr  Cr47  1  0.83175757  0.16487528  0.83055660  1
  Cr  Cr48  1  0.82856626  0.49891985  0.49765547  1
  Fe  Fe49  1  0.66104298  0.33397319  0.66282989  1
  Cr  Cr50  1  0.82880046  0.50185629  0.83062421  1
  Cr  Cr51  1  0.83323651  0.82834684  0.49612206  1
  Ni  Ni52  1  0.66283789  0.66386073  0.66719884  1
  Ni  Ni53  1  0.83253520  0.82804934  0.83381233  1
" 