8785,Ni30Fe63Cr6_16,-234.378720193469, 201.323382354954,Ni30Fe63Cr6,"# generated using pymatgen
 data_Cr2Fe17Ni8
_symmetry_space_group_name_H-M   'P 1'
_cell_length_a   7.41542679
_cell_length_b   7.41542679
_cell_length_c   10.48699714
_cell_angle_alpha   90.00000000
_cell_angle_beta   90.00000000
_cell_angle_gamma   90.00000000
_symmetry_Int_Tables_number   1
_chemical_formula_structural   Cr2Fe17Ni8
_chemical_formula_sum   'Cr4 Fe34 Ni16'
_cell_volume   576.66481434
_cell_formula_units_Z   2
loop_
 _symmetry_equiv_pos_site_id
 _symmetry_equiv_pos_as_xyz
  1  'x, y, z'
loop_
 _atom_site_type_symbol
 _atom_site_label
 _atom_site_symmetry_multiplicity
 _atom_site_fract_x
 _atom_site_fract_y
 _atom_site_fract_z
 _atom_site_occupancy
  Fe  Fe0  1  1.00217142  1.00315798  0.00376312  1
  Fe  Fe1  1  0.16807695  0.17128720  0.17117890  1
  Fe  Fe2  1  0.00431253  0.00377996  0.33622124  1
  Ni  Ni3  1  1.00234756  0.33618430  0.00489617  1
  Ni  Ni4  1  0.17023010  0.50248841  0.17005256  1
  Fe  Fe5  1  0.00374487  0.33745994  0.33704309  1
  Fe  Fe6  1  1.00244889  0.66866291  0.00430361  1
  Ni  Ni7  1  0.16832266  0.83696111  0.17101732  1
  Fe  Fe8  1  0.00483051  0.66940840  0.33552145  1
  Cr  Cr9  1  0.33658069  1.00332117  1.00344885  1
  Fe  Fe10  1  0.50394927  0.17139963  0.17061035  1
  Fe  Fe11  1  0.33591407  1.00325842  0.33646731  1
  Ni  Ni12  1  0.33492873  0.33640259  0.00353240  1
  Fe  Fe13  1  0.50419858  0.50356725  0.17130747  1
  Fe  Fe14  1  0.33663844  0.33715400  0.33655592  1
  Cr  Cr15  1  0.33820914  0.66926667  0.00382559  1
  Fe  Fe16  1  0.50513731  0.83553319  0.17195183  1
  Fe  Fe17  1  0.33551145  0.66970680  0.33750288  1
  Fe  Fe18  1  0.67172542  0.00443172  1.00293413  1
  Fe  Fe19  1  0.83810383  0.17055114  0.17040810  1
  Fe  Fe20  1  0.67015563  0.00437138  0.33630811  1
  Fe  Fe21  1  0.66975789  0.33831293  0.00380495  1
  Ni  Ni22  1  0.83651350  0.50416051  0.17018090  1
  Fe  Fe23  1  0.67053052  0.33700987  0.33677906  1
  Ni  Ni24  1  0.67126285  0.67080094  0.00414171  1
  Ni  Ni25  1  0.83657270  0.83715900  0.16856696  1
  Fe  Fe26  1  0.67005617  0.66891389  0.33605538  1
  Ni  Ni27  1  0.17169981  0.17005403  0.50346480  1
  Fe  Fe28  1  1.00338331  0.00367739  0.67081527  1
  Fe  Fe29  1  0.16734249  0.17218364  0.83581429  1
  Ni  Ni30  1  0.17140927  0.50240271  0.50352260  1
  Ni  Ni31  1  0.00356456  0.33611240  0.66822418  1
  Fe  Fe32  1  0.16658558  0.50103967  0.83707522  1
  Ni  Ni33  1  0.16946765  0.83812586  0.50365492  1
  Fe  Fe34  1  1.00198926  0.66890766  0.67080243  1
  Fe  Fe35  1  0.16657269  0.83700370  0.83624193  1
  Fe  Fe36  1  0.50267565  0.16953869  0.50346620  1
  Fe  Fe37  1  0.33683306  0.00527962  0.67037299  1
  Fe  Fe38  1  0.50548054  0.17122690  0.83642523  1
  Ni  Ni39  1  0.50440381  0.50120235  0.50310432  1
  Fe  Fe40  1  0.33764260  0.33563965  0.67026017  1
  Fe  Fe41  1  0.50644172  0.50256124  0.83666978  1
  Fe  Fe42  1  0.50156497  0.83691232  0.50278953  1
  Cr  Cr43  1  0.33706856  0.67040893  0.67042114  1
  Fe  Fe44  1  0.50795675  0.83697019  0.83609808  1
  Fe  Fe45  1  0.83812626  0.17176740  0.50374156  1
  Ni  Ni46  1  0.66978596  0.00372282  0.66994245  1
  Fe  Fe47  1  0.83746684  0.17108110  0.83615746  1
  Fe  Fe48  1  0.83828247  0.50203958  0.50373653  1
  Fe  Fe49  1  0.67080165  0.33758649  0.66974245  1
  Ni  Ni50  1  0.83599654  0.50446316  0.83616818  1
  Cr  Cr51  1  0.83709139  0.83627875  0.50399415  1
  Ni  Ni52  1  0.66968485  0.67065576  0.66904403  1
  Ni  Ni53  1  0.83640442  0.83640107  0.83782516  1
" 