5241,Ni30Fe24Cr45_14,-221.817338428657, 176.045929404843,Ni30Fe24Cr45,"# generated using pymatgen
 data_Cr25Fe13Ni16
_symmetry_space_group_name_H-M   'P 1'
_cell_length_a   7.50259322
_cell_length_b   7.50259322
_cell_length_c   10.61026908
_cell_angle_alpha   90.00000000
_cell_angle_beta   90.00000000
_cell_angle_gamma   90.00000000
_symmetry_Int_Tables_number   1
_chemical_formula_structural   Cr25Fe13Ni16
_chemical_formula_sum   'Cr25 Fe13 Ni16'
_cell_volume   597.24042833
_cell_formula_units_Z   1
loop_
 _symmetry_equiv_pos_site_id
 _symmetry_equiv_pos_as_xyz
  1  'x, y, z'
loop_
 _atom_site_type_symbol
 _atom_site_label
 _atom_site_symmetry_multiplicity
 _atom_site_fract_x
 _atom_site_fract_y
 _atom_site_fract_z
 _atom_site_occupancy
  Cr  Cr0  1  0.99282993  0.00051438  0.99449198  1
  Cr  Cr1  1  0.16697649  0.16401561  0.16367436  1
  Cr  Cr2  1  0.99613222  0.00284169  0.33380915  1
  Ni  Ni3  1  -0.00151098  0.32892244  0.99707665  1
  Ni  Ni4  1  0.16277595  0.49783642  0.16440223  1
  Fe  Fe5  1  0.99754959  0.33257528  0.33127715  1
  Fe  Fe6  1  -0.00236673  0.66462233  0.99730825  1
  Cr  Cr7  1  0.16508693  0.83128061  0.16647717  1
  Fe  Fe8  1  -0.00173754  0.66096702  0.33134417  1
  Fe  Fe9  1  0.33398741  0.99761387  -0.00111185  1
  Ni  Ni10  1  0.49844296  0.16385643  0.16376590  1
  Ni  Ni11  1  0.33292588  -0.00089832  0.32939801  1
  Cr  Cr12  1  0.32921218  0.33258557  -0.00111820  1
  Ni  Ni13  1  0.49958435  0.49398365  0.16580505  1
  Cr  Cr14  1  0.33103301  0.33153362  0.33238965  1
  Cr  Cr15  1  0.33344825  0.66255052  -0.00036737  1
  Fe  Fe16  1  0.49882291  0.83244079  0.16490073  1
  Cr  Cr17  1  0.33323954  0.66039506  0.33041140  1
  Ni  Ni18  1  0.66481338  -0.00204969  0.99656692  1
  Cr  Cr19  1  0.82723906  0.16778214  0.16480857  1
  Cr  Cr20  1  0.66498685  0.00024064  0.33156413  1
  Fe  Fe21  1  0.66418764  0.32809665  -0.00163458  1
  Cr  Cr22  1  0.83093301  0.49691290  0.16320827  1
  Ni  Ni23  1  0.66279753  0.33154673  0.33135515  1
  Cr  Cr24  1  0.66159108  0.66818591  0.99558597  1
  Cr  Cr25  1  0.83090745  0.82836444  0.16636765  1
  Ni  Ni26  1  0.66222875  0.66102568  0.33062327  1
  Cr  Cr27  1  0.16702860  0.16359694  0.50014186  1
  Fe  Fe28  1  0.99388445  0.00034324  0.66495787  1
  Fe  Fe29  1  0.16254660  0.16433031  0.82909258  1
  Ni  Ni30  1  0.16169490  0.49600447  0.49888434  1
  Fe  Fe31  1  0.99478887  0.32886757  0.66457427  1
  Cr  Cr32  1  0.16176247  0.49645669  0.83017932  1
  Cr  Cr33  1  0.16447265  0.83007374  0.49700420  1
  Fe  Fe34  1  0.99506010  0.66369811  0.66442895  1
  Cr  Cr35  1  0.16595877  0.83258187  0.82932218  1
  Ni  Ni36  1  0.50017907  0.16633171  0.49816759  1
  Fe  Fe37  1  0.33594387  -0.00121477  0.66396141  1
  Cr  Cr38  1  0.49782556  0.16337030  0.83137777  1
  Fe  Fe39  1  0.49926719  0.49421041  0.49790200  1
  Fe  Fe40  1  0.33338566  0.32874100  0.66203018  1
  Cr  Cr41  1  0.49956037  0.49374720  0.82838190  1
  Cr  Cr42  1  0.49723752  0.83599295  0.49622634  1
  Cr  Cr43  1  0.33191736  0.66019745  0.66275680  1
  Ni  Ni44  1  0.49848428  0.83584161  0.83157947  1
  Ni  Ni45  1  0.82809064  0.16755449  0.49906111  1
  Ni  Ni46  1  0.66774018  0.00104553  0.66517628  1
  Ni  Ni47  1  0.82933510  0.16430094  0.83007014  1
  Cr  Cr48  1  0.82971547  0.49610310  0.49551930  1
  Ni  Ni49  1  0.66586720  0.32675679  0.66288798  1
  Cr  Cr50  1  0.83077135  0.49515709  0.83391070  1
  Cr  Cr51  1  0.83064973  0.83006397  0.49740327  1
  Cr  Cr52  1  0.66233086  0.66673816  0.66563160  1
  Ni  Ni53  1  0.83046410  0.83344681  0.82907085  1
" 