5894,Ni30Fe9Cr59_16,-215.363981067648, 157.130758774222,Ni30Fe9Cr59,"# generated using pymatgen
 data_Cr33Fe5Ni16
_symmetry_space_group_name_H-M   'P 1'
_cell_length_a   7.53829476
_cell_length_b   7.53829476
_cell_length_c   10.66075869
_cell_angle_alpha   90.00000000
_cell_angle_beta   90.00000000
_cell_angle_gamma   90.00000000
_symmetry_Int_Tables_number   1
_chemical_formula_structural   Cr33Fe5Ni16
_chemical_formula_sum   'Cr33 Fe5 Ni16'
_cell_volume   605.80707815
_cell_formula_units_Z   1
loop_
 _symmetry_equiv_pos_site_id
 _symmetry_equiv_pos_as_xyz
  1  'x, y, z'
loop_
 _atom_site_type_symbol
 _atom_site_label
 _atom_site_symmetry_multiplicity
 _atom_site_fract_x
 _atom_site_fract_y
 _atom_site_fract_z
 _atom_site_occupancy
  Ni  Ni0  1  -0.00239480  0.99459143  0.99464012  1
  Cr  Cr1  1  0.16248335  0.16250711  0.15923637  1
  Cr  Cr2  1  -0.00081215  0.99490057  0.32921400  1
  Cr  Cr3  1  -0.00424032  0.33219209  -0.00335638  1
  Ni  Ni4  1  0.16490187  0.49562128  0.16263809  1
  Ni  Ni5  1  -0.00012097  0.33094658  0.32796008  1
  Cr  Cr6  1  -0.00343388  0.66131764  0.99513651  1
  Cr  Cr7  1  0.16601943  0.82897472  0.16049104  1
  Cr  Cr8  1  -0.00158783  0.66214427  0.32850719  1
  Ni  Ni9  1  0.32917364  0.99495606  -0.00400373  1
  Cr  Cr10  1  0.49339775  0.15939830  0.16093759  1
  Ni  Ni11  1  0.33094983  0.99273410  0.33047290  1
  Fe  Fe12  1  0.32815292  0.33005098  0.99433723  1
  Cr  Cr13  1  0.49216535  0.49848554  0.16257648  1
  Cr  Cr14  1  0.32747465  0.32560142  0.32862091  1
  Fe  Fe15  1  0.32791537  0.66114086  -0.00462468  1
  Cr  Cr16  1  0.49421399  0.82766871  0.16326676  1
  Ni  Ni17  1  0.32644818  0.66260454  0.32949105  1
  Ni  Ni18  1  0.65896205  0.99509059  0.99452696  1
  Cr  Cr19  1  0.82996376  0.16033969  0.16196634  1
  Ni  Ni20  1  0.65752795  0.99405254  0.33025324  1
  Cr  Cr21  1  0.65977199  0.32928935  0.99287599  1
  Cr  Cr22  1  0.82857417  0.49520708  0.16743493  1
  Cr  Cr23  1  0.66049262  0.32541287  0.32915620  1
  Cr  Cr24  1  0.66259853  0.66037408  0.99373217  1
  Cr  Cr25  1  0.82614265  0.83019156  0.16150891  1
  Ni  Ni26  1  0.65911427  0.66450708  0.32804100  1
  Cr  Cr27  1  0.16197700  0.16275947  0.49585344  1
  Ni  Ni28  1  -0.00260096  0.99334371  0.66127992  1
  Cr  Cr29  1  0.16193063  0.16158812  0.83023331  1
  Fe  Fe30  1  0.16454402  0.49624177  0.49422938  1
  Cr  Cr31  1  -0.00258628  0.33183167  0.66190375  1
  Fe  Fe32  1  0.16499845  0.49535344  0.82923931  1
  Ni  Ni33  1  0.16441172  0.82693049  0.49526292  1
  Cr  Cr34  1  -0.00146188  0.66248462  0.66211098  1
  Cr  Cr35  1  0.16390112  0.83023298  0.82873829  1
  Ni  Ni36  1  0.49330585  0.16139037  0.49586112  1
  Cr  Cr37  1  0.32961567  -0.00364641  0.65734100  1
  Cr  Cr38  1  0.49208897  0.16178766  0.82847243  1
  Cr  Cr39  1  0.49322371  0.49601922  0.49503390  1
  Ni  Ni40  1  0.32806774  0.33206794  0.66331873  1
  Ni  Ni41  1  0.48964590  0.49574384  0.82889959  1
  Cr  Cr42  1  0.49467174  0.82614142  0.49301735  1
  Fe  Fe43  1  0.32784866  0.66090035  0.66117429  1
  Cr  Cr44  1  0.49284113  0.82672103  0.82961983  1
  Cr  Cr45  1  0.82862727  0.16142327  0.49619529  1
  Ni  Ni46  1  0.66041476  -0.00459079  0.66110323  1
  Cr  Cr47  1  0.83122742  0.16011911  0.82767936  1
  Cr  Cr48  1  0.82848423  0.49535673  0.49118252  1
  Cr  Cr49  1  0.65803642  0.32790622  0.66391318  1
  Ni  Ni50  1  0.82767918  0.49499574  0.82834098  1
  Cr  Cr51  1  0.82830036  0.82890422  0.49611786  1
  Cr  Cr52  1  0.66237322  0.66093260  0.66531309  1
  Cr  Cr53  1  0.82939284  0.83157340  0.82834091  1
" 