3879,Ni30Fe44Cr24_11,-229.213009168919, 192.8996764349,Ni30Fe44Cr24,"# generated using pymatgen
 data_Cr7(Fe3Ni2)4
_symmetry_space_group_name_H-M   'P 1'
_cell_length_a   7.45425957
_cell_length_b   7.45425957
_cell_length_c   10.54191498
_cell_angle_alpha   90.00000000
_cell_angle_beta   90.00000000
_cell_angle_gamma   90.00000000
_symmetry_Int_Tables_number   1
_chemical_formula_structural   Cr7(Fe3Ni2)4
_chemical_formula_sum   'Cr14 Fe24 Ni16'
_cell_volume   585.77189666
_cell_formula_units_Z   2
loop_
 _symmetry_equiv_pos_site_id
 _symmetry_equiv_pos_as_xyz
  1  'x, y, z'
loop_
 _atom_site_type_symbol
 _atom_site_label
 _atom_site_symmetry_multiplicity
 _atom_site_fract_x
 _atom_site_fract_y
 _atom_site_fract_z
 _atom_site_occupancy
  Fe  Fe0  1  0.99674143  1.00051557  0.99903038  1
  Cr  Cr1  1  0.16793226  0.16819260  0.16875904  1
  Fe  Fe2  1  0.99958107  0.99995855  0.33703231  1
  Fe  Fe3  1  0.99831534  0.33281108  1.00077210  1
  Fe  Fe4  1  0.17175021  0.50027917  0.16624279  1
  Cr  Cr5  1  1.00037742  0.33386829  0.33771021  1
  Fe  Fe6  1  0.99971169  0.66889256  0.99944626  1
  Cr  Cr7  1  0.16662870  0.83355370  0.16535583  1
  Cr  Cr8  1  0.00166312  0.66801501  0.33431139  1
  Cr  Cr9  1  0.33619957  1.00081855  0.99820728  1
  Ni  Ni10  1  0.50259532  0.16834136  0.16818773  1
  Fe  Fe11  1  0.33517902  0.99918437  0.33467117  1
  Fe  Fe12  1  0.33921478  0.33487398  1.00011576  1
  Fe  Fe13  1  0.49786270  0.49923864  0.16803062  1
  Fe  Fe14  1  0.33663149  0.33762212  0.33498857  1
  Fe  Fe15  1  0.33680402  0.66657010  0.00159547  1
  Ni  Ni16  1  0.50120760  0.83622500  0.17008620  1
  Ni  Ni17  1  0.33393858  0.66845066  0.33459777  1
  Ni  Ni18  1  0.66766020  0.00280483  0.00168304  1
  Fe  Fe19  1  0.83161442  0.16526714  0.16747265  1
  Fe  Fe20  1  0.66811822  0.00135505  0.33313967  1
  Ni  Ni21  1  0.66730629  0.33273572  1.00052196  1
  Cr  Cr22  1  0.83423217  0.49957809  0.16675473  1
  Ni  Ni23  1  0.66705539  0.33263764  0.33279954  1
  Cr  Cr24  1  0.66668787  0.66813121  0.00092308  1
  Fe  Fe25  1  0.83217449  0.83865611  0.16702257  1
  Cr  Cr26  1  0.66660731  0.66685639  0.33485518  1
  Fe  Fe27  1  0.16735943  0.16707524  0.50212787  1
  Ni  Ni28  1  1.00044085  0.99902420  0.66698355  1
  Cr  Cr29  1  0.16595112  0.16727276  0.83235970  1
  Fe  Fe30  1  0.17076284  0.50229926  0.50306031  1
  Fe  Fe31  1  1.00018874  0.33395341  0.66522426  1
  Cr  Cr32  1  0.16742163  0.50272609  0.83443853  1
  Ni  Ni33  1  0.16576763  0.83401011  0.50131694  1
  Ni  Ni34  1  0.99998245  0.66813395  0.66719570  1
  Ni  Ni35  1  0.16281676  0.83240579  0.83425952  1
  Cr  Cr36  1  0.50253554  0.16770804  0.50032636  1
  Cr  Cr37  1  0.33351730  0.00180162  0.66780403  1
  Ni  Ni38  1  0.50421455  0.16946567  0.83475866  1
  Ni  Ni39  1  0.50154703  0.50118727  0.50046779  1
  Ni  Ni40  1  0.33398908  0.33554541  0.66738141  1
  Ni  Ni41  1  0.50214251  0.49961183  0.83431115  1
  Fe  Fe42  1  0.49999136  0.83264133  0.50151731  1
  Fe  Fe43  1  0.33452740  0.66659312  0.66525894  1
  Cr  Cr44  1  0.50174497  0.83328013  0.82985091  1
  Fe  Fe45  1  0.83407488  0.16519466  0.50194799  1
  Ni  Ni46  1  0.66999526  1.00022253  0.66812600  1
  Fe  Fe47  1  0.83297223  0.16554473  0.83472493  1
  Fe  Fe48  1  0.83300229  0.50144455  0.50212415  1
  Cr  Cr49  1  0.66644730  0.33531461  0.66960697  1
  Fe  Fe50  1  0.83386599  0.50169624  0.83448806  1
  Fe  Fe51  1  0.83303725  0.83512850  0.50348283  1
  Ni  Ni52  1  0.66970320  0.66659068  0.66621867  1
  Fe  Fe53  1  0.83452918  0.83501420  0.83264360  1
" 