7420,Ni30Fe63Cr6_13,-234.732978285151, 199.678305057205,Ni30Fe63Cr6,"# generated using pymatgen
 data_Cr2Fe17Ni8
_symmetry_space_group_name_H-M   'P 1'
_cell_length_a   7.42012376
_cell_length_b   7.42012376
_cell_length_c   10.49363966
_cell_angle_alpha   90.00000000
_cell_angle_beta   90.00000000
_cell_angle_gamma   90.00000000
_symmetry_Int_Tables_number   1
_chemical_formula_structural   Cr2Fe17Ni8
_chemical_formula_sum   'Cr4 Fe34 Ni16'
_cell_volume   577.76129626
_cell_formula_units_Z   2
loop_
 _symmetry_equiv_pos_site_id
 _symmetry_equiv_pos_as_xyz
  1  'x, y, z'
loop_
 _atom_site_type_symbol
 _atom_site_label
 _atom_site_symmetry_multiplicity
 _atom_site_fract_x
 _atom_site_fract_y
 _atom_site_fract_z
 _atom_site_occupancy
  Fe  Fe0  1  0.00418774  1.00030780  0.00569605  1
  Ni  Ni1  1  0.17047054  0.16964268  0.16994342  1
  Ni  Ni2  1  0.00368247  0.00443350  0.33659654  1
  Fe  Fe3  1  0.00354443  0.33881123  0.00469944  1
  Fe  Fe4  1  0.17037965  0.50357730  0.16969891  1
  Ni  Ni5  1  0.00401275  0.33440894  0.33530420  1
  Fe  Fe6  1  0.00367436  0.67037113  1.00281302  1
  Ni  Ni7  1  0.17017154  0.83721368  0.17039848  1
  Fe  Fe8  1  0.00375487  0.67165492  0.33525080  1
  Fe  Fe9  1  0.33656372  1.00267184  0.00570581  1
  Ni  Ni10  1  0.50206387  0.16938959  0.16981323  1
  Ni  Ni11  1  0.33593134  1.00293826  0.33586870  1
  Fe  Fe12  1  0.33778073  0.33700954  0.00359113  1
  Fe  Fe13  1  0.50267480  0.50435212  0.16983438  1
  Fe  Fe14  1  0.33578974  0.33516114  0.33691468  1
  Ni  Ni15  1  0.33610332  0.66955219  0.00360855  1
  Ni  Ni16  1  0.50326495  0.83656054  0.17068491  1
  Fe  Fe17  1  0.33604414  0.67083383  0.33556289  1
  Fe  Fe18  1  0.66873279  1.00280704  0.00504996  1
  Fe  Fe19  1  0.83710901  0.16830743  0.17006293  1
  Fe  Fe20  1  0.67010988  1.00283692  0.33581553  1
  Fe  Fe21  1  0.66816045  0.33752973  0.00345564  1
  Fe  Fe22  1  0.83642918  0.50357334  0.17001645  1
  Fe  Fe23  1  0.66928700  0.33506176  0.33543813  1
  Fe  Fe24  1  0.67053107  0.66915480  0.00470361  1
  Ni  Ni25  1  0.83605041  0.83473268  0.16980509  1
  Ni  Ni26  1  0.66836891  0.67096533  0.33474515  1
  Ni  Ni27  1  0.17015834  0.16964496  0.50335056  1
  Fe  Fe28  1  0.00416206  1.00241877  0.66771013  1
  Cr  Cr29  1  0.17247149  0.16909096  0.83686426  1
  Fe  Fe30  1  0.17123106  0.50171473  0.50363721  1
  Ni  Ni31  1  0.00452168  0.33695222  0.66979295  1
  Fe  Fe32  1  0.17005697  0.50456555  0.83614919  1
  Fe  Fe33  1  0.16971557  0.83734337  0.50289945  1
  Fe  Fe34  1  0.00439969  0.66963118  0.67141935  1
  Ni  Ni35  1  0.16923436  0.83459880  0.83605462  1
  Fe  Fe36  1  0.50234246  0.17000710  0.50350977  1
  Fe  Fe37  1  0.33579620  0.00452806  0.66799015  1
  Ni  Ni38  1  0.50266078  0.17148913  0.83566966  1
  Fe  Fe39  1  0.50105810  0.50288695  0.50324781  1
  Ni  Ni40  1  0.33685813  0.33721298  0.66993858  1
  Fe  Fe41  1  0.50268110  0.50123226  0.83640188  1
  Fe  Fe42  1  0.50299027  0.83659388  0.50240596  1
  Fe  Fe43  1  0.33483657  0.66823782  0.66986357  1
  Cr  Cr44  1  0.50157190  0.83719825  0.83731119  1
  Fe  Fe45  1  0.83794864  0.16849185  0.50327333  1
  Fe  Fe46  1  0.66952975  0.00452796  0.66861432  1
  Cr  Cr47  1  0.83527253  0.17232594  0.83566464  1
  Cr  Cr48  1  0.83667021  0.50277532  0.50251629  1
  Fe  Fe49  1  0.66813436  0.33648581  0.67058342  1
  Ni  Ni50  1  0.83632759  0.50466533  0.83630386  1
  Fe  Fe51  1  0.83677649  0.83862663  0.50225203  1
  Fe  Fe52  1  0.67024398  0.66848400  0.66939684  1
  Fe  Fe53  1  0.83822033  0.83515521  0.83684563  1
" 