2973,Ni30Fe41Cr28_19,-227.805304002629, 192.202111959394,Ni30Fe41Cr28,"# generated using pymatgen
 data_Cr8Fe11Ni8
_symmetry_space_group_name_H-M   'P 1'
_cell_length_a   7.45958022
_cell_length_b   7.45958022
_cell_length_c   10.54943952
_cell_angle_alpha   90.00000000
_cell_angle_beta   90.00000000
_cell_angle_gamma   90.00000000
_symmetry_Int_Tables_number   1
_chemical_formula_structural   Cr8Fe11Ni8
_chemical_formula_sum   'Cr16 Fe22 Ni16'
_cell_volume   587.02711826
_cell_formula_units_Z   2
loop_
 _symmetry_equiv_pos_site_id
 _symmetry_equiv_pos_as_xyz
  1  'x, y, z'
loop_
 _atom_site_type_symbol
 _atom_site_label
 _atom_site_symmetry_multiplicity
 _atom_site_fract_x
 _atom_site_fract_y
 _atom_site_fract_z
 _atom_site_occupancy
  Ni  Ni0  1  0.00250345  0.00450545  0.99913572  1
  Cr  Cr1  1  0.16724588  0.16890965  0.17078148  1
  Ni  Ni2  1  0.99960657  0.00171035  0.33706953  1
  Ni  Ni3  1  0.00154080  0.33418527  0.00096628  1
  Fe  Fe4  1  0.16280643  0.50008073  0.16757241  1
  Ni  Ni5  1  0.99784451  0.33548180  0.33402859  1
  Fe  Fe6  1  0.99986186  0.66660325  1.00036692  1
  Cr  Cr7  1  0.16484513  0.83327125  0.16782538  1
  Ni  Ni8  1  1.00014117  0.66458600  0.33253390  1
  Cr  Cr9  1  0.33565075  0.99809241  0.99725809  1
  Cr  Cr10  1  0.50177022  0.16721090  0.16640398  1
  Cr  Cr11  1  0.33431445  0.99908877  0.34087905  1
  Fe  Fe12  1  0.33143275  0.33282304  0.99879778  1
  Cr  Cr13  1  0.49466858  0.49855887  0.17185491  1
  Fe  Fe14  1  0.33280644  0.33202744  0.33794097  1
  Fe  Fe15  1  0.33073237  0.66476067  0.99913725  1
  Fe  Fe16  1  0.49980376  0.83285984  0.16964908  1
  Fe  Fe17  1  0.33216613  0.66834684  0.33712223  1
  Fe  Fe18  1  0.67080151  0.00242879  1.00036260  1
  Fe  Fe19  1  0.83652451  0.16972909  0.16932438  1
  Ni  Ni20  1  0.66540420  0.00189096  0.33280410  1
  Cr  Cr21  1  0.67115965  0.33439229  1.00008322  1
  Ni  Ni22  1  0.83341825  0.50202840  0.16849941  1
  Fe  Fe23  1  0.67002099  0.33289816  0.33497953  1
  Cr  Cr24  1  0.66514966  0.66809585  0.00204134  1
  Cr  Cr25  1  0.83475589  0.83848511  0.16919784  1
  Fe  Fe26  1  0.66870408  0.66769165  0.33407752  1
  Fe  Fe27  1  0.16237918  0.16580771  0.50045063  1
  Ni  Ni28  1  0.00070709  0.00300062  0.66523602  1
  Ni  Ni29  1  0.16565303  0.16856254  0.83210664  1
  Cr  Cr30  1  0.16700347  0.49936098  0.49892586  1
  Ni  Ni31  1  0.99652009  0.33283764  0.66756582  1
  Ni  Ni32  1  0.16734189  0.49801457  0.83716800  1
  Ni  Ni33  1  0.16627926  0.83103090  0.50197212  1
  Cr  Cr34  1  0.00168318  0.66344665  0.66905668  1
  Fe  Fe35  1  0.16719841  0.83344141  0.83242782  1
  Ni  Ni36  1  0.50432551  0.16951206  0.50041917  1
  Cr  Cr37  1  0.33310122  0.99823557  0.66328480  1
  Fe  Fe38  1  0.50163996  0.16533963  0.83197538  1
  Fe  Fe39  1  0.50273743  0.50202119  0.50050691  1
  Cr  Cr40  1  0.33164384  0.33173672  0.66524349  1
  Cr  Cr41  1  0.49883397  0.49835187  0.82989039  1
  Ni  Ni42  1  0.50359231  0.83261393  0.50065561  1
  Ni  Ni43  1  0.33620357  0.66785643  0.66667875  1
  Fe  Fe44  1  0.49981915  0.83300940  0.83086821  1
  Ni  Ni45  1  0.83302122  0.16750791  0.49959485  1
  Fe  Fe46  1  0.66752751  0.00304837  0.66440028  1
  Fe  Fe47  1  0.83708252  0.16963496  0.83171996  1
  Fe  Fe48  1  0.83265209  0.49931933  0.49912147  1
  Fe  Fe49  1  0.66950924  0.33328342  0.66536817  1
  Fe  Fe50  1  0.83673382  0.49920340  0.83443161  1
  Cr  Cr51  1  0.83627333  0.83504602  0.49923450  1
  Fe  Fe52  1  0.66769263  0.66714174  0.66590690  1
  Cr  Cr53  1  0.83419336  0.83792048  0.83212474  1
" 