8875,Ni30Fe63Cr6_9,-233.799095051162, 199.284470357667,Ni30Fe63Cr6,"# generated using pymatgen
 data_Cr2Fe17Ni8
_symmetry_space_group_name_H-M   'P 1'
_cell_length_a   7.40963117
_cell_length_b   7.40963117
_cell_length_c   10.47880089
_cell_angle_alpha   90.00000000
_cell_angle_beta   90.00000000
_cell_angle_gamma   90.00000000
_symmetry_Int_Tables_number   1
_chemical_formula_structural   Cr2Fe17Ni8
_chemical_formula_sum   'Cr4 Fe34 Ni16'
_cell_volume   575.31377078
_cell_formula_units_Z   2
loop_
 _symmetry_equiv_pos_site_id
 _symmetry_equiv_pos_as_xyz
  1  'x, y, z'
loop_
 _atom_site_type_symbol
 _atom_site_label
 _atom_site_symmetry_multiplicity
 _atom_site_fract_x
 _atom_site_fract_y
 _atom_site_fract_z
 _atom_site_occupancy
  Fe  Fe0  1  0.00430474  1.00317137  1.00287488  1
  Fe  Fe1  1  0.17138669  0.17127261  0.17121517  1
  Fe  Fe2  1  0.00443702  1.00369907  0.33840134  1
  Fe  Fe3  1  0.00407824  0.33858223  1.00351688  1
  Fe  Fe4  1  0.16865541  0.50381764  0.17062546  1
  Ni  Ni5  1  0.00526206  0.33935209  0.33845897  1
  Fe  Fe6  1  1.00319999  0.66986974  1.00379313  1
  Fe  Fe7  1  0.17031726  0.83653662  0.17028164  1
  Fe  Fe8  1  1.00330590  0.67007531  0.33712005  1
  Fe  Fe9  1  0.33824231  1.00375715  1.00340572  1
  Fe  Fe10  1  0.50359626  0.16937763  0.17079040  1
  Fe  Fe11  1  0.33722905  0.00479316  0.33795197  1
  Fe  Fe12  1  0.33705308  0.33658078  1.00294055  1
  Cr  Cr13  1  0.50483598  0.50401058  0.16979779  1
  Fe  Fe14  1  0.33550771  0.33509158  0.33799939  1
  Ni  Ni15  1  0.33547535  0.67064834  1.00282636  1
  Fe  Fe16  1  0.50460329  0.83848663  0.16994827  1
  Fe  Fe17  1  0.33559826  0.67173789  0.33688322  1
  Ni  Ni18  1  0.66992006  1.00373337  1.00317939  1
  Cr  Cr19  1  0.83716316  0.17082854  0.17066116  1
  Ni  Ni20  1  0.66917107  1.00307245  0.33816141  1
  Ni  Ni21  1  0.67077779  0.33674184  1.00289089  1
  Ni  Ni22  1  0.83817368  0.50506597  0.17098402  1
  Fe  Fe23  1  0.67162103  0.33622399  0.33781307  1
  Fe  Fe24  1  0.67107479  0.67105884  1.00311419  1
  Fe  Fe25  1  0.83669795  0.83575692  0.17072033  1
  Fe  Fe26  1  0.67271846  0.67179817  0.33692466  1
  Ni  Ni27  1  0.16954343  0.16943071  0.50300785  1
  Ni  Ni28  1  1.00377532  1.00311363  0.67002129  1
  Fe  Fe29  1  0.16968018  0.16976507  0.83718981  1
  Ni  Ni30  1  0.16843129  0.50421322  0.50251366  1
  Fe  Fe31  1  1.00252872  0.33645255  0.67009616  1
  Ni  Ni32  1  0.16945564  0.50448126  0.83831287  1
  Fe  Fe33  1  0.17116252  0.83777704  0.50423447  1
  Fe  Fe34  1  1.00370671  0.67055644  0.67071053  1
  Fe  Fe35  1  0.17073498  0.83647541  0.83710403  1
  Ni  Ni36  1  0.50464834  0.16779423  0.50250914  1
  Ni  Ni37  1  0.33721904  1.00198209  0.67019650  1
  Fe  Fe38  1  0.50531733  0.17018958  0.83738225  1
  Cr  Cr39  1  0.50442796  0.50420493  0.50438386  1
  Cr  Cr40  1  0.33677756  0.33718944  0.67156286  1
  Fe  Fe41  1  0.50471663  0.50484692  0.83823266  1
  Fe  Fe42  1  0.50314558  0.83950654  0.50437208  1
  Fe  Fe43  1  0.33671904  0.67333194  0.67192759  1
  Ni  Ni44  1  0.50371551  0.83767753  0.83678523  1
  Fe  Fe45  1  0.83725770  0.17090029  0.50385874  1
  Ni  Ni46  1  0.67062871  0.00409817  0.67028046  1
  Fe  Fe47  1  0.83662656  0.17075355  0.83728094  1
  Fe  Fe48  1  0.83898709  0.50259695  0.50372906  1
  Ni  Ni49  1  0.67255299  0.33639157  0.67057401  1
  Ni  Ni50  1  0.83738884  0.50317250  0.83718699  1
  Fe  Fe51  1  0.83731297  0.83812432  0.50392667  1
  Fe  Fe52  1  0.67119614  0.67197730  0.67158508  1
  Fe  Fe53  1  0.83715674  0.83707643  0.83697501  1
" 