3754,Ni30Fe44Cr24_10,-228.995671408336, 189.526879145372,Ni30Fe44Cr24,"# generated using pymatgen
 data_Cr7(Fe3Ni2)4
_symmetry_space_group_name_H-M   'P 1'
_cell_length_a   7.45523404
_cell_length_b   7.45523404
_cell_length_c   10.54329309
_cell_angle_alpha   90.00000000
_cell_angle_beta   90.00000000
_cell_angle_gamma   90.00000000
_symmetry_Int_Tables_number   1
_chemical_formula_structural   Cr7(Fe3Ni2)4
_chemical_formula_sum   'Cr14 Fe24 Ni16'
_cell_volume   586.00165469
_cell_formula_units_Z   2
loop_
 _symmetry_equiv_pos_site_id
 _symmetry_equiv_pos_as_xyz
  1  'x, y, z'
loop_
 _atom_site_type_symbol
 _atom_site_label
 _atom_site_symmetry_multiplicity
 _atom_site_fract_x
 _atom_site_fract_y
 _atom_site_fract_z
 _atom_site_occupancy
  Cr  Cr0  1  1.00010930  0.00255831  0.00173359  1
  Fe  Fe1  1  0.16993812  0.16695034  0.16914825  1
  Fe  Fe2  1  0.00085254  0.99901459  0.33515648  1
  Cr  Cr3  1  0.00093488  0.33353679  0.99806417  1
  Cr  Cr4  1  0.17083591  0.50067139  0.16729066  1
  Cr  Cr5  1  1.00063848  0.33591161  0.33522771  1
  Cr  Cr6  1  1.00021396  0.66619341  0.99925831  1
  Cr  Cr7  1  0.16771344  0.83318188  0.17014675  1
  Ni  Ni8  1  0.99957376  0.66706680  0.33665487  1
  Cr  Cr9  1  0.33498317  1.00076686  0.99618441  1
  Fe  Fe10  1  0.50028290  0.16765104  0.16765696  1
  Ni  Ni11  1  0.33504179  0.00336272  0.33590918  1
  Fe  Fe12  1  0.33547276  0.33342977  0.99995807  1
  Fe  Fe13  1  0.50178941  0.50032005  0.16694166  1
  Fe  Fe14  1  0.33596670  0.33441504  0.33586309  1
  Ni  Ni15  1  0.33657261  0.66721121  0.00115805  1
  Fe  Fe16  1  0.50060181  0.83452937  0.16684208  1
  Fe  Fe17  1  0.33342737  0.66712143  0.33599776  1
  Ni  Ni18  1  0.66593601  0.00168713  0.00266358  1
  Fe  Fe19  1  0.83189103  0.16740652  0.16778247  1
  Fe  Fe20  1  0.66751186  0.00113518  0.33239955  1
  Fe  Fe21  1  0.66684541  0.33267989  0.99996272  1
  Fe  Fe22  1  0.83269460  0.50075437  0.16669505  1
  Fe  Fe23  1  0.66494583  0.33352347  0.33457405  1
  Fe  Fe24  1  0.66657477  0.66888068  0.00131179  1
  Fe  Fe25  1  0.83268595  0.83454032  0.16859133  1
  Cr  Cr26  1  0.66828237  0.66654904  0.33444531  1
  Fe  Fe27  1  0.16876099  0.16575156  0.50058542  1
  Ni  Ni28  1  0.00363623  0.00119511  0.66714444  1
  Fe  Fe29  1  0.16701581  0.16793465  0.83145153  1
  Ni  Ni30  1  0.16840144  0.50219239  0.49997084  1
  Fe  Fe31  1  1.00034730  0.33580575  0.66845348  1
  Ni  Ni32  1  0.16805968  0.50186570  0.83413330  1
  Fe  Fe33  1  0.16634578  0.83342411  0.50033795  1
  Fe  Fe34  1  0.00090421  0.66635826  0.66603215  1
  Fe  Fe35  1  0.16888804  0.83222578  0.83183766  1
  Fe  Fe36  1  0.49995032  0.16930596  0.49993906  1
  Fe  Fe37  1  0.33357449  0.99949538  0.66879787  1
  Ni  Ni38  1  0.50348054  0.16710866  0.83373879  1
  Ni  Ni39  1  0.49861488  0.49986397  0.49984376  1
  Cr  Cr40  1  0.33444999  0.33352872  0.66698425  1
  Cr  Cr41  1  0.50054383  0.50218716  0.83541616  1
  Cr  Cr42  1  0.50073637  0.83364814  0.50194055  1
  Ni  Ni43  1  0.33318288  0.66763716  0.66711008  1
  Ni  Ni44  1  0.49964612  0.83391881  0.83470425  1
  Cr  Cr45  1  0.83313273  0.16616251  0.50184848  1
  Cr  Cr46  1  0.66587995  0.00103847  0.66841116  1
  Ni  Ni47  1  0.83271489  0.16812690  0.83406567  1
  Fe  Fe48  1  0.83356955  0.50311227  0.50316037  1
  Ni  Ni49  1  0.66796749  0.33616356  0.66687777  1
  Ni  Ni50  1  0.83477991  0.49828772  0.83163263  1
  Ni  Ni51  1  0.83661050  0.83501734  0.49974878  1
  Ni  Ni52  1  0.66711588  0.66534399  0.66740047  1
  Cr  Cr53  1  0.83215771  0.83503496  0.83359941  1
" 