1242,Ni30Fe44Cr24_7,-229.248992397297, 190.405733242728,Ni30Fe44Cr24,"# generated using pymatgen
 data_Cr7(Fe3Ni2)4
_symmetry_space_group_name_H-M   'P 1'
_cell_length_a   7.46078052
_cell_length_b   7.46078052
_cell_length_c   10.55113700
_cell_angle_alpha   90.00000000
_cell_angle_beta   90.00000000
_cell_angle_gamma   90.00000000
_symmetry_Int_Tables_number   1
_chemical_formula_structural   Cr7(Fe3Ni2)4
_chemical_formula_sum   'Cr14 Fe24 Ni16'
_cell_volume   587.31053453
_cell_formula_units_Z   2
loop_
 _symmetry_equiv_pos_site_id
 _symmetry_equiv_pos_as_xyz
  1  'x, y, z'
loop_
 _atom_site_type_symbol
 _atom_site_label
 _atom_site_symmetry_multiplicity
 _atom_site_fract_x
 _atom_site_fract_y
 _atom_site_fract_z
 _atom_site_occupancy
  Fe  Fe0  1  0.99944830  1.00007515  0.99867691  1
  Cr  Cr1  1  0.16695536  0.16688299  0.16613737  1
  Fe  Fe2  1  0.00056824  0.99818078  0.33663064  1
  Fe  Fe3  1  1.00004878  0.33191831  0.99995040  1
  Cr  Cr4  1  0.16890978  0.50056261  0.16769441  1
  Fe  Fe5  1  0.00049286  0.33191387  0.33590363  1
  Cr  Cr6  1  0.00085214  0.66921538  0.99954847  1
  Cr  Cr7  1  0.16675149  0.83364391  0.16875345  1
  Ni  Ni8  1  0.99876763  0.66838482  0.33530893  1
  Fe  Fe9  1  0.33296731  0.99798302  0.99795914  1
  Cr  Cr10  1  0.50065299  0.16530923  0.16716602  1
  Ni  Ni11  1  0.33368261  0.00095571  0.33765153  1
  Fe  Fe12  1  0.33373570  0.33454742  0.99888772  1
  Ni  Ni13  1  0.49976868  0.49958042  0.16890529  1
  Fe  Fe14  1  0.33549165  0.33359288  0.33623165  1
  Fe  Fe15  1  0.33625854  0.66784364  0.99971090  1
  Cr  Cr16  1  0.50135111  0.83431268  0.16870564  1
  Ni  Ni17  1  0.33406401  0.66771903  0.33453234  1
  Ni  Ni18  1  0.66879989  0.99929287  0.00126685  1
  Fe  Fe19  1  0.83387758  0.16422241  0.16772205  1
  Fe  Fe20  1  0.66808219  0.99871922  0.33625247  1
  Cr  Cr21  1  0.66608309  0.33500074  1.00023040  1
  Cr  Cr22  1  0.83496307  0.50135035  0.17001445  1
  Fe  Fe23  1  0.66531147  0.33424581  0.33576894  1
  Cr  Cr24  1  0.66721978  0.66798747  0.99936253  1
  Ni  Ni25  1  0.83360232  0.83617837  0.16827040  1
  Fe  Fe26  1  0.66610941  0.66880362  0.33549088  1
  Fe  Fe27  1  0.16853601  0.16363505  0.50208128  1
  Ni  Ni28  1  0.00296467  0.99864857  0.66646378  1
  Ni  Ni29  1  0.16670930  0.16652652  0.83257370  1
  Cr  Cr30  1  0.16580310  0.50171585  0.49956786  1
  Fe  Fe31  1  0.00182431  0.33042331  0.66603914  1
  Cr  Cr32  1  0.16601227  0.50005565  0.83333595  1
  Ni  Ni33  1  0.16712165  0.83291258  0.50051078  1
  Fe  Fe34  1  0.00060723  0.67074195  0.66612287  1
  Ni  Ni35  1  0.16874787  0.83434527  0.83218552  1
  Ni  Ni36  1  0.50098393  0.16761193  0.50034433  1
  Ni  Ni37  1  0.33161919  0.00105275  0.66635251  1
  Cr  Cr38  1  0.49937203  0.16428231  0.83332941  1
  Fe  Fe39  1  0.50083782  0.50276564  0.49989227  1
  Ni  Ni40  1  0.33452789  0.33321208  0.66570944  1
  Fe  Fe41  1  0.49835356  0.50144503  0.83153606  1
  Ni  Ni42  1  0.49990058  0.83536717  0.49967155  1
  Fe  Fe43  1  0.33481492  0.67100825  0.66593404  1
  Ni  Ni44  1  0.49974092  0.83327873  0.83350427  1
  Fe  Fe45  1  0.83458317  0.16514823  0.50051274  1
  Cr  Cr46  1  0.66579076  0.99863101  0.66574821  1
  Cr  Cr47  1  0.83408634  0.16722713  0.83366242  1
  Fe  Fe48  1  0.83140737  0.50244216  0.50005090  1
  Fe  Fe49  1  0.66577854  0.33425918  0.66510639  1
  Fe  Fe50  1  0.83306357  0.50202276  0.83043673  1
  Ni  Ni51  1  0.83422386  0.83256992  0.50034134  1
  Fe  Fe52  1  0.66549546  0.66765428  0.66676792  1
  Fe  Fe53  1  0.83495783  0.83527406  0.83216529  1
" 