416,Ni30Fe29Cr40_5,-223.261371544463, 182.985048521906,Ni30Fe29Cr40,"# generated using pymatgen
 data_Cr23Fe15Ni16
_symmetry_space_group_name_H-M   'P 1'
_cell_length_a   7.48660694
_cell_length_b   7.48660694
_cell_length_c   10.58766108
_cell_angle_alpha   90.00000000
_cell_angle_beta   90.00000000
_cell_angle_gamma   90.00000000
_symmetry_Int_Tables_number   1
_chemical_formula_structural   Cr23Fe15Ni16
_chemical_formula_sum   'Cr23 Fe15 Ni16'
_cell_volume   593.43081772
_cell_formula_units_Z   1
loop_
 _symmetry_equiv_pos_site_id
 _symmetry_equiv_pos_as_xyz
  1  'x, y, z'
loop_
 _atom_site_type_symbol
 _atom_site_label
 _atom_site_symmetry_multiplicity
 _atom_site_fract_x
 _atom_site_fract_y
 _atom_site_fract_z
 _atom_site_occupancy
  Ni  Ni0  1  -0.00022057  0.99481088  0.00204967  1
  Cr  Cr1  1  0.16468839  0.16364641  0.16487605  1
  Ni  Ni2  1  0.99554598  0.99660011  0.33089331  1
  Fe  Fe3  1  0.00200789  0.33042247  -0.00048619  1
  Cr  Cr4  1  0.16587662  0.49678648  0.16800668  1
  Ni  Ni5  1  0.99819666  0.33249268  0.33239424  1
  Cr  Cr6  1  0.00206746  0.66715908  -0.00120996  1
  Fe  Fe7  1  0.16728807  0.83134891  0.16668875  1
  Ni  Ni8  1  0.00127576  0.66724684  0.33371410  1
  Ni  Ni9  1  0.33226201  -0.00107010  -0.00103598  1
  Ni  Ni10  1  0.49680981  0.16483360  0.16489010  1
  Cr  Cr11  1  0.33493941  0.99695321  0.33094961  1
  Ni  Ni12  1  0.33473303  0.33429607  0.99827899  1
  Ni  Ni13  1  0.49732677  0.49940639  0.16536266  1
  Fe  Fe14  1  0.33265792  0.33224532  0.33140808  1
  Fe  Fe15  1  0.33363415  0.66534580  0.00055759  1
  Fe  Fe16  1  0.49576331  0.83144679  0.16537732  1
  Ni  Ni17  1  0.33003573  0.66210858  0.33112328  1
  Cr  Cr18  1  0.66540464  0.99860149  0.00328123  1
  Fe  Fe19  1  0.83168193  0.16549890  0.16749779  1
  Ni  Ni20  1  0.66722740  -0.00017401  0.33145789  1
  Cr  Cr21  1  0.66144923  0.33230488  0.99753378  1
  Cr  Cr22  1  0.83119362  0.49835386  0.16401908  1
  Cr  Cr23  1  0.66204726  0.32828236  0.33355461  1
  Fe  Fe24  1  0.66136837  0.66701150  0.00115111  1
  Fe  Fe25  1  0.83366966  0.83366602  0.16794730  1
  Cr  Cr26  1  0.66435711  0.66798695  0.32973635  1
  Cr  Cr27  1  0.16429606  0.16548524  0.49541437  1
  Ni  Ni28  1  0.99756952  0.99564717  0.66291608  1
  Cr  Cr29  1  0.16681358  0.16433668  0.83545546  1
  Fe  Fe30  1  0.16630944  0.49892899  0.49585579  1
  Cr  Cr31  1  0.00012451  0.33245619  0.66679648  1
  Ni  Ni32  1  0.16912483  0.49917750  0.83359133  1
  Cr  Cr33  1  0.16548908  0.83225217  0.49946693  1
  Fe  Fe34  1  0.00024930  0.66483424  0.66476074  1
  Cr  Cr35  1  0.16739293  0.83463908  0.82998250  1
  Ni  Ni36  1  0.49815001  0.16492430  0.49741509  1
  Fe  Fe37  1  0.33182208  0.00207958  0.66460945  1
  Fe  Fe38  1  0.49657850  0.16616760  0.83329006  1
  Fe  Fe39  1  0.49657068  0.49917630  0.49675313  1
  Cr  Cr40  1  0.33327930  0.33407913  0.66400698  1
  Ni  Ni41  1  0.49623524  0.50225994  0.83275462  1
  Cr  Cr42  1  0.49955431  0.83118301  0.49936103  1
  Fe  Fe43  1  0.33098389  0.66330660  0.66480052  1
  Cr  Cr44  1  0.49797102  0.83210163  0.83123941  1
  Ni  Ni45  1  0.83302665  0.16326264  0.49494674  1
  Cr  Cr46  1  0.66628836  0.00167133  0.66182183  1
  Cr  Cr47  1  0.83556983  0.16425184  0.83504260  1
  Cr  Cr48  1  0.83264221  0.50023422  0.49817973  1
  Cr  Cr49  1  0.66263331  0.33100804  0.66512865  1
  Cr  Cr50  1  0.83004367  0.50043931  0.83457726  1
  Ni  Ni51  1  0.83272508  0.83261974  0.49799199  1
  Fe  Fe52  1  0.66461925  0.66403973  0.66394915  1
  Cr  Cr53  1  0.83011016  0.83128676  0.82933507  1
" 