1550,Ni30Fe70_12,-243.329490981805, 219.396656031406,Ni30Fe70,"# generated using pymatgen
 data_Fe8Ni19
_symmetry_space_group_name_H-M   'P 1'
_cell_length_a   7.41190798
_cell_length_b   7.41190798
_cell_length_c   10.48202079
_cell_angle_alpha   90.00000000
_cell_angle_beta   90.00000000
_cell_angle_gamma   90.00000000
_symmetry_Int_Tables_number   1
_chemical_formula_structural   Fe8Ni19
_chemical_formula_sum   'Fe16 Ni38'
_cell_volume   575.84427728
_cell_formula_units_Z   2
loop_
 _symmetry_equiv_pos_site_id
 _symmetry_equiv_pos_as_xyz
  1  'x, y, z'
loop_
 _atom_site_type_symbol
 _atom_site_label
 _atom_site_symmetry_multiplicity
 _atom_site_fract_x
 _atom_site_fract_y
 _atom_site_fract_z
 _atom_site_occupancy
  Ni  Ni0  1  1.00333256  0.00477471  1.00365721  1
  Ni  Ni1  1  0.17024080  0.17119491  0.17058051  1
  Ni  Ni2  1  1.00332409  0.00491146  0.33675167  1
  Ni  Ni3  1  1.00253208  0.33681538  1.00326679  1
  Ni  Ni4  1  0.17028453  0.50333215  0.17066194  1
  Ni  Ni5  1  0.00417788  0.33663000  0.33698937  1
  Fe  Fe6  1  0.00376211  0.67096123  1.00293829  1
  Fe  Fe7  1  0.17093044  0.83759285  0.17024930  1
  Fe  Fe8  1  0.00438653  0.67057875  0.33759402  1
  Ni  Ni9  1  0.33696105  1.00241406  0.00414027  1
  Ni  Ni10  1  0.50403235  0.16997901  0.17064968  1
  Ni  Ni11  1  0.33699008  1.00337574  0.33656841  1
  Fe  Fe12  1  0.33729426  0.33636200  0.00388760  1
  Ni  Ni13  1  0.50299778  0.50354502  0.17155585  1
  Ni  Ni14  1  0.33574834  0.33778610  0.33598482  1
  Ni  Ni15  1  0.33694964  0.67070523  1.00353560  1
  Ni  Ni16  1  0.50452455  0.83763101  0.17011536  1
  Ni  Ni17  1  0.33779984  0.66999895  0.33758239  1
  Ni  Ni18  1  0.67086594  0.00445111  0.00388954  1
  Ni  Ni19  1  0.83688447  0.16966945  0.17085054  1
  Ni  Ni20  1  0.67084958  1.00286203  0.33645437  1
  Ni  Ni21  1  0.67200241  0.33680440  0.00453218  1
  Ni  Ni22  1  0.83787721  0.50381638  0.16998224  1
  Fe  Fe23  1  0.66972000  0.33631299  0.33641197  1
  Fe  Fe24  1  0.67047870  0.67088750  0.00440219  1
  Ni  Ni25  1  0.83667233  0.83767819  0.17113743  1
  Ni  Ni26  1  0.66968803  0.67085630  0.33663824  1
  Fe  Fe27  1  0.17177781  0.16988846  0.50253558  1
  Fe  Fe28  1  1.00358607  1.00256065  0.67092519  1
  Fe  Fe29  1  0.17048603  0.17007662  0.83786039  1
  Ni  Ni30  1  0.17003407  0.50475657  0.50391036  1
  Fe  Fe31  1  0.00388741  0.33797098  0.67048373  1
  Ni  Ni32  1  0.17121160  0.50492805  0.83658449  1
  Ni  Ni33  1  0.17054381  0.83552720  0.50327113  1
  Ni  Ni34  1  0.00400574  0.66995667  0.67047890  1
  Ni  Ni35  1  0.16920048  0.83559877  0.83681494  1
  Ni  Ni36  1  0.50464978  0.16966630  0.50350202  1
  Ni  Ni37  1  0.33729989  1.00350096  0.67044978  1
  Ni  Ni38  1  0.50519546  0.17114370  0.83700556  1
  Fe  Fe39  1  0.50257237  0.50452504  0.50410227  1
  Ni  Ni40  1  0.33696855  0.33737370  0.67128343  1
  Ni  Ni41  1  0.50246422  0.50252674  0.83593036  1
  Ni  Ni42  1  0.50349111  0.83823872  0.50488580  1
  Ni  Ni43  1  0.33639464  0.67028352  0.67004220  1
  Fe  Fe44  1  0.50340978  0.83721979  0.83681367  1
  Fe  Fe45  1  0.83698531  0.16971739  0.50355535  1
  Ni  Ni46  1  0.67024158  0.00388278  0.67081756  1
  Ni  Ni47  1  0.83559646  0.16913372  0.83675194  1
  Fe  Fe48  1  0.83685440  0.50445808  0.50352451  1
  Ni  Ni49  1  0.67056322  0.33698258  0.66993815  1
  Fe  Fe50  1  0.83681300  0.50340994  0.83710229  1
  Fe  Fe51  1  0.83657377  0.83698244  0.50379429  1
  Ni  Ni52  1  0.67075311  0.67029510  0.67137523  1
  Ni  Ni53  1  0.83799466  0.83833052  0.83611499  1
" 