5908,Ni30Fe44Cr24_1,-228.825459095332, 187.614534582873,Ni30Fe44Cr24,"# generated using pymatgen
 data_Cr7(Fe3Ni2)4
_symmetry_space_group_name_H-M   'P 1'
_cell_length_a   7.45397544
_cell_length_b   7.45397544
_cell_length_c   10.54151315
_cell_angle_alpha   90.00000000
_cell_angle_beta   90.00000000
_cell_angle_gamma   90.00000000
_symmetry_Int_Tables_number   1
_chemical_formula_structural   Cr7(Fe3Ni2)4
_chemical_formula_sum   'Cr14 Fe24 Ni16'
_cell_volume   585.70491634
_cell_formula_units_Z   2
loop_
 _symmetry_equiv_pos_site_id
 _symmetry_equiv_pos_as_xyz
  1  'x, y, z'
loop_
 _atom_site_type_symbol
 _atom_site_label
 _atom_site_symmetry_multiplicity
 _atom_site_fract_x
 _atom_site_fract_y
 _atom_site_fract_z
 _atom_site_occupancy
  Ni  Ni0  1  0.99954891  0.00201089  1.00062248  1
  Fe  Fe1  1  0.16502588  0.16882848  0.16713801  1
  Ni  Ni2  1  0.99969877  0.00302515  0.33433938  1
  Fe  Fe3  1  0.99975130  0.33388838  0.00257465  1
  Ni  Ni4  1  0.16724852  0.50055175  0.16753874  1
  Fe  Fe5  1  0.99874009  0.33589575  0.33293057  1
  Fe  Fe6  1  0.00246297  0.66877534  0.00155017  1
  Ni  Ni7  1  0.16445291  0.83246297  0.16833212  1
  Fe  Fe8  1  0.00095406  0.66860735  0.33366621  1
  Cr  Cr9  1  0.33330813  0.00108646  0.00193089  1
  Cr  Cr10  1  0.50341443  0.16843600  0.16785892  1
  Cr  Cr11  1  0.33320992  0.99902026  0.33311226  1
  Ni  Ni12  1  0.33337808  0.33763333  0.00104062  1
  Ni  Ni13  1  0.50055980  0.50014589  0.16717677  1
  Fe  Fe14  1  0.33573269  0.33714042  0.33249017  1
  Fe  Fe15  1  0.33350100  0.66624453  0.00239543  1
  Cr  Cr16  1  0.50363599  0.83220994  0.16738435  1
  Ni  Ni17  1  0.33542243  0.66431914  0.33322561  1
  Ni  Ni18  1  0.67003458  1.00014392  0.99737338  1
  Fe  Fe19  1  0.83558787  0.16780926  0.16700578  1
  Ni  Ni20  1  0.67003290  1.00063976  0.33735528  1
  Fe  Fe21  1  0.66635267  0.33296901  1.00076769  1
  Fe  Fe22  1  0.83293078  0.50119106  0.16797444  1
  Fe  Fe23  1  0.66778131  0.33543442  0.33490506  1
  Ni  Ni24  1  0.66699071  0.66507565  0.00103654  1
  Cr  Cr25  1  0.83329633  0.83514463  0.16737585  1
  Ni  Ni26  1  0.66652301  0.66435399  0.33475037  1
  Cr  Cr27  1  0.16907755  0.16821766  0.49871284  1
  Cr  Cr28  1  0.99934189  1.00038995  0.66736690  1
  Cr  Cr29  1  0.16814298  0.16951465  0.83588450  1
  Cr  Cr30  1  0.16792618  0.50120760  0.50186148  1
  Cr  Cr31  1  0.99823024  0.33515529  0.66851197  1
  Fe  Fe32  1  0.16928635  0.50272553  0.83554837  1
  Fe  Fe33  1  0.16653776  0.83110591  0.49859173  1
  Fe  Fe34  1  0.00090335  0.66955887  0.66784761  1
  Fe  Fe35  1  0.16552968  0.83191135  0.83604628  1
  Fe  Fe36  1  0.50332838  0.17101382  0.49996202  1
  Cr  Cr37  1  0.33553168  0.99916947  0.66703668  1
  Ni  Ni38  1  0.50212102  0.16941790  0.83384677  1
  Ni  Ni39  1  0.50141007  0.49989178  0.50055854  1
  Fe  Fe40  1  0.33857252  0.33631034  0.66893984  1
  Fe  Fe41  1  0.50014814  0.49977334  0.83572386  1
  Fe  Fe42  1  0.50116815  0.83090081  0.49816830  1
  Fe  Fe43  1  0.33388970  0.66706691  0.66763228  1
  Fe  Fe44  1  0.50315789  0.83350246  0.83652002  1
  Fe  Fe45  1  0.83267964  0.17042170  0.49902361  1
  Cr  Cr46  1  0.66808043  1.00042148  0.66717365  1
  Ni  Ni47  1  0.83164743  0.16634339  0.83622287  1
  Ni  Ni48  1  0.83319889  0.50245427  0.49887528  1
  Fe  Fe49  1  0.66626348  0.33361300  0.66682468  1
  Cr  Cr50  1  0.83454156  0.50210263  0.83607763  1
  Fe  Fe51  1  0.83487467  0.83219958  0.49827429  1
  Cr  Cr52  1  0.66715095  0.66626087  0.66647787  1
  Ni  Ni53  1  0.83503380  0.83365611  0.83578879  1
" 