450,Ni30Fe24Cr45_11,-221.828729930515, 173.116959201111,Ni30Fe24Cr45,"# generated using pymatgen
 data_Cr25Fe13Ni16
_symmetry_space_group_name_H-M   'P 1'
_cell_length_a   7.50321906
_cell_length_b   7.50321906
_cell_length_c   10.61115416
_cell_angle_alpha   90.00000000
_cell_angle_beta   90.00000000
_cell_angle_gamma   90.00000000
_symmetry_Int_Tables_number   1
_chemical_formula_structural   Cr25Fe13Ni16
_chemical_formula_sum   'Cr25 Fe13 Ni16'
_cell_volume   597.38990049
_cell_formula_units_Z   1
loop_
 _symmetry_equiv_pos_site_id
 _symmetry_equiv_pos_as_xyz
  1  'x, y, z'
loop_
 _atom_site_type_symbol
 _atom_site_label
 _atom_site_symmetry_multiplicity
 _atom_site_fract_x
 _atom_site_fract_y
 _atom_site_fract_z
 _atom_site_occupancy
  Cr  Cr0  1  0.99668926  -0.00178108  0.99509234  1
  Cr  Cr1  1  0.16414439  0.16917688  0.16473843  1
  Cr  Cr2  1  -0.00109615  0.99739225  0.33094793  1
  Fe  Fe3  1  0.99494336  0.33284942  0.99659522  1
  Fe  Fe4  1  0.16293713  0.49675986  0.16248753  1
  Ni  Ni5  1  0.00002480  0.33726816  0.33064991  1
  Ni  Ni6  1  0.99629958  0.65998279  0.99643994  1
  Cr  Cr7  1  0.16549309  0.82693311  0.16439478  1
  Cr  Cr8  1  0.99704292  0.66095302  0.33165096  1
  Cr  Cr9  1  0.33054968  -0.00120042  0.99669935  1
  Cr  Cr10  1  0.49733375  0.16693155  0.16425237  1
  Ni  Ni11  1  0.33005249  0.99620862  0.33151860  1
  Fe  Fe12  1  0.33200622  0.33312505  0.99650664  1
  Cr  Cr13  1  0.49745038  0.49919583  0.16195284  1
  Ni  Ni14  1  0.32876037  0.33445762  0.33150432  1
  Ni  Ni15  1  0.33055563  0.66092666  -0.00111498  1
  Fe  Fe16  1  0.49708654  0.82984985  0.16206407  1
  Fe  Fe17  1  0.33036071  0.66143658  0.33139658  1
  Ni  Ni18  1  0.66581536  -0.00125762  0.99650904  1
  Cr  Cr19  1  0.83144272  0.16838722  0.16396326  1
  Cr  Cr20  1  0.66297464  0.99569886  0.32803099  1
  Ni  Ni21  1  0.66657852  0.33272183  0.99434800  1
  Fe  Fe22  1  0.83238573  0.49648954  0.16110509  1
  Cr  Cr23  1  0.66557137  0.33473167  0.33383505  1
  Ni  Ni24  1  0.66585539  0.66098815  0.99702275  1
  Cr  Cr25  1  0.82873554  0.82668263  0.16075153  1
  Fe  Fe26  1  0.66286001  0.66166486  0.33036434  1
  Cr  Cr27  1  0.16351090  0.16420961  0.49755220  1
  Fe  Fe28  1  -0.00189809  -0.00063296  0.66599109  1
  Ni  Ni29  1  0.16004123  0.16559727  0.83000675  1
  Fe  Fe30  1  0.16511380  0.49718121  0.49694986  1
  Fe  Fe31  1  0.99641896  0.33177157  0.66636181  1
  Cr  Cr32  1  0.16411042  0.49781631  0.83479873  1
  Ni  Ni33  1  0.16382318  0.82865485  0.49862935  1
  Fe  Fe34  1  0.99727955  0.66146667  0.66504720  1
  Cr  Cr35  1  0.16248706  0.82963622  0.82843563  1
  Cr  Cr36  1  0.49656826  0.16681998  0.49787348  1
  Ni  Ni37  1  0.32581823  -0.00228470  0.66358850  1
  Cr  Cr38  1  0.49821676  0.16787597  0.83106642  1
  Ni  Ni39  1  0.49770008  0.49777373  0.49677088  1
  Cr  Cr40  1  0.33315932  0.33267868  0.66658534  1
  Ni  Ni41  1  0.50090502  0.49721946  0.83328405  1
  Cr  Cr42  1  0.49570275  0.82941628  0.49423682  1
  Cr  Cr43  1  0.33050673  0.66275877  0.66254937  1
  Cr  Cr44  1  0.49772365  0.82653749  0.83458896  1
  Cr  Cr45  1  0.83329076  0.16668669  0.49806724  1
  Cr  Cr46  1  0.66448443  -0.00019575  0.66768818  1
  Ni  Ni47  1  0.83229945  0.16781307  0.83118172  1
  Fe  Fe48  1  0.83270604  0.49698965  0.49970510  1
  Ni  Ni49  1  0.66818184  0.33438213  0.66496413  1
  Ni  Ni50  1  0.83020421  0.49610319  0.83188110  1
  Cr  Cr51  1  0.83341703  0.82945280  0.49991674  1
  Cr  Cr52  1  0.66486829  0.65915529  0.66526634  1
  Fe  Fe53  1  0.83034530  0.82838226  0.83314475  1
" 