2266,Ni30Fe70_8,-243.162800372669, 220.496011764127,Ni30Fe70,"# generated using pymatgen
 data_Fe8Ni19
_symmetry_space_group_name_H-M   'P 1'
_cell_length_a   7.41125434
_cell_length_b   7.41125434
_cell_length_c   10.48109640
_cell_angle_alpha   90.00000000
_cell_angle_beta   90.00000000
_cell_angle_gamma   90.00000000
_symmetry_Int_Tables_number   1
_chemical_formula_structural   Fe8Ni19
_chemical_formula_sum   'Fe16 Ni38'
_cell_volume   575.69194179
_cell_formula_units_Z   2
loop_
 _symmetry_equiv_pos_site_id
 _symmetry_equiv_pos_as_xyz
  1  'x, y, z'
loop_
 _atom_site_type_symbol
 _atom_site_label
 _atom_site_symmetry_multiplicity
 _atom_site_fract_x
 _atom_site_fract_y
 _atom_site_fract_z
 _atom_site_occupancy
  Ni  Ni0  1  0.00512065  1.00332505  0.00482388  1
  Fe  Fe1  1  0.17057186  0.16909999  0.17068992  1
  Fe  Fe2  1  1.00181472  1.00293061  0.33761876  1
  Ni  Ni3  1  0.00392551  0.33795299  1.00319452  1
  Ni  Ni4  1  0.16969886  0.50319054  0.17024887  1
  Ni  Ni5  1  0.00440562  0.33841019  0.33764058  1
  Ni  Ni6  1  0.00442964  0.66969806  1.00339482  1
  Ni  Ni7  1  0.17015002  0.83535739  0.17093115  1
  Ni  Ni8  1  0.00456368  0.66915960  0.33714513  1
  Ni  Ni9  1  0.33766725  1.00280751  1.00196089  1
  Ni  Ni10  1  0.50329709  0.17156078  0.16983726  1
  Ni  Ni11  1  0.33708304  1.00341336  0.33874990  1
  Fe  Fe12  1  0.33717813  0.33629923  1.00314337  1
  Fe  Fe13  1  0.50489306  0.50596968  0.17130628  1
  Fe  Fe14  1  0.33785814  0.33677518  0.33790665  1
  Fe  Fe15  1  0.33731301  0.67192093  1.00318527  1
  Ni  Ni16  1  0.50395865  0.83880297  0.17111355  1
  Fe  Fe17  1  0.33712221  0.67028598  0.33794467  1
  Ni  Ni18  1  0.66860732  1.00367566  0.00417331  1
  Fe  Fe19  1  0.83723602  0.17040487  0.16956089  1
  Ni  Ni20  1  0.66778279  0.00425853  0.33656549  1
  Ni  Ni21  1  0.67018012  0.33761290  0.00432488  1
  Ni  Ni22  1  0.83794884  0.50442195  0.17069801  1
  Ni  Ni23  1  0.67143191  0.33636451  0.33666145  1
  Ni  Ni24  1  0.66991449  0.67038853  1.00339085  1
  Ni  Ni25  1  0.83692582  0.83523973  0.16948592  1
  Ni  Ni26  1  0.67127985  0.67085596  0.33809066  1
  Ni  Ni27  1  0.17167079  0.17141766  0.50365325  1
  Ni  Ni28  1  1.00330043  1.00347882  0.67025808  1
  Ni  Ni29  1  0.17017944  0.17118051  0.83702251  1
  Ni  Ni30  1  0.17102255  0.50352382  0.50435807  1
  Ni  Ni31  1  0.00412530  0.33772159  0.67057682  1
  Fe  Fe32  1  0.17019286  0.50380079  0.83634608  1
  Ni  Ni33  1  0.16758442  0.83646678  0.50370646  1
  Ni  Ni34  1  0.00521879  0.67004825  0.67081650  1
  Ni  Ni35  1  0.16920024  0.83697328  0.83690734  1
  Ni  Ni36  1  0.50418976  0.17201066  0.50509873  1
  Fe  Fe37  1  0.33534872  0.00496239  0.67073255  1
  Ni  Ni38  1  0.50418305  0.17161574  0.83648823  1
  Ni  Ni39  1  0.50430023  0.50182210  0.50310387  1
  Ni  Ni40  1  0.33705095  0.33832167  0.67030223  1
  Fe  Fe41  1  0.50431285  0.50406337  0.83540199  1
  Fe  Fe42  1  0.50228484  0.83716936  0.50390936  1
  Ni  Ni43  1  0.33638201  0.67090204  0.66942009  1
  Ni  Ni44  1  0.50459270  0.83766568  0.83547820  1
  Fe  Fe45  1  0.83760865  0.17046624  0.50461804  1
  Ni  Ni46  1  0.66970348  0.00399345  0.67043795  1
  Ni  Ni47  1  0.83670147  0.16991082  0.83763819  1
  Fe  Fe48  1  0.83817474  0.50312090  0.50297200  1
  Ni  Ni49  1  0.67045099  0.33621288  0.67006321  1
  Fe  Fe50  1  0.83718465  0.50311078  0.83804213  1
  Ni  Ni51  1  0.83680759  0.83619423  0.50376961  1
  Fe  Fe52  1  0.67165065  0.66978350  0.66992002  1
  Ni  Ni53  1  0.83748046  0.83714091  0.83843247  1
" 