4242,Ni30Fe44Cr24_4,-228.349446226181, 193.3175655093,Ni30Fe44Cr24,"# generated using pymatgen
 data_Cr7(Fe3Ni2)4
_symmetry_space_group_name_H-M   'P 1'
_cell_length_a   7.44558330
_cell_length_b   7.44558330
_cell_length_c   10.52964488
_cell_angle_alpha   90.00000000
_cell_angle_beta   90.00000000
_cell_angle_gamma   90.00000000
_symmetry_Int_Tables_number   1
_chemical_formula_structural   Cr7(Fe3Ni2)4
_chemical_formula_sum   'Cr14 Fe24 Ni16'
_cell_volume   583.72887720
_cell_formula_units_Z   2
loop_
 _symmetry_equiv_pos_site_id
 _symmetry_equiv_pos_as_xyz
  1  'x, y, z'
loop_
 _atom_site_type_symbol
 _atom_site_label
 _atom_site_symmetry_multiplicity
 _atom_site_fract_x
 _atom_site_fract_y
 _atom_site_fract_z
 _atom_site_occupancy
  Fe  Fe0  1  0.99899164  0.00159821  0.99997821  1
  Cr  Cr1  1  0.16909567  0.16727993  0.16885209  1
  Fe  Fe2  1  0.00186114  0.99840240  0.33622412  1
  Ni  Ni3  1  0.00191717  0.33484562  1.00042111  1
  Fe  Fe4  1  0.16609096  0.50186407  0.16781727  1
  Cr  Cr5  1  1.00141933  0.33443958  0.33441477  1
  Ni  Ni6  1  1.00099212  0.66678127  0.00155893  1
  Cr  Cr7  1  0.16807845  0.83365958  0.16916596  1
  Fe  Fe8  1  1.00105378  0.66911715  0.33429625  1
  Cr  Cr9  1  0.33652385  1.00137519  0.00169192  1
  Fe  Fe10  1  0.50282735  0.16908722  0.16956790  1
  Fe  Fe11  1  0.33495313  0.99953989  0.33612065  1
  Fe  Fe12  1  0.33222609  0.33644224  0.00144205  1
  Ni  Ni13  1  0.50210926  0.50197088  0.16921729  1
  Ni  Ni14  1  0.33456895  0.33785576  0.33259652  1
  Cr  Cr15  1  0.33571886  0.66474572  0.00165716  1
  Fe  Fe16  1  0.50363697  0.83234592  0.16886556  1
  Ni  Ni17  1  0.33625173  0.66640465  0.33527659  1
  Fe  Fe18  1  0.67221751  0.99917055  0.00252960  1
  Ni  Ni19  1  0.83609432  0.16832755  0.16620445  1
  Cr  Cr20  1  0.67073922  1.00018723  0.33279810  1
  Cr  Cr21  1  0.66813618  0.33413581  0.00404408  1
  Ni  Ni22  1  0.83396740  0.50310352  0.16870436  1
  Fe  Fe23  1  0.66528953  0.33758131  0.33164405  1
  Fe  Fe24  1  0.67035490  0.66839479  0.00350834  1
  Ni  Ni25  1  0.83579085  0.83233522  0.16676161  1
  Ni  Ni26  1  0.66626418  0.66953722  0.33351560  1
  Fe  Fe27  1  0.17046202  0.16808785  0.50189112  1
  Cr  Cr28  1  1.00094033  0.00189148  0.66807712  1
  Ni  Ni29  1  0.16761722  0.16922165  0.83388253  1
  Fe  Fe30  1  0.17158060  0.50258603  0.50179195  1
  Fe  Fe31  1  0.00414803  0.33680147  0.66940902  1
  Fe  Fe32  1  0.16876693  0.50040197  0.83428649  1
  Ni  Ni33  1  0.17049183  0.83334038  0.50155543  1
  Fe  Fe34  1  0.00357193  0.66902095  0.66804542  1
  Fe  Fe35  1  0.16608683  0.83337198  0.83390742  1
  Cr  Cr36  1  0.49969509  0.16890345  0.50207911  1
  Fe  Fe37  1  0.33414308  0.99919216  0.66754671  1
  Cr  Cr38  1  0.50032063  0.16827149  0.83330653  1
  Fe  Fe39  1  0.49894075  0.50390827  0.50063941  1
  Ni  Ni40  1  0.33226432  0.33791157  0.66916284  1
  Fe  Fe41  1  0.49997703  0.50051701  0.83332965  1
  Ni  Ni42  1  0.49872553  0.83355352  0.50196533  1
  Ni  Ni43  1  0.33508280  0.66545931  0.66763716  1
  Cr  Cr44  1  0.50204948  0.83307160  0.83404277  1
  Cr  Cr45  1  0.83347698  0.17166112  0.50305783  1
  Ni  Ni46  1  0.66990948  0.99905769  0.66897262  1
  Fe  Fe47  1  0.83568064  0.16720517  0.83560479  1
  Cr  Cr48  1  0.83250687  0.50394052  0.50117888  1
  Fe  Fe49  1  0.66544122  0.33672379  0.66916551  1
  Cr  Cr50  1  0.83441576  0.50342400  0.83365645  1
  Fe  Fe51  1  0.83301206  0.83371026  0.50109349  1
  Ni  Ni52  1  0.66586552  0.67050761  0.66737099  1
  Fe  Fe53  1  0.83549277  0.83556552  0.83630514  1
" 