3120,Ni30Fe9Cr59_4,-215.420008552878, 154.515556486696,Ni30Fe9Cr59,"# generated using pymatgen
 data_Cr33Fe5Ni16
_symmetry_space_group_name_H-M   'P 1'
_cell_length_a   7.53387110
_cell_length_b   7.53387110
_cell_length_c   10.65450269
_cell_angle_alpha   90.00000000
_cell_angle_beta   90.00000000
_cell_angle_gamma   90.00000000
_symmetry_Int_Tables_number   1
_chemical_formula_structural   Cr33Fe5Ni16
_chemical_formula_sum   'Cr33 Fe5 Ni16'
_cell_volume   604.74119603
_cell_formula_units_Z   1
loop_
 _symmetry_equiv_pos_site_id
 _symmetry_equiv_pos_as_xyz
  1  'x, y, z'
loop_
 _atom_site_type_symbol
 _atom_site_label
 _atom_site_symmetry_multiplicity
 _atom_site_fract_x
 _atom_site_fract_y
 _atom_site_fract_z
 _atom_site_occupancy
  Cr  Cr0  1  0.99323344  0.99413144  -0.00185146  1
  Fe  Fe1  1  0.16301541  0.16239503  0.16212654  1
  Cr  Cr2  1  0.99171171  -0.00309518  0.32526932  1
  Cr  Cr3  1  0.99472266  0.32578133  -0.00173315  1
  Cr  Cr4  1  0.16259848  0.49703046  0.16305256  1
  Cr  Cr5  1  0.99356916  0.32442083  0.32873130  1
  Ni  Ni6  1  0.99102518  0.66504243  0.99490333  1
  Cr  Cr7  1  0.16228857  0.82637806  0.16177881  1
  Cr  Cr8  1  0.99391540  0.66502508  0.32811098  1
  Cr  Cr9  1  0.32974726  -0.00250588  -0.00338077  1
  Ni  Ni10  1  0.50061313  0.16252515  0.15995810  1
  Cr  Cr11  1  0.33015325  0.99504525  0.32695757  1
  Cr  Cr12  1  0.33204923  0.32795416  0.99485768  1
  Ni  Ni13  1  0.49629741  0.49401516  0.16064670  1
  Cr  Cr14  1  0.33143721  0.32980871  0.32681493  1
  Cr  Cr15  1  0.33185301  0.66182597  0.99537039  1
  Cr  Cr16  1  0.49865058  0.82999435  0.16421618  1
  Ni  Ni17  1  0.33271604  0.66143335  0.33060752  1
  Ni  Ni18  1  0.66363272  -0.00421978  -0.00393823  1
  Ni  Ni19  1  0.82228779  0.16000331  0.16214828  1
  Ni  Ni20  1  0.66320302  -0.00334298  0.32856566  1
  Ni  Ni21  1  0.65988562  0.32805243  -0.00361919  1
  Cr  Cr22  1  0.82671424  0.49628341  0.15953347  1
  Cr  Cr23  1  0.66206042  0.32788709  0.32928447  1
  Ni  Ni24  1  0.66386997  0.66302993  -0.00411911  1
  Ni  Ni25  1  0.82562934  0.83187633  0.15892224  1
  Cr  Cr26  1  0.65966710  0.66353088  0.32968898  1
  Cr  Cr27  1  0.16191772  0.16028263  0.49684247  1
  Ni  Ni28  1  0.99424358  0.99335189  0.66223005  1
  Cr  Cr29  1  0.16388497  0.16029230  0.82671305  1
  Cr  Cr30  1  0.16234608  0.49748203  0.49494841  1
  Cr  Cr31  1  0.99406062  0.32719473  0.65962818  1
  Cr  Cr32  1  0.15990567  0.49716079  0.82859597  1
  Cr  Cr33  1  0.16436098  0.82900088  0.49704430  1
  Ni  Ni34  1  0.99362778  0.66694844  0.66394092  1
  Cr  Cr35  1  0.16027815  0.82862385  0.82750423  1
  Cr  Cr36  1  0.49802694  0.15859132  0.49720197  1
  Ni  Ni37  1  0.33006021  0.99512766  0.66261508  1
  Fe  Fe38  1  0.49822395  0.16103094  0.83001791  1
  Ni  Ni39  1  0.49431767  0.49623170  0.49471076  1
  Cr  Cr40  1  0.33220688  0.32903426  0.66478292  1
  Fe  Fe41  1  0.49872226  0.49625441  0.83105537  1
  Fe  Fe42  1  0.49596940  0.82990241  0.49491426  1
  Cr  Cr43  1  0.33229811  0.66256112  0.66076676  1
  Cr  Cr44  1  0.49857401  0.83307676  0.82885938  1
  Ni  Ni45  1  0.82617702  0.15793706  0.49648936  1
  Fe  Fe46  1  0.66354131  0.99463043  0.66268582  1
  Cr  Cr47  1  0.82539848  0.16024931  0.82788615  1
  Cr  Cr48  1  0.82907406  0.49406333  0.49588821  1
  Cr  Cr49  1  0.66092065  0.33014249  0.66202286  1
  Cr  Cr50  1  0.82890234  0.49746219  0.83179329  1
  Cr  Cr51  1  0.82748508  0.83169198  0.49679050  1
  Cr  Cr52  1  0.66235327  0.66246900  0.66172553  1
  Ni  Ni53  1  0.82709244  0.82941677  0.82996016  1
" 