7208,Ni30Fe9Cr59_7,-215.150279328628, 148.438058703554,Ni30Fe9Cr59,"# generated using pymatgen
 data_Cr33Fe5Ni16
_symmetry_space_group_name_H-M   'P 1'
_cell_length_a   7.53664623
_cell_length_b   7.53664623
_cell_length_c   10.65842731
_cell_angle_alpha   90.00000000
_cell_angle_beta   90.00000000
_cell_angle_gamma   90.00000000
_symmetry_Int_Tables_number   1
_chemical_formula_structural   Cr33Fe5Ni16
_chemical_formula_sum   'Cr33 Fe5 Ni16'
_cell_volume   605.40971712
_cell_formula_units_Z   1
loop_
 _symmetry_equiv_pos_site_id
 _symmetry_equiv_pos_as_xyz
  1  'x, y, z'
loop_
 _atom_site_type_symbol
 _atom_site_label
 _atom_site_symmetry_multiplicity
 _atom_site_fract_x
 _atom_site_fract_y
 _atom_site_fract_z
 _atom_site_occupancy
  Cr  Cr0  1  -0.00280720  0.99462699  -0.00069700  1
  Cr  Cr1  1  0.16365104  0.16176714  0.16554081  1
  Ni  Ni2  1  -0.00277005  -0.00384743  0.32857134  1
  Cr  Cr3  1  0.99502615  0.32874201  0.99470533  1
  Cr  Cr4  1  0.16317934  0.49645236  0.16132503  1
  Cr  Cr5  1  -0.00405826  0.32735593  0.33065089  1
  Ni  Ni6  1  -0.00181573  0.66161141  0.99469218  1
  Ni  Ni7  1  0.16300557  0.82913177  0.15990624  1
  Cr  Cr8  1  -0.00190550  0.66333077  0.33031236  1
  Ni  Ni9  1  0.32905001  0.99405542  0.99399669  1
  Cr  Cr10  1  0.49364162  0.16384675  0.16192923  1
  Cr  Cr11  1  0.32645505  0.99350484  0.33013121  1
  Cr  Cr12  1  0.32944249  0.32903247  0.99340293  1
  Cr  Cr13  1  0.49503042  0.49528469  0.16266021  1
  Ni  Ni14  1  0.32747334  0.32972407  0.33271213  1
  Fe  Fe15  1  0.32831823  0.66241316  0.99443389  1
  Cr  Cr16  1  0.49371668  0.82710352  0.16143282  1
  Cr  Cr17  1  0.32727021  0.65955530  0.33152824  1
  Cr  Cr18  1  0.66186160  -0.00131037  -0.00398092  1
  Ni  Ni19  1  0.82902598  0.16279341  0.16230671  1
  Cr  Cr20  1  0.66588670  -0.00346379  0.32856475  1
  Ni  Ni21  1  0.65947959  0.33158623  0.99373530  1
  Cr  Cr22  1  0.82761915  0.49543552  0.15989126  1
  Cr  Cr23  1  0.66168281  0.32858567  0.32973607  1
  Ni  Ni24  1  0.66045926  0.65977414  0.99339630  1
  Cr  Cr25  1  0.82979284  0.82580107  0.16060771  1
  Cr  Cr26  1  0.66000281  0.66105227  0.33488788  1
  Ni  Ni27  1  0.16033393  0.16325610  0.49570364  1
  Cr  Cr28  1  -0.00435704  -0.00299546  0.65961453  1
  Cr  Cr29  1  0.16428018  0.16286504  0.82520322  1
  Ni  Ni30  1  0.16233764  0.49138881  0.49584371  1
  Ni  Ni31  1  -0.00192184  0.32951423  0.65938025  1
  Ni  Ni32  1  0.16373909  0.49543280  0.82946457  1
  Fe  Fe33  1  0.16180910  0.82990111  0.49482224  1
  Cr  Cr34  1  -0.00106691  0.65864061  0.66075749  1
  Cr  Cr35  1  0.16293573  0.82836076  0.82980092  1
  Cr  Cr36  1  0.49195389  0.16139275  0.49551954  1
  Fe  Fe37  1  0.32717319  -0.00456476  0.66022169  1
  Fe  Fe38  1  0.49462913  0.16369757  0.82956063  1
  Ni  Ni39  1  0.49288284  0.49549315  0.49523742  1
  Cr  Cr40  1  0.32739856  0.33113222  0.66249048  1
  Fe  Fe41  1  0.49513994  0.49657076  0.82942460  1
  Ni  Ni42  1  0.49112527  0.82832347  0.49671448  1
  Cr  Cr43  1  0.32755595  0.66130182  0.65972274  1
  Cr  Cr44  1  0.49445300  0.82999709  0.82825841  1
  Ni  Ni45  1  0.83291459  0.16379076  0.49542823  1
  Cr  Cr46  1  0.66031269  -0.00329693  0.66185944  1
  Cr  Cr47  1  0.82962996  0.16428853  0.82718876  1
  Ni  Ni48  1  0.83090245  0.49184803  0.49743436  1
  Cr  Cr49  1  0.66229200  0.32893599  0.66198436  1
  Cr  Cr50  1  0.83088860  0.49608835  0.82854679  1
  Cr  Cr51  1  0.82784117  0.82863926  0.49641633  1
  Cr  Cr52  1  0.65954461  0.66095266  0.65791433  1
  Cr  Cr53  1  0.82822142  0.82576324  0.82977052  1
" 