3606,Ni30Fe44Cr25_1,-228.620475452694, 191.950421155616,Ni30Fe44Cr25,"# generated using pymatgen
 data_Cr15Fe23Ni16
_symmetry_space_group_name_H-M   'P 1'
_cell_length_a   7.46066442
_cell_length_b   7.46066442
_cell_length_c   10.55097280
_cell_angle_alpha   90.00000000
_cell_angle_beta   90.00000000
_cell_angle_gamma   90.00000000
_symmetry_Int_Tables_number   1
_chemical_formula_structural   Cr15Fe23Ni16
_chemical_formula_sum   'Cr15 Fe23 Ni16'
_cell_volume   587.28311581
_cell_formula_units_Z   1
loop_
 _symmetry_equiv_pos_site_id
 _symmetry_equiv_pos_as_xyz
  1  'x, y, z'
loop_
 _atom_site_type_symbol
 _atom_site_label
 _atom_site_symmetry_multiplicity
 _atom_site_fract_x
 _atom_site_fract_y
 _atom_site_fract_z
 _atom_site_occupancy
  Cr  Cr0  1  0.99907517  0.99847364  0.00462887  1
  Fe  Fe1  1  0.16878850  0.17219473  0.16723082  1
  Cr  Cr2  1  0.99828446  0.99887782  0.33001279  1
  Ni  Ni3  1  0.00170210  0.33582662  0.00138004  1
  Fe  Fe4  1  0.16962175  0.49875282  0.16665447  1
  Ni  Ni5  1  0.00058834  0.33678828  0.33068760  1
  Fe  Fe6  1  0.99957815  0.66489515  0.00178267  1
  Fe  Fe7  1  0.17178159  0.83032167  0.16598233  1
  Cr  Cr8  1  0.00307130  0.66684244  0.33470100  1
  Fe  Fe9  1  0.33343608  0.00277761  0.00337068  1
  Ni  Ni10  1  0.49916208  0.16832135  0.16891495  1
  Cr  Cr11  1  0.33410272  0.99884964  0.33336303  1
  Fe  Fe12  1  0.33458252  0.33460265  0.00188132  1
  Ni  Ni13  1  0.50060767  0.50224299  0.16733586  1
  Ni  Ni14  1  0.33540759  0.33768197  0.33290191  1
  Fe  Fe15  1  0.33271345  0.66410436  0.00213195  1
  Fe  Fe16  1  0.50104381  0.83209066  0.16717620  1
  Ni  Ni17  1  0.33523999  0.66320593  0.33309836  1
  Cr  Cr18  1  0.66658719  0.00119447  0.99919778  1
  Fe  Fe19  1  0.83121611  0.17181296  0.16753903  1
  Ni  Ni20  1  0.66743685  0.00050751  0.33127721  1
  Cr  Cr21  1  0.66531338  0.33431394  0.99592270  1
  Fe  Fe22  1  0.83276796  0.49927809  0.16585137  1
  Fe  Fe23  1  0.66504407  0.33559693  0.33161354  1
  Fe  Fe24  1  0.66931981  0.66503150  1.00035178  1
  Fe  Fe25  1  0.82846328  0.83047816  0.16810262  1
  Fe  Fe26  1  0.66721067  0.66484931  0.33335794  1
  Cr  Cr27  1  0.16705622  0.16973689  0.49901911  1
  Cr  Cr28  1  0.99949416  0.99721098  0.66669999  1
  Cr  Cr29  1  0.16679670  0.16727072  0.83503885  1
  Fe  Fe30  1  0.16688377  0.50194529  0.49983933  1
  Ni  Ni31  1  0.00104359  0.33660155  0.66871452  1
  Fe  Fe32  1  0.16718552  0.50130141  0.83539250  1
  Ni  Ni33  1  0.16789860  0.83026696  0.50255610  1
  Fe  Fe34  1  0.99943642  0.66434484  0.66607232  1
  Fe  Fe35  1  0.16620362  0.83005985  0.83390459  1
  Fe  Fe36  1  0.50154497  0.16689557  0.49781687  1
  Fe  Fe37  1  0.33375040  0.99923590  0.66640058  1
  Ni  Ni38  1  0.49753699  0.16720820  0.83346675  1
  Fe  Fe39  1  0.50077112  0.50144230  0.49887702  1
  Cr  Cr40  1  0.33554103  0.33749058  0.66723126  1
  Ni  Ni41  1  0.50056434  0.50306463  0.83506282  1
  Cr  Cr42  1  0.50095523  0.83066336  0.49936311  1
  Ni  Ni43  1  0.33179048  0.66615606  0.66690095  1
  Cr  Cr44  1  0.49740786  0.83141918  0.83533316  1
  Cr  Cr45  1  0.83484732  0.17062434  0.49699475  1
  Cr  Cr46  1  0.66765161  0.00163590  0.66961682  1
  Ni  Ni47  1  0.83670840  0.17042480  0.83463507  1
  Fe  Fe48  1  0.83484857  0.50253115  0.50155386  1
  Cr  Cr49  1  0.66683761  0.33552709  0.67024688  1
  Ni  Ni50  1  0.83607263  0.50243154  0.83372052  1
  Ni  Ni51  1  0.83276480  0.83077170  0.50026009  1
  Ni  Ni52  1  0.66595180  0.66606608  0.66827681  1
  Fe  Fe53  1  0.83341028  0.83086062  0.83365724  1
" 