4499,Ni30Fe70_4,-243.341542850323, 217.276903451733,Ni30Fe70,"# generated using pymatgen
 data_Fe8Ni19
_symmetry_space_group_name_H-M   'P 1'
_cell_length_a   7.42221274
_cell_length_b   7.42221274
_cell_length_c   10.49659392
_cell_angle_alpha   90.00000000
_cell_angle_beta   90.00000000
_cell_angle_gamma   90.00000000
_symmetry_Int_Tables_number   1
_chemical_formula_structural   Fe8Ni19
_chemical_formula_sum   'Fe16 Ni38'
_cell_volume   578.24940296
_cell_formula_units_Z   2
loop_
 _symmetry_equiv_pos_site_id
 _symmetry_equiv_pos_as_xyz
  1  'x, y, z'
loop_
 _atom_site_type_symbol
 _atom_site_label
 _atom_site_symmetry_multiplicity
 _atom_site_fract_x
 _atom_site_fract_y
 _atom_site_fract_z
 _atom_site_occupancy
  Fe  Fe0  1  1.00240881  0.00350203  0.00349919  1
  Ni  Ni1  1  0.16870511  0.17109063  0.16912796  1
  Ni  Ni2  1  1.00298826  1.00299417  0.33537046  1
  Ni  Ni3  1  1.00192776  0.33732750  0.00310258  1
  Ni  Ni4  1  0.17011100  0.50247931  0.17008113  1
  Ni  Ni5  1  1.00271529  0.33671715  0.33629015  1
  Ni  Ni6  1  0.00417528  0.66853087  0.00324133  1
  Fe  Fe7  1  0.16944831  0.83665378  0.17021865  1
  Ni  Ni8  1  0.00335689  0.66934877  0.33632071  1
  Ni  Ni9  1  0.33745127  1.00205173  0.00317331  1
  Fe  Fe10  1  0.50320153  0.16889855  0.16919246  1
  Ni  Ni11  1  0.33660166  1.00258637  0.33622071  1
  Fe  Fe12  1  0.33580873  0.33648534  1.00295343  1
  Fe  Fe13  1  0.50308168  0.50302271  0.17058184  1
  Ni  Ni14  1  0.33622856  0.33648084  0.33553628  1
  Ni  Ni15  1  0.33513691  0.67077775  0.00317373  1
  Ni  Ni16  1  0.50380590  0.83617320  0.16925900  1
  Ni  Ni17  1  0.33599548  0.66999537  0.33634978  1
  Ni  Ni18  1  0.66865468  0.00429670  0.00317266  1
  Ni  Ni19  1  0.83668566  0.16886714  0.16916804  1
  Ni  Ni20  1  0.66947003  0.00322859  0.33626280  1
  Ni  Ni21  1  0.67090386  0.33500966  0.00311277  1
  Fe  Fe22  1  0.83708099  0.50283887  0.17021855  1
  Ni  Ni23  1  0.67011825  0.33610919  0.33628559  1
  Fe  Fe24  1  0.66962268  0.67029405  0.00356312  1
  Ni  Ni25  1  0.83476850  0.83757772  0.17004097  1
  Ni  Ni26  1  0.66970971  0.66972090  0.33556896  1
  Fe  Fe27  1  0.16974681  0.17004531  0.50247720  1
  Ni  Ni28  1  1.00298876  0.00311191  0.67048445  1
  Fe  Fe29  1  0.16980947  0.17011128  0.83642113  1
  Ni  Ni30  1  0.16993586  0.50386946  0.50320542  1
  Ni  Ni31  1  1.00268171  0.33675038  0.66966614  1
  Ni  Ni32  1  0.16989812  0.50372129  0.83577397  1
  Ni  Ni33  1  0.17105416  0.83534697  0.50259694  1
  Ni  Ni34  1  0.00339177  0.66919678  0.66949813  1
  Fe  Fe35  1  0.16992782  0.83659286  0.83563158  1
  Fe  Fe36  1  0.50295725  0.17023254  0.50362956  1
  Ni  Ni37  1  0.33669138  1.00274514  0.66966380  1
  Ni  Ni38  1  0.50448718  0.16889341  0.83638342  1
  Ni  Ni39  1  0.50240819  0.50418335  0.50350940  1
  Ni  Ni40  1  0.33635760  0.33647841  0.67045225  1
  Fe  Fe41  1  0.50308065  0.50193161  0.83545778  1
  Ni  Ni42  1  0.50220604  0.83595185  0.50372243  1
  Ni  Ni43  1  0.33601506  0.66983954  0.66953792  1
  Fe  Fe44  1  0.50271692  0.83719901  0.83630272  1
  Ni  Ni45  1  0.83611437  0.17004361  0.50320545  1
  Ni  Ni46  1  0.66938184  0.00345288  0.66962683  1
  Ni  Ni47  1  0.83525787  0.16926262  0.83668820  1
  Ni  Ni48  1  0.83671682  0.50162125  0.50320564  1
  Ni  Ni49  1  0.67002240  0.33607444  0.66966465  1
  Fe  Fe50  1  0.83659932  0.50181218  0.83575808  1
  Fe  Fe51  1  0.83641577  0.83526697  0.50260329  1
  Ni  Ni52  1  0.66965535  0.66953007  0.67035918  1
  Fe  Fe53  1  0.83641582  0.83677309  0.83648539  1
" 