1881,Ni30Fe9Cr59_2,-215.384879743139, 154.972447027834,Ni30Fe9Cr59,"# generated using pymatgen
 data_Cr33Fe5Ni16
_symmetry_space_group_name_H-M   'P 1'
_cell_length_a   7.53937786
_cell_length_b   7.53937786
_cell_length_c   10.66229042
_cell_angle_alpha   90.00000000
_cell_angle_beta   90.00000000
_cell_angle_gamma   90.00000000
_symmetry_Int_Tables_number   1
_chemical_formula_structural   Cr33Fe5Ni16
_chemical_formula_sum   'Cr33 Fe5 Ni16'
_cell_volume   606.06824260
_cell_formula_units_Z   1
loop_
 _symmetry_equiv_pos_site_id
 _symmetry_equiv_pos_as_xyz
  1  'x, y, z'
loop_
 _atom_site_type_symbol
 _atom_site_label
 _atom_site_symmetry_multiplicity
 _atom_site_fract_x
 _atom_site_fract_y
 _atom_site_fract_z
 _atom_site_occupancy
  Ni  Ni0  1  0.99392940  -0.00152507  0.99333356  1
  Ni  Ni1  1  0.16071372  0.16171836  0.15942988  1
  Cr  Cr2  1  -0.00303841  -0.00472981  0.32935162  1
  Fe  Fe3  1  -0.00473511  0.32663900  0.99235161  1
  Cr  Cr4  1  0.16192818  0.49510290  0.16300757  1
  Cr  Cr5  1  -0.00348889  0.32621484  0.32714623  1
  Cr  Cr6  1  0.99470752  0.66116006  0.99173126  1
  Cr  Cr7  1  0.16184777  0.82859607  0.16323768  1
  Fe  Fe8  1  -0.00250165  0.66249655  0.32904133  1
  Cr  Cr9  1  0.32582376  -0.00074739  -0.00422932  1
  Fe  Fe10  1  0.49479143  0.16165286  0.16079928  1
  Cr  Cr11  1  0.32825731  -0.00346824  0.33049894  1
  Cr  Cr12  1  0.32702787  0.32923453  -0.00332525  1
  Ni  Ni13  1  0.49414437  0.49586559  0.16317177  1
  Cr  Cr14  1  0.33008834  0.32728167  0.32492245  1
  Cr  Cr15  1  0.32907858  0.65724658  0.99355087  1
  Cr  Cr16  1  0.49555427  0.82835280  0.15923785  1
  Ni  Ni17  1  0.32864086  0.66263596  0.32921541  1
  Ni  Ni18  1  0.66608676  -0.00270597  0.99392876  1
  Cr  Cr19  1  0.82980372  0.16100137  0.15932885  1
  Cr  Cr20  1  0.66047885  -0.00290171  0.32906551  1
  Cr  Cr21  1  0.66065019  0.32959009  -0.00446997  1
  Cr  Cr22  1  0.82890415  0.49502282  0.16397887  1
  Cr  Cr23  1  0.65893150  0.32694780  0.32816278  1
  Cr  Cr24  1  0.66239186  0.65973375  0.99130952  1
  Cr  Cr25  1  0.82843548  0.82960096  0.15972444  1
  Cr  Cr26  1  0.65990382  0.66151231  0.32864614  1
  Cr  Cr27  1  0.16304430  0.16434825  0.49908717  1
  Cr  Cr28  1  -0.00396505  -0.00420551  0.66321750  1
  Ni  Ni29  1  0.15909455  0.16528964  0.82828655  1
  Cr  Cr30  1  0.16158606  0.49518734  0.49451642  1
  Ni  Ni31  1  -0.00413430  0.32806870  0.66673683  1
  Ni  Ni32  1  0.16122040  0.49027857  0.82734337  1
  Fe  Fe33  1  0.16499625  0.82784589  0.49521316  1
  Cr  Cr34  1  0.99478627  0.66156150  0.66295587  1
  Cr  Cr35  1  0.16266334  0.83093736  0.82876126  1
  Ni  Ni36  1  0.49301589  0.16047682  0.49722191  1
  Fe  Fe37  1  0.32903004  -0.00219260  0.66135598  1
  Cr  Cr38  1  0.49522627  0.16198045  0.82645773  1
  Cr  Cr39  1  0.49411610  0.49377222  0.49686380  1
  Ni  Ni40  1  0.32828793  0.32773378  0.66362742  1
  Ni  Ni41  1  0.49479931  0.49222551  0.82661111  1
  Ni  Ni42  1  0.49186590  0.82999618  0.49530046  1
  Cr  Cr43  1  0.32841624  0.66137931  0.66354521  1
  Cr  Cr44  1  0.49640017  0.83017644  0.82975670  1
  Cr  Cr45  1  0.82726920  0.16509937  0.49748980  1
  Cr  Cr46  1  0.66293721  -0.00470313  0.66070412  1
  Ni  Ni47  1  0.83058090  0.16294783  0.82917468  1
  Cr  Cr48  1  0.83019408  0.49292905  0.49516204  1
  Ni  Ni49  1  0.66133954  0.32762364  0.66303947  1
  Ni  Ni50  1  0.82949403  0.49139161  0.82688037  1
  Cr  Cr51  1  0.82835513  0.82729214  0.49287104  1
  Cr  Cr52  1  0.66302962  0.66076199  0.66545926  1
  Ni  Ni53  1  0.82896604  0.83124006  0.83118424  1
" 