3426,Ni30Fe24Cr45_5,-221.707047373767, 175.32437525205,Ni30Fe24Cr45,"# generated using pymatgen
 data_Cr25Fe13Ni16
_symmetry_space_group_name_H-M   'P 1'
_cell_length_a   7.50252569
_cell_length_b   7.50252569
_cell_length_c   10.61017358
_cell_angle_alpha   90.00000000
_cell_angle_beta   90.00000000
_cell_angle_gamma   90.00000000
_symmetry_Int_Tables_number   1
_chemical_formula_structural   Cr25Fe13Ni16
_chemical_formula_sum   'Cr25 Fe13 Ni16'
_cell_volume   597.22430132
_cell_formula_units_Z   1
loop_
 _symmetry_equiv_pos_site_id
 _symmetry_equiv_pos_as_xyz
  1  'x, y, z'
loop_
 _atom_site_type_symbol
 _atom_site_label
 _atom_site_symmetry_multiplicity
 _atom_site_fract_x
 _atom_site_fract_y
 _atom_site_fract_z
 _atom_site_occupancy
  Fe  Fe0  1  -0.00014362  0.99641899  0.99684014  1
  Cr  Cr1  1  0.16414499  0.16089558  0.16241286  1
  Fe  Fe2  1  -0.00149883  0.99519625  0.33060456  1
  Cr  Cr3  1  -0.00053526  0.33357902  -0.00199394  1
  Cr  Cr4  1  0.16798927  0.49849073  0.16325402  1
  Cr  Cr5  1  0.99735268  0.33535584  0.33063125  1
  Cr  Cr6  1  0.99728407  0.66548130  -0.00185512  1
  Ni  Ni7  1  0.16700739  0.83210380  0.16536089  1
  Cr  Cr8  1  -0.00111328  0.66465541  0.33163256  1
  Fe  Fe9  1  0.33052800  0.99749579  0.99667954  1
  Cr  Cr10  1  0.49538613  0.16240770  0.16557905  1
  Fe  Fe11  1  0.33034846  0.99449430  0.33094411  1
  Ni  Ni12  1  0.33079714  0.33057947  0.99282330  1
  Cr  Cr13  1  0.49699594  0.50221107  0.16206575  1
  Cr  Cr14  1  0.33103158  0.33022667  0.33268277  1
  Ni  Ni15  1  0.32945164  0.66563805  0.99653216  1
  Ni  Ni16  1  0.49602324  0.82907328  0.16598285  1
  Ni  Ni17  1  0.32843056  0.66847216  0.33194731  1
  Cr  Cr18  1  0.66181464  0.99616766  0.99563619  1
  Cr  Cr19  1  0.83353991  0.16316405  0.16520947  1
  Ni  Ni20  1  0.66215897  0.99487083  0.33130549  1
  Cr  Cr21  1  0.66168391  0.32919100  0.99722387  1
  Ni  Ni22  1  0.82825388  0.50106902  0.16604604  1
  Cr  Cr23  1  0.66451966  0.32901105  0.33184060  1
  Fe  Fe24  1  0.66297378  0.66414176  0.99739523  1
  Fe  Fe25  1  0.82940079  0.83051410  0.16478901  1
  Fe  Fe26  1  0.66368601  0.66551483  0.32965410  1
  Cr  Cr27  1  0.16195407  0.16287313  0.49747157  1
  Fe  Fe28  1  -0.00202956  -0.00188594  0.66509735  1
  Ni  Ni29  1  0.16509023  0.16628757  0.83147227  1
  Fe  Fe30  1  0.16545737  0.49938808  0.49925095  1
  Ni  Ni31  1  0.00021856  0.33299376  0.66412652  1
  Ni  Ni32  1  0.16869352  0.49558360  0.82892643  1
  Ni  Ni33  1  0.16530630  0.83070003  0.49675082  1
  Cr  Cr34  1  0.00151483  0.66398458  0.66349840  1
  Cr  Cr35  1  0.16370678  0.83187154  0.83036190  1
  Fe  Fe36  1  0.49862068  0.16222158  0.49892128  1
  Cr  Cr37  1  0.33331586  -0.00180332  0.66426345  1
  Ni  Ni38  1  0.49590009  0.16685521  0.82822888  1
  Cr  Cr39  1  0.49752640  0.49852489  0.49891633  1
  Fe  Fe40  1  0.33149591  0.33129906  0.66642829  1
  Ni  Ni41  1  0.49412784  0.49591387  0.83163659  1
  Cr  Cr42  1  0.49641968  0.82902092  0.49605994  1
  Fe  Fe43  1  0.33101502  0.66181816  0.66450667  1
  Cr  Cr44  1  0.49785651  0.82696333  0.83136589  1
  Cr  Cr45  1  0.83122363  0.16439758  0.49995823  1
  Ni  Ni46  1  0.66250114  0.00012610  0.66541859  1
  Cr  Cr47  1  0.83408168  0.16252558  0.82783938  1
  Fe  Fe48  1  0.83142905  0.49761688  0.49936182  1
  Ni  Ni49  1  0.66280155  0.32861683  0.66405981  1
  Cr  Cr50  1  0.82894496  0.49711013  0.83035955  1
  Cr  Cr51  1  0.83074819  0.83398406  0.49885188  1
  Cr  Cr52  1  0.66568126  0.66569400  0.66695126  1
  Ni  Ni53  1  0.83120871  0.83322098  0.83101378  1
" 