1043,Ni30Fe63Cr6_11,-234.035943382806, 200.878407085888,Ni30Fe63Cr6,"# generated using pymatgen
 data_Cr2Fe17Ni8
_symmetry_space_group_name_H-M   'P 1'
_cell_length_a   7.41088378
_cell_length_b   7.41088378
_cell_length_c   10.48057235
_cell_angle_alpha   90.00000000
_cell_angle_beta   90.00000000
_cell_angle_gamma   90.00000000
_symmetry_Int_Tables_number   1
_chemical_formula_structural   Cr2Fe17Ni8
_chemical_formula_sum   'Cr4 Fe34 Ni16'
_cell_volume   575.60559349
_cell_formula_units_Z   2
loop_
 _symmetry_equiv_pos_site_id
 _symmetry_equiv_pos_as_xyz
  1  'x, y, z'
loop_
 _atom_site_type_symbol
 _atom_site_label
 _atom_site_symmetry_multiplicity
 _atom_site_fract_x
 _atom_site_fract_y
 _atom_site_fract_z
 _atom_site_occupancy
  Fe  Fe0  1  0.00590256  1.00135920  0.00451683  1
  Fe  Fe1  1  0.17188903  0.17015389  0.17221672  1
  Fe  Fe2  1  0.00640260  1.00143381  0.33864767  1
  Cr  Cr3  1  0.00620826  0.33874538  1.00298471  1
  Fe  Fe4  1  0.17062237  0.50499710  0.17199651  1
  Ni  Ni5  1  0.00407350  0.33696332  0.33816232  1
  Ni  Ni6  1  0.00459456  0.66943539  0.00442057  1
  Ni  Ni7  1  0.17257039  0.83620314  0.16992609  1
  Fe  Fe8  1  0.00464563  0.66874727  0.33645907  1
  Fe  Fe9  1  0.33624906  1.00314713  1.00344241  1
  Fe  Fe10  1  0.50106839  0.17067394  0.17038212  1
  Fe  Fe11  1  0.33671352  1.00260009  0.33805740  1
  Fe  Fe12  1  0.33899425  0.33760751  0.00414144  1
  Fe  Fe13  1  0.50307606  0.50427024  0.17158152  1
  Ni  Ni14  1  0.33580518  0.33736577  0.33723592  1
  Fe  Fe15  1  0.33642325  0.67078878  1.00362903  1
  Fe  Fe16  1  0.50428068  0.83659424  0.17153812  1
  Ni  Ni17  1  0.33842049  0.67072132  0.33705686  1
  Ni  Ni18  1  0.66687435  1.00246420  0.00421552  1
  Cr  Cr19  1  0.83568287  0.17092942  0.17134475  1
  Fe  Fe20  1  0.66824723  1.00309127  0.33786987  1
  Fe  Fe21  1  0.66755343  0.33922312  1.00372379  1
  Ni  Ni22  1  0.83609650  0.50360455  0.17008160  1
  Fe  Fe23  1  0.66930426  0.34074644  0.33848887  1
  Fe  Fe24  1  0.67016369  0.66953561  0.00556044  1
  Fe  Fe25  1  0.83776274  0.83511983  0.16952776  1
  Ni  Ni26  1  0.67088909  0.67171993  0.33718427  1
  Fe  Fe27  1  0.17103002  0.17028555  0.50385316  1
  Ni  Ni28  1  0.00502956  0.00488719  0.66975714  1
  Fe  Fe29  1  0.17262408  0.16985613  0.83564734  1
  Ni  Ni30  1  0.17088753  0.50513532  0.50259768  1
  Fe  Fe31  1  0.00691992  0.33851826  0.66927116  1
  Ni  Ni32  1  0.17274014  0.50514412  0.83657245  1
  Ni  Ni33  1  0.17268616  0.83587012  0.50504197  1
  Fe  Fe34  1  0.00697899  0.67040706  0.67012539  1
  Fe  Fe35  1  0.17170974  0.83648777  0.83671598  1
  Fe  Fe36  1  0.50201432  0.17131828  0.50372162  1
  Ni  Ni37  1  0.33685139  1.00316733  0.67075762  1
  Fe  Fe38  1  0.50113269  0.17044611  0.83741854  1
  Fe  Fe39  1  0.50216576  0.50624047  0.50293380  1
  Fe  Fe40  1  0.33591989  0.33724195  0.66972100  1
  Fe  Fe41  1  0.50376734  0.50422784  0.83663776  1
  Ni  Ni42  1  0.50225992  0.83839234  0.50372071  1
  Ni  Ni43  1  0.33820312  0.67038039  0.67036311  1
  Fe  Fe44  1  0.50187324  0.83673647  0.83629558  1
  Fe  Fe45  1  0.83830184  0.16960070  0.50391520  1
  Fe  Fe46  1  0.66764790  1.00298185  0.66905817  1
  Cr  Cr47  1  0.83561950  0.17061743  0.83654935  1
  Ni  Ni48  1  0.83758961  0.50222092  0.50489778  1
  Fe  Fe49  1  0.66848117  0.33753559  0.66915679  1
  Fe  Fe50  1  0.83714463  0.50539444  0.83602505  1
  Fe  Fe51  1  0.83810371  0.83529911  0.50427489  1
  Fe  Fe52  1  0.66929612  0.67108207  0.66791454  1
  Cr  Cr53  1  0.83712890  0.83690442  0.83728516  1
" 