6197,Ni30Fe24Cr45_17,-221.596196143796, 168.729855995556,Ni30Fe24Cr45,"# generated using pymatgen
 data_Cr25Fe13Ni16
_symmetry_space_group_name_H-M   'P 1'
_cell_length_a   7.49968700
_cell_length_b   7.49968700
_cell_length_c   10.60615906
_cell_angle_alpha   90.00000000
_cell_angle_beta   90.00000000
_cell_angle_gamma   90.00000000
_symmetry_Int_Tables_number   1
_chemical_formula_structural   Cr25Fe13Ni16
_chemical_formula_sum   'Cr25 Fe13 Ni16'
_cell_volume   596.54665186
_cell_formula_units_Z   1
loop_
 _symmetry_equiv_pos_site_id
 _symmetry_equiv_pos_as_xyz
  1  'x, y, z'
loop_
 _atom_site_type_symbol
 _atom_site_label
 _atom_site_symmetry_multiplicity
 _atom_site_fract_x
 _atom_site_fract_y
 _atom_site_fract_z
 _atom_site_occupancy
  Cr  Cr0  1  0.99618232  -0.00073913  0.99715765  1
  Ni  Ni1  1  0.16285707  0.16325344  0.16565943  1
  Ni  Ni2  1  -0.00007822  -0.00072298  0.32882436  1
  Ni  Ni3  1  -0.00204373  0.32950172  -0.00193299  1
  Fe  Fe4  1  0.16403060  0.49754974  0.16395846  1
  Fe  Fe5  1  0.99702661  0.33021329  0.32958170  1
  Cr  Cr6  1  -0.00040825  0.66384964  0.99675626  1
  Fe  Fe7  1  0.16479286  0.83165369  0.16428400  1
  Fe  Fe8  1  0.99530626  0.66490210  0.32919198  1
  Fe  Fe9  1  0.32935754  0.99665056  -0.00091139  1
  Cr  Cr10  1  0.49731470  0.16446254  0.16092675  1
  Fe  Fe11  1  0.33071601  0.99777341  0.33028709  1
  Cr  Cr12  1  0.32813932  0.33405375  -0.00069709  1
  Ni  Ni13  1  0.49887918  0.49987356  0.16301682  1
  Cr  Cr14  1  0.32992338  0.33153181  0.33054931  1
  Ni  Ni15  1  0.33133588  0.66458400  -0.00055261  1
  Fe  Fe16  1  0.49925507  0.82945019  0.16309486  1
  Cr  Cr17  1  0.33373154  0.66268238  0.32959356  1
  Ni  Ni18  1  0.66664987  0.99741223  0.00000089  1
  Fe  Fe19  1  0.83235469  0.16465841  0.16291453  1
  Cr  Cr20  1  0.66753618  0.99576129  0.32935082  1
  Ni  Ni21  1  0.66641103  0.33101761  0.99756975  1
  Cr  Cr22  1  0.83087414  0.49848581  0.16339180  1
  Cr  Cr23  1  0.66329188  0.33362275  0.33142428  1
  Ni  Ni24  1  0.66257913  0.66506802  0.00074709  1
  Ni  Ni25  1  0.83168905  0.82988554  0.16521820  1
  Ni  Ni26  1  0.66429305  0.66457620  0.33143873  1
  Ni  Ni27  1  0.16296593  0.16552380  0.49659672  1
  Cr  Cr28  1  0.99759420  0.00032643  0.66722652  1
  Fe  Fe29  1  0.16321488  0.16552158  0.83214985  1
  Cr  Cr30  1  0.15898869  0.49703219  0.49611320  1
  Ni  Ni31  1  0.99733687  0.33060317  0.66587263  1
  Fe  Fe32  1  0.16274688  0.49641779  0.83225786  1
  Cr  Cr33  1  0.16375029  0.83300972  0.49580382  1
  Cr  Cr34  1  -0.00194649  0.66278981  0.66748133  1
  Ni  Ni35  1  0.16603064  0.83021697  0.83341118  1
  Cr  Cr36  1  0.49609222  0.16353103  0.49903115  1
  Cr  Cr37  1  0.32929620  0.99733453  0.66425119  1
  Cr  Cr38  1  0.49990727  0.16476412  0.83335059  1
  Fe  Fe39  1  0.49938401  0.49888029  0.49656287  1
  Cr  Cr40  1  0.32943011  0.33255835  0.66328582  1
  Cr  Cr41  1  0.49980338  0.49726470  0.83292487  1
  Ni  Ni42  1  0.49723684  0.83004833  0.49519397  1
  Cr  Cr43  1  0.33159539  0.66367180  0.66463181  1
  Cr  Cr44  1  0.49664244  0.83148463  0.83522744  1
  Cr  Cr45  1  0.83422357  0.16707027  0.49680676  1
  Cr  Cr46  1  0.66635160  0.99773029  0.66408989  1
  Ni  Ni47  1  0.83216709  0.16974325  0.83384467  1
  Ni  Ni48  1  0.83092992  0.49700755  0.49823966  1
  Fe  Fe49  1  0.66847911  0.33200703  0.66543597  1
  Fe  Fe50  1  0.83150250  0.49519643  0.83271863  1
  Cr  Cr51  1  0.83297657  0.82805631  0.49564750  1
  Cr  Cr52  1  0.66363545  0.66332660  0.66128588  1
  Cr  Cr53  1  0.83016058  0.83036476  0.83220727  1
" 