6281,Ni30Fe70_1,-243.104092424831, 218.049540006017,Ni30Fe70,"# generated using pymatgen
 data_Fe8Ni19
_symmetry_space_group_name_H-M   'P 1'
_cell_length_a   7.41192624
_cell_length_b   7.41192624
_cell_length_c   10.48204661
_cell_angle_alpha   90.00000000
_cell_angle_beta   90.00000000
_cell_angle_gamma   90.00000000
_symmetry_Int_Tables_number   1
_chemical_formula_structural   Fe8Ni19
_chemical_formula_sum   'Fe16 Ni38'
_cell_volume   575.84853148
_cell_formula_units_Z   2
loop_
 _symmetry_equiv_pos_site_id
 _symmetry_equiv_pos_as_xyz
  1  'x, y, z'
loop_
 _atom_site_type_symbol
 _atom_site_label
 _atom_site_symmetry_multiplicity
 _atom_site_fract_x
 _atom_site_fract_y
 _atom_site_fract_z
 _atom_site_occupancy
  Ni  Ni0  1  1.00332322  0.00403427  1.00285275  1
  Ni  Ni1  1  0.16984470  0.17139258  0.17031685  1
  Fe  Fe2  1  1.00152571  0.00383213  0.33581858  1
  Fe  Fe3  1  1.00338849  0.33764525  1.00288696  1
  Ni  Ni4  1  0.17054147  0.50206221  0.17015451  1
  Fe  Fe5  1  1.00210497  0.33782946  0.33782611  1
  Ni  Ni6  1  1.00358645  0.67074520  1.00367829  1
  Fe  Fe7  1  0.16883127  0.83618867  0.16908279  1
  Ni  Ni8  1  0.00437062  0.67147826  0.33687131  1
  Fe  Fe9  1  0.33685245  1.00198819  1.00255145  1
  Fe  Fe10  1  0.50397827  0.17184546  0.17020040  1
  Fe  Fe11  1  0.33845734  1.00310486  0.33767500  1
  Ni  Ni12  1  0.33635095  0.33597828  1.00222879  1
  Ni  Ni13  1  0.50312056  0.50556025  0.16996349  1
  Ni  Ni14  1  0.33670154  0.33624235  0.33821725  1
  Ni  Ni15  1  0.33640018  0.66825414  0.00463099  1
  Ni  Ni16  1  0.50419598  0.83685256  0.17108694  1
  Fe  Fe17  1  0.33899296  0.66885425  0.33720629  1
  Ni  Ni18  1  0.67104102  0.00441613  0.00398570  1
  Ni  Ni19  1  0.83824200  0.17021553  0.16985313  1
  Ni  Ni20  1  0.67059931  0.00400501  0.33677525  1
  Fe  Fe21  1  0.67127176  0.33850208  0.00383315  1
  Ni  Ni22  1  0.83758077  0.50388124  0.17165081  1
  Ni  Ni23  1  0.66826680  0.33644572  0.33640104  1
  Ni  Ni24  1  0.67103739  0.67153238  1.00344596  1
  Ni  Ni25  1  0.83511096  0.83745948  0.16930985  1
  Ni  Ni26  1  0.67246858  0.67095354  0.33768961  1
  Fe  Fe27  1  0.17143450  0.17003732  0.50398744  1
  Fe  Fe28  1  1.00273358  1.00321666  0.67169925  1
  Ni  Ni29  1  0.16981825  0.17093099  0.83545316  1
  Ni  Ni30  1  0.17016567  0.50378043  0.50362639  1
  Ni  Ni31  1  0.00419616  0.33733690  0.66945750  1
  Ni  Ni32  1  0.16952209  0.50414354  0.83732082  1
  Fe  Fe33  1  0.17045430  0.83672816  0.50507013  1
  Ni  Ni34  1  0.00438982  0.66942921  0.67106495  1
  Ni  Ni35  1  0.17220089  0.83596597  0.83716983  1
  Ni  Ni36  1  0.50519185  0.16975859  0.50350652  1
  Ni  Ni37  1  0.33781832  0.00455302  0.67058120  1
  Ni  Ni38  1  0.50442672  0.16834370  0.83765081  1
  Ni  Ni39  1  0.50221381  0.50439415  0.50494199  1
  Fe  Fe40  1  0.33807278  0.33770388  0.67052811  1
  Fe  Fe41  1  0.50342754  0.50361667  0.83698303  1
  Ni  Ni42  1  0.50495561  0.83694164  0.50391845  1
  Ni  Ni43  1  0.33604970  0.67124032  0.67021647  1
  Ni  Ni44  1  0.50374349  0.83645763  0.83634648  1
  Ni  Ni45  1  0.83718344  0.16927511  0.50379528  1
  Ni  Ni46  1  0.66912304  0.00464993  0.67055900  1
  Ni  Ni47  1  0.83690808  0.17113544  0.83694722  1
  Fe  Fe48  1  0.83498681  0.50406974  0.50410074  1
  Ni  Ni49  1  0.67075726  0.33554559  0.67042283  1
  Ni  Ni50  1  0.83818409  0.50353618  0.83621999  1
  Ni  Ni51  1  0.83650256  0.83852650  0.50512723  1
  Ni  Ni52  1  0.67062324  0.67083271  0.67068363  1
  Fe  Fe53  1  0.83752559  0.83734546  0.83722317  1
" 