6566,Ni30Fe29Cr40_0,-223.198366893821, 176.183982875454,Ni30Fe29Cr40,"# generated using pymatgen
 data_Cr23Fe15Ni16
_symmetry_space_group_name_H-M   'P 1'
_cell_length_a   7.49176765
_cell_length_b   7.49176765
_cell_length_c   10.59495941
_cell_angle_alpha   90.00000000
_cell_angle_beta   90.00000000
_cell_angle_gamma   90.00000000
_symmetry_Int_Tables_number   1
_chemical_formula_structural   Cr23Fe15Ni16
_chemical_formula_sum   'Cr23 Fe15 Ni16'
_cell_volume   594.65886287
_cell_formula_units_Z   1
loop_
 _symmetry_equiv_pos_site_id
 _symmetry_equiv_pos_as_xyz
  1  'x, y, z'
loop_
 _atom_site_type_symbol
 _atom_site_label
 _atom_site_symmetry_multiplicity
 _atom_site_fract_x
 _atom_site_fract_y
 _atom_site_fract_z
 _atom_site_occupancy
  Cr  Cr0  1  0.99785042  0.99573668  -0.00158166  1
  Cr  Cr1  1  0.16489304  0.16729236  0.16154473  1
  Ni  Ni2  1  0.99807586  0.99664849  0.33423230  1
  Ni  Ni3  1  0.99445978  0.33464323  0.00008714  1
  Ni  Ni4  1  0.16260690  0.49853197  0.16516247  1
  Cr  Cr5  1  0.99447388  0.33260162  0.33070469  1
  Cr  Cr6  1  0.99650557  0.66451515  0.00262319  1
  Fe  Fe7  1  0.16429460  0.83126493  0.16847313  1
  Fe  Fe8  1  -0.00070595  0.66793904  0.32969289  1
  Cr  Cr9  1  0.33308957  0.99620527  0.99567742  1
  Cr  Cr10  1  0.50014942  0.16439901  0.16504548  1
  Ni  Ni11  1  0.32988851  0.99731640  0.33335707  1
  Ni  Ni12  1  0.33309650  0.33480594  -0.00158245  1
  Cr  Cr13  1  0.49689557  0.49697410  0.16575029  1
  Cr  Cr14  1  0.33283164  0.32993244  0.33342963  1
  Cr  Cr15  1  0.33116143  0.66626395  0.99823603  1
  Cr  Cr16  1  0.50224320  0.83296202  0.16597414  1
  Fe  Fe17  1  0.32964809  0.66634942  0.33058225  1
  Ni  Ni18  1  0.66660672  0.99724167  0.00126859  1
  Fe  Fe19  1  0.83156267  0.16579338  0.16417047  1
  Fe  Fe20  1  0.66832025  0.00003470  0.33250837  1
  Ni  Ni21  1  0.66712203  0.33391073  0.00026259  1
  Ni  Ni22  1  0.83217960  0.50004573  0.16424220  1
  Fe  Fe23  1  0.66623021  0.32958631  0.33292010  1
  Fe  Fe24  1  0.66560874  0.66321499  -0.00065241  1
  Ni  Ni25  1  0.83251239  0.83337781  0.16695109  1
  Cr  Cr26  1  0.66864118  0.66205818  0.33160700  1
  Ni  Ni27  1  0.16349889  0.16312487  0.49902518  1
  Fe  Fe28  1  0.99704477  -0.00124638  0.66212740  1
  Cr  Cr29  1  0.16203190  0.16636950  0.83304004  1
  Cr  Cr30  1  0.16653572  0.50035966  0.49651329  1
  Cr  Cr31  1  0.99379241  0.33218528  0.66380251  1
  Cr  Cr32  1  0.16546689  0.49676861  0.83378721  1
  Fe  Fe33  1  0.16547381  0.83341091  0.49754187  1
  Cr  Cr34  1  0.99589352  0.66590692  0.66286631  1
  Ni  Ni35  1  0.16266158  0.82931353  0.82806148  1
  Ni  Ni36  1  0.49929810  0.16525450  0.49541899  1
  Cr  Cr37  1  0.33072339  0.99705722  0.66648427  1
  Cr  Cr38  1  0.50163039  0.16891069  0.83552392  1
  Ni  Ni39  1  0.50037266  0.49721688  0.49837430  1
  Cr  Cr40  1  0.33523191  0.32974833  0.66346269  1
  Ni  Ni41  1  0.50290590  0.50024562  0.83128972  1
  Cr  Cr42  1  0.50034178  0.82915610  0.49714671  1
  Fe  Fe43  1  0.33523228  0.66311631  0.66652203  1
  Fe  Fe44  1  0.49898861  0.82961284  0.83175414  1
  Fe  Fe45  1  0.83004489  0.16425010  0.49722505  1
  Cr  Cr46  1  0.66334638  0.00005399  0.66298240  1
  Cr  Cr47  1  0.83103892  0.16507900  0.83343151  1
  Fe  Fe48  1  0.82886798  0.49854650  0.49725063  1
  Ni  Ni49  1  0.66481801  0.33506935  0.66116315  1
  Fe  Fe50  1  0.82872852  0.49718061  0.83319448  1
  Ni  Ni51  1  0.83399732  0.83256922  0.49729780  1
  Fe  Fe52  1  0.66399989  0.66201913  0.66341834  1
  Cr  Cr53  1  0.82870185  0.82998532  0.83151792  1
" 