8033,Ni30Fe24Cr45_15,-221.572941773657, 173.211011996039,Ni30Fe24Cr45,"# generated using pymatgen
 data_Cr25Fe13Ni16
_symmetry_space_group_name_H-M   'P 1'
_cell_length_a   7.49474336
_cell_length_b   7.49474336
_cell_length_c   10.59916771
_cell_angle_alpha   90.00000000
_cell_angle_beta   90.00000000
_cell_angle_gamma   90.00000000
_symmetry_Int_Tables_number   1
_chemical_formula_structural   Cr25Fe13Ni16
_chemical_formula_sum   'Cr25 Fe13 Ni16'
_cell_volume   595.36773652
_cell_formula_units_Z   1
loop_
 _symmetry_equiv_pos_site_id
 _symmetry_equiv_pos_as_xyz
  1  'x, y, z'
loop_
 _atom_site_type_symbol
 _atom_site_label
 _atom_site_symmetry_multiplicity
 _atom_site_fract_x
 _atom_site_fract_y
 _atom_site_fract_z
 _atom_site_occupancy
  Ni  Ni0  1  -0.00094687  -0.00150711  -0.00008732  1
  Cr  Cr1  1  0.16592670  0.16587948  0.16470888  1
  Cr  Cr2  1  0.99658032  0.00235515  0.33309335  1
  Cr  Cr3  1  0.99421833  0.33324370  0.00087558  1
  Fe  Fe4  1  0.16807985  0.49950928  0.16625677  1
  Ni  Ni5  1  -0.00181643  0.33190065  0.33165520  1
  Cr  Cr6  1  0.99785850  0.66554319  -0.00010364  1
  Fe  Fe7  1  0.16886830  0.83145101  0.16491958  1
  Cr  Cr8  1  0.00031091  0.66050792  0.32880703  1
  Fe  Fe9  1  0.33093152  0.99338926  0.99751273  1
  Cr  Cr10  1  0.49811171  0.16556788  0.16142607  1
  Fe  Fe11  1  0.33141437  -0.00142609  0.33386043  1
  Fe  Fe12  1  0.33060047  0.33542996  -0.00146921  1
  Cr  Cr13  1  0.49743559  0.49746889  0.16662012  1
  Fe  Fe14  1  0.32964719  0.33199793  0.33312410  1
  Ni  Ni15  1  0.33162457  0.66580741  -0.00099894  1
  Cr  Cr16  1  0.49962240  0.83136748  0.16903584  1
  Ni  Ni17  1  0.33487813  0.66438821  0.33294067  1
  Cr  Cr18  1  0.66754637  0.99657571  0.99654408  1
  Fe  Fe19  1  0.82941558  0.16524153  0.16606611  1
  Ni  Ni20  1  0.66248307  -0.00029471  0.33354041  1
  Ni  Ni21  1  0.66620865  0.33254581  0.99802887  1
  Fe  Fe22  1  0.83031398  0.49484598  0.16665066  1
  Cr  Cr23  1  0.66787644  0.33160155  0.33339768  1
  Cr  Cr24  1  0.66412279  0.66217985  0.99802265  1
  Cr  Cr25  1  0.83166833  0.83213858  0.16821391  1
  Fe  Fe26  1  0.66551164  0.66322786  0.33507685  1
  Ni  Ni27  1  0.16227683  0.16932699  0.49602688  1
  Cr  Cr28  1  0.99695992  0.00258456  0.66207495  1
  Cr  Cr29  1  0.16449125  0.16696759  0.83176623  1
  Cr  Cr30  1  0.16371963  0.49902658  0.49878582  1
  Ni  Ni31  1  0.99320539  0.33350509  0.66031577  1
  Cr  Cr32  1  0.16356507  0.49828070  0.82891477  1
  Cr  Cr33  1  0.16606667  0.82986863  0.49803118  1
  Fe  Fe34  1  0.99466942  0.66415208  0.66490346  1
  Cr  Cr35  1  0.16249643  0.82967214  0.83183909  1
  Cr  Cr36  1  0.49980287  0.16298942  0.49747509  1
  Cr  Cr37  1  0.33538496  0.99525006  0.66375079  1
  Cr  Cr38  1  0.49871412  0.16562866  0.83543192  1
  Fe  Fe39  1  0.50073939  0.50147426  0.49785168  1
  Cr  Cr40  1  0.33027441  0.33182469  0.66076095  1
  Cr  Cr41  1  0.49841429  0.49732104  0.83054179  1
  Ni  Ni42  1  0.50021131  0.82862626  0.49554607  1
  Ni  Ni43  1  0.33781547  0.66526299  0.66395907  1
  Ni  Ni44  1  0.50044749  0.82860053  0.83099574  1
  Ni  Ni45  1  0.83099714  0.16762165  0.49742808  1
  Ni  Ni46  1  0.66465263  0.99515795  0.66456293  1
  Cr  Cr47  1  0.83119410  0.16492252  0.83002545  1
  Ni  Ni48  1  0.83097060  0.49645900  0.50026029  1
  Fe  Fe49  1  0.66575814  0.33157465  0.66292636  1
  Fe  Fe50  1  0.83016290  0.49927802  0.82717143  1
  Cr  Cr51  1  0.82725439  0.82988763  0.49889716  1
  Ni  Ni52  1  0.66195362  0.66486130  0.66337205  1
  Ni  Ni53  1  0.82953450  0.82916400  0.82889192  1
" 