7822,Ni30Fe29Cr40_7,-223.18933500005, 176.484242460528,Ni30Fe29Cr40,"# generated using pymatgen
 data_Cr23Fe15Ni16
_symmetry_space_group_name_H-M   'P 1'
_cell_length_a   7.49134691
_cell_length_b   7.49134691
_cell_length_c   10.59436440
_cell_angle_alpha   90.00000000
_cell_angle_beta   90.00000000
_cell_angle_gamma   90.00000000
_symmetry_Int_Tables_number   1
_chemical_formula_structural   Cr23Fe15Ni16
_chemical_formula_sum   'Cr23 Fe15 Ni16'
_cell_volume   594.55868057
_cell_formula_units_Z   1
loop_
 _symmetry_equiv_pos_site_id
 _symmetry_equiv_pos_as_xyz
  1  'x, y, z'
loop_
 _atom_site_type_symbol
 _atom_site_label
 _atom_site_symmetry_multiplicity
 _atom_site_fract_x
 _atom_site_fract_y
 _atom_site_fract_z
 _atom_site_occupancy
  Ni  Ni0  1  0.99666624  0.00324765  -0.00019277  1
  Ni  Ni1  1  0.16617850  0.16318255  0.16587336  1
  Cr  Cr2  1  -0.00028355  -0.00069159  0.33081348  1
  Ni  Ni3  1  0.99625430  0.32740642  0.00100243  1
  Cr  Cr4  1  0.16325478  0.49451092  0.16592368  1
  Fe  Fe5  1  0.99792272  0.32991308  0.33169604  1
  Cr  Cr6  1  0.99757041  0.66560312  0.00048063  1
  Ni  Ni7  1  0.16281724  0.83676144  0.16420377  1
  Cr  Cr8  1  0.99626660  0.66401322  0.33261173  1
  Cr  Cr9  1  0.33184133  -0.00002386  0.00400908  1
  Ni  Ni10  1  0.49669504  0.16662853  0.16734481  1
  Ni  Ni11  1  0.33243710  0.00143957  0.33211419  1
  Fe  Fe12  1  0.33167662  0.32971433  0.00028129  1
  Cr  Cr13  1  0.50151320  0.49426068  0.16660575  1
  Ni  Ni14  1  0.33254761  0.32673236  0.33195351  1
  Cr  Cr15  1  0.33317373  0.66411401  0.99688805  1
  Fe  Fe16  1  0.49735618  0.83325423  0.16786567  1
  Cr  Cr17  1  0.33092734  0.66832070  0.33276742  1
  Cr  Cr18  1  0.66675871  0.00040214  0.00143771  1
  Fe  Fe19  1  0.83337217  0.16768741  0.16401053  1
  Cr  Cr20  1  0.66233082  -0.00110697  0.33025688  1
  Fe  Fe21  1  0.66697489  0.32983990  0.00050799  1
  Ni  Ni22  1  0.83010913  0.49668211  0.16689827  1
  Ni  Ni23  1  0.66607658  0.33020342  0.33246631  1
  Cr  Cr24  1  0.66455108  0.66518869  0.00152768  1
  Ni  Ni25  1  0.83355331  0.83115025  0.16561062  1
  Fe  Fe26  1  0.66572012  0.66485405  0.33180409  1
  Fe  Fe27  1  0.16806454  0.16388648  0.49591904  1
  Fe  Fe28  1  0.99739528  0.00002850  0.66263803  1
  Cr  Cr29  1  0.16198557  0.16251205  0.83414824  1
  Fe  Fe30  1  0.16625631  0.49794258  0.49650502  1
  Cr  Cr31  1  0.99736065  0.33030465  0.66100933  1
  Cr  Cr32  1  0.16697748  0.49776428  0.83337268  1
  Ni  Ni33  1  0.16612857  0.83522501  0.50080309  1
  Cr  Cr34  1  -0.00044523  0.66425190  0.66229217  1
  Cr  Cr35  1  0.16393594  0.83468553  0.83072322  1
  Ni  Ni36  1  0.49812833  0.16333923  0.49802516  1
  Fe  Fe37  1  0.33172803  0.99759026  0.66051022  1
  Cr  Cr38  1  0.50126585  0.16749938  0.83091032  1
  Cr  Cr39  1  0.50110851  0.49619322  0.49627399  1
  Cr  Cr40  1  0.33265855  0.33153273  0.66480262  1
  Ni  Ni41  1  0.49968732  0.49550400  0.83168521  1
  Ni  Ni42  1  0.49562409  0.83553021  0.49836790  1
  Fe  Fe43  1  0.33193249  0.66586335  0.66271106  1
  Cr  Cr44  1  0.49712684  0.83149986  0.82848934  1
  Fe  Fe45  1  0.82864404  0.16504170  0.49877939  1
  Fe  Fe46  1  0.66578303  0.00191726  0.66204798  1
  Ni  Ni47  1  0.83159858  0.16578196  0.83150104  1
  Ni  Ni48  1  0.83186206  0.49608439  0.49478484  1
  Fe  Fe49  1  0.66654115  0.33002566  0.66287492  1
  Cr  Cr50  1  0.82906936  0.49444105  0.83429375  1
  Fe  Fe51  1  0.82953268  0.83241594  0.49813607  1
  Cr  Cr52  1  0.66411932  0.66533138  0.66352783  1
  Cr  Cr53  1  0.83408992  0.83694056  0.83052683  1
" 