584,Ni30Fe44Cr24_9,-229.15324658156, 194.039857625128,Ni30Fe44Cr24,"# generated using pymatgen
 data_Cr7(Fe3Ni2)4
_symmetry_space_group_name_H-M   'P 1'
_cell_length_a   7.45178258
_cell_length_b   7.45178258
_cell_length_c   10.53841198
_cell_angle_alpha   90.00000000
_cell_angle_beta   90.00000000
_cell_angle_gamma   90.00000000
_symmetry_Int_Tables_number   1
_chemical_formula_structural   Cr7(Fe3Ni2)4
_chemical_formula_sum   'Cr14 Fe24 Ni16'
_cell_volume   585.18814872
_cell_formula_units_Z   2
loop_
 _symmetry_equiv_pos_site_id
 _symmetry_equiv_pos_as_xyz
  1  'x, y, z'
loop_
 _atom_site_type_symbol
 _atom_site_label
 _atom_site_symmetry_multiplicity
 _atom_site_fract_x
 _atom_site_fract_y
 _atom_site_fract_z
 _atom_site_occupancy
  Cr  Cr0  1  1.00097263  0.00315282  0.99906086  1
  Cr  Cr1  1  0.16752466  0.16653266  0.16719257  1
  Fe  Fe2  1  0.00137520  0.00391240  0.33512289  1
  Fe  Fe3  1  0.99693847  0.33732500  1.00044065  1
  Fe  Fe4  1  0.16789754  0.50314040  0.16886107  1
  Ni  Ni5  1  0.00153471  0.33532367  0.33343875  1
  Fe  Fe6  1  1.00066388  0.66494552  1.00025410  1
  Ni  Ni7  1  0.16677914  0.83176725  0.16928951  1
  Fe  Fe8  1  0.00348756  0.66451352  0.33475749  1
  Fe  Fe9  1  0.33412687  0.99845638  1.00057960  1
  Cr  Cr10  1  0.50309970  0.17149142  0.16936410  1
  Ni  Ni11  1  0.33424937  0.00127727  0.33393907  1
  Cr  Cr12  1  0.33158260  0.33574838  0.99981316  1
  Ni  Ni13  1  0.50243667  0.50011134  0.16709346  1
  Fe  Fe14  1  0.33381353  0.33614887  0.33657542  1
  Fe  Fe15  1  0.33495667  0.66703900  1.00074313  1
  Cr  Cr16  1  0.49847592  0.83309220  0.16661153  1
  Fe  Fe17  1  0.33344416  0.66553863  0.33402070  1
  Cr  Cr18  1  0.66791134  0.99846634  1.00042619  1
  Fe  Fe19  1  0.83420382  0.17055484  0.16920928  1
  Fe  Fe20  1  0.66734324  0.00305599  0.33710784  1
  Fe  Fe21  1  0.67013068  0.33745885  0.99997031  1
  Fe  Fe22  1  0.83464741  0.49928180  0.16641751  1
  Fe  Fe23  1  0.66893749  0.33442274  0.33630820  1
  Ni  Ni24  1  0.66771452  0.66505307  0.99950845  1
  Cr  Cr25  1  0.83781179  0.83337734  0.16929501  1
  Cr  Cr26  1  0.66719831  0.66720438  0.33574423  1
  Ni  Ni27  1  0.16704007  0.16879720  0.50074692  1
  Fe  Fe28  1  0.99805859  0.00307541  0.66863495  1
  Fe  Fe29  1  0.16686627  0.17121023  0.83364501  1
  Fe  Fe30  1  0.16696409  0.49978370  0.50060988  1
  Cr  Cr31  1  0.00202435  0.33462707  0.66930963  1
  Fe  Fe32  1  0.16755667  0.50067916  0.83328019  1
  Cr  Cr33  1  0.16741547  0.83372489  0.49997175  1
  Ni  Ni34  1  0.99909661  0.66528829  0.66846755  1
  Cr  Cr35  1  0.16713975  0.83254043  0.83305918  1
  Fe  Fe36  1  0.50151190  0.16672364  0.50094302  1
  Cr  Cr37  1  0.33488655  0.00326317  0.66907735  1
  Cr  Cr38  1  0.50299259  0.17140891  0.83348081  1
  Fe  Fe39  1  0.50097006  0.49987190  0.50287335  1
  Ni  Ni40  1  0.33416085  0.33578835  0.66540816  1
  Ni  Ni41  1  0.50206527  0.50171308  0.83283542  1
  Ni  Ni42  1  0.50003261  0.83278264  0.50187514  1
  Fe  Fe43  1  0.33661888  0.66459355  0.66717534  1
  Fe  Fe44  1  0.50408254  0.83124622  0.83305768  1
  Ni  Ni45  1  0.83424697  0.17007182  0.49999865  1
  Ni  Ni46  1  0.66802125  1.00022981  0.66709881  1
  Ni  Ni47  1  0.83348371  0.16964404  0.83359967  1
  Fe  Fe48  1  0.83503694  0.49953501  0.50251294  1
  Ni  Ni49  1  0.66791931  0.33543443  0.66663563  1
  Ni  Ni50  1  0.83264433  0.50113471  0.83474031  1
  Cr  Cr51  1  0.83518808  0.83449381  0.50406863  1
  Ni  Ni52  1  0.66800726  0.66705627  0.66884360  1
  Fe  Fe53  1  0.83202085  0.83219989  0.83221506  1
" 