4430,Ni30Fe44Cr25_18,-228.689477127846, 189.186920779149,Ni30Fe44Cr25,"# generated using pymatgen
 data_Cr15Fe23Ni16
_symmetry_space_group_name_H-M   'P 1'
_cell_length_a   7.46250854
_cell_length_b   7.46250854
_cell_length_c   10.55358078
_cell_angle_alpha   90.00000000
_cell_angle_beta   90.00000000
_cell_angle_gamma   90.00000000
_symmetry_Int_Tables_number   1
_chemical_formula_structural   Cr15Fe23Ni16
_chemical_formula_sum   'Cr15 Fe23 Ni16'
_cell_volume   587.71871586
_cell_formula_units_Z   1
loop_
 _symmetry_equiv_pos_site_id
 _symmetry_equiv_pos_as_xyz
  1  'x, y, z'
loop_
 _atom_site_type_symbol
 _atom_site_label
 _atom_site_symmetry_multiplicity
 _atom_site_fract_x
 _atom_site_fract_y
 _atom_site_fract_z
 _atom_site_occupancy
  Fe  Fe0  1  0.00081211  0.00264564  0.00116897  1
  Fe  Fe1  1  0.16468419  0.16892832  0.16807705  1
  Ni  Ni2  1  0.99951811  0.00148387  0.33119532  1
  Fe  Fe3  1  0.99923809  0.33364113  0.00181009  1
  Ni  Ni4  1  0.16649777  0.49908058  0.16754029  1
  Fe  Fe5  1  0.00102351  0.33310907  0.33158827  1
  Fe  Fe6  1  0.99771735  0.66472877  0.00074977  1
  Cr  Cr7  1  0.16602411  0.83332651  0.16849302  1
  Fe  Fe8  1  0.00160762  0.66693042  0.33292288  1
  Fe  Fe9  1  0.33121966  0.00336102  0.00040252  1
  Cr  Cr10  1  0.49926614  0.16895583  0.16803081  1
  Ni  Ni11  1  0.33162099  0.00038154  0.33444681  1
  Ni  Ni12  1  0.33071588  0.33474446  0.00169681  1
  Fe  Fe13  1  0.50085102  0.50044538  0.16761148  1
  Ni  Ni14  1  0.33348047  0.33598447  0.33285877  1
  Fe  Fe15  1  0.33249965  0.66474944  0.00237026  1
  Cr  Cr16  1  0.50053189  0.83324509  0.16702865  1
  Ni  Ni17  1  0.33406455  0.66458293  0.33413411  1
  Cr  Cr18  1  0.67166392  0.99983465  0.99976620  1
  Ni  Ni19  1  0.83458824  0.16840571  0.16766599  1
  Cr  Cr20  1  0.66895989  0.00078367  0.33509898  1
  Fe  Fe21  1  0.66989492  0.33489661  0.00180449  1
  Ni  Ni22  1  0.83451629  0.49988983  0.16846980  1
  Fe  Fe23  1  0.66737407  0.33502754  0.33398276  1
  Fe  Fe24  1  0.67075998  0.66400325  0.00093826  1
  Ni  Ni25  1  0.83507550  0.83240917  0.16647809  1
  Fe  Fe26  1  0.66655598  0.66479324  0.33345983  1
  Cr  Cr27  1  0.16632941  0.16553073  0.49897322  1
  Ni  Ni28  1  0.99916803  0.00159495  0.66877166  1
  Fe  Fe29  1  0.16511482  0.16728361  0.83333972  1
  Cr  Cr30  1  0.16514855  0.50144899  0.50059687  1
  Fe  Fe31  1  0.99819902  0.33264668  0.66727947  1
  Cr  Cr32  1  0.16493589  0.49883726  0.83195950  1
  Ni  Ni33  1  0.16585149  0.83507264  0.49967498  1
  Ni  Ni34  1  0.99774940  0.66754426  0.66705976  1
  Cr  Cr35  1  0.16488259  0.83422830  0.83318399  1
  Fe  Fe36  1  0.49951897  0.16744963  0.50042184  1
  Ni  Ni37  1  0.33233739  0.00231259  0.66559963  1
  Cr  Cr38  1  0.49968617  0.16795234  0.83161913  1
  Ni  Ni39  1  0.50166209  0.49663552  0.49805108  1
  Fe  Fe40  1  0.33361310  0.33255468  0.66551569  1
  Cr  Cr41  1  0.50117692  0.49771593  0.83679260  1
  Fe  Fe42  1  0.49699573  0.83359244  0.49902676  1
  Cr  Cr43  1  0.33326983  0.66698485  0.66498313  1
  Cr  Cr44  1  0.50082821  0.83501413  0.83448955  1
  Fe  Fe45  1  0.83489129  0.16897941  0.50026464  1
  Fe  Fe46  1  0.66898060  0.00080663  0.66627763  1
  Fe  Fe47  1  0.83589611  0.16802447  0.83339096  1
  Fe  Fe48  1  0.83384157  0.49872240  0.49982948  1
  Fe  Fe49  1  0.66913347  0.33262165  0.66518710  1
  Ni  Ni50  1  0.83497609  0.49941627  0.83313308  1
  Cr  Cr51  1  0.83791522  0.83382528  0.49963905  1
  Cr  Cr52  1  0.66769950  0.66597736  0.66717632  1
  Ni  Ni53  1  0.83585937  0.83328163  0.83439563  1
" 