7957,Ni30Fe63Cr6_17,-234.116270708524, 200.6596269453,Ni30Fe63Cr6,"# generated using pymatgen
 data_Cr2Fe17Ni8
_symmetry_space_group_name_H-M   'P 1'
_cell_length_a   7.41662204
_cell_length_b   7.41662204
_cell_length_c   10.48868747
_cell_angle_alpha   90.00000000
_cell_angle_beta   90.00000000
_cell_angle_gamma   90.00000000
_symmetry_Int_Tables_number   1
_chemical_formula_structural   Cr2Fe17Ni8
_chemical_formula_sum   'Cr4 Fe34 Ni16'
_cell_volume   576.94370508
_cell_formula_units_Z   2
loop_
 _symmetry_equiv_pos_site_id
 _symmetry_equiv_pos_as_xyz
  1  'x, y, z'
loop_
 _atom_site_type_symbol
 _atom_site_label
 _atom_site_symmetry_multiplicity
 _atom_site_fract_x
 _atom_site_fract_y
 _atom_site_fract_z
 _atom_site_occupancy
  Ni  Ni0  1  1.00307798  0.00444115  1.00250828  1
  Cr  Cr1  1  0.17117140  0.17004055  0.16825528  1
  Cr  Cr2  1  1.00252849  1.00252876  0.33732106  1
  Fe  Fe3  1  1.00254526  0.33483677  1.00230424  1
  Fe  Fe4  1  0.17061713  0.50430534  0.17101194  1
  Fe  Fe5  1  1.00229774  0.34089719  0.33776783  1
  Cr  Cr6  1  0.00377865  0.67097533  0.00386247  1
  Fe  Fe7  1  0.17107921  0.83480056  0.17004098  1
  Ni  Ni8  1  1.00307362  0.66891661  0.33727673  1
  Ni  Ni9  1  0.33685744  0.00459027  1.00314401  1
  Fe  Fe10  1  0.50505431  0.17033462  0.16986353  1
  Fe  Fe11  1  0.33919866  1.00155212  0.33729353  1
  Ni  Ni12  1  0.33767725  0.33641985  1.00239140  1
  Fe  Fe13  1  0.50263986  0.50272666  0.17092316  1
  Fe  Fe14  1  0.33749334  0.33832510  0.33717123  1
  Fe  Fe15  1  0.33665078  0.67102999  0.00375019  1
  Fe  Fe16  1  0.50293710  0.83713709  0.17073236  1
  Ni  Ni17  1  0.33730016  0.66922784  0.33555208  1
  Ni  Ni18  1  0.67026330  0.00522776  0.00369339  1
  Fe  Fe19  1  0.83460953  0.17079528  0.16821389  1
  Fe  Fe20  1  0.66842136  1.00205767  0.33660996  1
  Fe  Fe21  1  0.67018876  0.33398436  1.00303347  1
  Ni  Ni22  1  0.83675846  0.50283978  0.17130319  1
  Fe  Fe23  1  0.67040980  0.33809987  0.33729770  1
  Cr  Cr24  1  0.66935075  0.66977650  0.00362419  1
  Fe  Fe25  1  0.83618127  0.83721210  0.17124854  1
  Ni  Ni26  1  0.66982730  0.66920603  0.33689360  1
  Fe  Fe27  1  0.16995298  0.17073436  0.50438092  1
  Ni  Ni28  1  0.00397661  0.00411936  0.67049477  1
  Fe  Fe29  1  0.16931943  0.16984957  0.83722261  1
  Fe  Fe30  1  0.16950393  0.50352756  0.50306787  1
  Ni  Ni31  1  1.00320337  0.33541277  0.66981148  1
  Fe  Fe32  1  0.17052740  0.50178094  0.83611636  1
  Fe  Fe33  1  0.17020179  0.83593338  0.50382477  1
  Fe  Fe34  1  1.00210455  0.66957825  0.66936609  1
  Fe  Fe35  1  0.17019080  0.83857005  0.83633314  1
  Ni  Ni36  1  0.50219314  0.16958832  0.50317610  1
  Fe  Fe37  1  0.33693757  0.00407030  0.67014452  1
  Fe  Fe38  1  0.50378084  0.17012987  0.83689230  1
  Fe  Fe39  1  0.50467342  0.50384770  0.50346359  1
  Fe  Fe40  1  0.33695419  0.33651166  0.67029524  1
  Fe  Fe41  1  0.50322175  0.50215493  0.83580890  1
  Fe  Fe42  1  0.50444962  0.83608563  0.50309263  1
  Fe  Fe43  1  0.33665941  0.66961558  0.66985614  1
  Fe  Fe44  1  0.50328185  0.83791679  0.83637124  1
  Fe  Fe45  1  0.83586630  0.17095655  0.50533926  1
  Fe  Fe46  1  0.67114266  0.00410940  0.67029520  1
  Ni  Ni47  1  0.83702894  0.17004846  0.83758831  1
  Ni  Ni48  1  0.83728112  0.50473468  0.50383561  1
  Ni  Ni49  1  0.66998427  0.33804578  0.67031420  1
  Fe  Fe50  1  0.83644862  0.50128728  0.83455329  1
  Ni  Ni51  1  0.83621304  0.83448294  0.50440911  1
  Ni  Ni52  1  0.66976086  0.66907218  0.66954991  1
  Fe  Fe53  1  0.83672548  0.83912342  0.83488106  1
" 