3514,Ni30Fe29Cr40_6,-223.247760093065, 179.793720470927,Ni30Fe29Cr40,"# generated using pymatgen
 data_Cr23Fe15Ni16
_symmetry_space_group_name_H-M   'P 1'
_cell_length_a   7.48712443
_cell_length_b   7.48712443
_cell_length_c   10.58839291
_cell_angle_alpha   90.00000000
_cell_angle_beta   90.00000000
_cell_angle_gamma   90.00000000
_symmetry_Int_Tables_number   1
_chemical_formula_structural   Cr23Fe15Ni16
_chemical_formula_sum   'Cr23 Fe15 Ni16'
_cell_volume   593.55388201
_cell_formula_units_Z   1
loop_
 _symmetry_equiv_pos_site_id
 _symmetry_equiv_pos_as_xyz
  1  'x, y, z'
loop_
 _atom_site_type_symbol
 _atom_site_label
 _atom_site_symmetry_multiplicity
 _atom_site_fract_x
 _atom_site_fract_y
 _atom_site_fract_z
 _atom_site_occupancy
  Cr  Cr0  1  0.00325649  -0.00122886  0.99819938  1
  Ni  Ni1  1  0.16454489  0.16484614  0.16587750  1
  Fe  Fe2  1  0.00013687  -0.00005254  0.33311815  1
  Ni  Ni3  1  0.00028633  0.33318777  0.99750667  1
  Cr  Cr4  1  0.16394662  0.49782472  0.16448649  1
  Ni  Ni5  1  -0.00106746  0.33395361  0.33320959  1
  Ni  Ni6  1  0.00017187  0.66427738  -0.00109023  1
  Fe  Fe7  1  0.16521808  0.83272674  0.16606779  1
  Fe  Fe8  1  -0.00075802  0.66389957  0.33300348  1
  Ni  Ni9  1  0.32974156  -0.00046972  0.99794067  1
  Ni  Ni10  1  0.49654092  0.16450029  0.16522734  1
  Cr  Cr11  1  0.32969845  -0.00056175  0.33173558  1
  Cr  Cr12  1  0.33061322  0.32833929  0.00056621  1
  Ni  Ni13  1  0.49844252  0.49957198  0.16695841  1
  Cr  Cr14  1  0.33014300  0.33029537  0.33170484  1
  Cr  Cr15  1  0.32943648  0.66762083  0.99714242  1
  Cr  Cr16  1  0.49776185  0.83199727  0.16607431  1
  Fe  Fe17  1  0.32913480  0.66408105  0.33210880  1
  Cr  Cr18  1  0.66268751  0.00027688  0.99662037  1
  Cr  Cr19  1  0.83566849  0.16601365  0.16444347  1
  Fe  Fe20  1  0.66598601  0.00036902  0.33309926  1
  Cr  Cr21  1  0.66640164  0.33225530  -0.00024358  1
  Ni  Ni22  1  0.83485543  0.49954803  0.16620543  1
  Cr  Cr23  1  0.66575123  0.33351053  0.33037729  1
  Cr  Cr24  1  0.66808695  0.66379551  0.00011621  1
  Cr  Cr25  1  0.83431213  0.83190478  0.16810986  1
  Fe  Fe26  1  0.66758729  0.66418677  0.33221823  1
  Fe  Fe27  1  0.16407083  0.16338862  0.49812767  1
  Fe  Fe28  1  -0.00061766  -0.00112437  0.66513770  1
  Ni  Ni29  1  0.16390811  0.16647702  0.83202964  1
  Fe  Fe30  1  0.16186778  0.49979431  0.49889418  1
  Fe  Fe31  1  -0.00132585  0.33106487  0.66603110  1
  Ni  Ni32  1  0.16386595  0.49903240  0.83038644  1
  Ni  Ni33  1  0.16217484  0.82967894  0.49862092  1
  Fe  Fe34  1  0.00120486  0.66544065  0.66443922  1
  Fe  Fe35  1  0.16526551  0.83208836  0.83101253  1
  Ni  Ni36  1  0.49940404  0.16580086  0.49869366  1
  Cr  Cr37  1  0.32878477  -0.00125182  0.66641391  1
  Ni  Ni38  1  0.49750685  0.16483530  0.83181034  1
  Cr  Cr39  1  0.49630473  0.49826974  0.49889406  1
  Cr  Cr40  1  0.33018406  0.32994190  0.66336991  1
  Cr  Cr41  1  0.49553401  0.49837611  0.83099674  1
  Cr  Cr42  1  0.49839902  0.83177264  0.49786002  1
  Fe  Fe43  1  0.32869100  0.66573352  0.66557736  1
  Fe  Fe44  1  0.49556388  0.83372187  0.83212640  1
  Cr  Cr45  1  0.83317697  0.16482337  0.49997172  1
  Cr  Cr46  1  0.66540595  -0.00024549  0.66614158  1
  Ni  Ni47  1  0.83435719  0.16592797  0.83055525  1
  Fe  Fe48  1  0.83407215  0.49960048  0.49811236  1
  Ni  Ni49  1  0.66684690  0.33154375  0.66542491  1
  Cr  Cr50  1  0.83540778  0.49628450  0.83253461  1
  Ni  Ni51  1  0.83607253  0.83151432  0.49645580  1
  Cr  Cr52  1  0.66889561  0.66506209  0.66509375  1
  Cr  Cr53  1  0.83399215  0.83337765  0.83210347  1
" 