5724,Ni30Fe9Cr59_10,-215.643419428271, 158.898377940334,Ni30Fe9Cr59,"# generated using pymatgen
 data_Cr33Fe5Ni16
_symmetry_space_group_name_H-M   'P 1'
_cell_length_a   7.53585178
_cell_length_b   7.53585178
_cell_length_c   10.65730379
_cell_angle_alpha   90.00000000
_cell_angle_beta   90.00000000
_cell_angle_gamma   90.00000000
_symmetry_Int_Tables_number   1
_chemical_formula_structural   Cr33Fe5Ni16
_chemical_formula_sum   'Cr33 Fe5 Ni16'
_cell_volume   605.21828539
_cell_formula_units_Z   1
loop_
 _symmetry_equiv_pos_site_id
 _symmetry_equiv_pos_as_xyz
  1  'x, y, z'
loop_
 _atom_site_type_symbol
 _atom_site_label
 _atom_site_symmetry_multiplicity
 _atom_site_fract_x
 _atom_site_fract_y
 _atom_site_fract_z
 _atom_site_occupancy
  Cr  Cr0  1  -0.00310539  -0.00157161  0.99452296  1
  Cr  Cr1  1  0.16689189  0.16467181  0.16081517  1
  Cr  Cr2  1  -0.00373436  -0.00316478  0.33020836  1
  Ni  Ni3  1  0.99536917  0.33140349  0.99395425  1
  Cr  Cr4  1  0.16053393  0.49482686  0.16362682  1
  Cr  Cr5  1  0.99312502  0.32694780  0.32859135  1
  Ni  Ni6  1  0.99434987  0.65724120  -0.00413313  1
  Cr  Cr7  1  0.16355059  0.82702457  0.16360068  1
  Ni  Ni8  1  0.99443911  0.66038184  0.32681036  1
  Ni  Ni9  1  0.32996730  -0.00388055  -0.00417234  1
  Cr  Cr10  1  0.49367350  0.16065515  0.16067631  1
  Ni  Ni11  1  0.33196697  -0.00359964  0.32951729  1
  Fe  Fe12  1  0.32793221  0.32869896  0.99450313  1
  Fe  Fe13  1  0.49474155  0.49528873  0.16197659  1
  Ni  Ni14  1  0.33223861  0.32798677  0.32880074  1
  Cr  Cr15  1  0.33162037  0.66168593  0.99445048  1
  Ni  Ni16  1  0.49391761  0.83132537  0.16168866  1
  Cr  Cr17  1  0.33276336  0.66180196  0.33039144  1
  Ni  Ni18  1  0.65852837  0.99509091  -0.00332648  1
  Cr  Cr19  1  0.82591110  0.16373252  0.16126682  1
  Cr  Cr20  1  0.66146712  -0.00380984  0.32965343  1
  Cr  Cr21  1  0.66331291  0.33216396  -0.00328515  1
  Ni  Ni22  1  0.83122023  0.49658300  0.16069240  1
  Cr  Cr23  1  0.66089825  0.33000555  0.32917768  1
  Cr  Cr24  1  0.66118533  0.65974331  -0.00320462  1
  Cr  Cr25  1  0.82765105  0.82613704  0.16030236  1
  Cr  Cr26  1  0.66091410  0.65980461  0.32582438  1
  Cr  Cr27  1  0.16510663  0.16517239  0.49414859  1
  Cr  Cr28  1  0.99542184  0.00037678  0.66154999  1
  Fe  Fe29  1  0.16200302  0.16483440  0.83056695  1
  Cr  Cr30  1  0.16188924  0.49533954  0.49368921  1
  Ni  Ni31  1  0.99184652  0.32746925  0.66323118  1
  Cr  Cr32  1  0.16012095  0.49353340  0.82920210  1
  Cr  Cr33  1  0.16266574  0.82595147  0.49264823  1
  Cr  Cr34  1  -0.00437290  0.66121439  0.66409456  1
  Cr  Cr35  1  0.16248561  0.82782830  0.83038573  1
  Ni  Ni36  1  0.49723686  0.16221546  0.49533949  1
  Cr  Cr37  1  0.32824105  0.99538640  0.66135573  1
  Cr  Cr38  1  0.49619547  0.16204455  0.83064653  1
  Fe  Fe39  1  0.49638282  0.49075522  0.49610069  1
  Cr  Cr40  1  0.33014506  0.32933418  0.66325711  1
  Ni  Ni41  1  0.49716349  0.49196488  0.82832010  1
  Fe  Fe42  1  0.49668764  0.83248588  0.49486439  1
  Cr  Cr43  1  0.33228213  0.66163907  0.66119070  1
  Cr  Cr44  1  0.49753738  0.83243773  0.82898338  1
  Ni  Ni45  1  0.82292912  0.16383883  0.49911340  1
  Ni  Ni46  1  0.66065091  -0.00111085  0.65888857  1
  Cr  Cr47  1  0.82472953  0.16374578  0.82667738  1
  Cr  Cr48  1  0.83014668  0.49431172  0.49682385  1
  Ni  Ni49  1  0.66275945  0.32791145  0.66102729  1
  Ni  Ni50  1  0.82897326  0.49234791  0.82888133  1
  Cr  Cr51  1  0.82740552  0.82865332  0.49607424  1
  Cr  Cr52  1  0.65879091  0.65882674  0.66355984  1
  Cr  Cr53  1  0.82672968  0.82780030  0.82993292  1
" 