3915,Ni30Fe44Cr25_0,-228.276751349379, 194.065638327314,Ni30Fe44Cr25,"# generated using pymatgen
 data_Cr15Fe23Ni16
_symmetry_space_group_name_H-M   'P 1'
_cell_length_a   7.45514352
_cell_length_b   7.45514352
_cell_length_c   10.54316508
_cell_angle_alpha   90.00000000
_cell_angle_beta   90.00000000
_cell_angle_gamma   90.00000000
_symmetry_Int_Tables_number   1
_chemical_formula_structural   Cr15Fe23Ni16
_chemical_formula_sum   'Cr15 Fe23 Ni16'
_cell_volume   585.98031045
_cell_formula_units_Z   1
loop_
 _symmetry_equiv_pos_site_id
 _symmetry_equiv_pos_as_xyz
  1  'x, y, z'
loop_
 _atom_site_type_symbol
 _atom_site_label
 _atom_site_symmetry_multiplicity
 _atom_site_fract_x
 _atom_site_fract_y
 _atom_site_fract_z
 _atom_site_occupancy
  Ni  Ni0  1  0.00321052  0.99981098  0.00205399  1
  Ni  Ni1  1  0.16796370  0.16487255  0.16611458  1
  Fe  Fe2  1  0.00194279  0.99898456  0.33174028  1
  Fe  Fe3  1  0.00297621  0.33302661  1.00017305  1
  Cr  Cr4  1  0.16805314  0.49992474  0.16741714  1
  Cr  Cr5  1  0.00125138  0.33255112  0.33350454  1
  Ni  Ni6  1  0.00289540  0.67009876  0.99857846  1
  Ni  Ni7  1  0.16770869  0.83702889  0.16659361  1
  Ni  Ni8  1  0.00095951  0.67110187  0.33468019  1
  Fe  Fe9  1  0.33189752  0.00110876  0.00171360  1
  Fe  Fe10  1  0.49844849  0.16602425  0.16805083  1
  Ni  Ni11  1  0.33306072  0.00199115  0.33252882  1
  Fe  Fe12  1  0.33189995  0.33356672  1.00026100  1
  Fe  Fe13  1  0.49913135  0.50022649  0.16855998  1
  Ni  Ni14  1  0.33625874  0.33201351  0.33487029  1
  Fe  Fe15  1  0.33144608  0.66772040  1.00070618  1
  Fe  Fe16  1  0.50036683  0.83614306  0.16795325  1
  Cr  Cr17  1  0.33306032  0.66823738  0.33451079  1
  Fe  Fe18  1  0.66894964  1.00067252  0.00182266  1
  Ni  Ni19  1  0.83474776  0.16392128  0.16759129  1
  Fe  Fe20  1  0.66725594  1.00064809  0.33301409  1
  Cr  Cr21  1  0.66633829  0.33317732  0.00101642  1
  Cr  Cr22  1  0.83464947  0.50190316  0.16749584  1
  Cr  Cr23  1  0.66509976  0.33325428  0.33462142  1
  Cr  Cr24  1  0.66802368  0.66696087  1.00050263  1
  Fe  Fe25  1  0.83649585  0.83630840  0.16819836  1
  Ni  Ni26  1  0.66776651  0.66789873  0.33284068  1
  Cr  Cr27  1  0.16863998  0.16696878  0.50109516  1
  Fe  Fe28  1  0.00140945  0.99976333  0.66856785  1
  Ni  Ni29  1  0.16835033  0.16906294  0.83485811  1
  Fe  Fe30  1  0.16856411  0.50226903  0.50122333  1
  Fe  Fe31  1  0.00282492  0.33434050  0.66859131  1
  Ni  Ni32  1  0.16630556  0.49886744  0.83446317  1
  Ni  Ni33  1  0.16680566  0.83512745  0.50113435  1
  Fe  Fe34  1  1.00063931  0.66829388  0.66873286  1
  Fe  Fe35  1  0.16510194  0.83517198  0.83508664  1
  Fe  Fe36  1  0.50000433  0.16695087  0.50087005  1
  Ni  Ni37  1  0.33264878  0.00266424  0.66862421  1
  Fe  Fe38  1  0.49711608  0.16736547  0.83347551  1
  Ni  Ni39  1  0.50042297  0.49993427  0.50045061  1
  Fe  Fe40  1  0.33428219  0.33327465  0.66796767  1
  Fe  Fe41  1  0.49892063  0.49911485  0.83340072  1
  Cr  Cr42  1  0.50138626  0.83478616  0.50042784  1
  Cr  Cr43  1  0.33216132  0.66741156  0.66638284  1
  Cr  Cr44  1  0.50217662  0.83556128  0.83327892  1
  Fe  Fe45  1  0.83299066  0.16514543  0.50149424  1
  Ni  Ni46  1  0.66742419  0.00184398  0.66769579  1
  Cr  Cr47  1  0.83620613  0.16608388  0.83359374  1
  Cr  Cr48  1  0.83396573  0.50223898  0.50138482  1
  Cr  Cr49  1  0.66621678  0.33422148  0.66675749  1
  Fe  Fe50  1  0.83701303  0.50303256  0.83347878  1
  Cr  Cr51  1  0.83370921  0.83448181  0.50053495  1
  Ni  Ni52  1  0.66908494  0.66660099  0.66913511  1
  Fe  Fe53  1  0.83688321  0.83335833  0.83329253  1
" 