7571,Ni30Fe44Cr24_0,-228.91583824258, 195.179633456205,Ni30Fe44Cr24,"# generated using pymatgen
 data_Cr7(Fe3Ni2)4
_symmetry_space_group_name_H-M   'P 1'
_cell_length_a   7.44956555
_cell_length_b   7.44956555
_cell_length_c   10.53527663
_cell_angle_alpha   90.00000000
_cell_angle_beta   90.00000000
_cell_angle_gamma   90.00000000
_symmetry_Int_Tables_number   1
_chemical_formula_structural   Cr7(Fe3Ni2)4
_chemical_formula_sum   'Cr14 Fe24 Ni16'
_cell_volume   584.66599486
_cell_formula_units_Z   2
loop_
 _symmetry_equiv_pos_site_id
 _symmetry_equiv_pos_as_xyz
  1  'x, y, z'
loop_
 _atom_site_type_symbol
 _atom_site_label
 _atom_site_symmetry_multiplicity
 _atom_site_fract_x
 _atom_site_fract_y
 _atom_site_fract_z
 _atom_site_occupancy
  Ni  Ni0  1  1.00070129  0.99983338  1.00015123  1
  Ni  Ni1  1  0.17078861  0.16741358  0.16732912  1
  Cr  Cr2  1  0.99902054  0.00256456  0.33562745  1
  Cr  Cr3  1  0.00472206  0.33464127  1.00075718  1
  Fe  Fe4  1  0.16869431  0.50074096  0.16822781  1
  Ni  Ni5  1  0.00175024  0.33559848  0.33636677  1
  Fe  Fe6  1  1.00112665  0.66909621  0.99992030  1
  Cr  Cr7  1  0.16857402  0.83505016  0.16767324  1
  Fe  Fe8  1  0.00221417  0.66579710  0.33601793  1
  Fe  Fe9  1  0.33431003  0.00338190  1.00075982  1
  Fe  Fe10  1  0.50027929  0.16630302  0.16684225  1
  Ni  Ni11  1  0.33696036  0.00204401  0.33318690  1
  Ni  Ni12  1  0.33533100  0.33514958  1.00102398  1
  Fe  Fe13  1  0.49910169  0.50124190  0.16643601  1
  Cr  Cr14  1  0.33268522  0.33528479  0.33454241  1
  Fe  Fe15  1  0.33545839  0.66710860  1.00057682  1
  Fe  Fe16  1  0.50196313  0.83603100  0.16775654  1
  Ni  Ni17  1  0.33532624  0.66652122  0.33365103  1
  Ni  Ni18  1  0.66674313  0.99857744  0.00351962  1
  Cr  Cr19  1  0.83394030  0.16721230  0.16759337  1
  Fe  Fe20  1  0.66625683  0.00213227  0.33416792  1
  Fe  Fe21  1  0.66444080  0.33468911  0.99985275  1
  Cr  Cr22  1  0.83385838  0.50168175  0.16723295  1
  Fe  Fe23  1  0.66758028  0.33369829  0.33657453  1
  Fe  Fe24  1  0.66689113  0.66788104  1.00103611  1
  Ni  Ni25  1  0.83351941  0.83459855  0.16662195  1
  Cr  Cr26  1  0.66804272  0.66955788  0.33549194  1
  Fe  Fe27  1  0.16717962  0.17049987  0.50160842  1
  Fe  Fe28  1  0.00270751  0.00153506  0.66758745  1
  Ni  Ni29  1  0.17022389  0.16672490  0.83433290  1
  Fe  Fe30  1  0.16613534  0.50075722  0.50111585  1
  Fe  Fe31  1  0.00244840  0.33578406  0.66708419  1
  Fe  Fe32  1  0.16770828  0.50026949  0.83419309  1
  Cr  Cr33  1  0.16690286  0.83474041  0.50034686  1
  Ni  Ni34  1  0.99823823  0.66555514  0.66737669  1
  Fe  Fe35  1  0.16712608  0.83396303  0.83571260  1
  Fe  Fe36  1  0.50227285  0.17012935  0.50053014  1
  Cr  Cr37  1  0.33425517  0.00457778  0.67022798  1
  Fe  Fe38  1  0.49998601  0.17047468  0.83617311  1
  Ni  Ni39  1  0.50265682  0.49825398  0.50193875  1
  Ni  Ni40  1  0.33412356  0.33501985  0.66788586  1
  Ni  Ni41  1  0.50188928  0.50028373  0.83503591  1
  Cr  Cr42  1  0.50041497  0.83344619  0.49916926  1
  Cr  Cr43  1  0.33504562  0.66395528  0.66897731  1
  Fe  Fe44  1  0.50102641  0.83377793  0.83674512  1
  Fe  Fe45  1  0.83406997  0.16971788  0.50085354  1
  Cr  Cr46  1  0.66893609  1.00031432  0.66570655  1
  Cr  Cr47  1  0.83577903  0.16979972  0.83489900  1
  Ni  Ni48  1  0.83406829  0.49980681  0.50257755  1
  Fe  Fe49  1  0.66657460  0.33828115  0.66717343  1
  Ni  Ni50  1  0.83183533  0.50219553  0.83319902  1
  Ni  Ni51  1  0.83597184  0.83339633  0.50161667  1
  Fe  Fe52  1  0.66930980  0.66387818  0.66729818  1
  Cr  Cr53  1  0.83619544  0.83239328  0.83505817  1
" 