8248,Ni30Fe24Cr45_18,-221.503309651551, 169.070480256969,Ni30Fe24Cr45,"# generated using pymatgen
 data_Cr25Fe13Ni16
_symmetry_space_group_name_H-M   'P 1'
_cell_length_a   7.50048957
_cell_length_b   7.50048957
_cell_length_c   10.60729407
_cell_angle_alpha   90.00000000
_cell_angle_beta   90.00000000
_cell_angle_gamma   90.00000000
_symmetry_Int_Tables_number   1
_chemical_formula_structural   Cr25Fe13Ni16
_chemical_formula_sum   'Cr25 Fe13 Ni16'
_cell_volume   596.73818871
_cell_formula_units_Z   1
loop_
 _symmetry_equiv_pos_site_id
 _symmetry_equiv_pos_as_xyz
  1  'x, y, z'
loop_
 _atom_site_type_symbol
 _atom_site_label
 _atom_site_symmetry_multiplicity
 _atom_site_fract_x
 _atom_site_fract_y
 _atom_site_fract_z
 _atom_site_occupancy
  Cr  Cr0  1  0.99592602  -0.00092637  0.99525684  1
  Cr  Cr1  1  0.16496079  0.16552260  0.16638773  1
  Ni  Ni2  1  -0.00103216  0.00049537  0.33464160  1
  Ni  Ni3  1  0.99771303  0.33079728  0.00162463  1
  Fe  Fe4  1  0.16521645  0.49702450  0.16338145  1
  Fe  Fe5  1  0.99749288  0.33073507  0.33314208  1
  Fe  Fe6  1  -0.00085199  0.66089847  -0.00014572  1
  Cr  Cr7  1  0.16576462  0.83209881  0.16433258  1
  Cr  Cr8  1  0.00049919  0.66207613  0.33123559  1
  Fe  Fe9  1  0.33228317  0.00127210  -0.00205360  1
  Ni  Ni10  1  0.49657740  0.16573517  0.16277713  1
  Fe  Fe11  1  0.32975203  0.99769786  0.33213506  1
  Ni  Ni12  1  0.33149576  0.33148872  -0.00157574  1
  Cr  Cr13  1  0.49754383  0.49584543  0.16371233  1
  Cr  Cr14  1  0.32852273  0.33207058  0.33417345  1
  Ni  Ni15  1  0.32945708  0.66271612  -0.00034948  1
  Fe  Fe16  1  0.49359809  0.83248971  0.16493466  1
  Ni  Ni17  1  0.32865962  0.66325414  0.33234831  1
  Cr  Cr18  1  0.66402701  0.00046695  -0.00141646  1
  Fe  Fe19  1  0.83199295  0.16753044  0.16505042  1
  Cr  Cr20  1  0.66466676  0.00054783  0.32791883  1
  Ni  Ni21  1  0.66470713  0.32799118  0.99735395  1
  Fe  Fe22  1  0.83279137  0.49270768  0.16364990  1
  Cr  Cr23  1  0.66401743  0.32983104  0.33270059  1
  Cr  Cr24  1  0.66436064  0.66573394  -0.00045999  1
  Cr  Cr25  1  0.83300648  0.83046015  0.16589661  1
  Cr  Cr26  1  0.66316338  0.66309571  0.33159512  1
  Fe  Fe27  1  0.16112086  0.16286788  0.49833252  1
  Ni  Ni28  1  -0.00038402  0.00219601  0.66232733  1
  Cr  Cr29  1  0.16532228  0.16559329  0.82999759  1
  Ni  Ni30  1  0.16374600  0.49753666  0.49682550  1
  Ni  Ni31  1  0.99742026  0.32884583  0.66108298  1
  Cr  Cr32  1  0.16451034  0.49578971  0.83505095  1
  Ni  Ni33  1  0.16661374  0.83276659  0.49826224  1
  Cr  Cr34  1  0.00125107  0.66267296  0.66347883  1
  Cr  Cr35  1  0.16599988  0.83195497  0.82962025  1
  Fe  Fe36  1  0.49792471  0.16414604  0.49871527  1
  Ni  Ni37  1  0.32981985  -0.00072073  0.66289566  1
  Ni  Ni38  1  0.49767317  0.16652926  0.83227138  1
  Fe  Fe39  1  0.49665987  0.49759941  0.49776280  1
  Cr  Cr40  1  0.32981712  0.33186392  0.66184005  1
  Cr  Cr41  1  0.49798406  0.49473768  0.82930196  1
  Cr  Cr42  1  0.49437477  0.83185201  0.49563624  1
  Ni  Ni43  1  0.32929236  0.66403007  0.66106248  1
  Cr  Cr44  1  0.49418807  0.83133085  0.83203831  1
  Ni  Ni45  1  0.83295097  0.16779045  0.49823187  1
  Cr  Cr46  1  0.66462073  0.00121413  0.66660100  1
  Fe  Fe47  1  0.83167609  0.16824979  0.82970554  1
  Ni  Ni48  1  0.83256403  0.49206140  0.49771947  1
  Fe  Fe49  1  0.66587136  0.32872262  0.66277269  1
  Cr  Cr50  1  0.83133684  0.49364276  0.83179550  1
  Cr  Cr51  1  0.83414792  0.83343281  0.49836466  1
  Cr  Cr52  1  0.66321911  0.66228390  0.66114957  1
  Cr  Cr53  1  0.83358365  0.83096991  0.82852628  1
" 