8564,Ni30Fe24Cr45_7,-221.761057469671, 173.916576983739,Ni30Fe24Cr45,"# generated using pymatgen
 data_Cr25Fe13Ni16
_symmetry_space_group_name_H-M   'P 1'
_cell_length_a   7.50003913
_cell_length_b   7.50003913
_cell_length_c   10.60665705
_cell_angle_alpha   90.00000000
_cell_angle_beta   90.00000000
_cell_angle_gamma   90.00000000
_symmetry_Int_Tables_number   1
_chemical_formula_structural   Cr25Fe13Ni16
_chemical_formula_sum   'Cr25 Fe13 Ni16'
_cell_volume   596.63068419
_cell_formula_units_Z   1
loop_
 _symmetry_equiv_pos_site_id
 _symmetry_equiv_pos_as_xyz
  1  'x, y, z'
loop_
 _atom_site_type_symbol
 _atom_site_label
 _atom_site_symmetry_multiplicity
 _atom_site_fract_x
 _atom_site_fract_y
 _atom_site_fract_z
 _atom_site_occupancy
  Cr  Cr0  1  -0.00151941  -0.00049582  0.00106185  1
  Ni  Ni1  1  0.16513156  0.16487465  0.16576722  1
  Ni  Ni2  1  0.99633676  0.99634693  0.32964181  1
  Ni  Ni3  1  0.99699452  0.32917777  0.00034600  1
  Cr  Cr4  1  0.16227948  0.49582746  0.16455296  1
  Ni  Ni5  1  0.99675791  0.33042816  0.32910941  1
  Cr  Cr6  1  0.99611995  0.66647021  -0.00117960  1
  Ni  Ni7  1  0.16346831  0.83276150  0.16410835  1
  Fe  Fe8  1  0.99617455  0.66482781  0.33047366  1
  Ni  Ni9  1  0.33017341  0.99773932  0.99746642  1
  Ni  Ni10  1  0.49751901  0.16402363  0.16498892  1
  Cr  Cr11  1  0.32819753  -0.00113301  0.32990157  1
  Cr  Cr12  1  0.33160702  0.32767732  -0.00046758  1
  Fe  Fe13  1  0.49826434  0.49522091  0.16617845  1
  Ni  Ni14  1  0.33186309  0.33158514  0.33072079  1
  Fe  Fe15  1  0.32886800  0.66624195  -0.00044682  1
  Cr  Cr16  1  0.49805316  0.83340056  0.16294979  1
  Cr  Cr17  1  0.33038269  0.66351135  0.33112258  1
  Fe  Fe18  1  0.66497875  0.00044489  0.00005692  1
  Fe  Fe19  1  0.83252904  0.16472531  0.16715197  1
  Ni  Ni20  1  0.66836897  -0.00144789  0.32851393  1
  Cr  Cr21  1  0.66628971  0.33024147  -0.00079863  1
  Ni  Ni22  1  0.83239694  0.49623905  0.16537008  1
  Ni  Ni23  1  0.66513727  0.33176557  0.33040731  1
  Cr  Cr24  1  0.66530145  0.66408248  0.00100597  1
  Ni  Ni25  1  0.83180098  0.83116530  0.16690398  1
  Cr  Cr26  1  0.66647341  0.66346012  0.33133273  1
  Cr  Cr27  1  0.16344210  0.16588252  0.49525555  1
  Fe  Fe28  1  0.99736024  0.99539378  0.66212463  1
  Cr  Cr29  1  0.16459783  0.16413478  0.83125348  1
  Fe  Fe30  1  0.16114308  0.49811845  0.49529460  1
  Cr  Cr31  1  0.99704139  0.33130293  0.66471110  1
  Cr  Cr32  1  0.16289160  0.49831035  0.83385408  1
  Fe  Fe33  1  0.15989258  0.83106084  0.49643513  1
  Fe  Fe34  1  0.99732086  0.66589273  0.66205117  1
  Fe  Fe35  1  0.16421365  0.83207620  0.83172952  1
  Cr  Cr36  1  0.49964023  0.16326548  0.49788235  1
  Fe  Fe37  1  0.33172887  -0.00192296  0.66532858  1
  Fe  Fe38  1  0.49907864  0.16341948  0.83086279  1
  Fe  Fe39  1  0.50084800  0.49550601  0.49641755  1
  Cr  Cr40  1  0.33296986  0.33126909  0.66281487  1
  Cr  Cr41  1  0.49753526  0.49909772  0.83218692  1
  Cr  Cr42  1  0.50046742  0.83438122  0.49688658  1
  Cr  Cr43  1  0.32840616  0.66546558  0.66296722  1
  Cr  Cr44  1  0.49730610  0.83395296  0.83398703  1
  Cr  Cr45  1  0.83031176  0.16392787  0.49575374  1
  Ni  Ni46  1  0.66556474  -0.00198968  0.66544189  1
  Cr  Cr47  1  0.83041960  0.16412900  0.83067133  1
  Ni  Ni48  1  0.83381616  0.49784406  0.49756015  1
  Ni  Ni49  1  0.66466974  0.32957414  0.66379854  1
  Cr  Cr50  1  0.83269405  0.49699785  0.83085744  1
  Ni  Ni51  1  0.83299502  0.83022895  0.49738338  1
  Cr  Cr52  1  0.66534630  0.66256943  0.66191279  1
  Cr  Cr53  1  0.82958150  0.83218026  0.82956867  1
" 