8826,Ni30Fe70_5,-243.1209993582, 220.683536952518,Ni30Fe70,"# generated using pymatgen
 data_Fe8Ni19
_symmetry_space_group_name_H-M   'P 1'
_cell_length_a   7.41121578
_cell_length_b   7.41121578
_cell_length_c   10.48104186
_cell_angle_alpha   90.00000000
_cell_angle_beta   90.00000000
_cell_angle_gamma   90.00000000
_symmetry_Int_Tables_number   1
_chemical_formula_structural   Fe8Ni19
_chemical_formula_sum   'Fe16 Ni38'
_cell_volume   575.68295547
_cell_formula_units_Z   2
loop_
 _symmetry_equiv_pos_site_id
 _symmetry_equiv_pos_as_xyz
  1  'x, y, z'
loop_
 _atom_site_type_symbol
 _atom_site_label
 _atom_site_symmetry_multiplicity
 _atom_site_fract_x
 _atom_site_fract_y
 _atom_site_fract_z
 _atom_site_occupancy
  Ni  Ni0  1  1.00368412  0.00456671  1.00230865  1
  Ni  Ni1  1  0.16880231  0.17072632  0.17035465  1
  Ni  Ni2  1  1.00355283  0.00548781  0.33779330  1
  Ni  Ni3  1  0.00406573  0.33661658  1.00231343  1
  Ni  Ni4  1  0.17181508  0.50346220  0.17056433  1
  Ni  Ni5  1  0.00438365  0.33685810  0.33846905  1
  Ni  Ni6  1  0.00437707  0.67017658  0.00420980  1
  Ni  Ni7  1  0.17004718  0.83731891  0.17041507  1
  Fe  Fe8  1  0.00483499  0.67187944  0.33695839  1
  Fe  Fe9  1  0.33705557  1.00262191  1.00376136  1
  Fe  Fe10  1  0.50265178  0.16896450  0.17066433  1
  Ni  Ni11  1  0.33652457  0.00420919  0.33706520  1
  Fe  Fe12  1  0.33680618  0.33762610  1.00337504  1
  Ni  Ni13  1  0.50341720  0.50457031  0.16935394  1
  Ni  Ni14  1  0.33559302  0.33713771  0.33679663  1
  Ni  Ni15  1  0.33747265  0.67056608  1.00199521  1
  Ni  Ni16  1  0.50477876  0.83555122  0.17146032  1
  Ni  Ni17  1  0.33867881  0.66998496  0.33924866  1
  Ni  Ni18  1  0.67045278  1.00363170  1.00287593  1
  Fe  Fe19  1  0.83784341  0.16978115  0.17006031  1
  Ni  Ni20  1  0.67090876  1.00225140  0.33805422  1
  Ni  Ni21  1  0.67073973  0.33685854  1.00363837  1
  Fe  Fe22  1  0.83826412  0.50498294  0.16912725  1
  Fe  Fe23  1  0.66915359  0.33663770  0.33672117  1
  Ni  Ni24  1  0.66974449  0.67064312  1.00294793  1
  Ni  Ni25  1  0.83661078  0.83857284  0.16936795  1
  Ni  Ni26  1  0.67066966  0.67043762  0.33734745  1
  Ni  Ni27  1  0.17029065  0.17056797  0.50382436  1
  Fe  Fe28  1  0.00454838  1.00334147  0.66982417  1
  Ni  Ni29  1  0.16960446  0.17072022  0.83681675  1
  Ni  Ni30  1  0.17200490  0.50373633  0.50375937  1
  Fe  Fe31  1  0.00451110  0.33751926  0.67059475  1
  Ni  Ni32  1  0.17000865  0.50356291  0.83730314  1
  Ni  Ni33  1  0.16886400  0.83721551  0.50326169  1
  Ni  Ni34  1  1.00238781  0.66981520  0.67027749  1
  Fe  Fe35  1  0.17083534  0.83691298  0.83666405  1
  Ni  Ni36  1  0.50420254  0.17206049  0.50287754  1
  Ni  Ni37  1  0.33714700  0.00611355  0.66994428  1
  Ni  Ni38  1  0.50414962  0.16998919  0.83854368  1
  Ni  Ni39  1  0.50370030  0.50330548  0.50481974  1
  Ni  Ni40  1  0.33675308  0.33546196  0.67129009  1
  Ni  Ni41  1  0.50390698  0.50429734  0.83738341  1
  Fe  Fe42  1  0.50295298  0.83820311  0.50411780  1
  Fe  Fe43  1  0.33663654  0.67009745  0.67054504  1
  Ni  Ni44  1  0.50489341  0.83695092  0.83622601  1
  Ni  Ni45  1  0.83658218  0.16897956  0.50392597  1
  Fe  Fe46  1  0.66954729  0.00393617  0.67049326  1
  Ni  Ni47  1  0.83743195  0.16983220  0.83676615  1
  Fe  Fe48  1  0.83760090  0.50335220  0.50458722  1
  Fe  Fe49  1  0.66924333  0.33721372  0.67183708  1
  Ni  Ni50  1  0.83724069  0.50362491  0.83780353  1
  Ni  Ni51  1  0.83689545  0.83770115  0.50398273  1
  Ni  Ni52  1  0.67141301  0.67048937  0.67109863  1
  Fe  Fe53  1  0.83712113  0.83628016  0.83758663  1
" 