1822,Ni30Fe29Cr40_18,-223.491800899542, 182.072165907994,Ni30Fe29Cr40,"# generated using pymatgen
 data_Cr23Fe15Ni16
_symmetry_space_group_name_H-M   'P 1'
_cell_length_a   7.48889958
_cell_length_b   7.48889958
_cell_length_c   10.59090335
_cell_angle_alpha   90.00000000
_cell_angle_beta   90.00000000
_cell_angle_gamma   90.00000000
_symmetry_Int_Tables_number   1
_chemical_formula_structural   Cr23Fe15Ni16
_chemical_formula_sum   'Cr23 Fe15 Ni16'
_cell_volume   593.97616539
_cell_formula_units_Z   1
loop_
 _symmetry_equiv_pos_site_id
 _symmetry_equiv_pos_as_xyz
  1  'x, y, z'
loop_
 _atom_site_type_symbol
 _atom_site_label
 _atom_site_symmetry_multiplicity
 _atom_site_fract_x
 _atom_site_fract_y
 _atom_site_fract_z
 _atom_site_occupancy
  Fe  Fe0  1  0.99708904  -0.00144536  0.00013958  1
  Ni  Ni1  1  0.16660674  0.16650573  0.16674473  1
  Cr  Cr2  1  -0.00050085  -0.00016834  0.33053858  1
  Cr  Cr3  1  0.00030549  0.32920756  0.99748969  1
  Ni  Ni4  1  0.16405480  0.49800483  0.16633314  1
  Ni  Ni5  1  0.00119563  0.33144513  0.33170101  1
  Ni  Ni6  1  -0.00083798  0.66415877  -0.00051946  1
  Cr  Cr7  1  0.16129599  0.82993034  0.16480008  1
  Ni  Ni8  1  0.99848111  0.66426694  0.33390838  1
  Cr  Cr9  1  0.32900416  0.99760165  0.99803731  1
  Cr  Cr10  1  0.49767199  0.16665333  0.16962356  1
  Ni  Ni11  1  0.32902319  -0.00070563  0.33268902  1
  Cr  Cr12  1  0.32940661  0.33294999  0.99707973  1
  Fe  Fe13  1  0.49783911  0.49959079  0.16327263  1
  Fe  Fe14  1  0.32642417  0.33098410  0.33111696  1
  Fe  Fe15  1  0.33187327  0.66286778  0.99803497  1
  Fe  Fe16  1  0.49724713  0.83056457  0.16447063  1
  Cr  Cr17  1  0.33121356  0.66667501  0.32919610  1
  Cr  Cr18  1  0.66629479  0.99787907  0.00091009  1
  Fe  Fe19  1  0.83583716  0.16592509  0.16377433  1
  Cr  Cr20  1  0.66719672  0.99630784  0.33093292  1
  Ni  Ni21  1  0.66545421  0.33350092  0.99765620  1
  Cr  Cr22  1  0.83463387  0.50057586  0.16490058  1
  Cr  Cr23  1  0.66972766  0.33250403  0.33260772  1
  Ni  Ni24  1  0.66365094  0.66548290  -0.00007252  1
  Ni  Ni25  1  0.83249136  0.82932173  0.16383821  1
  Cr  Cr26  1  0.66731431  0.66666133  0.33211520  1
  Ni  Ni27  1  0.16356412  0.16422515  0.49900650  1
  Fe  Fe28  1  0.99852573  0.00100591  0.66404402  1
  Fe  Fe29  1  0.16090304  0.16433776  0.82965721  1
  Cr  Cr30  1  0.16268574  0.49956060  0.49755550  1
  Ni  Ni31  1  -0.00043331  0.33034430  0.66582193  1
  Ni  Ni32  1  0.16462860  0.50133567  0.83155374  1
  Fe  Fe33  1  0.16504160  0.83358504  0.49976203  1
  Fe  Fe34  1  0.00020662  0.66458623  0.66410286  1
  Cr  Cr35  1  0.16373392  0.83062801  0.83084745  1
  Cr  Cr36  1  0.49574542  0.16409961  0.49777599  1
  Ni  Ni37  1  0.32934490  0.99673696  0.66467995  1
  Cr  Cr38  1  0.49997127  0.16348022  0.82832484  1
  Cr  Cr39  1  0.49677067  0.49640500  0.49792445  1
  Cr  Cr40  1  0.32717502  0.33331304  0.66764090  1
  Fe  Fe41  1  0.49871987  0.50146464  0.83316852  1
  Cr  Cr42  1  0.49637796  0.83477360  0.50016848  1
  Ni  Ni43  1  0.33024447  0.66758829  0.66836902  1
  Fe  Fe44  1  0.49899538  0.83075317  0.83068241  1
  Fe  Fe45  1  0.83541944  0.16538520  0.50053612  1
  Ni  Ni46  1  0.66736069  0.99738416  0.66455086  1
  Ni  Ni47  1  0.83178744  0.16399729  0.83167905  1
  Fe  Fe48  1  0.83551050  0.49696966  0.49860993  1
  Cr  Cr49  1  0.66953100  0.33165135  0.66552738  1
  Cr  Cr50  1  0.83461996  0.49915614  0.83224673  1
  Fe  Fe51  1  0.83623785  0.83261016  0.49930125  1
  Cr  Cr52  1  0.66487236  0.66623276  0.66331794  1
  Cr  Cr53  1  0.83368184  0.83236045  0.83304189  1
" 