4513,Ni30Fe9Cr59_9,-214.964266241271, 147.763319124447,Ni30Fe9Cr59,"# generated using pymatgen
 data_Cr33Fe5Ni16
_symmetry_space_group_name_H-M   'P 1'
_cell_length_a   7.54130918
_cell_length_b   7.54130918
_cell_length_c   10.66502172
_cell_angle_alpha   90.00000000
_cell_angle_beta   90.00000000
_cell_angle_gamma   90.00000000
_symmetry_Int_Tables_number   1
_chemical_formula_structural   Cr33Fe5Ni16
_chemical_formula_sum   'Cr33 Fe5 Ni16'
_cell_volume   606.53412068
_cell_formula_units_Z   1
loop_
 _symmetry_equiv_pos_site_id
 _symmetry_equiv_pos_as_xyz
  1  'x, y, z'
loop_
 _atom_site_type_symbol
 _atom_site_label
 _atom_site_symmetry_multiplicity
 _atom_site_fract_x
 _atom_site_fract_y
 _atom_site_fract_z
 _atom_site_occupancy
  Cr  Cr0  1  -0.00461238  -0.00488536  0.99262876  1
  Cr  Cr1  1  0.16535096  0.16059730  0.16194803  1
  Cr  Cr2  1  -0.00430828  0.99345290  0.32958853  1
  Cr  Cr3  1  0.99377888  0.32956796  0.99318228  1
  Cr  Cr4  1  0.16134360  0.49511931  0.16253672  1
  Cr  Cr5  1  0.99439714  0.33124025  0.32901654  1
  Cr  Cr6  1  0.99168162  0.66057290  -0.00327666  1
  Cr  Cr7  1  0.16398539  0.82954721  0.16241673  1
  Cr  Cr8  1  -0.00426185  0.66055633  0.32814027  1
  Fe  Fe9  1  0.33128972  0.99499566  0.99491239  1
  Ni  Ni10  1  0.49419120  0.16150816  0.16320175  1
  Fe  Fe11  1  0.33080638  -0.00472677  0.32864318  1
  Cr  Cr12  1  0.32961077  0.32606623  0.99455366  1
  Cr  Cr13  1  0.49832341  0.49327055  0.16128283  1
  Ni  Ni14  1  0.33134755  0.32765510  0.32903805  1
  Cr  Cr15  1  0.33130204  0.66363242  0.99503751  1
  Ni  Ni16  1  0.49416675  0.83088269  0.16065535  1
  Cr  Cr17  1  0.32853958  0.66174674  0.33126429  1
  Cr  Cr18  1  0.65921972  0.99359100  0.99477377  1
  Cr  Cr19  1  0.82516693  0.16494615  0.16365880  1
  Cr  Cr20  1  0.65859075  -0.00419450  0.32805882  1
  Ni  Ni21  1  0.66204830  0.33040322  -0.00295774  1
  Ni  Ni22  1  0.82467451  0.49388172  0.16045666  1
  Ni  Ni23  1  0.65902709  0.32920603  0.32752757  1
  Ni  Ni24  1  0.66191108  0.66188999  0.99325299  1
  Cr  Cr25  1  0.82719190  0.82543472  0.16090170  1
  Cr  Cr26  1  0.66099248  0.66079066  0.32883586  1
  Cr  Cr27  1  0.16200909  0.16172674  0.49519934  1
  Cr  Cr28  1  0.99454258  -0.00389702  0.66308230  1
  Ni  Ni29  1  0.16129825  0.16179173  0.82803631  1
  Fe  Fe30  1  0.16219096  0.49632535  0.49600031  1
  Ni  Ni31  1  0.99480438  0.33098905  0.66219791  1
  Cr  Cr32  1  0.16118035  0.49394073  0.82672834  1
  Ni  Ni33  1  0.16606760  0.82607073  0.49487127  1
  Cr  Cr34  1  -0.00463023  0.65978031  0.66059346  1
  Cr  Cr35  1  0.16318843  0.82943624  0.82908657  1
  Cr  Cr36  1  0.49502391  0.16305661  0.49159068  1
  Cr  Cr37  1  0.32984558  0.99246728  0.66301380  1
  Cr  Cr38  1  0.49373238  0.16149475  0.83058747  1
  Fe  Fe39  1  0.49530033  0.49676302  0.49471905  1
  Cr  Cr40  1  0.32618000  0.33129595  0.66161332  1
  Cr  Cr41  1  0.49803386  0.49819968  0.82783649  1
  Ni  Ni42  1  0.49132152  0.82502235  0.49648504  1
  Ni  Ni43  1  0.33051445  0.66309358  0.65880559  1
  Ni  Ni44  1  0.49692936  0.82611270  0.82811378  1
  Cr  Cr45  1  0.82816880  0.16469953  0.49500203  1
  Cr  Cr46  1  0.66089126  0.99157686  0.66240330  1
  Cr  Cr47  1  0.82995966  0.16354746  0.82648608  1
  Ni  Ni48  1  0.82754469  0.49418280  0.49553190  1
  Cr  Cr49  1  0.66344339  0.33040000  0.66078087  1
  Ni  Ni50  1  0.82668079  0.49682037  0.82915372  1
  Cr  Cr51  1  0.82823342  0.82664247  0.49610850  1
  Fe  Fe52  1  0.66089007  0.66156337  0.66250750  1
  Ni  Ni53  1  0.82502263  0.82427158  0.82830920  1
" 