1260,Ni30Fe70_11,-243.593026868621, 219.069680802871,Ni30Fe70,"# generated using pymatgen
 data_Fe8Ni19
_symmetry_space_group_name_H-M   'P 1'
_cell_length_a   7.41685621
_cell_length_b   7.41685621
_cell_length_c   10.48901864
_cell_angle_alpha   90.00000000
_cell_angle_beta   90.00000000
_cell_angle_gamma   90.00000000
_symmetry_Int_Tables_number   1
_chemical_formula_structural   Fe8Ni19
_chemical_formula_sum   'Fe16 Ni38'
_cell_volume   576.99835665
_cell_formula_units_Z   2
loop_
 _symmetry_equiv_pos_site_id
 _symmetry_equiv_pos_as_xyz
  1  'x, y, z'
loop_
 _atom_site_type_symbol
 _atom_site_label
 _atom_site_symmetry_multiplicity
 _atom_site_fract_x
 _atom_site_fract_y
 _atom_site_fract_z
 _atom_site_occupancy
  Fe  Fe0  1  1.00300162  1.00244990  1.00311442  1
  Fe  Fe1  1  0.17022736  0.16884588  0.16994368  1
  Fe  Fe2  1  0.00359708  1.00214952  0.33736981  1
  Ni  Ni3  1  0.00497728  0.33572329  0.00381573  1
  Ni  Ni4  1  0.17004633  0.50415271  0.17069955  1
  Ni  Ni5  1  0.00514399  0.33586446  0.33631912  1
  Fe  Fe6  1  1.00328879  0.66931378  1.00331568  1
  Ni  Ni7  1  0.17077541  0.83417933  0.16950694  1
  Ni  Ni8  1  1.00320863  0.66868864  0.33634966  1
  Fe  Fe9  1  0.33828491  1.00335307  1.00307999  1
  Ni  Ni10  1  0.50480874  0.16980771  0.17083093  1
  Fe  Fe11  1  0.33656157  1.00170843  0.33695251  1
  Ni  Ni12  1  0.33443732  0.33681020  0.00373292  1
  Fe  Fe13  1  0.50303404  0.50443934  0.17008036  1
  Ni  Ni14  1  0.33463984  0.33669171  0.33614219  1
  Ni  Ni15  1  0.33781579  0.66886142  1.00319578  1
  Ni  Ni16  1  0.50237669  0.83825572  0.17012975  1
  Ni  Ni17  1  0.33716805  0.66869134  0.33649282  1
  Ni  Ni18  1  0.67083081  1.00201154  1.00299081  1
  Ni  Ni19  1  0.83571328  0.17039011  0.16967772  1
  Ni  Ni20  1  0.67035893  1.00268237  0.33743453  1
  Fe  Fe21  1  0.66889798  0.33718138  1.00255994  1
  Fe  Fe22  1  0.83679662  0.50451800  0.17008442  1
  Fe  Fe23  1  0.67024963  0.33821350  0.33720073  1
  Ni  Ni24  1  0.66987596  0.67355218  0.00380425  1
  Ni  Ni25  1  0.83732381  0.83874455  0.17112132  1
  Ni  Ni26  1  0.66964122  0.67317787  0.33636856  1
  Fe  Fe27  1  0.17019373  0.17083389  0.50423332  1
  Ni  Ni28  1  1.00217838  0.00458656  0.66962390  1
  Fe  Fe29  1  0.17015986  0.17094895  0.83607726  1
  Ni  Ni30  1  0.16991885  0.50492601  0.50376236  1
  Ni  Ni31  1  0.00465429  0.33638021  0.67011662  1
  Ni  Ni32  1  0.17009326  0.50417492  0.83567192  1
  Ni  Ni33  1  0.17100167  0.83528263  0.50415542  1
  Ni  Ni34  1  1.00246011  0.66917678  0.67046761  1
  Fe  Fe35  1  0.17030904  0.83602845  0.83540019  1
  Fe  Fe36  1  0.50286093  0.17079643  0.50338604  1
  Ni  Ni37  1  0.33770022  0.00412895  0.67043958  1
  Ni  Ni38  1  0.50432669  0.16963125  0.83592339  1
  Ni  Ni39  1  0.50246353  0.50428232  0.50318024  1
  Ni  Ni40  1  0.33521013  0.33712858  0.67020393  1
  Ni  Ni41  1  0.50220167  0.50340080  0.83683938  1
  Ni  Ni42  1  0.50150754  0.83700191  0.50339077  1
  Ni  Ni43  1  0.33785727  0.66940581  0.67021555  1
  Ni  Ni44  1  0.50277549  0.83717638  0.83676001  1
  Ni  Ni45  1  0.83637125  0.16999443  0.50348849  1
  Ni  Ni46  1  0.67012593  1.00213705  0.66975067  1
  Ni  Ni47  1  0.83630944  0.16993302  0.83699142  1
  Ni  Ni48  1  0.83777570  0.50111643  0.50318227  1
  Fe  Fe49  1  0.67015351  0.33760853  0.67033684  1
  Ni  Ni50  1  0.83786397  0.50270016  0.83725863  1
  Fe  Fe51  1  0.83677049  0.83443493  0.50365926  1
  Ni  Ni52  1  0.66968786  0.67154413  0.67017723  1
  Ni  Ni53  1  0.83670210  0.83749711  0.83570816  1
" 