8198,Ni30Fe9Cr59_12,-215.213428896616, 150.051444244,Ni30Fe9Cr59,"# generated using pymatgen
 data_Cr33Fe5Ni16
_symmetry_space_group_name_H-M   'P 1'
_cell_length_a   7.53775431
_cell_length_b   7.53775431
_cell_length_c   10.65999437
_cell_angle_alpha   90.00000000
_cell_angle_beta   90.00000000
_cell_angle_gamma   90.00000000
_symmetry_Int_Tables_number   1
_chemical_formula_structural   Cr33Fe5Ni16
_chemical_formula_sum   'Cr33 Fe5 Ni16'
_cell_volume   605.67678817
_cell_formula_units_Z   1
loop_
 _symmetry_equiv_pos_site_id
 _symmetry_equiv_pos_as_xyz
  1  'x, y, z'
loop_
 _atom_site_type_symbol
 _atom_site_label
 _atom_site_symmetry_multiplicity
 _atom_site_fract_x
 _atom_site_fract_y
 _atom_site_fract_z
 _atom_site_occupancy
  Cr  Cr0  1  0.99460819  0.99344713  0.99243468  1
  Cr  Cr1  1  0.16282696  0.15923250  0.16442538  1
  Ni  Ni2  1  0.99492832  0.99094065  0.32693298  1
  Cr  Cr3  1  0.99234032  0.32840401  0.99469342  1
  Cr  Cr4  1  0.16026579  0.49601840  0.16504064  1
  Fe  Fe5  1  0.99418266  0.32968497  0.32759147  1
  Cr  Cr6  1  0.99258892  0.66443235  -0.00191889  1
  Ni  Ni7  1  0.16128957  0.83143451  0.16444425  1
  Ni  Ni8  1  0.99346796  0.66659212  0.32525507  1
  Ni  Ni9  1  0.32943743  0.99158033  -0.00121393  1
  Cr  Cr10  1  0.49504315  0.15972270  0.16184633  1
  Ni  Ni11  1  0.32966134  0.99276862  0.32874665  1
  Cr  Cr12  1  0.32913647  0.32639973  0.99429241  1
  Cr  Cr13  1  0.49769981  0.49452743  0.15733116  1
  Cr  Cr14  1  0.33285387  0.32806042  0.33342462  1
  Cr  Cr15  1  0.32775692  0.66544964  -0.00240561  1
  Fe  Fe16  1  0.49600118  0.82894308  0.16314156  1
  Cr  Cr17  1  0.33044503  0.66366284  0.32959740  1
  Cr  Cr18  1  0.66379900  0.99340146  -0.00218499  1
  Cr  Cr19  1  0.82823885  0.16176736  0.16441677  1
  Fe  Fe20  1  0.66074544  0.99242723  0.32923511  1
  Ni  Ni21  1  0.66504751  0.32929086  0.99493697  1
  Ni  Ni22  1  0.82674191  0.49798506  0.16232315  1
  Cr  Cr23  1  0.66099237  0.32862966  0.32999916  1
  Ni  Ni24  1  0.66351942  0.66251645  -0.00184268  1
  Ni  Ni25  1  0.82889016  0.82814289  0.16415147  1
  Cr  Cr26  1  0.66235060  0.66258797  0.32761819  1
  Cr  Cr27  1  0.15943106  0.15880203  0.49167048  1
  Ni  Ni28  1  0.99123085  -0.00359298  0.66351550  1
  Cr  Cr29  1  0.16172498  0.15942311  0.82964593  1
  Cr  Cr30  1  0.16129504  0.49733000  0.49337420  1
  Cr  Cr31  1  0.99339847  0.32661992  0.66378405  1
  Cr  Cr32  1  0.16459801  0.49746549  0.82716296  1
  Cr  Cr33  1  0.16078951  0.82983117  0.49565258  1
  Cr  Cr34  1  -0.00343627  0.66291972  0.66220672  1
  Cr  Cr35  1  0.16381546  0.82904785  0.82624158  1
  Fe  Fe36  1  0.49720246  0.15877533  0.49511227  1
  Cr  Cr37  1  0.33065073  0.99473057  0.66103512  1
  Cr  Cr38  1  0.49836265  0.16121786  0.83095313  1
  Ni  Ni39  1  0.49791833  0.49779357  0.49928581  1
  Cr  Cr40  1  0.33132288  0.32952000  0.65853878  1
  Cr  Cr41  1  0.49713791  0.49741950  0.82896152  1
  Ni  Ni42  1  0.49612838  0.82942340  0.49514226  1
  Ni  Ni43  1  0.33437175  0.66329974  0.65832636  1
  Cr  Cr44  1  0.49679315  0.82747298  0.82932647  1
  Cr  Cr45  1  0.82873593  0.15959261  0.49421089  1
  Ni  Ni46  1  0.66146883  -0.00233169  0.65927036  1
  Ni  Ni47  1  0.82438863  0.16150500  0.82622435  1
  Cr  Cr48  1  0.82787160  0.49627448  0.49424483  1
  Ni  Ni49  1  0.66112664  0.32677531  0.66114956  1
  Cr  Cr50  1  0.82401242  0.49591188  0.82919234  1
  Cr  Cr51  1  0.82720330  0.83026961  0.49663744  1
  Fe  Fe52  1  0.65977068  0.66315387  0.65974990  1
  Cr  Cr53  1  0.82455832  0.83003012  0.82380269  1
" 