6086,Ni30Fe44Cr25_13,-228.608740888252, 194.764982607322,Ni30Fe44Cr25,"# generated using pymatgen
 data_Cr15Fe23Ni16
_symmetry_space_group_name_H-M   'P 1'
_cell_length_a   7.45941245
_cell_length_b   7.45941245
_cell_length_c   10.54920225
_cell_angle_alpha   90.00000000
_cell_angle_beta   90.00000000
_cell_angle_gamma   90.00000000
_symmetry_Int_Tables_number   1
_chemical_formula_structural   Cr15Fe23Ni16
_chemical_formula_sum   'Cr15 Fe23 Ni16'
_cell_volume   586.98750976
_cell_formula_units_Z   1
loop_
 _symmetry_equiv_pos_site_id
 _symmetry_equiv_pos_as_xyz
  1  'x, y, z'
loop_
 _atom_site_type_symbol
 _atom_site_label
 _atom_site_symmetry_multiplicity
 _atom_site_fract_x
 _atom_site_fract_y
 _atom_site_fract_z
 _atom_site_occupancy
  Ni  Ni0  1  0.99991813  0.99876312  0.99935330  1
  Cr  Cr1  1  0.16679824  0.16693491  0.16625574  1
  Fe  Fe2  1  0.99820280  0.99907967  0.33422257  1
  Fe  Fe3  1  0.00279671  0.33294278  0.99865587  1
  Fe  Fe4  1  0.16875614  0.50169768  0.16700180  1
  Ni  Ni5  1  1.00014846  0.33586444  0.33365746  1
  Cr  Cr6  1  0.00107652  0.66934830  0.00114305  1
  Ni  Ni7  1  0.16776271  0.83322380  0.16811008  1
  Ni  Ni8  1  0.99995399  0.66885296  0.33262354  1
  Fe  Fe9  1  0.33243358  0.99849397  0.00154563  1
  Ni  Ni10  1  0.50060333  0.16420128  0.16565065  1
  Cr  Cr11  1  0.33536228  0.99975603  0.33447877  1
  Ni  Ni12  1  0.33516879  0.33451160  0.99915200  1
  Cr  Cr13  1  0.50046325  0.50215218  0.16594194  1
  Cr  Cr14  1  0.33520945  0.33389159  0.33506365  1
  Fe  Fe15  1  0.33327230  0.66854335  0.99952358  1
  Ni  Ni16  1  0.50001753  0.83468529  0.16643688  1
  Fe  Fe17  1  0.33517497  0.66822313  0.33384292  1
  Fe  Fe18  1  0.66733955  0.99835881  1.00045105  1
  Cr  Cr19  1  0.83337143  0.16593433  0.16566675  1
  Ni  Ni20  1  0.66682037  0.99795755  0.33362301  1
  Fe  Fe21  1  0.66713533  0.33302950  1.00005000  1
  Cr  Cr22  1  0.83547503  0.50153606  0.16828318  1
  Cr  Cr23  1  0.66678193  0.33308773  0.33481636  1
  Fe  Fe24  1  0.66607286  0.66997607  1.00031628  1
  Fe  Fe25  1  0.83242959  0.83519043  0.16758596  1
  Ni  Ni26  1  0.66861888  0.66949437  0.33498733  1
  Fe  Fe27  1  0.16437920  0.16868196  0.50044796  1
  Cr  Cr28  1  0.99952342  0.99907236  0.66729919  1
  Fe  Fe29  1  0.16450599  0.16852177  0.83583432  1
  Cr  Cr30  1  0.16473210  0.50103948  0.49935652  1
  Ni  Ni31  1  0.00073716  0.33448646  0.66849970  1
  Ni  Ni32  1  0.16775449  0.49901842  0.83419486  1
  Fe  Fe33  1  0.16504763  0.83179894  0.49874405  1
  Ni  Ni34  1  1.00043440  0.66695041  0.66780522  1
  Fe  Fe35  1  0.16591032  0.83322954  0.83545088  1
  Fe  Fe36  1  0.50235230  0.16642344  0.50102281  1
  Cr  Cr37  1  0.33405654  1.00011946  0.66673268  1
  Cr  Cr38  1  0.49971052  0.16537649  0.83524398  1
  Ni  Ni39  1  0.50200999  0.50275101  0.50221352  1
  Fe  Fe40  1  0.33163014  0.33388747  0.66772646  1
  Fe  Fe41  1  0.49979926  0.50198571  0.83529294  1
  Fe  Fe42  1  0.50375287  0.83183279  0.49963182  1
  Cr  Cr43  1  0.33344889  0.66700998  0.66887244  1
  Fe  Fe44  1  0.50275684  0.83172794  0.83542741  1
  Fe  Fe45  1  0.83497004  0.16774906  0.49956270  1
  Ni  Ni46  1  0.66709240  0.99946376  0.66685446  1
  Fe  Fe47  1  0.83528494  0.16578684  0.83495168  1
  Ni  Ni48  1  0.83461267  0.50235976  0.50101671  1
  Cr  Cr49  1  0.66706692  0.33393960  0.66529915  1
  Cr  Cr50  1  0.83438271  0.50212798  0.83232881  1
  Fe  Fe51  1  0.83285808  0.83158840  0.50062891  1
  Fe  Fe52  1  0.66955627  0.67002030  0.66558368  1
  Ni  Ni53  1  0.83210590  0.83495590  0.83317394  1
" 