737,Ni30Fe41Cr28_1,-227.771422356675, 189.187935156561,Ni30Fe41Cr28,"# generated using pymatgen
 data_Cr8Fe11Ni8
_symmetry_space_group_name_H-M   'P 1'
_cell_length_a   7.46270221
_cell_length_b   7.46270221
_cell_length_c   10.55385468
_cell_angle_alpha   90.00000000
_cell_angle_beta   90.00000000
_cell_angle_gamma   90.00000000
_symmetry_Int_Tables_number   1
_chemical_formula_structural   Cr8Fe11Ni8
_chemical_formula_sum   'Cr16 Fe22 Ni16'
_cell_volume   587.76447578
_cell_formula_units_Z   2
loop_
 _symmetry_equiv_pos_site_id
 _symmetry_equiv_pos_as_xyz
  1  'x, y, z'
loop_
 _atom_site_type_symbol
 _atom_site_label
 _atom_site_symmetry_multiplicity
 _atom_site_fract_x
 _atom_site_fract_y
 _atom_site_fract_z
 _atom_site_occupancy
  Fe  Fe0  1  0.99903285  0.00108727  0.00057693  1
  Ni  Ni1  1  0.16609894  0.16885732  0.16789258  1
  Cr  Cr2  1  0.00407587  0.99899075  0.33344966  1
  Fe  Fe3  1  0.00171540  0.33387585  0.00061038  1
  Ni  Ni4  1  0.16760727  0.49789266  0.16669895  1
  Fe  Fe5  1  0.00282136  0.33582978  0.33301523  1
  Fe  Fe6  1  0.00069453  0.66591154  0.99921367  1
  Ni  Ni7  1  0.16918999  0.83407854  0.16820977  1
  Ni  Ni8  1  0.00207579  0.66556390  0.33554214  1
  Cr  Cr9  1  0.33257134  0.00209038  0.00380712  1
  Fe  Fe10  1  0.49778747  0.16555918  0.16674673  1
  Fe  Fe11  1  0.33300388  0.99966913  0.33231622  1
  Ni  Ni12  1  0.33165460  0.33219559  0.00132391  1
  Cr  Cr13  1  0.49803531  0.50395110  0.16770683  1
  Fe  Fe14  1  0.32989021  0.33344622  0.33284475  1
  Cr  Cr15  1  0.33088395  0.66622420  0.00054308  1
  Ni  Ni16  1  0.49949838  0.83350949  0.16829878  1
  Fe  Fe17  1  0.33102158  0.66781250  0.33215118  1
  Fe  Fe18  1  0.66767017  0.00041715  0.00073875  1
  Ni  Ni19  1  0.83696468  0.16633890  0.16436418  1
  Cr  Cr20  1  0.66501852  1.00001039  0.33189030  1
  Cr  Cr21  1  0.66707140  0.33219429  0.99955046  1
  Cr  Cr22  1  0.83584401  0.49998566  0.16883236  1
  Cr  Cr23  1  0.66690576  0.33430956  0.33381005  1
  Ni  Ni24  1  0.67006936  0.66804709  0.00049874  1
  Cr  Cr25  1  0.83160468  0.83422861  0.16466778  1
  Ni  Ni26  1  0.66844122  0.66668312  0.33399175  1
  Fe  Fe27  1  0.16903655  0.16708232  0.50133523  1
  Ni  Ni28  1  0.00195551  0.99810996  0.66718752  1
  Cr  Cr29  1  0.16467463  0.16779692  0.83277255  1
  Ni  Ni30  1  0.16619565  0.49952493  0.50081437  1
  Fe  Fe31  1  0.00030536  0.33495988  0.66732560  1
  Fe  Fe32  1  0.16386847  0.50047131  0.83293137  1
  Fe  Fe33  1  0.16493176  0.83224185  0.50135615  1
  Ni  Ni34  1  0.00132924  0.66752634  0.66713399  1
  Fe  Fe35  1  0.16311211  0.83272667  0.83177224  1
  Fe  Fe36  1  0.49727068  0.16681319  0.50208551  1
  Ni  Ni37  1  0.33187147  0.00268515  0.66514358  1
  Fe  Fe38  1  0.50193176  0.16753681  0.83205583  1
  Cr  Cr39  1  0.49830508  0.50122567  0.50002588  1
  Fe  Fe40  1  0.33164366  0.33290609  0.66643083  1
  Cr  Cr41  1  0.49863958  0.50039501  0.83308256  1
  Cr  Cr42  1  0.50005901  0.83347358  0.49908301  1
  Fe  Fe43  1  0.32807889  0.66808703  0.66684526  1
  Cr  Cr44  1  0.50086128  0.83397490  0.83315499  1
  Cr  Cr45  1  0.83642028  0.16626045  0.50276991  1
  Fe  Fe46  1  0.66879161  0.00170205  0.66740634  1
  Ni  Ni47  1  0.83455934  0.16615834  0.83312991  1
  Fe  Fe48  1  0.83707832  0.50348122  0.50022850  1
  Fe  Fe49  1  0.66884856  0.33086107  0.66835636  1
  Ni  Ni50  1  0.83589530  0.49954296  0.83268237  1
  Ni  Ni51  1  0.83513769  0.83262600  0.50174805  1
  Cr  Cr52  1  0.67163126  0.66493838  0.66605338  1
  Fe  Fe53  1  0.83604004  0.83385338  0.83351809  1
" 