8427,Ni30Fe24Cr45_2,-221.970109561802, 169.565110494945,Ni30Fe24Cr45,"# generated using pymatgen
 data_Cr25Fe13Ni16
_symmetry_space_group_name_H-M   'P 1'
_cell_length_a   7.50470106
_cell_length_b   7.50470106
_cell_length_c   10.61325002
_cell_angle_alpha   90.00000000
_cell_angle_beta   90.00000000
_cell_angle_gamma   90.00000000
_symmetry_Int_Tables_number   1
_chemical_formula_structural   Cr25Fe13Ni16
_chemical_formula_sum   'Cr25 Fe13 Ni16'
_cell_volume   597.74395176
_cell_formula_units_Z   1
loop_
 _symmetry_equiv_pos_site_id
 _symmetry_equiv_pos_as_xyz
  1  'x, y, z'
loop_
 _atom_site_type_symbol
 _atom_site_label
 _atom_site_symmetry_multiplicity
 _atom_site_fract_x
 _atom_site_fract_y
 _atom_site_fract_z
 _atom_site_occupancy
  Ni  Ni0  1  0.99484550  0.99520664  -0.00172573  1
  Cr  Cr1  1  0.16056549  0.16649017  0.16559913  1
  Ni  Ni2  1  0.99488553  0.99643418  0.33243339  1
  Ni  Ni3  1  -0.00080519  0.33446152  0.99738753  1
  Ni  Ni4  1  0.16468571  0.49880737  0.16745608  1
  Fe  Fe5  1  -0.00097462  0.33091384  0.33136540  1
  Fe  Fe6  1  0.99730926  0.66303044  0.99658483  1
  Cr  Cr7  1  0.16185976  0.82909069  0.16122729  1
  Fe  Fe8  1  -0.00218363  0.66623150  0.33070517  1
  Cr  Cr9  1  0.33037151  -0.00217033  0.99668805  1
  Ni  Ni10  1  0.49863577  0.16406902  0.16461418  1
  Cr  Cr11  1  0.33034675  0.99694693  0.32791268  1
  Cr  Cr12  1  0.33149466  0.33401115  0.00345129  1
  Ni  Ni13  1  0.49504397  0.50011452  0.16742467  1
  Fe  Fe14  1  0.33041983  0.33067346  0.32956470  1
  Ni  Ni15  1  0.32836605  0.66114936  -0.00235152  1
  Cr  Cr16  1  0.49945029  0.82887738  0.16392127  1
  Ni  Ni17  1  0.32875396  0.65895527  0.33071558  1
  Ni  Ni18  1  0.66610898  0.99583047  0.00103219  1
  Cr  Cr19  1  0.83252959  0.16264063  0.16248397  1
  Ni  Ni20  1  0.66825635  -0.00151754  0.33057255  1
  Cr  Cr21  1  0.66348282  0.33279802  0.99741844  1
  Cr  Cr22  1  0.83348295  0.50012688  0.16158951  1
  Cr  Cr23  1  0.66195054  0.33163876  0.32786543  1
  Ni  Ni24  1  0.66439835  0.66426884  0.00090669  1
  Ni  Ni25  1  0.83053041  0.83143066  0.16700444  1
  Fe  Fe26  1  0.66449325  0.66664000  0.32975449  1
  Fe  Fe27  1  0.16251867  0.16543013  0.49518044  1
  Cr  Cr28  1  0.99653757  0.99626752  0.66223394  1
  Cr  Cr29  1  0.16156536  0.16634891  0.83211771  1
  Fe  Fe30  1  0.16556971  0.49730949  0.49610786  1
  Ni  Ni31  1  -0.00107843  0.33130048  0.66190877  1
  Ni  Ni32  1  0.16392742  0.49593598  0.82994022  1
  Cr  Cr33  1  0.16665534  0.83067925  0.49837898  1
  Cr  Cr34  1  -0.00062465  0.66251172  0.66704196  1
  Fe  Fe35  1  0.16216438  0.82630255  0.83363556  1
  Fe  Fe36  1  0.49738723  0.16380653  0.49406519  1
  Cr  Cr37  1  0.32947944  0.99721831  0.66808199  1
  Fe  Fe38  1  0.49874963  0.16566479  0.83372762  1
  Fe  Fe39  1  0.49509438  0.49744416  0.49471415  1
  Cr  Cr40  1  0.33194875  0.33079202  0.66120094  1
  Cr  Cr41  1  0.49805485  0.50215593  0.83000750  1
  Cr  Cr42  1  0.49768709  0.82870289  0.49630220  1
  Ni  Ni43  1  0.32895364  0.66165731  0.66402850  1
  Cr  Cr44  1  0.49526485  0.83052760  0.83183981  1
  Fe  Fe45  1  0.83212617  0.16346194  0.49477156  1
  Cr  Cr46  1  0.66389551  0.00031236  0.66152596  1
  Cr  Cr47  1  0.83290323  0.16684384  0.83289482  1
  Cr  Cr48  1  0.83227933  0.49523105  0.49717111  1
  Cr  Cr49  1  0.66575151  0.33090859  0.66585551  1
  Ni  Ni50  1  0.83533302  0.49682982  0.83212963  1
  Fe  Fe51  1  0.83182429  0.83085572  0.49305643  1
  Cr  Cr52  1  0.66560029  0.66298490  0.66129549  1
  Cr  Cr53  1  0.82666006  0.82989885  0.83371695  1
" 