1,Ni30Fe44Cr25_17,-228.439214766234, 194.997454453106,Ni30Fe44Cr25,"# generated using pymatgen
 data_Cr15Fe23Ni16
_symmetry_space_group_name_H-M   'P 1'
_cell_length_a   7.45535443
_cell_length_b   7.45535443
_cell_length_c   10.54346335
_cell_angle_alpha   90.00000000
_cell_angle_beta   90.00000000
_cell_angle_gamma   90.00000000
_symmetry_Int_Tables_number   1
_chemical_formula_structural   Cr15Fe23Ni16
_chemical_formula_sum   'Cr15 Fe23 Ni16'
_cell_volume   586.03004517
_cell_formula_units_Z   1
loop_
 _symmetry_equiv_pos_site_id
 _symmetry_equiv_pos_as_xyz
  1  'x, y, z'
loop_
 _atom_site_type_symbol
 _atom_site_label
 _atom_site_symmetry_multiplicity
 _atom_site_fract_x
 _atom_site_fract_y
 _atom_site_fract_z
 _atom_site_occupancy
  Cr  Cr0  1  0.00110659  0.00272966  0.00200748  1
  Fe  Fe1  1  0.16964951  0.16760104  0.17049787  1
  Fe  Fe2  1  0.00218102  0.00259209  0.33469482  1
  Cr  Cr3  1  0.00211735  0.33385255  0.00417053  1
  Fe  Fe4  1  0.16572092  0.49935610  0.16994859  1
  Fe  Fe5  1  0.00160380  0.33220818  0.33387054  1
  Ni  Ni6  1  1.00048158  0.66638990  1.00048265  1
  Cr  Cr7  1  0.16812839  0.83266770  0.16777863  1
  Fe  Fe8  1  0.00145850  0.66715742  0.33398706  1
  Fe  Fe9  1  0.33581736  0.00264105  0.00081641  1
  Ni  Ni10  1  0.50023859  0.16770775  0.16789664  1
  Ni  Ni11  1  0.33363754  1.00064137  0.33493510  1
  Fe  Fe12  1  0.33443535  0.33168380  0.00160399  1
  Cr  Cr13  1  0.49953555  0.49922962  0.16982023  1
  Ni  Ni14  1  0.33263872  0.33406235  0.33437846  1
  Cr  Cr15  1  0.33500988  0.66722806  0.00143865  1
  Fe  Fe16  1  0.50260923  0.83667532  0.16734569  1
  Fe  Fe17  1  0.33451818  0.66753611  0.33643006  1
  Ni  Ni18  1  0.66568064  1.00033100  0.00304632  1
  Ni  Ni19  1  0.83222480  0.16721309  0.17029671  1
  Cr  Cr20  1  0.66786164  0.00103567  0.33477633  1
  Cr  Cr21  1  0.66797864  0.33354266  1.00071570  1
  Fe  Fe22  1  0.83390616  0.50243836  0.16924655  1
  Ni  Ni23  1  0.66734762  0.33366464  0.33511948  1
  Ni  Ni24  1  0.66760780  0.66893824  0.00182711  1
  Ni  Ni25  1  0.83484170  0.83310540  0.16768949  1
  Fe  Fe26  1  0.66639787  0.66707625  0.33370460  1
  Fe  Fe27  1  0.16862835  0.16928584  0.49917007  1
  Cr  Cr28  1  0.00398961  0.00089293  0.66499694  1
  Fe  Fe29  1  0.17045314  0.16590240  0.83325187  1
  Ni  Ni30  1  0.16758965  0.50107047  0.49885864  1
  Ni  Ni31  1  0.00267639  0.33383071  0.66618006  1
  Cr  Cr32  1  0.16571955  0.50039489  0.83331826  1
  Ni  Ni33  1  0.16764279  0.83386390  0.50008588  1
  Fe  Fe34  1  0.00112352  0.66613007  0.66613025  1
  Ni  Ni35  1  0.16955169  0.83388531  0.83306958  1
  Fe  Fe36  1  0.49778636  0.17043371  0.49933415  1
  Fe  Fe37  1  0.33497697  0.00256292  0.66693642  1
  Ni  Ni38  1  0.49864872  0.16799396  0.83375717  1
  Fe  Fe39  1  0.49879389  0.49858580  0.49842424  1
  Fe  Fe40  1  0.33492416  0.33258249  0.66557881  1
  Fe  Fe41  1  0.50148692  0.50045116  0.83441674  1
  Fe  Fe42  1  0.49799465  0.83367924  0.49903156  1
  Cr  Cr43  1  0.33407041  0.66843871  0.66551263  1
  Ni  Ni44  1  0.49941588  0.83760301  0.83643160  1
  Fe  Fe45  1  0.83605470  0.16920156  0.49986039  1
  Cr  Cr46  1  0.66552295  0.00078838  0.66444337  1
  Cr  Cr47  1  0.83155509  0.16876812  0.83238138  1
  Cr  Cr48  1  0.83401984  0.49915430  0.50127563  1
  Ni  Ni49  1  0.66614855  0.33426955  0.66651001  1
  Fe  Fe50  1  0.83284374  0.50085921  0.83324112  1
  Fe  Fe51  1  0.83701365  0.83240603  0.49857106  1
  Cr  Cr52  1  0.66357975  0.66740287  0.66803778  1
  Cr  Cr53  1  0.83540166  0.83260464  0.83501621  1
" 