3438,Ni30Fe70_9,-243.028918757205, 219.2501734718,Ni30Fe70,"# generated using pymatgen
 data_Fe8Ni19
_symmetry_space_group_name_H-M   'P 1'
_cell_length_a   7.41316959
_cell_length_b   7.41316959
_cell_length_c   10.48380497
_cell_angle_alpha   90.00000000
_cell_angle_beta   90.00000000
_cell_angle_gamma   90.00000000
_symmetry_Int_Tables_number   1
_chemical_formula_structural   Fe8Ni19
_chemical_formula_sum   'Fe16 Ni38'
_cell_volume   576.13837575
_cell_formula_units_Z   2
loop_
 _symmetry_equiv_pos_site_id
 _symmetry_equiv_pos_as_xyz
  1  'x, y, z'
loop_
 _atom_site_type_symbol
 _atom_site_label
 _atom_site_symmetry_multiplicity
 _atom_site_fract_x
 _atom_site_fract_y
 _atom_site_fract_z
 _atom_site_occupancy
  Ni  Ni0  1  0.00374885  0.00424442  0.00414387  1
  Ni  Ni1  1  0.17078987  0.17055509  0.17051621  1
  Fe  Fe2  1  1.00313888  0.00403862  0.33697038  1
  Ni  Ni3  1  1.00298878  0.33687039  0.00442277  1
  Ni  Ni4  1  0.17192923  0.50392537  0.16993343  1
  Fe  Fe5  1  0.00376653  0.33696702  0.33696624  1
  Ni  Ni6  1  0.00440060  0.66978504  0.00412808  1
  Fe  Fe7  1  0.17060854  0.83721235  0.17016950  1
  Fe  Fe8  1  0.00367496  0.66989493  0.33754717  1
  Ni  Ni9  1  0.33679520  1.00314644  0.00483485  1
  Ni  Ni10  1  0.50381711  0.17055507  0.16992006  1
  Fe  Fe11  1  0.33773570  0.00439949  0.33674513  1
  Fe  Fe12  1  0.33690315  0.33696818  0.00383234  1
  Ni  Ni13  1  0.50233832  0.50358529  0.17023637  1
  Ni  Ni14  1  0.33703162  0.33810739  0.33639146  1
  Ni  Ni15  1  0.33648287  0.67054445  0.00391799  1
  Fe  Fe16  1  0.50354819  0.83743962  0.16992244  1
  Ni  Ni17  1  0.33588994  0.66960336  0.33696685  1
  Ni  Ni18  1  0.67035768  0.00455730  0.00393847  1
  Ni  Ni19  1  0.83629719  0.16830757  0.16991443  1
  Ni  Ni20  1  0.67121871  0.00462821  0.33663179  1
  Ni  Ni21  1  0.67111710  0.33655917  0.00421781  1
  Fe  Fe22  1  0.83674372  0.50245868  0.16963042  1
  Ni  Ni23  1  0.67037602  0.33582505  0.33686510  1
  Ni  Ni24  1  0.67001826  0.66978287  0.00476086  1
  Ni  Ni25  1  0.83663463  0.83789964  0.17024510  1
  Fe  Fe26  1  0.66976000  0.66989738  0.33696427  1
  Fe  Fe27  1  0.16906257  0.17039984  0.50423957  1
  Ni  Ni28  1  1.00347578  0.00378488  0.67002893  1
  Ni  Ni29  1  0.17062605  0.17005245  0.83642473  1
  Ni  Ni30  1  0.17102807  0.50482723  0.50433877  1
  Ni  Ni31  1  1.00346641  0.33706298  0.66951258  1
  Ni  Ni32  1  0.17093775  0.50419551  0.83663059  1
  Ni  Ni33  1  0.17036728  0.83603183  0.50372190  1
  Ni  Ni34  1  0.00412689  0.67005444  0.67001049  1
  Fe  Fe35  1  0.17049622  0.83703492  0.83649381  1
  Fe  Fe36  1  0.50437249  0.17039724  0.50365905  1
  Ni  Ni37  1  0.33663515  1.00346666  0.66919171  1
  Ni  Ni38  1  0.50379075  0.17005150  0.83705663  1
  Fe  Fe39  1  0.50387812  0.50400902  0.50359249  1
  Ni  Ni40  1  0.33663506  0.33737338  0.67035137  1
  Ni  Ni41  1  0.50316735  0.50388281  0.83642527  1
  Fe  Fe42  1  0.50404235  0.83649626  0.50401406  1
  Ni  Ni43  1  0.33629692  0.67006267  0.67001407  1
  Fe  Fe44  1  0.50350284  0.83696723  0.83696585  1
  Ni  Ni45  1  0.83588976  0.16938502  0.50402215  1
  Ni  Ni46  1  0.67078960  0.00412402  0.67033350  1
  Ni  Ni47  1  0.83648532  0.16944394  0.83696584  1
  Ni  Ni48  1  0.83703587  0.50400786  0.50344032  1
  Ni  Ni49  1  0.67079950  0.33672315  0.66981509  1
  Ni  Ni50  1  0.83679670  0.50417682  0.83717087  1
  Ni  Ni51  1  0.83703382  0.83750870  0.50456128  1
  Ni  Ni52  1  0.67047970  0.67005433  0.66941665  1
  Fe  Fe53  1  0.83690276  0.83689964  0.83710179  1
" 