5217,Ni30Fe41Cr28_8,-227.818260445675, 186.232973162928,Ni30Fe41Cr28,"# generated using pymatgen
 data_Cr8Fe11Ni8
_symmetry_space_group_name_H-M   'P 1'
_cell_length_a   7.46607803
_cell_length_b   7.46607803
_cell_length_c   10.55862881
_cell_angle_alpha   90.00000000
_cell_angle_beta   90.00000000
_cell_angle_gamma   90.00000000
_symmetry_Int_Tables_number   1
_chemical_formula_structural   Cr8Fe11Ni8
_chemical_formula_sum   'Cr16 Fe22 Ni16'
_cell_volume   588.56247756
_cell_formula_units_Z   2
loop_
 _symmetry_equiv_pos_site_id
 _symmetry_equiv_pos_as_xyz
  1  'x, y, z'
loop_
 _atom_site_type_symbol
 _atom_site_label
 _atom_site_symmetry_multiplicity
 _atom_site_fract_x
 _atom_site_fract_y
 _atom_site_fract_z
 _atom_site_occupancy
  Cr  Cr0  1  0.99825925  0.99862550  0.00370196  1
  Cr  Cr1  1  0.16562896  0.16538714  0.16653732  1
  Fe  Fe2  1  0.99766660  0.99817829  0.33388203  1
  Fe  Fe3  1  0.99949259  0.33489539  0.00239013  1
  Fe  Fe4  1  0.16618755  0.49940874  0.16886603  1
  Ni  Ni5  1  1.00002101  0.33782325  0.33378174  1
  Cr  Cr6  1  0.99982039  0.66661871  0.00125361  1
  Ni  Ni7  1  0.17048754  0.83014925  0.16916729  1
  Ni  Ni8  1  0.99978661  0.66646508  0.33380331  1
  Fe  Fe9  1  0.33525364  0.99920172  0.00200571  1
  Ni  Ni10  1  0.50103143  0.16700225  0.16665546  1
  Cr  Cr11  1  0.33414621  0.00233990  0.33272551  1
  Fe  Fe12  1  0.33529893  0.33308349  0.00147314  1
  Fe  Fe13  1  0.49948503  0.49860147  0.16956480  1
  Ni  Ni14  1  0.33317225  0.33431044  0.33254493  1
  Fe  Fe15  1  0.33374756  0.66669549  0.00241919  1
  Fe  Fe16  1  0.50250966  0.83451493  0.16816370  1
  Fe  Fe17  1  0.33316813  0.66559797  0.33262256  1
  Ni  Ni18  1  0.66446099  0.00166390  0.00165439  1
  Cr  Cr19  1  0.83137364  0.17231081  0.17051737  1
  Ni  Ni20  1  0.66707700  0.99958304  0.33339017  1
  Fe  Fe21  1  0.66499409  0.33324508  0.00210954  1
  Ni  Ni22  1  0.83218341  0.50112897  0.16853240  1
  Ni  Ni23  1  0.66606311  0.33340411  0.33283011  1
  Cr  Cr24  1  0.66761159  0.66845846  0.00217597  1
  Fe  Fe25  1  0.83390222  0.83507086  0.17011026  1
  Ni  Ni26  1  0.67119044  0.66660286  0.33046711  1
  Cr  Cr27  1  0.16325203  0.16432709  0.49842640  1
  Ni  Ni28  1  0.99888368  0.99883701  0.66515241  1
  Fe  Fe29  1  0.16713040  0.16793919  0.83378821  1
  Fe  Fe30  1  0.16531184  0.50136160  0.49619741  1
  Fe  Fe31  1  0.99826339  0.33192246  0.66366249  1
  Fe  Fe32  1  0.16729310  0.49733461  0.83456474  1
  Ni  Ni33  1  0.16483420  0.83400548  0.49996194  1
  Fe  Fe34  1  0.99958235  0.66706294  0.66308762  1
  Cr  Cr35  1  0.16815085  0.83478292  0.83098882  1
  Fe  Fe36  1  0.50256205  0.16677903  0.49838280  1
  Ni  Ni37  1  0.33238133  0.00285019  0.66745580  1
  Fe  Fe38  1  0.50036673  0.16705537  0.83464506  1
  Cr  Cr39  1  0.50612775  0.49977113  0.49514523  1
  Cr  Cr40  1  0.33398503  0.33168342  0.66495124  1
  Fe  Fe41  1  0.49899417  0.49726090  0.83436287  1
  Cr  Cr42  1  0.49781160  0.83502004  0.49924346  1
  Cr  Cr43  1  0.33088963  0.66355004  0.66448627  1
  Cr  Cr44  1  0.49902010  0.83420570  0.83282609  1
  Fe  Fe45  1  0.83062460  0.16611243  0.49850736  1
  Ni  Ni46  1  0.66837028  0.00294903  0.66621050  1
  Cr  Cr47  1  0.83417803  0.16828666  0.83393763  1
  Ni  Ni48  1  0.83481954  0.49662648  0.49897834  1
  Ni  Ni49  1  0.66608102  0.33071487  0.66582668  1
  Cr  Cr50  1  0.83340670  0.49710004  0.83168681  1
  Fe  Fe51  1  0.83393362  0.83287437  0.49817390  1
  Cr  Cr52  1  0.67001356  0.66662994  0.66706079  1
  Fe  Fe53  1  0.83321892  0.83609630  0.83244973  1
" 