5680,Ni30Fe44Cr25_10,-228.251461326276, 183.748895379601,Ni30Fe44Cr25,"# generated using pymatgen
 data_Cr15Fe23Ni16
_symmetry_space_group_name_H-M   'P 1'
_cell_length_a   7.46190073
_cell_length_b   7.46190073
_cell_length_c   10.55272122
_cell_angle_alpha   90.00000000
_cell_angle_beta   90.00000000
_cell_angle_gamma   90.00000000
_symmetry_Int_Tables_number   1
_chemical_formula_structural   Cr15Fe23Ni16
_chemical_formula_sum   'Cr15 Fe23 Ni16'
_cell_volume   587.57512205
_cell_formula_units_Z   1
loop_
 _symmetry_equiv_pos_site_id
 _symmetry_equiv_pos_as_xyz
  1  'x, y, z'
loop_
 _atom_site_type_symbol
 _atom_site_label
 _atom_site_symmetry_multiplicity
 _atom_site_fract_x
 _atom_site_fract_y
 _atom_site_fract_z
 _atom_site_occupancy
  Fe  Fe0  1  0.99931191  1.00004427  1.00005301  1
  Fe  Fe1  1  0.16596047  0.16673183  0.16663835  1
  Fe  Fe2  1  0.00230785  0.00036315  0.33307617  1
  Ni  Ni3  1  0.00064885  0.33266348  1.00017240  1
  Fe  Fe4  1  0.16635175  0.50120642  0.16650441  1
  Cr  Cr5  1  0.99994385  0.33617717  0.33560989  1
  Cr  Cr6  1  0.99965974  0.66658987  0.00179028  1
  Ni  Ni7  1  0.16417277  0.83649627  0.16904813  1
  Ni  Ni8  1  1.00023578  0.66731653  0.33282992  1
  Cr  Cr9  1  0.33254385  0.99903401  0.99970745  1
  Fe  Fe10  1  0.50080561  0.16706409  0.16678985  1
  Ni  Ni11  1  0.33306398  0.00068911  0.33549954  1
  Fe  Fe12  1  0.33233617  0.33716526  0.00093930  1
  Ni  Ni13  1  0.50180833  0.49846670  0.16312979  1
  Cr  Cr14  1  0.33225891  0.33113775  0.33304014  1
  Fe  Fe15  1  0.33250457  0.66568838  0.99992061  1
  Cr  Cr16  1  0.50017262  0.83319033  0.16648942  1
  Cr  Cr17  1  0.33096714  0.66921179  0.33299955  1
  Fe  Fe18  1  0.67112402  0.99960800  1.00004106  1
  Fe  Fe19  1  0.83417158  0.16649729  0.16579102  1
  Fe  Fe20  1  0.66671978  0.00137905  0.33406794  1
  Fe  Fe21  1  0.66914419  0.33569906  0.00122780  1
  Ni  Ni22  1  0.83316792  0.49932346  0.16612970  1
  Cr  Cr23  1  0.66879229  0.33321688  0.33564587  1
  Ni  Ni24  1  0.66728150  0.66718599  0.99928568  1
  Fe  Fe25  1  0.83450282  0.83306464  0.16710832  1
  Cr  Cr26  1  0.66995703  0.66651696  0.33322976  1
  Ni  Ni27  1  0.16648124  0.16336227  0.50091248  1
  Fe  Fe28  1  0.00130331  1.00003741  0.66750823  1
  Fe  Fe29  1  0.16561179  0.16622030  0.83366408  1
  Ni  Ni30  1  0.16478062  0.50300600  0.50072357  1
  Cr  Cr31  1  1.00007374  0.33421852  0.66593469  1
  Fe  Fe32  1  0.16829553  0.50107575  0.83402661  1
  Fe  Fe33  1  0.16702040  0.83442529  0.50060729  1
  Fe  Fe34  1  0.00111308  0.66820350  0.66705207  1
  Ni  Ni35  1  0.16507254  0.83428191  0.83136005  1
  Ni  Ni36  1  0.49927270  0.16336150  0.49849772  1
  Ni  Ni37  1  0.33179887  0.99739742  0.66561349  1
  Cr  Cr38  1  0.50095586  0.17001126  0.83515812  1
  Cr  Cr39  1  0.49989316  0.50162673  0.50160674  1
  Cr  Cr40  1  0.33142710  0.33044033  0.66560071  1
  Ni  Ni41  1  0.50135182  0.50242591  0.83575630  1
  Fe  Fe42  1  0.49873564  0.83481071  0.50064301  1
  Fe  Fe43  1  0.33386584  0.66809427  0.66830451  1
  Fe  Fe44  1  0.49888123  0.83081068  0.83370371  1
  Ni  Ni45  1  0.83530173  0.16466135  0.49997540  1
  Cr  Cr46  1  0.66438785  0.99898205  0.66680599  1
  Fe  Fe47  1  0.83606075  0.16664508  0.83512058  1
  Ni  Ni48  1  0.83657356  0.50271706  0.50207298  1
  Cr  Cr49  1  0.66985321  0.33478718  0.66506129  1
  Fe  Fe50  1  0.83295909  0.50158818  0.83476986  1
  Cr  Cr51  1  0.83656546  0.83316793  0.49882953  1
  Ni  Ni52  1  0.66820481  0.66808755  0.66892789  1
  Fe  Fe53  1  0.83286716  0.83244946  0.83362113  1
" 