4085,Ni30Fe44Cr24_17,-229.04105540017, 186.706132559239,Ni30Fe44Cr24,"# generated using pymatgen
 data_Cr7(Fe3Ni2)4
_symmetry_space_group_name_H-M   'P 1'
_cell_length_a   7.45778301
_cell_length_b   7.45778301
_cell_length_c   10.54689788
_cell_angle_alpha   90.00000000
_cell_angle_beta   90.00000000
_cell_angle_gamma   90.00000000
_symmetry_Int_Tables_number   1
_chemical_formula_structural   Cr7(Fe3Ni2)4
_chemical_formula_sum   'Cr14 Fe24 Ni16'
_cell_volume   586.60292964
_cell_formula_units_Z   2
loop_
 _symmetry_equiv_pos_site_id
 _symmetry_equiv_pos_as_xyz
  1  'x, y, z'
loop_
 _atom_site_type_symbol
 _atom_site_label
 _atom_site_symmetry_multiplicity
 _atom_site_fract_x
 _atom_site_fract_y
 _atom_site_fract_z
 _atom_site_occupancy
  Ni  Ni0  1  0.00067935  0.00231573  0.00110109  1
  Cr  Cr1  1  0.16841204  0.16659692  0.16768954  1
  Ni  Ni2  1  1.00046820  0.99950343  0.33354628  1
  Fe  Fe3  1  0.99962303  0.33253956  0.99981451  1
  Fe  Fe4  1  0.16843834  0.50092165  0.16869048  1
  Fe  Fe5  1  0.99983511  0.33285857  0.33544732  1
  Cr  Cr6  1  0.00286514  0.66657489  0.00143866  1
  Ni  Ni7  1  0.16315221  0.83366725  0.16830104  1
  Fe  Fe8  1  0.00254949  0.66589458  0.33267795  1
  Fe  Fe9  1  0.33313892  0.99987872  0.99981004  1
  Ni  Ni10  1  0.50155059  0.17059837  0.16579509  1
  Cr  Cr11  1  0.33305236  0.00130460  0.33602468  1
  Fe  Fe12  1  0.33402799  0.33378566  0.99922456  1
  Cr  Cr13  1  0.50097311  0.49831289  0.16764335  1
  Ni  Ni14  1  0.33391510  0.33762457  0.33364195  1
  Fe  Fe15  1  0.33316379  0.66841767  0.99822671  1
  Cr  Cr16  1  0.49855786  0.83358086  0.16600032  1
  Fe  Fe17  1  0.33199962  0.66668375  0.33640953  1
  Fe  Fe18  1  0.66749458  0.00277438  1.00040830  1
  Fe  Fe19  1  0.83390524  0.16762406  0.16667448  1
  Cr  Cr20  1  0.66848373  0.00259814  0.33132084  1
  Fe  Fe21  1  0.66818664  0.33206028  0.00100476  1
  Fe  Fe22  1  0.83445726  0.49983504  0.16770439  1
  Ni  Ni23  1  0.66794820  0.33585750  0.33392948  1
  Ni  Ni24  1  0.66553652  0.66651439  0.00064469  1
  Fe  Fe25  1  0.83512035  0.83484642  0.16622649  1
  Fe  Fe26  1  0.66710921  0.66514346  0.33512329  1
  Fe  Fe27  1  0.16566278  0.16824478  0.50092804  1
  Ni  Ni28  1  0.00312479  0.00477864  0.66711657  1
  Fe  Fe29  1  0.16728590  0.16777276  0.83393653  1
  Fe  Fe30  1  0.16972626  0.49901450  0.49967709  1
  Ni  Ni31  1  0.00341864  0.33046374  0.66639653  1
  Fe  Fe32  1  0.17024518  0.49753092  0.83444818  1
  Ni  Ni33  1  0.16573675  0.83576461  0.50004316  1
  Cr  Cr34  1  0.00424848  0.66618790  0.66755614  1
  Ni  Ni35  1  0.16799244  0.83875706  0.83443205  1
  Cr  Cr36  1  0.49800984  0.17138923  0.50024641  1
  Fe  Fe37  1  0.33054495  0.00181656  0.66765656  1
  Ni  Ni38  1  0.49850620  0.17036553  0.83558031  1
  Ni  Ni39  1  0.50121506  0.49844522  0.49932065  1
  Ni  Ni40  1  0.33320133  0.33378465  0.66829113  1
  Ni  Ni41  1  0.50044087  0.49633004  0.83543027  1
  Ni  Ni42  1  0.49765940  0.83099854  0.50072253  1
  Cr  Cr43  1  0.33456780  0.66594470  0.66860806  1
  Fe  Fe44  1  0.49884947  0.83411126  0.83674773  1
  Fe  Fe45  1  0.83671442  0.16935139  0.50019140  1
  Cr  Cr46  1  0.66566189  0.00209808  0.66830375  1
  Fe  Fe47  1  0.83531615  0.16766564  0.83433564  1
  Fe  Fe48  1  0.83371322  0.49764714  0.49972402  1
  Fe  Fe49  1  0.66671058  0.33347626  0.66671903  1
  Cr  Cr50  1  0.83235415  0.49810488  0.83205023  1
  Cr  Cr51  1  0.83703173  0.83381424  0.49958176  1
  Cr  Cr52  1  0.66384469  0.66618551  0.66598276  1
  Cr  Cr53  1  0.83711440  0.83518424  0.83499500  1
" 