5156,Ni30Fe9Cr59_13,-215.259292157788, 149.064445658806,Ni30Fe9Cr59,"# generated using pymatgen
 data_Cr33Fe5Ni16
_symmetry_space_group_name_H-M   'P 1'
_cell_length_a   7.53835612
_cell_length_b   7.53835612
_cell_length_c   10.66084546
_cell_angle_alpha   90.00000000
_cell_angle_beta   90.00000000
_cell_angle_gamma   90.00000000
_symmetry_Int_Tables_number   1
_chemical_formula_structural   Cr33Fe5Ni16
_chemical_formula_sum   'Cr33 Fe5 Ni16'
_cell_volume   605.82187063
_cell_formula_units_Z   1
loop_
 _symmetry_equiv_pos_site_id
 _symmetry_equiv_pos_as_xyz
  1  'x, y, z'
loop_
 _atom_site_type_symbol
 _atom_site_label
 _atom_site_symmetry_multiplicity
 _atom_site_fract_x
 _atom_site_fract_y
 _atom_site_fract_z
 _atom_site_occupancy
  Cr  Cr0  1  0.99376089  0.99333102  0.99455602  1
  Cr  Cr1  1  0.15830165  0.16455619  0.16011220  1
  Cr  Cr2  1  0.99381328  0.99376262  0.32871095  1
  Cr  Cr3  1  0.99194901  0.32980820  0.99249686  1
  Cr  Cr4  1  0.15973655  0.49665528  0.16504365  1
  Ni  Ni5  1  0.99508218  0.33301533  0.33470458  1
  Cr  Cr6  1  0.98805574  0.66339609  0.99286659  1
  Cr  Cr7  1  0.16197115  0.82401126  0.16252765  1
  Ni  Ni8  1  0.99038408  0.65928815  0.33229152  1
  Cr  Cr9  1  0.33081441  -0.00370199  0.99479605  1
  Ni  Ni10  1  0.49874722  0.16192841  0.16135096  1
  Cr  Cr11  1  0.32952354  -0.00118039  0.32706665  1
  Cr  Cr12  1  0.33283100  0.32734489  0.99432485  1
  Cr  Cr13  1  0.49726464  0.49702536  0.16131491  1
  Cr  Cr14  1  0.32898263  0.32770340  0.32974136  1
  Cr  Cr15  1  0.33139482  0.66142233  0.99373493  1
  Cr  Cr16  1  0.49738550  0.82601714  0.16562540  1
  Fe  Fe17  1  0.32903172  0.66081322  0.33045528  1
  Cr  Cr18  1  0.66162720  0.99459392  -0.00404679  1
  Cr  Cr19  1  0.82612181  0.16407108  0.16375527  1
  Ni  Ni20  1  0.66181140  0.99103262  0.33010217  1
  Ni  Ni21  1  0.66048842  0.33081924  0.99346769  1
  Cr  Cr22  1  0.82818491  0.49471660  0.15995659  1
  Cr  Cr23  1  0.66268628  0.32979273  0.32718185  1
  Ni  Ni24  1  0.66083316  0.65964741  0.99013877  1
  Cr  Cr25  1  0.82670604  0.82651541  0.16337762  1
  Ni  Ni26  1  0.66797442  0.66144593  0.33187425  1
  Ni  Ni27  1  0.15911258  0.16502831  0.49769436  1
  Cr  Cr28  1  0.99489219  0.99275408  0.66153683  1
  Fe  Fe29  1  0.16392943  0.16188497  0.82738667  1
  Ni  Ni30  1  0.15789737  0.49423264  0.49361423  1
  Fe  Fe31  1  0.99436302  0.33050621  0.65914796  1
  Cr  Cr32  1  0.16088898  0.49358593  0.82710493  1
  Cr  Cr33  1  0.16327475  0.82623777  0.49268822  1
  Cr  Cr34  1  0.98938103  0.66168002  0.66097895  1
  Cr  Cr35  1  0.16269087  0.82695698  0.83061527  1
  Cr  Cr36  1  0.49808098  0.15956514  0.49593852  1
  Cr  Cr37  1  0.33044509  -0.00346714  0.66497104  1
  Ni  Ni38  1  0.50050303  0.16291207  0.82870830  1
  Cr  Cr39  1  0.49593135  0.49866593  0.49376173  1
  Cr  Cr40  1  0.32923491  0.32773126  0.66084533  1
  Ni  Ni41  1  0.49804841  0.49536022  0.82902969  1
  Cr  Cr42  1  0.49929153  0.82811134  0.49622646  1
  Cr  Cr43  1  0.33166824  0.65998553  0.66200403  1
  Ni  Ni44  1  0.50136724  0.82767475  0.82713939  1
  Cr  Cr45  1  0.82766405  0.16119001  0.49484732  1
  Fe  Fe46  1  0.66327276  0.99334407  0.66299941  1
  Cr  Cr47  1  0.82911069  0.16387029  0.82673357  1
  Ni  Ni48  1  0.82939273  0.49717554  0.49667206  1
  Cr  Cr49  1  0.66151718  0.33557470  0.66225631  1
  Fe  Fe50  1  0.82379067  0.49750775  0.82773249  1
  Ni  Ni51  1  0.82636508  0.82605843  0.49531608  1
  Ni  Ni52  1  0.66401647  0.66354831  0.66396595  1
  Ni  Ni53  1  0.82300128  0.82908901  0.82715261  1
" 