1513,Ni30Fe44Cr24_16,-228.983895244965, 198.992524285222,Ni30Fe44Cr24,"# generated using pymatgen
 data_Cr7(Fe3Ni2)4
_symmetry_space_group_name_H-M   'P 1'
_cell_length_a   7.44617012
_cell_length_b   7.44617012
_cell_length_c   10.53047478
_cell_angle_alpha   90.00000000
_cell_angle_beta   90.00000000
_cell_angle_gamma   90.00000000
_symmetry_Int_Tables_number   1
_chemical_formula_structural   Cr7(Fe3Ni2)4
_chemical_formula_sum   'Cr14 Fe24 Ni16'
_cell_volume   583.86690766
_cell_formula_units_Z   2
loop_
 _symmetry_equiv_pos_site_id
 _symmetry_equiv_pos_as_xyz
  1  'x, y, z'
loop_
 _atom_site_type_symbol
 _atom_site_label
 _atom_site_symmetry_multiplicity
 _atom_site_fract_x
 _atom_site_fract_y
 _atom_site_fract_z
 _atom_site_occupancy
  Fe  Fe0  1  0.00284652  0.00143527  0.00149180  1
  Ni  Ni1  1  0.16878517  0.16612003  0.16827661  1
  Ni  Ni2  1  0.00279889  0.00321793  0.33476418  1
  Cr  Cr3  1  1.00007687  0.33284917  0.00243237  1
  Fe  Fe4  1  0.16784819  0.49989631  0.16589752  1
  Cr  Cr5  1  1.00071142  0.33233570  0.33409120  1
  Ni  Ni6  1  0.00179993  0.66752371  0.00244816  1
  Ni  Ni7  1  0.16644695  0.83547374  0.16602981  1
  Cr  Cr8  1  1.00072088  0.66868569  0.33532128  1
  Cr  Cr9  1  0.33607738  1.00009595  0.00149929  1
  Ni  Ni10  1  0.50294881  0.16940613  0.16905958  1
  Fe  Fe11  1  0.33361188  0.00186331  0.33407093  1
  Ni  Ni12  1  0.33532080  0.33240215  1.00101716  1
  Cr  Cr13  1  0.50070899  0.49942873  0.16809336  1
  Fe  Fe14  1  0.33472020  0.33129418  0.33349106  1
  Fe  Fe15  1  0.33256452  0.66813088  0.00151034  1
  Fe  Fe16  1  0.50258788  0.83941422  0.16929090  1
  Cr  Cr17  1  0.33533177  0.67257886  0.33062249  1
  Fe  Fe18  1  0.66810086  0.00509667  1.00096989  1
  Ni  Ni19  1  0.83270243  0.16651202  0.16755449  1
  Fe  Fe20  1  0.66794425  0.00175192  0.33593861  1
  Fe  Fe21  1  0.66674873  0.33228511  1.00047887  1
  Fe  Fe22  1  0.83372385  0.50055852  0.16896710  1
  Fe  Fe23  1  0.66958824  0.33339446  0.33524147  1
  Cr  Cr24  1  0.66664630  0.66957736  1.00022652  1
  Cr  Cr25  1  0.83585750  0.83772978  0.16847028  1
  Ni  Ni26  1  0.66708994  0.66896054  0.33697572  1
  Fe  Fe27  1  0.16965309  0.16507557  0.50067670  1
  Ni  Ni28  1  0.00204761  0.00250324  0.66791352  1
  Fe  Fe29  1  0.16704687  0.16530318  0.83489003  1
  Cr  Cr30  1  0.17032040  0.50215488  0.50229156  1
  Cr  Cr31  1  1.00073024  0.33236829  0.66766988  1
  Cr  Cr32  1  0.17059755  0.50293880  0.83440035  1
  Ni  Ni33  1  0.16786320  0.83731254  0.50349376  1
  Fe  Fe34  1  1.00113527  0.67075934  0.66718727  1
  Ni  Ni35  1  0.16766284  0.83463449  0.83424251  1
  Fe  Fe36  1  0.50079410  0.16566438  0.50048333  1
  Fe  Fe37  1  0.33468858  1.00080354  0.66821577  1
  Fe  Fe38  1  0.50096456  0.16701942  0.83539430  1
  Cr  Cr39  1  0.50050549  0.50019256  0.50194928  1
  Fe  Fe40  1  0.33575350  0.33129411  0.66980504  1
  Fe  Fe41  1  0.50139188  0.50139908  0.83477093  1
  Ni  Ni42  1  0.50132649  0.83633247  0.50182521  1
  Ni  Ni43  1  0.33673819  0.67144236  0.66995324  1
  Fe  Fe44  1  0.50072335  0.83573178  0.83198544  1
  Fe  Fe45  1  0.83384734  0.16422197  0.50145587  1
  Ni  Ni46  1  0.66684435  1.00133744  0.66738575  1
  Ni  Ni47  1  0.83258834  0.16595198  0.83635583  1
  Ni  Ni48  1  0.83284825  0.50213101  0.50192842  1
  Cr  Cr49  1  0.66937055  0.33369352  0.67020286  1
  Fe  Fe50  1  0.83571337  0.50248358  0.83472885  1
  Fe  Fe51  1  0.83440014  0.83590672  0.50216616  1
  Fe  Fe52  1  0.66837479  0.67080397  0.66700281  1
  Cr  Cr53  1  0.83746277  0.83822376  0.83309665  1
" 