4551,Ni30Fe70_13,-242.935584082198, 218.637782337544,Ni30Fe70,"# generated using pymatgen
 data_Fe8Ni19
_symmetry_space_group_name_H-M   'P 1'
_cell_length_a   7.41332974
_cell_length_b   7.41332974
_cell_length_c   10.48403146
_cell_angle_alpha   90.00000000
_cell_angle_beta   90.00000000
_cell_angle_gamma   90.00000000
_symmetry_Int_Tables_number   1
_chemical_formula_structural   Fe8Ni19
_chemical_formula_sum   'Fe16 Ni38'
_cell_volume   576.17571759
_cell_formula_units_Z   2
loop_
 _symmetry_equiv_pos_site_id
 _symmetry_equiv_pos_as_xyz
  1  'x, y, z'
loop_
 _atom_site_type_symbol
 _atom_site_label
 _atom_site_symmetry_multiplicity
 _atom_site_fract_x
 _atom_site_fract_y
 _atom_site_fract_z
 _atom_site_occupancy
  Ni  Ni0  1  0.00417568  1.00346458  0.00379999  1
  Ni  Ni1  1  0.17022525  0.16914945  0.17003462  1
  Ni  Ni2  1  0.00446936  0.00397302  0.33697437  1
  Ni  Ni3  1  0.00386716  0.33801378  0.00388766  1
  Ni  Ni4  1  0.17020894  0.50443542  0.17009870  1
  Fe  Fe5  1  1.00309102  0.33604547  0.33715588  1
  Ni  Ni6  1  1.00323530  0.66938962  0.00400312  1
  Ni  Ni7  1  0.17020610  0.83728765  0.16969128  1
  Fe  Fe8  1  1.00346459  0.67151231  0.33673357  1
  Ni  Ni9  1  0.33733339  0.00457089  0.00442361  1
  Ni  Ni10  1  0.50393826  0.16945842  0.16987668  1
  Ni  Ni11  1  0.33683920  0.00428729  0.33666156  1
  Ni  Ni12  1  0.33732788  0.33659531  0.00368443  1
  Ni  Ni13  1  0.50394916  0.50412053  0.16981969  1
  Fe  Fe14  1  0.33755215  0.33617387  0.33662336  1
  Fe  Fe15  1  0.33644468  0.66978340  0.00406864  1
  Ni  Ni16  1  0.50364128  0.83728977  0.17024544  1
  Fe  Fe17  1  0.33724244  0.67144999  0.33679894  1
  Ni  Ni18  1  0.66936018  0.00394125  0.00390962  1
  Ni  Ni19  1  0.83670572  0.16945272  0.16979772  1
  Ni  Ni20  1  0.66956041  1.00288141  0.33746897  1
  Ni  Ni21  1  0.66967419  0.33753546  0.00399633  1
  Ni  Ni22  1  0.83671064  0.50413994  0.16980319  1
  Fe  Fe23  1  0.67022595  0.33602023  0.33668558  1
  Fe  Fe24  1  0.67067073  0.66984864  0.00400413  1
  Ni  Ni25  1  0.83702131  0.83727512  0.17022691  1
  Ni  Ni26  1  0.67018708  0.66964568  0.33643787  1
  Ni  Ni27  1  0.17013538  0.16866007  0.50413028  1
  Ni  Ni28  1  0.00506334  0.00422130  0.67009348  1
  Ni  Ni29  1  0.17006575  0.16950209  0.83670530  1
  Ni  Ni30  1  0.17011580  0.50506256  0.50421916  1
  Ni  Ni31  1  0.00393485  0.33761491  0.67022063  1
  Ni  Ni32  1  0.17002064  0.50424553  0.83655023  1
  Ni  Ni33  1  0.17013763  0.83715181  0.50402145  1
  Ni  Ni34  1  1.00252728  0.66903225  0.66926675  1
  Fe  Fe35  1  0.16990868  0.83740183  0.83675862  1
  Ni  Ni36  1  0.50411095  0.16976385  0.50402035  1
  Ni  Ni37  1  0.33665566  0.00453624  0.66978166  1
  Ni  Ni38  1  0.50384357  0.16981200  0.83697629  1
  Ni  Ni39  1  0.50417448  0.50400033  0.50411125  1
  Fe  Fe40  1  0.33610841  0.33710492  0.67068866  1
  Ni  Ni41  1  0.50388258  0.50392994  0.83693953  1
  Fe  Fe42  1  0.50339749  0.83711083  0.50300253  1
  Fe  Fe43  1  0.33579878  0.67014105  0.67000079  1
  Fe  Fe44  1  0.50368544  0.83740318  0.83722558  1
  Ni  Ni45  1  0.83662619  0.16978200  0.50411453  1
  Fe  Fe46  1  0.67122650  0.00399557  0.67035534  1
  Ni  Ni47  1  0.83696311  0.16983539  0.83696181  1
  Ni  Ni48  1  0.83657709  0.50399595  0.50414461  1
  Fe  Fe49  1  0.67120514  0.33699812  0.67069190  1
  Ni  Ni50  1  0.83696344  0.50394655  0.83692086  1
  Fe  Fe51  1  0.83733858  0.83682203  0.50322341  1
  Ni  Ni52  1  0.67057563  0.66901165  0.67031775  1
  Fe  Fe53  1  0.83727476  0.83682208  0.83729056  1
" 