3916,Ni30Fe70_0,-243.009712963623, 220.233630692889,Ni30Fe70,"# generated using pymatgen
 data_Fe8Ni19
_symmetry_space_group_name_H-M   'P 1'
_cell_length_a   7.41471867
_cell_length_b   7.41471867
_cell_length_c   10.48599571
_cell_angle_alpha   90.00000000
_cell_angle_beta   90.00000000
_cell_angle_gamma   90.00000000
_symmetry_Int_Tables_number   1
_chemical_formula_structural   Fe8Ni19
_chemical_formula_sum   'Fe16 Ni38'
_cell_volume   576.49962724
_cell_formula_units_Z   2
loop_
 _symmetry_equiv_pos_site_id
 _symmetry_equiv_pos_as_xyz
  1  'x, y, z'
loop_
 _atom_site_type_symbol
 _atom_site_label
 _atom_site_symmetry_multiplicity
 _atom_site_fract_x
 _atom_site_fract_y
 _atom_site_fract_z
 _atom_site_occupancy
  Ni  Ni0  1  1.00346165  0.00360241  1.00298015  1
  Fe  Fe1  1  0.17058788  0.17025925  0.16971518  1
  Ni  Ni2  1  1.00320594  1.00285453  0.33740243  1
  Ni  Ni3  1  0.00380619  0.33645244  1.00268145  1
  Fe  Fe4  1  0.17084306  0.50371291  0.16994525  1
  Ni  Ni5  1  1.00352419  0.33710973  0.33768162  1
  Fe  Fe6  1  1.00322942  0.67042592  1.00309838  1
  Fe  Fe7  1  0.17097630  0.83661394  0.17049283  1
  Ni  Ni8  1  1.00352675  0.67062420  0.33659119  1
  Ni  Ni9  1  0.33674652  1.00286081  1.00278830  1
  Ni  Ni10  1  0.50285785  0.17093866  0.17103297  1
  Ni  Ni11  1  0.33718344  1.00284483  0.33733127  1
  Ni  Ni12  1  0.33674357  0.33753794  1.00339429  1
  Ni  Ni13  1  0.50368579  0.50251700  0.16973694  1
  Ni  Ni14  1  0.33720408  0.33745739  0.33670580  1
  Ni  Ni15  1  0.33753611  0.67018883  1.00320627  1
  Ni  Ni16  1  0.50400218  0.83713045  0.17005585  1
  Ni  Ni17  1  0.33721333  0.67028208  0.33719550  1
  Ni  Ni18  1  0.67037749  1.00281011  1.00351317  1
  Fe  Fe19  1  0.83550477  0.17032626  0.17074379  1
  Ni  Ni20  1  0.67019764  1.00284682  0.33672620  1
  Ni  Ni21  1  0.67003722  0.33724392  1.00321460  1
  Ni  Ni22  1  0.83674675  0.50394403  0.17060537  1
  Ni  Ni23  1  0.66985735  0.33713817  0.33694805  1
  Ni  Ni24  1  0.66929312  0.67053262  1.00302620  1
  Ni  Ni25  1  0.83706986  0.83633836  0.17092423  1
  Ni  Ni26  1  0.66984834  0.67060062  0.33755047  1
  Fe  Fe27  1  0.16991991  0.16948350  0.50371403  1
  Ni  Ni28  1  1.00292120  1.00250912  0.67020264  1
  Ni  Ni29  1  0.17099610  0.17092030  0.83662490  1
  Fe  Fe30  1  0.17001206  0.50430959  0.50391167  1
  Ni  Ni31  1  0.00408002  0.33715357  0.67022212  1
  Ni  Ni32  1  0.17019913  0.50285035  0.83700103  1
  Ni  Ni33  1  0.16943810  0.83692730  0.50338724  1
  Ni  Ni34  1  0.00408142  0.67092479  0.67060035  1
  Ni  Ni35  1  0.16871619  0.83681598  0.83723084  1
  Fe  Fe36  1  0.50428988  0.16946319  0.50349777  1
  Fe  Fe37  1  0.33614694  0.00430803  0.67049478  1
  Ni  Ni38  1  0.50296653  0.17124240  0.83657333  1
  Ni  Ni39  1  0.50313993  0.50299775  0.50316862  1
  Ni  Ni40  1  0.33699136  0.33750084  0.67048561  1
  Fe  Fe41  1  0.50245260  0.50308883  0.83718891  1
  Ni  Ni42  1  0.50348507  0.83613178  0.50346962  1
  Fe  Fe43  1  0.33610120  0.66983310  0.66990108  1
  Fe  Fe44  1  0.50273250  0.83755928  0.83761704  1
  Ni  Ni45  1  0.83731716  0.16996899  0.50339822  1
  Ni  Ni46  1  0.67069571  1.00334253  0.67034894  1
  Fe  Fe47  1  0.83788841  0.16972803  0.83617931  1
  Fe  Fe48  1  0.83662968  0.50419722  0.50288537  1
  Ni  Ni49  1  0.66951633  0.33633710  0.67042345  1
  Fe  Fe50  1  0.83793644  0.50305009  0.83734125  1
  Ni  Ni51  1  0.83766224  0.83776922  0.50297962  1
  Fe  Fe52  1  0.67120908  0.67010886  0.66973428  1
  Ni  Ni53  1  0.83775895  0.83683491  0.83668112  1
" 