1119,Ni30Fe9Cr59_1,-215.652043903787, 160.400108220056,Ni30Fe9Cr59,"# generated using pymatgen
 data_Cr33Fe5Ni16
_symmetry_space_group_name_H-M   'P 1'
_cell_length_a   7.53287133
_cell_length_b   7.53287133
_cell_length_c   10.65308880
_cell_angle_alpha   90.00000000
_cell_angle_beta   90.00000000
_cell_angle_gamma   90.00000000
_symmetry_Int_Tables_number   1
_chemical_formula_structural   Cr33Fe5Ni16
_chemical_formula_sum   'Cr33 Fe5 Ni16'
_cell_volume   604.50047383
_cell_formula_units_Z   1
loop_
 _symmetry_equiv_pos_site_id
 _symmetry_equiv_pos_as_xyz
  1  'x, y, z'
loop_
 _atom_site_type_symbol
 _atom_site_label
 _atom_site_symmetry_multiplicity
 _atom_site_fract_x
 _atom_site_fract_y
 _atom_site_fract_z
 _atom_site_occupancy
  Cr  Cr0  1  -0.00383551  -0.00179126  -0.00370148  1
  Cr  Cr1  1  0.16548458  0.16522297  0.16333789  1
  Cr  Cr2  1  0.99262890  -0.00097854  0.32929933  1
  Cr  Cr3  1  -0.00314802  0.32860607  0.99543925  1
  Ni  Ni4  1  0.16382784  0.49181943  0.16331323  1
  Ni  Ni5  1  0.99431830  0.32957107  0.32958728  1
  Cr  Cr6  1  -0.00353252  0.66009622  -0.00381546  1
  Cr  Cr7  1  0.16221298  0.82700898  0.16363219  1
  Cr  Cr8  1  0.99455947  0.65913912  0.33039459  1
  Cr  Cr9  1  0.33012425  -0.00284457  -0.00412061  1
  Ni  Ni10  1  0.49569218  0.16669631  0.16279290  1
  Cr  Cr11  1  0.33356888  -0.00294017  0.32983971  1
  Ni  Ni12  1  0.33242356  0.33003330  -0.00278174  1
  Cr  Cr13  1  0.49644457  0.49257718  0.16164246  1
  Fe  Fe14  1  0.33094912  0.32902509  0.32999648  1
  Cr  Cr15  1  0.33132949  0.65999262  0.99479182  1
  Cr  Cr16  1  0.49755621  0.82894706  0.16106274  1
  Cr  Cr17  1  0.33180409  0.66002725  0.32945063  1
  Cr  Cr18  1  0.66035204  -0.00352014  -0.00394111  1
  Cr  Cr19  1  0.82462557  0.16493669  0.16184744  1
  Cr  Cr20  1  0.66070361  -0.00243336  0.33149270  1
  Ni  Ni21  1  0.65805584  0.33085663  -0.00387569  1
  Cr  Cr22  1  0.82686978  0.49508139  0.16250424  1
  Fe  Fe23  1  0.66159758  0.32827181  0.33155413  1
  Ni  Ni24  1  0.65919986  0.65927662  0.99359686  1
  Cr  Cr25  1  0.82722035  0.82690793  0.16095199  1
  Cr  Cr26  1  0.66051278  0.66154081  0.33302032  1
  Cr  Cr27  1  0.16535781  0.16343459  0.49725332  1
  Cr  Cr28  1  0.99234617  -0.00285807  0.66155625  1
  Cr  Cr29  1  0.16718520  0.16307392  0.82654036  1
  Cr  Cr30  1  0.16360477  0.49440282  0.49573035  1
  Cr  Cr31  1  0.99275359  0.33014519  0.66163223  1
  Cr  Cr32  1  0.16518235  0.49452910  0.82727693  1
  Cr  Cr33  1  0.16261893  0.82922074  0.49744207  1
  Ni  Ni34  1  0.99335732  0.66155414  0.65961865  1
  Cr  Cr35  1  0.16294029  0.82942218  0.82548385  1
  Ni  Ni36  1  0.49871096  0.16453498  0.49711532  1
  Ni  Ni37  1  0.33511755  -0.00307343  0.66058029  1
  Cr  Cr38  1  0.49616329  0.16516846  0.82710885  1
  Ni  Ni39  1  0.49714372  0.49170192  0.49683003  1
  Ni  Ni40  1  0.33370965  0.32823171  0.66056395  1
  Fe  Fe41  1  0.49670545  0.49293979  0.82840465  1
  Ni  Ni42  1  0.49840894  0.83027574  0.49874393  1
  Cr  Cr43  1  0.33190874  0.66109163  0.66203520  1
  Fe  Fe44  1  0.49689410  0.82988050  0.82718462  1
  Ni  Ni45  1  0.82474846  0.16370584  0.49618076  1
  Ni  Ni46  1  0.65919846  -0.00325175  0.65919366  1
  Cr  Cr47  1  0.82356037  0.16347576  0.82867994  1
  Fe  Fe48  1  0.82653807  0.49349856  0.49607753  1
  Ni  Ni49  1  0.65936327  0.32773342  0.65893792  1
  Cr  Cr50  1  0.82440948  0.49561734  0.82868705  1
  Ni  Ni51  1  0.82649146  0.82966134  0.49779849  1
  Cr  Cr52  1  0.66134478  0.66111784  0.66064758  1
  Cr  Cr53  1  0.82675970  0.82770785  0.82945282  1
" 