2739,Ni30Fe44Cr25_2,-228.639880529327, 193.58610878055,Ni30Fe44Cr25,"# generated using pymatgen
 data_Cr15Fe23Ni16
_symmetry_space_group_name_H-M   'P 1'
_cell_length_a   7.45604105
_cell_length_b   7.45604105
_cell_length_c   10.54443438
_cell_angle_alpha   90.00000000
_cell_angle_beta   90.00000000
_cell_angle_gamma   90.00000000
_symmetry_Int_Tables_number   1
_chemical_formula_structural   Cr15Fe23Ni16
_chemical_formula_sum   'Cr15 Fe23 Ni16'
_cell_volume   586.19197590
_cell_formula_units_Z   1
loop_
 _symmetry_equiv_pos_site_id
 _symmetry_equiv_pos_as_xyz
  1  'x, y, z'
loop_
 _atom_site_type_symbol
 _atom_site_label
 _atom_site_symmetry_multiplicity
 _atom_site_fract_x
 _atom_site_fract_y
 _atom_site_fract_z
 _atom_site_occupancy
  Ni  Ni0  1  0.00195874  0.00085706  1.00063904  1
  Fe  Fe1  1  0.16685036  0.16849390  0.16647933  1
  Fe  Fe2  1  1.00020018  0.00236547  0.33408516  1
  Ni  Ni3  1  0.99990907  0.33496985  0.99855933  1
  Ni  Ni4  1  0.16639620  0.49986320  0.16766905  1
  Ni  Ni5  1  0.00254548  0.33458483  0.33610285  1
  Fe  Fe6  1  0.99939501  0.66681549  0.00177898  1
  Fe  Fe7  1  0.16531997  0.83409851  0.16621869  1
  Cr  Cr8  1  0.00133737  0.66616104  0.33246396  1
  Ni  Ni9  1  0.33181928  0.00135100  0.00098287  1
  Fe  Fe10  1  0.49930926  0.16916508  0.16736934  1
  Cr  Cr11  1  0.33418439  0.00124692  0.33402142  1
  Cr  Cr12  1  0.33361010  0.33294722  0.00227034  1
  Fe  Fe13  1  0.50125044  0.50030515  0.16915047  1
  Ni  Ni14  1  0.33268133  0.33576376  0.33427803  1
  Cr  Cr15  1  0.33334589  0.66758803  0.00079724  1
  Cr  Cr16  1  0.50110111  0.83358286  0.16815443  1
  Ni  Ni17  1  0.33429284  0.66531687  0.33601316  1
  Cr  Cr18  1  0.66754346  1.00073143  0.99905802  1
  Cr  Cr19  1  0.83545143  0.16775530  0.16741528  1
  Ni  Ni20  1  0.66759534  1.00009386  0.33614769  1
  Fe  Fe21  1  0.66918630  0.33595218  0.00088943  1
  Ni  Ni22  1  0.83506627  0.50137907  0.16604550  1
  Cr  Cr23  1  0.66679440  0.33470552  0.33372147  1
  Fe  Fe24  1  0.66977118  0.66563285  0.00077448  1
  Fe  Fe25  1  0.83537364  0.83215573  0.16774503  1
  Ni  Ni26  1  0.66641753  0.66751523  0.33442674  1
  Fe  Fe27  1  0.16697543  0.17011133  0.50017692  1
  Cr  Cr28  1  0.99942896  0.00277125  0.66689833  1
  Ni  Ni29  1  0.16507427  0.16918686  0.83546250  1
  Ni  Ni30  1  0.17009273  0.49863196  0.50151938  1
  Fe  Fe31  1  0.00181368  0.33320060  0.66717950  1
  Fe  Fe32  1  0.16672721  0.49802150  0.83362669  1
  Fe  Fe33  1  0.16995096  0.83263386  0.50015915  1
  Cr  Cr34  1  0.00140328  0.66474261  0.66740750  1
  Cr  Cr35  1  0.16805527  0.83484613  0.83610252  1
  Fe  Fe36  1  0.50130715  0.16737413  0.50069790  1
  Cr  Cr37  1  0.33588846  1.00038307  0.66669281  1
  Cr  Cr38  1  0.50037293  0.16635998  0.83483915  1
  Ni  Ni39  1  0.49744815  0.50337143  0.50017617  1
  Fe  Fe40  1  0.33225949  0.33566987  0.66635364  1
  Fe  Fe41  1  0.50074598  0.50220746  0.83299148  1
  Ni  Ni42  1  0.50151144  0.83215512  0.50220346  1
  Fe  Fe43  1  0.33652677  0.66586430  0.66571871  1
  Fe  Fe44  1  0.50204168  0.83330457  0.83315415  1
  Ni  Ni45  1  0.83512354  0.16691347  0.50092560  1
  Ni  Ni46  1  0.66673058  0.99996681  0.66713070  1
  Fe  Fe47  1  0.83677501  0.16755445  0.83450223  1
  Fe  Fe48  1  0.83367636  0.49948409  0.49987892  1
  Cr  Cr49  1  0.66827334  0.33373465  0.66643063  1
  Fe  Fe50  1  0.83473984  0.50005467  0.83606617  1
  Cr  Cr51  1  0.83049144  0.83647694  0.49863574  1
  Fe  Fe52  1  0.66512304  0.66883378  0.66720846  1
  Fe  Fe53  1  0.83259364  0.83460495  0.83446152  1
" 