1785,Ni30Fe24Cr45_3,-221.654267587965, 173.9235270691,Ni30Fe24Cr45,"# generated using pymatgen
 data_Cr25Fe13Ni16
_symmetry_space_group_name_H-M   'P 1'
_cell_length_a   7.50061697
_cell_length_b   7.50061697
_cell_length_c   10.60747424
_cell_angle_alpha   90.00000000
_cell_angle_beta   90.00000000
_cell_angle_gamma   90.00000000
_symmetry_Int_Tables_number   1
_chemical_formula_structural   Cr25Fe13Ni16
_chemical_formula_sum   'Cr25 Fe13 Ni16'
_cell_volume   596.76859738
_cell_formula_units_Z   1
loop_
 _symmetry_equiv_pos_site_id
 _symmetry_equiv_pos_as_xyz
  1  'x, y, z'
loop_
 _atom_site_type_symbol
 _atom_site_label
 _atom_site_symmetry_multiplicity
 _atom_site_fract_x
 _atom_site_fract_y
 _atom_site_fract_z
 _atom_site_occupancy
  Cr  Cr0  1  -0.00183988  -0.00029567  0.99709564  1
  Cr  Cr1  1  0.16742345  0.16590076  0.16422864  1
  Fe  Fe2  1  0.00143414  -0.00136341  0.32942349  1
  Cr  Cr3  1  0.00102087  0.32865027  0.99568117  1
  Ni  Ni4  1  0.16567964  0.49772446  0.16653445  1
  Fe  Fe5  1  0.00135025  0.33176354  0.33106975  1
  Cr  Cr6  1  -0.00119757  0.66586676  0.00083083  1
  Fe  Fe7  1  0.16691101  0.83176371  0.16739152  1
  Fe  Fe8  1  0.00126017  0.66354579  0.32969633  1
  Fe  Fe9  1  0.33399847  0.99775240  -0.00069248  1
  Ni  Ni10  1  0.49783975  0.16134677  0.16549483  1
  Ni  Ni11  1  0.32991394  -0.00128761  0.32960240  1
  Ni  Ni12  1  0.33220432  0.32863307  0.00095448  1
  Fe  Fe13  1  0.49526266  0.49542772  0.16581192  1
  Ni  Ni14  1  0.33017509  0.32992796  0.32878331  1
  Cr  Cr15  1  0.33486322  0.66382300  0.00317323  1
  Ni  Ni16  1  0.49835028  0.83503936  0.16376737  1
  Ni  Ni17  1  0.33171217  0.66478999  0.32721816  1
  Fe  Fe18  1  0.66127822  0.99743943  -0.00080118  1
  Fe  Fe19  1  0.82925466  0.16264618  0.16628943  1
  Fe  Fe20  1  0.65982464  -0.00212968  0.32823849  1
  Cr  Cr21  1  0.66280340  0.33156248  -0.00045103  1
  Cr  Cr22  1  0.83343723  0.49769795  0.16470062  1
  Fe  Fe23  1  0.66064438  0.33086364  0.32824186  1
  Ni  Ni24  1  0.66159075  0.66852500  -0.00021853  1
  Fe  Fe25  1  0.82924541  0.83411345  0.16533746  1
  Cr  Cr26  1  0.66139235  0.66451412  0.33079533  1
  Ni  Ni27  1  0.16600473  0.16488483  0.49687373  1
  Cr  Cr28  1  -0.00097948  0.00040015  0.66463651  1
  Fe  Fe29  1  0.16810106  0.16403132  0.83105383  1
  Cr  Cr30  1  0.16524965  0.49835104  0.49699802  1
  Cr  Cr31  1  0.99754665  0.32805772  0.66552502  1
  Cr  Cr32  1  0.16636502  0.49795410  0.83121095  1
  Cr  Cr33  1  0.16657482  0.83221072  0.49677000  1
  Ni  Ni34  1  -0.00189666  0.66300586  0.66177865  1
  Cr  Cr35  1  0.16783863  0.83048184  0.82919151  1
  Cr  Cr36  1  0.49392558  0.16413200  0.49620879  1
  Ni  Ni37  1  0.33021445  0.00018058  0.66546913  1
  Cr  Cr38  1  0.49601136  0.16320365  0.83143314  1
  Cr  Cr39  1  0.49655979  0.49442599  0.49803046  1
  Ni  Ni40  1  0.32912467  0.32878626  0.66418525  1
  Cr  Cr41  1  0.49593426  0.49771856  0.83146873  1
  Cr  Cr42  1  0.49384916  0.83385390  0.49947422  1
  Ni  Ni43  1  0.33161546  0.66468962  0.66456851  1
  Ni  Ni44  1  0.49568525  0.83343075  0.83239287  1
  Cr  Cr45  1  0.82878040  0.16605719  0.49197682  1
  Cr  Cr46  1  0.66450945  -0.00205714  0.66494728  1
  Ni  Ni47  1  0.82862356  0.16384381  0.83329808  1
  Ni  Ni48  1  0.83267872  0.49577625  0.49735437  1
  Fe  Fe49  1  0.66350658  0.32972594  0.66419451  1
  Cr  Cr50  1  0.83119767  0.49813555  0.82963694  1
  Cr  Cr51  1  0.83394529  0.82942705  0.49500805  1
  Cr  Cr52  1  0.66267703  0.66400716  0.66420400  1
  Cr  Cr53  1  0.82968414  0.83020413  0.83307341  1
" 