4107,Ni30Fe41Cr28_5,-227.996721557812, 183.498212358556,Ni30Fe41Cr28,"# generated using pymatgen
 data_Cr8Fe11Ni8
_symmetry_space_group_name_H-M   'P 1'
_cell_length_a   7.47258727
_cell_length_b   7.47258727
_cell_length_c   10.56783427
_cell_angle_alpha   90.00000000
_cell_angle_beta   90.00000000
_cell_angle_gamma   90.00000000
_symmetry_Int_Tables_number   1
_chemical_formula_structural   Cr8Fe11Ni8
_chemical_formula_sum   'Cr16 Fe22 Ni16'
_cell_volume   590.10322188
_cell_formula_units_Z   2
loop_
 _symmetry_equiv_pos_site_id
 _symmetry_equiv_pos_as_xyz
  1  'x, y, z'
loop_
 _atom_site_type_symbol
 _atom_site_label
 _atom_site_symmetry_multiplicity
 _atom_site_fract_x
 _atom_site_fract_y
 _atom_site_fract_z
 _atom_site_occupancy
  Cr  Cr0  1  0.99822147  0.99790573  0.00080354  1
  Fe  Fe1  1  0.16766888  0.16429105  0.16741464  1
  Fe  Fe2  1  0.00168664  0.99802197  0.33243122  1
  Cr  Cr3  1  0.99757612  0.33360061  0.00015862  1
  Cr  Cr4  1  0.16731127  0.50150363  0.16646011  1
  Cr  Cr5  1  0.00115402  0.33246162  0.33311565  1
  Ni  Ni6  1  0.99951417  0.66862589  0.99860890  1
  Ni  Ni7  1  0.16630444  0.83477838  0.16691875  1
  Ni  Ni8  1  0.00122333  0.66823553  0.33311074  1
  Fe  Fe9  1  0.33361018  0.99701473  0.00028046  1
  Fe  Fe10  1  0.49840153  0.16482031  0.16602650  1
  Fe  Fe11  1  0.33171707  0.99879897  0.33278629  1
  Cr  Cr12  1  0.33453780  0.33352811  -0.00035215  1
  Cr  Cr13  1  0.49944227  0.50030247  0.16676091  1
  Ni  Ni14  1  0.33240987  0.33246408  0.33420842  1
  Ni  Ni15  1  0.33382292  0.66917419  0.99898486  1
  Fe  Fe16  1  0.49825814  0.83247387  0.16606527  1
  Ni  Ni17  1  0.33266795  0.66721250  0.33396315  1
  Fe  Fe18  1  0.66547107  0.99882810  0.99948229  1
  Fe  Fe19  1  0.83278736  0.16461678  0.16583161  1
  Cr  Cr20  1  0.66624022  0.99850273  0.33209226  1
  Fe  Fe21  1  0.66643743  0.33315886  0.99778823  1
  Cr  Cr22  1  0.83213380  0.50228352  0.16622785  1
  Cr  Cr23  1  0.66541322  0.33312832  0.33440779  1
  Fe  Fe24  1  0.66672950  0.66691521  0.99769999  1
  Fe  Fe25  1  0.83378507  0.83192632  0.16635611  1
  Ni  Ni26  1  0.66497454  0.66789334  0.33325532  1
  Fe  Fe27  1  0.16579476  0.16686637  0.49967042  1
  Ni  Ni28  1  0.99889302  0.00052217  0.66623691  1
  Cr  Cr29  1  0.16620393  0.16457968  0.83173153  1
  Ni  Ni30  1  0.16713929  0.49913874  0.49841962  1
  Ni  Ni31  1  0.99646141  0.33215579  0.66535169  1
  Cr  Cr32  1  0.16547984  0.50109122  0.83364961  1
  Fe  Fe33  1  0.16648760  0.83176353  0.49789310  1
  Fe  Fe34  1  0.99750168  0.66579574  0.66660849  1
  Fe  Fe35  1  0.16492814  0.83139386  0.83427719  1
  Fe  Fe36  1  0.49880150  0.16809046  0.49910021  1
  Cr  Cr37  1  0.33246991  0.99787492  0.66634865  1
  Fe  Fe38  1  0.50270109  0.16725850  0.83381668  1
  Ni  Ni39  1  0.49944725  0.49938386  0.49866313  1
  Cr  Cr40  1  0.33388004  0.33438258  0.66497292  1
  Ni  Ni41  1  0.50334581  0.49991591  0.83353561  1
  Fe  Fe42  1  0.49854035  0.83014628  0.49832780  1
  Cr  Cr43  1  0.33404666  0.66654569  0.66626420  1
  Fe  Fe44  1  0.50088682  0.83092643  0.83453338  1
  Fe  Fe45  1  0.83426689  0.16837905  0.50147911  1
  Cr  Cr46  1  0.66715896  -0.00018688  0.66740834  1
  Fe  Fe47  1  0.83146049  0.16767575  0.83164906  1
  Fe  Fe48  1  0.83270453  0.49994818  0.50114404  1
  Ni  Ni49  1  0.66864330  0.33439325  0.66694930  1
  Ni  Ni50  1  0.83006254  0.50126170  0.83137161  1
  Cr  Cr51  1  0.83380346  0.83202716  0.49906318  1
  Ni  Ni52  1  0.66673415  0.66424680  0.66715296  1
  Ni  Ni53  1  0.83264035  0.83194049  0.83347793  1
" 