1135,Ni30Fe63Cr6_10,-234.689000701074, 203.26250916375,Ni30Fe63Cr6,"# generated using pymatgen
 data_Cr2Fe17Ni8
_symmetry_space_group_name_H-M   'P 1'
_cell_length_a   7.41466770
_cell_length_b   7.41466770
_cell_length_c   10.48592362
_cell_angle_alpha   90.00000000
_cell_angle_beta   90.00000000
_cell_angle_gamma   90.00000000
_symmetry_Int_Tables_number   1
_chemical_formula_structural   Cr2Fe17Ni8
_chemical_formula_sum   'Cr4 Fe34 Ni16'
_cell_volume   576.48773818
_cell_formula_units_Z   2
loop_
 _symmetry_equiv_pos_site_id
 _symmetry_equiv_pos_as_xyz
  1  'x, y, z'
loop_
 _atom_site_type_symbol
 _atom_site_label
 _atom_site_symmetry_multiplicity
 _atom_site_fract_x
 _atom_site_fract_y
 _atom_site_fract_z
 _atom_site_occupancy
  Fe  Fe0  1  0.00372385  1.00300458  1.00322532  1
  Ni  Ni1  1  0.17130320  0.17056231  0.17160366  1
  Fe  Fe2  1  0.00407208  0.00411357  0.33710039  1
  Fe  Fe3  1  1.00331113  0.33781908  0.00610722  1
  Ni  Ni4  1  0.16861001  0.50403790  0.16970484  1
  Ni  Ni5  1  1.00293679  0.33645811  0.33622833  1
  Fe  Fe6  1  0.00364501  0.66949021  1.00296989  1
  Fe  Fe7  1  0.17008828  0.83709546  0.16950273  1
  Fe  Fe8  1  0.00370187  0.67094280  0.33642474  1
  Fe  Fe9  1  0.33814806  1.00293206  0.00372288  1
  Ni  Ni10  1  0.50387807  0.16888033  0.16974656  1
  Ni  Ni11  1  0.33620341  1.00274810  0.33527221  1
  Ni  Ni12  1  0.33676003  0.33589009  0.00502663  1
  Fe  Fe13  1  0.50333353  0.50241080  0.16954909  1
  Fe  Fe14  1  0.33604707  0.33634719  0.33424281  1
  Fe  Fe15  1  0.33743577  0.66979832  1.00322302  1
  Fe  Fe16  1  0.50317693  0.83612024  0.16970296  1
  Fe  Fe17  1  0.33619818  0.67029342  0.33573162  1
  Fe  Fe18  1  0.66924861  0.00354329  1.00317508  1
  Fe  Fe19  1  0.83779709  0.17181474  0.17041839  1
  Fe  Fe20  1  0.67069020  0.00356003  0.33552452  1
  Fe  Fe21  1  0.66950370  0.33723110  1.00341587  1
  Ni  Ni22  1  0.83743275  0.50534328  0.17124431  1
  Fe  Fe23  1  0.67042377  0.33647320  0.33626711  1
  Ni  Ni24  1  0.67069132  0.67025182  0.00407159  1
  Fe  Fe25  1  0.83733658  0.83718044  0.16893744  1
  Fe  Fe26  1  0.67037639  0.67046324  0.33598296  1
  Fe  Fe27  1  0.16899178  0.16826254  0.50250797  1
  Ni  Ni28  1  0.00485846  1.00267794  0.66880816  1
  Cr  Cr29  1  0.17127985  0.17099957  0.83571284  1
  Cr  Cr30  1  0.16922639  0.50351289  0.50477290  1
  Fe  Fe31  1  1.00086036  0.33667672  0.66950657  1
  Fe  Fe32  1  0.17097316  0.50549248  0.83773185  1
  Fe  Fe33  1  0.17092987  0.83885404  0.50434221  1
  Ni  Ni34  1  1.00265891  0.67127174  0.67145040  1
  Ni  Ni35  1  0.16931673  0.83539372  0.83651714  1
  Cr  Cr36  1  0.50295191  0.16924236  0.50480835  1
  Ni  Ni37  1  0.33594055  1.00268226  0.67087082  1
  Ni  Ni38  1  0.50476163  0.17015782  0.83657333  1
  Fe  Fe39  1  0.50424792  0.50368375  0.50261416  1
  Fe  Fe40  1  0.33813830  0.33809087  0.67194065  1
  Fe  Fe41  1  0.50256234  0.50378469  0.83858527  1
  Fe  Fe42  1  0.50144439  0.83601028  0.50264445  1
  Fe  Fe43  1  0.33585199  0.67196045  0.67151507  1
  Ni  Ni44  1  0.50394604  0.83854614  0.83665133  1
  Fe  Fe45  1  0.83861255  0.17109603  0.50395958  1
  Fe  Fe46  1  0.67200175  0.00385282  0.67169847  1
  Fe  Fe47  1  0.83611504  0.16773382  0.83612032  1
  Fe  Fe48  1  0.83560257  0.50211369  0.50200950  1
  Ni  Ni49  1  0.67051695  0.33772043  0.67176137  1
  Fe  Fe50  1  0.83731306  0.50337914  0.83857628  1
  Fe  Fe51  1  0.83815007  0.83757119  0.50354529  1
  Cr  Cr52  1  0.67022568  0.66912127  0.67011020  1
  Ni  Ni53  1  0.83718589  0.83604344  0.83728120  1
" 