770,Ni30Fe44Cr25_5,-228.588286516739, 190.298402686367,Ni30Fe44Cr25,"# generated using pymatgen
 data_Cr15Fe23Ni16
_symmetry_space_group_name_H-M   'P 1'
_cell_length_a   7.45587999
_cell_length_b   7.45587999
_cell_length_c   10.54420660
_cell_angle_alpha   90.00000000
_cell_angle_beta   90.00000000
_cell_angle_gamma   90.00000000
_symmetry_Int_Tables_number   1
_chemical_formula_structural   Cr15Fe23Ni16
_chemical_formula_sum   'Cr15 Fe23 Ni16'
_cell_volume   586.15398916
_cell_formula_units_Z   1
loop_
 _symmetry_equiv_pos_site_id
 _symmetry_equiv_pos_as_xyz
  1  'x, y, z'
loop_
 _atom_site_type_symbol
 _atom_site_label
 _atom_site_symmetry_multiplicity
 _atom_site_fract_x
 _atom_site_fract_y
 _atom_site_fract_z
 _atom_site_occupancy
  Cr  Cr0  1  0.00233742  0.99865707  0.00089377  1
  Ni  Ni1  1  0.17028623  0.16761433  0.16776376  1
  Cr  Cr2  1  0.00109183  0.99745845  0.33297355  1
  Cr  Cr3  1  0.00213653  0.33577071  0.99968180  1
  Fe  Fe4  1  0.16634685  0.50102548  0.16958226  1
  Ni  Ni5  1  0.00172397  0.33780571  0.33412927  1
  Ni  Ni6  1  1.00000311  0.66654256  0.00125261  1
  Ni  Ni7  1  0.16879218  0.83259534  0.16679857  1
  Ni  Ni8  1  0.00086960  0.66601802  0.33378470  1
  Ni  Ni9  1  0.33413570  0.00144787  0.00251807  1
  Ni  Ni10  1  0.49839182  0.16742808  0.16749410  1
  Fe  Fe11  1  0.33342741  0.99877243  0.33133342  1
  Fe  Fe12  1  0.33324324  0.33214586  0.00178936  1
  Fe  Fe13  1  0.50115696  0.49980977  0.16787008  1
  Fe  Fe14  1  0.33266511  0.33614742  0.33299325  1
  Cr  Cr15  1  0.33298188  0.66759925  0.00190310  1
  Ni  Ni16  1  0.49971142  0.83331298  0.16809385  1
  Fe  Fe17  1  0.33148840  0.66743871  0.33330989  1
  Cr  Cr18  1  0.66639333  0.99955404  0.00289246  1
  Cr  Cr19  1  0.83517590  0.17208306  0.16893698  1
  Fe  Fe20  1  0.66651132  0.99885076  0.33187111  1
  Fe  Fe21  1  0.66673360  0.33630120  0.00182255  1
  Ni  Ni22  1  0.83421411  0.50341072  0.16674216  1
  Fe  Fe23  1  0.66822013  0.33792419  0.33369849  1
  Fe  Fe24  1  0.67006960  0.66729953  0.00218450  1
  Fe  Fe25  1  0.83450770  0.83100032  0.16798435  1
  Fe  Fe26  1  0.66946403  0.66634023  0.33372413  1
  Cr  Cr27  1  0.16692958  0.16615770  0.49874231  1
  Fe  Fe28  1  1.00031784  0.99850827  0.66869290  1
  Ni  Ni29  1  0.16660991  0.16512391  0.83453932  1
  Ni  Ni30  1  0.16464846  0.50470707  0.49943658  1
  Cr  Cr31  1  0.00081079  0.33606022  0.66762373  1
  Fe  Fe32  1  0.16650928  0.50299813  0.83329833  1
  Ni  Ni33  1  0.16742877  0.83059907  0.50283448  1
  Ni  Ni34  1  1.00014571  0.66919363  0.66735047  1
  Fe  Fe35  1  0.16641985  0.83370586  0.83346075  1
  Cr  Cr36  1  0.50163612  0.16630354  0.50025321  1
  Fe  Fe37  1  0.33076906  0.99899537  0.66865752  1
  Cr  Cr38  1  0.49984396  0.16702984  0.83455753  1
  Fe  Fe39  1  0.50129612  0.50167144  0.50084636  1
  Cr  Cr40  1  0.33359894  0.33592955  0.66656023  1
  Cr  Cr41  1  0.50379170  0.50216502  0.83430219  1
  Cr  Cr42  1  0.49962517  0.83316120  0.50194951  1
  Fe  Fe43  1  0.33186072  0.66617611  0.66673088  1
  Cr  Cr44  1  0.49992302  0.83288948  0.83265525  1
  Cr  Cr45  1  0.83365333  0.16975130  0.50089562  1
  Fe  Fe46  1  0.67095476  0.99985963  0.66832235  1
  Fe  Fe47  1  0.83345026  0.16734708  0.83259520  1
  Ni  Ni48  1  0.83423326  0.50262380  0.50112312  1
  Ni  Ni49  1  0.66764075  0.33580134  0.66717841  1
  Fe  Fe50  1  0.83464317  0.50305196  0.83333163  1
  Fe  Fe51  1  0.83652962  0.83125779  0.50147968  1
  Ni  Ni52  1  0.66948152  0.66702186  0.66620636  1
  Fe  Fe53  1  0.83561029  0.83199707  0.83279528  1
" 