2635,Ni30Fe24Cr45_6,-221.802198544672, 174.738954665228,Ni30Fe24Cr45,"# generated using pymatgen
 data_Cr25Fe13Ni16
_symmetry_space_group_name_H-M   'P 1'
_cell_length_a   7.50076325
_cell_length_b   7.50076325
_cell_length_c   10.60768111
_cell_angle_alpha   90.00000000
_cell_angle_beta   90.00000000
_cell_angle_gamma   90.00000000
_symmetry_Int_Tables_number   1
_chemical_formula_structural   Cr25Fe13Ni16
_chemical_formula_sum   'Cr25 Fe13 Ni16'
_cell_volume   596.80351296
_cell_formula_units_Z   1
loop_
 _symmetry_equiv_pos_site_id
 _symmetry_equiv_pos_as_xyz
  1  'x, y, z'
loop_
 _atom_site_type_symbol
 _atom_site_label
 _atom_site_symmetry_multiplicity
 _atom_site_fract_x
 _atom_site_fract_y
 _atom_site_fract_z
 _atom_site_occupancy
  Ni  Ni0  1  0.99626940  0.99650976  0.99602708  1
  Ni  Ni1  1  0.16310899  0.16117339  0.16601008  1
  Ni  Ni2  1  -0.00070632  0.99731359  0.33023417  1
  Cr  Cr3  1  -0.00165395  0.32917027  0.00115801  1
  Ni  Ni4  1  0.16510350  0.49872442  0.16372259  1
  Fe  Fe5  1  -0.00078117  0.33105874  0.32991181  1
  Ni  Ni6  1  0.99700376  0.66779712  -0.00043936  1
  Fe  Fe7  1  0.16393902  0.83450125  0.16373942  1
  Cr  Cr8  1  -0.00145566  0.66223875  0.32877953  1
  Fe  Fe9  1  0.32728127  0.99661763  -0.00208640  1
  Cr  Cr10  1  0.49755622  0.16322260  0.16422849  1
  Ni  Ni11  1  0.32982905  0.99685153  0.32801732  1
  Cr  Cr12  1  0.33158216  0.32784905  0.99766767  1
  Ni  Ni13  1  0.49956730  0.49905267  0.16287483  1
  Cr  Cr14  1  0.32882684  0.33284386  0.32926198  1
  Cr  Cr15  1  0.32928288  0.66598168  0.00045707  1
  Fe  Fe16  1  0.49664694  0.83206944  0.16422693  1
  Cr  Cr17  1  0.33058076  0.66575514  0.33174088  1
  Fe  Fe18  1  0.66567773  0.99729277  0.99643585  1
  Cr  Cr19  1  0.83146086  0.16096795  0.16866452  1
  Ni  Ni20  1  0.66304198  0.99637415  0.33073356  1
  Fe  Fe21  1  0.66666569  0.32917256  -0.00177891  1
  Fe  Fe22  1  0.83070803  0.49676662  0.16275036  1
  Fe  Fe23  1  0.66426086  0.33267738  0.33037575  1
  Fe  Fe24  1  0.66504449  0.66585238  -0.00100458  1
  Cr  Cr25  1  0.83142109  0.83148603  0.16222814  1
  Cr  Cr26  1  0.66428755  0.66430962  0.33237960  1
  Cr  Cr27  1  0.16309287  0.16219222  0.49700166  1
  Fe  Fe28  1  -0.00178997  0.99772753  0.66593656  1
  Cr  Cr29  1  0.16273560  0.16339394  0.82933805  1
  Ni  Ni30  1  0.16435682  0.49862969  0.49878994  1
  Ni  Ni31  1  0.99532572  0.33011612  0.66264397  1
  Cr  Cr32  1  0.16367914  0.50149034  0.82934291  1
  Ni  Ni33  1  0.16284952  0.83119786  0.49498620  1
  Cr  Cr34  1  -0.00201892  0.66692796  0.66445210  1
  Ni  Ni35  1  0.16297837  0.83297966  0.83345747  1
  Cr  Cr36  1  0.49794388  0.16431650  0.49424017  1
  Cr  Cr37  1  0.33291724  0.99546890  0.66613459  1
  Ni  Ni38  1  0.50169311  0.16007100  0.83555413  1
  Ni  Ni39  1  0.49790217  0.49847092  0.49721803  1
  Cr  Cr40  1  0.33122900  0.33008508  0.66559509  1
  Cr  Cr41  1  0.49813918  0.49882479  0.83221428  1
  Fe  Fe42  1  0.49521518  0.83368649  0.49531932  1
  Cr  Cr43  1  0.33116377  0.66761607  0.66020216  1
  Ni  Ni44  1  0.49792192  0.83256060  0.83501468  1
  Cr  Cr45  1  0.83211705  0.16276447  0.49395259  1
  Cr  Cr46  1  0.66548945  0.99727326  0.66799379  1
  Ni  Ni47  1  0.83126859  0.16127150  0.83189705  1
  Fe  Fe48  1  0.83362325  0.49601549  0.49754028  1
  Cr  Cr49  1  0.66580105  0.32856006  0.66506645  1
  Cr  Cr50  1  0.83194446  0.49895821  0.83367983  1
  Cr  Cr51  1  0.83290497  0.83404460  0.49761236  1
  Cr  Cr52  1  0.66377047  0.66783272  0.66247507  1
  Fe  Fe53  1  0.83183289  0.83252972  0.83466094  1
" 