4614,Ni30Fe9Cr59_0,-215.24291168982, 151.764481077671,Ni30Fe9Cr59,"# generated using pymatgen
 data_Cr33Fe5Ni16
_symmetry_space_group_name_H-M   'P 1'
_cell_length_a   7.53939713
_cell_length_b   7.53939713
_cell_length_c   10.66231768
_cell_angle_alpha   90.00000000
_cell_angle_beta   90.00000000
_cell_angle_gamma   90.00000000
_symmetry_Int_Tables_number   1
_chemical_formula_structural   Cr33Fe5Ni16
_chemical_formula_sum   'Cr33 Fe5 Ni16'
_cell_volume   606.07288977
_cell_formula_units_Z   1
loop_
 _symmetry_equiv_pos_site_id
 _symmetry_equiv_pos_as_xyz
  1  'x, y, z'
loop_
 _atom_site_type_symbol
 _atom_site_label
 _atom_site_symmetry_multiplicity
 _atom_site_fract_x
 _atom_site_fract_y
 _atom_site_fract_z
 _atom_site_occupancy
  Fe  Fe0  1  -0.00364510  -0.00446338  -0.00171423  1
  Ni  Ni1  1  0.15985796  0.16384861  0.15922326  1
  Ni  Ni2  1  0.99268302  -0.00334568  0.32374067  1
  Fe  Fe3  1  -0.00386239  0.32716840  -0.00162050  1
  Ni  Ni4  1  0.15973941  0.49160162  0.15910592  1
  Cr  Cr5  1  -0.00429367  0.32945542  0.32638310  1
  Cr  Cr6  1  -0.00477615  0.66064068  -0.00366166  1
  Cr  Cr7  1  0.16186254  0.83119494  0.16339818  1
  Cr  Cr8  1  0.99443114  0.65916491  0.32790730  1
  Ni  Ni9  1  0.32598456  -0.00206422  -0.00246953  1
  Ni  Ni10  1  0.49467897  0.16098614  0.16041054  1
  Cr  Cr11  1  0.33190156  -0.00051846  0.32696271  1
  Ni  Ni12  1  0.32440903  0.32520392  -0.00158365  1
  Cr  Cr13  1  0.49270580  0.49510662  0.15948670  1
  Cr  Cr14  1  0.32738649  0.32661894  0.32657784  1
  Cr  Cr15  1  0.32580411  0.66257675  0.99473896  1
  Ni  Ni16  1  0.49702127  0.83283655  0.16170843  1
  Cr  Cr17  1  0.32610354  0.65941755  0.32752466  1
  Cr  Cr18  1  0.66088987  -0.00392666  -0.00335841  1
  Ni  Ni19  1  0.83088880  0.15969957  0.16155560  1
  Ni  Ni20  1  0.66349726  -0.00259278  0.32486540  1
  Cr  Cr21  1  0.66231401  0.32561681  -0.00150589  1
  Fe  Fe22  1  0.83050910  0.49240793  0.16152548  1
  Cr  Cr23  1  0.66206389  0.32464786  0.32777835  1
  Cr  Cr24  1  0.66512325  0.66399438  -0.00016411  1
  Ni  Ni25  1  0.82957683  0.83304047  0.16322991  1
  Cr  Cr26  1  0.66498331  0.66287054  0.32225605  1
  Cr  Cr27  1  0.15858410  0.16053301  0.49237103  1
  Cr  Cr28  1  -0.00304517  0.99501369  0.66427218  1
  Cr  Cr29  1  0.15970317  0.16134819  0.83421027  1
  Fe  Fe30  1  0.16085061  0.49364211  0.49536095  1
  Ni  Ni31  1  -0.00446737  0.33224219  0.66225763  1
  Fe  Fe32  1  0.16193337  0.49348057  0.83030046  1
  Cr  Cr33  1  0.16160847  0.82891465  0.49326705  1
  Cr  Cr34  1  -0.00241626  0.65984469  0.66193559  1
  Ni  Ni35  1  0.16267083  0.82817598  0.83060396  1
  Ni  Ni36  1  0.49695122  0.16384639  0.49471525  1
  Cr  Cr37  1  0.32887597  0.99410370  0.66257051  1
  Cr  Cr38  1  0.49428114  0.16545780  0.82905432  1
  Cr  Cr39  1  0.49679002  0.49544486  0.49683948  1
  Cr  Cr40  1  0.32644303  0.32697771  0.65938524  1
  Cr  Cr41  1  0.49446247  0.49383389  0.82926785  1
  Cr  Cr42  1  0.49487161  0.82733916  0.49309547  1
  Ni  Ni43  1  0.32346586  0.65922940  0.66417448  1
  Cr  Cr44  1  0.49223998  0.82641360  0.82978029  1
  Cr  Cr45  1  0.83012289  0.16282258  0.49690716  1
  Cr  Cr46  1  0.65994062  -0.00126216  0.66161572  1
  Cr  Cr47  1  0.83177804  0.16434377  0.82703602  1
  Ni  Ni48  1  0.82975351  0.49299770  0.49639112  1
  Ni  Ni49  1  0.66428196  0.32951943  0.65967595  1
  Cr  Cr50  1  0.82781959  0.49218919  0.82905541  1
  Cr  Cr51  1  0.82979001  0.83012916  0.49108737  1
  Cr  Cr52  1  0.66352045  0.66267860  0.66344739  1
  Cr  Cr53  1  0.83225422  0.83045548  0.82992353  1
" 