6121,Ni30Fe24Cr45_9,-221.988925846089, 179.599946495145,Ni30Fe24Cr45,"# generated using pymatgen
 data_Cr25Fe13Ni16
_symmetry_space_group_name_H-M   'P 1'
_cell_length_a   7.49513124
_cell_length_b   7.49513124
_cell_length_c   10.59971625
_cell_angle_alpha   90.00000000
_cell_angle_beta   90.00000000
_cell_angle_gamma   90.00000000
_symmetry_Int_Tables_number   1
_chemical_formula_structural   Cr25Fe13Ni16
_chemical_formula_sum   'Cr25 Fe13 Ni16'
_cell_volume   595.46017777
_cell_formula_units_Z   1
loop_
 _symmetry_equiv_pos_site_id
 _symmetry_equiv_pos_as_xyz
  1  'x, y, z'
loop_
 _atom_site_type_symbol
 _atom_site_label
 _atom_site_symmetry_multiplicity
 _atom_site_fract_x
 _atom_site_fract_y
 _atom_site_fract_z
 _atom_site_occupancy
  Cr  Cr0  1  0.99810460  -0.00139721  -0.00097021  1
  Cr  Cr1  1  0.16788752  0.16872449  0.16621236  1
  Cr  Cr2  1  0.99702435  -0.00075214  0.32853247  1
  Cr  Cr3  1  -0.00159617  0.33308082  0.99694510  1
  Ni  Ni4  1  0.16150080  0.49788796  0.16546247  1
  Ni  Ni5  1  0.99791208  0.33495194  0.33251931  1
  Ni  Ni6  1  -0.00173158  0.66283712  0.00230272  1
  Fe  Fe7  1  0.16336730  0.82796556  0.16507138  1
  Fe  Fe8  1  0.99664285  0.66137016  0.33105597  1
  Cr  Cr9  1  0.33061594  0.99771284  -0.00091411  1
  Ni  Ni10  1  0.49859398  0.16641341  0.16534044  1
  Cr  Cr11  1  0.33313015  0.99731174  0.33209302  1
  Fe  Fe12  1  0.32971736  0.33321400  0.99767067  1
  Cr  Cr13  1  0.49849830  0.49648419  0.16324650  1
  Fe  Fe14  1  0.33171153  0.33396049  0.33284077  1
  Cr  Cr15  1  0.32934662  0.66324964  0.99376269  1
  Cr  Cr16  1  0.50042988  0.82975938  0.16463464  1
  Cr  Cr17  1  0.33021158  0.66289155  0.33564592  1
  Cr  Cr18  1  0.66598339  -0.00172926  -0.00022867  1
  Ni  Ni19  1  0.83207057  0.16736722  0.16512628  1
  Cr  Cr20  1  0.66447421  -0.00120719  0.33164436  1
  Cr  Cr21  1  0.66711691  0.33245802  -0.00160389  1
  Ni  Ni22  1  0.83353184  0.50068779  0.16659565  1
  Cr  Cr23  1  0.66730104  0.33268555  0.33289235  1
  Ni  Ni24  1  0.66576285  0.66340995  -0.00184639  1
  Fe  Fe25  1  0.83191625  0.82801550  0.16501657  1
  Ni  Ni26  1  0.66546697  0.66251178  0.33240640  1
  Cr  Cr27  1  0.16397036  0.16731602  0.49771937  1
  Fe  Fe28  1  0.99645738  0.00037284  0.66559039  1
  Ni  Ni29  1  0.16347811  0.16747559  0.83031743  1
  Ni  Ni30  1  0.16241368  0.49709451  0.49892712  1
  Fe  Fe31  1  0.99650278  0.33230104  0.66427528  1
  Fe  Fe32  1  0.16394075  0.49865845  0.83030546  1
  Cr  Cr33  1  0.16260969  0.83026920  0.49959802  1
  Ni  Ni34  1  0.00049914  0.66084729  0.66313659  1
  Cr  Cr35  1  0.16261498  0.83168212  0.82850975  1
  Ni  Ni36  1  0.49869487  0.16753335  0.49690364  1
  Cr  Cr37  1  0.33264181  0.99578640  0.66345338  1
  Cr  Cr38  1  0.49682654  0.16671708  0.83397323  1
  Ni  Ni39  1  0.49874081  0.49702960  0.49908105  1
  Cr  Cr40  1  0.33202387  0.33447491  0.66507032  1
  Fe  Fe41  1  0.49814005  0.49901812  0.83073293  1
  Ni  Ni42  1  0.50004349  0.82961371  0.49879007  1
  Fe  Fe43  1  0.33192662  0.66262128  0.66351897  1
  Ni  Ni44  1  0.49879769  0.82918564  0.83049998  1
  Fe  Fe45  1  0.83153977  0.16776642  0.49815962  1
  Cr  Cr46  1  0.66441083  0.00078955  0.66352745  1
  Fe  Fe47  1  0.83274639  0.16488627  0.82957543  1
  Fe  Fe48  1  0.83209634  0.49719162  0.49829912  1
  Ni  Ni49  1  0.66670329  0.33140798  0.66282161  1
  Cr  Cr50  1  0.83117209  0.49937968  0.83057987  1
  Cr  Cr51  1  0.83181501  0.82870136  0.49750564  1
  Cr  Cr52  1  0.66204584  0.66229060  0.66352324  1
  Cr  Cr53  1  0.83098996  0.82855736  0.83298356  1
" 