2533,Ni30Fe41Cr28_17,-227.405397807631, 185.589264250494,Ni30Fe41Cr28,"# generated using pymatgen
 data_Cr8Fe11Ni8
_symmetry_space_group_name_H-M   'P 1'
_cell_length_a   7.45974962
_cell_length_b   7.45974962
_cell_length_c   10.54967908
_cell_angle_alpha   90.00000000
_cell_angle_beta   90.00000000
_cell_angle_gamma   90.00000000
_symmetry_Int_Tables_number   1
_chemical_formula_structural   Cr8Fe11Ni8
_chemical_formula_sum   'Cr16 Fe22 Ni16'
_cell_volume   587.06711034
_cell_formula_units_Z   2
loop_
 _symmetry_equiv_pos_site_id
 _symmetry_equiv_pos_as_xyz
  1  'x, y, z'
loop_
 _atom_site_type_symbol
 _atom_site_label
 _atom_site_symmetry_multiplicity
 _atom_site_fract_x
 _atom_site_fract_y
 _atom_site_fract_z
 _atom_site_occupancy
  Ni  Ni0  1  0.00080569  0.00057429  0.99948993  1
  Fe  Fe1  1  0.16617057  0.16664231  0.16665395  1
  Cr  Cr2  1  0.00078581  0.00152228  0.33388803  1
  Fe  Fe3  1  0.99829313  0.33277161  0.99876799  1
  Cr  Cr4  1  0.16600641  0.50055670  0.16849775  1
  Ni  Ni5  1  1.00002434  0.33508184  0.33358002  1
  Cr  Cr6  1  0.99856127  0.66694801  0.99993240  1
  Fe  Fe7  1  0.16687481  0.83506811  0.16735941  1
  Ni  Ni8  1  0.99680409  0.66588358  0.33293007  1
  Fe  Fe9  1  0.33127944  1.00019524  0.00134868  1
  Cr  Cr10  1  0.50124826  0.16660381  0.16743308  1
  Ni  Ni11  1  0.33675507  0.00193317  0.33288137  1
  Cr  Cr12  1  0.33277512  0.33286891  0.99776066  1
  Cr  Cr13  1  0.50197408  0.49956581  0.16736612  1
  Ni  Ni14  1  0.33318583  0.33025588  0.33560584  1
  Fe  Fe15  1  0.33453783  0.66806891  1.00013222  1
  Fe  Fe16  1  0.50221088  0.83326651  0.16723630  1
  Fe  Fe17  1  0.33351044  0.66960865  0.33361948  1
  Fe  Fe18  1  0.66941640  0.99946291  0.00123077  1
  Cr  Cr19  1  0.83309153  0.16855265  0.16511533  1
  Ni  Ni20  1  0.66483275  0.99849107  0.33490850  1
  Ni  Ni21  1  0.66874411  0.33646263  0.99878412  1
  Ni  Ni22  1  0.83355836  0.50159813  0.16960817  1
  Fe  Fe23  1  0.66914818  0.33139596  0.33490443  1
  Fe  Fe24  1  0.66856353  0.66617747  1.00037972  1
  Ni  Ni25  1  0.83350846  0.83336825  0.16616301  1
  Fe  Fe26  1  0.66837685  0.66860377  0.33322736  1
  Fe  Fe27  1  0.16733159  0.16832760  0.50141272  1
  Fe  Fe28  1  0.00103876  0.00409943  0.66815106  1
  Ni  Ni29  1  0.16559175  0.16690130  0.83273679  1
  Cr  Cr30  1  0.16617042  0.50093591  0.50069168  1
  Ni  Ni31  1  0.99944309  0.33148436  0.66921803  1
  Fe  Fe32  1  0.16734665  0.49801781  0.83205514  1
  Cr  Cr33  1  0.16867602  0.83322930  0.50131893  1
  Cr  Cr34  1  0.99867522  0.66469125  0.66859300  1
  Cr  Cr35  1  0.16696847  0.83485763  0.83218200  1
  Ni  Ni36  1  0.50190248  0.16676714  0.50041726  1
  Ni  Ni37  1  0.33508547  0.00331914  0.66524446  1
  Cr  Cr38  1  0.50275900  0.16681322  0.83287110  1
  Cr  Cr39  1  0.49968178  0.49866363  0.49981830  1
  Fe  Fe40  1  0.33219563  0.33291160  0.66740376  1
  Fe  Fe41  1  0.50052209  0.50028520  0.83377136  1
  Fe  Fe42  1  0.49976290  0.83659979  0.50074176  1
  Ni  Ni43  1  0.33587885  0.66736774  0.66881158  1
  Cr  Cr44  1  0.50075074  0.83488883  0.83443672  1
  Ni  Ni45  1  0.83175991  0.16889675  0.50218782  1
  Fe  Fe46  1  0.66698327  0.00277820  0.66539102  1
  Fe  Fe47  1  0.83585021  0.16711524  0.83404321  1
  Fe  Fe48  1  0.83400928  0.49630901  0.49933751  1
  Fe  Fe49  1  0.66855247  0.33283528  0.66772419  1
  Ni  Ni50  1  0.83329912  0.49773786  0.83461909  1
  Cr  Cr51  1  0.83461909  0.83539909  0.50129672  1
  Cr  Cr52  1  0.66736912  0.66648030  0.66801118  1
  Fe  Fe53  1  0.83314789  0.83717350  0.83512344  1
" 