7370,Ni30Fe70_3,-243.166662562254, 219.628026409923,Ni30Fe70,"# generated using pymatgen
 data_Fe8Ni19
_symmetry_space_group_name_H-M   'P 1'
_cell_length_a   7.41065746
_cell_length_b   7.41065746
_cell_length_c   10.48025228
_cell_angle_alpha   90.00000000
_cell_angle_beta   90.00000000
_cell_angle_gamma   90.00000000
_symmetry_Int_Tables_number   1
_chemical_formula_structural   Fe8Ni19
_chemical_formula_sum   'Fe16 Ni38'
_cell_volume   575.55285961
_cell_formula_units_Z   2
loop_
 _symmetry_equiv_pos_site_id
 _symmetry_equiv_pos_as_xyz
  1  'x, y, z'
loop_
 _atom_site_type_symbol
 _atom_site_label
 _atom_site_symmetry_multiplicity
 _atom_site_fract_x
 _atom_site_fract_y
 _atom_site_fract_z
 _atom_site_occupancy
  Fe  Fe0  1  0.00421614  0.00429515  0.00387355  1
  Fe  Fe1  1  0.17185025  0.16998631  0.17046994  1
  Ni  Ni2  1  0.00394373  1.00220436  0.33686964  1
  Ni  Ni3  1  1.00368138  0.33885666  0.00451231  1
  Ni  Ni4  1  0.17067536  0.50395911  0.16958815  1
  Fe  Fe5  1  0.00425413  0.33573133  0.33757398  1
  Ni  Ni6  1  0.00446834  0.66997342  0.00420835  1
  Ni  Ni7  1  0.16956410  0.83601011  0.17023845  1
  Fe  Fe8  1  0.00424663  0.67133995  0.33700587  1
  Ni  Ni9  1  0.33826944  1.00325645  0.00462628  1
  Ni  Ni10  1  0.50444494  0.17109289  0.16959372  1
  Ni  Ni11  1  0.33703294  1.00369690  0.33698149  1
  Ni  Ni12  1  0.33746645  0.33741310  0.00421780  1
  Ni  Ni13  1  0.50296349  0.50314546  0.17025090  1
  Ni  Ni14  1  0.33780977  0.33722601  0.33664165  1
  Ni  Ni15  1  0.33600907  0.67073968  0.00409752  1
  Ni  Ni16  1  0.50441420  0.83717936  0.17021404  1
  Fe  Fe17  1  0.33738161  0.67103190  0.33630308  1
  Ni  Ni18  1  0.66948744  0.00405624  0.00421544  1
  Fe  Fe19  1  0.83618053  0.17008983  0.17047917  1
  Ni  Ni20  1  0.67044345  1.00370604  0.33761899  1
  Ni  Ni21  1  0.67026389  0.33660186  0.00388112  1
  Fe  Fe22  1  0.83670809  0.50442657  0.16996709  1
  Ni  Ni23  1  0.66962759  0.33719596  0.33728757  1
  Fe  Fe24  1  0.66932256  0.67021243  1.00355599  1
  Ni  Ni25  1  0.83743083  0.83748605  0.16992709  1
  Fe  Fe26  1  0.66977670  0.67162023  0.33738658  1
  Ni  Ni27  1  0.16982023  0.17150856  0.50367526  1
  Ni  Ni28  1  0.00408386  1.00280739  0.67056293  1
  Ni  Ni29  1  0.16941707  0.17132035  0.83727220  1
  Ni  Ni30  1  0.17013913  0.50356464  0.50449811  1
  Ni  Ni31  1  0.00408660  0.33798227  0.66960701  1
  Fe  Fe32  1  0.17102991  0.50266504  0.83749218  1
  Ni  Ni33  1  0.16979057  0.83632952  0.50417257  1
  Ni  Ni34  1  1.00329663  0.67062725  0.66992088  1
  Fe  Fe35  1  0.17140157  0.83807002  0.83727512  1
  Ni  Ni36  1  0.50456405  0.17042538  0.50482818  1
  Ni  Ni37  1  0.33729264  0.00422331  0.66980849  1
  Ni  Ni38  1  0.50429760  0.17095264  0.83699185  1
  Fe  Fe39  1  0.50363470  0.50314113  0.50396430  1
  Ni  Ni40  1  0.33727600  0.33655654  0.67055496  1
  Ni  Ni41  1  0.50364865  0.50403252  0.83719245  1
  Ni  Ni42  1  0.50458313  0.83744061  0.50356474  1
  Fe  Fe43  1  0.33743726  0.67063255  0.67072483  1
  Ni  Ni44  1  0.50430225  0.83642287  0.83763321  1
  Ni  Ni45  1  0.83703109  0.17007306  0.50408419  1
  Ni  Ni46  1  0.67003979  1.00342063  0.66958052  1
  Ni  Ni47  1  0.83770047  0.17066678  0.83709333  1
  Fe  Fe48  1  0.83742042  0.50371817  0.50453108  1
  Ni  Ni49  1  0.67004897  0.33734790  0.67024822  1
  Fe  Fe50  1  0.83644432  0.50265712  0.83691306  1
  Ni  Ni51  1  0.83704417  0.83775691  0.50450767  1
  Ni  Ni52  1  0.67146799  0.67064428  0.67046749  1
  Fe  Fe53  1  0.83621982  0.83793111  0.83670138  1
" 