6771,Ni30Fe41Cr28_0,-227.616237573424, 187.3362180331,Ni30Fe41Cr28,"# generated using pymatgen
 data_Cr8Fe11Ni8
_symmetry_space_group_name_H-M   'P 1'
_cell_length_a   7.46174816
_cell_length_b   7.46174816
_cell_length_c   10.55250545
_cell_angle_alpha   90.00000000
_cell_angle_beta   90.00000000
_cell_angle_gamma   90.00000000
_symmetry_Int_Tables_number   1
_chemical_formula_structural   Cr8Fe11Ni8
_chemical_formula_sum   'Cr16 Fe22 Ni16'
_cell_volume   587.53908113
_cell_formula_units_Z   2
loop_
 _symmetry_equiv_pos_site_id
 _symmetry_equiv_pos_as_xyz
  1  'x, y, z'
loop_
 _atom_site_type_symbol
 _atom_site_label
 _atom_site_symmetry_multiplicity
 _atom_site_fract_x
 _atom_site_fract_y
 _atom_site_fract_z
 _atom_site_occupancy
  Fe  Fe0  1  0.00120897  0.99999292  0.00044122  1
  Fe  Fe1  1  0.16670032  0.16764842  0.16848069  1
  Cr  Cr2  1  0.00054130  0.00362301  0.33329513  1
  Cr  Cr3  1  0.00082927  0.33442639  0.99839239  1
  Fe  Fe4  1  0.16736983  0.50256888  0.16853854  1
  Ni  Ni5  1  0.00381700  0.33459145  0.33413383  1
  Ni  Ni6  1  0.00274750  0.66558710  0.00088321  1
  Ni  Ni7  1  0.16613269  0.83249459  0.16667069  1
  Fe  Fe8  1  0.00304473  0.66351143  0.33265362  1
  Cr  Cr9  1  0.33121808  0.99707799  0.99993857  1
  Cr  Cr10  1  0.49869667  0.17102311  0.16760498  1
  Fe  Fe11  1  0.33262725  0.99979616  0.33326188  1
  Cr  Cr12  1  0.33059874  0.33519175  0.00040122  1
  Ni  Ni13  1  0.50009724  0.50001992  0.16550777  1
  Fe  Fe14  1  0.33260339  0.33613435  0.33448563  1
  Fe  Fe15  1  0.33285578  0.66647741  0.00085298  1
  Fe  Fe16  1  0.49716772  0.83000674  0.16636436  1
  Ni  Ni17  1  0.33249321  0.66631022  0.33264012  1
  Cr  Cr18  1  0.66639022  1.00007648  0.00136429  1
  Fe  Fe19  1  0.83581631  0.16942942  0.16652981  1
  Cr  Cr20  1  0.66450582  1.00025949  0.33598793  1
  Ni  Ni21  1  0.66996097  0.33623412  0.00106867  1
  Fe  Fe22  1  0.83447916  0.50031238  0.16643281  1
  Cr  Cr23  1  0.66946890  0.33407338  0.33395159  1
  Ni  Ni24  1  0.66712160  0.66550151  1.00012574  1
  Cr  Cr25  1  0.83687106  0.83157162  0.16684326  1
  Cr  Cr26  1  0.66272489  0.66683661  0.33468779  1
  Ni  Ni27  1  0.16954101  0.16834522  0.50070107  1
  Fe  Fe28  1  0.00060962  0.00267178  0.66727187  1
  Fe  Fe29  1  0.16621835  0.16585912  0.83075792  1
  Ni  Ni30  1  0.16918884  0.49849731  0.49905914  1
  Fe  Fe31  1  0.00136701  0.33352628  0.66666653  1
  Ni  Ni32  1  0.16595663  0.50230679  0.83192035  1
  Cr  Cr33  1  0.16516032  0.83277938  0.50023136  1
  Ni  Ni34  1  0.00475231  0.66440190  0.66698042  1
  Ni  Ni35  1  0.16527949  0.83221073  0.83374076  1
  Fe  Fe36  1  0.49794380  0.16840749  0.50271991  1
  Fe  Fe37  1  0.33310514  0.99949394  0.66794890  1
  Cr  Cr38  1  0.50116422  0.16937087  0.83293848  1
  Ni  Ni39  1  0.49830919  0.49730890  0.50166422  1
  Fe  Fe40  1  0.33203990  0.33487959  0.66585795  1
  Cr  Cr41  1  0.50098505  0.49953410  0.83442890  1
  Fe  Fe42  1  0.49663839  0.83178375  0.50293471  1
  Fe  Fe43  1  0.33406978  0.66626385  0.66679325  1
  Ni  Ni44  1  0.49970988  0.83282769  0.83289111  1
  Fe  Fe45  1  0.83627223  0.16933791  0.50262863  1
  Ni  Ni46  1  0.66501763  0.00134804  0.66509687  1
  Fe  Fe47  1  0.83408736  0.16803004  0.83157486  1
  Cr  Cr48  1  0.83525013  0.50193147  0.50147759  1
  Ni  Ni49  1  0.66784599  0.33228071  0.66650926  1
  Fe  Fe50  1  0.83454867  0.50147511  0.83252263  1
  Cr  Cr51  1  0.83500171  0.83387351  0.50212733  1
  Fe  Fe52  1  0.66556790  0.66667588  0.66740336  1
  Cr  Cr53  1  0.83545662  0.83297764  0.83278972  1
" 