5351,Ni30Fe44Cr24_13,-228.940284265385, 194.74758877854,Ni30Fe44Cr24,"# generated using pymatgen
 data_Cr7(Fe3Ni2)4
_symmetry_space_group_name_H-M   'P 1'
_cell_length_a   7.45177509
_cell_length_b   7.45177509
_cell_length_c   10.53840139
_cell_angle_alpha   90.00000000
_cell_angle_beta   90.00000000
_cell_angle_gamma   90.00000000
_symmetry_Int_Tables_number   1
_chemical_formula_structural   Cr7(Fe3Ni2)4
_chemical_formula_sum   'Cr14 Fe24 Ni16'
_cell_volume   585.18638415
_cell_formula_units_Z   2
loop_
 _symmetry_equiv_pos_site_id
 _symmetry_equiv_pos_as_xyz
  1  'x, y, z'
loop_
 _atom_site_type_symbol
 _atom_site_label
 _atom_site_symmetry_multiplicity
 _atom_site_fract_x
 _atom_site_fract_y
 _atom_site_fract_z
 _atom_site_occupancy
  Fe  Fe0  1  0.99743100  0.00140587  0.00169639  1
  Cr  Cr1  1  0.16749768  0.16693522  0.17045102  1
  Cr  Cr2  1  1.00061995  1.00062751  0.33458941  1
  Cr  Cr3  1  1.00042424  0.33550481  0.00118819  1
  Ni  Ni4  1  0.16883711  0.50278604  0.16779852  1
  Ni  Ni5  1  0.00130859  0.33722436  0.33539735  1
  Fe  Fe6  1  0.99960393  0.66975411  0.00257908  1
  Ni  Ni7  1  0.16605854  0.83270080  0.16688441  1
  Fe  Fe8  1  1.00069876  0.66733976  0.33444707  1
  Cr  Cr9  1  0.33679058  0.99764643  0.00140180  1
  Fe  Fe10  1  0.50034560  0.16682266  0.16991933  1
  Ni  Ni11  1  0.33552309  0.99760578  0.33535222  1
  Fe  Fe12  1  0.33481036  0.33454182  0.00233138  1
  Ni  Ni13  1  0.50208547  0.50201499  0.16834866  1
  Ni  Ni14  1  0.33229747  0.33652198  0.33418336  1
  Fe  Fe15  1  0.33546800  0.66613925  0.00298227  1
  Fe  Fe16  1  0.50225562  0.83466023  0.16747999  1
  Cr  Cr17  1  0.33259486  0.67026801  0.33358870  1
  Ni  Ni18  1  0.66855148  0.99957366  1.00099716  1
  Ni  Ni19  1  0.83267867  0.16548847  0.16902352  1
  Ni  Ni20  1  0.66694164  0.99815385  0.33249011  1
  Cr  Cr21  1  0.67015155  0.33085446  0.00106119  1
  Fe  Fe22  1  0.83708750  0.50291134  0.16941239  1
  Cr  Cr23  1  0.67103824  0.33353874  0.33333054  1
  Fe  Fe24  1  0.66798835  0.66958563  0.00181835  1
  Fe  Fe25  1  0.83400567  0.83348962  0.16619903  1
  Fe  Fe26  1  0.66832357  0.66892607  0.33431032  1
  Ni  Ni27  1  0.16824148  0.16637886  0.50028575  1
  Fe  Fe28  1  0.00179928  1.00059525  0.66684025  1
  Ni  Ni29  1  0.16778530  0.16817549  0.83300942  1
  Fe  Fe30  1  0.16574003  0.49973987  0.49909063  1
  Cr  Cr31  1  1.00072689  0.33447877  0.66687209  1
  Fe  Fe32  1  0.16671851  0.50163413  0.83575985  1
  Ni  Ni33  1  0.16595759  0.83629087  0.50163596  1
  Fe  Fe34  1  0.99767015  0.66931182  0.66618031  1
  Cr  Cr35  1  0.16492689  0.83573360  0.83523696  1
  Cr  Cr36  1  0.49862929  0.16890481  0.49885902  1
  Fe  Fe37  1  0.33233540  0.00266036  0.66757435  1
  Fe  Fe38  1  0.50012932  0.16391541  0.83452381  1
  Fe  Fe39  1  0.50039653  0.50193169  0.50003784  1
  Fe  Fe40  1  0.33307510  0.33285259  0.66720408  1
  Cr  Cr41  1  0.50143093  0.50111802  0.83383709  1
  Fe  Fe42  1  0.50205578  0.83474685  0.50041765  1
  Cr  Cr43  1  0.33269347  0.67025106  0.66602806  1
  Ni  Ni44  1  0.50320947  0.83226409  0.83441535  1
  Fe  Fe45  1  0.83657696  0.16702364  0.49976181  1
  Cr  Cr46  1  0.66800917  1.00002723  0.66863616  1
  Ni  Ni47  1  0.83665421  0.16437030  0.83449398  1
  Ni  Ni48  1  0.83298674  0.50505870  0.49988500  1
  Cr  Cr49  1  0.67086532  0.33340979  0.66866097  1
  Fe  Fe50  1  0.83665793  0.50523656  0.83372216  1
  Fe  Fe51  1  0.83473829  0.83411994  0.50124088  1
  Fe  Fe52  1  0.67049820  0.66809635  0.66691031  1
  Ni  Ni53  1  0.83341117  0.83398936  0.83495539  1
" 