2865,Ni31Fe50Cr17_8,-231.462816385191, 199.348237305112,Ni31Fe50Cr17,"# generated using pymatgen
 data_Cr10Fe27Ni17
_symmetry_space_group_name_H-M   'P 1'
_cell_length_a   7.43460681
_cell_length_b   7.43460681
_cell_length_c   10.51412178
_cell_angle_alpha   90.00000000
_cell_angle_beta   90.00000000
_cell_angle_gamma   90.00000000
_symmetry_Int_Tables_number   1
_chemical_formula_structural   Cr10Fe27Ni17
_chemical_formula_sum   'Cr10 Fe27 Ni17'
_cell_volume   581.15103176
_cell_formula_units_Z   1
loop_
 _symmetry_equiv_pos_site_id
 _symmetry_equiv_pos_as_xyz
  1  'x, y, z'
loop_
 _atom_site_type_symbol
 _atom_site_label
 _atom_site_symmetry_multiplicity
 _atom_site_fract_x
 _atom_site_fract_y
 _atom_site_fract_z
 _atom_site_occupancy
  Ni  Ni0  1  0.00378277  0.00285540  1.00148562  1
  Ni  Ni1  1  0.16871832  0.16706437  0.16853578  1
  Fe  Fe2  1  0.00455447  0.00234317  0.33626713  1
  Ni  Ni3  1  1.00095181  0.33358057  1.00095275  1
  Cr  Cr4  1  0.16799989  0.50014943  0.16566536  1
  Cr  Cr5  1  1.00047240  0.33525895  0.33622600  1
  Fe  Fe6  1  0.99957991  0.66907779  0.99978069  1
  Fe  Fe7  1  0.16984192  0.83760257  0.16749701  1
  Fe  Fe8  1  1.00193566  0.66945634  0.33783621  1
  Fe  Fe9  1  0.33560905  0.00393220  0.00237874  1
  Fe  Fe10  1  0.50162144  0.16740395  0.16734195  1
  Ni  Ni11  1  0.33497158  1.00119281  0.33485540  1
  Fe  Fe12  1  0.33610733  0.33289576  1.00203681  1
  Ni  Ni13  1  0.50350034  0.50268991  0.16765465  1
  Cr  Cr14  1  0.33693614  0.33457321  0.33650145  1
  Fe  Fe15  1  0.33588291  0.66942940  1.00141058  1
  Fe  Fe16  1  0.50095700  0.83627240  0.16760571  1
  Cr  Cr17  1  0.33543362  0.66929884  0.33478095  1
  Fe  Fe18  1  0.67025134  0.00284980  1.00015776  1
  Fe  Fe19  1  0.83665201  0.16927207  0.16626445  1
  Fe  Fe20  1  0.66698607  0.00350432  0.33640177  1
  Ni  Ni21  1  0.66926003  0.33549894  0.00332336  1
  Fe  Fe22  1  0.83482003  0.50160785  0.16675304  1
  Cr  Cr23  1  0.66896496  0.33542454  0.33439461  1
  Ni  Ni24  1  0.66703035  0.66871215  1.00163374  1
  Cr  Cr25  1  0.83570738  0.83589052  0.17092564  1
  Fe  Fe26  1  0.66891692  0.66762810  0.33529538  1
  Fe  Fe27  1  0.16899967  0.16786495  0.50340061  1
  Ni  Ni28  1  0.00283017  0.00315446  0.66815671  1
  Ni  Ni29  1  0.16815783  0.16901871  0.83479763  1
  Fe  Fe30  1  0.17012488  0.50163899  0.50419753  1
  Ni  Ni31  1  1.00074078  0.33439826  0.66903171  1
  Fe  Fe32  1  0.16810903  0.49982929  0.83642508  1
  Fe  Fe33  1  0.16890188  0.83692725  0.50244317  1
  Cr  Cr34  1  0.00396950  0.66927818  0.67023116  1
  Fe  Fe35  1  0.17010802  0.83796147  0.83588174  1
  Ni  Ni36  1  0.50002278  0.16907455  0.50270991  1
  Fe  Fe37  1  0.33337222  0.00412939  0.66912795  1
  Ni  Ni38  1  0.49983828  0.16994488  0.83653841  1
  Ni  Ni39  1  0.50397725  0.50157554  0.50489633  1
  Fe  Fe40  1  0.33413779  0.33391548  0.66801140  1
  Cr  Cr41  1  0.50257022  0.50018689  0.83300220  1
  Cr  Cr42  1  0.50378924  0.83568489  0.50408063  1
  Ni  Ni43  1  0.33565368  0.66974274  0.66933688  1
  Fe  Fe44  1  0.50105302  0.83674576  0.83621204  1
  Fe  Fe45  1  0.83426133  0.16949570  0.50367045  1
  Cr  Cr46  1  0.66945155  0.00446691  0.67203425  1
  Fe  Fe47  1  0.83627078  0.17000460  0.83638014  1
  Ni  Ni48  1  0.83483383  0.50414153  0.50269268  1
  Ni  Ni49  1  0.66954496  0.33469857  0.66771051  1
  Fe  Fe50  1  0.83571770  0.49915273  0.83603412  1
  Fe  Fe51  1  0.83617533  0.83628577  0.50158329  1
  Fe  Fe52  1  0.67120273  0.66766683  0.66975975  1
  Ni  Ni53  1  0.83655399  0.83536444  0.83550531  1
" 