7234,Ni31Cr69_0,-227.335704875362, 140.140689235623,Ni31Cr69,"# generated using pymatgen
 data_Cr8Ni19
_symmetry_space_group_name_H-M   'P 1'
_cell_length_a   7.49377058
_cell_length_b   7.49377058
_cell_length_c   10.59779199
_cell_angle_alpha   90.00000000
_cell_angle_beta   90.00000000
_cell_angle_gamma   90.00000000
_symmetry_Int_Tables_number   1
_chemical_formula_structural   Cr8Ni19
_chemical_formula_sum   'Cr16 Ni38'
_cell_volume   595.13593944
_cell_formula_units_Z   2
loop_
 _symmetry_equiv_pos_site_id
 _symmetry_equiv_pos_as_xyz
  1  'x, y, z'
loop_
 _atom_site_type_symbol
 _atom_site_label
 _atom_site_symmetry_multiplicity
 _atom_site_fract_x
 _atom_site_fract_y
 _atom_site_fract_z
 _atom_site_occupancy
  Cr  Cr0  1  0.99754704  0.99770654  0.99811174  1
  Cr  Cr1  1  0.16818599  0.16558966  0.16302934  1
  Ni  Ni2  1  0.99656311  0.99637291  0.33177785  1
  Ni  Ni3  1  -0.00024689  0.33336656  0.99798833  1
  Ni  Ni4  1  0.16756230  0.50068771  0.16345202  1
  Cr  Cr5  1  0.99776104  0.32961478  0.32959121  1
  Ni  Ni6  1  0.00154676  0.66454935  0.99736100  1
  Ni  Ni7  1  0.16518919  0.82785344  0.16546337  1
  Ni  Ni8  1  0.00212354  0.66751127  0.33029931  1
  Ni  Ni9  1  0.33284265  0.99554924  0.99817769  1
  Ni  Ni10  1  0.49967394  0.16623320  0.16490013  1
  Cr  Cr11  1  0.33144556  0.99699087  0.33250164  1
  Ni  Ni12  1  0.33128418  0.33520868  -0.00028771  1
  Ni  Ni13  1  0.49556365  0.49785710  0.16606932  1
  Ni  Ni14  1  0.33650497  0.33448334  0.33027433  1
  Ni  Ni15  1  0.33057635  0.66397866  0.99722262  1
  Cr  Cr16  1  0.49852463  0.83102033  0.16303722  1
  Ni  Ni17  1  0.33165626  0.66337841  0.33186416  1
  Ni  Ni18  1  0.66433748  0.99776453  0.99705312  1
  Ni  Ni19  1  0.82882870  0.16398013  0.16598028  1
  Ni  Ni20  1  0.66513416  0.00134461  0.33231950  1
  Cr  Cr21  1  0.66455324  0.33100431  -0.00099520  1
  Cr  Cr22  1  0.83095997  0.50105722  0.16567142  1
  Ni  Ni23  1  0.66129341  0.32975142  0.33204271  1
  Ni  Ni24  1  0.66243988  0.66603816  0.99600517  1
  Cr  Cr25  1  0.83037818  0.83076732  0.16618102  1
  Ni  Ni26  1  0.66084778  0.66367714  0.33238856  1
  Cr  Cr27  1  0.16595327  0.16379885  0.50185440  1
  Ni  Ni28  1  0.99732177  0.99679676  0.66517434  1
  Cr  Cr29  1  0.16632403  0.16683768  0.82991741  1
  Cr  Cr30  1  0.16635469  0.49974252  0.49951506  1
  Ni  Ni31  1  0.99690377  0.33039061  0.66668507  1
  Ni  Ni32  1  0.16673725  0.49973557  0.83179420  1
  Ni  Ni33  1  0.16587666  0.83072002  0.49884896  1
  Ni  Ni34  1  0.00204942  0.66732647  0.66703294  1
  Ni  Ni35  1  0.16623825  0.82953733  0.83044181  1
  Ni  Ni36  1  0.50015116  0.16540952  0.49884541  1
  Ni  Ni37  1  0.33259081  0.99461429  0.66401819  1
  Cr  Cr38  1  0.49681013  0.16316574  0.83122643  1
  Ni  Ni39  1  0.49714152  0.49741845  0.49711518  1
  Ni  Ni40  1  0.33411231  0.33413637  0.66476030  1
  Ni  Ni41  1  0.49446748  0.49976572  0.83152889  1
  Ni  Ni42  1  0.49700381  0.83187306  0.49850721  1
  Ni  Ni43  1  0.33060854  0.66590411  0.66546224  1
  Ni  Ni44  1  0.49729322  0.83111131  0.83260477  1
  Ni  Ni45  1  0.82891953  0.16361396  0.49927483  1
  Ni  Ni46  1  0.66487073  -0.00030467  0.66512631  1
  Ni  Ni47  1  0.83150036  0.16298351  0.82936115  1
  Cr  Cr48  1  0.83028810  0.49784919  0.49799267  1
  Ni  Ni49  1  0.66360342  0.32889579  0.66329909  1
  Cr  Cr50  1  0.83361339  0.49888340  0.83095628  1
  Cr  Cr51  1  0.83194170  0.83195806  0.49626358  1
  Cr  Cr52  1  0.66073510  0.66541442  0.66657696  1
  Ni  Ni53  1  0.83122988  0.83280241  0.83205348  1
" 