3528,Ni31Cr69_7,-227.575872007206, 148.126170304373,Ni31Cr69,"# generated using pymatgen
 data_Cr8Ni19
_symmetry_space_group_name_H-M   'P 1'
_cell_length_a   7.48761292
_cell_length_b   7.48761292
_cell_length_c   10.58908374
_cell_angle_alpha   90.00000000
_cell_angle_beta   90.00000000
_cell_angle_gamma   90.00000000
_symmetry_Int_Tables_number   1
_chemical_formula_structural   Cr8Ni19
_chemical_formula_sum   'Cr16 Ni38'
_cell_volume   593.67006764
_cell_formula_units_Z   2
loop_
 _symmetry_equiv_pos_site_id
 _symmetry_equiv_pos_as_xyz
  1  'x, y, z'
loop_
 _atom_site_type_symbol
 _atom_site_label
 _atom_site_symmetry_multiplicity
 _atom_site_fract_x
 _atom_site_fract_y
 _atom_site_fract_z
 _atom_site_occupancy
  Cr  Cr0  1  0.99767991  0.99834851  0.00017128  1
  Ni  Ni1  1  0.16406420  0.16459622  0.16863209  1
  Ni  Ni2  1  0.00038541  0.00078917  0.33043771  1
  Cr  Cr3  1  0.99658078  0.33294545  -0.00114847  1
  Ni  Ni4  1  0.16459966  0.49895237  0.16478292  1
  Ni  Ni5  1  -0.00075294  0.32880685  0.32936018  1
  Ni  Ni6  1  -0.00028247  0.66477777  -0.00057876  1
  Ni  Ni7  1  0.16400078  0.83233850  0.16447309  1
  Cr  Cr8  1  0.99782812  0.66662312  0.32872146  1
  Ni  Ni9  1  0.33275824  0.99738786  0.99788983  1
  Cr  Cr10  1  0.49964829  0.16569310  0.16543382  1
  Ni  Ni11  1  0.33003063  0.00059206  0.33383225  1
  Cr  Cr12  1  0.33272838  0.33276629  0.99706812  1
  Ni  Ni13  1  0.49947941  0.49780238  0.16664640  1
  Ni  Ni14  1  0.33227072  0.33004962  0.33268115  1
  Ni  Ni15  1  0.33056790  0.66542260  -0.00119203  1
  Cr  Cr16  1  0.49817111  0.83274036  0.16436582  1
  Cr  Cr17  1  0.33381125  0.66555393  0.33220596  1
  Ni  Ni18  1  0.66512343  -0.00001288  0.99627639  1
  Ni  Ni19  1  0.83214880  0.16560328  0.16708129  1
  Ni  Ni20  1  0.66546187  -0.00108265  0.33210883  1
  Ni  Ni21  1  0.66575232  0.33126848  0.99815993  1
  Ni  Ni22  1  0.83179216  0.49777801  0.16638692  1
  Ni  Ni23  1  0.66437875  0.33286721  0.33052209  1
  Cr  Cr24  1  0.66607856  0.66411593  0.99800826  1
  Ni  Ni25  1  0.83334956  0.83248298  0.16625473  1
  Ni  Ni26  1  0.66423069  0.66410001  0.33180947  1
  Ni  Ni27  1  0.16692328  0.16436630  0.49772560  1
  Ni  Ni28  1  0.99780124  -0.00049065  0.66562105  1
  Ni  Ni29  1  0.16547213  0.16739064  0.82951532  1
  Cr  Cr30  1  0.16525043  0.49596881  0.50064413  1
  Ni  Ni31  1  0.00111841  0.33103615  0.66799733  1
  Ni  Ni32  1  0.16424809  0.49769707  0.83103940  1
  Ni  Ni33  1  0.16581228  0.83550895  0.49818745  1
  Ni  Ni34  1  0.99672769  0.66533889  0.66753533  1
  Cr  Cr35  1  0.16469886  0.83045142  0.83347509  1
  Ni  Ni36  1  0.49634746  0.16493418  0.49692936  1
  Cr  Cr37  1  0.33269840  0.00100057  0.66379415  1
  Ni  Ni38  1  0.49983553  0.16439077  0.83293815  1
  Ni  Ni39  1  0.49897133  0.49788756  0.49738570  1
  Ni  Ni40  1  0.33064622  0.33132575  0.66582690  1
  Ni  Ni41  1  0.49863384  0.49833001  0.83185014  1
  Ni  Ni42  1  0.49939687  0.83305532  0.49790245  1
  Cr  Cr43  1  0.33426337  0.66386560  0.66458255  1
  Ni  Ni44  1  0.50151991  0.83313410  0.83270621  1
  Cr  Cr45  1  0.83285740  0.16476901  0.49753201  1
  Ni  Ni46  1  0.66588770  0.99661385  0.66741946  1
  Ni  Ni47  1  0.83056388  0.16457671  0.83126646  1
  Cr  Cr48  1  0.83096522  0.49878095  0.49884474  1
  Cr  Cr49  1  0.66341870  0.33208882  0.66747921  1
  Ni  Ni50  1  0.83300246  0.49935754  0.83094168  1
  Cr  Cr51  1  0.83120996  0.83236414  0.50017978  1
  Ni  Ni52  1  0.66569727  0.66685185  0.66634146  1
  Ni  Ni53  1  0.82998892  0.83194157  0.82979059  1
" 