5900,Ni31Cr69_8,-227.603519892222, 144.332240312695,Ni31Cr69,"# generated using pymatgen
 data_Cr8Ni19
_symmetry_space_group_name_H-M   'P 1'
_cell_length_a   7.48758181
_cell_length_b   7.48758181
_cell_length_c   10.58903974
_cell_angle_alpha   90.00000000
_cell_angle_beta   90.00000000
_cell_angle_gamma   90.00000000
_symmetry_Int_Tables_number   1
_chemical_formula_structural   Cr8Ni19
_chemical_formula_sum   'Cr16 Ni38'
_cell_volume   593.66266776
_cell_formula_units_Z   2
loop_
 _symmetry_equiv_pos_site_id
 _symmetry_equiv_pos_as_xyz
  1  'x, y, z'
loop_
 _atom_site_type_symbol
 _atom_site_label
 _atom_site_symmetry_multiplicity
 _atom_site_fract_x
 _atom_site_fract_y
 _atom_site_fract_z
 _atom_site_occupancy
  Ni  Ni0  1  0.99717124  0.99812572  0.99793856  1
  Cr  Cr1  1  0.16504516  0.16257861  0.16529900  1
  Ni  Ni2  1  -0.00032515  0.99683802  0.33195558  1
  Cr  Cr3  1  -0.00108732  0.33119114  0.99690406  1
  Ni  Ni4  1  0.16733118  0.50047216  0.16718958  1
  Ni  Ni5  1  0.99856881  0.33238889  0.33255070  1
  Cr  Cr6  1  0.00036719  0.66723601  0.99751133  1
  Ni  Ni7  1  0.16547618  0.83205263  0.16715895  1
  Ni  Ni8  1  0.00050667  0.66664454  0.33202336  1
  Ni  Ni9  1  0.33362200  -0.00029375  0.99748195  1
  Ni  Ni10  1  0.50042828  0.16573760  0.16305491  1
  Ni  Ni11  1  0.33056225  0.99488363  0.33252069  1
  Ni  Ni12  1  0.33401456  0.33017126  0.99823151  1
  Ni  Ni13  1  0.49831606  0.49768747  0.16643448  1
  Cr  Cr14  1  0.33087398  0.33319998  0.33157581  1
  Cr  Cr15  1  0.33015357  0.66546200  0.00045312  1
  Ni  Ni16  1  0.49763982  0.83246643  0.16650046  1
  Ni  Ni17  1  0.33097452  0.66736459  0.33072739  1
  Ni  Ni18  1  0.66508407  0.00098938  0.99861734  1
  Ni  Ni19  1  0.82992061  0.16392354  0.16537378  1
  Cr  Cr20  1  0.66545675  0.99766539  0.33072691  1
  Ni  Ni21  1  0.66328826  0.32757409  -0.00082457  1
  Cr  Cr22  1  0.83072245  0.49785363  0.16809867  1
  Ni  Ni23  1  0.66636347  0.33281809  0.32865060  1
  Cr  Cr24  1  0.66535619  0.66753111  0.99791648  1
  Ni  Ni25  1  0.83277658  0.83425803  0.16622855  1
  Ni  Ni26  1  0.66441821  0.66631949  0.33186696  1
  Ni  Ni27  1  0.16459313  0.16393334  0.50009498  1
  Ni  Ni28  1  0.00091423  0.99791613  0.66598928  1
  Ni  Ni29  1  0.16616938  0.16432609  0.83023511  1
  Ni  Ni30  1  0.16352859  0.49858127  0.49863181  1
  Ni  Ni31  1  0.00237176  0.33237626  0.66667679  1
  Ni  Ni32  1  0.16330691  0.49662120  0.83009987  1
  Ni  Ni33  1  0.16460212  0.83334566  0.49733799  1
  Ni  Ni34  1  0.99784363  0.66557603  0.66633691  1
  Ni  Ni35  1  0.16404517  0.83493906  0.83140547  1
  Cr  Cr36  1  0.49482314  0.16399242  0.49909597  1
  Ni  Ni37  1  0.32966774  -0.00045093  0.66588085  1
  Ni  Ni38  1  0.49671552  0.16392971  0.83405382  1
  Cr  Cr39  1  0.49912656  0.50099630  0.49776309  1
  Ni  Ni40  1  0.32712703  0.32969471  0.66641029  1
  Cr  Cr41  1  0.49925883  0.49714922  0.83196674  1
  Ni  Ni42  1  0.49741160  0.83084686  0.49788702  1
  Cr  Cr43  1  0.33041918  0.66663923  0.66506709  1
  Ni  Ni44  1  0.49886172  0.83536930  0.83149976  1
  Cr  Cr45  1  0.83638486  0.16507407  0.49680291  1
  Cr  Cr46  1  0.66511571  0.99544698  0.66655128  1
  Ni  Ni47  1  0.83298679  0.16468078  0.83338482  1
  Cr  Cr48  1  0.83320987  0.50100754  0.49822721  1
  Cr  Cr49  1  0.66620576  0.33173510  0.66742911  1
  Ni  Ni50  1  0.83335937  0.49872851  0.82953145  1
  Ni  Ni51  1  0.83388402  0.82977810  0.49884378  1
  Ni  Ni52  1  0.66800045  0.66810179  0.66579227  1
  Ni  Ni53  1  0.83299563  0.83247983  0.83079246  1
" 