7001,Ni31Fe50Cr17_0,-231.824084821556, 195.422886147645,Ni31Fe50Cr17,"# generated using pymatgen
 data_Cr10Fe27Ni17
_symmetry_space_group_name_H-M   'P 1'
_cell_length_a   7.43634243
_cell_length_b   7.43634243
_cell_length_c   10.51657632
_cell_angle_alpha   90.00000000
_cell_angle_beta   90.00000000
_cell_angle_gamma   90.00000000
_symmetry_Int_Tables_number   1
_chemical_formula_structural   Cr10Fe27Ni17
_chemical_formula_sum   'Cr10 Fe27 Ni17'
_cell_volume   581.55813838
_cell_formula_units_Z   1
loop_
 _symmetry_equiv_pos_site_id
 _symmetry_equiv_pos_as_xyz
  1  'x, y, z'
loop_
 _atom_site_type_symbol
 _atom_site_label
 _atom_site_symmetry_multiplicity
 _atom_site_fract_x
 _atom_site_fract_y
 _atom_site_fract_z
 _atom_site_occupancy
  Ni  Ni0  1  0.00442899  1.00114673  1.00191477  1
  Ni  Ni1  1  0.16968916  0.16868261  0.16805307  1
  Fe  Fe2  1  0.00548158  1.00054929  0.33463422  1
  Fe  Fe3  1  0.00366158  0.33404094  0.99997057  1
  Cr  Cr4  1  0.16948735  0.49947174  0.16767987  1
  Fe  Fe5  1  0.00282571  0.33517884  0.33727598  1
  Fe  Fe6  1  1.00108319  0.67015427  1.00137061  1
  Fe  Fe7  1  0.16781129  0.83805464  0.16751261  1
  Fe  Fe8  1  1.00020363  0.66993085  0.33514577  1
  Fe  Fe9  1  0.33318455  0.00262454  1.00144898  1
  Ni  Ni10  1  0.49708119  0.17154940  0.16904076  1
  Ni  Ni11  1  0.33227576  0.00427981  0.33488953  1
  Fe  Fe12  1  0.33438004  0.33380463  1.00089862  1
  Ni  Ni13  1  0.50205527  0.50190694  0.16821092  1
  Fe  Fe14  1  0.33755672  0.33299247  0.33671242  1
  Ni  Ni15  1  0.33377702  0.66825080  0.99976924  1
  Cr  Cr16  1  0.50331667  0.83382672  0.16860710  1
  Cr  Cr17  1  0.33494878  0.66999624  0.33886217  1
  Cr  Cr18  1  0.66977220  0.00353045  0.99997963  1
  Cr  Cr19  1  0.83903477  0.16745530  0.17106897  1
  Cr  Cr20  1  0.66615263  0.00370182  0.33647345  1
  Cr  Cr21  1  0.66871600  0.33613151  0.00274070  1
  Fe  Fe22  1  0.83396749  0.50352199  0.16991126  1
  Fe  Fe23  1  0.66552166  0.33793536  0.33600289  1
  Fe  Fe24  1  0.66924061  0.66870197  1.00193614  1
  Ni  Ni25  1  0.83777657  0.83208075  0.16733372  1
  Ni  Ni26  1  0.67059714  0.66460174  0.33429868  1
  Ni  Ni27  1  0.16749451  0.17093617  0.50088563  1
  Fe  Fe28  1  0.00224205  0.00487132  0.67035919  1
  Ni  Ni29  1  0.16636970  0.17124171  0.83724607  1
  Fe  Fe30  1  0.16939465  0.50076189  0.50347913  1
  Fe  Fe31  1  0.00436662  0.33388361  0.66893984  1
  Fe  Fe32  1  0.16922259  0.50178887  0.83547874  1
  Fe  Fe33  1  0.17033858  0.83689876  0.50212676  1
  Fe  Fe34  1  0.00315216  0.66770868  0.66947426  1
  Fe  Fe35  1  0.16824512  0.83601227  0.83674923  1
  Ni  Ni36  1  0.49925853  0.16959471  0.50164229  1
  Cr  Cr37  1  0.33615506  1.00193972  0.66842693  1
  Fe  Fe38  1  0.50047683  0.16800433  0.83454793  1
  Ni  Ni39  1  0.50152303  0.50293221  0.50242825  1
  Ni  Ni40  1  0.33348005  0.33756768  0.66876058  1
  Fe  Fe41  1  0.49979132  0.50243004  0.83543060  1
  Ni  Ni42  1  0.50328192  0.83370113  0.50326139  1
  Fe  Fe43  1  0.33699070  0.66721575  0.66910217  1
  Ni  Ni44  1  0.50370061  0.83173781  0.83447635  1
  Fe  Fe45  1  0.83536511  0.16985637  0.50281638  1
  Ni  Ni46  1  0.66980270  0.00218940  0.66993120  1
  Ni  Ni47  1  0.83994556  0.16779696  0.83299774  1
  Fe  Fe48  1  0.83482683  0.50080917  0.50085442  1
  Cr  Cr49  1  0.66825884  0.33338612  0.66774418  1
  Fe  Fe50  1  0.83708401  0.50280189  0.83507963  1
  Cr  Cr51  1  0.83391585  0.83574715  0.50402179  1
  Fe  Fe52  1  0.66611504  0.66921211  0.66874586  1
  Fe  Fe53  1  0.83665939  0.83635671  0.83473572  1
" 