6179,Ni31Cr69_19,-227.573621081768, 146.18881678491,Ni31Cr69,"# generated using pymatgen
 data_Cr8Ni19
_symmetry_space_group_name_H-M   'P 1'
_cell_length_a   7.48889212
_cell_length_b   7.48889212
_cell_length_c   10.59089280
_cell_angle_alpha   90.00000000
_cell_angle_beta   90.00000000
_cell_angle_gamma   90.00000000
_symmetry_Int_Tables_number   1
_chemical_formula_structural   Cr8Ni19
_chemical_formula_sum   'Cr16 Ni38'
_cell_volume   593.97439043
_cell_formula_units_Z   2
loop_
 _symmetry_equiv_pos_site_id
 _symmetry_equiv_pos_as_xyz
  1  'x, y, z'
loop_
 _atom_site_type_symbol
 _atom_site_label
 _atom_site_symmetry_multiplicity
 _atom_site_fract_x
 _atom_site_fract_y
 _atom_site_fract_z
 _atom_site_occupancy
  Ni  Ni0  1  0.99819802  0.99685199  0.99626552  1
  Cr  Cr1  1  0.16624434  0.16300196  0.16655354  1
  Ni  Ni2  1  -0.00080131  0.00033553  0.33305966  1
  Cr  Cr3  1  0.99570764  0.33093123  0.99816383  1
  Ni  Ni4  1  0.16459951  0.49974380  0.16397160  1
  Cr  Cr5  1  0.99805795  0.33279696  0.33191144  1
  Ni  Ni6  1  0.99649392  0.66634478  0.99847106  1
  Cr  Cr7  1  0.16421657  0.83279116  0.16411753  1
  Cr  Cr8  1  0.99803393  0.66377860  0.33243663  1
  Ni  Ni9  1  0.33212512  0.99608762  0.99643484  1
  Ni  Ni10  1  0.49992320  0.16441503  0.16618517  1
  Ni  Ni11  1  0.33244704  0.00041478  0.33370076  1
  Cr  Cr12  1  0.33166366  0.32733233  0.99761945  1
  Cr  Cr13  1  0.49824353  0.49685891  0.16321094  1
  Ni  Ni14  1  0.33310917  0.32977308  0.33406148  1
  Ni  Ni15  1  0.33168178  0.66876732  0.99788283  1
  Ni  Ni16  1  0.49832602  0.83345096  0.16322138  1
  Cr  Cr17  1  0.33195711  0.66502977  0.33578699  1
  Cr  Cr18  1  0.66448331  -0.00049922  0.99656035  1
  Ni  Ni19  1  0.83008995  0.16460351  0.16561147  1
  Cr  Cr20  1  0.66390506  -0.00067250  0.33211898  1
  Ni  Ni21  1  0.66719258  0.33166277  0.99830579  1
  Ni  Ni22  1  0.83041064  0.49846508  0.16249342  1
  Ni  Ni23  1  0.66470398  0.33035077  0.33239040  1
  Ni  Ni24  1  0.66716498  0.66638132  0.99847389  1
  Ni  Ni25  1  0.83201323  0.83256394  0.16315612  1
  Cr  Cr26  1  0.66570657  0.66410000  0.33218434  1
  Ni  Ni27  1  0.16522615  0.16487341  0.49860979  1
  Ni  Ni28  1  0.99847417  0.00009895  0.66642949  1
  Ni  Ni29  1  0.16406374  0.16178395  0.83064708  1
  Ni  Ni30  1  0.16629336  0.49708314  0.50191023  1
  Ni  Ni31  1  0.99797547  0.33092653  0.66478070  1
  Cr  Cr32  1  0.16494675  0.50005874  0.83048001  1
  Ni  Ni33  1  0.16593059  0.83340734  0.50005993  1
  Ni  Ni34  1  -0.00015761  0.66460774  0.66529470  1
  Ni  Ni35  1  0.16359665  0.83292777  0.83259018  1
  Ni  Ni36  1  0.49876989  0.16751004  0.49845748  1
  Cr  Cr37  1  0.33377223  0.99846217  0.66672640  1
  Ni  Ni38  1  0.49987598  0.16485255  0.83089873  1
  Ni  Ni39  1  0.49778669  0.49500121  0.50007524  1
  Ni  Ni40  1  0.33132542  0.33106472  0.66322664  1
  Cr  Cr41  1  0.50051710  0.49781272  0.83124041  1
  Ni  Ni42  1  0.49608204  0.83326410  0.49984422  1
  Ni  Ni43  1  0.32967679  0.66545945  0.66320639  1
  Ni  Ni44  1  0.49782280  0.83227477  0.83283543  1
  Ni  Ni45  1  0.83207744  0.16768971  0.50028762  1
  Ni  Ni46  1  0.66625827  0.00193570  0.66629574  1
  Ni  Ni47  1  0.83201892  0.16487352  0.82914817  1
  Ni  Ni48  1  0.83141904  0.49531356  0.50117581  1
  Ni  Ni49  1  0.66660495  0.32950933  0.66456937  1
  Ni  Ni50  1  0.83159192  0.49867337  0.83164106  1
  Cr  Cr51  1  0.83507582  0.83601732  0.50072829  1
  Cr  Cr52  1  0.66436010  0.66776259  0.66421746  1
  Ni  Ni53  1  0.83396095  0.83233724  0.83151712  1
" 