4182,Ni31Fe60Cr8_14,-234.580252399445, 200.506935952728,Ni31Fe60Cr8,"# generated using pymatgen
 data_Cr5Fe32Ni17
_symmetry_space_group_name_H-M   'P 1'
_cell_length_a   7.41677689
_cell_length_b   7.41677689
_cell_length_c   10.48890647
_cell_angle_alpha   90.00000000
_cell_angle_beta   90.00000000
_cell_angle_gamma   90.00000000
_symmetry_Int_Tables_number   1
_chemical_formula_structural   Cr5Fe32Ni17
_chemical_formula_sum   'Cr5 Fe32 Ni17'
_cell_volume   576.97984570
_cell_formula_units_Z   1
loop_
 _symmetry_equiv_pos_site_id
 _symmetry_equiv_pos_as_xyz
  1  'x, y, z'
loop_
 _atom_site_type_symbol
 _atom_site_label
 _atom_site_symmetry_multiplicity
 _atom_site_fract_x
 _atom_site_fract_y
 _atom_site_fract_z
 _atom_site_occupancy
  Ni  Ni0  1  1.00258596  0.00409872  0.00376639  1
  Fe  Fe1  1  0.16975527  0.17122269  0.17076026  1
  Fe  Fe2  1  1.00159369  1.00316045  0.33653123  1
  Ni  Ni3  1  1.00159335  0.33636471  1.00292330  1
  Ni  Ni4  1  0.16850146  0.50322032  0.16989255  1
  Ni  Ni5  1  0.00350233  0.33805039  0.33664033  1
  Fe  Fe6  1  0.00385114  0.66953996  0.00369932  1
  Fe  Fe7  1  0.17058787  0.83576546  0.17025737  1
  Fe  Fe8  1  1.00254245  0.66951215  0.33707207  1
  Cr  Cr9  1  0.33574685  1.00088435  0.00432743  1
  Ni  Ni10  1  0.50324652  0.16795706  0.16984785  1
  Fe  Fe11  1  0.33850518  0.00358079  0.33555195  1
  Fe  Fe12  1  0.33495806  0.33846689  0.00363275  1
  Cr  Cr13  1  0.50174520  0.50341701  0.16860637  1
  Fe  Fe14  1  0.33535678  0.33595381  0.33654109  1
  Ni  Ni15  1  0.33668638  0.67021037  1.00224386  1
  Ni  Ni16  1  0.50454810  0.83814878  0.17033132  1
  Fe  Fe17  1  0.33601905  0.67063394  0.33643653  1
  Fe  Fe18  1  0.67247892  1.00328067  0.00504433  1
  Fe  Fe19  1  0.83711998  0.16970015  0.16888185  1
  Ni  Ni20  1  0.66905055  1.00235688  0.33701530  1
  Ni  Ni21  1  0.67246748  0.33742850  0.00367338  1
  Fe  Fe22  1  0.83874921  0.50346530  0.16961413  1
  Cr  Cr23  1  0.67193112  0.33520834  0.33827488  1
  Fe  Fe24  1  0.67061091  0.67058011  1.00258351  1
  Fe  Fe25  1  0.83600558  0.83700240  0.17057735  1
  Fe  Fe26  1  0.67160294  0.67266028  0.33774995  1
  Cr  Cr27  1  0.16995519  0.17042200  0.50346961  1
  Ni  Ni28  1  1.00320484  1.00261636  0.67049922  1
  Fe  Fe29  1  0.16705817  0.17084353  0.83595330  1
  Fe  Fe30  1  0.16896020  0.50422196  0.50246802  1
  Fe  Fe31  1  1.00163266  0.33682707  0.67050511  1
  Fe  Fe32  1  0.17046765  0.50283563  0.83771646  1
  Fe  Fe33  1  0.16892613  0.83593167  0.50386085  1
  Fe  Fe34  1  1.00257504  0.67016736  0.66939575  1
  Fe  Fe35  1  0.16933898  0.83648504  0.83605033  1
  Ni  Ni36  1  0.50401067  0.16939199  0.50400068  1
  Fe  Fe37  1  0.33689253  1.00258775  0.66996015  1
  Cr  Cr38  1  0.50461981  0.17165374  0.83671880  1
  Fe  Fe39  1  0.50404189  0.50331150  0.50495917  1
  Fe  Fe40  1  0.33723853  0.33772049  0.66998985  1
  Ni  Ni41  1  0.50242340  0.50494964  0.83738951  1
  Fe  Fe42  1  0.50474715  0.83751191  0.50255677  1
  Fe  Fe43  1  0.33687972  0.66986090  0.67095081  1
  Fe  Fe44  1  0.50418538  0.83402377  0.83675177  1
  Ni  Ni45  1  0.83572541  0.16885329  0.50442828  1
  Fe  Fe46  1  0.67160321  0.00353094  0.66826156  1
  Ni  Ni47  1  0.83879764  0.16917079  0.83644381  1
  Ni  Ni48  1  0.83769294  0.50510515  0.50415965  1
  Ni  Ni49  1  0.67086497  0.33762554  0.66818486  1
  Fe  Fe50  1  0.83564616  0.50201962  0.83651123  1
  Ni  Ni51  1  0.83681824  0.83621120  0.50328238  1
  Fe  Fe52  1  0.67071160  0.66981967  0.66983139  1
  Fe  Fe53  1  0.83664481  0.83743625  0.83622927  1
" 