2280,Ni31Fe50Cr17_12,-231.987737298677, 197.482132275851,Ni31Fe50Cr17,"# generated using pymatgen
 data_Cr10Fe27Ni17
_symmetry_space_group_name_H-M   'P 1'
_cell_length_a   7.43905313
_cell_length_b   7.43905313
_cell_length_c   10.52040983
_cell_angle_alpha   90.00000000
_cell_angle_beta   90.00000000
_cell_angle_gamma   90.00000000
_symmetry_Int_Tables_number   1
_chemical_formula_structural   Cr10Fe27Ni17
_chemical_formula_sum   'Cr10 Fe27 Ni17'
_cell_volume   582.19434077
_cell_formula_units_Z   1
loop_
 _symmetry_equiv_pos_site_id
 _symmetry_equiv_pos_as_xyz
  1  'x, y, z'
loop_
 _atom_site_type_symbol
 _atom_site_label
 _atom_site_symmetry_multiplicity
 _atom_site_fract_x
 _atom_site_fract_y
 _atom_site_fract_z
 _atom_site_occupancy
  Fe  Fe0  1  0.00287844  0.99956913  0.00397585  1
  Fe  Fe1  1  0.16650951  0.16837530  0.16936452  1
  Fe  Fe2  1  1.00081013  0.00371367  0.33439853  1
  Fe  Fe3  1  1.00156426  0.33797524  0.00247564  1
  Fe  Fe4  1  0.16886877  0.50232221  0.16746854  1
  Fe  Fe5  1  1.00155035  0.33372638  0.33460231  1
  Ni  Ni6  1  0.00227963  0.66756500  0.00199683  1
  Fe  Fe7  1  0.16994790  0.83506003  0.16812994  1
  Cr  Cr8  1  1.00159556  0.66651471  0.33307431  1
  Fe  Fe9  1  0.33528234  0.99878693  1.00123027  1
  Cr  Cr10  1  0.50235157  0.16855144  0.16788254  1
  Ni  Ni11  1  0.33537072  0.00337012  0.33455172  1
  Cr  Cr12  1  0.33471049  0.33558836  0.99995404  1
  Ni  Ni13  1  0.50160707  0.50246462  0.16924333  1
  Fe  Fe14  1  0.33511852  0.33681587  0.33507440  1
  Ni  Ni15  1  0.33448750  0.66784258  0.00292448  1
  Fe  Fe16  1  0.50239062  0.83334290  0.16695767  1
  Fe  Fe17  1  0.33653384  0.66774498  0.33454986  1
  Ni  Ni18  1  0.66819504  1.00134744  0.00378063  1
  Fe  Fe19  1  0.83573761  0.16959014  0.16867884  1
  Fe  Fe20  1  0.66934245  0.00200568  0.33559409  1
  Fe  Fe21  1  0.66806676  0.33923372  0.00244100  1
  Ni  Ni22  1  0.83473519  0.50156849  0.16554132  1
  Ni  Ni23  1  0.66903296  0.33451073  0.33463972  1
  Ni  Ni24  1  0.66906204  0.66899685  1.00168147  1
  Ni  Ni25  1  0.83660525  0.83667735  0.16842977  1
  Cr  Cr26  1  0.66978360  0.66807861  0.33531923  1
  Fe  Fe27  1  0.16760297  0.17063420  0.50067085  1
  Fe  Fe28  1  0.00237219  0.00244345  0.66744022  1
  Fe  Fe29  1  0.16879323  0.16929920  0.83597286  1
  Ni  Ni30  1  0.17099192  0.50107695  0.50091967  1
  Fe  Fe31  1  0.00490111  0.33450742  0.66862902  1
  Ni  Ni32  1  0.16815812  0.50366999  0.83452901  1
  Cr  Cr33  1  0.16904105  0.83346611  0.50277728  1
  Ni  Ni34  1  0.00296055  0.66583282  0.66975011  1
  Fe  Fe35  1  0.17022211  0.83205774  0.83601490  1
  Fe  Fe36  1  0.50064664  0.17105666  0.49979671  1
  Cr  Cr37  1  0.33636807  0.00413515  0.67281409  1
  Ni  Ni38  1  0.50296690  0.16934031  0.83633532  1
  Fe  Fe39  1  0.50015024  0.50033090  0.50201671  1
  Fe  Fe40  1  0.33473749  0.33766345  0.66959989  1
  Ni  Ni41  1  0.50054382  0.50294114  0.83404378  1
  Fe  Fe42  1  0.50060803  0.83407450  0.50181692  1
  Ni  Ni43  1  0.33419012  0.66688677  0.66866345  1
  Ni  Ni44  1  0.50088448  0.83370946  0.83797784  1
  Ni  Ni45  1  0.83480638  0.16794923  0.49922204  1
  Cr  Cr46  1  0.66726110  0.00314877  0.66515322  1
  Cr  Cr47  1  0.83443071  0.16962536  0.83803455  1
  Cr  Cr48  1  0.83639725  0.50047527  0.50559624  1
  Fe  Fe49  1  0.66606290  0.33606924  0.66845332  1
  Fe  Fe50  1  0.83397635  0.50228357  0.83574571  1
  Fe  Fe51  1  0.83665601  0.83534020  0.50230607  1
  Fe  Fe52  1  0.66503675  0.66798861  0.66977563  1
  Cr  Cr53  1  0.83642119  0.83426083  0.83358955  1
" 