4158,Ni31Fe50Cr17_13,-231.426308440812, 191.088816670949,Ni31Fe50Cr17,"# generated using pymatgen
 data_Cr10Fe27Ni17
_symmetry_space_group_name_H-M   'P 1'
_cell_length_a   7.44297613
_cell_length_b   7.44297613
_cell_length_c   10.52595779
_cell_angle_alpha   90.00000000
_cell_angle_beta   90.00000000
_cell_angle_gamma   90.00000000
_symmetry_Int_Tables_number   1
_chemical_formula_structural   Cr10Fe27Ni17
_chemical_formula_sum   'Cr10 Fe27 Ni17'
_cell_volume   583.11589128
_cell_formula_units_Z   1
loop_
 _symmetry_equiv_pos_site_id
 _symmetry_equiv_pos_as_xyz
  1  'x, y, z'
loop_
 _atom_site_type_symbol
 _atom_site_label
 _atom_site_symmetry_multiplicity
 _atom_site_fract_x
 _atom_site_fract_y
 _atom_site_fract_z
 _atom_site_occupancy
  Fe  Fe0  1  1.00079283  0.00255284  1.00125478  1
  Fe  Fe1  1  0.16931420  0.17017002  0.16819291  1
  Fe  Fe2  1  0.99980172  0.00337494  0.33503220  1
  Fe  Fe3  1  0.00412421  0.33359163  0.00194245  1
  Fe  Fe4  1  0.17064332  0.50028615  0.16756286  1
  Fe  Fe5  1  1.00097098  0.33533675  0.33525554  1
  Fe  Fe6  1  1.00111683  0.66880321  1.00082932  1
  Cr  Cr7  1  0.16957930  0.83587376  0.16914390  1
  Fe  Fe8  1  0.99981962  0.66631753  0.33621201  1
  Fe  Fe9  1  0.33781731  0.00493385  1.00108113  1
  Ni  Ni10  1  0.50197397  0.16853490  0.16891556  1
  Fe  Fe11  1  0.33933181  0.00446570  0.33502841  1
  Fe  Fe12  1  0.33585556  0.33382947  0.00234341  1
  Fe  Fe13  1  0.49986362  0.50003949  0.16894396  1
  Ni  Ni14  1  0.33530852  0.33710297  0.33362482  1
  Fe  Fe15  1  0.33697198  0.66623526  1.00057004  1
  Cr  Cr16  1  0.50154386  0.83537561  0.16949889  1
  Ni  Ni17  1  0.33366704  0.66443446  0.33505959  1
  Ni  Ni18  1  0.66887302  0.00217144  1.00116146  1
  Fe  Fe19  1  0.83321114  0.16580109  0.16886588  1
  Ni  Ni20  1  0.67082133  0.00277103  0.33591740  1
  Fe  Fe21  1  0.66494233  0.33316674  0.00293190  1
  Cr  Cr22  1  0.83307882  0.49998576  0.16790118  1
  Ni  Ni23  1  0.66644417  0.33273733  0.33400800  1
  Fe  Fe24  1  0.66670411  0.66986246  1.00024402  1
  Fe  Fe25  1  0.83383177  0.83717136  0.16745718  1
  Fe  Fe26  1  0.66647773  0.66713491  0.33756285  1
  Cr  Cr27  1  0.16982107  0.16911457  0.50186389  1
  Cr  Cr28  1  0.99812052  0.00198416  0.66950712  1
  Ni  Ni29  1  0.17073037  0.17062718  0.83563335  1
  Fe  Fe30  1  0.16938479  0.50084753  0.50115931  1
  Fe  Fe31  1  1.00121648  0.33593694  0.66739019  1
  Ni  Ni32  1  0.16922982  0.49911432  0.83542094  1
  Cr  Cr33  1  0.17454713  0.83503545  0.50050053  1
  Cr  Cr34  1  0.00199309  0.66796856  0.66762088  1
  Cr  Cr35  1  0.17209789  0.83601572  0.83516140  1
  Fe  Fe36  1  0.50420881  0.16822575  0.49999745  1
  Fe  Fe37  1  0.33980567  0.00166003  0.66916185  1
  Fe  Fe38  1  0.50104623  0.16749355  0.83566929  1
  Fe  Fe39  1  0.50204932  0.50117061  0.50126185  1
  Fe  Fe40  1  0.33641507  0.33555104  0.66909765  1
  Fe  Fe41  1  0.50015216  0.50196933  0.83423729  1
  Ni  Ni42  1  0.50169751  0.83439796  0.50125858  1
  Ni  Ni43  1  0.33690219  0.66484921  0.66906032  1
  Ni  Ni44  1  0.50247868  0.83520463  0.83458349  1
  Ni  Ni45  1  0.83335504  0.17268177  0.50049804  1
  Ni  Ni46  1  0.66695929  0.00225974  0.66788160  1
  Cr  Cr47  1  0.83384377  0.17083793  0.83486403  1
  Ni  Ni48  1  0.83261198  0.49897174  0.50183417  1
  Ni  Ni49  1  0.66514305  0.33376632  0.66736299  1
  Cr  Cr50  1  0.83271277  0.50062909  0.83411548  1
  Fe  Fe51  1  0.83171499  0.83570312  0.50136258  1
  Ni  Ni52  1  0.66538166  0.66896555  0.66775903  1
  Ni  Ni53  1  0.83082079  0.83427874  0.83651623  1
" 