3389,Ni31Fe50Cr17_4,-231.598416712782, 194.585390018222,Ni31Fe50Cr17,"# generated using pymatgen
 data_Cr10Fe27Ni17
_symmetry_space_group_name_H-M   'P 1'
_cell_length_a   7.43785624
_cell_length_b   7.43785624
_cell_length_c   10.51871716
_cell_angle_alpha   90.00000000
_cell_angle_beta   90.00000000
_cell_angle_gamma   90.00000000
_symmetry_Int_Tables_number   1
_chemical_formula_structural   Cr10Fe27Ni17
_chemical_formula_sum   'Cr10 Fe27 Ni17'
_cell_volume   581.91337210
_cell_formula_units_Z   1
loop_
 _symmetry_equiv_pos_site_id
 _symmetry_equiv_pos_as_xyz
  1  'x, y, z'
loop_
 _atom_site_type_symbol
 _atom_site_label
 _atom_site_symmetry_multiplicity
 _atom_site_fract_x
 _atom_site_fract_y
 _atom_site_fract_z
 _atom_site_occupancy
  Fe  Fe0  1  1.00014382  0.00312528  0.00297504  1
  Fe  Fe1  1  0.16668153  0.16830943  0.16847219  1
  Cr  Cr2  1  0.00227641  1.00125663  0.33549900  1
  Ni  Ni3  1  1.00117378  0.33440185  1.00116910  1
  Fe  Fe4  1  0.16455020  0.50373803  0.16795092  1
  Ni  Ni5  1  0.00226281  0.33608947  0.33589468  1
  Fe  Fe6  1  1.00031670  0.66670186  0.00372961  1
  Ni  Ni7  1  0.16643579  0.83656658  0.16741864  1
  Ni  Ni8  1  1.00060934  0.66850377  0.33443485  1
  Fe  Fe9  1  0.33529107  0.00265203  0.00241105  1
  Fe  Fe10  1  0.50359030  0.16657570  0.16778211  1
  Ni  Ni11  1  0.33416057  1.00139726  0.33516248  1
  Cr  Cr12  1  0.33460992  0.33522744  1.00182312  1
  Cr  Cr13  1  0.50701743  0.50167840  0.16850642  1
  Cr  Cr14  1  0.33122552  0.33455217  0.33477330  1
  Fe  Fe15  1  0.33537493  0.66786597  1.00139431  1
  Cr  Cr16  1  0.50180731  0.83592386  0.16878626  1
  Cr  Cr17  1  0.33254706  0.67008383  0.33676969  1
  Fe  Fe18  1  0.67011965  0.00411130  1.00125795  1
  Fe  Fe19  1  0.83567136  0.16899081  0.16702195  1
  Ni  Ni20  1  0.66968276  0.99953627  0.33516994  1
  Ni  Ni21  1  0.67041297  0.33568217  1.00073049  1
  Ni  Ni22  1  0.83685470  0.50147692  0.16822854  1
  Cr  Cr23  1  0.67197705  0.33533069  0.33525888  1
  Ni  Ni24  1  0.66994605  0.66981820  0.99961827  1
  Fe  Fe25  1  0.83490086  0.83218320  0.16871928  1
  Ni  Ni26  1  0.67141344  0.67072253  0.33803260  1
  Ni  Ni27  1  0.16821078  0.16827947  0.50351862  1
  Fe  Fe28  1  1.00117410  0.00318673  0.66705689  1
  Fe  Fe29  1  0.16853110  0.17043377  0.83354498  1
  Fe  Fe30  1  0.16548077  0.50168501  0.50373759  1
  Ni  Ni31  1  0.00339033  0.33459748  0.66909588  1
  Fe  Fe32  1  0.16832054  0.50017802  0.83411927  1
  Ni  Ni33  1  0.16707458  0.83583425  0.50271280  1
  Fe  Fe34  1  1.00132392  0.66688377  0.66681555  1
  Cr  Cr35  1  0.16626530  0.83556962  0.83528637  1
  Cr  Cr36  1  0.50112235  0.16893379  0.49983946  1
  Fe  Fe37  1  0.33486081  0.00385177  0.66818711  1
  Ni  Ni38  1  0.50250494  0.16881787  0.83657814  1
  Fe  Fe39  1  0.50121884  0.50508406  0.50418875  1
  Ni  Ni40  1  0.33418479  0.33576135  0.66998305  1
  Ni  Ni41  1  0.50321832  0.50161921  0.83530560  1
  Fe  Fe42  1  0.50228764  0.83620892  0.50220172  1
  Fe  Fe43  1  0.33547759  0.66649244  0.66803328  1
  Fe  Fe44  1  0.50328517  0.83539521  0.83573175  1
  Fe  Fe45  1  0.83853930  0.16681261  0.50282042  1
  Fe  Fe46  1  0.66951690  1.00139969  0.66863908  1
  Fe  Fe47  1  0.83632323  0.16880292  0.83621896  1
  Fe  Fe48  1  0.83928626  0.50272672  0.50134766  1
  Cr  Cr49  1  0.66955669  0.33592746  0.66968075  1
  Fe  Fe50  1  0.83660700  0.50177263  0.83718956  1
  Ni  Ni51  1  0.83597034  0.83298504  0.50219157  1
  Fe  Fe52  1  0.66895938  0.66893866  0.66881150  1
  Fe  Fe53  1  0.83222267  0.83528682  0.83413999  1
" 