370,Ni31Fe67Cr1_9,-235.113732424755, 199.015239908205,Ni31Fe67Cr1,"# generated using pymatgen
 data_Cr(Fe9Ni4)2
_symmetry_space_group_name_H-M   'P 1'
_cell_length_a   7.40596108
_cell_length_b   7.40596108
_cell_length_c   10.47361060
_cell_angle_alpha   90.00000000
_cell_angle_beta   90.00000000
_cell_angle_gamma   90.00000000
_symmetry_Int_Tables_number   1
_chemical_formula_structural   Cr(Fe9Ni4)2
_chemical_formula_sum   'Cr2 Fe36 Ni16'
_cell_volume   574.45931135
_cell_formula_units_Z   2
loop_
 _symmetry_equiv_pos_site_id
 _symmetry_equiv_pos_as_xyz
  1  'x, y, z'
loop_
 _atom_site_type_symbol
 _atom_site_label
 _atom_site_symmetry_multiplicity
 _atom_site_fract_x
 _atom_site_fract_y
 _atom_site_fract_z
 _atom_site_occupancy
  Cr  Cr0  1  0.00414902  0.00490737  1.00301371  1
  Ni  Ni1  1  0.17145930  0.17083191  0.17194618  1
  Fe  Fe2  1  0.00529900  0.00464931  0.33708507  1
  Ni  Ni3  1  0.00479203  0.33860666  1.00359247  1
  Fe  Fe4  1  0.17111166  0.50342714  0.17117809  1
  Ni  Ni5  1  0.00490707  0.33669845  0.33737980  1
  Ni  Ni6  1  1.00306430  0.66924306  0.00450014  1
  Fe  Fe7  1  0.17208351  0.83623143  0.17118294  1
  Fe  Fe8  1  0.00485420  0.66994187  0.33751148  1
  Fe  Fe9  1  0.33786923  1.00375666  1.00385403  1
  Fe  Fe10  1  0.50349903  0.17125823  0.17110223  1
  Fe  Fe11  1  0.33670402  0.00471708  0.33722148  1
  Fe  Fe12  1  0.33684522  0.33788641  0.00446935  1
  Ni  Ni13  1  0.50486100  0.50480570  0.17152348  1
  Ni  Ni14  1  0.33682150  0.33747160  0.33716710  1
  Fe  Fe15  1  0.33685820  0.67072858  0.00468365  1
  Fe  Fe16  1  0.50380716  0.83717144  0.17082849  1
  Ni  Ni17  1  0.33830083  0.67060387  0.33793493  1
  Fe  Fe18  1  0.67034968  1.00392094  1.00405175  1
  Fe  Fe19  1  0.83700010  0.17223366  0.17124942  1
  Fe  Fe20  1  0.67036951  0.00464489  0.33749298  1
  Fe  Fe21  1  0.67205073  0.33840763  1.00399048  1
  Fe  Fe22  1  0.83793611  0.50373627  0.17028230  1
  Fe  Fe23  1  0.67026882  0.33825542  0.33745375  1
  Ni  Ni24  1  0.67081460  0.67154730  1.00412378  1
  Fe  Fe25  1  0.83648146  0.83640397  0.17121937  1
  Fe  Fe26  1  0.67033715  0.66947310  0.33755181  1
  Fe  Fe27  1  0.17031208  0.17214168  0.50408280  1
  Fe  Fe28  1  0.00446269  0.00622032  0.67153528  1
  Ni  Ni29  1  0.17083385  0.17026149  0.83587520  1
  Fe  Fe30  1  0.17135441  0.50271980  0.50300599  1
  Ni  Ni31  1  0.00518269  0.33511513  0.67139563  1
  Fe  Fe32  1  0.17025768  0.50240827  0.83819467  1
  Fe  Fe33  1  0.17132252  0.83750557  0.50352496  1
  Cr  Cr34  1  1.00262422  0.67018275  0.67188042  1
  Ni  Ni35  1  0.17305241  0.83842848  0.83754328  1
  Fe  Fe36  1  0.50422244  0.17145931  0.50412188  1
  Fe  Fe37  1  0.33682354  0.00427749  0.67129587  1
  Fe  Fe38  1  0.50384724  0.17077046  0.83714759  1
  Fe  Fe39  1  0.50404869  0.50428244  0.50363597  1
  Ni  Ni40  1  0.33681529  0.33626909  0.67070175  1
  Fe  Fe41  1  0.50422614  0.50398040  0.83767118  1
  Fe  Fe42  1  0.50477360  0.83663182  0.50415200  1
  Fe  Fe43  1  0.33882898  0.67032161  0.67041020  1
  Fe  Fe44  1  0.50465177  0.83762507  0.83739259  1
  Fe  Fe45  1  0.83783901  0.17142227  0.50446813  1
  Fe  Fe46  1  0.67108877  0.00469286  0.67082552  1
  Ni  Ni47  1  0.83766660  0.17273460  0.83607464  1
  Ni  Ni48  1  0.83596627  0.50334200  0.50267931  1
  Fe  Fe49  1  0.67153763  0.33828792  0.67092732  1
  Ni  Ni50  1  0.83593552  0.50295281  0.83887789  1
  Fe  Fe51  1  0.83627428  0.83767879  0.50341899  1
  Ni  Ni52  1  0.66943781  0.67207897  0.67053980  1
  Fe  Fe53  1  0.83642331  0.83735255  0.83773478  1
" 