1554,Ni31Cr69_15,-227.558105416153, 143.558917570172,Ni31Cr69,"# generated using pymatgen
 data_Cr8Ni19
_symmetry_space_group_name_H-M   'P 1'
_cell_length_a   7.48773560
_cell_length_b   7.48773560
_cell_length_c   10.58925724
_cell_angle_alpha   90.00000000
_cell_angle_beta   90.00000000
_cell_angle_gamma   90.00000000
_symmetry_Int_Tables_number   1
_chemical_formula_structural   Cr8Ni19
_chemical_formula_sum   'Cr16 Ni38'
_cell_volume   593.69924924
_cell_formula_units_Z   2
loop_
 _symmetry_equiv_pos_site_id
 _symmetry_equiv_pos_as_xyz
  1  'x, y, z'
loop_
 _atom_site_type_symbol
 _atom_site_label
 _atom_site_symmetry_multiplicity
 _atom_site_fract_x
 _atom_site_fract_y
 _atom_site_fract_z
 _atom_site_occupancy
  Cr  Cr0  1  0.99786035  0.99784261  -0.00091037  1
  Ni  Ni1  1  0.16616996  0.16593042  0.16633620  1
  Ni  Ni2  1  -0.00052868  0.99626760  0.33298332  1
  Ni  Ni3  1  0.99655308  0.33431087  -0.00126516  1
  Ni  Ni4  1  0.16564930  0.50057080  0.16522594  1
  Cr  Cr5  1  0.00145773  0.33107997  0.33210418  1
  Ni  Ni6  1  0.99793623  0.66454280  -0.00127554  1
  Ni  Ni7  1  0.16454139  0.82938148  0.16612207  1
  Ni  Ni8  1  0.00184789  0.66830247  0.33162243  1
  Cr  Cr9  1  0.33453266  0.99671354  -0.00028534  1
  Ni  Ni10  1  0.49846294  0.16538821  0.16504286  1
  Cr  Cr11  1  0.33070349  -0.00096720  0.33053803  1
  Cr  Cr12  1  0.33078785  0.33100747  0.00080109  1
  Cr  Cr13  1  0.49742140  0.49861824  0.16600151  1
  Ni  Ni14  1  0.33238715  0.33286595  0.33273459  1
  Ni  Ni15  1  0.33137315  0.66767081  -0.00024187  1
  Ni  Ni16  1  0.49808772  0.83194872  0.16283985  1
  Ni  Ni17  1  0.32940092  0.66399004  0.33257854  1
  Ni  Ni18  1  0.66432136  0.99748163  0.99785477  1
  Cr  Cr19  1  0.83102427  0.16440511  0.16489720  1
  Cr  Cr20  1  0.66586776  0.99834578  0.33234823  1
  Ni  Ni21  1  0.66737515  0.33065828  0.99672355  1
  Cr  Cr22  1  0.83295189  0.49991409  0.16314158  1
  Ni  Ni23  1  0.66187091  0.33043020  0.33381241  1
  Ni  Ni24  1  0.66654165  0.66771242  0.99803906  1
  Ni  Ni25  1  0.83325302  0.83142722  0.16470674  1
  Cr  Cr26  1  0.66458716  0.66666981  0.33303541  1
  Ni  Ni27  1  0.16615492  0.16434226  0.49903109  1
  Ni  Ni28  1  0.99805653  0.99632357  0.66381817  1
  Cr  Cr29  1  0.16534635  0.16324476  0.83020815  1
  Ni  Ni30  1  0.16916399  0.50053660  0.49820066  1
  Cr  Cr31  1  0.99791841  0.33164568  0.66558372  1
  Cr  Cr32  1  0.16410242  0.50206593  0.83221443  1
  Ni  Ni33  1  0.16420820  0.83098759  0.49956255  1
  Ni  Ni34  1  0.00046988  0.66867536  0.66550346  1
  Ni  Ni35  1  0.16504666  0.83008379  0.83014863  1
  Ni  Ni36  1  0.49885718  0.16767069  0.50030143  1
  Ni  Ni37  1  0.33286005  0.99792707  0.66497887  1
  Ni  Ni38  1  0.50282157  0.16361345  0.83046666  1
  Ni  Ni39  1  0.49501931  0.49639790  0.49819587  1
  Ni  Ni40  1  0.33428730  0.33069843  0.66203749  1
  Cr  Cr41  1  0.49979521  0.49858226  0.83172677  1
  Ni  Ni42  1  0.49667883  0.83176001  0.50032622  1
  Ni  Ni43  1  0.33031339  0.66722059  0.66349901  1
  Ni  Ni44  1  0.49881150  0.83371239  0.83264884  1
  Ni  Ni45  1  0.83083320  0.16270108  0.49948733  1
  Ni  Ni46  1  0.66494467  0.00028987  0.66565521  1
  Ni  Ni47  1  0.82818098  0.16535406  0.83206908  1
  Cr  Cr48  1  0.83133267  0.49861477  0.49815355  1
  Ni  Ni49  1  0.66345564  0.32834603  0.66532731  1
  Ni  Ni50  1  0.83175986  0.49839887  0.83453958  1
  Ni  Ni51  1  0.83498701  0.83480745  0.49893514  1
  Cr  Cr52  1  0.66555478  0.66677904  0.66503930  1
  Ni  Ni53  1  0.83200305  0.83211240  0.83223142  1
" 