4972,Ni31Fe67Cr1_0,-234.916763250214, 199.671222533872,Ni31Fe67Cr1,"# generated using pymatgen
 data_Cr(Fe9Ni4)2
_symmetry_space_group_name_H-M   'P 1'
_cell_length_a   7.40746112
_cell_length_b   7.40746112
_cell_length_c   10.47573198
_cell_angle_alpha   90.00000000
_cell_angle_beta   90.00000000
_cell_angle_gamma   90.00000000
_symmetry_Int_Tables_number   1
_chemical_formula_structural   Cr(Fe9Ni4)2
_chemical_formula_sum   'Cr2 Fe36 Ni16'
_cell_volume   574.80844482
_cell_formula_units_Z   2
loop_
 _symmetry_equiv_pos_site_id
 _symmetry_equiv_pos_as_xyz
  1  'x, y, z'
loop_
 _atom_site_type_symbol
 _atom_site_label
 _atom_site_symmetry_multiplicity
 _atom_site_fract_x
 _atom_site_fract_y
 _atom_site_fract_z
 _atom_site_occupancy
  Fe  Fe0  1  0.00466670  1.00264803  1.00384565  1
  Fe  Fe1  1  0.16995808  0.16909953  0.17109812  1
  Fe  Fe2  1  1.00377502  1.00196815  0.33674010  1
  Ni  Ni3  1  1.00349247  0.33615568  0.00504985  1
  Fe  Fe4  1  0.17063185  0.50566152  0.16917710  1
  Ni  Ni5  1  1.00401701  0.33809836  0.33582822  1
  Fe  Fe6  1  0.00508870  0.66996284  0.00408202  1
  Ni  Ni7  1  0.17055285  0.83668483  0.17022368  1
  Fe  Fe8  1  1.00362864  0.67052292  0.33699052  1
  Fe  Fe9  1  0.33698094  0.00456816  0.00452375  1
  Fe  Fe10  1  0.50424879  0.16881668  0.17056893  1
  Fe  Fe11  1  0.33784690  1.00372770  0.33592342  1
  Fe  Fe12  1  0.33678203  0.33795231  1.00325232  1
  Fe  Fe13  1  0.50401971  0.50683291  0.17036480  1
  Fe  Fe14  1  0.33814359  0.33813542  0.33645361  1
  Ni  Ni15  1  0.33871795  0.67161279  0.00491838  1
  Ni  Ni16  1  0.50462985  0.83742162  0.17022192  1
  Fe  Fe17  1  0.33651001  0.67057057  0.33646286  1
  Fe  Fe18  1  0.67046359  1.00393643  1.00337304  1
  Fe  Fe19  1  0.83774691  0.16883280  0.17065080  1
  Fe  Fe20  1  0.67037203  1.00299584  0.33706125  1
  Fe  Fe21  1  0.66985782  0.33764944  1.00392574  1
  Fe  Fe22  1  0.83756026  0.50533949  0.17117140  1
  Fe  Fe23  1  0.67006237  0.33865384  0.33683435  1
  Fe  Fe24  1  0.67179502  0.67041633  1.00391425  1
  Ni  Ni25  1  0.83719652  0.83662565  0.17008813  1
  Fe  Fe26  1  0.67197679  0.67064355  0.33760068  1
  Cr  Cr27  1  0.17255326  0.17093753  0.50589601  1
  Ni  Ni28  1  1.00316748  0.00434647  0.67189195  1
  Fe  Fe29  1  0.17036360  0.17182051  0.83705213  1
  Fe  Fe30  1  0.16939840  0.50477801  0.50494714  1
  Ni  Ni31  1  0.00422788  0.33804873  0.67169890  1
  Ni  Ni32  1  0.17022867  0.50498702  0.83720627  1
  Fe  Fe33  1  0.16996487  0.83637303  0.50393146  1
  Fe  Fe34  1  1.00321365  0.67171090  0.67101193  1
  Fe  Fe35  1  0.17242018  0.83671133  0.83778028  1
  Ni  Ni36  1  0.50326950  0.17083372  0.50399688  1
  Fe  Fe37  1  0.33891120  1.00261390  0.67199599  1
  Ni  Ni38  1  0.50427852  0.17014368  0.83706134  1
  Fe  Fe39  1  0.50533028  0.50396254  0.50408635  1
  Fe  Fe40  1  0.33932537  0.33830170  0.67248144  1
  Fe  Fe41  1  0.50260148  0.50503105  0.83756380  1
  Fe  Fe42  1  0.50528587  0.83790471  0.50339075  1
  Ni  Ni43  1  0.33831800  0.67068576  0.66935542  1
  Fe  Fe44  1  0.50305182  0.83626520  0.83798650  1
  Cr  Cr45  1  0.83566139  0.17065223  0.50481320  1
  Ni  Ni46  1  0.66994816  1.00260274  0.67070584  1
  Fe  Fe47  1  0.83767577  0.17148171  0.83701944  1
  Ni  Ni48  1  0.83787851  0.50577448  0.50502351  1
  Fe  Fe49  1  0.66960491  0.33829562  0.67153533  1
  Fe  Fe50  1  0.83715871  0.50296869  0.83662598  1
  Ni  Ni51  1  0.83758615  0.83512387  0.50429170  1
  Ni  Ni52  1  0.66835698  0.67183532  0.67091989  1
  Fe  Fe53  1  0.83668819  0.83746731  0.83657683  1
" 