3147,Ni31Fe60Cr8_12,-234.115127125084, 199.438209454753,Ni31Fe60Cr8,"# generated using pymatgen
 data_Cr5Fe32Ni17
_symmetry_space_group_name_H-M   'P 1'
_cell_length_a   7.41831001
_cell_length_b   7.41831001
_cell_length_c   10.49107463
_cell_angle_alpha   90.00000000
_cell_angle_beta   90.00000000
_cell_angle_gamma   90.00000000
_symmetry_Int_Tables_number   1
_chemical_formula_structural   Cr5Fe32Ni17
_chemical_formula_sum   'Cr5 Fe32 Ni17'
_cell_volume   577.33772105
_cell_formula_units_Z   1
loop_
 _symmetry_equiv_pos_site_id
 _symmetry_equiv_pos_as_xyz
  1  'x, y, z'
loop_
 _atom_site_type_symbol
 _atom_site_label
 _atom_site_symmetry_multiplicity
 _atom_site_fract_x
 _atom_site_fract_y
 _atom_site_fract_z
 _atom_site_occupancy
  Cr  Cr0  1  0.00357278  0.00343879  1.00303216  1
  Fe  Fe1  1  0.17056607  0.16998930  0.17058401  1
  Fe  Fe2  1  1.00189194  1.00309202  0.33557080  1
  Fe  Fe3  1  0.00416434  0.33763136  1.00321218  1
  Fe  Fe4  1  0.16964196  0.50403567  0.17079507  1
  Ni  Ni5  1  1.00281082  0.33774673  0.33665636  1
  Fe  Fe6  1  0.00422658  0.66938907  0.00387008  1
  Ni  Ni7  1  0.17019706  0.83556642  0.17095536  1
  Fe  Fe8  1  0.00330272  0.66989934  0.33658594  1
  Ni  Ni9  1  0.33696984  1.00140663  0.00448962  1
  Fe  Fe10  1  0.50303495  0.16884003  0.17027044  1
  Fe  Fe11  1  0.33667063  1.00231552  0.33499040  1
  Fe  Fe12  1  0.33544501  0.33707064  0.00393446  1
  Fe  Fe13  1  0.50289332  0.50411685  0.17000953  1
  Ni  Ni14  1  0.33490852  0.33800980  0.33416503  1
  Ni  Ni15  1  0.33721981  0.67045380  1.00263982  1
  Fe  Fe16  1  0.50305667  0.83689413  0.16959569  1
  Fe  Fe17  1  0.33563993  0.67029073  0.33561657  1
  Fe  Fe18  1  0.66857366  1.00177713  0.00440013  1
  Fe  Fe19  1  0.83625273  0.16982737  0.17118259  1
  Ni  Ni20  1  0.67127235  1.00177251  0.33634862  1
  Fe  Fe21  1  0.67024552  0.33706450  1.00327208  1
  Fe  Fe22  1  0.83731903  0.50405168  0.16998604  1
  Fe  Fe23  1  0.67168256  0.33583976  0.33564966  1
  Fe  Fe24  1  0.66912688  0.67101128  1.00325805  1
  Ni  Ni25  1  0.83625930  0.83566531  0.16990419  1
  Fe  Fe26  1  0.67090975  0.67096876  0.33606034  1
  Cr  Cr27  1  0.16878557  0.17162767  0.50343832  1
  Fe  Fe28  1  1.00246168  0.00404132  0.67102436  1
  Ni  Ni29  1  0.16911582  0.17166485  0.83635686  1
  Ni  Ni30  1  0.16884706  0.50421322  0.50289282  1
  Fe  Fe31  1  1.00300553  0.33639618  0.67035677  1
  Fe  Fe32  1  0.17047362  0.50262536  0.83613275  1
  Fe  Fe33  1  0.17002596  0.83523425  0.50310073  1
  Fe  Fe34  1  0.00377952  0.66942496  0.66940052  1
  Fe  Fe35  1  0.17156917  0.83731165  0.83674495  1
  Cr  Cr36  1  0.50462211  0.16899300  0.50415510  1
  Ni  Ni37  1  0.33571706  1.00087062  0.67043070  1
  Cr  Cr38  1  0.50244587  0.16927929  0.83574420  1
  Cr  Cr39  1  0.50193547  0.50400459  0.50392294  1
  Ni  Ni40  1  0.33554955  0.33783939  0.67208613  1
  Fe  Fe41  1  0.50325043  0.50398324  0.83630602  1
  Ni  Ni42  1  0.50445462  0.83608328  0.50263497  1
  Fe  Fe43  1  0.33665405  0.67040236  0.67092076  1
  Ni  Ni44  1  0.50327991  0.83479654  0.83742650  1
  Ni  Ni45  1  0.83682660  0.16928505  0.50315127  1
  Fe  Fe46  1  0.67082508  1.00242975  0.66910988  1
  Ni  Ni47  1  0.83796899  0.17111116  0.83587831  1
  Fe  Fe48  1  0.83817277  0.50304869  0.50334292  1
  Ni  Ni49  1  0.67250116  0.33745922  0.66945936  1
  Fe  Fe50  1  0.83613510  0.50235287  0.83652381  1
  Ni  Ni51  1  0.83595763  0.83692947  0.50333683  1
  Fe  Fe52  1  0.66942058  0.67094601  0.67053807  1
  Fe  Fe53  1  0.83575182  0.83686833  0.83593637  1
" 