1357,Ni31Cr69_5,-227.504004275131, 143.113075371088,Ni31Cr69,"# generated using pymatgen
 data_Cr8Ni19
_symmetry_space_group_name_H-M   'P 1'
_cell_length_a   7.48828097
_cell_length_b   7.48828097
_cell_length_c   10.59002850
_cell_angle_alpha   90.00000000
_cell_angle_beta   90.00000000
_cell_angle_gamma   90.00000000
_symmetry_Int_Tables_number   1
_chemical_formula_structural   Cr8Ni19
_chemical_formula_sum   'Cr16 Ni38'
_cell_volume   593.82898414
_cell_formula_units_Z   2
loop_
 _symmetry_equiv_pos_site_id
 _symmetry_equiv_pos_as_xyz
  1  'x, y, z'
loop_
 _atom_site_type_symbol
 _atom_site_label
 _atom_site_symmetry_multiplicity
 _atom_site_fract_x
 _atom_site_fract_y
 _atom_site_fract_z
 _atom_site_occupancy
  Cr  Cr0  1  -0.00122057  0.99832031  -0.00013920  1
  Ni  Ni1  1  0.16142383  0.16486211  0.16689147  1
  Ni  Ni2  1  0.99767550  0.00094703  0.33109980  1
  Ni  Ni3  1  0.99807627  0.33453933  -0.00012923  1
  Ni  Ni4  1  0.16408161  0.49998252  0.16412096  1
  Ni  Ni5  1  -0.00011029  0.32868305  0.33046521  1
  Ni  Ni6  1  -0.00078506  0.66234548  -0.00089311  1
  Ni  Ni7  1  0.16653321  0.83088560  0.16584089  1
  Cr  Cr8  1  0.99786679  0.66512100  0.33034451  1
  Cr  Cr9  1  0.33101188  0.99676334  -0.00098770  1
  Cr  Cr10  1  0.50016925  0.16419318  0.16543538  1
  Ni  Ni11  1  0.33105565  0.99787022  0.33028241  1
  Cr  Cr12  1  0.33036089  0.33433172  0.99788104  1
  Ni  Ni13  1  0.49872283  0.50248310  0.16519866  1
  Cr  Cr14  1  0.32946990  0.33285444  0.33417659  1
  Ni  Ni15  1  0.33124427  0.66395516  -0.00026026  1
  Ni  Ni16  1  0.49716079  0.82937445  0.16768987  1
  Ni  Ni17  1  0.33398759  0.66548261  0.32957276  1
  Cr  Cr18  1  0.66599538  0.99709160  -0.00123231  1
  Ni  Ni19  1  0.83451574  0.16641152  0.16610430  1
  Ni  Ni20  1  0.66699887  0.99640757  0.33200793  1
  Ni  Ni21  1  0.66777394  0.33496065  -0.00046332  1
  Ni  Ni22  1  0.83297181  0.49732525  0.16354813  1
  Cr  Cr23  1  0.66637449  0.33269972  0.33162569  1
  Cr  Cr24  1  0.66571472  0.66402869  -0.00141743  1
  Ni  Ni25  1  0.83204361  0.83201359  0.16719003  1
  Ni  Ni26  1  0.66327920  0.66777966  0.33000106  1
  Ni  Ni27  1  0.16344069  0.16701205  0.49860147  1
  Ni  Ni28  1  0.99560974  -0.00062208  0.66422959  1
  Ni  Ni29  1  0.16359358  0.16851063  0.83024924  1
  Ni  Ni30  1  0.16715978  0.49647431  0.50062048  1
  Ni  Ni31  1  0.00075780  0.33181616  0.66542233  1
  Ni  Ni32  1  0.16444992  0.49832677  0.83103838  1
  Cr  Cr33  1  0.16392283  0.83114968  0.49814537  1
  Ni  Ni34  1  0.99715348  0.66455473  0.66678410  1
  Cr  Cr35  1  0.16479964  0.82921595  0.83147025  1
  Ni  Ni36  1  0.49966631  0.16608867  0.49976054  1
  Cr  Cr37  1  0.33167600  0.00126701  0.66621067  1
  Cr  Cr38  1  0.49935837  0.16662451  0.83082828  1
  Ni  Ni39  1  0.49673110  0.49819973  0.50046307  1
  Ni  Ni40  1  0.33102696  0.33446950  0.66428955  1
  Ni  Ni41  1  0.49855430  0.50050323  0.83011985  1
  Cr  Cr42  1  0.50025298  0.83097669  0.49704512  1
  Ni  Ni43  1  0.33307416  0.66037225  0.66641275  1
  Ni  Ni44  1  0.49988148  0.82842908  0.83069212  1
  Ni  Ni45  1  0.83263281  0.16286948  0.49911187  1
  Ni  Ni46  1  0.66812461  0.99731168  0.66439390  1
  Cr  Cr47  1  0.83278088  0.16752319  0.83111981  1
  Cr  Cr48  1  0.83214921  0.49842633  0.50014454  1
  Ni  Ni49  1  0.66397008  0.33293247  0.66482768  1
  Ni  Ni50  1  0.83276478  0.49936306  0.83182955  1
  Ni  Ni51  1  0.83093101  0.83513771  0.49992358  1
  Ni  Ni52  1  0.66550576  0.66550429  0.66713947  1
  Ni  Ni53  1  0.83107992  0.82929029  0.82861261  1
" 