1848,Ni31Fe67Cr1_17,-234.782843368386, 202.691680825101,Ni31Fe67Cr1,"# generated using pymatgen
 data_Cr(Fe9Ni4)2
_symmetry_space_group_name_H-M   'P 1'
_cell_length_a   7.40131319
_cell_length_b   7.40131319
_cell_length_c   10.46703750
_cell_angle_alpha   90.00000000
_cell_angle_beta   90.00000000
_cell_angle_gamma   90.00000000
_symmetry_Int_Tables_number   1
_chemical_formula_structural   Cr(Fe9Ni4)2
_chemical_formula_sum   'Cr2 Fe36 Ni16'
_cell_volume   573.37842128
_cell_formula_units_Z   2
loop_
 _symmetry_equiv_pos_site_id
 _symmetry_equiv_pos_as_xyz
  1  'x, y, z'
loop_
 _atom_site_type_symbol
 _atom_site_label
 _atom_site_symmetry_multiplicity
 _atom_site_fract_x
 _atom_site_fract_y
 _atom_site_fract_z
 _atom_site_occupancy
  Ni  Ni0  1  1.00415055  0.00473641  0.00461608  1
  Fe  Fe1  1  0.17176124  0.17082393  0.17132573  1
  Fe  Fe2  1  1.00404724  1.00367127  0.33687325  1
  Fe  Fe3  1  0.00450191  0.33738032  0.00460949  1
  Fe  Fe4  1  0.17116235  0.50367044  0.17265963  1
  Ni  Ni5  1  1.00225050  0.33857876  0.33705243  1
  Fe  Fe6  1  1.00310345  0.67169200  1.00420370  1
  Ni  Ni7  1  0.16975531  0.83865689  0.17269104  1
  Fe  Fe8  1  0.00507858  0.67085075  0.33846732  1
  Fe  Fe9  1  0.33750863  0.00577885  0.00513578  1
  Ni  Ni10  1  0.50413725  0.17207604  0.17072439  1
  Ni  Ni11  1  0.33845985  1.00177973  0.33617096  1
  Fe  Fe12  1  0.33766137  0.33587839  0.00469281  1
  Ni  Ni13  1  0.50518747  0.50283750  0.17200007  1
  Fe  Fe14  1  0.33874324  0.33876783  0.33677762  1
  Cr  Cr15  1  0.33805128  0.67147806  0.00481836  1
  Fe  Fe16  1  0.50430280  0.83846999  0.17176094  1
  Ni  Ni17  1  0.33733344  0.67208764  0.33818156  1
  Fe  Fe18  1  0.67118332  1.00438339  1.00368002  1
  Fe  Fe19  1  0.83760673  0.17143046  0.17076297  1
  Fe  Fe20  1  0.67065598  0.00486313  0.33830444  1
  Fe  Fe21  1  0.67116079  0.33740084  0.00469732  1
  Fe  Fe22  1  0.83725044  0.50402205  0.17139424  1
  Ni  Ni23  1  0.67197247  0.33745125  0.33775816  1
  Fe  Fe24  1  0.67268697  0.67153796  0.00444376  1
  Fe  Fe25  1  0.83755344  0.83787121  0.17118116  1
  Fe  Fe26  1  0.67068696  0.67071890  0.33761011  1
  Cr  Cr27  1  0.17079944  0.17197656  0.50424195  1
  Ni  Ni28  1  1.00324280  1.00283119  0.67156735  1
  Fe  Fe29  1  0.17078999  0.17028459  0.83774894  1
  Ni  Ni30  1  0.17128667  0.50539881  0.50396065  1
  Fe  Fe31  1  1.00297667  0.33817954  0.67151406  1
  Fe  Fe32  1  0.17021475  0.50383615  0.83628343  1
  Fe  Fe33  1  0.17071644  0.83578539  0.50394288  1
  Ni  Ni34  1  0.00598641  0.67181402  0.67149167  1
  Fe  Fe35  1  0.16978201  0.83920063  0.83741979  1
  Fe  Fe36  1  0.50636842  0.17110798  0.50400580  1
  Fe  Fe37  1  0.33887294  1.00351242  0.67173528  1
  Fe  Fe38  1  0.50516110  0.17078740  0.83775106  1
  Fe  Fe39  1  0.50449576  0.50448755  0.50381409  1
  Fe  Fe40  1  0.33824256  0.33840501  0.67185068  1
  Fe  Fe41  1  0.50583723  0.50343376  0.83737994  1
  Fe  Fe42  1  0.50394877  0.83772645  0.50474966  1
  Fe  Fe43  1  0.33779234  0.67140551  0.67096856  1
  Ni  Ni44  1  0.50539193  0.83831832  0.83736173  1
  Fe  Fe45  1  0.83646886  0.17141124  0.50513505  1
  Ni  Ni46  1  0.67161317  0.00604557  0.67103104  1
  Ni  Ni47  1  0.83831459  0.17103733  0.83693655  1
  Fe  Fe48  1  0.83841318  0.50425387  0.50437983  1
  Ni  Ni49  1  0.67087883  0.33681415  0.67112819  1
  Fe  Fe50  1  0.83727382  0.50444591  0.83754931  1
  Ni  Ni51  1  0.83730093  0.83782110  0.50500255  1
  Fe  Fe52  1  0.67190091  0.67205976  0.67127053  1
  Fe  Fe53  1  0.83777514  0.83852505  0.83698531  1
" 