4080,Ni31Fe67Cr1_19,-235.147702274783, 197.894808878279,Ni31Fe67Cr1,"# generated using pymatgen
 data_Cr(Fe9Ni4)2
_symmetry_space_group_name_H-M   'P 1'
_cell_length_a   7.41017734
_cell_length_b   7.41017734
_cell_length_c   10.47957330
_cell_angle_alpha   90.00000000
_cell_angle_beta   90.00000000
_cell_angle_gamma   90.00000000
_symmetry_Int_Tables_number   1
_chemical_formula_structural   Cr(Fe9Ni4)2
_chemical_formula_sum   'Cr2 Fe36 Ni16'
_cell_volume   575.44100126
_cell_formula_units_Z   2
loop_
 _symmetry_equiv_pos_site_id
 _symmetry_equiv_pos_as_xyz
  1  'x, y, z'
loop_
 _atom_site_type_symbol
 _atom_site_label
 _atom_site_symmetry_multiplicity
 _atom_site_fract_x
 _atom_site_fract_y
 _atom_site_fract_z
 _atom_site_occupancy
  Fe  Fe0  1  1.00363104  1.00326021  0.00400745  1
  Fe  Fe1  1  0.17070159  0.16890492  0.17017037  1
  Fe  Fe2  1  0.00486796  0.00443441  0.33620157  1
  Ni  Ni3  1  1.00326621  0.33645516  1.00301158  1
  Cr  Cr4  1  0.17127058  0.50497425  0.16986568  1
  Fe  Fe5  1  1.00257054  0.33674437  0.33749206  1
  Ni  Ni6  1  1.00285793  0.67094910  1.00306919  1
  Ni  Ni7  1  0.17032586  0.83850414  0.17031106  1
  Fe  Fe8  1  0.00414133  0.67033473  0.33712793  1
  Fe  Fe9  1  0.33637819  1.00278669  0.00394163  1
  Fe  Fe10  1  0.50382988  0.17033266  0.17114308  1
  Fe  Fe11  1  0.33766005  1.00316470  0.33744013  1
  Fe  Fe12  1  0.33791084  0.33771514  1.00284860  1
  Ni  Ni13  1  0.50536566  0.50389175  0.17046658  1
  Fe  Fe14  1  0.33899521  0.33705515  0.33817327  1
  Fe  Fe15  1  0.33767785  0.67101143  1.00373798  1
  Ni  Ni16  1  0.50336337  0.83658160  0.17027151  1
  Ni  Ni17  1  0.33796934  0.67233253  0.33849738  1
  Fe  Fe18  1  0.67149930  1.00349203  0.00418595  1
  Ni  Ni19  1  0.83722064  0.17051576  0.17061079  1
  Fe  Fe20  1  0.66898245  0.00473327  0.33643623  1
  Fe  Fe21  1  0.67120811  0.33824821  0.00444420  1
  Fe  Fe22  1  0.83542705  0.50426162  0.17049544  1
  Ni  Ni23  1  0.67088205  0.33701357  0.33734416  1
  Ni  Ni24  1  0.67046379  0.67056637  0.00446749  1
  Fe  Fe25  1  0.83685314  0.83667647  0.17009405  1
  Fe  Fe26  1  0.66867963  0.66900029  0.33624694  1
  Fe  Fe27  1  0.17116431  0.17043744  0.50399883  1
  Fe  Fe28  1  0.00504458  0.00416193  0.67130109  1
  Fe  Fe29  1  0.17080297  0.17088822  0.83734099  1
  Fe  Fe30  1  0.17127158  0.50457521  0.50351052  1
  Fe  Fe31  1  1.00354210  0.33724850  0.67077024  1
  Fe  Fe32  1  0.17044948  0.50406217  0.83776660  1
  Ni  Ni33  1  0.17173923  0.83739850  0.50358177  1
  Fe  Fe34  1  0.00477816  0.67010059  0.67146605  1
  Ni  Ni35  1  0.16950207  0.83732453  0.83762182  1
  Ni  Ni36  1  0.50404618  0.17145142  0.50373784  1
  Fe  Fe37  1  0.33704042  1.00346339  0.67013171  1
  Fe  Fe38  1  0.50327587  0.17041284  0.83654644  1
  Ni  Ni39  1  0.50423982  0.50273419  0.50348984  1
  Fe  Fe40  1  0.33785160  0.33725414  0.67048682  1
  Ni  Ni41  1  0.50410386  0.50315427  0.83755941  1
  Ni  Ni42  1  0.50150497  0.83732824  0.50452821  1
  Fe  Fe43  1  0.33731232  0.67079449  0.66983912  1
  Fe  Fe44  1  0.50378293  0.83667718  0.83734900  1
  Fe  Fe45  1  0.83611892  0.17213848  0.50319647  1
  Fe  Fe46  1  0.66942359  0.00469858  0.67089004  1
  Fe  Fe47  1  0.83743293  0.17061494  0.83778136  1
  Ni  Ni48  1  0.83684467  0.50154399  0.50350429  1
  Fe  Fe49  1  0.67011964  0.33751838  0.66956741  1
  Fe  Fe50  1  0.83754946  0.50457011  0.83728432  1
  Cr  Cr51  1  0.83777880  0.83710444  0.50314849  1
  Fe  Fe52  1  0.66942035  0.66929181  0.67138587  1
  Fe  Fe53  1  0.83707426  0.83632611  0.83732781  1
" 