1503,Ni31Fe60Cr8_3,-233.962640106178, 202.528797112695,Ni31Fe60Cr8,"# generated using pymatgen
 data_Cr5Fe32Ni17
_symmetry_space_group_name_H-M   'P 1'
_cell_length_a   7.41182203
_cell_length_b   7.41182203
_cell_length_c   10.48189924
_cell_angle_alpha   90.00000000
_cell_angle_beta   90.00000000
_cell_angle_gamma   90.00000000
_symmetry_Int_Tables_number   1
_chemical_formula_structural   Cr5Fe32Ni17
_chemical_formula_sum   'Cr5 Fe32 Ni17'
_cell_volume   575.82424456
_cell_formula_units_Z   1
loop_
 _symmetry_equiv_pos_site_id
 _symmetry_equiv_pos_as_xyz
  1  'x, y, z'
loop_
 _atom_site_type_symbol
 _atom_site_label
 _atom_site_symmetry_multiplicity
 _atom_site_fract_x
 _atom_site_fract_y
 _atom_site_fract_z
 _atom_site_occupancy
  Fe  Fe0  1  0.00394324  0.00486488  1.00296922  1
  Fe  Fe1  1  0.17117520  0.17038335  0.17021670  1
  Ni  Ni2  1  1.00255489  1.00165572  0.33738843  1
  Fe  Fe3  1  1.00339181  0.33672547  1.00197990  1
  Cr  Cr4  1  0.17096218  0.50220847  0.17016570  1
  Fe  Fe5  1  1.00198486  0.33633703  0.33772116  1
  Fe  Fe6  1  1.00259966  0.66958801  1.00209887  1
  Cr  Cr7  1  0.16943559  0.83896585  0.17129296  1
  Ni  Ni8  1  1.00288125  0.67134528  0.33835420  1
  Fe  Fe9  1  0.33699714  0.00560193  1.00216637  1
  Fe  Fe10  1  0.50366813  0.17251671  0.17107863  1
  Ni  Ni11  1  0.33783180  0.00437695  0.33737708  1
  Ni  Ni12  1  0.33881345  0.33696062  1.00349997  1
  Ni  Ni13  1  0.50607248  0.50206917  0.17033103  1
  Fe  Fe14  1  0.33895311  0.33654999  0.33749944  1
  Ni  Ni15  1  0.33691429  0.66936371  1.00056307  1
  Cr  Cr16  1  0.50500475  0.83655203  0.17095056  1
  Fe  Fe17  1  0.33792679  0.67000036  0.33904181  1
  Fe  Fe18  1  0.67023904  0.00481084  1.00339622  1
  Fe  Fe19  1  0.83633295  0.17059601  0.17084370  1
  Ni  Ni20  1  0.67078843  0.00543026  0.33763895  1
  Ni  Ni21  1  0.66942379  0.33704347  1.00334512  1
  Fe  Fe22  1  0.83493656  0.50388250  0.17002934  1
  Ni  Ni23  1  0.66933966  0.33657591  0.33740612  1
  Fe  Fe24  1  0.67022942  0.66828300  1.00288058  1
  Fe  Fe25  1  0.83706783  0.83669672  0.17115160  1
  Fe  Fe26  1  0.67128888  0.67023881  0.33778057  1
  Cr  Cr27  1  0.16986325  0.17056882  0.50283247  1
  Fe  Fe28  1  0.00386213  0.00533124  0.67136111  1
  Ni  Ni29  1  0.17003963  0.16945510  0.83766748  1
  Ni  Ni30  1  0.17108236  0.50451955  0.50338502  1
  Ni  Ni31  1  1.00345787  0.33700401  0.67133923  1
  Fe  Fe32  1  0.17099690  0.50261448  0.83746898  1
  Fe  Fe33  1  0.17184425  0.83595661  0.50243725  1
  Cr  Cr34  1  0.00475422  0.66991798  0.67062380  1
  Ni  Ni35  1  0.17136564  0.83896077  0.83778995  1
  Ni  Ni36  1  0.50559638  0.17032738  0.50314390  1
  Fe  Fe37  1  0.33694799  0.00389306  0.67101989  1
  Fe  Fe38  1  0.50312344  0.17081728  0.83682021  1
  Ni  Ni39  1  0.50402007  0.50395303  0.50347701  1
  Ni  Ni40  1  0.33802053  0.33756491  0.67138494  1
  Fe  Fe41  1  0.50287175  0.50347174  0.83769656  1
  Fe  Fe42  1  0.50312988  0.83726174  0.50324277  1
  Fe  Fe43  1  0.33791191  0.66936829  0.67060202  1
  Fe  Fe44  1  0.50313094  0.83688669  0.83745391  1
  Fe  Fe45  1  0.83505683  0.17122947  0.50326794  1
  Fe  Fe46  1  0.67036761  0.00454631  0.66970221  1
  Fe  Fe47  1  0.83804621  0.17067303  0.83706774  1
  Fe  Fe48  1  0.83636038  0.50219701  0.50332495  1
  Fe  Fe49  1  0.67042526  0.33749843  0.67015116  1
  Ni  Ni50  1  0.83575999  0.50277695  0.83819997  1
  Fe  Fe51  1  0.83620604  0.83774876  0.50224126  1
  Fe  Fe52  1  0.66898508  0.66913185  0.67051978  1
  Fe  Fe53  1  0.83719365  0.83787981  0.83778853  1
" 