7578,Ni31Fe67Cr1_13,-234.617414159966, 199.400166853816,Ni31Fe67Cr1,"# generated using pymatgen
 data_Cr(Fe9Ni4)2
_symmetry_space_group_name_H-M   'P 1'
_cell_length_a   7.40176417
_cell_length_b   7.40176417
_cell_length_c   10.46767527
_cell_angle_alpha   90.00000000
_cell_angle_beta   90.00000000
_cell_angle_gamma   90.00000000
_symmetry_Int_Tables_number   1
_chemical_formula_structural   Cr(Fe9Ni4)2
_chemical_formula_sum   'Cr2 Fe36 Ni16'
_cell_volume   573.48323787
_cell_formula_units_Z   2
loop_
 _symmetry_equiv_pos_site_id
 _symmetry_equiv_pos_as_xyz
  1  'x, y, z'
loop_
 _atom_site_type_symbol
 _atom_site_label
 _atom_site_symmetry_multiplicity
 _atom_site_fract_x
 _atom_site_fract_y
 _atom_site_fract_z
 _atom_site_occupancy
  Fe  Fe0  1  1.00293047  0.00500171  1.00420119  1
  Fe  Fe1  1  0.16863013  0.16934983  0.17112291  1
  Fe  Fe2  1  0.00456954  1.00373811  0.33821369  1
  Fe  Fe3  1  0.00444455  0.33680956  1.00271336  1
  Cr  Cr4  1  0.17295726  0.50251186  0.17040198  1
  Fe  Fe5  1  0.00522365  0.33750957  0.34002400  1
  Fe  Fe6  1  1.00324930  0.67165717  1.00292452  1
  Fe  Fe7  1  0.17028202  0.83893051  0.17142138  1
  Fe  Fe8  1  0.00510023  0.67205779  0.33906524  1
  Ni  Ni9  1  0.33563965  1.00250700  1.00382772  1
  Cr  Cr10  1  0.50186408  0.17031612  0.17172203  1
  Ni  Ni11  1  0.33603028  1.00327910  0.33934760  1
  Ni  Ni12  1  0.33926809  0.33660462  1.00237755  1
  Fe  Fe13  1  0.50688401  0.50534907  0.17120691  1
  Ni  Ni14  1  0.33766465  0.33774825  0.34024527  1
  Fe  Fe15  1  0.33934651  0.67058685  1.00347128  1
  Fe  Fe16  1  0.50366228  0.83522388  0.17138471  1
  Ni  Ni17  1  0.33817342  0.67179897  0.33860481  1
  Fe  Fe18  1  0.67062508  0.00506623  1.00336336  1
  Fe  Fe19  1  0.83901503  0.17270940  0.17184787  1
  Fe  Fe20  1  0.66992634  1.00258672  0.33892224  1
  Ni  Ni21  1  0.67409620  0.34025971  1.00419718  1
  Ni  Ni22  1  0.83964819  0.50619349  0.17182140  1
  Fe  Fe23  1  0.67113259  0.33940613  0.33814206  1
  Fe  Fe24  1  0.67121966  0.67167233  1.00400033  1
  Ni  Ni25  1  0.83700403  0.83817483  0.17127438  1
  Fe  Fe26  1  0.67075388  0.67147252  0.33823356  1
  Fe  Fe27  1  0.16861866  0.17069617  0.50469186  1
  Fe  Fe28  1  1.00348687  1.00419811  0.67062890  1
  Fe  Fe29  1  0.17017410  0.17015988  0.83744943  1
  Ni  Ni30  1  0.17286007  0.50481129  0.50522840  1
  Fe  Fe31  1  0.00476406  0.33773461  0.67011065  1
  Ni  Ni32  1  0.17231507  0.50377319  0.83740183  1
  Fe  Fe33  1  0.16890068  0.83711742  0.50459404  1
  Fe  Fe34  1  0.00475097  0.67135360  0.67124163  1
  Fe  Fe35  1  0.16967712  0.83657473  0.83733033  1
  Fe  Fe36  1  0.50455168  0.17107700  0.50419879  1
  Ni  Ni37  1  0.33707815  0.00441769  0.67028017  1
  Fe  Fe38  1  0.50486591  0.17098892  0.83858495  1
  Fe  Fe39  1  0.50704030  0.50476071  0.50422255  1
  Fe  Fe40  1  0.33736243  0.33729922  0.67125016  1
  Fe  Fe41  1  0.50644152  0.50513687  0.83776762  1
  Fe  Fe42  1  0.50454453  0.83730687  0.50470844  1
  Fe  Fe43  1  0.33719147  0.67086843  0.67019592  1
  Fe  Fe44  1  0.50347092  0.83705025  0.83703690  1
  Ni  Ni45  1  0.83549607  0.17006447  0.50388393  1
  Fe  Fe46  1  0.67047872  1.00424643  0.67082510  1
  Fe  Fe47  1  0.83814474  0.17259204  0.83652817  1
  Ni  Ni48  1  0.83980986  0.50514240  0.50460589  1
  Fe  Fe49  1  0.67183945  0.33756642  0.67145385  1
  Ni  Ni50  1  0.83997057  0.50618696  0.83684481  1
  Ni  Ni51  1  0.83671212  0.83794454  0.50478562  1
  Fe  Fe52  1  0.67184066  0.67171478  0.67100639  1
  Ni  Ni53  1  0.83641178  0.83883522  0.83720470  1
" 