2536,Ni31Fe60Cr8_15,-234.677754585742, 202.264109801994,Ni31Fe60Cr8,"# generated using pymatgen
 data_Cr5Fe32Ni17
_symmetry_space_group_name_H-M   'P 1'
_cell_length_a   7.42242801
_cell_length_b   7.42242801
_cell_length_c   10.49689836
_cell_angle_alpha   90.00000000
_cell_angle_beta   90.00000000
_cell_angle_gamma   90.00000000
_symmetry_Int_Tables_number   1
_chemical_formula_structural   Cr5Fe32Ni17
_chemical_formula_sum   'Cr5 Fe32 Ni17'
_cell_volume   578.29971782
_cell_formula_units_Z   1
loop_
 _symmetry_equiv_pos_site_id
 _symmetry_equiv_pos_as_xyz
  1  'x, y, z'
loop_
 _atom_site_type_symbol
 _atom_site_label
 _atom_site_symmetry_multiplicity
 _atom_site_fract_x
 _atom_site_fract_y
 _atom_site_fract_z
 _atom_site_occupancy
  Ni  Ni0  1  0.00344653  1.00059642  0.00319227  1
  Ni  Ni1  1  0.16988569  0.16870620  0.17083545  1
  Fe  Fe2  1  1.00229697  0.00473839  0.33530701  1
  Cr  Cr3  1  1.00134046  0.33622439  1.00298268  1
  Fe  Fe4  1  0.16919649  0.50307695  0.17074375  1
  Fe  Fe5  1  0.00551335  0.33499676  0.33516751  1
  Ni  Ni6  1  0.00366927  0.67189781  0.00347627  1
  Fe  Fe7  1  0.16837508  0.83709715  0.16954691  1
  Fe  Fe8  1  0.00334317  0.66928273  0.33489377  1
  Fe  Fe9  1  0.33600054  0.00330906  0.00327332  1
  Fe  Fe10  1  0.50263479  0.16962441  0.16899164  1
  Ni  Ni11  1  0.33695907  0.00321629  0.33625354  1
  Fe  Fe12  1  0.33718980  0.33599437  0.00303400  1
  Fe  Fe13  1  0.50313423  0.50247451  0.16866414  1
  Fe  Fe14  1  0.33445455  0.33572374  0.33659383  1
  Fe  Fe15  1  0.33597375  0.66971136  1.00271567  1
  Fe  Fe16  1  0.50317502  0.83691730  0.17013360  1
  Fe  Fe17  1  0.33735564  0.66927391  0.33617511  1
  Fe  Fe18  1  0.67073248  0.00356956  1.00231942  1
  Ni  Ni19  1  0.83697235  0.16950373  0.16939653  1
  Fe  Fe20  1  0.66905402  1.00183961  0.33715661  1
  Ni  Ni21  1  0.66756121  0.33601538  1.00279489  1
  Ni  Ni22  1  0.83676295  0.50400384  0.16874335  1
  Cr  Cr23  1  0.66909680  0.33512162  0.33588445  1
  Fe  Fe24  1  0.67067187  0.66953887  0.00318450  1
  Fe  Fe25  1  0.83746950  0.83659985  0.16925835  1
  Fe  Fe26  1  0.66832439  0.67249244  0.33555755  1
  Fe  Fe27  1  0.17007133  0.17074969  0.50236176  1
  Ni  Ni28  1  0.00385019  1.00270756  0.66988052  1
  Fe  Fe29  1  0.17055873  0.16780985  0.83616805  1
  Ni  Ni30  1  0.17023282  0.50242122  0.50224108  1
  Fe  Fe31  1  1.00289788  0.33532476  0.67011885  1
  Fe  Fe32  1  0.17052878  0.50391613  0.83500420  1
  Cr  Cr33  1  0.17105514  0.83574666  0.50363617  1
  Ni  Ni34  1  0.00416383  0.67013522  0.67122436  1
  Fe  Fe35  1  0.16912546  0.83728948  0.83621581  1
  Ni  Ni36  1  0.50238813  0.16824790  0.50285134  1
  Fe  Fe37  1  0.33622111  0.00359778  0.66992271  1
  Ni  Ni38  1  0.50313150  0.16965192  0.83822998  1
  Fe  Fe39  1  0.50094097  0.50314876  0.50391613  1
  Fe  Fe40  1  0.33609424  0.33611643  0.66939236  1
  Fe  Fe41  1  0.50398174  0.50193105  0.83643699  1
  Ni  Ni42  1  0.50265900  0.83645826  0.50209075  1
  Fe  Fe43  1  0.33695033  0.66929918  0.67012560  1
  Ni  Ni44  1  0.50118786  0.83580418  0.83709181  1
  Ni  Ni45  1  0.83694138  0.16932365  0.50289196  1
  Cr  Cr46  1  0.66967910  0.00451494  0.66809467  1
  Ni  Ni47  1  0.83606055  0.17068249  0.83672127  1
  Cr  Cr48  1  0.83811184  0.50244284  0.50485081  1
  Ni  Ni49  1  0.66801848  0.33665134  0.67058659  1
  Fe  Fe50  1  0.83450247  0.50337180  0.83594662  1
  Fe  Fe51  1  0.83573478  0.83738852  0.50273040  1
  Fe  Fe52  1  0.66935865  0.66955654  0.67027713  1
  Fe  Fe53  1  0.83727306  0.83647451  0.83702527  1
" 