8819,Ni31Fe60Cr8_9,-234.14039635386, 200.868008980609,Ni31Fe60Cr8,"# generated using pymatgen
 data_Cr5Fe32Ni17
_symmetry_space_group_name_H-M   'P 1'
_cell_length_a   7.41355192
_cell_length_b   7.41355192
_cell_length_c   10.48434568
_cell_angle_alpha   90.00000000
_cell_angle_beta   90.00000000
_cell_angle_gamma   90.00000000
_symmetry_Int_Tables_number   1
_chemical_formula_structural   Cr5Fe32Ni17
_chemical_formula_sum   'Cr5 Fe32 Ni17'
_cell_volume   576.22752378
_cell_formula_units_Z   1
loop_
 _symmetry_equiv_pos_site_id
 _symmetry_equiv_pos_as_xyz
  1  'x, y, z'
loop_
 _atom_site_type_symbol
 _atom_site_label
 _atom_site_symmetry_multiplicity
 _atom_site_fract_x
 _atom_site_fract_y
 _atom_site_fract_z
 _atom_site_occupancy
  Fe  Fe0  1  0.00477937  1.00279711  0.00430293  1
  Ni  Ni1  1  0.17131585  0.17270156  0.16879807  1
  Ni  Ni2  1  1.00126748  0.00637570  0.33588679  1
  Ni  Ni3  1  0.00390503  0.33809913  0.00463666  1
  Fe  Fe4  1  0.17088627  0.50433173  0.17000201  1
  Fe  Fe5  1  1.00253176  0.33837857  0.33513905  1
  Ni  Ni6  1  1.00344048  0.66737002  1.00224614  1
  Cr  Cr7  1  0.17064390  0.83807870  0.17056667  1
  Cr  Cr8  1  1.00210559  0.67150811  0.33955059  1
  Ni  Ni9  1  0.33952107  0.00470556  1.00262619  1
  Fe  Fe10  1  0.50371886  0.16895394  0.16994779  1
  Fe  Fe11  1  0.33850559  1.00240206  0.33630253  1
  Fe  Fe12  1  0.33654852  0.33749204  0.00376639  1
  Fe  Fe13  1  0.50239161  0.50513102  0.17020373  1
  Fe  Fe14  1  0.33741565  0.33859984  0.33542446  1
  Ni  Ni15  1  0.33747791  0.66972965  1.00257034  1
  Fe  Fe16  1  0.50331058  0.83670556  0.17016241  1
  Ni  Ni17  1  0.33985014  0.66809111  0.33951686  1
  Ni  Ni18  1  0.66829737  0.00445307  0.00364172  1
  Fe  Fe19  1  0.83781591  0.16893387  0.16886084  1
  Fe  Fe20  1  0.67088896  1.00053788  0.33573413  1
  Fe  Fe21  1  0.66878350  0.33871440  0.00483107  1
  Fe  Fe22  1  0.83719136  0.50364529  0.16960950  1
  Fe  Fe23  1  0.67083443  0.33820150  0.33678040  1
  Fe  Fe24  1  0.66962334  0.67085534  1.00339372  1
  Ni  Ni25  1  0.83386492  0.83608095  0.16756289  1
  Ni  Ni26  1  0.66862545  0.66920163  0.33554091  1
  Cr  Cr27  1  0.17090318  0.17140994  0.50254574  1
  Cr  Cr28  1  0.00431661  1.00132377  0.67069794  1
  Ni  Ni29  1  0.17225705  0.17138683  0.83932452  1
  Ni  Ni30  1  0.17074558  0.50215410  0.50439908  1
  Fe  Fe31  1  0.00402720  0.34045133  0.67141978  1
  Fe  Fe32  1  0.16952040  0.50355887  0.83665607  1
  Fe  Fe33  1  0.17113916  0.83459527  0.50297625  1
  Ni  Ni34  1  1.00315542  0.66944204  0.66929406  1
  Fe  Fe35  1  0.17091584  0.83599329  0.83915896  1
  Fe  Fe36  1  0.50628246  0.17055488  0.50383722  1
  Fe  Fe37  1  0.33936822  1.00157579  0.67206078  1
  Fe  Fe38  1  0.50270952  0.17056579  0.83695411  1
  Fe  Fe39  1  0.50453737  0.50487151  0.50385320  1
  Fe  Fe40  1  0.33717914  0.33875963  0.67166759  1
  Fe  Fe41  1  0.50352639  0.50312359  0.83705615  1
  Ni  Ni42  1  0.50516246  0.83641851  0.50284714  1
  Fe  Fe43  1  0.33673134  0.67085107  0.66970305  1
  Fe  Fe44  1  0.50348776  0.83734486  0.83691828  1
  Fe  Fe45  1  0.83442573  0.17071564  0.50289298  1
  Fe  Fe46  1  0.66835744  1.00045581  0.67049835  1
  Cr  Cr47  1  0.83770136  0.17100206  0.83797372  1
  Ni  Ni48  1  0.83588255  0.50380824  0.50492689  1
  Fe  Fe49  1  0.67024673  0.33848263  0.66961799  1
  Fe  Fe50  1  0.83783849  0.50474474  0.83636786  1
  Ni  Ni51  1  0.83256361  0.83586064  0.50412148  1
  Ni  Ni52  1  0.66993071  0.66910240  0.67118318  1
  Fe  Fe53  1  0.83637756  0.83420161  0.83827300  1
" 