1966,Ni31Fe50Cr17_9,-231.785095183776, 194.235158126823,Ni31Fe50Cr17,"# generated using pymatgen
 data_Cr10Fe27Ni17
_symmetry_space_group_name_H-M   'P 1'
_cell_length_a   7.44216953
_cell_length_b   7.44216953
_cell_length_c   10.52481709
_cell_angle_alpha   90.00000000
_cell_angle_beta   90.00000000
_cell_angle_gamma   90.00000000
_symmetry_Int_Tables_number   1
_chemical_formula_structural   Cr10Fe27Ni17
_chemical_formula_sum   'Cr10 Fe27 Ni17'
_cell_volume   582.92633368
_cell_formula_units_Z   1
loop_
 _symmetry_equiv_pos_site_id
 _symmetry_equiv_pos_as_xyz
  1  'x, y, z'
loop_
 _atom_site_type_symbol
 _atom_site_label
 _atom_site_symmetry_multiplicity
 _atom_site_fract_x
 _atom_site_fract_y
 _atom_site_fract_z
 _atom_site_occupancy
  Ni  Ni0  1  0.00292695  0.00292207  1.00071117  1
  Fe  Fe1  1  0.16929238  0.16768248  0.16838216  1
  Cr  Cr2  1  0.00236680  0.00339970  0.33498528  1
  Fe  Fe3  1  0.99978157  0.33333050  0.00243078  1
  Fe  Fe4  1  0.16787627  0.50192354  0.16984740  1
  Ni  Ni5  1  1.00056416  0.33558162  0.33417819  1
  Fe  Fe6  1  1.00045463  0.66982316  0.00329781  1
  Ni  Ni7  1  0.16758846  0.83399649  0.16873567  1
  Ni  Ni8  1  0.00224270  0.66609658  0.33300323  1
  Fe  Fe9  1  0.33422563  0.00278321  0.00254479  1
  Ni  Ni10  1  0.50171868  0.16950562  0.16856004  1
  Ni  Ni11  1  0.33687759  1.00071946  0.33525783  1
  Fe  Fe12  1  0.33686211  0.33290255  0.00219135  1
  Ni  Ni13  1  0.50069571  0.50004683  0.16988545  1
  Fe  Fe14  1  0.33466382  0.33444640  0.33446755  1
  Cr  Cr15  1  0.33605289  0.66885097  0.00268247  1
  Ni  Ni16  1  0.50096581  0.83545995  0.17174146  1
  Ni  Ni17  1  0.33638463  0.66956599  0.33513950  1
  Cr  Cr18  1  0.66885075  0.00235897  0.00308575  1
  Ni  Ni19  1  0.83478482  0.16902760  0.16925934  1
  Fe  Fe20  1  0.66631566  0.00183911  0.33336824  1
  Ni  Ni21  1  0.66842391  0.33475569  0.99973537  1
  Fe  Fe22  1  0.83495025  0.50125198  0.16936852  1
  Fe  Fe23  1  0.66832181  0.33503571  0.33378924  1
  Cr  Cr24  1  0.66809879  0.66739629  0.00216387  1
  Ni  Ni25  1  0.83646255  0.83501831  0.16820782  1
  Fe  Fe26  1  0.66756988  0.66813890  0.33406010  1
  Ni  Ni27  1  0.16893235  0.16721070  0.50139929  1
  Fe  Fe28  1  0.00332522  1.00127505  0.66942824  1
  Fe  Fe29  1  0.16853602  0.16538759  0.83590680  1
  Cr  Cr30  1  0.16862897  0.50275910  0.49920447  1
  Cr  Cr31  1  0.99941966  0.33268669  0.66754430  1
  Cr  Cr32  1  0.16868675  0.50246638  0.83645899  1
  Fe  Fe33  1  0.17059330  0.83598411  0.50118552  1
  Fe  Fe34  1  1.00042651  0.67035015  0.66848326  1
  Fe  Fe35  1  0.16791479  0.83726993  0.83503173  1
  Fe  Fe36  1  0.50079020  0.16800987  0.49964791  1
  Fe  Fe37  1  0.33394003  0.99999827  0.66774489  1
  Fe  Fe38  1  0.50157293  0.16950351  0.83633637  1
  Fe  Fe39  1  0.50342494  0.50249721  0.50127709  1
  Cr  Cr40  1  0.33681945  0.33412376  0.66844469  1
  Ni  Ni41  1  0.50342770  0.50154440  0.83299668  1
  Fe  Fe42  1  0.49874055  0.83450500  0.50096360  1
  Fe  Fe43  1  0.33750615  0.67096381  0.66871149  1
  Ni  Ni44  1  0.50062207  0.83416128  0.83277282  1
  Fe  Fe45  1  0.83534761  0.17088984  0.50091670  1
  Cr  Cr46  1  0.66802587  0.00173518  0.66956690  1
  Ni  Ni47  1  0.83577808  0.16850714  0.83467522  1
  Fe  Fe48  1  0.83387699  0.50077333  0.50088574  1
  Fe  Fe49  1  0.66836015  0.33694002  0.66941476  1
  Fe  Fe50  1  0.83212428  0.50164667  0.83474852  1
  Cr  Cr51  1  0.83513045  0.83419878  0.50130114  1
  Ni  Ni52  1  0.66674397  0.66686920  0.66969694  1
  Fe  Fe53  1  0.83624281  0.83414041  0.83443261  1
" 