5120,Ni31Fe60Cr8_18,-234.110085441125, 202.625427506938,Ni31Fe60Cr8,"# generated using pymatgen
 data_Cr5Fe32Ni17
_symmetry_space_group_name_H-M   'P 1'
_cell_length_a   7.41527868
_cell_length_b   7.41527868
_cell_length_c   10.48678767
_cell_angle_alpha   90.00000000
_cell_angle_beta   90.00000000
_cell_angle_gamma   90.00000000
_symmetry_Int_Tables_number   1
_chemical_formula_structural   Cr5Fe32Ni17
_chemical_formula_sum   'Cr5 Fe32 Ni17'
_cell_volume   576.63025988
_cell_formula_units_Z   1
loop_
 _symmetry_equiv_pos_site_id
 _symmetry_equiv_pos_as_xyz
  1  'x, y, z'
loop_
 _atom_site_type_symbol
 _atom_site_label
 _atom_site_symmetry_multiplicity
 _atom_site_fract_x
 _atom_site_fract_y
 _atom_site_fract_z
 _atom_site_occupancy
  Fe  Fe0  1  0.00409550  1.00284173  1.00259149  1
  Fe  Fe1  1  0.17011782  0.16995275  0.16914110  1
  Fe  Fe2  1  1.00223035  1.00208565  0.33798179  1
  Ni  Ni3  1  0.00392117  0.33697989  1.00220705  1
  Ni  Ni4  1  0.17177847  0.50331475  0.16882893  1
  Cr  Cr5  1  0.00382768  0.33823005  0.33866085  1
  Ni  Ni6  1  0.00533850  0.66959928  1.00263275  1
  Fe  Fe7  1  0.16908820  0.83539848  0.16977850  1
  Ni  Ni8  1  0.00525189  0.67133931  0.33765290  1
  Fe  Fe9  1  0.33569481  1.00280568  1.00226389  1
  Fe  Fe10  1  0.50330375  0.17117856  0.17045873  1
  Fe  Fe11  1  0.33713940  1.00309735  0.33799854  1
  Fe  Fe12  1  0.33390588  0.33727858  0.00431007  1
  Fe  Fe13  1  0.50206470  0.50350937  0.17055191  1
  Fe  Fe14  1  0.33664671  0.33745113  0.33605836  1
  Ni  Ni15  1  0.33576917  0.67155066  0.00448572  1
  Fe  Fe16  1  0.50300460  0.83577889  0.16993536  1
  Fe  Fe17  1  0.33566189  0.66982934  0.33507790  1
  Fe  Fe18  1  0.67089776  1.00230044  1.00256284  1
  Fe  Fe19  1  0.83691555  0.16907896  0.16836262  1
  Fe  Fe20  1  0.67112511  1.00260984  0.33711828  1
  Fe  Fe21  1  0.67079923  0.33578338  0.00368910  1
  Cr  Cr22  1  0.83706542  0.50473531  0.16990087  1
  Ni  Ni23  1  0.66860388  0.33455296  0.33715830  1
  Fe  Fe24  1  0.67076966  0.67256158  0.00398519  1
  Fe  Fe25  1  0.83869447  0.83742994  0.17116344  1
  Ni  Ni26  1  0.67011904  0.67124827  0.33645357  1
  Ni  Ni27  1  0.16965091  0.16906194  0.50365555  1
  Ni  Ni28  1  0.00508931  1.00257001  0.66983782  1
  Ni  Ni29  1  0.16857188  0.16966842  0.83767774  1
  Ni  Ni30  1  0.17044294  0.50271190  0.50483004  1
  Fe  Fe31  1  0.00453638  0.33475450  0.67077289  1
  Fe  Fe32  1  0.16826800  0.50378389  0.83748813  1
  Fe  Fe33  1  0.17028655  0.83638915  0.50428599  1
  Ni  Ni34  1  0.00403500  0.66853790  0.66994634  1
  Fe  Fe35  1  0.17028568  0.83751581  0.83665296  1
  Fe  Fe36  1  0.50098883  0.16908174  0.50202042  1
  Ni  Ni37  1  0.33666052  0.00385681  0.67085360  1
  Fe  Fe38  1  0.50230326  0.16909085  0.83804973  1
  Cr  Cr39  1  0.50305204  0.50547150  0.50264618  1
  Fe  Fe40  1  0.33323266  0.33425096  0.67001672  1
  Cr  Cr41  1  0.50279787  0.50580964  0.83721821  1
  Ni  Ni42  1  0.50392463  0.83672511  0.50229739  1
  Fe  Fe43  1  0.33471528  0.67414356  0.67066360  1
  Ni  Ni44  1  0.50318516  0.83620448  0.83783775  1
  Fe  Fe45  1  0.83692046  0.16980163  0.50436471  1
  Cr  Cr46  1  0.66811215  0.00434677  0.66966507  1
  Ni  Ni47  1  0.83955283  0.17008857  0.83803983  1
  Fe  Fe48  1  0.83777271  0.50605345  0.50349289  1
  Fe  Fe49  1  0.67304555  0.33648823  0.67011899  1
  Fe  Fe50  1  0.83896561  0.50326999  0.83735822  1
  Ni  Ni51  1  0.83707816  0.83676104  0.50212916  1
  Fe  Fe52  1  0.67239995  0.67292700  0.66922740  1
  Fe  Fe53  1  0.83879256  0.83661045  0.83634006  1
" 