6262,Ni31Fe60Cr8_11,-233.99085516588, 199.280692653538,Ni31Fe60Cr8,"# generated using pymatgen
 data_Cr5Fe32Ni17
_symmetry_space_group_name_H-M   'P 1'
_cell_length_a   7.41664008
_cell_length_b   7.41664008
_cell_length_c   10.48871299
_cell_angle_alpha   90.00000000
_cell_angle_beta   90.00000000
_cell_angle_gamma   90.00000000
_symmetry_Int_Tables_number   1
_chemical_formula_structural   Cr5Fe32Ni17
_chemical_formula_sum   'Cr5 Fe32 Ni17'
_cell_volume   576.94791569
_cell_formula_units_Z   1
loop_
 _symmetry_equiv_pos_site_id
 _symmetry_equiv_pos_as_xyz
  1  'x, y, z'
loop_
 _atom_site_type_symbol
 _atom_site_label
 _atom_site_symmetry_multiplicity
 _atom_site_fract_x
 _atom_site_fract_y
 _atom_site_fract_z
 _atom_site_occupancy
  Fe  Fe0  1  0.00471457  1.00168826  0.00384971  1
  Fe  Fe1  1  0.17054054  0.17101047  0.17018967  1
  Fe  Fe2  1  1.00311340  1.00232352  0.33696793  1
  Fe  Fe3  1  0.00374977  0.33859383  0.00381198  1
  Ni  Ni4  1  0.16968212  0.50296963  0.17074916  1
  Fe  Fe5  1  1.00222375  0.33627219  0.33605178  1
  Ni  Ni6  1  1.00297890  0.66898020  1.00239784  1
  Fe  Fe7  1  0.16848423  0.83535875  0.17081757  1
  Ni  Ni8  1  1.00231982  0.66962265  0.33635584  1
  Fe  Fe9  1  0.33486989  1.00307642  1.00239841  1
  Fe  Fe10  1  0.50261709  0.17297499  0.17114592  1
  Ni  Ni11  1  0.33659243  0.00496946  0.33737949  1
  Fe  Fe12  1  0.33672188  0.33809296  0.00364020  1
  Ni  Ni13  1  0.50331853  0.50241174  0.16983919  1
  Fe  Fe14  1  0.33819105  0.33670641  0.33571491  1
  Fe  Fe15  1  0.33615850  0.66902173  1.00247821  1
  Cr  Cr16  1  0.50328304  0.83536362  0.17176468  1
  Fe  Fe17  1  0.33709930  0.67049440  0.33696212  1
  Cr  Cr18  1  0.66927482  1.00242720  0.00356247  1
  Fe  Fe19  1  0.83703580  0.17175237  0.17078710  1
  Ni  Ni20  1  0.66939691  0.00392259  0.33784476  1
  Fe  Fe21  1  0.66972497  0.33987336  0.00464248  1
  Ni  Ni22  1  0.83719543  0.50251056  0.16974207  1
  Fe  Fe23  1  0.66978135  0.33717952  0.33649350  1
  Ni  Ni24  1  0.67166242  0.66800244  1.00239049  1
  Fe  Fe25  1  0.83858574  0.83410710  0.17045285  1
  Ni  Ni26  1  0.67145024  0.66929965  0.33717838  1
  Fe  Fe27  1  0.17075664  0.16844570  0.50377283  1
  Fe  Fe28  1  0.00419253  1.00227881  0.66937604  1
  Fe  Fe29  1  0.17152135  0.16962765  0.83623519  1
  Cr  Cr30  1  0.17023586  0.50357520  0.50191715  1
  Ni  Ni31  1  0.00358231  0.33665173  0.67034080  1
  Ni  Ni32  1  0.16964764  0.50238549  0.83731269  1
  Ni  Ni33  1  0.16946990  0.83908758  0.50266286  1
  Fe  Fe34  1  1.00165893  0.67096803  0.67098327  1
  Fe  Fe35  1  0.16928293  0.83735099  0.83701744  1
  Fe  Fe36  1  0.50246916  0.16952131  0.50315877  1
  Ni  Ni37  1  0.33679141  0.00544713  0.67079060  1
  Fe  Fe38  1  0.50098733  0.16993740  0.83589445  1
  Ni  Ni39  1  0.50523134  0.50277702  0.50231447  1
  Fe  Fe40  1  0.33743113  0.33514234  0.67083685  1
  Fe  Fe41  1  0.50474618  0.50381409  0.83738341  1
  Fe  Fe42  1  0.50364383  0.83715119  0.50281060  1
  Cr  Cr43  1  0.33787394  0.67168063  0.67058096  1
  Ni  Ni44  1  0.50407922  0.83697661  0.83587873  1
  Fe  Fe45  1  0.83696749  0.17035893  0.50363490  1
  Fe  Fe46  1  0.66932674  1.00230507  0.66971052  1
  Cr  Cr47  1  0.83732840  0.16984002  0.83614319  1
  Fe  Fe48  1  0.83537704  0.50418128  0.50308079  1
  Fe  Fe49  1  0.66898100  0.33767458  0.66905442  1
  Fe  Fe50  1  0.83678469  0.50604671  0.83707124  1
  Fe  Fe51  1  0.83645182  0.83565228  0.50337653  1
  Ni  Ni52  1  0.67171208  0.66998948  0.67062321  1
  Ni  Ni53  1  0.83620936  0.83563344  0.83593614  1
" 