7260,Ni31Fe50Cr17_18,-231.085813570172, 193.145584508239,Ni31Fe50Cr17,"# generated using pymatgen
 data_Cr10Fe27Ni17
_symmetry_space_group_name_H-M   'P 1'
_cell_length_a   7.43436725
_cell_length_b   7.43436725
_cell_length_c   10.51378300
_cell_angle_alpha   90.00000000
_cell_angle_beta   90.00000000
_cell_angle_gamma   90.00000000
_symmetry_Int_Tables_number   1
_chemical_formula_structural   Cr10Fe27Ni17
_chemical_formula_sum   'Cr10 Fe27 Ni17'
_cell_volume   581.09485620
_cell_formula_units_Z   1
loop_
 _symmetry_equiv_pos_site_id
 _symmetry_equiv_pos_as_xyz
  1  'x, y, z'
loop_
 _atom_site_type_symbol
 _atom_site_label
 _atom_site_symmetry_multiplicity
 _atom_site_fract_x
 _atom_site_fract_y
 _atom_site_fract_z
 _atom_site_occupancy
  Cr  Cr0  1  0.00267840  0.00232773  0.00281418  1
  Ni  Ni1  1  0.16900717  0.16891015  0.16972051  1
  Ni  Ni2  1  0.00235120  1.00208572  0.33491612  1
  Fe  Fe3  1  0.00237551  0.33801486  0.00373870  1
  Ni  Ni4  1  0.16733437  0.50152997  0.16818394  1
  Ni  Ni5  1  0.00233559  0.33595115  0.33136176  1
  Fe  Fe6  1  1.00123885  0.66655487  1.00145017  1
  Fe  Fe7  1  0.16910500  0.83448074  0.16969889  1
  Fe  Fe8  1  1.00028932  0.66929011  0.33513567  1
  Fe  Fe9  1  0.33709327  0.00290271  1.00194618  1
  Fe  Fe10  1  0.50216012  0.16842954  0.16908748  1
  Fe  Fe11  1  0.33612094  1.00197043  0.33523470  1
  Fe  Fe12  1  0.33406985  0.33398624  1.00218120  1
  Cr  Cr13  1  0.50258785  0.50279816  0.16977555  1
  Fe  Fe14  1  0.33609864  0.33436247  0.33536834  1
  Fe  Fe15  1  0.33433244  0.66970484  0.00236332  1
  Fe  Fe16  1  0.50211983  0.83631457  0.16925381  1
  Fe  Fe17  1  0.33562619  0.67025904  0.33556919  1
  Fe  Fe18  1  0.66699348  1.00176066  0.00248940  1
  Fe  Fe19  1  0.83577087  0.17058549  0.16997134  1
  Ni  Ni20  1  0.66824273  1.00059758  0.33367861  1
  Ni  Ni21  1  0.66950296  0.33584397  0.00281594  1
  Ni  Ni22  1  0.83701850  0.50238442  0.16834777  1
  Fe  Fe23  1  0.66987561  0.33564051  0.33562447  1
  Fe  Fe24  1  0.67102438  0.66957528  0.00221256  1
  Fe  Fe25  1  0.83536829  0.83459937  0.16979165  1
  Ni  Ni26  1  0.66890487  0.66959678  0.33628029  1
  Cr  Cr27  1  0.17055903  0.16593320  0.50246112  1
  Fe  Fe28  1  0.00325512  0.99816536  0.66962581  1
  Fe  Fe29  1  0.17124375  0.16899038  0.83534024  1
  Cr  Cr30  1  0.16951080  0.50375607  0.50077316  1
  Cr  Cr31  1  0.00241749  0.33778710  0.67142310  1
  Fe  Fe32  1  0.16644632  0.50259500  0.83666737  1
  Fe  Fe33  1  0.16827259  0.83608603  0.50192336  1
  Ni  Ni34  1  1.00087991  0.67016253  0.66981000  1
  Fe  Fe35  1  0.16784852  0.83501038  0.83497424  1
  Ni  Ni36  1  0.50218226  0.16877398  0.50338742  1
  Ni  Ni37  1  0.33691730  0.00403320  0.66994399  1
  Fe  Fe38  1  0.50185320  0.16751135  0.83454017  1
  Ni  Ni39  1  0.50384048  0.50110177  0.50086911  1
  Ni  Ni40  1  0.33695775  0.33241363  0.66991028  1
  Cr  Cr41  1  0.50238755  0.50085489  0.83585741  1
  Fe  Fe42  1  0.50296844  0.83701832  0.50076310  1
  Cr  Cr43  1  0.33462905  0.66942958  0.66806787  1
  Fe  Fe44  1  0.50331990  0.83841687  0.83657534  1
  Cr  Cr45  1  0.83380341  0.16747009  0.50199792  1
  Ni  Ni46  1  0.66665778  1.00192115  0.66972965  1
  Cr  Cr47  1  0.83428845  0.16811313  0.83424310  1
  Ni  Ni48  1  0.83294857  0.50459195  0.50146287  1
  Fe  Fe49  1  0.66611432  0.33505406  0.66824486  1
  Ni  Ni50  1  0.83670392  0.50449659  0.83678461  1
  Fe  Fe51  1  0.83535028  0.83470049  0.50180396  1
  Cr  Cr52  1  0.67153768  0.66934905  0.66785260  1
  Ni  Ni53  1  0.83616781  0.83449438  0.83464354  1
" 