5938,Ni31Fe67Cr1_14,-235.03374372066, 205.599822718652,Ni31Fe67Cr1,"# generated using pymatgen
 data_Cr(Fe9Ni4)2
_symmetry_space_group_name_H-M   'P 1'
_cell_length_a   7.40607898
_cell_length_b   7.40607898
_cell_length_c   10.47377734
_cell_angle_alpha   90.00000000
_cell_angle_beta   90.00000000
_cell_angle_gamma   90.00000000
_symmetry_Int_Tables_number   1
_chemical_formula_structural   Cr(Fe9Ni4)2
_chemical_formula_sum   'Cr2 Fe36 Ni16'
_cell_volume   574.48674813
_cell_formula_units_Z   2
loop_
 _symmetry_equiv_pos_site_id
 _symmetry_equiv_pos_as_xyz
  1  'x, y, z'
loop_
 _atom_site_type_symbol
 _atom_site_label
 _atom_site_symmetry_multiplicity
 _atom_site_fract_x
 _atom_site_fract_y
 _atom_site_fract_z
 _atom_site_occupancy
  Fe  Fe0  1  0.00543291  1.00389535  0.00437498  1
  Fe  Fe1  1  0.17080041  0.17039257  0.17073640  1
  Ni  Ni2  1  1.00382792  1.00395023  0.33836361  1
  Fe  Fe3  1  0.00536069  0.33783737  1.00385658  1
  Fe  Fe4  1  0.16899787  0.50535500  0.17018799  1
  Fe  Fe5  1  1.00278437  0.33614394  0.33718022  1
  Ni  Ni6  1  1.00396400  0.67030979  0.00493725  1
  Fe  Fe7  1  0.17043587  0.83659968  0.17092113  1
  Fe  Fe8  1  1.00278576  0.67194228  0.33612466  1
  Ni  Ni9  1  0.33838162  0.00466441  0.00439869  1
  Fe  Fe10  1  0.50470514  0.16877975  0.16986466  1
  Fe  Fe11  1  0.33672012  1.00389935  0.33726113  1
  Ni  Ni12  1  0.33716228  0.33649340  1.00318381  1
  Cr  Cr13  1  0.50397070  0.50528833  0.17006004  1
  Fe  Fe14  1  0.33675387  0.33503624  0.33726079  1
  Ni  Ni15  1  0.33602172  0.67119033  1.00338410  1
  Ni  Ni16  1  0.50396579  0.83865718  0.17005249  1
  Fe  Fe17  1  0.33711541  0.67341337  0.33718695  1
  Fe  Fe18  1  0.66969977  1.00357038  1.00359900  1
  Fe  Fe19  1  0.83684550  0.17021489  0.17121201  1
  Fe  Fe20  1  0.67134026  1.00389798  0.33760558  1
  Fe  Fe21  1  0.67091103  0.33702577  1.00307443  1
  Ni  Ni22  1  0.83917018  0.50478655  0.17054255  1
  Fe  Fe23  1  0.67280696  0.33654357  0.33858955  1
  Fe  Fe24  1  0.67087423  0.67175496  0.00416027  1
  Ni  Ni25  1  0.83713277  0.83686863  0.17082818  1
  Fe  Fe26  1  0.67244760  0.67190995  0.33779152  1
  Ni  Ni27  1  0.17048743  0.16829278  0.50478626  1
  Fe  Fe28  1  1.00392285  0.00477831  0.66991507  1
  Ni  Ni29  1  0.17118390  0.17079124  0.83690468  1
  Cr  Cr30  1  0.17014731  0.50414004  0.50336584  1
  Fe  Fe31  1  1.00245805  0.33556422  0.67130952  1
  Fe  Fe32  1  0.17110017  0.50294503  0.83800278  1
  Ni  Ni33  1  0.17164084  0.83956867  0.50398728  1
  Fe  Fe34  1  1.00274946  0.67200793  0.67164048  1
  Fe  Fe35  1  0.17092682  0.83845174  0.83753069  1
  Fe  Fe36  1  0.50413249  0.17094182  0.50478107  1
  Fe  Fe37  1  0.33749555  0.00441490  0.67116065  1
  Ni  Ni38  1  0.50365491  0.17077697  0.83812856  1
  Fe  Fe39  1  0.50556707  0.50363916  0.50390972  1
  Fe  Fe40  1  0.33859411  0.33556617  0.67229612  1
  Fe  Fe41  1  0.50350663  0.50258337  0.83791991  1
  Fe  Fe42  1  0.50410160  0.83776804  0.50389829  1
  Fe  Fe43  1  0.33866748  0.67236881  0.67164699  1
  Fe  Fe44  1  0.50397169  0.83910572  0.83803542  1
  Ni  Ni45  1  0.83757736  0.17121014  0.50412540  1
  Ni  Ni46  1  0.67121063  0.00473449  0.66995059  1
  Ni  Ni47  1  0.83751274  0.17085405  0.83805156  1
  Ni  Ni48  1  0.83518925  0.50367666  0.50393851  1
  Fe  Fe49  1  0.67129224  0.33673700  0.67068399  1
  Fe  Fe50  1  0.83774018  0.50294680  0.83760067  1
  Fe  Fe51  1  0.83864485  0.83816396  0.50371271  1
  Fe  Fe52  1  0.67093005  0.67090448  0.67039220  1
  Fe  Fe53  1  0.83745005  0.83891679  0.83785700  1
" 