4461,Ni31Fe67Cr1_16,-234.748465389722, 196.614107862945,Ni31Fe67Cr1,"# generated using pymatgen
 data_Cr(Fe9Ni4)2
_symmetry_space_group_name_H-M   'P 1'
_cell_length_a   7.40422362
_cell_length_b   7.40422362
_cell_length_c   10.47115347
_cell_angle_alpha   90.00000000
_cell_angle_beta   90.00000000
_cell_angle_gamma   90.00000000
_symmetry_Int_Tables_number   1
_chemical_formula_structural   Cr(Fe9Ni4)2
_chemical_formula_sum   'Cr2 Fe36 Ni16'
_cell_volume   574.05509866
_cell_formula_units_Z   2
loop_
 _symmetry_equiv_pos_site_id
 _symmetry_equiv_pos_as_xyz
  1  'x, y, z'
loop_
 _atom_site_type_symbol
 _atom_site_label
 _atom_site_symmetry_multiplicity
 _atom_site_fract_x
 _atom_site_fract_y
 _atom_site_fract_z
 _atom_site_occupancy
  Fe  Fe0  1  1.00387701  1.00376027  0.00547933  1
  Ni  Ni1  1  0.17120207  0.17214438  0.17117295  1
  Ni  Ni2  1  1.00397022  0.00505379  0.33775847  1
  Fe  Fe3  1  1.00393642  0.33814511  0.00511975  1
  Ni  Ni4  1  0.17133416  0.50562239  0.16992105  1
  Fe  Fe5  1  0.00437193  0.33783575  0.33681320  1
  Fe  Fe6  1  0.00496716  0.67079554  0.00449072  1
  Fe  Fe7  1  0.17100402  0.83899812  0.17047510  1
  Fe  Fe8  1  0.00446688  0.67166885  0.33699335  1
  Fe  Fe9  1  0.33831204  1.00402577  1.00403707  1
  Ni  Ni10  1  0.50454884  0.17106153  0.17090898  1
  Fe  Fe11  1  0.33907318  1.00418837  0.33782685  1
  Fe  Fe12  1  0.33894027  0.33843021  0.00490308  1
  Fe  Fe13  1  0.50319346  0.50261541  0.17098057  1
  Ni  Ni14  1  0.33707501  0.33776895  0.33668882  1
  Ni  Ni15  1  0.33709116  0.67097219  1.00326737  1
  Fe  Fe16  1  0.50236678  0.83874408  0.17314231  1
  Ni  Ni17  1  0.33822389  0.66947733  0.33791061  1
  Fe  Fe18  1  0.67042843  0.00516126  0.00583890  1
  Ni  Ni19  1  0.83720124  0.16995675  0.17124866  1
  Ni  Ni20  1  0.67278335  1.00348610  0.33679306  1
  Ni  Ni21  1  0.67133811  0.33665709  1.00384598  1
  Fe  Fe22  1  0.83831412  0.50179196  0.17190795  1
  Fe  Fe23  1  0.66975288  0.33671670  0.33673875  1
  Cr  Cr24  1  0.66978261  0.67105357  0.00575511  1
  Ni  Ni25  1  0.83840635  0.83748349  0.17160490  1
  Ni  Ni26  1  0.67032726  0.67163624  0.33717804  1
  Fe  Fe27  1  0.17166914  0.16960080  0.50228526  1
  Fe  Fe28  1  0.00502052  0.00448384  0.67062721  1
  Fe  Fe29  1  0.17019230  0.16958389  0.83933226  1
  Fe  Fe30  1  0.17170659  0.50501058  0.50217013  1
  Fe  Fe31  1  1.00257304  0.33746302  0.67048272  1
  Fe  Fe32  1  0.17054547  0.50582825  0.83936769  1
  Fe  Fe33  1  0.17201723  0.83816922  0.50465889  1
  Fe  Fe34  1  0.00483012  0.67065950  0.67096821  1
  Ni  Ni35  1  0.17002119  0.83747323  0.83768525  1
  Ni  Ni36  1  0.50518801  0.17042905  0.50340364  1
  Fe  Fe37  1  0.33751641  1.00290642  0.67085749  1
  Fe  Fe38  1  0.50501044  0.16958063  0.83871068  1
  Fe  Fe39  1  0.50511086  0.50482892  0.50358916  1
  Cr  Cr40  1  0.33704443  0.33793982  0.67168272  1
  Ni  Ni41  1  0.50484231  0.50396830  0.83713243  1
  Ni  Ni42  1  0.50425055  0.83795530  0.50471917  1
  Fe  Fe43  1  0.33744401  0.67296391  0.67138797  1
  Fe  Fe44  1  0.50237691  0.83733271  0.83604075  1
  Fe  Fe45  1  0.83645182  0.17003491  0.50342412  1
  Fe  Fe46  1  0.67028871  0.00480168  0.66969554  1
  Fe  Fe47  1  0.83765701  0.17076017  0.83853321  1
  Fe  Fe48  1  0.83572488  0.50453869  0.50431218  1
  Fe  Fe49  1  0.67241506  0.33704371  0.67186893  1
  Fe  Fe50  1  0.83814755  0.50366066  0.83671354  1
  Fe  Fe51  1  0.83620224  0.83818684  0.50296843  1
  Fe  Fe52  1  0.67041897  0.67059819  0.67043459  1
  Fe  Fe53  1  0.83813728  0.83803847  0.83723880  1
" 