6547,Ni31Fe50Cr17_2,-231.435240005536, 194.492545185378,Ni31Fe50Cr17,"# generated using pymatgen
 data_Cr10Fe27Ni17
_symmetry_space_group_name_H-M   'P 1'
_cell_length_a   7.43536765
_cell_length_b   7.43536765
_cell_length_c   10.51519778
_cell_angle_alpha   90.00000000
_cell_angle_beta   90.00000000
_cell_angle_gamma   90.00000000
_symmetry_Int_Tables_number   1
_chemical_formula_structural   Cr10Fe27Ni17
_chemical_formula_sum   'Cr10 Fe27 Ni17'
_cell_volume   581.32947179
_cell_formula_units_Z   1
loop_
 _symmetry_equiv_pos_site_id
 _symmetry_equiv_pos_as_xyz
  1  'x, y, z'
loop_
 _atom_site_type_symbol
 _atom_site_label
 _atom_site_symmetry_multiplicity
 _atom_site_fract_x
 _atom_site_fract_y
 _atom_site_fract_z
 _atom_site_occupancy
  Fe  Fe0  1  1.00078617  0.00331621  0.99980552  1
  Fe  Fe1  1  0.16721577  0.16821825  0.16987166  1
  Fe  Fe2  1  0.00587946  0.00343557  0.33682201  1
  Fe  Fe3  1  0.00393079  0.33636861  0.00222423  1
  Fe  Fe4  1  0.16783803  0.50101385  0.16907124  1
  Ni  Ni5  1  1.00071204  0.33327483  0.33477907  1
  Fe  Fe6  1  0.00329679  0.66709744  1.00079296  1
  Ni  Ni7  1  0.16769925  0.83556687  0.16860540  1
  Cr  Cr8  1  0.00420033  0.66442044  0.33735779  1
  Cr  Cr9  1  0.33376082  0.00252800  0.99998523  1
  Cr  Cr10  1  0.50227199  0.16976828  0.17135787  1
  Ni  Ni11  1  0.33386765  1.00110386  0.33767209  1
  Fe  Fe12  1  0.33327771  0.33674519  0.99848498  1
  Cr  Cr13  1  0.49919088  0.50122358  0.16722640  1
  Fe  Fe14  1  0.33205120  0.33741211  0.33872658  1
  Fe  Fe15  1  0.33449158  0.66818740  1.00134759  1
  Fe  Fe16  1  0.49970468  0.83552611  0.16786055  1
  Ni  Ni17  1  0.33502648  0.67208775  0.33446167  1
  Fe  Fe18  1  0.66919460  1.00201058  0.99896758  1
  Fe  Fe19  1  0.83889001  0.16990556  0.17077764  1
  Fe  Fe20  1  0.66849950  0.00351035  0.33767052  1
  Cr  Cr21  1  0.67166407  0.33542074  0.99960094  1
  Fe  Fe22  1  0.83781077  0.50094022  0.16677535  1
  Fe  Fe23  1  0.66954311  0.33474145  0.33861129  1
  Ni  Ni24  1  0.66946733  0.66840503  1.00001417  1
  Cr  Cr25  1  0.83618428  0.83733600  0.16727540  1
  Cr  Cr26  1  0.66710307  0.66641238  0.33804592  1
  Fe  Fe27  1  0.16794157  0.16976984  0.50240951  1
  Ni  Ni28  1  0.00520327  0.00419927  0.66970513  1
  Fe  Fe29  1  0.16818523  0.17018425  0.83369771  1
  Ni  Ni30  1  0.17140201  0.50134722  0.50199434  1
  Fe  Fe31  1  0.00228510  0.33498038  0.66716333  1
  Fe  Fe32  1  0.16925326  0.50068420  0.83484025  1
  Ni  Ni33  1  0.16898348  0.83623271  0.50296395  1
  Fe  Fe34  1  0.00350962  0.66763718  0.66907370  1
  Fe  Fe35  1  0.16715142  0.83573689  0.83436309  1
  Fe  Fe36  1  0.49975738  0.16960411  0.50298383  1
  Ni  Ni37  1  0.33215337  0.00351990  0.66866010  1
  Ni  Ni38  1  0.50057952  0.17065577  0.83321611  1
  Ni  Ni39  1  0.50003297  0.49851320  0.50386600  1
  Ni  Ni40  1  0.33526118  0.33355811  0.66982390  1
  Fe  Fe41  1  0.50355812  0.50230241  0.83396194  1
  Fe  Fe42  1  0.49976430  0.83559943  0.50301614  1
  Cr  Cr43  1  0.33698708  0.67078507  0.66868589  1
  Ni  Ni44  1  0.50251759  0.83532293  0.83708216  1
  Ni  Ni45  1  0.83557667  0.16974696  0.50146701  1
  Cr  Cr46  1  0.66594426  0.00276311  0.67107065  1
  Fe  Fe47  1  0.83670203  0.16955769  0.83327716  1
  Fe  Fe48  1  0.83726159  0.49889083  0.50479253  1
  Ni  Ni49  1  0.66970911  0.33705879  0.66785306  1
  Ni  Ni50  1  0.83796141  0.50322072  0.83309613  1
  Cr  Cr51  1  0.83880554  0.83765998  0.50624586  1
  Ni  Ni52  1  0.66953374  0.66534054  0.67005019  1
  Fe  Fe53  1  0.83546002  0.83419102  0.83548787  1
" 