1624,Ni31Fe50Cr17_5,-231.539595129514, 197.419338443678,Ni31Fe50Cr17,"# generated using pymatgen
 data_Cr10Fe27Ni17
_symmetry_space_group_name_H-M   'P 1'
_cell_length_a   7.43485724
_cell_length_b   7.43485724
_cell_length_c   10.51447594
_cell_angle_alpha   90.00000000
_cell_angle_beta   90.00000000
_cell_angle_gamma   90.00000000
_symmetry_Int_Tables_number   1
_chemical_formula_structural   Cr10Fe27Ni17
_chemical_formula_sum   'Cr10 Fe27 Ni17'
_cell_volume   581.20976080
_cell_formula_units_Z   1
loop_
 _symmetry_equiv_pos_site_id
 _symmetry_equiv_pos_as_xyz
  1  'x, y, z'
loop_
 _atom_site_type_symbol
 _atom_site_label
 _atom_site_symmetry_multiplicity
 _atom_site_fract_x
 _atom_site_fract_y
 _atom_site_fract_z
 _atom_site_occupancy
  Ni  Ni0  1  1.00114312  0.00379893  1.00138100  1
  Fe  Fe1  1  0.16843101  0.16922169  0.16869606  1
  Ni  Ni2  1  1.00184059  1.00207735  0.33609415  1
  Fe  Fe3  1  0.00272011  0.33462553  0.00220195  1
  Ni  Ni4  1  0.16962122  0.50111507  0.16741080  1
  Cr  Cr5  1  0.00305331  0.33601253  0.33529343  1
  Fe  Fe6  1  1.00068894  0.66827760  0.00360476  1
  Cr  Cr7  1  0.16766065  0.83544328  0.16956911  1
  Ni  Ni8  1  0.00265972  0.66840236  0.33621233  1
  Cr  Cr9  1  0.33475493  0.00399760  0.00290882  1
  Fe  Fe10  1  0.50248838  0.16958229  0.17026026  1
  Fe  Fe11  1  0.33542414  0.00229423  0.33637915  1
  Fe  Fe12  1  0.33562869  0.33720383  1.00165264  1
  Fe  Fe13  1  0.50241438  0.50325087  0.16769402  1
  Fe  Fe14  1  0.33585243  0.33500388  0.33534340  1
  Fe  Fe15  1  0.33697151  0.66502012  0.00276558  1
  Ni  Ni16  1  0.50460763  0.83439598  0.17084814  1
  Fe  Fe17  1  0.33526566  0.66919198  0.33595497  1
  Cr  Cr18  1  0.67070495  1.00111088  1.00173004  1
  Fe  Fe19  1  0.83557341  0.16759089  0.16923813  1
  Ni  Ni20  1  0.66736605  1.00185188  0.33412988  1
  Ni  Ni21  1  0.66770801  0.33761220  1.00179089  1
  Fe  Fe22  1  0.83471650  0.50430929  0.16820286  1
  Fe  Fe23  1  0.66888931  0.33491872  0.33567519  1
  Ni  Ni24  1  0.66828327  0.66719836  0.00392798  1
  Ni  Ni25  1  0.83398464  0.83528759  0.16872739  1
  Fe  Fe26  1  0.66950120  0.66929898  0.33426310  1
  Ni  Ni27  1  0.16947904  0.16692513  0.50255007  1
  Fe  Fe28  1  0.00388919  0.00441193  0.66849743  1
  Ni  Ni29  1  0.16781959  0.17044942  0.83544102  1
  Fe  Fe30  1  0.16783442  0.50266383  0.50282652  1
  Ni  Ni31  1  0.00458627  0.33501588  0.66820082  1
  Ni  Ni32  1  0.17056676  0.49994381  0.83522667  1
  Ni  Ni33  1  0.17058137  0.83654619  0.50215389  1
  Fe  Fe34  1  0.00428389  0.66750862  0.66736737  1
  Cr  Cr35  1  0.16686188  0.83567290  0.83499499  1
  Fe  Fe36  1  0.50198612  0.16908705  0.50118823  1
  Fe  Fe37  1  0.33315932  0.00400122  0.66739140  1
  Fe  Fe38  1  0.50072436  0.17354031  0.83504647  1
  Fe  Fe39  1  0.50177717  0.50112612  0.50209678  1
  Fe  Fe40  1  0.33484169  0.33549255  0.66949757  1
  Ni  Ni41  1  0.50113728  0.49978088  0.83718997  1
  Fe  Fe42  1  0.49956196  0.83627926  0.50035880  1
  Fe  Fe43  1  0.33368820  0.66699303  0.66778004  1
  Cr  Cr44  1  0.50224140  0.83366533  0.83623393  1
  Ni  Ni45  1  0.83540652  0.17130565  0.50245948  1
  Cr  Cr46  1  0.66870888  0.00382438  0.67074347  1
  Fe  Fe47  1  0.83759968  0.16964586  0.83525388  1
  Ni  Ni48  1  0.83436803  0.49988230  0.50162943  1
  Fe  Fe49  1  0.66892868  0.33510474  0.66831912  1
  Cr  Cr50  1  0.83483232  0.50106674  0.83651348  1
  Cr  Cr51  1  0.83802236  0.83533071  0.50059384  1
  Cr  Cr52  1  0.66799720  0.66783765  0.66826161  1
  Fe  Fe53  1  0.83806335  0.83570528  0.83712839  1
" 