7955,Ni31Cr69_9,-227.400983011558, 143.233685448517,Ni31Cr69,"# generated using pymatgen
 data_Cr8Ni19
_symmetry_space_group_name_H-M   'P 1'
_cell_length_a   7.48744173
_cell_length_b   7.48744173
_cell_length_c   10.58884165
_cell_angle_alpha   90.00000000
_cell_angle_beta   90.00000000
_cell_angle_gamma   90.00000000
_symmetry_Int_Tables_number   1
_chemical_formula_structural   Cr8Ni19
_chemical_formula_sum   'Cr16 Ni38'
_cell_volume   593.62935017
_cell_formula_units_Z   2
loop_
 _symmetry_equiv_pos_site_id
 _symmetry_equiv_pos_as_xyz
  1  'x, y, z'
loop_
 _atom_site_type_symbol
 _atom_site_label
 _atom_site_symmetry_multiplicity
 _atom_site_fract_x
 _atom_site_fract_y
 _atom_site_fract_z
 _atom_site_occupancy
  Ni  Ni0  1  0.00260812  0.99861707  0.00097143  1
  Ni  Ni1  1  0.16440501  0.16412019  0.16418701  1
  Cr  Cr2  1  -0.00108639  0.99660759  0.33170626  1
  Ni  Ni3  1  0.99795950  0.33081995  0.99784517  1
  Cr  Cr4  1  0.16530446  0.49880303  0.16552570  1
  Ni  Ni5  1  -0.00060356  0.33262559  0.33237332  1
  Ni  Ni6  1  0.99750185  0.66646943  0.00003515  1
  Ni  Ni7  1  0.16467501  0.83261303  0.16236623  1
  Ni  Ni8  1  0.99528456  0.66615159  0.33295044  1
  Ni  Ni9  1  0.32948459  0.99683460  -0.00129999  1
  Cr  Cr10  1  0.49893442  0.16581190  0.16737887  1
  Cr  Cr11  1  0.33120060  0.00054659  0.33151344  1
  Cr  Cr12  1  0.33295347  0.33107412  0.99803142  1
  Ni  Ni13  1  0.49995725  0.50085826  0.16542289  1
  Ni  Ni14  1  0.33326262  0.33096627  0.33296714  1
  Ni  Ni15  1  0.33469593  0.66811967  -0.00014182  1
  Ni  Ni16  1  0.49917685  0.82962448  0.16380330  1
  Cr  Cr17  1  0.33285410  0.66429601  0.33060482  1
  Cr  Cr18  1  0.66395996  0.99687386  -0.00108703  1
  Cr  Cr19  1  0.83282614  0.16557662  0.16504081  1
  Ni  Ni20  1  0.66561075  0.99695597  0.33187575  1
  Ni  Ni21  1  0.66550178  0.33603979  0.99681315  1
  Cr  Cr22  1  0.83111208  0.49916411  0.16504794  1
  Ni  Ni23  1  0.66327163  0.33422663  0.33354060  1
  Ni  Ni24  1  0.66372931  0.66344840  -0.00101557  1
  Ni  Ni25  1  0.83203752  0.83049298  0.16592945  1
  Ni  Ni26  1  0.66732527  0.66471767  0.33145829  1
  Ni  Ni27  1  0.16687726  0.16562863  0.50017647  1
  Ni  Ni28  1  0.00092014  0.99847863  0.66344926  1
  Ni  Ni29  1  0.16622399  0.16477244  0.83154731  1
  Cr  Cr30  1  0.16469214  0.49846363  0.49904570  1
  Ni  Ni31  1  -0.00114340  0.33171007  0.66569718  1
  Cr  Cr32  1  0.16413107  0.49873854  0.83131993  1
  Ni  Ni33  1  0.16247068  0.83246135  0.50127053  1
  Ni  Ni34  1  0.99660531  0.66572819  0.66289866  1
  Cr  Cr35  1  0.16751730  0.83259351  0.83174202  1
  Ni  Ni36  1  0.49795933  0.16770160  0.49927454  1
  Ni  Ni37  1  0.33152649  0.00066654  0.66571290  1
  Ni  Ni38  1  0.49731213  0.16534225  0.82986137  1
  Ni  Ni39  1  0.50091351  0.49588913  0.49894695  1
  Ni  Ni40  1  0.33375629  0.32971529  0.66468820  1
  Ni  Ni41  1  0.50124373  0.49933987  0.83153152  1
  Cr  Cr42  1  0.50016175  0.83268846  0.50062532  1
  Ni  Ni43  1  0.33381848  0.66553857  0.66567904  1
  Ni  Ni44  1  0.49760275  0.83125930  0.83176320  1
  Cr  Cr45  1  0.83008644  0.16573718  0.49879715  1
  Ni  Ni46  1  0.66345654  0.99843443  0.66490560  1
  Cr  Cr47  1  0.83244540  0.16769745  0.83206146  1
  Ni  Ni48  1  0.83089855  0.50029450  0.49861119  1
  Ni  Ni49  1  0.66330735  0.33395000  0.66558835  1
  Ni  Ni50  1  0.83010758  0.49790957  0.83225533  1
  Ni  Ni51  1  0.83296502  0.82955341  0.49885239  1
  Ni  Ni52  1  0.66548782  0.66351712  0.66546912  1
  Cr  Cr53  1  0.83117152  0.83019292  0.83084315  1
" 