3655,Ni31Fe67Cr1_15,-234.863868437852, 197.842235789501,Ni31Fe67Cr1,"# generated using pymatgen
 data_Cr(Fe9Ni4)2
_symmetry_space_group_name_H-M   'P 1'
_cell_length_a   7.40511865
_cell_length_b   7.40511865
_cell_length_c   10.47241923
_cell_angle_alpha   90.00000000
_cell_angle_beta   90.00000000
_cell_angle_gamma   90.00000000
_symmetry_Int_Tables_number   1
_chemical_formula_structural   Cr(Fe9Ni4)2
_chemical_formula_sum   'Cr2 Fe36 Ni16'
_cell_volume   574.26329995
_cell_formula_units_Z   2
loop_
 _symmetry_equiv_pos_site_id
 _symmetry_equiv_pos_as_xyz
  1  'x, y, z'
loop_
 _atom_site_type_symbol
 _atom_site_label
 _atom_site_symmetry_multiplicity
 _atom_site_fract_x
 _atom_site_fract_y
 _atom_site_fract_z
 _atom_site_occupancy
  Fe  Fe0  1  1.00369973  0.00504145  1.00276497  1
  Fe  Fe1  1  0.17125965  0.17160246  0.17097719  1
  Fe  Fe2  1  0.00460716  0.00507164  0.33893156  1
  Fe  Fe3  1  1.00293570  0.33769177  0.00431489  1
  Fe  Fe4  1  0.17052594  0.50437055  0.17057335  1
  Fe  Fe5  1  1.00381470  0.33640811  0.33764448  1
  Ni  Ni6  1  0.00425954  0.67000566  1.00317827  1
  Fe  Fe7  1  0.17243194  0.83656845  0.17097810  1
  Fe  Fe8  1  0.00466753  0.67106402  0.33836931  1
  Fe  Fe9  1  0.33812968  1.00411649  0.00424901  1
  Fe  Fe10  1  0.50481726  0.17123311  0.17077504  1
  Ni  Ni11  1  0.33794328  0.00437327  0.33749233  1
  Ni  Ni12  1  0.33809910  0.33731013  0.00438677  1
  Ni  Ni13  1  0.50349759  0.50363635  0.17101875  1
  Fe  Fe14  1  0.33809264  0.33694048  0.33687175  1
  Fe  Fe15  1  0.33887328  0.66992918  0.00427793  1
  Fe  Fe16  1  0.50338123  0.83720441  0.17110934  1
  Fe  Fe17  1  0.33822558  0.67151851  0.33734921  1
  Ni  Ni18  1  0.67013690  0.00518114  1.00278624  1
  Fe  Fe19  1  0.83646406  0.17313448  0.17077777  1
  Ni  Ni20  1  0.66965124  0.00517982  0.33923369  1
  Ni  Ni21  1  0.67023812  0.33763248  0.00496869  1
  Ni  Ni22  1  0.83656060  0.50306056  0.17044355  1
  Fe  Fe23  1  0.67063474  0.33687770  0.33697195  1
  Ni  Ni24  1  0.67155797  0.66973404  1.00354146  1
  Cr  Cr25  1  0.83733568  0.83799556  0.17065198  1
  Fe  Fe26  1  0.66964914  0.67072844  0.33769552  1
  Fe  Fe27  1  0.17130401  0.17083172  0.50335485  1
  Cr  Cr28  1  1.00412591  1.00294291  0.67025772  1
  Fe  Fe29  1  0.17180894  0.17160987  0.83821047  1
  Fe  Fe30  1  0.16954157  0.50438059  0.50447698  1
  Fe  Fe31  1  0.00434396  0.33844913  0.67058415  1
  Fe  Fe32  1  0.17007586  0.50437888  0.83749198  1
  Fe  Fe33  1  0.17100482  0.83732971  0.50359115  1
  Ni  Ni34  1  1.00360591  0.66915722  0.67033682  1
  Fe  Fe35  1  0.17097305  0.83655034  0.83796993  1
  Fe  Fe36  1  0.50475569  0.16964803  0.50394651  1
  Ni  Ni37  1  0.33905632  0.00491461  0.67071455  1
  Fe  Fe38  1  0.50489366  0.17072983  0.83782648  1
  Fe  Fe39  1  0.50506191  0.50411354  0.50424966  1
  Fe  Fe40  1  0.33702114  0.33776406  0.67149125  1
  Ni  Ni41  1  0.50282681  0.50404439  0.83769351  1
  Fe  Fe42  1  0.50478701  0.83878541  0.50384860  1
  Fe  Fe43  1  0.33712209  0.67111044  0.67091817  1
  Fe  Fe44  1  0.50519389  0.83797276  0.83758609  1
  Ni  Ni45  1  0.83722163  0.16991966  0.50263281  1
  Fe  Fe46  1  0.67031470  1.00374172  0.67071602  1
  Ni  Ni47  1  0.83732095  0.16997309  0.83906189  1
  Fe  Fe48  1  0.83793964  0.50441234  0.50387398  1
  Fe  Fe49  1  0.67117765  0.33718731  0.67136158  1
  Fe  Fe50  1  0.83725996  0.50467790  0.83829484  1
  Ni  Ni51  1  0.83722515  0.83800658  0.50352587  1
  Fe  Fe52  1  0.67100663  0.67161488  0.67136160  1
  Ni  Ni53  1  0.83734195  0.83794368  0.83809026  1
" 