6517,Ni31Fe67Cr1_3,-234.99033466843, 199.447610003184,Ni31Fe67Cr1,"# generated using pymatgen
 data_Cr(Fe9Ni4)2
_symmetry_space_group_name_H-M   'P 1'
_cell_length_a   7.40929603
_cell_length_b   7.40929603
_cell_length_c   10.47832693
_cell_angle_alpha   90.00000000
_cell_angle_beta   90.00000000
_cell_angle_gamma   90.00000000
_symmetry_Int_Tables_number   1
_chemical_formula_structural   Cr(Fe9Ni4)2
_chemical_formula_sum   'Cr2 Fe36 Ni16'
_cell_volume   575.23570973
_cell_formula_units_Z   2
loop_
 _symmetry_equiv_pos_site_id
 _symmetry_equiv_pos_as_xyz
  1  'x, y, z'
loop_
 _atom_site_type_symbol
 _atom_site_label
 _atom_site_symmetry_multiplicity
 _atom_site_fract_x
 _atom_site_fract_y
 _atom_site_fract_z
 _atom_site_occupancy
  Fe  Fe0  1  1.00328810  0.00516460  1.00361656  1
  Fe  Fe1  1  0.17132610  0.17083220  0.17115858  1
  Fe  Fe2  1  1.00362985  0.00427457  0.33703812  1
  Fe  Fe3  1  1.00370734  0.33506683  0.00398615  1
  Fe  Fe4  1  0.17155382  0.50329931  0.17138287  1
  Ni  Ni5  1  0.00436049  0.33908339  0.33722363  1
  Cr  Cr6  1  0.00414031  0.67037349  1.00362262  1
  Ni  Ni7  1  0.17093313  0.83854006  0.17174618  1
  Ni  Ni8  1  1.00354513  0.67008117  0.33738646  1
  Fe  Fe9  1  0.33714676  1.00345528  0.00402424  1
  Fe  Fe10  1  0.50356822  0.17029896  0.17104539  1
  Ni  Ni11  1  0.33792534  0.00463454  0.33668619  1
  Fe  Fe12  1  0.33751402  0.33755506  0.00424945  1
  Ni  Ni13  1  0.50419845  0.50353956  0.17095891  1
  Ni  Ni14  1  0.33737389  0.33606395  0.33729467  1
  Fe  Fe15  1  0.33922177  0.67068037  0.00405840  1
  Fe  Fe16  1  0.50383260  0.83727410  0.17134710  1
  Fe  Fe17  1  0.33799968  0.67022725  0.33682505  1
  Ni  Ni18  1  0.66969347  0.00440428  1.00266884  1
  Fe  Fe19  1  0.83679463  0.17063265  0.17078576  1
  Ni  Ni20  1  0.66904192  1.00381647  0.33813872  1
  Fe  Fe21  1  0.67047274  0.33714324  0.00398826  1
  Fe  Fe22  1  0.83650745  0.50356120  0.17239016  1
  Ni  Ni23  1  0.66995878  0.33724391  0.33615211  1
  Fe  Fe24  1  0.66876331  0.67109807  0.00432195  1
  Fe  Fe25  1  0.83597348  0.83750184  0.17107851  1
  Ni  Ni26  1  0.67206169  0.67062974  0.33636584  1
  Fe  Fe27  1  0.17249239  0.17082850  0.50267270  1
  Cr  Cr28  1  0.00507178  1.00152430  0.67104815  1
  Fe  Fe29  1  0.17117328  0.17120252  0.83786614  1
  Fe  Fe30  1  0.17035051  0.50439029  0.50416861  1
  Fe  Fe31  1  0.00422436  0.33903870  0.67047190  1
  Ni  Ni32  1  0.17129590  0.50242181  0.83616446  1
  Fe  Fe33  1  0.17193313  0.83646955  0.50271131  1
  Ni  Ni34  1  0.00407649  0.66904362  0.67117286  1
  Fe  Fe35  1  0.17169689  0.83668740  0.83726935  1
  Fe  Fe36  1  0.50382656  0.16993310  0.50367790  1
  Ni  Ni37  1  0.33887750  0.00402513  0.67184488  1
  Fe  Fe38  1  0.50412721  0.17030591  0.83696949  1
  Fe  Fe39  1  0.50450728  0.50382327  0.50300545  1
  Fe  Fe40  1  0.33669159  0.33735142  0.67058306  1
  Fe  Fe41  1  0.50416111  0.50404921  0.83766868  1
  Ni  Ni42  1  0.50422841  0.83782544  0.50368235  1
  Fe  Fe43  1  0.33702139  0.67067303  0.67080804  1
  Fe  Fe44  1  0.50386111  0.83733855  0.83673940  1
  Fe  Fe45  1  0.83537300  0.17151226  0.50267392  1
  Fe  Fe46  1  0.66900907  1.00341333  0.67077386  1
  Fe  Fe47  1  0.83639097  0.17150457  0.83823306  1
  Fe  Fe48  1  0.83683560  0.50438667  0.50353276  1
  Ni  Ni49  1  0.66975478  0.33760466  0.67118274  1
  Fe  Fe50  1  0.83703624  0.50352910  0.83576472  1
  Fe  Fe51  1  0.83594082  0.83579148  0.50323573  1
  Fe  Fe52  1  0.67070179  0.67126306  0.67017085  1
  Ni  Ni53  1  0.83525920  0.83803788  0.83681777  1
" 