6977,Ni31Fe50Cr17_1,-231.754875267876, 203.807911494956,Ni31Fe50Cr17,"# generated using pymatgen
 data_Cr10Fe27Ni17
_symmetry_space_group_name_H-M   'P 1'
_cell_length_a   7.43516628
_cell_length_b   7.43516628
_cell_length_c   10.51491300
_cell_angle_alpha   90.00000000
_cell_angle_beta   90.00000000
_cell_angle_gamma   90.00000000
_symmetry_Int_Tables_number   1
_chemical_formula_structural   Cr10Fe27Ni17
_chemical_formula_sum   'Cr10 Fe27 Ni17'
_cell_volume   581.28224101
_cell_formula_units_Z   1
loop_
 _symmetry_equiv_pos_site_id
 _symmetry_equiv_pos_as_xyz
  1  'x, y, z'
loop_
 _atom_site_type_symbol
 _atom_site_label
 _atom_site_symmetry_multiplicity
 _atom_site_fract_x
 _atom_site_fract_y
 _atom_site_fract_z
 _atom_site_occupancy
  Ni  Ni0  1  0.99883418  1.00028544  1.00148014  1
  Cr  Cr1  1  0.17064038  0.16764539  0.16938908  1
  Fe  Fe2  1  1.00049417  1.00049123  0.33340411  1
  Fe  Fe3  1  0.99994774  0.33812694  1.00191574  1
  Fe  Fe4  1  0.16760277  0.50381142  0.16807771  1
  Fe  Fe5  1  1.00181049  0.33756101  0.33464908  1
  Fe  Fe6  1  1.00123696  0.66839618  0.00252010  1
  Ni  Ni7  1  0.16685484  0.83571708  0.16654723  1
  Ni  Ni8  1  1.00109009  0.66982307  0.33322231  1
  Fe  Fe9  1  0.33714361  0.99927651  1.00103893  1
  Cr  Cr10  1  0.50059306  0.16953314  0.16781508  1
  Fe  Fe11  1  0.33554104  1.00057690  0.33442217  1
  Ni  Ni12  1  0.33711283  0.33908456  1.00141319  1
  Fe  Fe13  1  0.50310256  0.50345701  0.16770259  1
  Ni  Ni14  1  0.33555973  0.33778526  0.33641064  1
  Ni  Ni15  1  0.33579151  0.66815608  0.00220135  1
  Fe  Fe16  1  0.50329326  0.83373598  0.16687217  1
  Cr  Cr17  1  0.33538640  0.66619237  0.33454199  1
  Fe  Fe18  1  0.66893179  1.00069539  1.00037812  1
  Fe  Fe19  1  0.83606534  0.16807713  0.16828773  1
  Fe  Fe20  1  0.67035798  1.00002951  0.33561814  1
  Ni  Ni21  1  0.66897017  0.33542020  1.00014462  1
  Ni  Ni22  1  0.83477859  0.50450020  0.16873972  1
  Fe  Fe23  1  0.66939391  0.33766919  0.33407233  1
  Ni  Ni24  1  0.66800427  0.66933348  0.00261354  1
  Ni  Ni25  1  0.83681452  0.83173914  0.16976193  1
  Fe  Fe26  1  0.66968735  0.66878638  0.33385341  1
  Cr  Cr27  1  0.17035414  0.16791765  0.50056727  1
  Fe  Fe28  1  1.00165799  0.99970271  0.67061193  1
  Cr  Cr29  1  0.17261635  0.16697876  0.83644261  1
  Fe  Fe30  1  0.17123878  0.50204348  0.50228274  1
  Cr  Cr31  1  0.00229534  0.33623449  0.66946752  1
  Fe  Fe32  1  0.17025253  0.50508309  0.83602501  1
  Cr  Cr33  1  0.16675650  0.83657918  0.50484503  1
  Ni  Ni34  1  0.00287196  0.67077697  0.67088918  1
  Fe  Fe35  1  0.16845410  0.83353537  0.83615595  1
  Cr  Cr36  1  0.49969164  0.17121534  0.50182136  1
  Fe  Fe37  1  0.33550158  1.00075146  0.67099532  1
  Ni  Ni38  1  0.50034304  0.16997009  0.83582814  1
  Ni  Ni39  1  0.50374237  0.50152348  0.50379023  1
  Ni  Ni40  1  0.33770111  0.33891095  0.66864066  1
  Fe  Fe41  1  0.50284647  0.50227029  0.83585444  1
  Fe  Fe42  1  0.50387479  0.83322997  0.50279009  1
  Fe  Fe43  1  0.33632772  0.66753456  0.66986067  1
  Ni  Ni44  1  0.50174180  0.83561292  0.83630075  1
  Fe  Fe45  1  0.83503211  0.16753032  0.50034860  1
  Cr  Cr46  1  0.67079266  1.00185813  0.67059664  1
  Fe  Fe47  1  0.83279079  0.16812869  0.83770328  1
  Cr  Cr48  1  0.83335767  0.50542426  0.50159876  1
  Fe  Fe49  1  0.66710100  0.33789355  0.67131770  1
  Ni  Ni50  1  0.83401497  0.50498831  0.83638801  1
  Fe  Fe51  1  0.83463174  0.83565606  0.50133733  1
  Fe  Fe52  1  0.66824401  0.66732174  0.67081149  1
  Ni  Ni53  1  0.83650089  0.83119556  0.83540971  1
" 