1424,Ni31Cr69_17,-227.761387420901, 148.493630373505,Ni31Cr69,"# generated using pymatgen
 data_Cr8Ni19
_symmetry_space_group_name_H-M   'P 1'
_cell_length_a   7.48652885
_cell_length_b   7.48652885
_cell_length_c   10.58755063
_cell_angle_alpha   90.00000000
_cell_angle_beta   90.00000000
_cell_angle_gamma   90.00000000
_symmetry_Int_Tables_number   1
_chemical_formula_structural   Cr8Ni19
_chemical_formula_sum   'Cr16 Ni38'
_cell_volume   593.41224697
_cell_formula_units_Z   2
loop_
 _symmetry_equiv_pos_site_id
 _symmetry_equiv_pos_as_xyz
  1  'x, y, z'
loop_
 _atom_site_type_symbol
 _atom_site_label
 _atom_site_symmetry_multiplicity
 _atom_site_fract_x
 _atom_site_fract_y
 _atom_site_fract_z
 _atom_site_occupancy
  Cr  Cr0  1  0.99869638  0.99811145  -0.00055131  1
  Ni  Ni1  1  0.16650700  0.16421324  0.16687594  1
  Ni  Ni2  1  0.00186889  0.99641513  0.33319049  1
  Ni  Ni3  1  -0.00040755  0.33345379  0.99812407  1
  Ni  Ni4  1  0.16510811  0.49989328  0.16367751  1
  Cr  Cr5  1  0.00320950  0.33224964  0.33405209  1
  Ni  Ni6  1  0.00192501  0.66484328  0.00027759  1
  Ni  Ni7  1  0.16427900  0.83208103  0.16574103  1
  Ni  Ni8  1  0.00047674  0.66794772  0.33252651  1
  Ni  Ni9  1  0.33297980  0.99732642  0.99868982  1
  Cr  Cr10  1  0.49755718  0.16622125  0.16684016  1
  Ni  Ni11  1  0.32764847  -0.00010990  0.33414795  1
  Cr  Cr12  1  0.32992529  0.33450638  0.99824928  1
  Ni  Ni13  1  0.49667284  0.49681169  0.16563075  1
  Ni  Ni14  1  0.33184999  0.33187584  0.33333910  1
  Ni  Ni15  1  0.32977238  0.66514418  0.99846961  1
  Cr  Cr16  1  0.49643608  0.83363817  0.16422003  1
  Cr  Cr17  1  0.32854796  0.66306496  0.33182479  1
  Ni  Ni18  1  0.66517732  -0.00074470  0.99495845  1
  Cr  Cr19  1  0.83092251  0.16610637  0.16448537  1
  Cr  Cr20  1  0.66811587  0.99749372  0.33629362  1
  Ni  Ni21  1  0.66396579  0.33083287  0.99654467  1
  Cr  Cr22  1  0.83110453  0.49894989  0.16576407  1
  Ni  Ni23  1  0.66272368  0.33270927  0.33557966  1
  Cr  Cr24  1  0.66355045  0.66715073  0.99709463  1
  Ni  Ni25  1  0.83604682  0.83163568  0.16545269  1
  Cr  Cr26  1  0.66618543  0.66459735  0.33600145  1
  Ni  Ni27  1  0.16677480  0.16426194  0.49964449  1
  Ni  Ni28  1  0.99823851  -0.00103534  0.66253110  1
  Cr  Cr29  1  0.16537777  0.16616104  0.82831057  1
  Ni  Ni30  1  0.16525989  0.49933394  0.50150645  1
  Ni  Ni31  1  0.00094245  0.33190678  0.66397964  1
  Ni  Ni32  1  0.16624501  0.50015250  0.83069287  1
  Ni  Ni33  1  0.16487632  0.83265549  0.49936522  1
  Ni  Ni34  1  -0.00070344  0.66542983  0.66287581  1
  Cr  Cr35  1  0.16682534  0.82908214  0.82918804  1
  Ni  Ni36  1  0.49511208  0.16610759  0.49735228  1
  Ni  Ni37  1  0.33261469  -0.00111311  0.66302394  1
  Ni  Ni38  1  0.49836521  0.16420523  0.83327381  1
  Ni  Ni39  1  0.49727001  0.49782403  0.49927859  1
  Ni  Ni40  1  0.33082687  0.33347732  0.66395545  1
  Ni  Ni41  1  0.49672848  0.49983548  0.83094920  1
  Ni  Ni42  1  0.49551429  0.83208787  0.50146440  1
  Ni  Ni43  1  0.33288581  0.66373151  0.66498740  1
  Ni  Ni44  1  0.49740184  0.83194125  0.83149685  1
  Ni  Ni45  1  0.83434664  0.16608864  0.49887343  1
  Cr  Cr46  1  0.66635600  0.99711546  0.66666140  1
  Ni  Ni47  1  0.83171059  0.16538450  0.83317981  1
  Ni  Ni48  1  0.83347898  0.49966057  0.49945401  1
  Cr  Cr49  1  0.66378308  0.33173887  0.66426886  1
  Cr  Cr50  1  0.83625989  0.49881596  0.83097504  1
  Ni  Ni51  1  0.83594974  0.83037124  0.50001168  1
  Ni  Ni52  1  0.66412188  0.66633802  0.66388891  1
  Ni  Ni53  1  0.83233311  0.83176387  0.83105211  1
" 