7769,Ni31Fe67Cr1_12,-234.953075775784, 202.855460419665,Ni31Fe67Cr1,"# generated using pymatgen
 data_Cr(Fe9Ni4)2
_symmetry_space_group_name_H-M   'P 1'
_cell_length_a   7.40395112
_cell_length_b   7.40395112
_cell_length_c   10.47076809
_cell_angle_alpha   90.00000000
_cell_angle_beta   90.00000000
_cell_angle_gamma   90.00000000
_symmetry_Int_Tables_number   1
_chemical_formula_structural   Cr(Fe9Ni4)2
_chemical_formula_sum   'Cr2 Fe36 Ni16'
_cell_volume   573.99171953
_cell_formula_units_Z   2
loop_
 _symmetry_equiv_pos_site_id
 _symmetry_equiv_pos_as_xyz
  1  'x, y, z'
loop_
 _atom_site_type_symbol
 _atom_site_label
 _atom_site_symmetry_multiplicity
 _atom_site_fract_x
 _atom_site_fract_y
 _atom_site_fract_z
 _atom_site_occupancy
  Fe  Fe0  1  0.00481319  1.00294183  0.00499786  1
  Fe  Fe1  1  0.16949001  0.16995763  0.16936623  1
  Ni  Ni2  1  1.00423227  1.00425105  0.33767066  1
  Ni  Ni3  1  1.00296650  0.33837092  1.00394766  1
  Ni  Ni4  1  0.17101055  0.50365864  0.17203940  1
  Fe  Fe5  1  0.00566194  0.33578802  0.33567381  1
  Fe  Fe6  1  0.00599103  0.67063344  1.00359833  1
  Ni  Ni7  1  0.16987046  0.83595824  0.16969304  1
  Fe  Fe8  1  0.00577996  0.67330363  0.33716232  1
  Ni  Ni9  1  0.33732078  1.00325713  0.00431802  1
  Fe  Fe10  1  0.50423761  0.17072695  0.16855091  1
  Cr  Cr11  1  0.33699913  1.00288618  0.33638638  1
  Fe  Fe12  1  0.33593372  0.33868518  1.00376301  1
  Fe  Fe13  1  0.50375630  0.50685484  0.17167435  1
  Fe  Fe14  1  0.33705576  0.33843745  0.33793445  1
  Ni  Ni15  1  0.33781127  0.67189144  0.00443901  1
  Ni  Ni16  1  0.50551649  0.83846675  0.16982422  1
  Fe  Fe17  1  0.33712623  0.66985925  0.33624883  1
  Fe  Fe18  1  0.67097333  1.00388683  1.00391921  1
  Fe  Fe19  1  0.83875631  0.17028199  0.17079813  1
  Fe  Fe20  1  0.67270365  1.00410125  0.33703908  1
  Fe  Fe21  1  0.66952726  0.33751618  1.00316118  1
  Fe  Fe22  1  0.83822459  0.50604375  0.17097347  1
  Fe  Fe23  1  0.66959394  0.33550433  0.33766270  1
  Fe  Fe24  1  0.67156221  0.67189436  1.00397632  1
  Ni  Ni25  1  0.83781909  0.83831314  0.17172564  1
  Fe  Fe26  1  0.66967332  0.67323262  0.33744400  1
  Fe  Fe27  1  0.16976234  0.17241720  0.50481640  1
  Fe  Fe28  1  1.00285584  1.00319347  0.67025636  1
  Fe  Fe29  1  0.17113922  0.16970847  0.83828758  1
  Fe  Fe30  1  0.17249993  0.50463821  0.50464467  1
  Fe  Fe31  1  1.00405211  0.33803010  0.67287296  1
  Ni  Ni32  1  0.17109920  0.50439743  0.83635129  1
  Fe  Fe33  1  0.16987471  0.83586455  0.50525816  1
  Ni  Ni34  1  0.00445717  0.67154371  0.67162528  1
  Ni  Ni35  1  0.16973521  0.83685692  0.83788485  1
  Fe  Fe36  1  0.50543375  0.17236320  0.50634114  1
  Fe  Fe37  1  0.33824716  1.00346073  0.67203534  1
  Ni  Ni38  1  0.50455795  0.17142928  0.83728818  1
  Ni  Ni39  1  0.50358552  0.50361107  0.50404897  1
  Fe  Fe40  1  0.33833949  0.33902406  0.67108938  1
  Fe  Fe41  1  0.50359163  0.50561870  0.83683887  1
  Fe  Fe42  1  0.50560657  0.83503560  0.50459767  1
  Fe  Fe43  1  0.33799763  0.67016013  0.67168066  1
  Fe  Fe44  1  0.50316921  0.83780037  0.83870154  1
  Fe  Fe45  1  0.83695174  0.17025227  0.50420890  1
  Fe  Fe46  1  0.67161189  1.00342638  0.67183395  1
  Fe  Fe47  1  0.83863864  0.17073961  0.83779551  1
  Cr  Cr48  1  0.83794723  0.50477828  0.50427227  1
  Ni  Ni49  1  0.67086962  0.33765863  0.67216331  1
  Fe  Fe50  1  0.83814463  0.50476474  0.83688656  1
  Fe  Fe51  1  0.83703647  0.83833321  0.50483372  1
  Ni  Ni52  1  0.67054056  0.67043982  0.67216029  1
  Ni  Ni53  1  0.83794170  0.83784486  0.83733200  1
" 