8228,Ni31Cr69_2,-227.625673186866, 145.817642893739,Ni31Cr69,"# generated using pymatgen
 data_Cr8Ni19
_symmetry_space_group_name_H-M   'P 1'
_cell_length_a   7.48828560
_cell_length_b   7.48828560
_cell_length_c   10.59003505
_cell_angle_alpha   90.00000000
_cell_angle_beta   90.00000000
_cell_angle_gamma   90.00000000
_symmetry_Int_Tables_number   1
_chemical_formula_structural   Cr8Ni19
_chemical_formula_sum   'Cr16 Ni38'
_cell_volume   593.83008588
_cell_formula_units_Z   2
loop_
 _symmetry_equiv_pos_site_id
 _symmetry_equiv_pos_as_xyz
  1  'x, y, z'
loop_
 _atom_site_type_symbol
 _atom_site_label
 _atom_site_symmetry_multiplicity
 _atom_site_fract_x
 _atom_site_fract_y
 _atom_site_fract_z
 _atom_site_occupancy
  Ni  Ni0  1  0.00065854  0.00057056  -0.00094828  1
  Ni  Ni1  1  0.16694325  0.16284264  0.16404889  1
  Ni  Ni2  1  0.00141007  0.00025489  0.33087348  1
  Ni  Ni3  1  -0.00026400  0.32898839  0.99735698  1
  Cr  Cr4  1  0.16788877  0.49799440  0.16731604  1
  Cr  Cr5  1  0.99851443  0.32680015  0.33193673  1
  Cr  Cr6  1  -0.00033496  0.66609409  0.99597823  1
  Ni  Ni7  1  0.16736464  0.83575020  0.16767924  1
  Ni  Ni8  1  0.00156478  0.66779927  0.33082190  1
  Ni  Ni9  1  0.33067291  -0.00068903  -0.00039229  1
  Ni  Ni10  1  0.49761374  0.16590235  0.16454098  1
  Ni  Ni11  1  0.33102277  -0.00033397  0.33093548  1
  Ni  Ni12  1  0.33145140  0.33040272  -0.00137067  1
  Ni  Ni13  1  0.49815352  0.49642007  0.16543372  1
  Ni  Ni14  1  0.33488891  0.32966762  0.33212789  1
  Cr  Cr15  1  0.33330951  0.66677443  0.99760946  1
  Ni  Ni16  1  0.49602226  0.83340127  0.16432045  1
  Ni  Ni17  1  0.33349819  0.66647229  0.33112739  1
  Ni  Ni18  1  0.66422058  0.99745478  -0.00062523  1
  Ni  Ni19  1  0.83127767  0.16488087  0.16384912  1
  Cr  Cr20  1  0.66358166  0.00218945  0.33340347  1
  Ni  Ni21  1  0.66434371  0.33274922  0.00048345  1
  Cr  Cr22  1  0.83002392  0.49679986  0.16459438  1
  Ni  Ni23  1  0.66176553  0.33003573  0.33184560  1
  Ni  Ni24  1  0.66323848  0.66529509  0.99660742  1
  Cr  Cr25  1  0.83312060  0.83384596  0.16457824  1
  Cr  Cr26  1  0.66151089  0.66445408  0.33177086  1
  Ni  Ni27  1  0.16693122  0.16432370  0.49964262  1
  Ni  Ni28  1  -0.00007370  -0.00010031  0.66582447  1
  Ni  Ni29  1  0.16554122  0.16507871  0.83195239  1
  Cr  Cr30  1  0.16753497  0.49893043  0.49898999  1
  Ni  Ni31  1  0.00115943  0.33050151  0.66637670  1
  Ni  Ni32  1  0.16567059  0.49678297  0.82963908  1
  Cr  Cr33  1  0.16657217  0.83248141  0.49734906  1
  Ni  Ni34  1  0.00050293  0.66545017  0.66895089  1
  Ni  Ni35  1  0.16545459  0.83393671  0.83013632  1
  Ni  Ni36  1  0.49626225  0.16506621  0.49850994  1
  Ni  Ni37  1  0.33140886  0.99850085  0.66511047  1
  Cr  Cr38  1  0.49576881  0.16404159  0.83313863  1
  Ni  Ni39  1  0.49557945  0.49728354  0.49711414  1
  Ni  Ni40  1  0.32992489  0.33168872  0.66511478  1
  Ni  Ni41  1  0.49726651  0.49858603  0.83299610  1
  Ni  Ni42  1  0.49568985  0.83325398  0.49980482  1
  Ni  Ni43  1  0.33189813  0.66545178  0.66664126  1
  Ni  Ni44  1  0.49827469  0.83264716  0.83181453  1
  Ni  Ni45  1  0.83257742  0.16417647  0.49915991  1
  Ni  Ni46  1  0.66423517  0.99754222  0.66398737  1
  Cr  Cr47  1  0.83202959  0.16394748  0.83301076  1
  Cr  Cr48  1  0.83354454  0.49840867  0.49761666  1
  Cr  Cr49  1  0.66441678  0.33117720  0.66246655  1
  Ni  Ni50  1  0.83274590  0.49903940  0.83302514  1
  Cr  Cr51  1  0.83411359  0.83364899  0.49967489  1
  Cr  Cr52  1  0.66297454  0.66645826  0.66758721  1
  Ni  Ni53  1  0.83195751  0.83230244  0.83188606  1
" 