420,Ni31Cr69_11,-227.644695232554, 145.07001868579,Ni31Cr69,"# generated using pymatgen
 data_Cr8Ni19
_symmetry_space_group_name_H-M   'P 1'
_cell_length_a   7.48861906
_cell_length_b   7.48861906
_cell_length_c   10.59050664
_cell_angle_alpha   90.00000000
_cell_angle_beta   90.00000000
_cell_angle_gamma   90.00000000
_symmetry_Int_Tables_number   1
_chemical_formula_structural   Cr8Ni19
_chemical_formula_sum   'Cr16 Ni38'
_cell_volume   593.90942093
_cell_formula_units_Z   2
loop_
 _symmetry_equiv_pos_site_id
 _symmetry_equiv_pos_as_xyz
  1  'x, y, z'
loop_
 _atom_site_type_symbol
 _atom_site_label
 _atom_site_symmetry_multiplicity
 _atom_site_fract_x
 _atom_site_fract_y
 _atom_site_fract_z
 _atom_site_occupancy
  Cr  Cr0  1  0.00009345  0.99661686  0.99341985  1
  Cr  Cr1  1  0.16526423  0.16271974  0.16494558  1
  Ni  Ni2  1  -0.00113731  0.99613827  0.33425255  1
  Ni  Ni3  1  -0.00124231  0.33554957  0.99706687  1
  Ni  Ni4  1  0.16321873  0.50210902  0.16564133  1
  Ni  Ni5  1  -0.00108920  0.33387223  0.33121093  1
  Ni  Ni6  1  -0.00007261  0.66322588  0.99768430  1
  Ni  Ni7  1  0.16774437  0.82917284  0.16616446  1
  Ni  Ni8  1  0.00188780  0.66583256  0.33206509  1
  Ni  Ni9  1  0.33318343  0.99478623  0.99852146  1
  Ni  Ni10  1  0.49823873  0.16096794  0.16577601  1
  Ni  Ni11  1  0.33347274  0.99513529  0.33180556  1
  Cr  Cr12  1  0.33015571  0.33474420  -0.00071637  1
  Ni  Ni13  1  0.49750724  0.50224165  0.16387052  1
  Cr  Cr14  1  0.33241405  0.33507192  0.33054672  1
  Ni  Ni15  1  0.33168406  0.66676820  -0.00097163  1
  Ni  Ni16  1  0.49621453  0.83256038  0.16413764  1
  Ni  Ni17  1  0.32925354  0.66805394  0.33098549  1
  Ni  Ni18  1  0.66297126  0.99583130  0.99810898  1
  Cr  Cr19  1  0.83243072  0.16461046  0.16586628  1
  Ni  Ni20  1  0.66336619  0.99802574  0.33349202  1
  Cr  Cr21  1  0.66560055  0.33413945  -0.00068532  1
  Ni  Ni22  1  0.83482048  0.49994300  0.16405962  1
  Cr  Cr23  1  0.66429640  0.33092300  0.33117450  1
  Ni  Ni24  1  0.66413772  0.66607513  0.99752898  1
  Cr  Cr25  1  0.83270121  0.83040357  0.16478745  1
  Cr  Cr26  1  0.66263637  0.66741533  0.33087482  1
  Cr  Cr27  1  0.16693428  0.16487440  0.49801155  1
  Cr  Cr28  1  -0.00064395  0.99473541  0.66679246  1
  Ni  Ni29  1  0.16602177  0.16534001  0.83215362  1
  Ni  Ni30  1  0.16522647  0.50218620  0.49834511  1
  Cr  Cr31  1  -0.00114060  0.33235092  0.66756814  1
  Ni  Ni32  1  0.16538179  0.50080699  0.83164131  1
  Ni  Ni33  1  0.16637156  0.82956954  0.49759918  1
  Ni  Ni34  1  -0.00019298  0.66613868  0.66579348  1
  Ni  Ni35  1  0.16744342  0.82949411  0.83190630  1
  Ni  Ni36  1  0.49888391  0.16258956  0.49912855  1
  Ni  Ni37  1  0.33191199  0.99610085  0.66540909  1
  Cr  Cr38  1  0.49681332  0.16392302  0.83094891  1
  Cr  Cr39  1  0.49592362  0.50027117  0.50337169  1
  Ni  Ni40  1  0.33221986  0.33311019  0.66612844  1
  Ni  Ni41  1  0.49845945  0.50217236  0.83000424  1
  Ni  Ni42  1  0.49657518  0.83324037  0.49862480  1
  Ni  Ni43  1  0.33063407  0.66651551  0.66586281  1
  Ni  Ni44  1  0.49754422  0.82915694  0.83289014  1
  Ni  Ni45  1  0.83059991  0.16392802  0.49639668  1
  Cr  Cr46  1  0.66643071  0.99666510  0.66391907  1
  Ni  Ni47  1  0.83188826  0.16640860  0.83295503  1
  Cr  Cr48  1  0.83394431  0.50027523  0.49925163  1
  Ni  Ni49  1  0.66462493  0.33229577  0.66595009  1
  Ni  Ni50  1  0.83186001  0.50092202  0.83227899  1
  Ni  Ni51  1  0.83272350  0.83201465  0.49767198  1
  Ni  Ni52  1  0.66515825  0.66596533  0.66744165  1
  Ni  Ni53  1  0.83087542  0.82824010  0.83256614  1
" 