1945,Ni31Fe60Cr8_2,-234.397234343293, 205.148504684691,Ni31Fe60Cr8,"# generated using pymatgen
 data_Cr5Fe32Ni17
_symmetry_space_group_name_H-M   'P 1'
_cell_length_a   7.41443166
_cell_length_b   7.41443166
_cell_length_c   10.48558982
_cell_angle_alpha   90.00000000
_cell_angle_beta   90.00000000
_cell_angle_gamma   90.00000000
_symmetry_Int_Tables_number   1
_chemical_formula_structural   Cr5Fe32Ni17
_chemical_formula_sum   'Cr5 Fe32 Ni17'
_cell_volume   576.43268487
_cell_formula_units_Z   1
loop_
 _symmetry_equiv_pos_site_id
 _symmetry_equiv_pos_as_xyz
  1  'x, y, z'
loop_
 _atom_site_type_symbol
 _atom_site_label
 _atom_site_symmetry_multiplicity
 _atom_site_fract_x
 _atom_site_fract_y
 _atom_site_fract_z
 _atom_site_occupancy
  Fe  Fe0  1  0.00497792  0.00509332  1.00335504  1
  Ni  Ni1  1  0.17051246  0.17096580  0.17055274  1
  Fe  Fe2  1  0.00581286  1.00244572  0.33577410  1
  Ni  Ni3  1  0.00400512  0.33982062  1.00322610  1
  Ni  Ni4  1  0.17080813  0.50245494  0.16993811  1
  Fe  Fe5  1  0.00637011  0.33466855  0.33393876  1
  Fe  Fe6  1  0.00436791  0.67116272  0.00474893  1
  Fe  Fe7  1  0.17293473  0.83898725  0.17010678  1
  Cr  Cr8  1  0.00516672  0.66869263  0.33663425  1
  Ni  Ni9  1  0.33694469  1.00311268  1.00254133  1
  Ni  Ni10  1  0.50225582  0.16958226  0.16980950  1
  Ni  Ni11  1  0.33943594  0.00392962  0.33744064  1
  Fe  Fe12  1  0.33466013  0.33517635  0.00452773  1
  Fe  Fe13  1  0.50231055  0.50395195  0.16974639  1
  Fe  Fe14  1  0.33757188  0.33567297  0.33675303  1
  Fe  Fe15  1  0.33505069  0.67161510  0.00493474  1
  Ni  Ni16  1  0.50387829  0.83627404  0.17162147  1
  Ni  Ni17  1  0.33744354  0.66950464  0.33730600  1
  Cr  Cr18  1  0.66796663  1.00316079  1.00187105  1
  Fe  Fe19  1  0.83759829  0.17012944  0.17033985  1
  Ni  Ni20  1  0.66852182  0.00428215  0.33618275  1
  Fe  Fe21  1  0.67088212  0.33622826  0.00406407  1
  Fe  Fe22  1  0.83565124  0.50235408  0.16949905  1
  Fe  Fe23  1  0.66594844  0.33677290  0.33538812  1
  Fe  Fe24  1  0.67090961  0.67053998  0.00414210  1
  Ni  Ni25  1  0.83604304  0.83707686  0.17134820  1
  Fe  Fe26  1  0.66718373  0.67238256  0.33679233  1
  Fe  Fe27  1  0.17183474  0.16969390  0.50297514  1
  Ni  Ni28  1  1.00337507  0.00425129  0.67105519  1
  Fe  Fe29  1  0.17041596  0.17041267  0.83817744  1
  Fe  Fe30  1  0.17357370  0.50133782  0.50454917  1
  Fe  Fe31  1  0.00383430  0.33570330  0.67304349  1
  Ni  Ni32  1  0.16840306  0.50464595  0.83554338  1
  Fe  Fe33  1  0.17130075  0.83929156  0.50399952  1
  Fe  Fe34  1  0.00391208  0.67309316  0.67046753  1
  Fe  Fe35  1  0.17062149  0.83752268  0.83678519  1
  Ni  Ni36  1  0.50273495  0.16878665  0.50530410  1
  Fe  Fe37  1  0.33761971  1.00299740  0.67046617  1
  Fe  Fe38  1  0.50200827  0.16956633  0.83568425  1
  Fe  Fe39  1  0.50254032  0.50259525  0.50450461  1
  Fe  Fe40  1  0.33633190  0.33539545  0.66965505  1
  Cr  Cr41  1  0.50171739  0.50510769  0.83806084  1
  Fe  Fe42  1  0.50444488  0.83753458  0.50339834  1
  Fe  Fe43  1  0.33625297  0.67245404  0.66875575  1
  Ni  Ni44  1  0.50264623  0.83698101  0.83527991  1
  Cr  Cr45  1  0.83679939  0.16819359  0.50053859  1
  Ni  Ni46  1  0.67034429  1.00230470  0.67146933  1
  Ni  Ni47  1  0.83815274  0.17028261  0.83657492  1
  Cr  Cr48  1  0.83724893  0.50318875  0.50559088  1
  Fe  Fe49  1  0.66979908  0.33430054  0.67145867  1
  Fe  Fe50  1  0.83757847  0.50402180  0.83637051  1
  Fe  Fe51  1  0.83531798  0.83864043  0.50391835  1
  Ni  Ni52  1  0.67014287  0.67165262  0.66961165  1
  Fe  Fe53  1  0.83743951  0.83560943  0.83578235  1
" 