2735,Ni31Fe50Cr17_7,-231.461159213747, 200.338374696845,Ni31Fe50Cr17,"# generated using pymatgen
 data_Cr10Fe27Ni17
_symmetry_space_group_name_H-M   'P 1'
_cell_length_a   7.43406496
_cell_length_b   7.43406496
_cell_length_c   10.51335549
_cell_angle_alpha   90.00000000
_cell_angle_beta   90.00000000
_cell_angle_gamma   90.00000000
_symmetry_Int_Tables_number   1
_chemical_formula_structural   Cr10Fe27Ni17
_chemical_formula_sum   'Cr10 Fe27 Ni17'
_cell_volume   581.02397456
_cell_formula_units_Z   1
loop_
 _symmetry_equiv_pos_site_id
 _symmetry_equiv_pos_as_xyz
  1  'x, y, z'
loop_
 _atom_site_type_symbol
 _atom_site_label
 _atom_site_symmetry_multiplicity
 _atom_site_fract_x
 _atom_site_fract_y
 _atom_site_fract_z
 _atom_site_occupancy
  Ni  Ni0  1  1.00109147  0.00295525  1.00218519  1
  Ni  Ni1  1  0.16812708  0.17153572  0.16791277  1
  Fe  Fe2  1  1.00177815  0.00372241  0.33673150  1
  Fe  Fe3  1  0.00361230  0.33417101  0.00292905  1
  Ni  Ni4  1  0.17011163  0.50029042  0.16956433  1
  Ni  Ni5  1  0.00467794  0.33500589  0.33572854  1
  Fe  Fe6  1  0.00289705  0.66964403  1.00107763  1
  Cr  Cr7  1  0.16937538  0.83446808  0.16934320  1
  Fe  Fe8  1  0.00421630  0.66843010  0.33770589  1
  Fe  Fe9  1  0.33577491  0.00287044  1.00151415  1
  Fe  Fe10  1  0.50079069  0.17064860  0.16715253  1
  Cr  Cr11  1  0.33402560  0.00483097  0.33466251  1
  Ni  Ni12  1  0.33624381  0.33539702  0.00397380  1
  Fe  Fe13  1  0.49828778  0.50162209  0.16753512  1
  Ni  Ni14  1  0.33406863  0.33674225  0.33488632  1
  Ni  Ni15  1  0.33854019  0.66780476  0.00226647  1
  Ni  Ni16  1  0.50263667  0.83527130  0.16584629  1
  Fe  Fe17  1  0.33378313  0.66560076  0.33486983  1
  Fe  Fe18  1  0.66793743  1.00215722  0.00255307  1
  Fe  Fe19  1  0.83744111  0.16795686  0.16871394  1
  Cr  Cr20  1  0.67126548  1.00170773  0.33471282  1
  Fe  Fe21  1  0.66720811  0.33491827  1.00080897  1
  Cr  Cr22  1  0.83707688  0.50039528  0.16799075  1
  Fe  Fe23  1  0.66823533  0.33447153  0.33664789  1
  Fe  Fe24  1  0.66724082  0.66957868  1.00167160  1
  Fe  Fe25  1  0.83608008  0.83716883  0.16772134  1
  Cr  Cr26  1  0.66964885  0.66927596  0.33446299  1
  Fe  Fe27  1  0.16556366  0.16890282  0.50094413  1
  Ni  Ni28  1  1.00089252  1.00177417  0.66759462  1
  Fe  Fe29  1  0.16804679  0.16749371  0.83746069  1
  Fe  Fe30  1  0.16697567  0.50312996  0.50109996  1
  Ni  Ni31  1  1.00034565  0.33462524  0.66889347  1
  Cr  Cr32  1  0.16802988  0.50424493  0.83646263  1
  Ni  Ni33  1  0.16590235  0.83318352  0.50237216  1
  Ni  Ni34  1  1.00080338  0.67025552  0.66783803  1
  Ni  Ni35  1  0.16810074  0.83557858  0.83538857  1
  Fe  Fe36  1  0.50392420  0.17088454  0.50244309  1
  Cr  Cr37  1  0.33414277  0.00263056  0.67072290  1
  Ni  Ni38  1  0.50510523  0.16931364  0.83643102  1
  Fe  Fe39  1  0.50179710  0.50043674  0.50174292  1
  Cr  Cr40  1  0.33545776  0.33511509  0.66795380  1
  Ni  Ni41  1  0.50373148  0.50132200  0.83718109  1
  Cr  Cr42  1  0.50028043  0.83524165  0.50447444  1
  Fe  Fe43  1  0.33247712  0.66918347  0.66957704  1
  Fe  Fe44  1  0.50131178  0.83506745  0.83755228  1
  Ni  Ni45  1  0.83576650  0.17014511  0.50305067  1
  Fe  Fe46  1  0.67240198  0.00477878  0.66899721  1
  Fe  Fe47  1  0.83585957  0.16884004  0.83479519  1
  Fe  Fe48  1  0.83788315  0.50128655  0.50230764  1
  Fe  Fe49  1  0.67122086  0.33379676  0.66920144  1
  Fe  Fe50  1  0.83471892  0.50151625  0.83584634  1
  Ni  Ni51  1  0.83996420  0.83741581  0.50235912  1
  Cr  Cr52  1  0.67025498  0.66868751  0.67035849  1
  Fe  Fe53  1  0.83665920  0.83629879  0.83557324  1
" 