1419,Ni31Fe60Cr8_6,-234.162335521953, 207.846083637199,Ni31Fe60Cr8,"# generated using pymatgen
 data_Cr5Fe32Ni17
_symmetry_space_group_name_H-M   'P 1'
_cell_length_a   7.41328374
_cell_length_b   7.41328374
_cell_length_c   10.48396641
_cell_angle_alpha   90.00000000
_cell_angle_beta   90.00000000
_cell_angle_gamma   90.00000000
_symmetry_Int_Tables_number   1
_chemical_formula_structural   Cr5Fe32Ni17
_chemical_formula_sum   'Cr5 Fe32 Ni17'
_cell_volume   576.16499234
_cell_formula_units_Z   1
loop_
 _symmetry_equiv_pos_site_id
 _symmetry_equiv_pos_as_xyz
  1  'x, y, z'
loop_
 _atom_site_type_symbol
 _atom_site_label
 _atom_site_symmetry_multiplicity
 _atom_site_fract_x
 _atom_site_fract_y
 _atom_site_fract_z
 _atom_site_occupancy
  Fe  Fe0  1  1.00282151  1.00268287  1.00205764  1
  Fe  Fe1  1  0.17371943  0.17113811  0.17144952  1
  Fe  Fe2  1  1.00228831  0.00811922  0.33677165  1
  Cr  Cr3  1  1.00127307  0.33503893  0.00635632  1
  Fe  Fe4  1  0.17368424  0.50334962  0.17162491  1
  Ni  Ni5  1  0.00388499  0.33691177  0.33627399  1
  Fe  Fe6  1  1.00193194  0.67067084  1.00360619  1
  Cr  Cr7  1  0.17063291  0.83746257  0.17036352  1
  Fe  Fe8  1  1.00188482  0.66798675  0.33765444  1
  Fe  Fe9  1  0.33960572  0.00430700  1.00184350  1
  Fe  Fe10  1  0.50337405  0.16995360  0.17150695  1
  Fe  Fe11  1  0.33843897  0.00639646  0.33893714  1
  Ni  Ni12  1  0.33694778  0.33621537  0.00476086  1
  Ni  Ni13  1  0.50415610  0.50310144  0.16929137  1
  Fe  Fe14  1  0.33900002  0.33587796  0.33666773  1
  Ni  Ni15  1  0.33923904  0.67154338  0.00411558  1
  Ni  Ni16  1  0.50444370  0.83677571  0.17201208  1
  Fe  Fe17  1  0.33973522  0.66811039  0.33729405  1
  Fe  Fe18  1  0.66911309  0.00411068  1.00355311  1
  Fe  Fe19  1  0.83417674  0.16846311  0.17113034  1
  Ni  Ni20  1  0.66883620  0.00405996  0.33662246  1
  Fe  Fe21  1  0.66753760  0.33771610  1.00353188  1
  Fe  Fe22  1  0.83482542  0.50580973  0.17131367  1
  Ni  Ni23  1  0.67245940  0.33524809  0.33566489  1
  Ni  Ni24  1  0.66927374  0.67244226  1.00336537  1
  Fe  Fe25  1  0.83378071  0.83665688  0.17095939  1
  Fe  Fe26  1  0.66947477  0.66787374  0.33511782  1
  Ni  Ni27  1  0.17123833  0.17201243  0.50386548  1
  Fe  Fe28  1  0.00443958  0.00541529  0.67087693  1
  Ni  Ni29  1  0.17018513  0.17019493  0.83653967  1
  Ni  Ni30  1  0.17009268  0.50223548  0.50156733  1
  Fe  Fe31  1  0.00457295  0.33471725  0.66913741  1
  Cr  Cr32  1  0.17185174  0.50240918  0.83835270  1
  Fe  Fe33  1  0.17058127  0.83940425  0.50129279  1
  Fe  Fe34  1  1.00171286  0.67010505  0.66920602  1
  Fe  Fe35  1  0.17069255  0.84010130  0.83870256  1
  Ni  Ni36  1  0.50469880  0.17045830  0.50435591  1
  Ni  Ni37  1  0.33672401  1.00283769  0.67050167  1
  Fe  Fe38  1  0.50289302  0.17047581  0.83535000  1
  Fe  Fe39  1  0.50518969  0.50020463  0.50199682  1
  Fe  Fe40  1  0.33917600  0.33389742  0.66946444  1
  Fe  Fe41  1  0.50609236  0.50149629  0.83918503  1
  Fe  Fe42  1  0.50137731  0.83991256  0.50252642  1
  Cr  Cr43  1  0.33673954  0.67150100  0.66918434  1
  Ni  Ni44  1  0.50557939  0.83721447  0.83726669  1
  Fe  Fe45  1  0.83610129  0.17268215  0.50366380  1
  Ni  Ni46  1  0.66893749  0.00497181  0.67062402  1
  Ni  Ni47  1  0.83607863  0.16931420  0.83563961  1
  Fe  Fe48  1  0.83674570  0.49978168  0.50348560  1
  Ni  Ni49  1  0.67281859  0.33640228  0.67087087  1
  Fe  Fe50  1  0.83479916  0.50314601  0.83638615  1
  Cr  Cr51  1  0.83325563  0.83831479  0.50318628  1
  Fe  Fe52  1  0.66942413  0.67045368  0.67241833  1
  Fe  Fe53  1  0.83727664  0.83813149  0.83632072  1
" 