4540,Ni31Cr69_10,-227.654725552104, 146.070690170445,Ni31Cr69,"# generated using pymatgen
 data_Cr8Ni19
_symmetry_space_group_name_H-M   'P 1'
_cell_length_a   7.48565544
_cell_length_b   7.48565544
_cell_length_c   10.58631545
_cell_angle_alpha   90.00000000
_cell_angle_beta   90.00000000
_cell_angle_gamma   90.00000000
_symmetry_Int_Tables_number   1
_chemical_formula_structural   Cr8Ni19
_chemical_formula_sum   'Cr16 Ni38'
_cell_volume   593.20458175
_cell_formula_units_Z   2
loop_
 _symmetry_equiv_pos_site_id
 _symmetry_equiv_pos_as_xyz
  1  'x, y, z'
loop_
 _atom_site_type_symbol
 _atom_site_label
 _atom_site_symmetry_multiplicity
 _atom_site_fract_x
 _atom_site_fract_y
 _atom_site_fract_z
 _atom_site_occupancy
  Ni  Ni0  1  -0.00067994  0.99851247  -0.00090258  1
  Ni  Ni1  1  0.16522328  0.16424588  0.16355802  1
  Ni  Ni2  1  0.99807116  -0.00057189  0.33102790  1
  Ni  Ni3  1  0.99569339  0.33117416  -0.00077658  1
  Cr  Cr4  1  0.16768349  0.49779063  0.16352555  1
  Cr  Cr5  1  0.99634916  0.33040875  0.33281514  1
  Ni  Ni6  1  -0.00007059  0.66660906  0.99759449  1
  Ni  Ni7  1  0.16534999  0.83387057  0.16326795  1
  Cr  Cr8  1  0.00003168  0.66658968  0.33238066  1
  Ni  Ni9  1  0.33073874  -0.00026209  -0.00074608  1
  Ni  Ni10  1  0.49961606  0.16815221  0.16427269  1
  Cr  Cr11  1  0.33137492  -0.00117227  0.33205540  1
  Ni  Ni12  1  0.33526774  0.33081671  -0.00010823  1
  Ni  Ni13  1  0.49922445  0.49601288  0.16650604  1
  Ni  Ni14  1  0.33632026  0.33380342  0.33215552  1
  Ni  Ni15  1  0.32986213  0.66572361  -0.00102515  1
  Cr  Cr16  1  0.49864617  0.83137902  0.16615397  1
  Ni  Ni17  1  0.33388846  0.66402748  0.33415059  1
  Ni  Ni18  1  0.66628523  0.00385483  0.99759481  1
  Ni  Ni19  1  0.83144179  0.16599852  0.16488571  1
  Ni  Ni20  1  0.66583983  0.00210201  0.33333758  1
  Ni  Ni21  1  0.66531691  0.33030489  -0.00105160  1
  Ni  Ni22  1  0.82958034  0.49592610  0.16442042  1
  Ni  Ni23  1  0.66358378  0.33209713  0.33174785  1
  Cr  Cr24  1  0.66697723  0.66219223  0.99705893  1
  Cr  Cr25  1  0.83229018  0.83387398  0.16584452  1
  Ni  Ni26  1  0.66264721  0.66205421  0.33376136  1
  Cr  Cr27  1  0.16386207  0.16601181  0.50048636  1
  Ni  Ni28  1  0.99795305  -0.00084693  0.66610753  1
  Cr  Cr29  1  0.16482038  0.16452347  0.83221922  1
  Ni  Ni30  1  0.16668991  0.49918292  0.49798477  1
  Ni  Ni31  1  0.99531710  0.33114858  0.66421983  1
  Cr  Cr32  1  0.16498195  0.49775706  0.83444367  1
  Ni  Ni33  1  0.16725719  0.83214077  0.49874581  1
  Cr  Cr34  1  0.99736169  0.66507215  0.66593562  1
  Ni  Ni35  1  0.16358532  0.83387591  0.83420499  1
  Ni  Ni36  1  0.50115303  0.16446602  0.49802953  1
  Ni  Ni37  1  0.33293868  0.99759596  0.66470057  1
  Ni  Ni38  1  0.50060795  0.16506452  0.83401537  1
  Ni  Ni39  1  0.49937159  0.50011811  0.49558994  1
  Cr  Cr40  1  0.33415262  0.33109284  0.66415917  1
  Ni  Ni41  1  0.50054561  0.49742602  0.83424643  1
  Ni  Ni42  1  0.49911085  0.83165812  0.49898291  1
  Cr  Cr43  1  0.33330971  0.66722993  0.66347890  1
  Cr  Cr44  1  0.49969748  0.83386952  0.83140742  1
  Ni  Ni45  1  0.83051833  0.16530156  0.49877529  1
  Ni  Ni46  1  0.66541227  -0.00069281  0.66536182  1
  Ni  Ni47  1  0.83147597  0.16429573  0.83266257  1
  Ni  Ni48  1  0.83017522  0.49724280  0.49900730  1
  Cr  Cr49  1  0.66671930  0.33216586  0.66630079  1
  Ni  Ni50  1  0.83140750  0.49800917  0.83285438  1
  Cr  Cr51  1  0.82883925  0.83439672  0.49841737  1
  Ni  Ni52  1  0.66575528  0.66529043  0.66515244  1
  Ni  Ni53  1  0.83331110  0.83397303  0.83188856  1
" 