6284,Ni31Fe67Cr1_7,-234.872335530145, 196.999075745613,Ni31Fe67Cr1,"# generated using pymatgen
 data_Cr(Fe9Ni4)2
_symmetry_space_group_name_H-M   'P 1'
_cell_length_a   7.40880810
_cell_length_b   7.40880810
_cell_length_c   10.47763690
_cell_angle_alpha   90.00000000
_cell_angle_beta   90.00000000
_cell_angle_gamma   90.00000000
_symmetry_Int_Tables_number   1
_chemical_formula_structural   Cr(Fe9Ni4)2
_chemical_formula_sum   'Cr2 Fe36 Ni16'
_cell_volume   575.12207356
_cell_formula_units_Z   2
loop_
 _symmetry_equiv_pos_site_id
 _symmetry_equiv_pos_as_xyz
  1  'x, y, z'
loop_
 _atom_site_type_symbol
 _atom_site_label
 _atom_site_symmetry_multiplicity
 _atom_site_fract_x
 _atom_site_fract_y
 _atom_site_fract_z
 _atom_site_occupancy
  Fe  Fe0  1  0.00535055  1.00343264  0.00527974  1
  Ni  Ni1  1  0.16888742  0.17089068  0.17014676  1
  Fe  Fe2  1  1.00344852  1.00388994  0.33695095  1
  Ni  Ni3  1  1.00384933  0.33775697  0.00547801  1
  Ni  Ni4  1  0.17077885  0.50435385  0.17051889  1
  Fe  Fe5  1  1.00372340  0.33780671  0.33664691  1
  Fe  Fe6  1  0.00456291  0.67041927  0.00484208  1
  Fe  Fe7  1  0.17013385  0.83686011  0.17045812  1
  Ni  Ni8  1  1.00337122  0.67018620  0.33688312  1
  Ni  Ni9  1  0.33724526  1.00283646  1.00269728  1
  Cr  Cr10  1  0.50388737  0.17050972  0.16933150  1
  Fe  Fe11  1  0.33591207  1.00286271  0.33750072  1
  Fe  Fe12  1  0.33601257  0.33800593  1.00304036  1
  Ni  Ni13  1  0.50291210  0.50601921  0.17040286  1
  Fe  Fe14  1  0.33569953  0.33889277  0.33825269  1
  Ni  Ni15  1  0.33805716  0.67151390  0.00450699  1
  Fe  Fe16  1  0.50393341  0.83533247  0.16973684  1
  Fe  Fe17  1  0.33672529  0.67003816  0.33671358  1
  Fe  Fe18  1  0.67018426  1.00233040  1.00373296  1
  Ni  Ni19  1  0.83912613  0.16983102  0.17063131  1
  Fe  Fe20  1  0.67242828  1.00286183  0.33801350  1
  Fe  Fe21  1  0.67017927  0.33879743  0.00428459  1
  Ni  Ni22  1  0.83809727  0.50454410  0.17036716  1
  Fe  Fe23  1  0.67236884  0.33862003  0.33794285  1
  Fe  Fe24  1  0.67011854  0.67066462  0.00421351  1
  Ni  Ni25  1  0.83746026  0.83741528  0.17017843  1
  Fe  Fe26  1  0.67134196  0.67030876  0.33688363  1
  Fe  Fe27  1  0.17000498  0.17161370  0.50382229  1
  Fe  Fe28  1  0.00486533  1.00382710  0.66955935  1
  Fe  Fe29  1  0.17327448  0.17023204  0.83788492  1
  Ni  Ni30  1  0.17038240  0.50468319  0.50414136  1
  Fe  Fe31  1  0.00490402  0.33823311  0.66965925  1
  Fe  Fe32  1  0.17150540  0.50359910  0.83727715  1
  Fe  Fe33  1  0.16942759  0.83663343  0.50378601  1
  Fe  Fe34  1  0.00435054  0.66973128  0.66963195  1
  Fe  Fe35  1  0.17174200  0.83796105  0.83754518  1
  Fe  Fe36  1  0.50416442  0.17170286  0.50455298  1
  Fe  Fe37  1  0.33774170  0.00437129  0.67155085  1
  Ni  Ni38  1  0.50238910  0.16938618  0.83677789  1
  Fe  Fe39  1  0.50416671  0.50318018  0.50372612  1
  Ni  Ni40  1  0.33750067  0.33667161  0.67133316  1
  Fe  Fe41  1  0.50377131  0.50377680  0.83761184  1
  Fe  Fe42  1  0.50437515  0.83690663  0.50441433  1
  Fe  Fe43  1  0.33726431  0.67017571  0.67104552  1
  Ni  Ni44  1  0.50298840  0.83787784  0.83761464  1
  Ni  Ni45  1  0.83678965  0.17064843  0.50355626  1
  Fe  Fe46  1  0.66917893  1.00381874  0.67003922  1
  Cr  Cr47  1  0.83658706  0.17075382  0.83823030  1
  Ni  Ni48  1  0.83843429  0.50337902  0.50437284  1
  Fe  Fe49  1  0.66962803  0.33775396  0.66955825  1
  Fe  Fe50  1  0.83651371  0.50531780  0.83733970  1
  Fe  Fe51  1  0.83798761  0.83662990  0.50337062  1
  Fe  Fe52  1  0.67017649  0.67021474  0.67069337  1
  Fe  Fe53  1  0.83633298  0.83618216  0.83751217  1
" 