3303,Ni31Fe60Cr8_4,-234.260206963928, 206.512139760261,Ni31Fe60Cr8,"# generated using pymatgen
 data_Cr5Fe32Ni17
_symmetry_space_group_name_H-M   'P 1'
_cell_length_a   7.41289833
_cell_length_b   7.41289833
_cell_length_c   10.48342135
_cell_angle_alpha   90.00000000
_cell_angle_beta   90.00000000
_cell_angle_gamma   90.00000000
_symmetry_Int_Tables_number   1
_chemical_formula_structural   Cr5Fe32Ni17
_chemical_formula_sum   'Cr5 Fe32 Ni17'
_cell_volume   576.07513209
_cell_formula_units_Z   1
loop_
 _symmetry_equiv_pos_site_id
 _symmetry_equiv_pos_as_xyz
  1  'x, y, z'
loop_
 _atom_site_type_symbol
 _atom_site_label
 _atom_site_symmetry_multiplicity
 _atom_site_fract_x
 _atom_site_fract_y
 _atom_site_fract_z
 _atom_site_occupancy
  Fe  Fe0  1  0.00493609  1.00278198  0.00444419  1
  Ni  Ni1  1  0.17127643  0.16944083  0.17115967  1
  Fe  Fe2  1  0.00500871  0.00503917  0.33711884  1
  Cr  Cr3  1  1.00344027  0.33807032  1.00303085  1
  Fe  Fe4  1  0.17136551  0.50438553  0.17144815  1
  Ni  Ni5  1  0.00404562  0.33776675  0.33714187  1
  Fe  Fe6  1  0.00454794  0.67141379  0.00412915  1
  Ni  Ni7  1  0.16977930  0.83774309  0.17021785  1
  Fe  Fe8  1  0.00477910  0.66993923  0.33716206  1
  Fe  Fe9  1  0.33682331  0.00378487  0.00397094  1
  Fe  Fe10  1  0.50278294  0.16987104  0.17012446  1
  Ni  Ni11  1  0.33753815  1.00311033  0.33678924  1
  Fe  Fe12  1  0.33827855  0.33592348  0.00456971  1
  Fe  Fe13  1  0.50251534  0.50337130  0.16968721  1
  Ni  Ni14  1  0.33473703  0.33629700  0.33738622  1
  Ni  Ni15  1  0.33554844  0.67290442  0.00401643  1
  Fe  Fe16  1  0.50242959  0.83771328  0.17052923  1
  Fe  Fe17  1  0.33637439  0.67001707  0.33667807  1
  Ni  Ni18  1  0.66824152  0.00435517  0.00399952  1
  Fe  Fe19  1  0.83677203  0.16925060  0.17118773  1
  Fe  Fe20  1  0.67003470  0.00428638  0.33789456  1
  Ni  Ni21  1  0.67164513  0.33524537  0.00369373  1
  Fe  Fe22  1  0.83707405  0.50403241  0.17103320  1
  Fe  Fe23  1  0.67011343  0.33644149  0.33650071  1
  Fe  Fe24  1  0.67003688  0.66996239  0.00548650  1
  Fe  Fe25  1  0.83777580  0.83767604  0.17027269  1
  Fe  Fe26  1  0.66980627  0.67022437  0.33754466  1
  Ni  Ni27  1  0.16968814  0.17196440  0.50133763  1
  Fe  Fe28  1  1.00242509  1.00309736  0.66939296  1
  Ni  Ni29  1  0.17117985  0.16990882  0.83846399  1
  Ni  Ni30  1  0.17273743  0.50289146  0.50257911  1
  Cr  Cr31  1  0.00368230  0.33804029  0.67095156  1
  Ni  Ni32  1  0.17213352  0.50445795  0.83813614  1
  Fe  Fe33  1  0.16915273  0.83676311  0.50262015  1
  Fe  Fe34  1  0.00454533  0.67182495  0.66966717  1
  Ni  Ni35  1  0.16970284  0.83659295  0.83749648  1
  Fe  Fe36  1  0.50438008  0.17040981  0.50268541  1
  Cr  Cr37  1  0.33823435  1.00211097  0.67095872  1
  Fe  Fe38  1  0.50407676  0.16914975  0.83814756  1
  Fe  Fe39  1  0.50346865  0.50341881  0.50367700  1
  Fe  Fe40  1  0.33732557  0.33737828  0.66905784  1
  Cr  Cr41  1  0.50320874  0.50293515  0.83656763  1
  Ni  Ni42  1  0.50668231  0.83516681  0.50322441  1
  Fe  Fe43  1  0.33609732  0.66973488  0.67022364  1
  Fe  Fe44  1  0.50147846  0.83806066  0.83749620  1
  Ni  Ni45  1  0.83642905  0.16800600  0.50292731  1
  Ni  Ni46  1  0.66980853  1.00346429  0.66918408  1
  Fe  Fe47  1  0.83572316  0.17032334  0.83675835  1
  Fe  Fe48  1  0.83686141  0.50434663  0.50254930  1
  Fe  Fe49  1  0.66957536  0.33526016  0.67001526  1
  Fe  Fe50  1  0.83832207  0.50334801  0.83737361  1
  Ni  Ni51  1  0.83523374  0.83821835  0.50327449  1
  Fe  Fe52  1  0.67031970  0.67136877  0.66792655  1
  Cr  Cr53  1  0.83704892  0.83793827  0.83731794  1
" 