1069,Ni31Fe60Cr8_13,-234.813865018783, 203.41349068915,Ni31Fe60Cr8,"# generated using pymatgen
 data_Cr5Fe32Ni17
_symmetry_space_group_name_H-M   'P 1'
_cell_length_a   7.42526601
_cell_length_b   7.42526601
_cell_length_c   10.50091190
_cell_angle_alpha   90.00000000
_cell_angle_beta   90.00000000
_cell_angle_gamma   90.00000000
_symmetry_Int_Tables_number   1
_chemical_formula_structural   Cr5Fe32Ni17
_chemical_formula_sum   'Cr5 Fe32 Ni17'
_cell_volume   578.96331894
_cell_formula_units_Z   1
loop_
 _symmetry_equiv_pos_site_id
 _symmetry_equiv_pos_as_xyz
  1  'x, y, z'
loop_
 _atom_site_type_symbol
 _atom_site_label
 _atom_site_symmetry_multiplicity
 _atom_site_fract_x
 _atom_site_fract_y
 _atom_site_fract_z
 _atom_site_occupancy
  Fe  Fe0  1  1.00248360  1.00200648  1.00271697  1
  Ni  Ni1  1  0.16925108  0.17035769  0.17074082  1
  Fe  Fe2  1  1.00154760  0.00344900  0.33598065  1
  Fe  Fe3  1  1.00221599  0.33776848  0.00360137  1
  Ni  Ni4  1  0.16968189  0.50114832  0.16945985  1
  Fe  Fe5  1  1.00279639  0.33568657  0.33513294  1
  Ni  Ni6  1  1.00001720  0.66923790  1.00120994  1
  Cr  Cr7  1  0.16929480  0.83652531  0.16862375  1
  Cr  Cr8  1  1.00143292  0.66879787  0.33742083  1
  Fe  Fe9  1  0.33661558  1.00199527  0.00283599  1
  Ni  Ni10  1  0.50343540  0.16931517  0.16981447  1
  Ni  Ni11  1  0.33767940  0.00473073  0.33633972  1
  Cr  Cr12  1  0.33569299  0.33449125  1.00276239  1
  Fe  Fe13  1  0.50338484  0.50371339  0.17012524  1
  Fe  Fe14  1  0.33715090  0.33701567  0.33565760  1
  Fe  Fe15  1  0.33682195  0.66963691  1.00208224  1
  Fe  Fe16  1  0.50395055  0.83646122  0.16970678  1
  Fe  Fe17  1  0.33813113  0.66877299  0.33746796  1
  Fe  Fe18  1  0.66934310  1.00108932  0.00374969  1
  Fe  Fe19  1  0.83688335  0.16937346  0.16943422  1
  Fe  Fe20  1  0.66903612  1.00246143  0.33592153  1
  Fe  Fe21  1  0.67031874  0.33798159  0.00321471  1
  Fe  Fe22  1  0.83591714  0.50244902  0.16806121  1
  Fe  Fe23  1  0.66850011  0.33597067  0.33649259  1
  Ni  Ni24  1  0.67185048  0.67029053  1.00263749  1
  Ni  Ni25  1  0.83389745  0.83655322  0.16841733  1
  Ni  Ni26  1  0.66915293  0.66972408  0.33621565  1
  Cr  Cr27  1  0.17004272  0.16902315  0.50155321  1
  Fe  Fe28  1  0.00343307  1.00163604  0.66974138  1
  Ni  Ni29  1  0.17041667  0.16814792  0.83575822  1
  Ni  Ni30  1  0.17096898  0.50434342  0.50378747  1
  Fe  Fe31  1  0.00352917  0.33765906  0.66970910  1
  Fe  Fe32  1  0.16810668  0.50324564  0.83546107  1
  Ni  Ni33  1  0.16934793  0.83529998  0.50353975  1
  Fe  Fe34  1  0.00331325  0.66914464  0.66969608  1
  Fe  Fe35  1  0.16863306  0.83578944  0.83599176  1
  Ni  Ni36  1  0.50457734  0.17034751  0.50374327  1
  Fe  Fe37  1  0.33655237  0.00292152  0.66953168  1
  Fe  Fe38  1  0.50232473  0.16942689  0.83514906  1
  Ni  Ni39  1  0.50310139  0.50256083  0.50196135  1
  Ni  Ni40  1  0.33686927  0.33578859  0.66979225  1
  Ni  Ni41  1  0.50409864  0.50379727  0.83567900  1
  Fe  Fe42  1  0.50163909  0.83585246  0.50225010  1
  Fe  Fe43  1  0.33605320  0.66847331  0.66888594  1
  Fe  Fe44  1  0.50370017  0.83564064  0.83648503  1
  Fe  Fe45  1  0.83479840  0.16999228  0.50303347  1
  Fe  Fe46  1  0.66846051  1.00271128  0.66877232  1
  Cr  Cr47  1  0.83665176  0.16959780  0.83689823  1
  Fe  Fe48  1  0.83540538  0.50208275  0.50369690  1
  Fe  Fe49  1  0.66779288  0.33716003  0.66873891  1
  Ni  Ni50  1  0.83478383  0.50526424  0.83658214  1
  Fe  Fe51  1  0.83543304  0.83636583  0.50328019  1
  Fe  Fe52  1  0.66907410  0.66857130  0.67004863  1
  Ni  Ni53  1  0.83633637  0.83408024  0.83633721  1
" 