4671,Ni31Fe50Cr17_11,-231.374330621822, 195.982989701834,Ni31Fe50Cr17,"# generated using pymatgen
 data_Cr10Fe27Ni17
_symmetry_space_group_name_H-M   'P 1'
_cell_length_a   7.43690566
_cell_length_b   7.43690566
_cell_length_c   10.51737285
_cell_angle_alpha   90.00000000
_cell_angle_beta   90.00000000
_cell_angle_gamma   90.00000000
_symmetry_Int_Tables_number   1
_chemical_formula_structural   Cr10Fe27Ni17
_chemical_formula_sum   'Cr10 Fe27 Ni17'
_cell_volume   581.69029176
_cell_formula_units_Z   1
loop_
 _symmetry_equiv_pos_site_id
 _symmetry_equiv_pos_as_xyz
  1  'x, y, z'
loop_
 _atom_site_type_symbol
 _atom_site_label
 _atom_site_symmetry_multiplicity
 _atom_site_fract_x
 _atom_site_fract_y
 _atom_site_fract_z
 _atom_site_occupancy
  Fe  Fe0  1  0.00419542  1.00197642  0.00277668  1
  Fe  Fe1  1  0.16905501  0.17046868  0.16830200  1
  Fe  Fe2  1  0.99949843  1.00171021  0.33484634  1
  Ni  Ni3  1  1.00147521  0.33570122  0.00489253  1
  Ni  Ni4  1  0.16679481  0.50055368  0.16954969  1
  Fe  Fe5  1  0.99895350  0.33576334  0.33298492  1
  Fe  Fe6  1  1.00089073  0.66859435  0.00271312  1
  Fe  Fe7  1  0.16769338  0.83487664  0.16928567  1
  Fe  Fe8  1  0.99957247  0.66851521  0.33462478  1
  Ni  Ni9  1  0.33592783  0.00329555  0.00264298  1
  Fe  Fe10  1  0.50179462  0.16854111  0.16931718  1
  Fe  Fe11  1  0.33748473  1.00095740  0.33374340  1
  Ni  Ni12  1  0.33377914  0.33202455  1.00094869  1
  Cr  Cr13  1  0.50165976  0.50086269  0.17072165  1
  Ni  Ni14  1  0.33432711  0.33529002  0.33377470  1
  Cr  Cr15  1  0.33531413  0.66985431  0.00245960  1
  Fe  Fe16  1  0.50330880  0.83659115  0.17037415  1
  Fe  Fe17  1  0.33704424  0.66969000  0.33526295  1
  Fe  Fe18  1  0.66746479  1.00193864  0.00319084  1
  Fe  Fe19  1  0.83510577  0.17036429  0.16875195  1
  Ni  Ni20  1  0.66986155  1.00115259  0.33399509  1
  Fe  Fe21  1  0.66763759  0.33557876  1.00195676  1
  Ni  Ni22  1  0.83723448  0.50264799  0.16730095  1
  Ni  Ni23  1  0.67088049  0.33526997  0.33535173  1
  Fe  Fe24  1  0.67037662  0.66819113  1.00104785  1
  Fe  Fe25  1  0.83506267  0.83362475  0.16913992  1
  Ni  Ni26  1  0.67004906  0.66980141  0.33682530  1
  Cr  Cr27  1  0.16660805  0.16974223  0.50320675  1
  Fe  Fe28  1  1.00028627  0.99916427  0.66855161  1
  Fe  Fe29  1  0.16884043  0.16827248  0.83658642  1
  Cr  Cr30  1  0.16894738  0.50167020  0.50057430  1
  Ni  Ni31  1  0.99921828  0.33624966  0.66784112  1
  Cr  Cr32  1  0.16818537  0.49959479  0.83569469  1
  Fe  Fe33  1  0.16703702  0.83556974  0.50047765  1
  Ni  Ni34  1  0.99901853  0.66898779  0.66925247  1
  Fe  Fe35  1  0.16558310  0.83704412  0.83648305  1
  Cr  Cr36  1  0.50362558  0.17056039  0.50091050  1
  Cr  Cr37  1  0.33439104  1.00096608  0.67105030  1
  Fe  Fe38  1  0.50119747  0.17064603  0.83695962  1
  Fe  Fe39  1  0.50573212  0.50338841  0.50099010  1
  Fe  Fe40  1  0.33767815  0.33654480  0.67033933  1
  Ni  Ni41  1  0.50338774  0.50019739  0.83381974  1
  Ni  Ni42  1  0.50539390  0.83361447  0.49923929  1
  Cr  Cr43  1  0.33726246  0.67093235  0.66733440  1
  Fe  Fe44  1  0.50487210  0.83451422  0.83677055  1
  Fe  Fe45  1  0.83521052  0.16895555  0.50123100  1
  Cr  Cr46  1  0.66856815  1.00032029  0.66757196  1
  Cr  Cr47  1  0.83654917  0.16733115  0.83454438  1
  Fe  Fe48  1  0.83294607  0.50288101  0.50183444  1
  Ni  Ni49  1  0.67110298  0.33871872  0.66832682  1
  Fe  Fe50  1  0.83372533  0.50349931  0.83557874  1
  Ni  Ni51  1  0.83484000  0.83491534  0.50166698  1
  Ni  Ni52  1  0.67111132  0.66701934  0.66899611  1
  Ni  Ni53  1  0.83567074  0.83429538  0.83681781  1
" 