2594,Ni31Fe50Cr17_19,-231.977567875758, 198.178044219017,Ni31Fe50Cr17,"# generated using pymatgen
 data_Cr10Fe27Ni17
_symmetry_space_group_name_H-M   'P 1'
_cell_length_a   7.44642800
_cell_length_b   7.44642800
_cell_length_c   10.53083947
_cell_angle_alpha   90.00000000
_cell_angle_beta   90.00000000
_cell_angle_gamma   90.00000000
_symmetry_Int_Tables_number   1
_chemical_formula_structural   Cr10Fe27Ni17
_chemical_formula_sum   'Cr10 Fe27 Ni17'
_cell_volume   583.92757197
_cell_formula_units_Z   1
loop_
 _symmetry_equiv_pos_site_id
 _symmetry_equiv_pos_as_xyz
  1  'x, y, z'
loop_
 _atom_site_type_symbol
 _atom_site_label
 _atom_site_symmetry_multiplicity
 _atom_site_fract_x
 _atom_site_fract_y
 _atom_site_fract_z
 _atom_site_occupancy
  Ni  Ni0  1  0.00193221  1.00048261  1.00130084  1
  Fe  Fe1  1  0.16752804  0.16715313  0.16835313  1
  Ni  Ni2  1  0.00427161  0.00359416  0.33463856  1
  Fe  Fe3  1  0.00174721  0.33512781  0.00209615  1
  Fe  Fe4  1  0.16758245  0.50049165  0.16838246  1
  Ni  Ni5  1  0.99942943  0.33436554  0.33445986  1
  Ni  Ni6  1  0.00153978  0.66789826  1.00009585  1
  Fe  Fe7  1  0.16932538  0.83650766  0.16766671  1
  Cr  Cr8  1  0.00411740  0.66701420  0.33492201  1
  Ni  Ni9  1  0.33525286  0.00170459  0.00199512  1
  Fe  Fe10  1  0.50027951  0.16737120  0.16802521  1
  Ni  Ni11  1  0.33415689  0.99950241  0.33426076  1
  Fe  Fe12  1  0.33468481  0.33359860  1.00126038  1
  Fe  Fe13  1  0.50188307  0.50193273  0.16915401  1
  Fe  Fe14  1  0.33515313  0.33468165  0.33444513  1
  Cr  Cr15  1  0.33352957  0.66878385  0.99967809  1
  Fe  Fe16  1  0.49992175  0.83485317  0.16790272  1
  Ni  Ni17  1  0.33502289  0.66902237  0.33623426  1
  Ni  Ni18  1  0.66696669  0.00169972  0.99967682  1
  Fe  Fe19  1  0.83634520  0.16911249  0.16843281  1
  Cr  Cr20  1  0.66636638  0.00465670  0.33461741  1
  Cr  Cr21  1  0.66761677  0.33367780  1.00035061  1
  Fe  Fe22  1  0.83469027  0.50013023  0.16811348  1
  Ni  Ni23  1  0.66855343  0.33523334  0.33613320  1
  Ni  Ni24  1  0.66916306  0.66848621  1.00099704  1
  Cr  Cr25  1  0.83453384  0.83389621  0.16579127  1
  Fe  Fe26  1  0.66553372  0.66551586  0.33469427  1
  Cr  Cr27  1  0.16769759  0.16757393  0.50014114  1
  Fe  Fe28  1  1.00022047  0.00231175  0.66884175  1
  Cr  Cr29  1  0.16827408  0.16735531  0.83616627  1
  Fe  Fe30  1  0.16864931  0.50142894  0.50048135  1
  Ni  Ni31  1  0.99794254  0.33504220  0.66805188  1
  Fe  Fe32  1  0.16790580  0.50196696  0.83529072  1
  Fe  Fe33  1  0.17133666  0.83552033  0.50102605  1
  Cr  Cr34  1  0.00346558  0.66706811  0.66923304  1
  Ni  Ni35  1  0.16657377  0.83516754  0.83466261  1
  Ni  Ni36  1  0.50177903  0.16913842  0.50108551  1
  Fe  Fe37  1  0.33650856  0.99949609  0.66824375  1
  Ni  Ni38  1  0.50216878  0.16793546  0.83524351  1
  Fe  Fe39  1  0.50258851  0.50166472  0.50121166  1
  Cr  Cr40  1  0.33683028  0.33571452  0.66878382  1
  Ni  Ni41  1  0.50318771  0.50176239  0.83384520  1
  Fe  Fe42  1  0.49905466  0.83445062  0.50163965  1
  Fe  Fe43  1  0.33630793  0.66828219  0.66814649  1
  Fe  Fe44  1  0.50180584  0.83543352  0.83460980  1
  Fe  Fe45  1  0.83399266  0.17072859  0.50170739  1
  Fe  Fe46  1  0.66742109  0.00308856  0.66887702  1
  Fe  Fe47  1  0.83371847  0.16747043  0.83400901  1
  Fe  Fe48  1  0.83292019  0.49747127  0.50167372  1
  Ni  Ni49  1  0.66922269  0.33396428  0.66749734  1
  Fe  Fe50  1  0.83410228  0.50150460  0.83436714  1
  Cr  Cr51  1  0.83434329  0.83456302  0.50139023  1
  Ni  Ni52  1  0.66602339  0.66699243  0.66866563  1
  Fe  Fe53  1  0.83359609  0.83517429  0.83619476  1
" 