8517,Ni31Fe60Cr8_7,-234.091103817592, 201.183197101315,Ni31Fe60Cr8,"# generated using pymatgen
 data_Cr5Fe32Ni17
_symmetry_space_group_name_H-M   'P 1'
_cell_length_a   7.41839511
_cell_length_b   7.41839511
_cell_length_c   10.49119497
_cell_angle_alpha   90.00000000
_cell_angle_beta   90.00000000
_cell_angle_gamma   90.00000000
_symmetry_Int_Tables_number   1
_chemical_formula_structural   Cr5Fe32Ni17
_chemical_formula_sum   'Cr5 Fe32 Ni17'
_cell_volume   577.35758910
_cell_formula_units_Z   1
loop_
 _symmetry_equiv_pos_site_id
 _symmetry_equiv_pos_as_xyz
  1  'x, y, z'
loop_
 _atom_site_type_symbol
 _atom_site_label
 _atom_site_symmetry_multiplicity
 _atom_site_fract_x
 _atom_site_fract_y
 _atom_site_fract_z
 _atom_site_occupancy
  Fe  Fe0  1  0.00498724  0.00382667  0.00367559  1
  Fe  Fe1  1  0.17004642  0.17115206  0.16994379  1
  Fe  Fe2  1  0.00382707  1.00271628  0.33563732  1
  Ni  Ni3  1  0.00409604  0.33545687  0.00371830  1
  Fe  Fe4  1  0.17060582  0.50302191  0.17014361  1
  Ni  Ni5  1  1.00180362  0.33718879  0.33557498  1
  Fe  Fe6  1  0.00508400  0.66971861  0.00443482  1
  Ni  Ni7  1  0.16955315  0.83790823  0.17016443  1
  Fe  Fe8  1  0.00391929  0.66901187  0.33686630  1
  Fe  Fe9  1  0.33584903  0.00344862  1.00289654  1
  Ni  Ni10  1  0.50155419  0.17002927  0.17154379  1
  Fe  Fe11  1  0.33697681  1.00284343  0.33592239  1
  Fe  Fe12  1  0.33515576  0.33672838  0.00384521  1
  Ni  Ni13  1  0.50417342  0.50300628  0.17059662  1
  Ni  Ni14  1  0.33748945  0.33771991  0.33555404  1
  Ni  Ni15  1  0.33656935  0.67190610  1.00223790  1
  Fe  Fe16  1  0.50300353  0.83577321  0.17028841  1
  Ni  Ni17  1  0.33692663  0.67082480  0.33765794  1
  Fe  Fe18  1  0.66900047  1.00278685  0.00417485  1
  Fe  Fe19  1  0.83729131  0.16998483  0.17058529  1
  Fe  Fe20  1  0.66903034  0.00377984  0.33663847  1
  Cr  Cr21  1  0.67109238  0.33554244  0.00470096  1
  Ni  Ni22  1  0.83642298  0.50421215  0.17064084  1
  Fe  Fe23  1  0.66921899  0.33770784  0.33662256  1
  Fe  Fe24  1  0.66857352  0.67041732  0.00516389  1
  Fe  Fe25  1  0.83600931  0.83632644  0.16964888  1
  Fe  Fe26  1  0.66934472  0.66835185  0.33686940  1
  Cr  Cr27  1  0.16969297  0.17029798  0.50185242  1
  Fe  Fe28  1  1.00188839  0.00368119  0.67052233  1
  Ni  Ni29  1  0.16995122  0.16987387  0.83851631  1
  Fe  Fe30  1  0.17017917  0.50492848  0.50309874  1
  Ni  Ni31  1  1.00111542  0.33737838  0.67054869  1
  Fe  Fe32  1  0.17078032  0.50341861  0.83659011  1
  Fe  Fe33  1  0.16971188  0.83306685  0.50258220  1
  Ni  Ni34  1  0.00513228  0.66949326  0.66809228  1
  Ni  Ni35  1  0.17057002  0.83788993  0.83631185  1
  Fe  Fe36  1  0.50598932  0.17137080  0.50216791  1
  Cr  Cr37  1  0.33768200  1.00075668  0.67040936  1
  Fe  Fe38  1  0.50302090  0.16954150  0.83681679  1
  Ni  Ni39  1  0.50493192  0.50382406  0.50380581  1
  Fe  Fe40  1  0.33702178  0.33904372  0.67032135  1
  Fe  Fe41  1  0.50027083  0.50423675  0.83593392  1
  Ni  Ni42  1  0.50408064  0.83516386  0.50252869  1
  Fe  Fe43  1  0.33643421  0.66794715  0.66980636  1
  Fe  Fe44  1  0.50166889  0.83605251  0.83712622  1
  Fe  Fe45  1  0.83444515  0.17090650  0.50362763  1
  Fe  Fe46  1  0.67136273  0.00426585  0.66902580  1
  Fe  Fe47  1  0.83846368  0.16929377  0.83562592  1
  Ni  Ni48  1  0.83551606  0.50355674  0.50347867  1
  Ni  Ni49  1  0.67072660  0.33529654  0.66842090  1
  Cr  Cr50  1  0.83646750  0.50324680  0.83595040  1
  Fe  Fe51  1  0.83594621  0.83580650  0.50379219  1
  Fe  Fe52  1  0.66911157  0.66892905  0.66780820  1
  Cr  Cr53  1  0.83730917  0.83641753  0.83656754  1
" 