1233,Ni31Cr69_4,-227.539733712078, 141.505082790649,Ni31Cr69,"# generated using pymatgen
 data_Cr8Ni19
_symmetry_space_group_name_H-M   'P 1'
_cell_length_a   7.49176059
_cell_length_b   7.49176059
_cell_length_c   10.59494943
_cell_angle_alpha   90.00000000
_cell_angle_beta   90.00000000
_cell_angle_gamma   90.00000000
_symmetry_Int_Tables_number   1
_chemical_formula_structural   Cr8Ni19
_chemical_formula_sum   'Cr16 Ni38'
_cell_volume   594.65718247
_cell_formula_units_Z   2
loop_
 _symmetry_equiv_pos_site_id
 _symmetry_equiv_pos_as_xyz
  1  'x, y, z'
loop_
 _atom_site_type_symbol
 _atom_site_label
 _atom_site_symmetry_multiplicity
 _atom_site_fract_x
 _atom_site_fract_y
 _atom_site_fract_z
 _atom_site_occupancy
  Ni  Ni0  1  0.99580075  0.99667864  -0.00070401  1
  Ni  Ni1  1  0.16157577  0.16291539  0.16509844  1
  Ni  Ni2  1  0.99804843  0.99743692  0.32923453  1
  Ni  Ni3  1  0.99659013  0.33108672  0.99766921  1
  Cr  Cr4  1  0.16372328  0.49953339  0.16399934  1
  Ni  Ni5  1  0.99594528  0.32986622  0.33176077  1
  Ni  Ni6  1  0.99802311  0.66735519  0.99625327  1
  Ni  Ni7  1  0.16348010  0.83215241  0.16651469  1
  Ni  Ni8  1  0.99802645  0.66762334  0.33193160  1
  Cr  Cr9  1  0.33036364  0.99375449  -0.00087548  1
  Cr  Cr10  1  0.50004902  0.16260774  0.16257117  1
  Ni  Ni11  1  0.33201851  0.99412208  0.33198204  1
  Ni  Ni12  1  0.32927304  0.33306985  -0.00146900  1
  Cr  Cr13  1  0.49907605  0.50249233  0.16187984  1
  Cr  Cr14  1  0.33256882  0.33130329  0.33201403  1
  Ni  Ni15  1  0.33064904  0.66708643  0.99773677  1
  Ni  Ni16  1  0.49985210  0.83125800  0.16581911  1
  Ni  Ni17  1  0.33295380  0.67017085  0.33234302  1
  Ni  Ni18  1  0.66858466  0.99547448  0.99815602  1
  Ni  Ni19  1  0.83410468  0.16231985  0.16415696  1
  Ni  Ni20  1  0.66507397  0.99652584  0.33121958  1
  Ni  Ni21  1  0.66901126  0.33110748  0.99696821  1
  Cr  Cr22  1  0.83229953  0.50141771  0.16499748  1
  Cr  Cr23  1  0.66657810  0.33206572  0.33491080  1
  Ni  Ni24  1  0.66628514  0.66853069  0.99784079  1
  Ni  Ni25  1  0.83173740  0.83338956  0.16478793  1
  Ni  Ni26  1  0.66410419  0.66826381  0.33238256  1
  Cr  Cr27  1  0.16415990  0.15934161  0.49631099  1
  Cr  Cr28  1  0.99729117  0.99517386  0.66751992  1
  Cr  Cr29  1  0.16446559  0.16462913  0.83358323  1
  Cr  Cr30  1  0.16259955  0.50365577  0.49739627  1
  Cr  Cr31  1  0.99390641  0.33419407  0.66537078  1
  Ni  Ni32  1  0.16312204  0.50250161  0.83390843  1
  Ni  Ni33  1  0.16707841  0.83058837  0.49779439  1
  Ni  Ni34  1  0.99793988  0.66547397  0.66701708  1
  Ni  Ni35  1  0.16472368  0.82801803  0.83097421  1
  Ni  Ni36  1  0.50103883  0.16130802  0.49984023  1
  Ni  Ni37  1  0.33443721  0.99242518  0.66362200  1
  Cr  Cr38  1  0.50126279  0.16217179  0.83128316  1
  Ni  Ni39  1  0.50071989  0.50212015  0.49927570  1
  Cr  Cr40  1  0.33383201  0.33326382  0.66381921  1
  Cr  Cr41  1  0.49910332  0.50021794  0.83431809  1
  Ni  Ni42  1  0.49806506  0.83184733  0.49841686  1
  Ni  Ni43  1  0.33214958  0.66887721  0.66533004  1
  Ni  Ni44  1  0.49996787  0.83042729  0.83083822  1
  Ni  Ni45  1  0.82883212  0.16430079  0.49752104  1
  Ni  Ni46  1  0.66405303  0.99748190  0.66523712  1
  Ni  Ni47  1  0.82979625  0.16442330  0.83346950  1
  Ni  Ni48  1  0.82984892  0.49987332  0.49847735  1
  Ni  Ni49  1  0.66680575  0.33211911  0.66317342  1
  Ni  Ni50  1  0.83209637  0.50009200  0.83199954  1
  Cr  Cr51  1  0.83218222  0.83104310  0.49733726  1
  Ni  Ni52  1  0.66509933  0.66517062  0.66504919  1
  Ni  Ni53  1  0.83056202  0.83058770  0.83287253  1
" 