4243,Ni31Fe50Cr17_15,-231.585427264409, 195.504047604988,Ni31Fe50Cr17,"# generated using pymatgen
 data_Cr10Fe27Ni17
_symmetry_space_group_name_H-M   'P 1'
_cell_length_a   7.43799797
_cell_length_b   7.43799797
_cell_length_c   10.51891761
_cell_angle_alpha   90.00000000
_cell_angle_beta   90.00000000
_cell_angle_gamma   90.00000000
_symmetry_Int_Tables_number   1
_chemical_formula_structural   Cr10Fe27Ni17
_chemical_formula_sum   'Cr10 Fe27 Ni17'
_cell_volume   581.94663936
_cell_formula_units_Z   1
loop_
 _symmetry_equiv_pos_site_id
 _symmetry_equiv_pos_as_xyz
  1  'x, y, z'
loop_
 _atom_site_type_symbol
 _atom_site_label
 _atom_site_symmetry_multiplicity
 _atom_site_fract_x
 _atom_site_fract_y
 _atom_site_fract_z
 _atom_site_occupancy
  Fe  Fe0  1  0.99915014  0.00299341  0.00223861  1
  Ni  Ni1  1  0.17034782  0.16966791  0.16884258  1
  Ni  Ni2  1  0.00223222  0.00268290  0.33657355  1
  Fe  Fe3  1  0.99926042  0.33696644  0.00330409  1
  Ni  Ni4  1  0.16738223  0.49981631  0.16770379  1
  Ni  Ni5  1  0.00282153  0.33277580  0.33389280  1
  Fe  Fe6  1  0.99963183  0.66517191  1.00050150  1
  Cr  Cr7  1  0.16740343  0.83724464  0.16675033  1
  Fe  Fe8  1  0.00250251  0.66581943  0.33731633  1
  Fe  Fe9  1  0.33797174  1.00081077  1.00091382  1
  Cr  Cr10  1  0.50152651  0.16850733  0.16772742  1
  Fe  Fe11  1  0.33364045  0.00518883  0.33666543  1
  Fe  Fe12  1  0.33606290  0.33797836  0.00203682  1
  Fe  Fe13  1  0.50123440  0.50258229  0.16640318  1
  Ni  Ni14  1  0.33253154  0.33522658  0.33429216  1
  Fe  Fe15  1  0.33648546  0.66694311  1.00166898  1
  Fe  Fe16  1  0.50206348  0.83406039  0.16701280  1
  Cr  Cr17  1  0.33639042  0.67082097  0.33379589  1
  Fe  Fe18  1  0.66883886  1.00191572  1.00081105  1
  Fe  Fe19  1  0.83989567  0.16990517  0.16745387  1
  Fe  Fe20  1  0.66853433  1.00177608  0.33705538  1
  Ni  Ni21  1  0.67008579  0.33665483  1.00103099  1
  Ni  Ni22  1  0.83495112  0.50285871  0.16897800  1
  Cr  Cr23  1  0.67083224  0.33547902  0.33390351  1
  Ni  Ni24  1  0.66756863  0.66762483  0.00266708  1
  Cr  Cr25  1  0.83422503  0.83428008  0.17065024  1
  Fe  Fe26  1  0.67108394  0.66926714  0.33615426  1
  Fe  Fe27  1  0.16802890  0.16921367  0.50034649  1
  Fe  Fe28  1  0.99968392  0.00240248  0.66729694  1
  Cr  Cr29  1  0.16876911  0.16671840  0.83613966  1
  Fe  Fe30  1  0.16627916  0.50169337  0.49986666  1
  Cr  Cr31  1  1.00096325  0.33506755  0.66668275  1
  Fe  Fe32  1  0.16842667  0.50092213  0.83669661  1
  Ni  Ni33  1  0.16903623  0.83895110  0.50302353  1
  Cr  Cr34  1  1.00101369  0.67003045  0.66830146  1
  Fe  Fe35  1  0.16822257  0.83305822  0.83645758  1
  Fe  Fe36  1  0.50163104  0.16598001  0.50177619  1
  Fe  Fe37  1  0.33690987  1.00045170  0.66826218  1
  Fe  Fe38  1  0.50385556  0.17037702  0.83707115  1
  Cr  Cr39  1  0.50158301  0.50029264  0.50307176  1
  Ni  Ni40  1  0.33540077  0.33338774  0.66887077  1
  Ni  Ni41  1  0.50176058  0.50348878  0.83611503  1
  Fe  Fe42  1  0.50509146  0.83661143  0.50305239  1
  Fe  Fe43  1  0.33582304  0.66766061  0.66938597  1
  Fe  Fe44  1  0.50397624  0.83470229  0.83566066  1
  Ni  Ni45  1  0.83585397  0.16626892  0.49999776  1
  Fe  Fe46  1  0.67041798  0.00205637  0.66876593  1
  Ni  Ni47  1  0.83509190  0.16708846  0.83824871  1
  Ni  Ni48  1  0.83438045  0.50330642  0.50019720  1
  Cr  Cr49  1  0.66932999  0.33467561  0.67063033  1
  Ni  Ni50  1  0.83162846  0.50313047  0.83657142  1
  Ni  Ni51  1  0.83670311  0.83617262  0.50151308  1
  Ni  Ni52  1  0.66785399  0.67166420  0.66876034  1
  Fe  Fe53  1  0.83308090  0.83505881  0.83634342  1
" 