8110,Ni31Fe50Cr17_3,-231.02477591883, 198.512286154551,Ni31Fe50Cr17,"# generated using pymatgen
 data_Cr10Fe27Ni17
_symmetry_space_group_name_H-M   'P 1'
_cell_length_a   7.43303678
_cell_length_b   7.43303678
_cell_length_c   10.51190142
_cell_angle_alpha   90.00000000
_cell_angle_beta   90.00000000
_cell_angle_gamma   90.00000000
_symmetry_Int_Tables_number   1
_chemical_formula_structural   Cr10Fe27Ni17
_chemical_formula_sum   'Cr10 Fe27 Ni17'
_cell_volume   580.78292980
_cell_formula_units_Z   1
loop_
 _symmetry_equiv_pos_site_id
 _symmetry_equiv_pos_as_xyz
  1  'x, y, z'
loop_
 _atom_site_type_symbol
 _atom_site_label
 _atom_site_symmetry_multiplicity
 _atom_site_fract_x
 _atom_site_fract_y
 _atom_site_fract_z
 _atom_site_occupancy
  Fe  Fe0  1  1.00083590  0.00345751  1.00158325  1
  Ni  Ni1  1  0.16662904  0.16972946  0.17059716  1
  Fe  Fe2  1  1.00098100  0.00411683  0.33552897  1
  Fe  Fe3  1  1.00039173  0.33586606  0.00261992  1
  Fe  Fe4  1  0.16780447  0.50087926  0.16958071  1
  Ni  Ni5  1  0.00437894  0.33308783  0.33433033  1
  Ni  Ni6  1  1.00117923  0.66953649  1.00089839  1
  Cr  Cr7  1  0.16929965  0.83524434  0.16794423  1
  Fe  Fe8  1  1.00177062  0.66787734  0.33478882  1
  Fe  Fe9  1  0.33522729  1.00189166  1.00098995  1
  Cr  Cr10  1  0.50266129  0.16803530  0.16740240  1
  Fe  Fe11  1  0.33532465  0.00249920  0.33600827  1
  Cr  Cr12  1  0.33521259  0.33469314  0.00260063  1
  Fe  Fe13  1  0.50241893  0.50437412  0.16861996  1
  Fe  Fe14  1  0.33218031  0.33720905  0.33513655  1
  Fe  Fe15  1  0.33520955  0.66886566  0.00287173  1
  Fe  Fe16  1  0.50343026  0.83476210  0.16934891  1
  Ni  Ni17  1  0.33730391  0.66835938  0.33512012  1
  Fe  Fe18  1  0.67080070  0.00260522  1.00221000  1
  Ni  Ni19  1  0.83733156  0.16964953  0.16899182  1
  Fe  Fe20  1  0.67055751  0.99940814  0.33588952  1
  Ni  Ni21  1  0.67132221  0.33550786  1.00213583  1
  Fe  Fe22  1  0.83664642  0.50195687  0.16797792  1
  Cr  Cr23  1  0.67015032  0.33619781  0.33415814  1
  Ni  Ni24  1  0.67097545  0.66862877  0.00501625  1
  Fe  Fe25  1  0.83466333  0.83621880  0.16892135  1
  Fe  Fe26  1  0.66820368  0.67103582  0.33549481  1
  Fe  Fe27  1  0.16810595  0.17005162  0.50142979  1
  Cr  Cr28  1  0.00237668  0.00290750  0.66940476  1
  Ni  Ni29  1  0.16868349  0.16923432  0.83576395  1
  Fe  Fe30  1  0.17057972  0.50205495  0.50233592  1
  Fe  Fe31  1  0.00326376  0.33646271  0.66972260  1
  Ni  Ni32  1  0.16599821  0.50352063  0.83455656  1
  Cr  Cr33  1  0.16984021  0.83430912  0.50249149  1
  Fe  Fe34  1  1.00228698  0.66769124  0.67071419  1
  Fe  Fe35  1  0.16873295  0.83551345  0.83610819  1
  Cr  Cr36  1  0.50164152  0.16785878  0.50458566  1
  Ni  Ni37  1  0.33531793  0.00254956  0.67005759  1
  Ni  Ni38  1  0.50348474  0.16797181  0.83492471  1
  Fe  Fe39  1  0.50074809  0.50583774  0.50345505  1
  Fe  Fe40  1  0.33479909  0.33568143  0.66983535  1
  Cr  Cr41  1  0.50340279  0.50146663  0.83403115  1
  Ni  Ni42  1  0.50349222  0.83461445  0.50150784  1
  Ni  Ni43  1  0.33575419  0.66880124  0.66866903  1
  Cr  Cr44  1  0.50168628  0.83732546  0.83552300  1
  Fe  Fe45  1  0.83661328  0.16712515  0.50211159  1
  Fe  Fe46  1  0.66806719  1.00178535  0.66875903  1
  Ni  Ni47  1  0.83469446  0.17044976  0.83611968  1
  Cr  Cr48  1  0.83672592  0.50334732  0.50427635  1
  Ni  Ni49  1  0.66941972  0.33548826  0.67051630  1
  Fe  Fe50  1  0.83651254  0.50127979  0.83573626  1
  Ni  Ni51  1  0.83333139  0.83498748  0.50099457  1
  Ni  Ni52  1  0.66860315  0.66858689  0.66701144  1
  Fe  Fe53  1  0.83648901  0.83494581  0.83613405  1
" 