8138,Ni31Cr69_12,-227.561989693606, 142.6035321542,Ni31Cr69,"# generated using pymatgen
 data_Cr8Ni19
_symmetry_space_group_name_H-M   'P 1'
_cell_length_a   7.49361849
_cell_length_b   7.49361849
_cell_length_c   10.59757690
_cell_angle_alpha   90.00000000
_cell_angle_beta   90.00000000
_cell_angle_gamma   90.00000000
_symmetry_Int_Tables_number   1
_chemical_formula_structural   Cr8Ni19
_chemical_formula_sum   'Cr16 Ni38'
_cell_volume   595.09970341
_cell_formula_units_Z   2
loop_
 _symmetry_equiv_pos_site_id
 _symmetry_equiv_pos_as_xyz
  1  'x, y, z'
loop_
 _atom_site_type_symbol
 _atom_site_label
 _atom_site_symmetry_multiplicity
 _atom_site_fract_x
 _atom_site_fract_y
 _atom_site_fract_z
 _atom_site_occupancy
  Ni  Ni0  1  0.00145798  0.99667957  -0.00102143  1
  Ni  Ni1  1  0.16104380  0.16448169  0.16074145  1
  Cr  Cr2  1  -0.00019173  0.99748061  0.33002619  1
  Ni  Ni3  1  0.00004671  0.33208984  0.99809093  1
  Cr  Cr4  1  0.16221640  0.49894980  0.16404834  1
  Ni  Ni5  1  0.99638757  0.33096369  0.33187704  1
  Ni  Ni6  1  0.99759107  0.66597105  0.99757362  1
  Ni  Ni7  1  0.16115706  0.83174122  0.16157907  1
  Ni  Ni8  1  0.99728277  0.66441023  0.33070559  1
  Ni  Ni9  1  0.32586350  0.99596954  0.99736012  1
  Cr  Cr10  1  0.49641240  0.16482506  0.16354635  1
  Cr  Cr11  1  0.32905707  0.99746992  0.33354849  1
  Ni  Ni12  1  0.32692011  0.33251703  0.99530024  1
  Cr  Cr13  1  0.49887374  0.49930954  0.16391597  1
  Cr  Cr14  1  0.32800213  0.32937413  0.33465725  1
  Ni  Ni15  1  0.32957762  0.66638042  0.99479476  1
  Cr  Cr16  1  0.49755384  0.83082172  0.16417268  1
  Cr  Cr17  1  0.32655325  0.66831083  0.33501968  1
  Cr  Cr18  1  0.66956802  0.99465845  0.99708568  1
  Ni  Ni19  1  0.83510050  0.16543797  0.16634059  1
  Ni  Ni20  1  0.66670538  -0.00115665  0.33302752  1
  Cr  Cr21  1  0.66864397  0.33573192  0.99632239  1
  Ni  Ni22  1  0.83367662  0.49960645  0.16580797  1
  Ni  Ni23  1  0.66896336  0.32959252  0.33114443  1
  Ni  Ni24  1  0.66724677  0.66517557  0.99590178  1
  Ni  Ni25  1  0.83382295  0.82958928  0.16456995  1
  Ni  Ni26  1  0.66771541  0.66630686  0.32985987  1
  Ni  Ni27  1  0.16321571  0.16536166  0.50203257  1
  Ni  Ni28  1  0.00106720  0.99735505  0.66529260  1
  Ni  Ni29  1  0.16452053  0.16466101  0.83195407  1
  Ni  Ni30  1  0.16256711  0.49845721  0.50051519  1
  Ni  Ni31  1  0.00228781  0.33204036  0.66481233  1
  Ni  Ni32  1  0.16420075  0.49858984  0.83088285  1
  Ni  Ni33  1  0.16466894  0.83052863  0.50145575  1
  Ni  Ni34  1  0.00101206  0.66509396  0.66697332  1
  Ni  Ni35  1  0.16425602  0.83160231  0.83167235  1
  Ni  Ni36  1  0.49897105  0.16223671  0.49934281  1
  Ni  Ni37  1  0.32953870  0.99658774  0.66365828  1
  Cr  Cr38  1  0.49201518  0.16206290  0.83130068  1
  Cr  Cr39  1  0.49834087  0.50051593  0.49833460  1
  Ni  Ni40  1  0.32782860  0.33205325  0.66504957  1
  Ni  Ni41  1  0.49493961  0.50242001  0.83228141  1
  Ni  Ni42  1  0.49860837  0.83369146  0.50037678  1
  Ni  Ni43  1  0.32991699  0.66608228  0.66540601  1
  Ni  Ni44  1  0.49671450  0.82886115  0.83012664  1
  Ni  Ni45  1  0.83275676  0.16442214  0.49843762  1
  Ni  Ni46  1  0.66414300  0.99534075  0.66363942  1
  Cr  Cr47  1  0.83904463  0.16173947  0.82877763  1
  Cr  Cr48  1  0.83560722  0.49902667  0.49731949  1
  Cr  Cr49  1  0.66571397  0.33277250  0.66693543  1
  Ni  Ni50  1  0.83541438  0.50248980  0.83172636  1
  Cr  Cr51  1  0.83198170  0.83143765  0.50050460  1
  Ni  Ni52  1  0.66396672  0.66770178  0.66917803  1
  Ni  Ni53  1  0.83371672  0.82844289  0.83028049  1
" 