7377,Ni31Fe50Cr17_6,-232.523515336834, 198.236782738206,Ni31Fe50Cr17,"# generated using pymatgen
 data_Cr10Fe27Ni17
_symmetry_space_group_name_H-M   'P 1'
_cell_length_a   7.44832348
_cell_length_b   7.44832348
_cell_length_c   10.53352008
_cell_angle_alpha   90.00000000
_cell_angle_beta   90.00000000
_cell_angle_gamma   90.00000000
_symmetry_Int_Tables_number   1
_chemical_formula_structural   Cr10Fe27Ni17
_chemical_formula_sum   'Cr10 Fe27 Ni17'
_cell_volume   584.37359928
_cell_formula_units_Z   1
loop_
 _symmetry_equiv_pos_site_id
 _symmetry_equiv_pos_as_xyz
  1  'x, y, z'
loop_
 _atom_site_type_symbol
 _atom_site_label
 _atom_site_symmetry_multiplicity
 _atom_site_fract_x
 _atom_site_fract_y
 _atom_site_fract_z
 _atom_site_occupancy
  Ni  Ni0  1  1.00115342  0.00279924  0.00381943  1
  Ni  Ni1  1  0.16582188  0.16817970  0.16751042  1
  Fe  Fe2  1  1.00002232  1.00096792  0.33423927  1
  Fe  Fe3  1  0.00163526  0.33450820  0.00234120  1
  Fe  Fe4  1  0.16711308  0.50177540  0.16875682  1
  Ni  Ni5  1  0.99983340  0.33435243  0.33349438  1
  Fe  Fe6  1  0.00292296  0.66835380  0.00192582  1
  Fe  Fe7  1  0.16829163  0.83395307  0.16664050  1
  Ni  Ni8  1  0.00165722  0.66664504  0.33281739  1
  Ni  Ni9  1  0.33551286  1.00113670  0.00317434  1
  Fe  Fe10  1  0.50146073  0.16614069  0.16724972  1
  Cr  Cr11  1  0.33485512  1.00032340  0.33438105  1
  Fe  Fe12  1  0.33432690  0.33420039  1.00060060  1
  Cr  Cr13  1  0.49982103  0.50146809  0.17070075  1
  Fe  Fe14  1  0.33387641  0.33496935  0.33486821  1
  Ni  Ni15  1  0.33433152  0.66885548  0.00152818  1
  Ni  Ni16  1  0.50059069  0.83624522  0.16613865  1
  Ni  Ni17  1  0.33375312  0.66870282  0.33412860  1
  Fe  Fe18  1  0.66709433  0.00179344  0.00211917  1
  Fe  Fe19  1  0.83468015  0.16731544  0.16815618  1
  Ni  Ni20  1  0.66804758  0.00284883  0.33394688  1
  Fe  Fe21  1  0.66780521  0.33245803  1.00007773  1
  Fe  Fe22  1  0.83785229  0.49983871  0.16905509  1
  Fe  Fe23  1  0.66935787  0.33318030  0.33561665  1
  Cr  Cr24  1  0.66766057  0.66792989  1.00008143  1
  Fe  Fe25  1  0.83595013  0.83661939  0.16809967  1
  Cr  Cr26  1  0.66811016  0.66816622  0.33624965  1
  Fe  Fe27  1  0.16610109  0.16853992  0.50164304  1
  Ni  Ni28  1  0.99901255  0.00204555  0.66519797  1
  Cr  Cr29  1  0.16668543  0.16958104  0.83330960  1
  Cr  Cr30  1  0.16701809  0.50010162  0.50163658  1
  Ni  Ni31  1  1.00073439  0.33408657  0.66879970  1
  Fe  Fe32  1  0.16796165  0.50059130  0.83451362  1
  Fe  Fe33  1  0.16543171  0.83413668  0.50081642  1
  Ni  Ni34  1  0.99692752  0.66763584  0.66876154  1
  Cr  Cr35  1  0.16634956  0.83398437  0.83555268  1
  Fe  Fe36  1  0.50227563  0.16868217  0.50058010  1
  Cr  Cr37  1  0.33494934  0.00277428  0.66642668  1
  Fe  Fe38  1  0.50189896  0.16847872  0.83593581  1
  Fe  Fe39  1  0.50212268  0.50137618  0.50128681  1
  Ni  Ni40  1  0.33443654  0.33387573  0.66818662  1
  Ni  Ni41  1  0.50124644  0.50089588  0.83375350  1
  Ni  Ni42  1  0.50339260  0.83478139  0.50206288  1
  Cr  Cr43  1  0.33707210  0.66700814  0.66786667  1
  Fe  Fe44  1  0.50286440  0.83452962  0.83564749  1
  Fe  Fe45  1  0.83539120  0.16743377  0.50053794  1
  Fe  Fe46  1  0.66982799  0.99938717  0.66706295  1
  Fe  Fe47  1  0.83437752  0.16721774  0.83507394  1
  Ni  Ni48  1  0.83502198  0.50118362  0.50150406  1
  Cr  Cr49  1  0.66834507  0.33650280  0.66739734  1
  Fe  Fe50  1  0.83588726  0.50155411  0.83323480  1
  Fe  Fe51  1  0.83510183  0.83428880  0.50234856  1
  Ni  Ni52  1  0.66970499  0.66847006  0.66770052  1
  Fe  Fe53  1  0.83419816  0.83500429  0.83331893  1
" 