1454,Ni31Fe67Cr1_2,-235.590606514918, 202.085780408544,Ni31Fe67Cr1,"# generated using pymatgen
 data_Cr(Fe9Ni4)2
_symmetry_space_group_name_H-M   'P 1'
_cell_length_a   7.40594424
_cell_length_b   7.40594424
_cell_length_c   10.47358679
_cell_angle_alpha   90.00000000
_cell_angle_beta   90.00000000
_cell_angle_gamma   90.00000000
_symmetry_Int_Tables_number   1
_chemical_formula_structural   Cr(Fe9Ni4)2
_chemical_formula_sum   'Cr2 Fe36 Ni16'
_cell_volume   574.45539371
_cell_formula_units_Z   2
loop_
 _symmetry_equiv_pos_site_id
 _symmetry_equiv_pos_as_xyz
  1  'x, y, z'
loop_
 _atom_site_type_symbol
 _atom_site_label
 _atom_site_symmetry_multiplicity
 _atom_site_fract_x
 _atom_site_fract_y
 _atom_site_fract_z
 _atom_site_occupancy
  Fe  Fe0  1  1.00370233  0.00448703  1.00384577  1
  Fe  Fe1  1  0.17078990  0.16972388  0.17072663  1
  Fe  Fe2  1  1.00405449  1.00252255  0.33803922  1
  Fe  Fe3  1  1.00166015  0.33755531  0.00434588  1
  Ni  Ni4  1  0.16971768  0.50618500  0.17044386  1
  Cr  Cr5  1  0.00509878  0.33759116  0.33672613  1
  Fe  Fe6  1  1.00372963  0.67033473  0.00448964  1
  Fe  Fe7  1  0.17075922  0.83750002  0.17123960  1
  Fe  Fe8  1  0.00460208  0.67192017  0.33726344  1
  Fe  Fe9  1  0.33842095  1.00251844  0.00415459  1
  Ni  Ni10  1  0.50587714  0.16862318  0.17167336  1
  Fe  Fe11  1  0.33753682  1.00407345  0.33753797  1
  Cr  Cr12  1  0.33672943  0.33801091  0.00538920  1
  Fe  Fe13  1  0.50527967  0.50442650  0.17210945  1
  Fe  Fe14  1  0.33906287  0.33787268  0.33764497  1
  Fe  Fe15  1  0.33777695  0.67291867  0.00422207  1
  Ni  Ni16  1  0.50335264  0.83901792  0.17049788  1
  Fe  Fe17  1  0.33692922  0.67043251  0.33801414  1
  Ni  Ni18  1  0.67143379  1.00315050  0.00466371  1
  Ni  Ni19  1  0.83570963  0.17077066  0.16878291  1
  Fe  Fe20  1  0.67078134  0.00465202  0.33612937  1
  Fe  Fe21  1  0.67283285  0.33691051  0.00463184  1
  Ni  Ni22  1  0.83786631  0.50365708  0.16992528  1
  Fe  Fe23  1  0.66929591  0.33732508  0.33694966  1
  Fe  Fe24  1  0.67086703  0.67087195  1.00375284  1
  Fe  Fe25  1  0.83679698  0.83772927  0.17061545  1
  Fe  Fe26  1  0.67084316  0.67039626  0.33776412  1
  Fe  Fe27  1  0.17194098  0.17040316  0.50585633  1
  Ni  Ni28  1  0.00415799  0.00527042  0.67022824  1
  Fe  Fe29  1  0.16951180  0.17046972  0.83579362  1
  Ni  Ni30  1  0.17190943  0.50577649  0.50653166  1
  Ni  Ni31  1  0.00501888  0.33686148  0.67130235  1
  Fe  Fe32  1  0.16982043  0.50455710  0.83633203  1
  Ni  Ni33  1  0.17064810  0.83717820  0.50458312  1
  Fe  Fe34  1  0.00522308  0.67062844  0.67062440  1
  Fe  Fe35  1  0.17051568  0.83735157  0.83648253  1
  Fe  Fe36  1  0.50275122  0.17129556  0.50393087  1
  Ni  Ni37  1  0.33699311  0.00419444  0.67118462  1
  Fe  Fe38  1  0.50506629  0.17026364  0.83712726  1
  Ni  Ni39  1  0.50358359  0.50358977  0.50418348  1
  Ni  Ni40  1  0.33613925  0.33794063  0.66948619  1
  Fe  Fe41  1  0.50516453  0.50516418  0.83548616  1
  Fe  Fe42  1  0.50312399  0.83625955  0.50423551  1
  Ni  Ni43  1  0.33884399  0.67024006  0.67093414  1
  Fe  Fe44  1  0.50467467  0.83694543  0.83771882  1
  Fe  Fe45  1  0.83768100  0.17033930  0.50472971  1
  Fe  Fe46  1  0.67034261  0.00422216  0.67130476  1
  Fe  Fe47  1  0.83779795  0.17095719  0.83779371  1
  Fe  Fe48  1  0.83700482  0.50540558  0.50524512  1
  Fe  Fe49  1  0.67034399  0.33783749  0.67078874  1
  Ni  Ni50  1  0.83777281  0.50345345  0.83683045  1
  Fe  Fe51  1  0.83789779  0.83663145  0.50444627  1
  Ni  Ni52  1  0.67014405  0.67109966  0.67071374  1
  Fe  Fe53  1  0.83718680  0.83725222  0.83731299  1
" 