5312,Ni31Fe60Cr8_8,-234.338271674588, 201.47824851114,Ni31Fe60Cr8,"# generated using pymatgen
 data_Cr5Fe32Ni17
_symmetry_space_group_name_H-M   'P 1'
_cell_length_a   7.41482969
_cell_length_b   7.41482969
_cell_length_c   10.48615271
_cell_angle_alpha   90.00000000
_cell_angle_beta   90.00000000
_cell_angle_gamma   90.00000000
_symmetry_Int_Tables_number   1
_chemical_formula_structural   Cr5Fe32Ni17
_chemical_formula_sum   'Cr5 Fe32 Ni17'
_cell_volume   576.52552243
_cell_formula_units_Z   1
loop_
 _symmetry_equiv_pos_site_id
 _symmetry_equiv_pos_as_xyz
  1  'x, y, z'
loop_
 _atom_site_type_symbol
 _atom_site_label
 _atom_site_symmetry_multiplicity
 _atom_site_fract_x
 _atom_site_fract_y
 _atom_site_fract_z
 _atom_site_occupancy
  Ni  Ni0  1  1.00320884  0.00405589  0.00459845  1
  Fe  Fe1  1  0.17105376  0.16960562  0.17012321  1
  Fe  Fe2  1  0.00589537  0.00424302  0.33659492  1
  Fe  Fe3  1  1.00347891  0.33554928  1.00336456  1
  Fe  Fe4  1  0.17078575  0.50301598  0.17099850  1
  Fe  Fe5  1  0.00595278  0.33616993  0.33726678  1
  Fe  Fe6  1  1.00271895  0.67033174  0.00433390  1
  Ni  Ni7  1  0.16974715  0.83665027  0.17138561  1
  Fe  Fe8  1  0.00443897  0.67015073  0.33688305  1
  Ni  Ni9  1  0.33589069  1.00295461  0.00480357  1
  Ni  Ni10  1  0.50293713  0.17107207  0.16922083  1
  Ni  Ni11  1  0.33404814  0.00432699  0.33681809  1
  Fe  Fe12  1  0.33637349  0.33655073  0.00482858  1
  Ni  Ni13  1  0.50333285  0.50344668  0.17033261  1
  Ni  Ni14  1  0.33581073  0.33733075  0.33685217  1
  Fe  Fe15  1  0.33761873  0.66982021  0.00415993  1
  Fe  Fe16  1  0.50226294  0.83689882  0.16965696  1
  Fe  Fe17  1  0.33619314  0.66914514  0.33634119  1
  Fe  Fe18  1  0.67122299  1.00343658  0.00415654  1
  Ni  Ni19  1  0.83724650  0.17022553  0.16793414  1
  Cr  Cr20  1  0.67042195  0.00422671  0.33468564  1
  Ni  Ni21  1  0.67111313  0.33818097  0.00444216  1
  Fe  Fe22  1  0.83679162  0.50360850  0.16924253  1
  Cr  Cr23  1  0.66886742  0.33765004  0.33797419  1
  Fe  Fe24  1  0.67022133  0.67056881  1.00345915  1
  Fe  Fe25  1  0.83739862  0.83662755  0.16883571  1
  Fe  Fe26  1  0.66992763  0.66921037  0.33587857  1
  Ni  Ni27  1  0.17078039  0.17083930  0.50292738  1
  Ni  Ni28  1  1.00180196  0.00421450  0.66877420  1
  Ni  Ni29  1  0.16906988  0.17147232  0.83733766  1
  Ni  Ni30  1  0.16947296  0.50318720  0.50348857  1
  Fe  Fe31  1  0.00425320  0.33629184  0.66992751  1
  Fe  Fe32  1  0.17013753  0.50213722  0.83598314  1
  Fe  Fe33  1  0.16935647  0.83743220  0.50331995  1
  Fe  Fe34  1  1.00262462  0.67030287  0.66934386  1
  Cr  Cr35  1  0.16924570  0.83769146  0.83495312  1
  Ni  Ni36  1  0.50179431  0.17150575  0.50474926  1
  Fe  Fe37  1  0.33601883  0.00449744  0.66919501  1
  Cr  Cr38  1  0.50297871  0.16979258  0.83660728  1
  Fe  Fe39  1  0.50143975  0.50190539  0.50387950  1
  Fe  Fe40  1  0.33561613  0.33680940  0.66844277  1
  Fe  Fe41  1  0.50339316  0.50536374  0.83735773  1
  Cr  Cr42  1  0.50293679  0.83742860  0.50436432  1
  Ni  Ni43  1  0.33665053  0.66779646  0.67029791  1
  Fe  Fe44  1  0.50477218  0.83584538  0.83625054  1
  Fe  Fe45  1  0.83860757  0.17008517  0.50509694  1
  Ni  Ni46  1  0.67300979  0.00391858  0.67113348  1
  Fe  Fe47  1  0.83905511  0.16917180  0.83732422  1
  Fe  Fe48  1  0.83789780  0.50354590  0.50418342  1
  Fe  Fe49  1  0.67069341  0.33698640  0.66949628  1
  Fe  Fe50  1  0.83703261  0.50327660  0.83714230  1
  Fe  Fe51  1  0.83951771  0.83693724  0.50530234  1
  Fe  Fe52  1  0.67122209  0.67070707  0.67122959  1
  Ni  Ni53  1  0.83580514  0.83594784  0.83686397  1
" 