4886,Ni31Fe67Cr1_18,-234.978541737426, 202.968990216888,Ni31Fe67Cr1,"# generated using pymatgen
 data_Cr(Fe9Ni4)2
_symmetry_space_group_name_H-M   'P 1'
_cell_length_a   7.40390486
_cell_length_b   7.40390486
_cell_length_c   10.47070267
_cell_angle_alpha   90.00000000
_cell_angle_beta   90.00000000
_cell_angle_gamma   90.00000000
_symmetry_Int_Tables_number   1
_chemical_formula_structural   Cr(Fe9Ni4)2
_chemical_formula_sum   'Cr2 Fe36 Ni16'
_cell_volume   573.98096066
_cell_formula_units_Z   2
loop_
 _symmetry_equiv_pos_site_id
 _symmetry_equiv_pos_as_xyz
  1  'x, y, z'
loop_
 _atom_site_type_symbol
 _atom_site_label
 _atom_site_symmetry_multiplicity
 _atom_site_fract_x
 _atom_site_fract_y
 _atom_site_fract_z
 _atom_site_occupancy
  Fe  Fe0  1  1.00379409  0.00438107  0.00476098  1
  Ni  Ni1  1  0.17197913  0.17047363  0.17038812  1
  Fe  Fe2  1  1.00259711  0.00456041  0.33657153  1
  Fe  Fe3  1  1.00278792  0.33588016  0.00536902  1
  Fe  Fe4  1  0.16967953  0.50501513  0.17109734  1
  Fe  Fe5  1  1.00402287  0.33793896  0.33769853  1
  Ni  Ni6  1  1.00368750  0.67141791  0.00652204  1
  Ni  Ni7  1  0.17113040  0.83777071  0.16992014  1
  Fe  Fe8  1  1.00271574  0.67029092  0.33649663  1
  Ni  Ni9  1  0.33745801  0.00452937  0.00478359  1
  Fe  Fe10  1  0.50431859  0.17021218  0.17018500  1
  Fe  Fe11  1  0.33851224  0.00471053  0.33620084  1
  Fe  Fe12  1  0.33870187  0.33612690  0.00544666  1
  Fe  Fe13  1  0.50471063  0.50468193  0.17104791  1
  Fe  Fe14  1  0.33754058  0.33823953  0.33769926  1
  Fe  Fe15  1  0.33887352  0.67240925  0.00521535  1
  Fe  Fe16  1  0.50431039  0.83790149  0.17081945  1
  Fe  Fe17  1  0.33870078  0.66983720  0.33686904  1
  Ni  Ni18  1  0.66963710  0.00572658  0.00471098  1
  Fe  Fe19  1  0.83809256  0.17058636  0.17048401  1
  Fe  Fe20  1  0.67168004  1.00340282  0.33757846  1
  Ni  Ni21  1  0.67119865  0.33729031  0.00513554  1
  Ni  Ni22  1  0.83672670  0.50476000  0.17030036  1
  Fe  Fe23  1  0.67123059  0.33812153  0.33766735  1
  Fe  Fe24  1  0.67118123  0.67140084  0.00532857  1
  Ni  Ni25  1  0.83756867  0.83707047  0.17054623  1
  Ni  Ni26  1  0.67201904  0.67080876  0.33791532  1
  Fe  Fe27  1  0.17034955  0.17241781  0.50386677  1
  Fe  Fe28  1  1.00262278  0.00548945  0.67145846  1
  Fe  Fe29  1  0.17115037  0.16862771  0.83806533  1
  Ni  Ni30  1  0.17233342  0.50306734  0.50357500  1
  Fe  Fe31  1  1.00339038  0.33637017  0.66972327  1
  Cr  Cr32  1  0.17177653  0.50471049  0.83855182  1
  Cr  Cr33  1  0.17050397  0.83588610  0.50462730  1
  Ni  Ni34  1  1.00253770  0.67065128  0.66937338  1
  Fe  Fe35  1  0.17057666  0.83976128  0.83780511  1
  Fe  Fe36  1  0.50442079  0.17071155  0.50478431  1
  Ni  Ni37  1  0.33780008  0.00548842  0.67136484  1
  Fe  Fe38  1  0.50472492  0.17093215  0.83782664  1
  Fe  Fe39  1  0.50501715  0.50440475  0.50421984  1
  Fe  Fe40  1  0.33809355  0.33722521  0.66964456  1
  Fe  Fe41  1  0.50704670  0.50316307  0.83752584  1
  Fe  Fe42  1  0.50636754  0.83767857  0.50426060  1
  Fe  Fe43  1  0.33917346  0.67050981  0.67070743  1
  Fe  Fe44  1  0.50405835  0.83870694  0.83771799  1
  Ni  Ni45  1  0.83602217  0.17038675  0.50374005  1
  Fe  Fe46  1  0.67172550  0.00441868  0.67109944  1
  Ni  Ni47  1  0.83620339  0.17039209  0.83857701  1
  Fe  Fe48  1  0.83807737  0.50469892  0.50402007  1
  Ni  Ni49  1  0.67120871  0.33789740  0.67014368  1
  Fe  Fe50  1  0.83585427  0.50373531  0.83817636  1
  Ni  Ni51  1  0.83535021  0.83866405  0.50486797  1
  Fe  Fe52  1  0.67087549  0.67127529  0.67006059  1
  Fe  Fe53  1  0.83814773  0.83744869  0.83772232  1
" 