2371,Ni31Fe50Cr17_10,-231.407735004638, 199.917885753151,Ni31Fe50Cr17,"# generated using pymatgen
 data_Cr10Fe27Ni17
_symmetry_space_group_name_H-M   'P 1'
_cell_length_a   7.43275995
_cell_length_b   7.43275995
_cell_length_c   10.51150993
_cell_angle_alpha   90.00000000
_cell_angle_beta   90.00000000
_cell_angle_gamma   90.00000000
_symmetry_Int_Tables_number   1
_chemical_formula_structural   Cr10Fe27Ni17
_chemical_formula_sum   'Cr10 Fe27 Ni17'
_cell_volume   580.71804237
_cell_formula_units_Z   1
loop_
 _symmetry_equiv_pos_site_id
 _symmetry_equiv_pos_as_xyz
  1  'x, y, z'
loop_
 _atom_site_type_symbol
 _atom_site_label
 _atom_site_symmetry_multiplicity
 _atom_site_fract_x
 _atom_site_fract_y
 _atom_site_fract_z
 _atom_site_occupancy
  Fe  Fe0  1  1.00121659  0.00255530  0.00300403  1
  Fe  Fe1  1  0.17045113  0.16790576  0.16802884  1
  Cr  Cr2  1  1.00114420  1.00119616  0.33465177  1
  Ni  Ni3  1  1.00180745  0.33453008  1.00087622  1
  Cr  Cr4  1  0.16800590  0.50059022  0.16959434  1
  Fe  Fe5  1  1.00146462  0.33512945  0.33572104  1
  Ni  Ni6  1  1.00067396  0.66907589  1.00127316  1
  Fe  Fe7  1  0.16984626  0.83731207  0.16853584  1
  Fe  Fe8  1  1.00197746  0.66999578  0.33610419  1
  Ni  Ni9  1  0.33596542  0.00359817  0.00371134  1
  Ni  Ni10  1  0.50170066  0.16725402  0.16940523  1
  Fe  Fe11  1  0.33821608  0.00278280  0.33320694  1
  Fe  Fe12  1  0.33553534  0.33344448  1.00229106  1
  Fe  Fe13  1  0.50375388  0.50137562  0.16993175  1
  Fe  Fe14  1  0.33821085  0.33512191  0.33582145  1
  Cr  Cr15  1  0.33658040  0.67084496  0.00298231  1
  Ni  Ni16  1  0.50321197  0.83826503  0.16907496  1
  Fe  Fe17  1  0.33671199  0.66901568  0.33559534  1
  Fe  Fe18  1  0.66877429  1.00166905  1.00229109  1
  Fe  Fe19  1  0.83378341  0.16870241  0.16851879  1
  Ni  Ni20  1  0.66852976  0.00405619  0.33536457  1
  Ni  Ni21  1  0.66986917  0.33465284  0.00246501  1
  Cr  Cr22  1  0.83493704  0.50251521  0.16790465  1
  Ni  Ni23  1  0.66679832  0.33400774  0.33647557  1
  Ni  Ni24  1  0.67015754  0.66980279  0.00244643  1
  Fe  Fe25  1  0.83410567  0.83623839  0.16824402  1
  Fe  Fe26  1  0.66823084  0.67000872  0.33530092  1
  Cr  Cr27  1  0.16951517  0.17009388  0.50315494  1
  Fe  Fe28  1  0.99934902  1.00206682  0.66853723  1
  Fe  Fe29  1  0.16894035  0.17029705  0.83561637  1
  Fe  Fe30  1  0.17022473  0.50401634  0.50283483  1
  Ni  Ni31  1  0.00449127  0.33586038  0.66996560  1
  Ni  Ni32  1  0.16600057  0.49862380  0.83386845  1
  Fe  Fe33  1  0.16813634  0.83302591  0.50290449  1
  Fe  Fe34  1  1.00107061  0.66909132  0.66952646  1
  Cr  Cr35  1  0.16836646  0.83621530  0.83469286  1
  Fe  Fe36  1  0.50422983  0.16962451  0.50085558  1
  Fe  Fe37  1  0.33712676  0.00299425  0.67038370  1
  Fe  Fe38  1  0.50155269  0.16598597  0.83696413  1
  Ni  Ni39  1  0.50078127  0.50167374  0.50009885  1
  Fe  Fe40  1  0.33465288  0.33620132  0.66880668  1
  Cr  Cr41  1  0.50264537  0.50303494  0.83724810  1
  Cr  Cr42  1  0.50414670  0.83616375  0.50354647  1
  Fe  Fe43  1  0.33583990  0.66772815  0.66851337  1
  Ni  Ni44  1  0.50569892  0.83817579  0.83478387  1
  Fe  Fe45  1  0.83334470  0.16753487  0.50222735  1
  Ni  Ni46  1  0.66929692  1.00086089  0.66932294  1
  Fe  Fe47  1  0.83643061  0.16845937  0.83617103  1
  Cr  Cr48  1  0.83581895  0.50322279  0.50192232  1
  Cr  Cr49  1  0.66952573  0.33430550  0.66829232  1
  Fe  Fe50  1  0.83793709  0.50402612  0.83697303  1
  Ni  Ni51  1  0.83554018  0.83602961  0.50298308  1
  Ni  Ni52  1  0.66884274  0.67201921  0.66963860  1
  Ni  Ni53  1  0.83338627  0.83557393  0.83589870  1
" 