1539,Ni31Fe67Cr1_11,-235.073831094041, 201.374867856265,Ni31Fe67Cr1,"# generated using pymatgen
 data_Cr(Fe9Ni4)2
_symmetry_space_group_name_H-M   'P 1'
_cell_length_a   7.40330677
_cell_length_b   7.40330677
_cell_length_c   10.46985684
_cell_angle_alpha   90.00000000
_cell_angle_beta   90.00000000
_cell_angle_gamma   90.00000000
_symmetry_Int_Tables_number   1
_chemical_formula_structural   Cr(Fe9Ni4)2
_chemical_formula_sum   'Cr2 Fe36 Ni16'
_cell_volume   573.84187119
_cell_formula_units_Z   2
loop_
 _symmetry_equiv_pos_site_id
 _symmetry_equiv_pos_as_xyz
  1  'x, y, z'
loop_
 _atom_site_type_symbol
 _atom_site_label
 _atom_site_symmetry_multiplicity
 _atom_site_fract_x
 _atom_site_fract_y
 _atom_site_fract_z
 _atom_site_occupancy
  Fe  Fe0  1  1.00289257  0.00521953  0.00577905  1
  Ni  Ni1  1  0.17123440  0.17132355  0.17229183  1
  Ni  Ni2  1  0.00564221  0.00447505  0.33623502  1
  Ni  Ni3  1  1.00256874  0.33759325  1.00416931  1
  Cr  Cr4  1  0.17138493  0.50468735  0.17144156  1
  Fe  Fe5  1  1.00352803  0.33717373  0.33854370  1
  Fe  Fe6  1  1.00334355  0.67203195  1.00401833  1
  Ni  Ni7  1  0.16857678  0.83758314  0.17226249  1
  Ni  Ni8  1  1.00141803  0.67075041  0.33757821  1
  Cr  Cr9  1  0.33746882  1.00397951  0.00526267  1
  Ni  Ni10  1  0.50534359  0.17197615  0.17201607  1
  Ni  Ni11  1  0.33782115  0.00521279  0.33762468  1
  Fe  Fe12  1  0.33788423  0.33772968  1.00370455  1
  Ni  Ni13  1  0.50504670  0.50323157  0.17081389  1
  Fe  Fe14  1  0.33818320  0.33752963  0.33901656  1
  Fe  Fe15  1  0.33815978  0.66976413  1.00266827  1
  Fe  Fe16  1  0.50382283  0.83661838  0.17192314  1
  Fe  Fe17  1  0.33749232  0.67295086  0.33914089  1
  Fe  Fe18  1  0.67288661  0.00495860  1.00414534  1
  Fe  Fe19  1  0.83843296  0.17113435  0.17093905  1
  Fe  Fe20  1  0.67191867  1.00245208  0.33736349  1
  Fe  Fe21  1  0.67082007  0.33746952  1.00422221  1
  Fe  Fe22  1  0.83644297  0.50445249  0.17011470  1
  Fe  Fe23  1  0.67144788  0.33713578  0.33748021  1
  Fe  Fe24  1  0.67127339  0.67059254  0.00462427  1
  Ni  Ni25  1  0.83727730  0.83819328  0.17026016  1
  Ni  Ni26  1  0.67156577  0.66901054  0.33689255  1
  Fe  Fe27  1  0.17156310  0.17121210  0.50400684  1
  Fe  Fe28  1  0.00613350  1.00419357  0.66998017  1
  Fe  Fe29  1  0.16981236  0.17183631  0.83763144  1
  Ni  Ni30  1  0.17101347  0.50395723  0.50498991  1
  Fe  Fe31  1  0.00636302  0.33812235  0.67184417  1
  Fe  Fe32  1  0.17106807  0.50478764  0.83700717  1
  Fe  Fe33  1  0.17120514  0.83735636  0.50325746  1
  Fe  Fe34  1  0.00623120  0.67053242  0.67001873  1
  Fe  Fe35  1  0.17048790  0.83615151  0.83671723  1
  Fe  Fe36  1  0.50282874  0.17135355  0.50415096  1
  Ni  Ni37  1  0.33727215  0.00464626  0.67111251  1
  Fe  Fe38  1  0.50583136  0.17161045  0.83692042  1
  Fe  Fe39  1  0.50318532  0.50438628  0.50391450  1
  Ni  Ni40  1  0.33802331  0.33731006  0.67239846  1
  Fe  Fe41  1  0.50508368  0.50539833  0.83790840  1
  Fe  Fe42  1  0.50339703  0.83707347  0.50512405  1
  Ni  Ni43  1  0.33822209  0.67110936  0.67109650  1
  Ni  Ni44  1  0.50508719  0.83825825  0.83706101  1
  Fe  Fe45  1  0.83880144  0.17106819  0.50441404  1
  Fe  Fe46  1  0.66907195  1.00417900  0.67103470  1
  Fe  Fe47  1  0.83719128  0.17097642  0.83739394  1
  Fe  Fe48  1  0.83804984  0.50452299  0.50500022  1
  Fe  Fe49  1  0.66943350  0.33802288  0.67101129  1
  Ni  Ni50  1  0.83832059  0.50433002  0.83658901  1
  Fe  Fe51  1  0.83842012  0.83716900  0.50249200  1
  Fe  Fe52  1  0.66949680  0.67075611  0.67078052  1
  Fe  Fe53  1  0.83699242  0.83691410  0.83807625  1
" 