1508,Ni31Fe67Cr1_5,-234.91178569603, 204.018175808183,Ni31Fe67Cr1,"# generated using pymatgen
 data_Cr(Fe9Ni4)2
_symmetry_space_group_name_H-M   'P 1'
_cell_length_a   7.40242024
_cell_length_b   7.40242024
_cell_length_c   10.46860310
_cell_angle_alpha   90.00000000
_cell_angle_beta   90.00000000
_cell_angle_gamma   90.00000000
_symmetry_Int_Tables_number   1
_chemical_formula_structural   Cr(Fe9Ni4)2
_chemical_formula_sum   'Cr2 Fe36 Ni16'
_cell_volume   573.63574855
_cell_formula_units_Z   2
loop_
 _symmetry_equiv_pos_site_id
 _symmetry_equiv_pos_as_xyz
  1  'x, y, z'
loop_
 _atom_site_type_symbol
 _atom_site_label
 _atom_site_symmetry_multiplicity
 _atom_site_fract_x
 _atom_site_fract_y
 _atom_site_fract_z
 _atom_site_occupancy
  Fe  Fe0  1  1.00353255  0.00478179  1.00416771  1
  Fe  Fe1  1  0.17073699  0.17214825  0.17035463  1
  Fe  Fe2  1  1.00263208  1.00331975  0.33827047  1
  Fe  Fe3  1  1.00376138  0.33791334  1.00369499  1
  Ni  Ni4  1  0.17010003  0.50447282  0.17228397  1
  Fe  Fe5  1  0.00505752  0.33781640  0.33712774  1
  Fe  Fe6  1  1.00378458  0.67039862  0.00472290  1
  Fe  Fe7  1  0.17039646  0.83687712  0.17096023  1
  Ni  Ni8  1  0.00459431  0.67081309  0.33727233  1
  Fe  Fe9  1  0.33899677  0.00478181  1.00425743  1
  Ni  Ni10  1  0.50576956  0.17087677  0.17031537  1
  Cr  Cr11  1  0.33814143  1.00434801  0.33785041  1
  Fe  Fe12  1  0.33829958  0.33744800  0.00484045  1
  Fe  Fe13  1  0.50429574  0.50379204  0.17163190  1
  Fe  Fe14  1  0.33788673  0.34028461  0.33734315  1
  Fe  Fe15  1  0.33827622  0.67086717  1.00413837  1
  Fe  Fe16  1  0.50506015  0.83704631  0.17016006  1
  Fe  Fe17  1  0.33763171  0.66946887  0.33810254  1
  Ni  Ni18  1  0.67015694  0.00490568  0.00496544  1
  Fe  Fe19  1  0.83736440  0.17138651  0.17064701  1
  Fe  Fe20  1  0.67264270  1.00357256  0.33753277  1
  Ni  Ni21  1  0.67100206  0.33765168  1.00425022  1
  Fe  Fe22  1  0.83753314  0.50413143  0.17104403  1
  Fe  Fe23  1  0.67015348  0.33762923  0.33647659  1
  Fe  Fe24  1  0.67103204  0.67109759  1.00433730  1
  Fe  Fe25  1  0.83763879  0.83757756  0.17133784  1
  Ni  Ni26  1  0.67095701  0.67110703  0.33629115  1
  Fe  Fe27  1  0.17076173  0.17132794  0.50573502  1
  Ni  Ni28  1  0.00482160  0.00467697  0.67042205  1
  Fe  Fe29  1  0.17078442  0.17128022  0.83700678  1
  Fe  Fe30  1  0.17301319  0.50509524  0.50421046  1
  Ni  Ni31  1  0.00535419  0.33765442  0.67196548  1
  Ni  Ni32  1  0.16922504  0.50388327  0.83664703  1
  Ni  Ni33  1  0.17093803  0.83780551  0.50532938  1
  Fe  Fe34  1  0.00534872  0.67235128  0.67167199  1
  Fe  Fe35  1  0.17099518  0.83721552  0.83697136  1
  Fe  Fe36  1  0.50480395  0.17122200  0.50493491  1
  Ni  Ni37  1  0.33802917  1.00395109  0.67175920  1
  Fe  Fe38  1  0.50474343  0.17111087  0.83837498  1
  Ni  Ni39  1  0.50334346  0.50465970  0.50416064  1
  Fe  Fe40  1  0.33719607  0.33679551  0.67091205  1
  Fe  Fe41  1  0.50458194  0.50462490  0.83750243  1
  Ni  Ni42  1  0.50428191  0.83769307  0.50446464  1
  Fe  Fe43  1  0.33747236  0.67208255  0.67085702  1
  Ni  Ni44  1  0.50447897  0.83924093  0.83792403  1
  Fe  Fe45  1  0.83753241  0.16892508  0.50496551  1
  Ni  Ni46  1  0.67024374  1.00395034  0.67008467  1
  Fe  Fe47  1  0.83756739  0.17130606  0.83748054  1
  Cr  Cr48  1  0.83801888  0.50400302  0.50442649  1
  Fe  Fe49  1  0.67080248  0.33606227  0.67213010  1
  Ni  Ni50  1  0.83885742  0.50357405  0.83836391  1
  Fe  Fe51  1  0.83727793  0.83877898  0.50407748  1
  Fe  Fe52  1  0.67027438  0.67256255  0.67129611  1
  Fe  Fe53  1  0.83754314  0.83737806  0.83767420  1
" 