1042,Ni31Cr69_6,-227.294701577884, 139.117434403183,Ni31Cr69,"# generated using pymatgen
 data_Cr8Ni19
_symmetry_space_group_name_H-M   'P 1'
_cell_length_a   7.49043872
_cell_length_b   7.49043872
_cell_length_c   10.59308002
_cell_angle_alpha   90.00000000
_cell_angle_beta   90.00000000
_cell_angle_gamma   90.00000000
_symmetry_Int_Tables_number   1
_chemical_formula_structural   Cr8Ni19
_chemical_formula_sum   'Cr16 Ni38'
_cell_volume   594.34246785
_cell_formula_units_Z   2
loop_
 _symmetry_equiv_pos_site_id
 _symmetry_equiv_pos_as_xyz
  1  'x, y, z'
loop_
 _atom_site_type_symbol
 _atom_site_label
 _atom_site_symmetry_multiplicity
 _atom_site_fract_x
 _atom_site_fract_y
 _atom_site_fract_z
 _atom_site_occupancy
  Cr  Cr0  1  -0.00037392  -0.00037899  0.99696925  1
  Cr  Cr1  1  0.16586807  0.16716864  0.16335813  1
  Cr  Cr2  1  0.99615905  0.99789232  0.33296641  1
  Ni  Ni3  1  0.99718161  0.33399778  0.99794563  1
  Ni  Ni4  1  0.16519193  0.50038752  0.16536354  1
  Cr  Cr5  1  0.99711456  0.33398453  0.33062895  1
  Ni  Ni6  1  -0.00046383  0.66214501  0.99765010  1
  Ni  Ni7  1  0.16657349  0.82739771  0.16539332  1
  Ni  Ni8  1  0.00139273  0.66403628  0.33257019  1
  Ni  Ni9  1  0.33337793  0.99834777  0.99653166  1
  Cr  Cr10  1  0.49956724  0.16504749  0.16337122  1
  Cr  Cr11  1  0.33313752  0.99561713  0.33230059  1
  Ni  Ni12  1  0.33069133  0.33098428  0.99761950  1
  Ni  Ni13  1  0.49626921  0.49812335  0.16557201  1
  Ni  Ni14  1  0.33273176  0.33677695  0.33295753  1
  Cr  Cr15  1  0.33013293  0.66693260  -0.00116370  1
  Ni  Ni16  1  0.49699977  0.83184552  0.16509406  1
  Ni  Ni17  1  0.33029736  0.66366227  0.33159899  1
  Ni  Ni18  1  0.66336251  0.00052370  0.99690608  1
  Ni  Ni19  1  0.82936258  0.16664730  0.16338108  1
  Ni  Ni20  1  0.66477469  0.99836556  0.33368595  1
  Ni  Ni21  1  0.66739020  0.33001807  -0.00120256  1
  Ni  Ni22  1  0.83397954  0.49734623  0.16265875  1
  Cr  Cr23  1  0.66588344  0.33122498  0.33252426  1
  Cr  Cr24  1  0.66615579  0.66409281  0.99784189  1
  Cr  Cr25  1  0.83172805  0.83183362  0.16552122  1
  Cr  Cr26  1  0.66362655  0.66437219  0.33256271  1
  Cr  Cr27  1  0.16550349  0.16754678  0.50032668  1
  Ni  Ni28  1  0.99588781  0.99812062  0.66560608  1
  Ni  Ni29  1  0.16531796  0.16711126  0.83198004  1
  Ni  Ni30  1  0.16522349  0.50040754  0.49810234  1
  Ni  Ni31  1  0.99708767  0.33225763  0.66619908  1
  Ni  Ni32  1  0.16132534  0.49641962  0.83172239  1
  Ni  Ni33  1  0.16271438  0.82767764  0.49792041  1
  Ni  Ni34  1  0.99835098  0.66484081  0.66513883  1
  Ni  Ni35  1  0.16242755  0.83174060  0.83203063  1
  Ni  Ni36  1  0.50126556  0.16623741  0.49948176  1
  Cr  Cr37  1  0.33194012  0.99836914  0.66732158  1
  Ni  Ni38  1  0.49923074  0.16425059  0.83266345  1
  Ni  Ni39  1  0.49638875  0.49633963  0.49791498  1
  Ni  Ni40  1  0.33159478  0.33158467  0.66470688  1
  Cr  Cr41  1  0.49854849  0.49407422  0.83139861  1
  Ni  Ni42  1  0.49994359  0.83281288  0.49687232  1
  Cr  Cr43  1  0.33018744  0.66503645  0.66439895  1
  Ni  Ni44  1  0.49997342  0.83708781  0.83342163  1
  Ni  Ni45  1  0.82857799  0.16366585  0.50080756  1
  Ni  Ni46  1  0.66693636  0.00049478  0.66469189  1
  Ni  Ni47  1  0.83073326  0.16563381  0.83109959  1
  Ni  Ni48  1  0.83379389  0.49899535  0.50041724  1
  Ni  Ni49  1  0.66665289  0.32915246  0.66400328  1
  Ni  Ni50  1  0.83585804  0.49692773  0.83214169  1
  Ni  Ni51  1  0.83260046  0.83246893  0.49936908  1
  Cr  Cr52  1  0.66651795  0.66528056  0.66485653  1
  Ni  Ni53  1  0.83299003  0.83275713  0.83048427  1
" 