8502,Ni31Fe60Cr8_19,-234.260094321019, 202.714683880479,Ni31Fe60Cr8,"# generated using pymatgen
 data_Cr5Fe32Ni17
_symmetry_space_group_name_H-M   'P 1'
_cell_length_a   7.41758431
_cell_length_b   7.41758431
_cell_length_c   10.49004833
_cell_angle_alpha   90.00000000
_cell_angle_beta   90.00000000
_cell_angle_gamma   90.00000000
_symmetry_Int_Tables_number   1
_chemical_formula_structural   Cr5Fe32Ni17
_chemical_formula_sum   'Cr5 Fe32 Ni17'
_cell_volume   577.16830271
_cell_formula_units_Z   1
loop_
 _symmetry_equiv_pos_site_id
 _symmetry_equiv_pos_as_xyz
  1  'x, y, z'
loop_
 _atom_site_type_symbol
 _atom_site_label
 _atom_site_symmetry_multiplicity
 _atom_site_fract_x
 _atom_site_fract_y
 _atom_site_fract_z
 _atom_site_occupancy
  Ni  Ni0  1  0.00430186  0.00364048  0.00358731  1
  Fe  Fe1  1  0.16980310  0.16923654  0.17123115  1
  Fe  Fe2  1  1.00021906  1.00235769  0.33665611  1
  Cr  Cr3  1  0.00396190  0.33554156  1.00316164  1
  Ni  Ni4  1  0.17211936  0.50441014  0.17118741  1
  Ni  Ni5  1  0.00514805  0.33592996  0.33618409  1
  Cr  Cr6  1  1.00068624  0.67127772  0.00492123  1
  Fe  Fe7  1  0.17020937  0.83929120  0.17168761  1
  Fe  Fe8  1  1.00151586  0.67131014  0.33694290  1
  Fe  Fe9  1  0.33599762  0.00338284  0.00438502  1
  Ni  Ni10  1  0.50395634  0.17056617  0.16835394  1
  Fe  Fe11  1  0.33804530  0.00370860  0.33750725  1
  Fe  Fe12  1  0.33847698  0.33729393  0.00368395  1
  Fe  Fe13  1  0.50521423  0.50331523  0.17021402  1
  Fe  Fe14  1  0.33934925  0.33588336  0.33658657  1
  Fe  Fe15  1  0.33625957  0.66957249  0.00477064  1
  Fe  Fe16  1  0.50432348  0.83711658  0.16980357  1
  Fe  Fe17  1  0.33683456  0.67064313  0.33685612  1
  Fe  Fe18  1  0.67254421  1.00330927  0.00450662  1
  Ni  Ni19  1  0.83510206  0.16870967  0.17057481  1
  Ni  Ni20  1  0.66841841  1.00173882  0.33612267  1
  Fe  Fe21  1  0.66994842  0.33657158  1.00272810  1
  Fe  Fe22  1  0.83488389  0.50232934  0.17247946  1
  Fe  Fe23  1  0.67081832  0.33488250  0.33738413  1
  Ni  Ni24  1  0.66806162  0.67069720  0.00480701  1
  Ni  Ni25  1  0.83646856  0.83786283  0.16959317  1
  Ni  Ni26  1  0.66959894  0.67296190  0.33672491  1
  Fe  Fe27  1  0.16864595  0.16616194  0.50086200  1
  Fe  Fe28  1  1.00118300  1.00198782  0.67016727  1
  Fe  Fe29  1  0.17163081  0.16589369  0.83759127  1
  Fe  Fe30  1  0.16864484  0.50446396  0.50063461  1
  Cr  Cr31  1  1.00328616  0.33672103  0.66997327  1
  Fe  Fe32  1  0.17221339  0.50633500  0.83722414  1
  Ni  Ni33  1  0.16959877  0.83449540  0.50442723  1
  Ni  Ni34  1  1.00331573  0.67030852  0.67031466  1
  Fe  Fe35  1  0.16874665  0.83799784  0.83508354  1
  Ni  Ni36  1  0.50516992  0.17035668  0.50402567  1
  Fe  Fe37  1  0.33659631  1.00195104  0.66798036  1
  Fe  Fe38  1  0.50487484  0.17039887  0.83712194  1
  Fe  Fe39  1  0.50612509  0.50514827  0.50267297  1
  Cr  Cr40  1  0.33653623  0.33529474  0.66870382  1
  Fe  Fe41  1  0.50557767  0.50302490  0.83712484  1
  Fe  Fe42  1  0.50499582  0.83820066  0.50339608  1
  Fe  Fe43  1  0.33679576  0.66985162  0.66843836  1
  Cr  Cr44  1  0.50390958  0.83667116  0.83580367  1
  Ni  Ni45  1  0.83444089  0.16908228  0.50306330  1
  Ni  Ni46  1  0.66907665  1.00309785  0.66941370  1
  Fe  Fe47  1  0.83399015  0.16726561  0.83629759  1
  Fe  Fe48  1  0.83553942  0.50427967  0.50256143  1
  Ni  Ni49  1  0.66926194  0.33633673  0.66976701  1
  Fe  Fe50  1  0.83241044  0.50557748  0.83547119  1
  Ni  Ni51  1  0.83756113  0.83722616  0.50474200  1
  Ni  Ni52  1  0.67083598  0.67105253  0.66839797  1
  Fe  Fe53  1  0.83681667  0.83732404  0.83614508  1
" 