975,Ni31Fe50Cr17_16,-231.780163459643, 198.056199173161,Ni31Fe50Cr17,"# generated using pymatgen
 data_Cr10Fe27Ni17
_symmetry_space_group_name_H-M   'P 1'
_cell_length_a   7.44143198
_cell_length_b   7.44143198
_cell_length_c   10.52377403
_cell_angle_alpha   90.00000000
_cell_angle_beta   90.00000000
_cell_angle_gamma   90.00000000
_symmetry_Int_Tables_number   1
_chemical_formula_structural   Cr10Fe27Ni17
_chemical_formula_sum   'Cr10 Fe27 Ni17'
_cell_volume   582.75303904
_cell_formula_units_Z   1
loop_
 _symmetry_equiv_pos_site_id
 _symmetry_equiv_pos_as_xyz
  1  'x, y, z'
loop_
 _atom_site_type_symbol
 _atom_site_label
 _atom_site_symmetry_multiplicity
 _atom_site_fract_x
 _atom_site_fract_y
 _atom_site_fract_z
 _atom_site_occupancy
  Fe  Fe0  1  0.99768299  1.00085644  1.00011219  1
  Cr  Cr1  1  0.16804406  0.16831536  0.16772969  1
  Fe  Fe2  1  0.99879927  0.99930502  0.33543473  1
  Fe  Fe3  1  0.99875176  0.33626588  0.00246353  1
  Ni  Ni4  1  0.16792560  0.49899638  0.17097283  1
  Ni  Ni5  1  0.00186232  0.33758978  0.33546968  1
  Cr  Cr6  1  0.00228553  0.66721218  0.00259563  1
  Fe  Fe7  1  0.16758823  0.83199091  0.17081759  1
  Fe  Fe8  1  1.00138086  0.66966028  0.33429694  1
  Cr  Cr9  1  0.33647554  0.99771671  0.00218084  1
  Fe  Fe10  1  0.50591283  0.16793954  0.16902925  1
  Fe  Fe11  1  0.33667877  1.00057505  0.33452109  1
  Fe  Fe12  1  0.33549898  0.33588610  1.00080453  1
  Cr  Cr13  1  0.50281467  0.50200185  0.16480539  1
  Fe  Fe14  1  0.33725095  0.33652800  0.33632388  1
  Cr  Cr15  1  0.33362110  0.66871227  0.99968315  1
  Ni  Ni16  1  0.50460745  0.83660467  0.16921813  1
  Fe  Fe17  1  0.33410638  0.66861952  0.33522502  1
  Ni  Ni18  1  0.66950609  0.00334019  1.00143652  1
  Fe  Fe19  1  0.83316205  0.16924131  0.16991702  1
  Ni  Ni20  1  0.66667279  0.00223094  0.33568409  1
  Ni  Ni21  1  0.67234114  0.33440647  0.00172224  1
  Ni  Ni22  1  0.83610208  0.50218566  0.16992652  1
  Fe  Fe23  1  0.66874052  0.33457459  0.33511911  1
  Fe  Fe24  1  0.67004586  0.67073564  1.00115384  1
  Ni  Ni25  1  0.83341551  0.83706220  0.16771272  1
  Cr  Cr26  1  0.66870272  0.66904060  0.33512981  1
  Cr  Cr27  1  0.16890206  0.16761889  0.50320080  1
  Ni  Ni28  1  1.00068334  0.99938405  0.67053094  1
  Cr  Cr29  1  0.16650883  0.16919154  0.83472177  1
  Fe  Fe30  1  0.16805528  0.50361214  0.50121018  1
  Fe  Fe31  1  0.99989319  0.33750470  0.66830701  1
  Ni  Ni32  1  0.16742918  0.50027581  0.83348133  1
  Fe  Fe33  1  0.16820976  0.83381817  0.50349577  1
  Fe  Fe34  1  1.00082047  0.66900769  0.66993126  1
  Ni  Ni35  1  0.16692009  0.83488306  0.83304406  1
  Ni  Ni36  1  0.50094813  0.16964982  0.50028639  1
  Fe  Fe37  1  0.33614987  0.99869026  0.66821839  1
  Cr  Cr38  1  0.50166060  0.16889951  0.83437384  1
  Ni  Ni39  1  0.50099600  0.50202379  0.50360887  1
  Fe  Fe40  1  0.33568429  0.33733319  0.66704392  1
  Fe  Fe41  1  0.50347803  0.50414385  0.83379119  1
  Fe  Fe42  1  0.50229946  0.83670013  0.50210741  1
  Fe  Fe43  1  0.33417493  0.66888970  0.66949650  1
  Ni  Ni44  1  0.50517741  0.83407138  0.83292405  1
  Cr  Cr45  1  0.83488888  0.16587715  0.50219269  1
  Fe  Fe46  1  0.66881753  0.99958063  0.66736747  1
  Fe  Fe47  1  0.83469975  0.16766154  0.83440023  1
  Fe  Fe48  1  0.83457335  0.50139704  0.50226282  1
  Fe  Fe49  1  0.66872127  0.33596804  0.66828487  1
  Ni  Ni50  1  0.83411513  0.50274114  0.83425246  1
  Ni  Ni51  1  0.83608130  0.83299771  0.50262501  1
  Fe  Fe52  1  0.66996557  0.66901617  0.66717602  1
  Ni  Ni53  1  0.83311233  0.83441145  0.83512085  1
" 