528,Ni31Fe60Cr8_0,-234.377710844593, 201.898445287175,Ni31Fe60Cr8,"# generated using pymatgen
 data_Cr5Fe32Ni17
_symmetry_space_group_name_H-M   'P 1'
_cell_length_a   7.41567026
_cell_length_b   7.41567026
_cell_length_c   10.48734146
_cell_angle_alpha   90.00000000
_cell_angle_beta   90.00000000
_cell_angle_gamma   90.00000000
_symmetry_Int_Tables_number   1
_chemical_formula_structural   Cr5Fe32Ni17
_chemical_formula_sum   'Cr5 Fe32 Ni17'
_cell_volume   576.72161716
_cell_formula_units_Z   1
loop_
 _symmetry_equiv_pos_site_id
 _symmetry_equiv_pos_as_xyz
  1  'x, y, z'
loop_
 _atom_site_type_symbol
 _atom_site_label
 _atom_site_symmetry_multiplicity
 _atom_site_fract_x
 _atom_site_fract_y
 _atom_site_fract_z
 _atom_site_occupancy
  Fe  Fe0  1  1.00332814  0.00438753  1.00324845  1
  Ni  Ni1  1  0.17034273  0.16878931  0.17196082  1
  Fe  Fe2  1  0.00382593  0.00377474  0.33502724  1
  Ni  Ni3  1  1.00174262  0.33623153  0.00459831  1
  Ni  Ni4  1  0.16809792  0.50401808  0.17143313  1
  Fe  Fe5  1  0.00495126  0.33848249  0.33532221  1
  Ni  Ni6  1  1.00190502  0.67071164  1.00258153  1
  Fe  Fe7  1  0.16910632  0.83651791  0.17149597  1
  Ni  Ni8  1  1.00250700  0.67032812  0.33681438  1
  Fe  Fe9  1  0.33633627  0.00410718  0.00348569  1
  Ni  Ni10  1  0.50357593  0.16941219  0.17000443  1
  Fe  Fe11  1  0.33761951  0.00490587  0.33595755  1
  Cr  Cr12  1  0.33647204  0.33569851  1.00205026  1
  Ni  Ni13  1  0.50559204  0.50326955  0.17130561  1
  Ni  Ni14  1  0.33735618  0.33590871  0.33816759  1
  Cr  Cr15  1  0.33612160  0.67047251  0.00533672  1
  Fe  Fe16  1  0.50414573  0.83689369  0.17070139  1
  Fe  Fe17  1  0.33707657  0.66818898  0.33574594  1
  Fe  Fe18  1  0.67081365  0.00378288  0.00361929  1
  Fe  Fe19  1  0.83667069  0.17212311  0.16960958  1
  Fe  Fe20  1  0.66878297  1.00317472  0.33617973  1
  Ni  Ni21  1  0.67204492  0.33610100  0.00426756  1
  Ni  Ni22  1  0.83672358  0.50465808  0.16965391  1
  Fe  Fe23  1  0.66874575  0.33790827  0.33570156  1
  Ni  Ni24  1  0.67168699  0.67063402  1.00325709  1
  Fe  Fe25  1  0.83710662  0.83573934  0.17019116  1
  Fe  Fe26  1  0.67024747  0.66933039  0.33592239  1
  Fe  Fe27  1  0.17210062  0.17202050  0.50357889  1
  Fe  Fe28  1  1.00272415  0.00464294  0.67195089  1
  Ni  Ni29  1  0.16932317  0.16839143  0.83434328  1
  Fe  Fe30  1  0.16923652  0.50025156  0.50186970  1
  Ni  Ni31  1  1.00338033  0.33631870  0.66989600  1
  Fe  Fe32  1  0.16563988  0.50129668  0.83669754  1
  Cr  Cr33  1  0.16934095  0.83739618  0.50267253  1
  Fe  Fe34  1  1.00025906  0.66804355  0.67064948  1
  Fe  Fe35  1  0.16721313  0.83848147  0.83664224  1
  Ni  Ni36  1  0.50266882  0.17018196  0.50463025  1
  Fe  Fe37  1  0.33772556  0.00708903  0.67093217  1
  Fe  Fe38  1  0.50564483  0.17014637  0.83584243  1
  Fe  Fe39  1  0.50449485  0.50167473  0.50234553  1
  Fe  Fe40  1  0.33680174  0.33488391  0.66959709  1
  Fe  Fe41  1  0.50718291  0.50151356  0.83693017  1
  Fe  Fe42  1  0.50616588  0.83838919  0.50290757  1
  Cr  Cr43  1  0.33719103  0.66935744  0.67108118  1
  Fe  Fe44  1  0.50583886  0.83878190  0.83714539  1
  Cr  Cr45  1  0.83649212  0.17133446  0.50264076  1
  Fe  Fe46  1  0.66989043  0.00389239  0.67074736  1
  Ni  Ni47  1  0.83729933  0.17158162  0.83798175  1
  Fe  Fe48  1  0.83661683  0.50474575  0.50386205  1
  Ni  Ni49  1  0.67035182  0.33605123  0.67071490  1
  Ni  Ni50  1  0.83620695  0.50332214  0.83679211  1
  Fe  Fe51  1  0.83459913  0.83568417  0.50291693  1
  Fe  Fe52  1  0.67245068  0.66880646  0.67087694  1
  Fe  Fe53  1  0.83729670  0.83723211  0.83717708  1
" 