3360,Ni31Fe60Cr8_1,-233.985136686865, 201.0252986531,Ni31Fe60Cr8,"# generated using pymatgen
 data_Cr5Fe32Ni17
_symmetry_space_group_name_H-M   'P 1'
_cell_length_a   7.41652991
_cell_length_b   7.41652991
_cell_length_c   10.48855719
_cell_angle_alpha   90.00000000
_cell_angle_beta   90.00000000
_cell_angle_gamma   90.00000000
_symmetry_Int_Tables_number   1
_chemical_formula_structural   Cr5Fe32Ni17
_chemical_formula_sum   'Cr5 Fe32 Ni17'
_cell_volume   576.92220664
_cell_formula_units_Z   1
loop_
 _symmetry_equiv_pos_site_id
 _symmetry_equiv_pos_as_xyz
  1  'x, y, z'
loop_
 _atom_site_type_symbol
 _atom_site_label
 _atom_site_symmetry_multiplicity
 _atom_site_fract_x
 _atom_site_fract_y
 _atom_site_fract_z
 _atom_site_occupancy
  Fe  Fe0  1  1.00207287  1.00297865  1.00310514  1
  Cr  Cr1  1  0.17081525  0.16960336  0.16924472  1
  Fe  Fe2  1  1.00258585  1.00305490  0.33653811  1
  Fe  Fe3  1  1.00173473  0.33623536  1.00165578  1
  Cr  Cr4  1  0.17091794  0.50418182  0.17042274  1
  Fe  Fe5  1  1.00092799  0.33683893  0.33869283  1
  Fe  Fe6  1  1.00215260  0.67100335  1.00251075  1
  Ni  Ni7  1  0.16903903  0.83656197  0.16966813  1
  Fe  Fe8  1  1.00283359  0.67032589  0.33672494  1
  Fe  Fe9  1  0.33735112  1.00272995  1.00326275  1
  Fe  Fe10  1  0.50488949  0.16981235  0.16925883  1
  Fe  Fe11  1  0.33791549  1.00197387  0.33804253  1
  Ni  Ni12  1  0.33746361  0.33717102  1.00321585  1
  Fe  Fe13  1  0.50494364  0.50358110  0.17047021  1
  Fe  Fe14  1  0.33913906  0.33747625  0.33807281  1
  Fe  Fe15  1  0.33808590  0.67043670  1.00301938  1
  Fe  Fe16  1  0.50343403  0.83682344  0.17049434  1
  Fe  Fe17  1  0.33830897  0.67076378  0.33779611  1
  Ni  Ni18  1  0.67106028  1.00252060  0.00481868  1
  Fe  Fe19  1  0.83539487  0.16959185  0.17035006  1
  Fe  Fe20  1  0.66971322  0.00388373  0.33572406  1
  Ni  Ni21  1  0.67030082  0.33721839  0.00479544  1
  Fe  Fe22  1  0.83548357  0.50394469  0.17035899  1
  Ni  Ni23  1  0.67032548  0.33758713  0.33646452  1
  Fe  Fe24  1  0.66998171  0.67009640  0.00365492  1
  Ni  Ni25  1  0.83643073  0.83684017  0.17010582  1
  Ni  Ni26  1  0.66983671  0.66902717  0.33491393  1
  Fe  Fe27  1  0.17061493  0.16965804  0.50384481  1
  Fe  Fe28  1  0.00417571  0.00463671  0.67057366  1
  Fe  Fe29  1  0.16882411  0.17014373  0.83658371  1
  Fe  Fe30  1  0.17004076  0.50378427  0.50390241  1
  Ni  Ni31  1  0.00349961  0.33689064  0.66999880  1
  Fe  Fe32  1  0.16971312  0.50323819  0.83661592  1
  Ni  Ni33  1  0.17142488  0.83618813  0.50353266  1
  Ni  Ni34  1  0.00508955  0.66975860  0.67010973  1
  Fe  Fe35  1  0.16975828  0.83683404  0.83632908  1
  Fe  Fe36  1  0.50351536  0.16982645  0.50399089  1
  Ni  Ni37  1  0.33539164  1.00277362  0.66917413  1
  Cr  Cr38  1  0.50355418  0.17145218  0.83562797  1
  Ni  Ni39  1  0.50193911  0.50183885  0.50326975  1
  Ni  Ni40  1  0.33568538  0.33595984  0.66870603  1
  Fe  Fe41  1  0.50312093  0.50362147  0.83719131  1
  Ni  Ni42  1  0.50112324  0.83669822  0.50342390  1
  Fe  Fe43  1  0.33514362  0.66944769  0.66940087  1
  Fe  Fe44  1  0.50321985  0.83659917  0.83702920  1
  Ni  Ni45  1  0.83635594  0.17169718  0.50431201  1
  Fe  Fe46  1  0.67034366  0.00539153  0.67046743  1
  Fe  Fe47  1  0.83762061  0.17004706  0.83635099  1
  Fe  Fe48  1  0.83682433  0.50154801  0.50284616  1
  Ni  Ni49  1  0.67103036  0.33638922  0.66895802  1
  Fe  Fe50  1  0.83738472  0.50268589  0.83700943  1
  Cr  Cr51  1  0.83734012  0.83792923  0.50329723  1
  Cr  Cr52  1  0.67021823  0.66933234  0.67080047  1
  Ni  Ni53  1  0.83781969  0.83727740  0.83718159  1
" 