7220,Ni31Cr69_13,-227.582559676744, 145.591203836562,Ni31Cr69,"# generated using pymatgen
 data_Cr8Ni19
_symmetry_space_group_name_H-M   'P 1'
_cell_length_a   7.48775860
_cell_length_b   7.48775860
_cell_length_c   10.58928977
_cell_angle_alpha   90.00000000
_cell_angle_beta   90.00000000
_cell_angle_gamma   90.00000000
_symmetry_Int_Tables_number   1
_chemical_formula_structural   Cr8Ni19
_chemical_formula_sum   'Cr16 Ni38'
_cell_volume   593.70472089
_cell_formula_units_Z   2
loop_
 _symmetry_equiv_pos_site_id
 _symmetry_equiv_pos_as_xyz
  1  'x, y, z'
loop_
 _atom_site_type_symbol
 _atom_site_label
 _atom_site_symmetry_multiplicity
 _atom_site_fract_x
 _atom_site_fract_y
 _atom_site_fract_z
 _atom_site_occupancy
  Cr  Cr0  1  0.00026291  0.99554392  -0.00044749  1
  Ni  Ni1  1  0.16366286  0.16538207  0.16522642  1
  Ni  Ni2  1  0.00056921  0.99830463  0.33044866  1
  Ni  Ni3  1  0.00076439  0.33276836  -0.00113604  1
  Ni  Ni4  1  0.16319335  0.49870820  0.16494605  1
  Ni  Ni5  1  -0.00042583  0.33091661  0.33124394  1
  Ni  Ni6  1  -0.00038032  0.66474021  0.99782337  1
  Ni  Ni7  1  0.16386739  0.83179280  0.16721863  1
  Ni  Ni8  1  -0.00054422  0.66661620  0.33069499  1
  Ni  Ni9  1  0.32953012  0.00021787  0.99668831  1
  Cr  Cr10  1  0.49760704  0.16437014  0.16324386  1
  Ni  Ni11  1  0.32855356  0.99834794  0.33268416  1
  Ni  Ni12  1  0.32956869  0.33076114  0.99695360  1
  Cr  Cr13  1  0.49583152  0.49916872  0.16508275  1
  Cr  Cr14  1  0.32968902  0.33138987  0.33392438  1
  Cr  Cr15  1  0.32854448  0.66607571  0.99662438  1
  Cr  Cr16  1  0.49679278  0.83246454  0.16831222  1
  Ni  Ni17  1  0.32945711  0.66661785  0.33228500  1
  Cr  Cr18  1  0.66653751  0.99762717  0.99808522  1
  Ni  Ni19  1  0.83481887  0.16481440  0.16624639  1
  Ni  Ni20  1  0.66684403  0.99802107  0.33075911  1
  Ni  Ni21  1  0.66543498  0.33205142  0.99639319  1
  Cr  Cr22  1  0.83463686  0.49793734  0.16490568  1
  Cr  Cr23  1  0.66608670  0.33187919  0.33465211  1
  Cr  Cr24  1  0.66860149  0.66618438  0.99597326  1
  Ni  Ni25  1  0.83483358  0.83229995  0.16809231  1
  Ni  Ni26  1  0.66690851  0.66599275  0.33302449  1
  Ni  Ni27  1  0.16469178  0.16208352  0.49867686  1
  Ni  Ni28  1  0.00160045  0.99736061  0.66600127  1
  Ni  Ni29  1  0.16668589  0.16548366  0.83188136  1
  Cr  Cr30  1  0.16209929  0.50194679  0.49856314  1
  Ni  Ni31  1  0.99846266  0.33289347  0.66569486  1
  Ni  Ni32  1  0.16342037  0.49855216  0.83260924  1
  Ni  Ni33  1  0.16547413  0.83343651  0.49862636  1
  Ni  Ni34  1  -0.00135139  0.66559006  0.66756533  1
  Ni  Ni35  1  0.16542231  0.83174182  0.82982182  1
  Ni  Ni36  1  0.49825678  0.16322393  0.49976198  1
  Ni  Ni37  1  0.33056088  0.99814420  0.66615188  1
  Ni  Ni38  1  0.49708109  0.16514154  0.83206893  1
  Ni  Ni39  1  0.50050341  0.50067224  0.49939314  1
  Cr  Cr40  1  0.33243399  0.33145806  0.66469244  1
  Ni  Ni41  1  0.49892950  0.49779151  0.83113354  1
  Cr  Cr42  1  0.49638738  0.83196576  0.49797589  1
  Ni  Ni43  1  0.33184705  0.66653129  0.66658603  1
  Ni  Ni44  1  0.49726002  0.83303178  0.82944647  1
  Cr  Cr45  1  0.83417214  0.16531933  0.50012454  1
  Ni  Ni46  1  0.66377441  0.99837828  0.66715382  1
  Cr  Cr47  1  0.83325548  0.16741625  0.83019593  1
  Ni  Ni48  1  0.83196452  0.49939982  0.49991934  1
  Ni  Ni49  1  0.66479548  0.33389674  0.66524580  1
  Ni  Ni50  1  0.83347397  0.49905662  0.83078704  1
  Cr  Cr51  1  0.83422199  0.83069275  0.49923057  1
  Ni  Ni52  1  0.66542821  0.66348087  0.66681903  1
  Ni  Ni53  1  0.83322012  0.82963450  0.82924298  1
" 