7633,Ni31Cr69_1,-227.57912658432, 142.614199690216,Ni31Cr69,"# generated using pymatgen
 data_Cr8Ni19
_symmetry_space_group_name_H-M   'P 1'
_cell_length_a   7.48892004
_cell_length_b   7.48892004
_cell_length_c   10.59093228
_cell_angle_alpha   90.00000000
_cell_angle_beta   90.00000000
_cell_angle_gamma   90.00000000
_symmetry_Int_Tables_number   1
_chemical_formula_structural   Cr8Ni19
_chemical_formula_sum   'Cr16 Ni38'
_cell_volume   593.98103373
_cell_formula_units_Z   2
loop_
 _symmetry_equiv_pos_site_id
 _symmetry_equiv_pos_as_xyz
  1  'x, y, z'
loop_
 _atom_site_type_symbol
 _atom_site_label
 _atom_site_symmetry_multiplicity
 _atom_site_fract_x
 _atom_site_fract_y
 _atom_site_fract_z
 _atom_site_occupancy
  Ni  Ni0  1  0.99808032  0.00101951  0.99768155  1
  Ni  Ni1  1  0.16626565  0.16671960  0.16430511  1
  Cr  Cr2  1  0.99760946  0.99850543  0.33207010  1
  Ni  Ni3  1  0.99676536  0.32791726  -0.00122968  1
  Cr  Cr4  1  0.16627420  0.49472771  0.16568090  1
  Ni  Ni5  1  -0.00044248  0.33283265  0.33286279  1
  Cr  Cr6  1  0.99783208  0.66706052  0.99629039  1
  Cr  Cr7  1  0.16618180  0.83435336  0.16404914  1
  Ni  Ni8  1  0.99711192  0.66387778  0.33589044  1
  Ni  Ni9  1  0.33212841  -0.00057553  0.99801833  1
  Ni  Ni10  1  0.49695721  0.16593611  0.16470961  1
  Ni  Ni11  1  0.33400298  0.00110935  0.33262815  1
  Ni  Ni12  1  0.33488264  0.33096797  0.00047013  1
  Ni  Ni13  1  0.49822382  0.49648843  0.16290916  1
  Ni  Ni14  1  0.33183068  0.33017408  0.33131665  1
  Ni  Ni15  1  0.33515210  0.66523092  0.99611986  1
  Cr  Cr16  1  0.50038906  0.83250099  0.16477946  1
  Cr  Cr17  1  0.33236749  0.66403271  0.33454188  1
  Ni  Ni18  1  0.66542748  0.00070305  0.99692784  1
  Ni  Ni19  1  0.83239542  0.16542008  0.16310462  1
  Ni  Ni20  1  0.66370801  -0.00134842  0.33398637  1
  Ni  Ni21  1  0.66395962  0.33096216  0.99742162  1
  Cr  Cr22  1  0.83048594  0.49794188  0.16544586  1
  Cr  Cr23  1  0.66358132  0.33099031  0.33205910  1
  Ni  Ni24  1  0.66234680  0.66394340  0.99617600  1
  Cr  Cr25  1  0.82904041  0.83276947  0.16594539  1
  Ni  Ni26  1  0.66638568  0.66598493  0.33433410  1
  Cr  Cr27  1  0.16540201  0.16771586  0.49696434  1
  Cr  Cr28  1  0.99554259  0.99782297  0.66617354  1
  Cr  Cr29  1  0.16410321  0.16506715  0.83437511  1
  Ni  Ni30  1  0.16387841  0.49942127  0.49729673  1
  Ni  Ni31  1  0.99350244  0.33303322  0.66398269  1
  Cr  Cr32  1  0.16591753  0.49837952  0.83205866  1
  Ni  Ni33  1  0.16632281  0.82880763  0.49772085  1
  Cr  Cr34  1  -0.00140965  0.66528853  0.66404760  1
  Ni  Ni35  1  0.16726660  0.83180637  0.83386216  1
  Ni  Ni36  1  0.50094338  0.16370085  0.49721123  1
  Cr  Cr37  1  0.33460729  0.99509399  0.66496057  1
  Ni  Ni38  1  0.50222341  0.16459264  0.83367191  1
  Ni  Ni39  1  0.49916192  0.50008967  0.49936162  1
  Cr  Cr40  1  0.33546009  0.33440038  0.66379650  1
  Ni  Ni41  1  0.50126392  0.50028814  0.83331029  1
  Ni  Ni42  1  0.50047105  0.83183183  0.49847025  1
  Ni  Ni43  1  0.33422364  0.66593966  0.66459818  1
  Ni  Ni44  1  0.49955697  0.83074391  0.83265800  1
  Ni  Ni45  1  0.82956515  0.16611969  0.49977320  1
  Ni  Ni46  1  0.66543217  -0.00091498  0.66472234  1
  Ni  Ni47  1  0.82955430  0.16592223  0.83271899  1
  Ni  Ni48  1  0.83257271  0.49895135  0.49840741  1
  Ni  Ni49  1  0.66698835  0.33187517  0.66554633  1
  Ni  Ni50  1  0.82846437  0.49692526  0.83177054  1
  Ni  Ni51  1  0.82883851  0.83054877  0.49694301  1
  Ni  Ni52  1  0.66353789  0.66466543  0.66514156  1
  Ni  Ni53  1  0.82880830  0.83278056  0.83310432  1
" 