2606,Ni31Fe60Cr8_17,-234.830566332467, 203.092112959618,Ni31Fe60Cr8,"# generated using pymatgen
 data_Cr5Fe32Ni17
_symmetry_space_group_name_H-M   'P 1'
_cell_length_a   7.42148221
_cell_length_b   7.42148221
_cell_length_c   10.49556079
_cell_angle_alpha   90.00000000
_cell_angle_beta   90.00000000
_cell_angle_gamma   90.00000000
_symmetry_Int_Tables_number   1
_chemical_formula_structural   Cr5Fe32Ni17
_chemical_formula_sum   'Cr5 Fe32 Ni17'
_cell_volume   578.07867565
_cell_formula_units_Z   1
loop_
 _symmetry_equiv_pos_site_id
 _symmetry_equiv_pos_as_xyz
  1  'x, y, z'
loop_
 _atom_site_type_symbol
 _atom_site_label
 _atom_site_symmetry_multiplicity
 _atom_site_fract_x
 _atom_site_fract_y
 _atom_site_fract_z
 _atom_site_occupancy
  Fe  Fe0  1  0.00540682  0.00457877  0.00351523  1
  Fe  Fe1  1  0.17203376  0.16913477  0.17079944  1
  Fe  Fe2  1  1.00225785  1.00253907  0.33670689  1
  Cr  Cr3  1  1.00137253  0.33715611  0.00322625  1
  Fe  Fe4  1  0.17249640  0.50326869  0.17189300  1
  Fe  Fe5  1  1.00155642  0.33678079  0.33646744  1
  Cr  Cr6  1  1.00191099  0.67108484  0.00399960  1
  Fe  Fe7  1  0.17212737  0.83681204  0.17186928  1
  Fe  Fe8  1  1.00216388  0.67032263  0.33762063  1
  Ni  Ni9  1  0.33505108  1.00173649  0.00444700  1
  Fe  Fe10  1  0.50227627  0.17022419  0.17190304  1
  Fe  Fe11  1  0.33816261  1.00293423  0.33685039  1
  Ni  Ni12  1  0.33707948  0.33487179  0.00412603  1
  Ni  Ni13  1  0.50178460  0.50046109  0.16803391  1
  Ni  Ni14  1  0.33492973  0.33678466  0.33741619  1
  Fe  Fe15  1  0.34065751  0.66958475  0.00309766  1
  Fe  Fe16  1  0.50372994  0.83446579  0.17182566  1
  Fe  Fe17  1  0.33956252  0.66862526  0.33813529  1
  Cr  Cr18  1  0.66911652  1.00219690  0.00381615  1
  Fe  Fe19  1  0.83457618  0.16992660  0.17256369  1
  Ni  Ni20  1  0.67016147  1.00206268  0.33843889  1
  Ni  Ni21  1  0.66916264  0.33759217  0.00595685  1
  Fe  Fe22  1  0.83270462  0.50433322  0.17346311  1
  Fe  Fe23  1  0.66715306  0.33787202  0.33744137  1
  Fe  Fe24  1  0.66674924  0.66705833  0.00508515  1
  Ni  Ni25  1  0.83881107  0.83796344  0.17117665  1
  Ni  Ni26  1  0.67077139  0.67149851  0.33732662  1
  Fe  Fe27  1  0.16955735  0.17022197  0.50233615  1
  Fe  Fe28  1  0.00315134  1.00206312  0.66909154  1
  Fe  Fe29  1  0.17006665  0.16720120  0.83617195  1
  Fe  Fe30  1  0.16981859  0.50449094  0.50342509  1
  Fe  Fe31  1  1.00182172  0.33736931  0.66822736  1
  Cr  Cr32  1  0.17422490  0.50331745  0.83381692  1
  Ni  Ni33  1  0.16767160  0.83742998  0.50213233  1
  Ni  Ni34  1  0.00329685  0.67059541  0.66712076  1
  Fe  Fe35  1  0.17242339  0.83860378  0.83379999  1
  Ni  Ni36  1  0.50214076  0.17069839  0.50202295  1
  Fe  Fe37  1  0.33577822  1.00190923  0.66819089  1
  Cr  Cr38  1  0.50172680  0.17400140  0.83669898  1
  Ni  Ni39  1  0.50336316  0.50047153  0.50426580  1
  Fe  Fe40  1  0.33791907  0.33839735  0.66664919  1
  Ni  Ni41  1  0.50494525  0.50310326  0.83714874  1
  Fe  Fe42  1  0.50415378  0.83517269  0.50266216  1
  Ni  Ni43  1  0.33604428  0.67114603  0.66743453  1
  Fe  Fe44  1  0.50067748  0.83306770  0.83539598  1
  Fe  Fe45  1  0.83476730  0.16980658  0.50305108  1
  Fe  Fe46  1  0.67011018  1.00138510  0.66720482  1
  Fe  Fe47  1  0.83654063  0.17178337  0.83399349  1
  Ni  Ni48  1  0.83584064  0.50454401  0.50259539  1
  Ni  Ni49  1  0.67020801  0.33531917  0.66751975  1
  Fe  Fe50  1  0.83184131  0.50264007  0.83290189  1
  Ni  Ni51  1  0.83911320  0.83632848  0.50317960  1
  Fe  Fe52  1  0.66907273  0.66777281  0.66776237  1
  Fe  Fe53  1  0.83572975  0.83506074  0.83376981  1
" 