2542,Ni31Fe50Cr17_17,-231.640345273316, 205.124774573522,Ni31Fe50Cr17,"# generated using pymatgen
 data_Cr10Fe27Ni17
_symmetry_space_group_name_H-M   'P 1'
_cell_length_a   7.43322605
_cell_length_b   7.43322605
_cell_length_c   10.51216909
_cell_angle_alpha   90.00000000
_cell_angle_beta   90.00000000
_cell_angle_gamma   90.00000000
_symmetry_Int_Tables_number   1
_chemical_formula_structural   Cr10Fe27Ni17
_chemical_formula_sum   'Cr10 Fe27 Ni17'
_cell_volume   580.82729585
_cell_formula_units_Z   1
loop_
 _symmetry_equiv_pos_site_id
 _symmetry_equiv_pos_as_xyz
  1  'x, y, z'
loop_
 _atom_site_type_symbol
 _atom_site_label
 _atom_site_symmetry_multiplicity
 _atom_site_fract_x
 _atom_site_fract_y
 _atom_site_fract_z
 _atom_site_occupancy
  Ni  Ni0  1  0.00508297  1.00226124  1.00215844  1
  Ni  Ni1  1  0.16713982  0.16983204  0.16873456  1
  Fe  Fe2  1  0.00524124  0.00283459  0.33560796  1
  Ni  Ni3  1  1.00149896  0.33653711  1.00201566  1
  Fe  Fe4  1  0.16969650  0.50257521  0.16988073  1
  Ni  Ni5  1  0.00328428  0.33546171  0.33363225  1
  Fe  Fe6  1  0.00282650  0.66873880  1.00124787  1
  Ni  Ni7  1  0.16969001  0.83559680  0.16933990  1
  Fe  Fe8  1  0.00553348  0.66924015  0.33501577  1
  Ni  Ni9  1  0.33565189  1.00134984  0.00245426  1
  Fe  Fe10  1  0.50136409  0.16988804  0.16683898  1
  Cr  Cr11  1  0.33418495  1.00219712  0.33550847  1
  Fe  Fe12  1  0.33563686  0.33447476  0.00256327  1
  Ni  Ni13  1  0.50131362  0.50174776  0.16987658  1
  Ni  Ni14  1  0.33511788  0.33648000  0.33527481  1
  Fe  Fe15  1  0.33589208  0.66928049  0.00303196  1
  Ni  Ni16  1  0.49982364  0.83351483  0.16625734  1
  Ni  Ni17  1  0.33522565  0.66822322  0.33562759  1
  Fe  Fe18  1  0.66750881  0.00276229  1.00189877  1
  Fe  Fe19  1  0.83684587  0.17117283  0.16782279  1
  Cr  Cr20  1  0.66780878  0.00319205  0.33517539  1
  Ni  Ni21  1  0.66900878  0.33753690  0.00419522  1
  Fe  Fe22  1  0.83655037  0.49975628  0.16825971  1
  Fe  Fe23  1  0.66659211  0.33629708  0.33353860  1
  Fe  Fe24  1  0.66810696  0.66841009  1.00140480  1
  Cr  Cr25  1  0.83707757  0.83686165  0.16785820  1
  Cr  Cr26  1  0.66748753  0.66738082  0.33611422  1
  Ni  Ni27  1  0.16800330  0.16887130  0.50286246  1
  Ni  Ni28  1  0.00265017  1.00195059  0.66776652  1
  Fe  Fe29  1  0.17009648  0.16866808  0.83665415  1
  Cr  Cr30  1  0.17228528  0.50093622  0.49994109  1
  Fe  Fe31  1  0.00421468  0.33328466  0.66990223  1
  Fe  Fe32  1  0.17021810  0.50171557  0.83611291  1
  Fe  Fe33  1  0.16778035  0.83677053  0.50112213  1
  Cr  Cr34  1  1.00082948  0.67032383  0.67086204  1
  Fe  Fe35  1  0.16947029  0.83644063  0.83766478  1
  Fe  Fe36  1  0.50094094  0.17172592  0.50334717  1
  Cr  Cr37  1  0.33513056  0.00313132  0.66859076  1
  Ni  Ni38  1  0.50170845  0.17017167  0.83634494  1
  Fe  Fe39  1  0.50071703  0.50089916  0.50248435  1
  Fe  Fe40  1  0.33590133  0.33571518  0.66927235  1
  Ni  Ni41  1  0.50129943  0.50286880  0.83385337  1
  Fe  Fe42  1  0.50177702  0.83420134  0.50340069  1
  Fe  Fe43  1  0.33779273  0.66867284  0.66955751  1
  Ni  Ni44  1  0.50364506  0.83378689  0.83671497  1
  Cr  Cr45  1  0.83777003  0.16751918  0.50249474  1
  Fe  Fe46  1  0.66942286  1.00026754  0.66929606  1
  Cr  Cr47  1  0.83660056  0.16734312  0.83535582  1
  Cr  Cr48  1  0.83425569  0.50174178  0.50182416  1
  Fe  Fe49  1  0.66671480  0.33590153  0.67061044  1
  Fe  Fe50  1  0.83334982  0.50296124  0.83657337  1
  Fe  Fe51  1  0.83725688  0.83699860  0.50374128  1
  Fe  Fe52  1  0.66698584  0.67065140  0.67014267  1
  Ni  Ni53  1  0.83484308  0.83572875  0.83502434  1
" 