4567,Ni31Fe60Cr8_10,-233.935558794872, 201.980073593137,Ni31Fe60Cr8,"# generated using pymatgen
 data_Cr5Fe32Ni17
_symmetry_space_group_name_H-M   'P 1'
_cell_length_a   7.41314920
_cell_length_b   7.41314920
_cell_length_c   10.48377613
_cell_angle_alpha   90.00000000
_cell_angle_beta   90.00000000
_cell_angle_gamma   90.00000000
_symmetry_Int_Tables_number   1
_chemical_formula_structural   Cr5Fe32Ni17
_chemical_formula_sum   'Cr5 Fe32 Ni17'
_cell_volume   576.13362136
_cell_formula_units_Z   1
loop_
 _symmetry_equiv_pos_site_id
 _symmetry_equiv_pos_as_xyz
  1  'x, y, z'
loop_
 _atom_site_type_symbol
 _atom_site_label
 _atom_site_symmetry_multiplicity
 _atom_site_fract_x
 _atom_site_fract_y
 _atom_site_fract_z
 _atom_site_occupancy
  Ni  Ni0  1  1.00320152  1.00153927  1.00330090  1
  Cr  Cr1  1  0.16884902  0.17070052  0.16989313  1
  Fe  Fe2  1  1.00270226  1.00178915  0.33794618  1
  Fe  Fe3  1  1.00248057  0.33589060  1.00257256  1
  Ni  Ni4  1  0.17021046  0.50469633  0.17009876  1
  Fe  Fe5  1  1.00280971  0.33832826  0.33785644  1
  Fe  Fe6  1  0.00364031  0.67187962  0.00395758  1
  Ni  Ni7  1  0.17007464  0.83463488  0.17006186  1
  Ni  Ni8  1  0.00420004  0.67131541  0.33681689  1
  Ni  Ni9  1  0.33549433  0.00506028  1.00238070  1
  Fe  Fe10  1  0.50446985  0.17177566  0.16970493  1
  Fe  Fe11  1  0.33516515  1.00357325  0.33733434  1
  Fe  Fe12  1  0.33802720  0.33629322  1.00270502  1
  Fe  Fe13  1  0.50264455  0.50196951  0.17012299  1
  Fe  Fe14  1  0.33718556  0.33867034  0.33779522  1
  Fe  Fe15  1  0.33514516  0.66974569  1.00357811  1
  Cr  Cr16  1  0.50339617  0.83683760  0.16978805  1
  Fe  Fe17  1  0.33397962  0.66865878  0.33709644  1
  Ni  Ni18  1  0.67221523  0.00696602  0.00416940  1
  Fe  Fe19  1  0.83569454  0.17005861  0.16962853  1
  Fe  Fe20  1  0.67303953  0.00499793  0.33706140  1
  Ni  Ni21  1  0.66901469  0.33600514  0.00365594  1
  Fe  Fe22  1  0.83799367  0.50415288  0.17044438  1
  Fe  Fe23  1  0.67090951  0.33713698  0.33669458  1
  Fe  Fe24  1  0.67212216  0.66980946  1.00293923  1
  Fe  Fe25  1  0.84003024  0.83669709  0.17020065  1
  Fe  Fe26  1  0.67269401  0.66877097  0.33773771  1
  Fe  Fe27  1  0.16878065  0.16828217  0.50301118  1
  Fe  Fe28  1  1.00359460  1.00207616  0.67099764  1
  Ni  Ni29  1  0.16828579  0.17025551  0.83769243  1
  Fe  Fe30  1  0.16836126  0.50577293  0.50233032  1
  Fe  Fe31  1  1.00174798  0.33776701  0.67047660  1
  Fe  Fe32  1  0.16861070  0.50503188  0.83773602  1
  Ni  Ni33  1  0.17001885  0.83622040  0.50361133  1
  Ni  Ni34  1  1.00319322  0.67192980  0.67013989  1
  Ni  Ni35  1  0.17012049  0.83726240  0.83723368  1
  Fe  Fe36  1  0.50496541  0.17004084  0.50245450  1
  Fe  Fe37  1  0.33450518  1.00185175  0.67092591  1
  Fe  Fe38  1  0.50464480  0.16987296  0.83874617  1
  Fe  Fe39  1  0.50508924  0.50371052  0.50334817  1
  Cr  Cr40  1  0.33769250  0.33631566  0.67088761  1
  Fe  Fe41  1  0.50481765  0.50301875  0.83743279  1
  Cr  Cr42  1  0.50311409  0.83501177  0.50503682  1
  Ni  Ni43  1  0.33458529  0.66999384  0.66956513  1
  Cr  Cr44  1  0.50351571  0.83593000  0.83607998  1
  Ni  Ni45  1  0.83729031  0.17173131  0.50363315  1
  Fe  Fe46  1  0.67280284  0.00403555  0.67052947  1
  Ni  Ni47  1  0.83777175  0.17155218  0.83734622  1
  Fe  Fe48  1  0.83746006  0.50502325  0.50376812  1
  Fe  Fe49  1  0.67230980  0.33814860  0.67067955  1
  Fe  Fe50  1  0.83747669  0.50399737  0.83669167  1
  Ni  Ni51  1  0.83771918  0.83719395  0.50360775  1
  Ni  Ni52  1  0.67312636  0.66897549  0.66982670  1
  Ni  Ni53  1  0.83731745  0.83735207  0.83697689  1
" 