5643,Ni31Cr69_3,-227.536446284008, 145.971993710578,Ni31Cr69,"# generated using pymatgen
 data_Cr8Ni19
_symmetry_space_group_name_H-M   'P 1'
_cell_length_a   7.48748026
_cell_length_b   7.48748026
_cell_length_c   10.58889613
_cell_angle_alpha   90.00000000
_cell_angle_beta   90.00000000
_cell_angle_gamma   90.00000000
_symmetry_Int_Tables_number   1
_chemical_formula_structural   Cr8Ni19
_chemical_formula_sum   'Cr16 Ni38'
_cell_volume   593.63851367
_cell_formula_units_Z   2
loop_
 _symmetry_equiv_pos_site_id
 _symmetry_equiv_pos_as_xyz
  1  'x, y, z'
loop_
 _atom_site_type_symbol
 _atom_site_label
 _atom_site_symmetry_multiplicity
 _atom_site_fract_x
 _atom_site_fract_y
 _atom_site_fract_z
 _atom_site_occupancy
  Cr  Cr0  1  0.00002439  0.99540091  -0.00102696  1
  Ni  Ni1  1  0.16780028  0.16738615  0.16613072  1
  Cr  Cr2  1  -0.00048439  0.99756770  0.32956992  1
  Ni  Ni3  1  0.99817950  0.33299453  0.99662842  1
  Cr  Cr4  1  0.16430686  0.49767163  0.16323237  1
  Ni  Ni5  1  -0.00082432  0.33277875  0.33307037  1
  Ni  Ni6  1  0.99764962  0.66471802  0.99778208  1
  Ni  Ni7  1  0.16517991  0.82899328  0.16650515  1
  Ni  Ni8  1  0.99772194  0.66475191  0.33098030  1
  Cr  Cr9  1  0.33034085  0.99727307  0.99846741  1
  Ni  Ni10  1  0.49613117  0.16792091  0.16600814  1
  Ni  Ni11  1  0.33001706  -0.00116234  0.33083883  1
  Ni  Ni12  1  0.33331402  0.33259031  0.99741533  1
  Ni  Ni13  1  0.49873661  0.49820244  0.16441380  1
  Ni  Ni14  1  0.33186410  0.33181915  0.33126218  1
  Ni  Ni15  1  0.33218128  0.66380330  0.99672411  1
  Cr  Cr16  1  0.49932761  0.83003981  0.16765645  1
  Ni  Ni17  1  0.33186899  0.66533161  0.33180046  1
  Cr  Cr18  1  0.66583054  0.99754951  0.99842711  1
  Cr  Cr19  1  0.83199715  0.16876152  0.16425774  1
  Ni  Ni20  1  0.66502539  0.99808205  0.33029370  1
  Ni  Ni21  1  0.66443709  0.33503528  0.99754425  1
  Ni  Ni22  1  0.83185586  0.50121101  0.16422424  1
  Cr  Cr23  1  0.66593820  0.33453396  0.33304805  1
  Ni  Ni24  1  0.66606792  0.66229425  0.99796306  1
  Ni  Ni25  1  0.83224267  0.82665225  0.16583547  1
  Ni  Ni26  1  0.66627298  0.66379307  0.33121320  1
  Ni  Ni27  1  0.16454791  0.16327703  0.49739122  1
  Ni  Ni28  1  -0.00014758  0.99783413  0.66654562  1
  Ni  Ni29  1  0.16501613  0.16603433  0.83215165  1
  Cr  Cr30  1  0.16441620  0.50024380  0.49599386  1
  Cr  Cr31  1  0.99758672  0.33247877  0.66461419  1
  Ni  Ni32  1  0.16380144  0.49943589  0.83515375  1
  Ni  Ni33  1  0.16481304  0.83328595  0.49866760  1
  Ni  Ni34  1  0.99712924  0.66730976  0.66700916  1
  Ni  Ni35  1  0.16408436  0.83029748  0.83073954  1
  Cr  Cr36  1  0.49808404  0.16234472  0.49821670  1
  Ni  Ni37  1  0.32942559  0.99810520  0.66746841  1
  Ni  Ni38  1  0.49874735  0.16514745  0.83249316  1
  Ni  Ni39  1  0.49994246  0.50100944  0.49616358  1
  Cr  Cr40  1  0.33271266  0.33269040  0.66673274  1
  Ni  Ni41  1  0.49960468  0.49997148  0.83538589  1
  Cr  Cr42  1  0.49851182  0.83174753  0.49898552  1
  Cr  Cr43  1  0.33209600  0.66507601  0.66759340  1
  Ni  Ni44  1  0.49992050  0.83102718  0.83063298  1
  Ni  Ni45  1  0.83375169  0.16463673  0.49918083  1
  Ni  Ni46  1  0.66660546  -0.00136365  0.66885222  1
  Ni  Ni47  1  0.83213594  0.16551947  0.83157720  1
  Ni  Ni48  1  0.83240553  0.50090423  0.49757768  1
  Cr  Cr49  1  0.66550084  0.33587933  0.66530057  1
  Ni  Ni50  1  0.83266679  0.50054059  0.83389320  1
  Cr  Cr51  1  0.83130943  0.83203238  0.50009667  1
  Ni  Ni52  1  0.66684792  0.66497324  0.66704812  1
  Ni  Ni53  1  0.83180003  0.82988655  0.83058809  1
" 