837,Ni31Fe60Cr8_16,-234.290125555022, 203.555920274621,Ni31Fe60Cr8,"# generated using pymatgen
 data_Cr5Fe32Ni17
_symmetry_space_group_name_H-M   'P 1'
_cell_length_a   7.41601738
_cell_length_b   7.41601738
_cell_length_c   10.48783235
_cell_angle_alpha   90.00000000
_cell_angle_beta   90.00000000
_cell_angle_gamma   90.00000000
_symmetry_Int_Tables_number   1
_chemical_formula_structural   Cr5Fe32Ni17
_chemical_formula_sum   'Cr5 Fe32 Ni17'
_cell_volume   576.80260644
_cell_formula_units_Z   1
loop_
 _symmetry_equiv_pos_site_id
 _symmetry_equiv_pos_as_xyz
  1  'x, y, z'
loop_
 _atom_site_type_symbol
 _atom_site_label
 _atom_site_symmetry_multiplicity
 _atom_site_fract_x
 _atom_site_fract_y
 _atom_site_fract_z
 _atom_site_occupancy
  Ni  Ni0  1  1.00286460  1.00220354  1.00343684  1
  Fe  Fe1  1  0.16898913  0.16965871  0.16966125  1
  Ni  Ni2  1  0.00358163  1.00319689  0.33666744  1
  Fe  Fe3  1  1.00224270  0.33710115  0.00526035  1
  Ni  Ni4  1  0.16939260  0.50348089  0.17051591  1
  Fe  Fe5  1  1.00013416  0.33825157  0.33577097  1
  Fe  Fe6  1  0.00377391  0.67143408  0.00541029  1
  Ni  Ni7  1  0.16914208  0.83695415  0.17086447  1
  Fe  Fe8  1  1.00116678  0.67049844  0.33542069  1
  Fe  Fe9  1  0.33735190  1.00183722  0.00489820  1
  Ni  Ni10  1  0.50371969  0.16977554  0.17044511  1
  Fe  Fe11  1  0.34049587  1.00233753  0.33607098  1
  Ni  Ni12  1  0.33808670  0.33809530  0.00431256  1
  Fe  Fe13  1  0.50371748  0.50415402  0.16921315  1
  Fe  Fe14  1  0.33986564  0.33683633  0.33435546  1
  Fe  Fe15  1  0.33653498  0.67168874  0.00359636  1
  Fe  Fe16  1  0.50417310  0.83574815  0.17153563  1
  Fe  Fe17  1  0.33728306  0.67111065  0.33695804  1
  Fe  Fe18  1  0.66978351  0.00386935  0.00516452  1
  Fe  Fe19  1  0.83740032  0.16910533  0.17094578  1
  Ni  Ni20  1  0.67086258  0.00351087  0.33624482  1
  Fe  Fe21  1  0.66998239  0.33625873  0.00475264  1
  Ni  Ni22  1  0.83633320  0.50434352  0.16945329  1
  Ni  Ni23  1  0.66942516  0.33755998  0.33640169  1
  Fe  Fe24  1  0.67026585  0.66998853  0.00370703  1
  Ni  Ni25  1  0.83648999  0.83644444  0.17063260  1
  Ni  Ni26  1  0.66906451  0.66916227  0.33552070  1
  Cr  Cr27  1  0.17175813  0.17059667  0.50112798  1
  Fe  Fe28  1  1.00047363  0.99881702  0.67015702  1
  Cr  Cr29  1  0.17104531  0.16919725  0.83911182  1
  Fe  Fe30  1  0.17272415  0.50613348  0.50228536  1
  Cr  Cr31  1  1.00133357  0.33577573  0.66976030  1
  Cr  Cr32  1  0.17137947  0.50595584  0.83679747  1
  Fe  Fe33  1  0.17102927  0.83490602  0.50240262  1
  Fe  Fe34  1  1.00262482  0.67279050  0.66880974  1
  Ni  Ni35  1  0.16809008  0.83607567  0.83648094  1
  Ni  Ni36  1  0.50520894  0.17047286  0.50439841  1
  Cr  Cr37  1  0.33717991  1.00181501  0.67116703  1
  Fe  Fe38  1  0.50548976  0.17127145  0.83845513  1
  Fe  Fe39  1  0.50398058  0.50424074  0.50376475  1
  Fe  Fe40  1  0.34112653  0.33907641  0.67003603  1
  Ni  Ni41  1  0.50589956  0.50320776  0.83669175  1
  Ni  Ni42  1  0.50591124  0.83660029  0.50223151  1
  Ni  Ni43  1  0.33858636  0.67078062  0.66945566  1
  Fe  Fe44  1  0.50348939  0.83383249  0.83679616  1
  Fe  Fe45  1  0.83376726  0.16836723  0.50196638  1
  Fe  Fe46  1  0.67108509  1.00204410  0.66910697  1
  Fe  Fe47  1  0.83447686  0.16881186  0.83803392  1
  Fe  Fe48  1  0.83371839  0.50476552  0.50173883  1
  Fe  Fe49  1  0.66763060  0.33748603  0.66956633  1
  Fe  Fe50  1  0.83463897  0.50520032  0.83821610  1
  Fe  Fe51  1  0.83503136  0.83712540  0.50180765  1
  Ni  Ni52  1  0.66973334  0.67001059  0.67023814  1
  Fe  Fe53  1  0.83625314  0.83582644  0.83796848  1
" 