2148,Ni31Fe67Cr1_4,-235.004853040478, 199.596876134789,Ni31Fe67Cr1,"# generated using pymatgen
 data_Cr(Fe9Ni4)2
_symmetry_space_group_name_H-M   'P 1'
_cell_length_a   7.40913767
_cell_length_b   7.40913767
_cell_length_c   10.47810299
_cell_angle_alpha   90.00000000
_cell_angle_beta   90.00000000
_cell_angle_gamma   90.00000000
_symmetry_Int_Tables_number   1
_chemical_formula_structural   Cr(Fe9Ni4)2
_chemical_formula_sum   'Cr2 Fe36 Ni16'
_cell_volume   575.19882771
_cell_formula_units_Z   2
loop_
 _symmetry_equiv_pos_site_id
 _symmetry_equiv_pos_as_xyz
  1  'x, y, z'
loop_
 _atom_site_type_symbol
 _atom_site_label
 _atom_site_symmetry_multiplicity
 _atom_site_fract_x
 _atom_site_fract_y
 _atom_site_fract_z
 _atom_site_occupancy
  Fe  Fe0  1  1.00323668  0.00408794  1.00318784  1
  Fe  Fe1  1  0.17096845  0.17042596  0.17054175  1
  Fe  Fe2  1  1.00301296  1.00348104  0.33778790  1
  Fe  Fe3  1  1.00382691  0.33725185  0.00414574  1
  Ni  Ni4  1  0.17028448  0.50436496  0.17101387  1
  Fe  Fe5  1  1.00357172  0.33856444  0.33716527  1
  Fe  Fe6  1  0.00403382  0.67038486  1.00366265  1
  Fe  Fe7  1  0.17124175  0.83761906  0.17071489  1
  Fe  Fe8  1  1.00354543  0.66968073  0.33782158  1
  Fe  Fe9  1  0.33817916  1.00390666  0.00390831  1
  Ni  Ni10  1  0.50463242  0.16962759  0.17016312  1
  Fe  Fe11  1  0.33790225  1.00277947  0.33598288  1
  Fe  Fe12  1  0.33725786  0.33710161  0.00398732  1
  Fe  Fe13  1  0.50412950  0.50365526  0.17163666  1
  Fe  Fe14  1  0.33728410  0.33920349  0.33656800  1
  Fe  Fe15  1  0.33723242  0.67071665  0.00451385  1
  Ni  Ni16  1  0.50388891  0.83825835  0.17133356  1
  Ni  Ni17  1  0.33773884  0.67059222  0.33776261  1
  Fe  Fe18  1  0.67030819  0.00411264  1.00364446  1
  Ni  Ni19  1  0.83629091  0.17036003  0.17124410  1
  Fe  Fe20  1  0.67080949  1.00274998  0.33591852  1
  Fe  Fe21  1  0.67063833  0.33630304  0.00427529  1
  Fe  Fe22  1  0.83638464  0.50338210  0.17127894  1
  Ni  Ni23  1  0.67130378  0.33836393  0.33608681  1
  Fe  Fe24  1  0.67045708  0.67130809  0.00392320  1
  Fe  Fe25  1  0.83676072  0.83750324  0.17071377  1
  Ni  Ni26  1  0.66972418  0.66958526  0.33771535  1
  Fe  Fe27  1  0.16840119  0.17108051  0.50432122  1
  Ni  Ni28  1  1.00389061  0.00548123  0.67100674  1
  Fe  Fe29  1  0.17037598  0.16939030  0.83686185  1
  Ni  Ni30  1  0.17098966  0.50358972  0.50320647  1
  Fe  Fe31  1  1.00389358  0.33556822  0.67041037  1
  Fe  Fe32  1  0.17136252  0.50318405  0.83815681  1
  Fe  Fe33  1  0.17102445  0.83701914  0.50324044  1
  Cr  Cr34  1  1.00346798  0.67152012  0.67015519  1
  Fe  Fe35  1  0.17110094  0.83915241  0.83777023  1
  Cr  Cr36  1  0.50432411  0.17048657  0.50345727  1
  Fe  Fe37  1  0.33633491  1.00312175  0.67183050  1
  Ni  Ni38  1  0.50418584  0.16983996  0.83780210  1
  Ni  Ni39  1  0.50283102  0.50523636  0.50369988  1
  Fe  Fe40  1  0.33597797  0.33786045  0.67116881  1
  Fe  Fe41  1  0.50483264  0.50390717  0.83669088  1
  Fe  Fe42  1  0.50418558  0.83391174  0.50347143  1
  Fe  Fe43  1  0.33836538  0.67074278  0.66998038  1
  Ni  Ni44  1  0.50418604  0.83797953  0.83601147  1
  Fe  Fe45  1  0.83890914  0.17149967  0.50393279  1
  Fe  Fe46  1  0.67208895  1.00279549  0.67215685  1
  Ni  Ni47  1  0.83704352  0.16982890  0.83600076  1
  Ni  Ni48  1  0.83790344  0.50430775  0.50300832  1
  Fe  Fe49  1  0.67185265  0.33759775  0.67093569  1
  Fe  Fe50  1  0.83552826  0.50318167  0.83766348  1
  Ni  Ni51  1  0.83704115  0.83750842  0.50284562  1
  Fe  Fe52  1  0.66978984  0.67133471  0.66997871  1
  Ni  Ni53  1  0.83650008  0.83853564  0.83856991  1
" 