3056,Ni31Fe67Cr1_10,-234.856570079564, 200.893588036583,Ni31Fe67Cr1,"# generated using pymatgen
 data_Cr(Fe9Ni4)2
_symmetry_space_group_name_H-M   'P 1'
_cell_length_a   7.40494682
_cell_length_b   7.40494682
_cell_length_c   10.47217622
_cell_angle_alpha   90.00000000
_cell_angle_beta   90.00000000
_cell_angle_gamma   90.00000000
_symmetry_Int_Tables_number   1
_chemical_formula_structural   Cr(Fe9Ni4)2
_chemical_formula_sum   'Cr2 Fe36 Ni16'
_cell_volume   574.22332485
_cell_formula_units_Z   2
loop_
 _symmetry_equiv_pos_site_id
 _symmetry_equiv_pos_as_xyz
  1  'x, y, z'
loop_
 _atom_site_type_symbol
 _atom_site_label
 _atom_site_symmetry_multiplicity
 _atom_site_fract_x
 _atom_site_fract_y
 _atom_site_fract_z
 _atom_site_occupancy
  Fe  Fe0  1  1.00340752  1.00364818  1.00299102  1
  Cr  Cr1  1  0.16966595  0.17189268  0.17064775  1
  Fe  Fe2  1  1.00314413  0.00441122  0.33901947  1
  Fe  Fe3  1  1.00310438  0.33843821  1.00354164  1
  Fe  Fe4  1  0.17176077  0.50597400  0.17104700  1
  Fe  Fe5  1  1.00336401  0.33861992  0.33832293  1
  Ni  Ni6  1  0.00431317  0.67118576  0.00479100  1
  Fe  Fe7  1  0.17107035  0.83491179  0.17057258  1
  Fe  Fe8  1  1.00393417  0.66954922  0.33764669  1
  Fe  Fe9  1  0.33792389  1.00206180  1.00206525  1
  Cr  Cr10  1  0.50469158  0.17040927  0.17042947  1
  Fe  Fe11  1  0.33844108  1.00308338  0.33958294  1
  Ni  Ni12  1  0.33837275  0.33935553  1.00267496  1
  Ni  Ni13  1  0.50512320  0.50639840  0.17061095  1
  Ni  Ni14  1  0.33888551  0.33944640  0.33971489  1
  Fe  Fe15  1  0.33828865  0.67119518  1.00399440  1
  Ni  Ni16  1  0.50466547  0.83575240  0.17059631  1
  Fe  Fe17  1  0.33857942  0.66995419  0.33794680  1
  Ni  Ni18  1  0.67176589  1.00391012  1.00408378  1
  Fe  Fe19  1  0.83606511  0.17122597  0.17085916  1
  Fe  Fe20  1  0.67099299  1.00365040  0.33806404  1
  Fe  Fe21  1  0.67194660  0.33880036  0.00424156  1
  Ni  Ni22  1  0.83780663  0.50429963  0.17093834  1
  Ni  Ni23  1  0.67058891  0.33789570  0.33702286  1
  Fe  Fe24  1  0.67036044  0.67089435  0.00472927  1
  Fe  Fe25  1  0.83683266  0.83702241  0.17083110  1
  Fe  Fe26  1  0.67006864  0.67017318  0.33720996  1
  Fe  Fe27  1  0.17110746  0.17004553  0.50411089  1
  Ni  Ni28  1  1.00408506  1.00285914  0.67110497  1
  Fe  Fe29  1  0.17165555  0.17015979  0.83761093  1
  Ni  Ni30  1  0.17022106  0.50261814  0.50404078  1
  Fe  Fe31  1  0.00536300  0.33767409  0.67071356  1
  Fe  Fe32  1  0.17132718  0.50508818  0.83707463  1
  Fe  Fe33  1  0.17064474  0.83710879  0.50511440  1
  Ni  Ni34  1  0.00443326  0.67176669  0.67021656  1
  Fe  Fe35  1  0.17093455  0.83733237  0.83689426  1
  Fe  Fe36  1  0.50401686  0.17077868  0.50367569  1
  Ni  Ni37  1  0.33746783  1.00385749  0.67077804  1
  Fe  Fe38  1  0.50401625  0.17034409  0.83804829  1
  Fe  Fe39  1  0.50401363  0.50465757  0.50340894  1
  Fe  Fe40  1  0.33614275  0.33774633  0.67071109  1
  Fe  Fe41  1  0.50376107  0.50432443  0.83802359  1
  Ni  Ni42  1  0.50510929  0.83831991  0.50438402  1
  Ni  Ni43  1  0.33678157  0.67110625  0.67076389  1
  Ni  Ni44  1  0.50431485  0.83813142  0.83760087  1
  Fe  Fe45  1  0.83745565  0.17034889  0.50413451  1
  Fe  Fe46  1  0.67063839  1.00251570  0.67118939  1
  Fe  Fe47  1  0.83690921  0.16994797  0.83758590  1
  Fe  Fe48  1  0.83748867  0.50511650  0.50372328  1
  Fe  Fe49  1  0.67107284  0.33752883  0.67045419  1
  Fe  Fe50  1  0.83749184  0.50504586  0.83806783  1
  Ni  Ni51  1  0.83657682  0.83772545  0.50506593  1
  Fe  Fe52  1  0.67056575  0.67253750  0.67064197  1
  Fe  Fe53  1  0.83767357  0.83758734  0.83711809  1
" 