7977,Ni31Fe67Cr1_8,-235.114764725624, 196.232014137506,Ni31Fe67Cr1,"# generated using pymatgen
 data_Cr(Fe9Ni4)2
_symmetry_space_group_name_H-M   'P 1'
_cell_length_a   7.41190114
_cell_length_b   7.41190114
_cell_length_c   10.48201111
_cell_angle_alpha   90.00000000
_cell_angle_beta   90.00000000
_cell_angle_gamma   90.00000000
_symmetry_Int_Tables_number   1
_chemical_formula_structural   Cr(Fe9Ni4)2
_chemical_formula_sum   'Cr2 Fe36 Ni16'
_cell_volume   575.84268168
_cell_formula_units_Z   2
loop_
 _symmetry_equiv_pos_site_id
 _symmetry_equiv_pos_as_xyz
  1  'x, y, z'
loop_
 _atom_site_type_symbol
 _atom_site_label
 _atom_site_symmetry_multiplicity
 _atom_site_fract_x
 _atom_site_fract_y
 _atom_site_fract_z
 _atom_site_occupancy
  Ni  Ni0  1  0.00510458  1.00152692  1.00346061  1
  Fe  Fe1  1  0.17169781  0.16996315  0.17085854  1
  Ni  Ni2  1  0.00390569  1.00249582  0.33794381  1
  Fe  Fe3  1  0.00469366  0.33845842  1.00367251  1
  Fe  Fe4  1  0.17083113  0.50465800  0.17116982  1
  Fe  Fe5  1  0.00488759  0.33814264  0.33870631  1
  Fe  Fe6  1  1.00262531  0.67021181  0.00402300  1
  Fe  Fe7  1  0.16989906  0.83652782  0.17041701  1
  Fe  Fe8  1  1.00362176  0.66930083  0.33695953  1
  Fe  Fe9  1  0.33737341  0.00416300  0.00374278  1
  Fe  Fe10  1  0.50342839  0.17119411  0.17038025  1
  Fe  Fe11  1  0.33721050  0.00428942  0.33696074  1
  Fe  Fe12  1  0.33709560  0.33654940  0.00421989  1
  Ni  Ni13  1  0.50317529  0.50502876  0.17041912  1
  Ni  Ni14  1  0.33871017  0.33852951  0.33678307  1
  Fe  Fe15  1  0.33748802  0.67045100  0.00395524  1
  Ni  Ni16  1  0.50314264  0.83612077  0.16977510  1
  Ni  Ni17  1  0.33731365  0.66932704  0.33676103  1
  Fe  Fe18  1  0.66913396  1.00210408  0.00396105  1
  Cr  Cr19  1  0.83772239  0.17073037  0.17092101  1
  Fe  Fe20  1  0.66912513  1.00302593  0.33768304  1
  Ni  Ni21  1  0.66827494  0.33926134  1.00367232  1
  Ni  Ni22  1  0.83661500  0.50473814  0.16962744  1
  Ni  Ni23  1  0.66887689  0.33827785  0.33804078  1
  Fe  Fe24  1  0.67103780  0.67048934  0.00453426  1
  Ni  Ni25  1  0.83635874  0.83612872  0.16975203  1
  Fe  Fe26  1  0.67019668  0.66986017  0.33622518  1
  Ni  Ni27  1  0.16950616  0.17059548  0.50453183  1
  Ni  Ni28  1  0.00405809  1.00306689  0.66976621  1
  Fe  Fe29  1  0.17147713  0.16980828  0.83674206  1
  Ni  Ni30  1  0.17071318  0.50344603  0.50390125  1
  Fe  Fe31  1  0.00503586  0.33798938  0.66879238  1
  Fe  Fe32  1  0.17061378  0.50387758  0.83628940  1
  Fe  Fe33  1  0.16939984  0.83703082  0.50392139  1
  Fe  Fe34  1  0.00407434  0.67024934  0.67017261  1
  Fe  Fe35  1  0.16997350  0.83746166  0.83682122  1
  Fe  Fe36  1  0.50390763  0.17189960  0.50341517  1
  Fe  Fe37  1  0.33659122  1.00344998  0.67045793  1
  Fe  Fe38  1  0.50248074  0.17074616  0.83736636  1
  Fe  Fe39  1  0.50320187  0.50273582  0.50295255  1
  Fe  Fe40  1  0.33600870  0.33693034  0.66970365  1
  Fe  Fe41  1  0.50384190  0.50346064  0.83751397  1
  Fe  Fe42  1  0.50319538  0.83652762  0.50351655  1
  Ni  Ni43  1  0.33733988  0.66970228  0.67053029  1
  Fe  Fe44  1  0.50356027  0.83695742  0.83709575  1
  Ni  Ni45  1  0.83785128  0.17058678  0.50390515  1
  Fe  Fe46  1  0.66959953  1.00248877  0.66951048  1
  Cr  Cr47  1  0.83772862  0.17025499  0.83712654  1
  Ni  Ni48  1  0.83750706  0.50259264  0.50410908  1
  Fe  Fe49  1  0.67011603  0.33783132  0.66936728  1
  Fe  Fe50  1  0.83669750  0.50496345  0.83736556  1
  Fe  Fe51  1  0.83856564  0.83774419  0.50344823  1
  Fe  Fe52  1  0.67066432  0.67083838  0.67039061  1
  Fe  Fe53  1  0.83763174  0.83609683  0.83754803  1
" 