2925,Ni31Cr69_14,-227.323462241419, 138.077065549922,Ni31Cr69,"# generated using pymatgen
 data_Cr8Ni19
_symmetry_space_group_name_H-M   'P 1'
_cell_length_a   7.48970986
_cell_length_b   7.48970986
_cell_length_c   10.59204926
_cell_angle_alpha   90.00000000
_cell_angle_beta   90.00000000
_cell_angle_gamma   90.00000000
_symmetry_Int_Tables_number   1
_chemical_formula_structural   Cr8Ni19
_chemical_formula_sum   'Cr16 Ni38'
_cell_volume   594.16898751
_cell_formula_units_Z   2
loop_
 _symmetry_equiv_pos_site_id
 _symmetry_equiv_pos_as_xyz
  1  'x, y, z'
loop_
 _atom_site_type_symbol
 _atom_site_label
 _atom_site_symmetry_multiplicity
 _atom_site_fract_x
 _atom_site_fract_y
 _atom_site_fract_z
 _atom_site_occupancy
  Ni  Ni0  1  0.99563189  0.99558202  0.99513795  1
  Cr  Cr1  1  0.16724033  0.16698494  0.16765503  1
  Cr  Cr2  1  0.99653734  -0.00015097  0.33355695  1
  Cr  Cr3  1  -0.00081290  0.33235598  0.99780765  1
  Ni  Ni4  1  0.16627030  0.49786277  0.16440950  1
  Ni  Ni5  1  0.00063078  0.33337357  0.33387129  1
  Ni  Ni6  1  0.99826533  0.66682024  -0.00105954  1
  Cr  Cr7  1  0.16476601  0.83067497  0.16389133  1
  Cr  Cr8  1  0.99585346  0.66109019  0.33110819  1
  Cr  Cr9  1  0.33144345  -0.00110162  0.99810422  1
  Ni  Ni10  1  0.49870905  0.16535785  0.16529997  1
  Ni  Ni11  1  0.33646615  0.00160518  0.33256999  1
  Ni  Ni12  1  0.33274416  0.33459587  -0.00027874  1
  Ni  Ni13  1  0.49767518  0.49772704  0.16184096  1
  Ni  Ni14  1  0.33084751  0.33046497  0.33232155  1
  Ni  Ni15  1  0.33105732  0.66261302  -0.00073663  1
  Ni  Ni16  1  0.50121237  0.83245467  0.16479154  1
  Cr  Cr17  1  0.33401265  0.66378181  0.33188872  1
  Ni  Ni18  1  0.66767199  0.99735028  -0.00014414  1
  Cr  Cr19  1  0.82979086  0.16443081  0.16424959  1
  Ni  Ni20  1  0.66209518  0.99784247  0.33246638  1
  Ni  Ni21  1  0.66340049  0.33195592  0.00041610  1
  Ni  Ni22  1  0.83157275  0.50040392  0.16364381  1
  Cr  Cr23  1  0.66510069  0.33206550  0.33226414  1
  Ni  Ni24  1  0.66605999  0.66611536  0.00180744  1
  Ni  Ni25  1  0.82876891  0.83066666  0.16216797  1
  Cr  Cr26  1  0.66560382  0.66660115  0.33191143  1
  Ni  Ni27  1  0.16516307  0.16880285  0.49800161  1
  Ni  Ni28  1  0.99575604  -0.00060153  0.66688496  1
  Ni  Ni29  1  0.16215824  0.16579828  0.83087709  1
  Ni  Ni30  1  0.16517055  0.49481521  0.49988583  1
  Ni  Ni31  1  -0.00075366  0.33108000  0.66361906  1
  Ni  Ni32  1  0.16591317  0.49956275  0.83116562  1
  Cr  Cr33  1  0.16524665  0.83170782  0.49954774  1
  Ni  Ni34  1  0.99827608  0.66496947  0.66530494  1
  Ni  Ni35  1  0.16117936  0.83006634  0.83221566  1
  Ni  Ni36  1  0.49869232  0.16525866  0.49768963  1
  Cr  Cr37  1  0.33095967  -0.00059170  0.66458433  1
  Cr  Cr38  1  0.50125143  0.16795008  0.83250968  1
  Ni  Ni39  1  0.49770868  0.49747512  0.50161184  1
  Ni  Ni40  1  0.32996288  0.33375299  0.66348930  1
  Cr  Cr41  1  0.49734254  0.49835987  0.83146695  1
  Ni  Ni42  1  0.50129530  0.83276424  0.49885715  1
  Ni  Ni43  1  0.33095856  0.66240205  0.66451268  1
  Cr  Cr44  1  0.50033827  0.82918687  0.83120619  1
  Ni  Ni45  1  0.83166830  0.16530315  0.50047032  1
  Ni  Ni46  1  0.66881098  0.99835305  0.66307673  1
  Ni  Ni47  1  0.83315907  0.16215346  0.83090936  1
  Ni  Ni48  1  0.83265834  0.49741854  0.50066061  1
  Ni  Ni49  1  0.66621484  0.33109005  0.66271278  1
  Cr  Cr50  1  0.83109271  0.49902869  0.83083434  1
  Ni  Ni51  1  0.82892722  0.83276675  0.50107527  1
  Ni  Ni52  1  0.66618599  0.66595511  0.66190144  1
  Ni  Ni53  1  0.83435217  0.83395107  0.83227004  1
" 