1067,Ni31Cr69_18,-227.572455284387, 144.362791457117,Ni31Cr69,"# generated using pymatgen
 data_Cr8Ni19
_symmetry_space_group_name_H-M   'P 1'
_cell_length_a   7.48671964
_cell_length_b   7.48671964
_cell_length_c   10.58782045
_cell_angle_alpha   90.00000000
_cell_angle_beta   90.00000000
_cell_angle_gamma   90.00000000
_symmetry_Int_Tables_number   1
_chemical_formula_structural   Cr8Ni19
_chemical_formula_sum   'Cr16 Ni38'
_cell_volume   593.45761643
_cell_formula_units_Z   2
loop_
 _symmetry_equiv_pos_site_id
 _symmetry_equiv_pos_as_xyz
  1  'x, y, z'
loop_
 _atom_site_type_symbol
 _atom_site_label
 _atom_site_symmetry_multiplicity
 _atom_site_fract_x
 _atom_site_fract_y
 _atom_site_fract_z
 _atom_site_occupancy
  Cr  Cr0  1  0.00052634  0.99688814  0.00026043  1
  Ni  Ni1  1  0.16739125  0.16566942  0.16564086  1
  Ni  Ni2  1  0.99710576  0.99693767  0.33050111  1
  Cr  Cr3  1  0.00121258  0.33437619  -0.00082912  1
  Ni  Ni4  1  0.16619887  0.49991186  0.16605075  1
  Cr  Cr5  1  -0.00116763  0.33081851  0.33050943  1
  Ni  Ni6  1  0.99693693  0.66556840  0.99851630  1
  Ni  Ni7  1  0.16246518  0.83041696  0.16628462  1
  Ni  Ni8  1  0.99629505  0.66694200  0.32971808  1
  Ni  Ni9  1  0.33293561  0.00125094  0.99718669  1
  Ni  Ni10  1  0.49900720  0.16707204  0.16472083  1
  Cr  Cr11  1  0.33129530  -0.00039948  0.33063281  1
  Ni  Ni12  1  0.33227003  0.33017589  -0.00104534  1
  Ni  Ni13  1  0.49836190  0.49672758  0.16791578  1
  Ni  Ni14  1  0.33405522  0.33364443  0.32985608  1
  Cr  Cr15  1  0.33244409  0.66466152  0.99786100  1
  Cr  Cr16  1  0.50067493  0.83173308  0.16515934  1
  Ni  Ni17  1  0.33377700  0.66286607  0.33174461  1
  Ni  Ni18  1  0.66330045  0.99676361  0.99857313  1
  Ni  Ni19  1  0.82968051  0.16333364  0.16772695  1
  Ni  Ni20  1  0.66775360  0.99736111  0.33116502  1
  Cr  Cr21  1  0.66229771  0.33400439  0.00005366  1
  Ni  Ni22  1  0.83142331  0.50166455  0.16618083  1
  Ni  Ni23  1  0.66361208  0.33437257  0.33053083  1
  Ni  Ni24  1  0.66773234  0.66612677  0.99759113  1
  Ni  Ni25  1  0.83290909  0.83106051  0.16626625  1
  Ni  Ni26  1  0.66594844  0.66427995  0.33313273  1
  Ni  Ni27  1  0.16752945  0.16550492  0.49901054  1
  Cr  Cr28  1  0.00016695  0.99765164  0.66487115  1
  Ni  Ni29  1  0.17117528  0.16561503  0.83127718  1
  Cr  Cr30  1  0.16852687  0.49856202  0.49795965  1
  Cr  Cr31  1  -0.00102750  0.33302727  0.66666072  1
  Ni  Ni32  1  0.16758990  0.49913420  0.83214512  1
  Cr  Cr33  1  0.16659972  0.83129654  0.49719122  1
  Cr  Cr34  1  0.99739115  0.66533418  0.66774249  1
  Ni  Ni35  1  0.16736036  0.83139689  0.83211144  1
  Cr  Cr36  1  0.49861666  0.16655012  0.49992745  1
  Ni  Ni37  1  0.33401650  0.99860652  0.66758164  1
  Ni  Ni38  1  0.49595723  0.16448062  0.83147702  1
  Ni  Ni39  1  0.49925965  0.49934904  0.49751096  1
  Ni  Ni40  1  0.33409301  0.33184802  0.66730682  1
  Ni  Ni41  1  0.49731217  0.49762356  0.83074189  1
  Ni  Ni42  1  0.50052339  0.83034142  0.49920629  1
  Ni  Ni43  1  0.33464512  0.66555710  0.66661865  1
  Ni  Ni44  1  0.49857690  0.83392773  0.83142600  1
  Cr  Cr45  1  0.83018813  0.16459807  0.49823944  1
  Ni  Ni46  1  0.66202711  0.99716217  0.66635773  1
  Cr  Cr47  1  0.82782503  0.16455095  0.83088467  1
  Ni  Ni48  1  0.82851240  0.50044348  0.49706160  1
  Ni  Ni49  1  0.66190748  0.33366327  0.66599997  1
  Ni  Ni50  1  0.83113329  0.50158495  0.83289872  1
  Ni  Ni51  1  0.82925273  0.83137162  0.49550386  1
  Cr  Cr52  1  0.66334323  0.66526570  0.66519829  1
  Ni  Ni53  1  0.83010974  0.83037970  0.83423978  1
" 