2395,Ni31Fe50Cr17_14,-232.006157596439, 196.362153757095,Ni31Fe50Cr17,"# generated using pymatgen
 data_Cr10Fe27Ni17
_symmetry_space_group_name_H-M   'P 1'
_cell_length_a   7.43948074
_cell_length_b   7.43948074
_cell_length_c   10.52101456
_cell_angle_alpha   90.00000000
_cell_angle_beta   90.00000000
_cell_angle_gamma   90.00000000
_symmetry_Int_Tables_number   1
_chemical_formula_structural   Cr10Fe27Ni17
_chemical_formula_sum   'Cr10 Fe27 Ni17'
_cell_volume   582.29474354
_cell_formula_units_Z   1
loop_
 _symmetry_equiv_pos_site_id
 _symmetry_equiv_pos_as_xyz
  1  'x, y, z'
loop_
 _atom_site_type_symbol
 _atom_site_label
 _atom_site_symmetry_multiplicity
 _atom_site_fract_x
 _atom_site_fract_y
 _atom_site_fract_z
 _atom_site_occupancy
  Cr  Cr0  1  0.00219800  0.99989103  1.00183476  1
  Ni  Ni1  1  0.17071638  0.16845429  0.16896832  1
  Cr  Cr2  1  0.00405481  0.99838379  0.33657072  1
  Cr  Cr3  1  0.00530587  0.33635391  0.00313750  1
  Ni  Ni4  1  0.17035616  0.50350915  0.16824253  1
  Fe  Fe5  1  0.00541583  0.33754173  0.33660674  1
  Fe  Fe6  1  0.00297904  0.66916460  0.00287375  1
  Ni  Ni7  1  0.17028983  0.83353978  0.16840631  1
  Ni  Ni8  1  0.00356753  0.66764713  0.33473770  1
  Fe  Fe9  1  0.33367426  1.00090177  1.00112023  1
  Cr  Cr10  1  0.49900672  0.16859174  0.16971676  1
  Fe  Fe11  1  0.33266238  1.00039002  0.33693570  1
  Fe  Fe12  1  0.33431385  0.33653152  1.00161748  1
  Ni  Ni13  1  0.50156842  0.50442947  0.16853428  1
  Ni  Ni14  1  0.33431667  0.33765063  0.33432235  1
  Fe  Fe15  1  0.33490070  0.66842194  0.00209152  1
  Fe  Fe16  1  0.49847640  0.83237187  0.16926615  1
  Fe  Fe17  1  0.33344159  0.66856385  0.33576591  1
  Cr  Cr18  1  0.66837324  0.99925222  1.00096980  1
  Cr  Cr19  1  0.83637713  0.17047971  0.17103373  1
  Cr  Cr20  1  0.66707667  0.99931256  0.33672547  1
  Cr  Cr21  1  0.66611454  0.33588558  1.00114933  1
  Fe  Fe22  1  0.83619295  0.50493560  0.16979136  1
  Fe  Fe23  1  0.66812189  0.33937169  0.33677121  1
  Fe  Fe24  1  0.66770263  0.66889301  0.00198784  1
  Fe  Fe25  1  0.83613062  0.83009763  0.16961029  1
  Fe  Fe26  1  0.66842825  0.66671037  0.33699128  1
  Ni  Ni27  1  0.16980261  0.16996900  0.50239308  1
  Fe  Fe28  1  1.00184782  0.00222252  0.66745159  1
  Fe  Fe29  1  0.16882657  0.16894155  0.83324660  1
  Ni  Ni30  1  0.16870419  0.50216689  0.50291153  1
  Ni  Ni31  1  0.00475792  0.33583936  0.66669260  1
  Fe  Fe32  1  0.16973756  0.50238819  0.83343284  1
  Ni  Ni33  1  0.16912431  0.83369365  0.50336045  1
  Ni  Ni34  1  0.00387511  0.66979544  0.66851506  1
  Fe  Fe35  1  0.16846988  0.83399464  0.83409751  1
  Fe  Fe36  1  0.49753109  0.16723545  0.50181717  1
  Fe  Fe37  1  0.33516119  1.00161248  0.66738356  1
  Fe  Fe38  1  0.49978127  0.16739879  0.83376239  1
  Fe  Fe39  1  0.49873939  0.50371632  0.50103848  1
  Ni  Ni40  1  0.33386148  0.33600627  0.66992457  1
  Fe  Fe41  1  0.49937328  0.50358282  0.83472711  1
  Ni  Ni42  1  0.50140889  0.83454740  0.50245823  1
  Fe  Fe43  1  0.33569636  0.66762441  0.66767072  1
  Fe  Fe44  1  0.50166740  0.83437967  0.83289939  1
  Fe  Fe45  1  0.83754806  0.16706884  0.50343308  1
  Ni  Ni46  1  0.66757980  1.00041694  0.66874214  1
  Ni  Ni47  1  0.83604247  0.16764299  0.83167180  1
  Fe  Fe48  1  0.83831548  0.50526830  0.50266588  1
  Cr  Cr49  1  0.66598606  0.33499157  0.66576726  1
  Cr  Cr50  1  0.83641289  0.50291690  0.83371482  1
  Ni  Ni51  1  0.83485053  0.83344999  0.50476591  1
  Ni  Ni52  1  0.66749971  0.67072511  0.66778519  1
  Fe  Fe53  1  0.83568435  0.83517596  0.83194008  1
" 