3539,Ni31Cr69_16,-227.781718564411, 147.601001659011,Ni31Cr69,"# generated using pymatgen
 data_Cr8Ni19
_symmetry_space_group_name_H-M   'P 1'
_cell_length_a   7.48869478
_cell_length_b   7.48869478
_cell_length_c   10.59061373
_cell_angle_alpha   90.00000000
_cell_angle_beta   90.00000000
_cell_angle_gamma   90.00000000
_symmetry_Int_Tables_number   1
_chemical_formula_structural   Cr8Ni19
_chemical_formula_sum   'Cr16 Ni38'
_cell_volume   593.92743820
_cell_formula_units_Z   2
loop_
 _symmetry_equiv_pos_site_id
 _symmetry_equiv_pos_as_xyz
  1  'x, y, z'
loop_
 _atom_site_type_symbol
 _atom_site_label
 _atom_site_symmetry_multiplicity
 _atom_site_fract_x
 _atom_site_fract_y
 _atom_site_fract_z
 _atom_site_occupancy
  Ni  Ni0  1  -0.00004867  0.00194376  0.99700339  1
  Ni  Ni1  1  0.17006095  0.16525377  0.16521802  1
  Cr  Cr2  1  0.00149069  -0.00064011  0.33510165  1
  Cr  Cr3  1  0.99849179  0.33204575  -0.00037202  1
  Ni  Ni4  1  0.16883623  0.49886667  0.16844626  1
  Cr  Cr5  1  0.00164351  0.33440201  0.33201547  1
  Cr  Cr6  1  -0.00092379  0.66228016  0.00000014  1
  Cr  Cr7  1  0.16900958  0.83225701  0.16479491  1
  Ni  Ni8  1  -0.00010963  0.66225658  0.33317582  1
  Ni  Ni9  1  0.33408692  0.00018604  -0.00106713  1
  Ni  Ni10  1  0.49626612  0.16403745  0.16545498  1
  Ni  Ni11  1  0.33531339  -0.00094135  0.33322183  1
  Cr  Cr12  1  0.33513683  0.33336270  0.00062606  1
  Ni  Ni13  1  0.49837275  0.49983503  0.16513811  1
  Ni  Ni14  1  0.33270862  0.33232047  0.33165439  1
  Ni  Ni15  1  0.33732294  0.66531385  0.00067269  1
  Ni  Ni16  1  0.49808758  0.83197987  0.16548495  1
  Ni  Ni17  1  0.33384634  0.66417386  0.33243271  1
  Ni  Ni18  1  0.66149945  0.00051560  -0.00117586  1
  Cr  Cr19  1  0.82817136  0.16491227  0.16451391  1
  Ni  Ni20  1  0.65845058  0.99761118  0.33339907  1
  Ni  Ni21  1  0.66360012  0.33340081  0.99730299  1
  Ni  Ni22  1  0.82869830  0.50036375  0.16558990  1
  Cr  Cr23  1  0.66093150  0.33339272  0.33299931  1
  Ni  Ni24  1  0.66146085  0.66188537  -0.00024255  1
  Cr  Cr25  1  0.82720441  0.83184846  0.16582850  1
  Ni  Ni26  1  0.66172995  0.66444369  0.33180728  1
  Ni  Ni27  1  0.16952756  0.16754310  0.49977530  1
  Cr  Cr28  1  0.00054884  0.00033103  0.66454522  1
  Ni  Ni29  1  0.16725605  0.16555756  0.83114707  1
  Ni  Ni30  1  0.16725708  0.49846338  0.49892776  1
  Ni  Ni31  1  0.99785431  0.33256297  0.66414811  1
  Cr  Cr32  1  0.16955737  0.49769876  0.82741081  1
  Ni  Ni33  1  0.16986082  0.82916864  0.49911499  1
  Ni  Ni34  1  -0.00144190  0.66110657  0.66231070  1
  Cr  Cr35  1  0.16828136  0.83204899  0.83151363  1
  Ni  Ni36  1  0.49575226  0.16657107  0.49819585  1
  Ni  Ni37  1  0.33215047  0.00025792  0.66322405  1
  Ni  Ni38  1  0.49824232  0.16760070  0.83178847  1
  Ni  Ni39  1  0.49695515  0.49853785  0.49994309  1
  Ni  Ni40  1  0.33385707  0.33099093  0.66380387  1
  Ni  Ni41  1  0.50135775  0.49670475  0.83074196  1
  Ni  Ni42  1  0.49481709  0.83027754  0.49680682  1
  Ni  Ni43  1  0.33429891  0.66413168  0.66209456  1
  Cr  Cr44  1  0.49719424  0.82973646  0.83239047  1
  Ni  Ni45  1  0.83009959  0.16923478  0.49965678  1
  Cr  Cr46  1  0.66081729  0.00067576  0.66247171  1
  Ni  Ni47  1  0.83007350  0.16889840  0.83288025  1
  Ni  Ni48  1  0.83144094  0.49794782  0.50049704  1
  Ni  Ni49  1  0.66412592  0.33388230  0.66576741  1
  Ni  Ni50  1  0.82827039  0.49580434  0.82973057  1
  Cr  Cr51  1  0.82932960  0.82854299  0.49607973  1
  Ni  Ni52  1  0.66310128  0.66024642  0.66401762  1
  Cr  Cr53  1  0.83002861  0.83012244  0.83394390  1
" 