7876,Ni31Fe67Cr1_1,-234.78976119764, 201.905656042222,Ni31Fe67Cr1,"# generated using pymatgen
 data_Cr(Fe9Ni4)2
_symmetry_space_group_name_H-M   'P 1'
_cell_length_a   7.40698347
_cell_length_b   7.40698347
_cell_length_c   10.47505647
_cell_angle_alpha   90.00000000
_cell_angle_beta   90.00000000
_cell_angle_gamma   90.00000000
_symmetry_Int_Tables_number   1
_chemical_formula_structural   Cr(Fe9Ni4)2
_chemical_formula_sum   'Cr2 Fe36 Ni16'
_cell_volume   574.69725580
_cell_formula_units_Z   2
loop_
 _symmetry_equiv_pos_site_id
 _symmetry_equiv_pos_as_xyz
  1  'x, y, z'
loop_
 _atom_site_type_symbol
 _atom_site_label
 _atom_site_symmetry_multiplicity
 _atom_site_fract_x
 _atom_site_fract_y
 _atom_site_fract_z
 _atom_site_occupancy
  Fe  Fe0  1  1.00393052  1.00403917  0.00456633  1
  Ni  Ni1  1  0.17032150  0.17062086  0.17053746  1
  Ni  Ni2  1  0.00410446  0.00415660  0.33770639  1
  Ni  Ni3  1  1.00328834  0.33663633  0.00475550  1
  Fe  Fe4  1  0.17110753  0.50375238  0.17057859  1
  Fe  Fe5  1  0.00447267  0.33701806  0.33712118  1
  Fe  Fe6  1  1.00402947  0.67055038  1.00365974  1
  Ni  Ni7  1  0.17052107  0.83741755  0.17056960  1
  Fe  Fe8  1  0.00421463  0.67089241  0.33815704  1
  Ni  Ni9  1  0.33645581  1.00245787  1.00404433  1
  Cr  Cr10  1  0.50341006  0.17108029  0.16943109  1
  Fe  Fe11  1  0.33612228  1.00384702  0.33727003  1
  Fe  Fe12  1  0.33684992  0.33840322  1.00395801  1
  Fe  Fe13  1  0.50332091  0.50529249  0.17053144  1
  Ni  Ni14  1  0.33687524  0.33798414  0.33801302  1
  Ni  Ni15  1  0.33816255  0.67221874  0.00447965  1
  Fe  Fe16  1  0.50314256  0.83636089  0.16983797  1
  Fe  Fe17  1  0.33693566  0.67094597  0.33679197  1
  Fe  Fe18  1  0.67111144  1.00315670  1.00281402  1
  Fe  Fe19  1  0.83944661  0.17049609  0.17021237  1
  Fe  Fe20  1  0.67139388  1.00356767  0.33831253  1
  Ni  Ni21  1  0.67246160  0.33840385  1.00346618  1
  Fe  Fe22  1  0.83775144  0.50374707  0.17063672  1
  Fe  Fe23  1  0.67147541  0.33778059  0.33824478  1
  Ni  Ni24  1  0.66997937  0.67055706  1.00395077  1
  Fe  Fe25  1  0.83794538  0.83790195  0.17101604  1
  Fe  Fe26  1  0.67102251  0.67083540  0.33730478  1
  Fe  Fe27  1  0.17073291  0.17005267  0.50256534  1
  Fe  Fe28  1  1.00316689  1.00279312  0.67041124  1
  Fe  Fe29  1  0.17093983  0.16935070  0.83870873  1
  Fe  Fe30  1  0.17068679  0.50525876  0.50353996  1
  Cr  Cr31  1  1.00250157  0.33764169  0.66978926  1
  Fe  Fe32  1  0.17071467  0.50525529  0.83804816  1
  Fe  Fe33  1  0.16966744  0.83694460  0.50371207  1
  Ni  Ni34  1  1.00402235  0.67222259  0.67078959  1
  Fe  Fe35  1  0.17054635  0.83758751  0.83781133  1
  Fe  Fe36  1  0.50480423  0.17111679  0.50388164  1
  Fe  Fe37  1  0.33742123  0.00411808  0.67127345  1
  Fe  Fe38  1  0.50496332  0.17014095  0.83754834  1
  Fe  Fe39  1  0.50476772  0.50404893  0.50390067  1
  Fe  Fe40  1  0.33839468  0.33777122  0.67004342  1
  Fe  Fe41  1  0.50511834  0.50431196  0.83774425  1
  Fe  Fe42  1  0.50472496  0.83701047  0.50447059  1
  Fe  Fe43  1  0.33739756  0.67028444  0.67132220  1
  Ni  Ni44  1  0.50427882  0.83716346  0.83775030  1
  Fe  Fe45  1  0.83653210  0.17001836  0.50372845  1
  Fe  Fe46  1  0.67155497  1.00383349  0.67102228  1
  Ni  Ni47  1  0.83676727  0.17028585  0.83812165  1
  Ni  Ni48  1  0.83685615  0.50511915  0.50391204  1
  Ni  Ni49  1  0.66986153  0.33727821  0.67032553  1
  Fe  Fe50  1  0.83628207  0.50479070  0.83774914  1
  Ni  Ni51  1  0.83766216  0.83653501  0.50450571  1
  Fe  Fe52  1  0.67155131  0.67058902  0.67097837  1
  Ni  Ni53  1  0.83717631  0.83730254  0.83732505  1
" 