3493,Ni31Fe67Cr1_6,-235.182010125263, 205.101707429723,Ni31Fe67Cr1,"# generated using pymatgen
 data_Cr(Fe9Ni4)2
_symmetry_space_group_name_H-M   'P 1'
_cell_length_a   7.40450309
_cell_length_b   7.40450309
_cell_length_c   10.47154869
_cell_angle_alpha   90.00000000
_cell_angle_beta   90.00000000
_cell_angle_gamma   90.00000000
_symmetry_Int_Tables_number   1
_chemical_formula_structural   Cr(Fe9Ni4)2
_chemical_formula_sum   'Cr2 Fe36 Ni16'
_cell_volume   574.12010249
_cell_formula_units_Z   2
loop_
 _symmetry_equiv_pos_site_id
 _symmetry_equiv_pos_as_xyz
  1  'x, y, z'
loop_
 _atom_site_type_symbol
 _atom_site_label
 _atom_site_symmetry_multiplicity
 _atom_site_fract_x
 _atom_site_fract_y
 _atom_site_fract_z
 _atom_site_occupancy
  Ni  Ni0  1  0.00533876  1.00175727  1.00414539  1
  Ni  Ni1  1  0.17232304  0.16991494  0.17166166  1
  Fe  Fe2  1  0.00454098  1.00393264  0.33788420  1
  Cr  Cr3  1  0.00619488  0.33683093  1.00336447  1
  Fe  Fe4  1  0.17199024  0.50496172  0.17241055  1
  Ni  Ni5  1  0.00559106  0.33824806  0.33840078  1
  Fe  Fe6  1  0.00448756  0.67245506  0.00425498  1
  Ni  Ni7  1  0.17160210  0.83783835  0.17053577  1
  Fe  Fe8  1  1.00393782  0.67104846  0.33764623  1
  Fe  Fe9  1  0.33666924  0.00521927  0.00447244  1
  Fe  Fe10  1  0.50188366  0.17014562  0.17057476  1
  Fe  Fe11  1  0.33737278  0.00450512  0.33666090  1
  Ni  Ni12  1  0.33907134  0.33752676  0.00468819  1
  Fe  Fe13  1  0.50347526  0.50406210  0.17069129  1
  Fe  Fe14  1  0.33728393  0.33727276  0.33731414  1
  Fe  Fe15  1  0.33720196  0.67090438  1.00403422  1
  Ni  Ni16  1  0.50375747  0.83635987  0.17055215  1
  Fe  Fe17  1  0.33755889  0.67089070  0.33803851  1
  Fe  Fe18  1  0.67000622  0.00435661  1.00416046  1
  Cr  Cr19  1  0.83771053  0.17053522  0.17085197  1
  Ni  Ni20  1  0.66998918  1.00263455  0.33851962  1
  Ni  Ni21  1  0.66794354  0.33842812  1.00380789  1
  Fe  Fe22  1  0.83720873  0.50681661  0.17150364  1
  Fe  Fe23  1  0.67060267  0.33787458  0.33831857  1
  Fe  Fe24  1  0.67098055  0.67026131  1.00399477  1
  Fe  Fe25  1  0.83799007  0.83674131  0.17133664  1
  Fe  Fe26  1  0.67117548  0.67113523  0.33815159  1
  Fe  Fe27  1  0.17013099  0.17175748  0.50397779  1
  Fe  Fe28  1  1.00422120  1.00323050  0.67160715  1
  Ni  Ni29  1  0.17108440  0.16970243  0.83700956  1
  Ni  Ni30  1  0.17245568  0.50427325  0.50478673  1
  Fe  Fe31  1  0.00444096  0.33829094  0.67025475  1
  Fe  Fe32  1  0.17215953  0.50505682  0.83610301  1
  Fe  Fe33  1  0.17067171  0.83675559  0.50458788  1
  Fe  Fe34  1  0.00444176  0.67114902  0.67076971  1
  Ni  Ni35  1  0.17080727  0.83794439  0.83776896  1
  Fe  Fe36  1  0.50505205  0.17111448  0.50397489  1
  Fe  Fe37  1  0.33759861  1.00323497  0.67153651  1
  Fe  Fe38  1  0.50334351  0.17094782  0.83812348  1
  Ni  Ni39  1  0.50350836  0.50462756  0.50437624  1
  Fe  Fe40  1  0.33785522  0.33876174  0.67117655  1
  Fe  Fe41  1  0.50333760  0.50413201  0.83710305  1
  Fe  Fe42  1  0.50501281  0.83689372  0.50396878  1
  Ni  Ni43  1  0.33829386  0.67101038  0.67067032  1
  Fe  Fe44  1  0.50331067  0.83759169  0.83745083  1
  Ni  Ni45  1  0.83738423  0.17005516  0.50495139  1
  Fe  Fe46  1  0.67084752  1.00323797  0.66976096  1
  Fe  Fe47  1  0.83763647  0.16958264  0.83689028  1
  Fe  Fe48  1  0.83762782  0.50412250  0.50419460  1
  Fe  Fe49  1  0.67037504  0.33854354  0.67110192  1
  Fe  Fe50  1  0.83717307  0.50502362  0.83696979  1
  Ni  Ni51  1  0.83702866  0.83894761  0.50375871  1
  Ni  Ni52  1  0.66981175  0.67135766  0.67014568  1
  Fe  Fe53  1  0.83856552  0.83806118  0.83706889  1
" 