4162,Ni31Fe60Cr8_5,-234.025555649369, 197.386841908744,Ni31Fe60Cr8,"# generated using pymatgen
 data_Cr5Fe32Ni17
_symmetry_space_group_name_H-M   'P 1'
_cell_length_a   7.41737351
_cell_length_b   7.41737351
_cell_length_c   10.48975022
_cell_angle_alpha   90.00000000
_cell_angle_beta   90.00000000
_cell_angle_gamma   90.00000000
_symmetry_Int_Tables_number   1
_chemical_formula_structural   Cr5Fe32Ni17
_chemical_formula_sum   'Cr5 Fe32 Ni17'
_cell_volume   577.11909634
_cell_formula_units_Z   1
loop_
 _symmetry_equiv_pos_site_id
 _symmetry_equiv_pos_as_xyz
  1  'x, y, z'
loop_
 _atom_site_type_symbol
 _atom_site_label
 _atom_site_symmetry_multiplicity
 _atom_site_fract_x
 _atom_site_fract_y
 _atom_site_fract_z
 _atom_site_occupancy
  Fe  Fe0  1  1.00328819  0.00449077  0.00546536  1
  Fe  Fe1  1  0.16833921  0.16951814  0.17088657  1
  Fe  Fe2  1  1.00243992  0.00364410  0.33732312  1
  Ni  Ni3  1  1.00148830  0.33762795  0.00443041  1
  Fe  Fe4  1  0.16710685  0.50418143  0.17147258  1
  Fe  Fe5  1  1.00248908  0.33659043  0.33666000  1
  Ni  Ni6  1  1.00142042  0.67014797  0.00369391  1
  Fe  Fe7  1  0.16829128  0.83768061  0.17131241  1
  Ni  Ni8  1  0.00370050  0.67157582  0.33657798  1
  Fe  Fe9  1  0.33607017  0.00491675  1.00307771  1
  Fe  Fe10  1  0.50583667  0.16947981  0.17121044  1
  Fe  Fe11  1  0.33607587  0.00402521  0.33784826  1
  Cr  Cr12  1  0.33716457  0.33537405  1.00280237  1
  Fe  Fe13  1  0.50609850  0.50245336  0.17148982  1
  Fe  Fe14  1  0.33741477  0.33766116  0.33525071  1
  Cr  Cr15  1  0.33565800  0.67216097  1.00257497  1
  Fe  Fe16  1  0.50402261  0.83801693  0.17156501  1
  Ni  Ni17  1  0.33640122  0.67244901  0.33687366  1
  Fe  Fe18  1  0.67027344  1.00226195  0.00513047  1
  Ni  Ni19  1  0.83628271  0.16962411  0.17076258  1
  Fe  Fe20  1  0.67100139  1.00179957  0.33693927  1
  Ni  Ni21  1  0.67127341  0.33450298  1.00252916  1
  Fe  Fe22  1  0.83620122  0.50167728  0.17060648  1
  Ni  Ni23  1  0.67036590  0.33435278  0.33790566  1
  Fe  Fe24  1  0.67121545  0.66722114  1.00288053  1
  Fe  Fe25  1  0.83705919  0.83597273  0.17002927  1
  Fe  Fe26  1  0.67008500  0.66886439  0.33727594  1
  Ni  Ni27  1  0.16948187  0.17047558  0.50283107  1
  Fe  Fe28  1  0.00344147  0.00395811  0.66700942  1
  Ni  Ni29  1  0.16972998  0.17155271  0.83674585  1
  Cr  Cr30  1  0.17304516  0.50366032  0.50366853  1
  Ni  Ni31  1  1.00241116  0.33753671  0.66981320  1
  Ni  Ni32  1  0.17092100  0.50247442  0.83601105  1
  Fe  Fe33  1  0.16812490  0.83904877  0.50383191  1
  Ni  Ni34  1  1.00111565  0.66970438  0.67003828  1
  Cr  Cr35  1  0.16655167  0.83776235  0.83411156  1
  Fe  Fe36  1  0.50346394  0.16970260  0.50319996  1
  Ni  Ni37  1  0.33845853  0.00458442  0.66929382  1
  Fe  Fe38  1  0.50282815  0.16903439  0.83537761  1
  Fe  Fe39  1  0.50664620  0.50266178  0.50283218  1
  Fe  Fe40  1  0.33536071  0.33536994  0.67180070  1
  Ni  Ni41  1  0.50458076  0.50376645  0.83499155  1
  Fe  Fe42  1  0.50226542  0.83785007  0.50320881  1
  Fe  Fe43  1  0.33766039  0.66961463  0.67001641  1
  Fe  Fe44  1  0.50399226  0.83822340  0.83521322  1
  Ni  Ni45  1  0.83661742  0.16841879  0.50256813  1
  Fe  Fe46  1  0.67196690  1.00152844  0.66811225  1
  Cr  Cr47  1  0.83812019  0.16765592  0.83636071  1
  Fe  Fe48  1  0.83765579  0.50253667  0.50273650  1
  Fe  Fe49  1  0.66976739  0.33721586  0.66870548  1
  Fe  Fe50  1  0.83889357  0.50418549  0.83695992  1
  Ni  Ni51  1  0.83525709  0.83708973  0.50221568  1
  Fe  Fe52  1  0.67113308  0.67094626  0.66999404  1
  Ni  Ni53  1  0.83426428  0.83598923  0.83859632  1
" 