4128,Ni32Fe26Cr40_5,-223.740866036123, 181.878178763651,Ni32Fe26Cr40,"# generated using pymatgen
 data_Cr23Fe14Ni17
_symmetry_space_group_name_H-M   'P 1'
_cell_length_a   7.49181861
_cell_length_b   7.49181861
_cell_length_c   10.59503148
_cell_angle_alpha   90.00000000
_cell_angle_beta   90.00000000
_cell_angle_gamma   90.00000000
_symmetry_Int_Tables_number   1
_chemical_formula_structural   Cr23Fe14Ni17
_chemical_formula_sum   'Cr23 Fe14 Ni17'
_cell_volume   594.67099790
_cell_formula_units_Z   1
loop_
 _symmetry_equiv_pos_site_id
 _symmetry_equiv_pos_as_xyz
  1  'x, y, z'
loop_
 _atom_site_type_symbol
 _atom_site_label
 _atom_site_symmetry_multiplicity
 _atom_site_fract_x
 _atom_site_fract_y
 _atom_site_fract_z
 _atom_site_occupancy
  Cr  Cr0  1  -0.00131844  0.99752505  0.99748718  1
  Ni  Ni1  1  0.16415562  0.16635650  0.16419981  1
  Fe  Fe2  1  0.00051572  0.99626998  0.33385805  1
  Ni  Ni3  1  0.00121025  0.33381388  0.99709397  1
  Cr  Cr4  1  0.16584523  0.49925514  0.16065179  1
  Cr  Cr5  1  -0.00093193  0.33534481  0.33184204  1
  Ni  Ni6  1  0.99748632  0.66297431  0.99609346  1
  Cr  Cr7  1  0.16526362  0.83106524  0.16594094  1
  Ni  Ni8  1  0.99745803  0.66543888  0.33514849  1
  Cr  Cr9  1  0.33220357  0.99745445  0.99670793  1
  Cr  Cr10  1  0.49571615  0.16619701  0.16416996  1
  Cr  Cr11  1  0.33046694  0.99775131  0.33297201  1
  Ni  Ni12  1  0.32858432  0.33280153  -0.00143350  1
  Ni  Ni13  1  0.49791478  0.50345298  0.16377964  1
  Cr  Cr14  1  0.33111197  0.33325608  0.33138687  1
  Ni  Ni15  1  0.33218369  0.66399439  0.99695679  1
  Ni  Ni16  1  0.49748158  0.82489248  0.16394487  1
  Ni  Ni17  1  0.32959975  0.66573974  0.33206664  1
  Cr  Cr18  1  0.66453391  0.99432232  0.99459774  1
  Cr  Cr19  1  0.83671997  0.16571269  0.16331323  1
  Cr  Cr20  1  0.66464275  0.99589900  0.33209437  1
  Cr  Cr21  1  0.66559512  0.33441964  0.00060957  1
  Ni  Ni22  1  0.83157718  0.50132131  0.16426772  1
  Cr  Cr23  1  0.66502751  0.33565103  0.33079580  1
  Ni  Ni24  1  0.66534201  0.66556105  0.00110013  1
  Cr  Cr25  1  0.83279594  0.82865297  0.16678846  1
  Fe  Fe26  1  0.66505233  0.66386016  0.33052918  1
  Fe  Fe27  1  0.16504271  0.16300298  0.49772217  1
  Cr  Cr28  1  -0.00057643  0.99539097  0.66517799  1
  Fe  Fe29  1  0.16347899  0.16814382  0.83348253  1
  Fe  Fe30  1  0.16322003  0.50253326  0.49841692  1
  Fe  Fe31  1  0.99715703  0.33322251  0.66549835  1
  Fe  Fe32  1  0.16410775  0.49976789  0.83380403  1
  Ni  Ni33  1  0.16196005  0.82863432  0.49841731  1
  Fe  Fe34  1  0.99763157  0.66454301  0.66398614  1
  Fe  Fe35  1  0.16430244  0.82660499  0.83180278  1
  Ni  Ni36  1  0.49807140  0.16710589  0.50089809  1
  Cr  Cr37  1  0.33091263  0.99713497  0.66596352  1
  Fe  Fe38  1  0.49908802  0.16702012  0.83100736  1
  Cr  Cr39  1  0.49860031  0.49876171  0.49877233  1
  Cr  Cr40  1  0.32961124  0.33186155  0.66332074  1
  Cr  Cr41  1  0.49651682  0.49925768  0.83234479  1
  Cr  Cr42  1  0.49798680  0.82949096  0.49872576  1
  Fe  Fe43  1  0.33062085  0.66565381  0.66541006  1
  Fe  Fe44  1  0.50001248  0.82716564  0.83220903  1
  Cr  Cr45  1  0.83114424  0.16493813  0.49988901  1
  Cr  Cr46  1  0.66482406  0.99692652  0.66838979  1
  Fe  Fe47  1  0.83258550  0.16663836  0.83099874  1
  Fe  Fe48  1  0.83244212  0.50221040  0.49985750  1
  Ni  Ni49  1  0.66598416  0.33336281  0.66399394  1
  Cr  Cr50  1  0.83217832  0.49912434  0.83085333  1
  Ni  Ni51  1  0.83590720  0.82859811  0.49779589  1
  Ni  Ni52  1  0.66863315  0.66472416  0.66363645  1
  Ni  Ni53  1  0.83304966  0.82992423  0.83138933  1
" 