8286,Ni32Fe26Cr40_6,-223.204252769908, 178.008116504173,Ni32Fe26Cr40,"# generated using pymatgen
 data_Cr23Fe14Ni17
_symmetry_space_group_name_H-M   'P 1'
_cell_length_a   7.49053003
_cell_length_b   7.49053003
_cell_length_c   10.59320916
_cell_angle_alpha   90.00000000
_cell_angle_beta   90.00000000
_cell_angle_gamma   90.00000000
_symmetry_Int_Tables_number   1
_chemical_formula_structural   Cr23Fe14Ni17
_chemical_formula_sum   'Cr23 Fe14 Ni17'
_cell_volume   594.36420547
_cell_formula_units_Z   1
loop_
 _symmetry_equiv_pos_site_id
 _symmetry_equiv_pos_as_xyz
  1  'x, y, z'
loop_
 _atom_site_type_symbol
 _atom_site_label
 _atom_site_symmetry_multiplicity
 _atom_site_fract_x
 _atom_site_fract_y
 _atom_site_fract_z
 _atom_site_occupancy
  Fe  Fe0  1  0.99803907  0.00068441  0.99745845  1
  Cr  Cr1  1  0.16522624  0.16521383  0.16215015  1
  Ni  Ni2  1  0.99768812  0.00029717  0.33344911  1
  Ni  Ni3  1  0.99732092  0.33426946  0.99758523  1
  Cr  Cr4  1  0.16550182  0.49993457  0.16594100  1
  Cr  Cr5  1  0.99545833  0.33256002  0.33473030  1
  Ni  Ni6  1  0.99419473  0.66126663  0.00019408  1
  Cr  Cr7  1  0.16382498  0.83045251  0.16668537  1
  Fe  Fe8  1  -0.00102528  0.66444911  0.33188004  1
  Cr  Cr9  1  0.33426104  0.00013595  -0.00079218  1
  Ni  Ni10  1  0.50095933  0.16655640  0.16530735  1
  Fe  Fe11  1  0.33410539  0.99756367  0.33198819  1
  Ni  Ni12  1  0.33305172  0.33136465  -0.00126744  1
  Ni  Ni13  1  0.50023841  0.49678581  0.16262274  1
  Cr  Cr14  1  0.33219909  0.33098078  0.33019913  1
  Cr  Cr15  1  0.33511663  0.66433567  -0.00033885  1
  Ni  Ni16  1  0.49914818  0.83217722  0.16784073  1
  Ni  Ni17  1  0.33465946  0.66656392  0.33274524  1
  Ni  Ni18  1  0.66380555  0.99779808  0.00173354  1
  Cr  Cr19  1  0.82891137  0.16602763  0.16396821  1
  Fe  Fe20  1  0.66286359  0.00089411  0.33191472  1
  Ni  Ni21  1  0.66520019  0.33385173  0.00027488  1
  Ni  Ni22  1  0.82966282  0.49811279  0.16346609  1
  Fe  Fe23  1  0.66437134  0.33114516  0.33071057  1
  Fe  Fe24  1  0.66570983  0.66200759  -0.00006031  1
  Cr  Cr25  1  0.83332981  0.83258388  0.16287035  1
  Cr  Cr26  1  0.66478630  0.66535170  0.32767621  1
  Fe  Fe27  1  0.16396120  0.16284930  0.49785854  1
  Ni  Ni28  1  -0.00122925  -0.00066187  0.66551506  1
  Ni  Ni29  1  0.16301185  0.16677425  0.83327023  1
  Fe  Fe30  1  0.16418059  0.49908410  0.49802762  1
  Cr  Cr31  1  0.99772928  0.33061088  0.66249524  1
  Cr  Cr32  1  0.16645741  0.49888783  0.83236788  1
  Cr  Cr33  1  0.16461229  0.82851610  0.49772516  1
  Ni  Ni34  1  0.99466197  0.66293204  0.66261831  1
  Cr  Cr35  1  0.16097838  0.83143861  0.83090365  1
  Ni  Ni36  1  0.50175385  0.16668674  0.49605446  1
  Cr  Cr37  1  0.33101568  0.00004860  0.66368580  1
  Cr  Cr38  1  0.50031885  0.17012460  0.83394274  1
  Cr  Cr39  1  0.49778560  0.49767434  0.50163558  1
  Cr  Cr40  1  0.33021370  0.32999811  0.66642347  1
  Fe  Fe41  1  0.50159013  0.49728228  0.83253183  1
  Fe  Fe42  1  0.49926824  0.83255683  0.49694184  1
  Fe  Fe43  1  0.33103888  0.66518895  0.66380440  1
  Cr  Cr44  1  0.50073402  0.82833421  0.82918854  1
  Ni  Ni45  1  0.82956213  0.16541874  0.49784890  1
  Cr  Cr46  1  0.66526552  0.99716511  0.66177727  1
  Cr  Cr47  1  0.83168392  0.16525238  0.83382295  1
  Fe  Fe48  1  0.83021132  0.49816404  0.49884350  1
  Fe  Fe49  1  0.66739821  0.33290510  0.66432250  1
  Fe  Fe50  1  0.83096037  0.49869134  0.83345496  1
  Cr  Cr51  1  0.83396871  0.83305467  0.49867716  1
  Ni  Ni52  1  0.66631967  0.66214341  0.66708976  1
  Cr  Cr53  1  0.83329489  0.83087126  0.83359614  1
" 