2105,Ni32Fe26Cr40_15,-223.404369778534, 179.255980530071,Ni32Fe26Cr40,"# generated using pymatgen
 data_Cr23Fe14Ni17
_symmetry_space_group_name_H-M   'P 1'
_cell_length_a   7.49252396
_cell_length_b   7.49252396
_cell_length_c   10.59602900
_cell_angle_alpha   90.00000000
_cell_angle_beta   90.00000000
_cell_angle_gamma   90.00000000
_symmetry_Int_Tables_number   1
_chemical_formula_structural   Cr23Fe14Ni17
_chemical_formula_sum   'Cr23 Fe14 Ni17'
_cell_volume   594.83897840
_cell_formula_units_Z   1
loop_
 _symmetry_equiv_pos_site_id
 _symmetry_equiv_pos_as_xyz
  1  'x, y, z'
loop_
 _atom_site_type_symbol
 _atom_site_label
 _atom_site_symmetry_multiplicity
 _atom_site_fract_x
 _atom_site_fract_y
 _atom_site_fract_z
 _atom_site_occupancy
  Fe  Fe0  1  0.00188231  0.00003454  0.99796140  1
  Ni  Ni1  1  0.16454521  0.16404241  0.16482217  1
  Ni  Ni2  1  -0.00168003  0.00035010  0.33159919  1
  Fe  Fe3  1  0.99770190  0.32867162  -0.00053128  1
  Cr  Cr4  1  0.16485864  0.49685147  0.16675703  1
  Ni  Ni5  1  0.00037551  0.32803950  0.32870886  1
  Cr  Cr6  1  -0.00001419  0.66558102  0.99683857  1
  Fe  Fe7  1  0.16663043  0.83351373  0.16489186  1
  Cr  Cr8  1  -0.00052702  0.66746345  0.33322505  1
  Ni  Ni9  1  0.32880821  0.99774725  -0.00039810  1
  Fe  Fe10  1  0.49730137  0.16509974  0.16506989  1
  Cr  Cr11  1  0.33004280  -0.00055594  0.33134433  1
  Cr  Cr12  1  0.33071507  0.33060455  0.99750314  1
  Fe  Fe13  1  0.49700157  0.49806925  0.16507179  1
  Ni  Ni14  1  0.33107083  0.33099479  0.33278649  1
  Ni  Ni15  1  0.33004340  0.66708308  -0.00025357  1
  Fe  Fe16  1  0.49456547  0.83173602  0.16480034  1
  Ni  Ni17  1  0.33211593  0.66365336  0.32947094  1
  Cr  Cr18  1  0.66575648  0.00071426  -0.00027052  1
  Fe  Fe19  1  0.83467672  0.16665920  0.16558121  1
  Ni  Ni20  1  0.66634086  -0.00060128  0.33093338  1
  Fe  Fe21  1  0.66629475  0.33109860  -0.00006464  1
  Ni  Ni22  1  0.83077968  0.49440217  0.16370529  1
  Cr  Cr23  1  0.66339230  0.33014669  0.32995669  1
  Cr  Cr24  1  0.66468756  0.66408441  -0.00006468  1
  Cr  Cr25  1  0.83132106  0.83393363  0.16751571  1
  Cr  Cr26  1  0.66438333  0.66613510  0.33147823  1
  Ni  Ni27  1  0.16600001  0.16244425  0.49797977  1
  Ni  Ni28  1  0.00039979  0.99521824  0.66642098  1
  Fe  Fe29  1  0.16315224  0.16173517  0.83213304  1
  Cr  Cr30  1  0.16527339  0.49716142  0.49592066  1
  Cr  Cr31  1  0.00049660  0.33009393  0.66675599  1
  Fe  Fe32  1  0.16449370  0.49909554  0.83225429  1
  Ni  Ni33  1  0.16384468  0.83473754  0.49871271  1
  Ni  Ni34  1  0.99669907  0.66988525  0.66576851  1
  Fe  Fe35  1  0.16383119  0.83398223  0.83094526  1
  Fe  Fe36  1  0.49570426  0.16388540  0.49728469  1
  Ni  Ni37  1  0.32692100  -0.00064592  0.66469123  1
  Cr  Cr38  1  0.49753851  0.16232794  0.83074545  1
  Fe  Fe39  1  0.49685065  0.49890335  0.49731637  1
  Cr  Cr40  1  0.33100110  0.32821135  0.66232592  1
  Cr  Cr41  1  0.49777007  0.50046796  0.83168761  1
  Cr  Cr42  1  0.49865224  0.83205853  0.49860734  1
  Cr  Cr43  1  0.32908753  0.66549384  0.66511201  1
  Cr  Cr44  1  0.49582382  0.83199366  0.83232908  1
  Cr  Cr45  1  0.83476102  0.16197633  0.49504453  1
  Cr  Cr46  1  0.66690501  0.99747519  0.66386791  1
  Ni  Ni47  1  0.83605730  0.16387556  0.83513599  1
  Cr  Cr48  1  0.83227123  0.50037578  0.49899627  1
  Cr  Cr49  1  0.66325724  0.33171156  0.66433118  1
  Cr  Cr50  1  0.83306874  0.49756188  0.83116786  1
  Ni  Ni51  1  0.83317703  0.83296803  0.50064659  1
  Ni  Ni52  1  0.66855851  0.66619349  0.66439925  1
  Fe  Fe53  1  0.83352754  0.83345335  0.82917438  1
" 