8135,Ni32Fe26Cr40_4,-223.180059826254, 171.626054231066,Ni32Fe26Cr40,"# generated using pymatgen
 data_Cr23Fe14Ni17
_symmetry_space_group_name_H-M   'P 1'
_cell_length_a   7.49452621
_cell_length_b   7.49452621
_cell_length_c   10.59886060
_cell_angle_alpha   90.00000000
_cell_angle_beta   90.00000000
_cell_angle_gamma   90.00000000
_symmetry_Int_Tables_number   1
_chemical_formula_structural   Cr23Fe14Ni17
_chemical_formula_sum   'Cr23 Fe14 Ni17'
_cell_volume   595.31598670
_cell_formula_units_Z   1
loop_
 _symmetry_equiv_pos_site_id
 _symmetry_equiv_pos_as_xyz
  1  'x, y, z'
loop_
 _atom_site_type_symbol
 _atom_site_label
 _atom_site_symmetry_multiplicity
 _atom_site_fract_x
 _atom_site_fract_y
 _atom_site_fract_z
 _atom_site_occupancy
  Fe  Fe0  1  -0.00156633  0.99626120  0.99703912  1
  Ni  Ni1  1  0.16653659  0.16365988  0.16608579  1
  Cr  Cr2  1  0.00158252  0.00166711  0.33430645  1
  Cr  Cr3  1  0.99813923  0.33477733  -0.00028891  1
  Cr  Cr4  1  0.16664652  0.50125316  0.16767795  1
  Ni  Ni5  1  0.00307679  0.33255134  0.33184444  1
  Fe  Fe6  1  0.99659835  0.66613023  0.99700548  1
  Ni  Ni7  1  0.16481288  0.83476593  0.16113363  1
  Cr  Cr8  1  -0.00119849  0.66437902  0.33021395  1
  Fe  Fe9  1  0.33425693  -0.00094416  0.99666372  1
  Ni  Ni10  1  0.49648289  0.16375742  0.16015531  1
  Cr  Cr11  1  0.32999356  0.99801564  0.33245903  1
  Cr  Cr12  1  0.33351931  0.33221286  -0.00131676  1
  Cr  Cr13  1  0.49870900  0.49730370  0.16807232  1
  Fe  Fe14  1  0.33063045  0.33046123  0.33092613  1
  Cr  Cr15  1  0.33003449  0.66770089  0.99478372  1
  Cr  Cr16  1  0.49610757  0.83093698  0.16768209  1
  Ni  Ni17  1  0.32941565  0.66700875  0.33518604  1
  Ni  Ni18  1  0.66277018  0.99670503  0.99430347  1
  Cr  Cr19  1  0.83152830  0.16297858  0.16273161  1
  Cr  Cr20  1  0.66190162  0.99624788  0.33524763  1
  Ni  Ni21  1  0.66481436  0.32906668  0.99530425  1
  Ni  Ni22  1  0.83218845  0.49704596  0.16427327  1
  Cr  Cr23  1  0.66803426  0.32987763  0.32761583  1
  Cr  Cr24  1  0.66415573  0.66182684  0.99744886  1
  Cr  Cr25  1  0.83202991  0.83020058  0.16464151  1
  Ni  Ni26  1  0.66165705  0.66233477  0.33207648  1
  Fe  Fe27  1  0.16699737  0.16852411  0.50013084  1
  Cr  Cr28  1  0.00074102  -0.00078870  0.66224875  1
  Cr  Cr29  1  0.16630868  0.16442825  0.83113045  1
  Fe  Fe30  1  0.16402668  0.49855567  0.49875840  1
  Ni  Ni31  1  0.00250169  0.33697979  0.66446897  1
  Fe  Fe32  1  0.16477142  0.50024806  0.82923405  1
  Ni  Ni33  1  0.16829233  0.82988916  0.50137638  1
  Fe  Fe34  1  -0.00175533  0.66582454  0.66643695  1
  Fe  Fe35  1  0.16583632  0.83203598  0.82988691  1
  Cr  Cr36  1  0.49578151  0.16788707  0.50181364  1
  Ni  Ni37  1  0.33154194  0.99712416  0.66624375  1
  Ni  Ni38  1  0.49779788  0.16526629  0.83151897  1
  Cr  Cr39  1  0.49441594  0.49986795  0.49727506  1
  Fe  Fe40  1  0.33183388  0.33237230  0.66764147  1
  Ni  Ni41  1  0.49773118  0.49763508  0.82859704  1
  Fe  Fe42  1  0.49510891  0.82850141  0.50052671  1
  Fe  Fe43  1  0.33057899  0.66577043  0.66599176  1
  Ni  Ni44  1  0.49859884  0.83070307  0.82777294  1
  Cr  Cr45  1  0.83413258  0.16830225  0.50048656  1
  Cr  Cr46  1  0.66194283  0.99421665  0.66428440  1
  Cr  Cr47  1  0.83081662  0.16289795  0.82983397  1
  Cr  Cr48  1  0.83042807  0.49797799  0.49902207  1
  Fe  Fe49  1  0.66410536  0.33288410  0.66824159  1
  Fe  Fe50  1  0.82922725  0.49786556  0.82958317  1
  Cr  Cr51  1  0.83117258  0.82814722  0.49747094  1
  Ni  Ni52  1  0.66254534  0.66236480  0.66665017  1
  Ni  Ni53  1  0.83266712  0.82734115  0.83110648  1
" 