4781,Ni32Fe26Cr40_19,-223.322423784583, 180.444696131239,Ni32Fe26Cr40,"# generated using pymatgen
 data_Cr23Fe14Ni17
_symmetry_space_group_name_H-M   'P 1'
_cell_length_a   7.48691247
_cell_length_b   7.48691247
_cell_length_c   10.58809316
_cell_angle_alpha   90.00000000
_cell_angle_beta   90.00000000
_cell_angle_gamma   90.00000000
_symmetry_Int_Tables_number   1
_chemical_formula_structural   Cr23Fe14Ni17
_chemical_formula_sum   'Cr23 Fe14 Ni17'
_cell_volume   593.50347429
_cell_formula_units_Z   1
loop_
 _symmetry_equiv_pos_site_id
 _symmetry_equiv_pos_as_xyz
  1  'x, y, z'
loop_
 _atom_site_type_symbol
 _atom_site_label
 _atom_site_symmetry_multiplicity
 _atom_site_fract_x
 _atom_site_fract_y
 _atom_site_fract_z
 _atom_site_occupancy
  Ni  Ni0  1  0.99655542  0.99782353  -0.00117911  1
  Ni  Ni1  1  0.16744754  0.16198343  0.16418906  1
  Cr  Cr2  1  0.00209802  0.99830909  0.32944486  1
  Cr  Cr3  1  0.99734286  0.32901332  0.99837745  1
  Cr  Cr4  1  0.16415799  0.49892127  0.16294813  1
  Cr  Cr5  1  -0.00054643  0.33418976  0.33540225  1
  Cr  Cr6  1  0.00357290  0.67110173  0.99854281  1
  Ni  Ni7  1  0.16652491  0.83240801  0.16687999  1
  Ni  Ni8  1  0.99863396  0.66894922  0.33312423  1
  Cr  Cr9  1  0.32961822  0.99569871  0.00099911  1
  Ni  Ni10  1  0.49905730  0.16340860  0.16374088  1
  Fe  Fe11  1  0.33377105  0.99756866  0.32990175  1
  Fe  Fe12  1  0.33247274  0.33221924  -0.00116873  1
  Fe  Fe13  1  0.49892587  0.49693805  0.16239514  1
  Cr  Cr14  1  0.33291252  0.33152259  0.32657077  1
  Ni  Ni15  1  0.33483070  0.66423141  0.99831019  1
  Cr  Cr16  1  0.50323572  0.83004658  0.16686020  1
  Cr  Cr17  1  0.33151991  0.66680585  0.33264388  1
  Fe  Fe18  1  0.66600565  -0.00095691  0.99712044  1
  Cr  Cr19  1  0.82998069  0.16608157  0.16628254  1
  Fe  Fe20  1  0.66376170  0.99638378  0.33283637  1
  Ni  Ni21  1  0.66046110  0.32953923  0.99694563  1
  Cr  Cr22  1  0.82828087  0.50308515  0.16774070  1
  Cr  Cr23  1  0.66280935  0.33214586  0.33686022  1
  Fe  Fe24  1  0.66497524  0.66504301  0.99818618  1
  Fe  Fe25  1  0.83386062  0.83357807  0.16519705  1
  Ni  Ni26  1  0.66437757  0.66636729  0.33240065  1
  Cr  Cr27  1  0.16619001  0.16470149  0.50011589  1
  Fe  Fe28  1  0.99761603  0.99681519  0.66643717  1
  Cr  Cr29  1  0.16639394  0.16653750  0.83104362  1
  Fe  Fe30  1  0.16849930  0.50184899  0.50051186  1
  Cr  Cr31  1  0.99668790  0.33361812  0.66255915  1
  Ni  Ni32  1  0.16979607  0.49913917  0.82965220  1
  Fe  Fe33  1  0.16793607  0.83107705  0.49986166  1
  Ni  Ni34  1  0.00196396  0.66751525  0.66370282  1
  Cr  Cr35  1  0.16579184  0.83043464  0.82734626  1
  Cr  Cr36  1  0.49440487  0.16175019  0.49912114  1
  Fe  Fe37  1  0.33231193  0.99667129  0.66417829  1
  Fe  Fe38  1  0.49878221  0.16734928  0.83412094  1
  Ni  Ni39  1  0.49734835  0.50072212  0.49843080  1
  Ni  Ni40  1  0.33344918  0.33562513  0.66816592  1
  Ni  Ni41  1  0.49523648  0.49810308  0.83538269  1
  Ni  Ni42  1  0.49772773  0.82981188  0.49833096  1
  Ni  Ni43  1  0.33168561  0.66364057  0.66337129  1
  Cr  Cr44  1  0.49829280  0.82961311  0.83064119  1
  Fe  Fe45  1  0.83031718  0.16219790  0.49909239  1
  Cr  Cr46  1  0.66594277  -0.00045652  0.66856669  1
  Ni  Ni47  1  0.83193044  0.16336725  0.83208800  1
  Fe  Fe48  1  0.83104015  0.50300339  0.49795004  1
  Cr  Cr49  1  0.66243648  0.33171974  0.66432014  1
  Cr  Cr50  1  0.83264981  0.50094385  0.83254143  1
  Cr  Cr51  1  0.83128677  0.83046722  0.49754044  1
  Cr  Cr52  1  0.66324456  0.66493547  0.66662452  1
  Ni  Ni53  1  0.83275506  0.83480300  0.83511132  1
" 