8461,Ni32Fe34Cr32_1,-226.258691047086, 186.500643595844,Ni32Fe34Cr32,"# generated using pymatgen
 data_Cr19Fe18Ni17
_symmetry_space_group_name_H-M   'P 1'
_cell_length_a   7.47281014
_cell_length_b   7.47281014
_cell_length_c   10.56814945
_cell_angle_alpha   90.00000000
_cell_angle_beta   90.00000000
_cell_angle_gamma   90.00000000
_symmetry_Int_Tables_number   1
_chemical_formula_structural   Cr19Fe18Ni17
_chemical_formula_sum   'Cr19 Fe18 Ni17'
_cell_volume   590.15602144
_cell_formula_units_Z   1
loop_
 _symmetry_equiv_pos_site_id
 _symmetry_equiv_pos_as_xyz
  1  'x, y, z'
loop_
 _atom_site_type_symbol
 _atom_site_label
 _atom_site_symmetry_multiplicity
 _atom_site_fract_x
 _atom_site_fract_y
 _atom_site_fract_z
 _atom_site_occupancy
  Fe  Fe0  1  0.00308413  0.99828187  -0.00005986  1
  Cr  Cr1  1  0.16662344  0.16554276  0.16905341  1
  Cr  Cr2  1  0.99738252  0.99529810  0.33467712  1
  Fe  Fe3  1  0.99952041  0.33246394  -0.00021847  1
  Fe  Fe4  1  0.16431551  0.50161391  0.16948678  1
  Ni  Ni5  1  0.99943694  0.33437422  0.33655782  1
  Fe  Fe6  1  0.99679736  0.66606438  0.00236495  1
  Ni  Ni7  1  0.16525419  0.83364981  0.16495410  1
  Ni  Ni8  1  0.00294739  0.66731185  0.33265199  1
  Fe  Fe9  1  0.33414012  0.00111914  0.99958644  1
  Ni  Ni10  1  0.50039138  0.16531540  0.16871178  1
  Fe  Fe11  1  0.33254473  0.99795941  0.33590893  1
  Cr  Cr12  1  0.33591870  0.33520882  0.00097607  1
  Cr  Cr13  1  0.50369613  0.49988752  0.16868085  1
  Cr  Cr14  1  0.33279928  0.33654059  0.33334113  1
  Cr  Cr15  1  0.32921097  0.66587597  0.00201885  1
  Cr  Cr16  1  0.49886135  0.83531048  0.17135709  1
  Ni  Ni17  1  0.32927810  0.66853592  0.33284278  1
  Cr  Cr18  1  0.67004378  -0.00027231  0.00117525  1
  Cr  Cr19  1  0.83314525  0.16742289  0.16708054  1
  Ni  Ni20  1  0.66708935  -0.00001606  0.33565281  1
  Ni  Ni21  1  0.66681065  0.33113897  0.99732484  1
  Cr  Cr22  1  0.83428427  0.49862322  0.16938010  1
  Ni  Ni23  1  0.66643846  0.32973516  0.33458739  1
  Fe  Fe24  1  0.66551251  0.66412662  0.00085296  1
  Ni  Ni25  1  0.83491951  0.83155905  0.16734582  1
  Ni  Ni26  1  0.66797051  0.66946475  0.33391200  1
  Fe  Fe27  1  0.16729563  0.16479049  0.49906386  1
  Cr  Cr28  1  0.99866544  0.99770689  0.66487581  1
  Fe  Fe29  1  0.16701511  0.16387875  0.83338727  1
  Ni  Ni30  1  0.16321615  0.50127219  0.49812812  1
  Fe  Fe31  1  0.00131595  0.33191824  0.66123794  1
  Cr  Cr32  1  0.16388530  0.49846761  0.83099590  1
  Ni  Ni33  1  0.16946194  0.83083289  0.50160274  1
  Fe  Fe34  1  -0.00015345  0.66561434  0.66186219  1
  Fe  Fe35  1  0.16615900  0.83195534  0.83241826  1
  Fe  Fe36  1  0.49773626  0.16449124  0.49693849  1
  Ni  Ni37  1  0.33072134  0.99770368  0.66646993  1
  Fe  Fe38  1  0.49950921  0.16620155  0.83345196  1
  Cr  Cr39  1  0.49929109  0.50571982  0.49820595  1
  Cr  Cr40  1  0.33390566  0.33410281  0.66560706  1
  Ni  Ni41  1  0.50030561  0.50050532  0.83230796  1
  Ni  Ni42  1  0.49676263  0.83442178  0.49884266  1
  Ni  Ni43  1  0.32939324  0.66628150  0.66589923  1
  Cr  Cr44  1  0.49745575  0.83140318  0.82991091  1
  Ni  Ni45  1  0.83465353  0.16917535  0.49739729  1
  Cr  Cr46  1  0.66691364  0.00083886  0.66169821  1
  Fe  Fe47  1  0.83535809  0.16766015  0.83299698  1
  Fe  Fe48  1  0.83379420  0.50199886  0.49627362  1
  Cr  Cr49  1  0.66660586  0.33253149  0.66502969  1
  Cr  Cr50  1  0.83178916  0.49883850  0.83026451  1
  Fe  Fe51  1  0.83240260  0.82960061  0.49750158  1
  Fe  Fe52  1  0.66385220  0.66788357  0.66340280  1
  Cr  Cr53  1  0.83345135  0.83124802  0.83320501  1
" 