2446,Ni32Fe34Cr32_3,-225.806810048673, 181.896446998432,Ni32Fe34Cr32,"# generated using pymatgen
 data_Cr19Fe18Ni17
_symmetry_space_group_name_H-M   'P 1'
_cell_length_a   7.47585198
_cell_length_b   7.47585198
_cell_length_c   10.57245125
_cell_angle_alpha   90.00000000
_cell_angle_beta   90.00000000
_cell_angle_gamma   90.00000000
_symmetry_Int_Tables_number   1
_chemical_formula_structural   Cr19Fe18Ni17
_chemical_formula_sum   'Cr19 Fe18 Ni17'
_cell_volume   590.87699093
_cell_formula_units_Z   1
loop_
 _symmetry_equiv_pos_site_id
 _symmetry_equiv_pos_as_xyz
  1  'x, y, z'
loop_
 _atom_site_type_symbol
 _atom_site_label
 _atom_site_symmetry_multiplicity
 _atom_site_fract_x
 _atom_site_fract_y
 _atom_site_fract_z
 _atom_site_occupancy
  Ni  Ni0  1  0.99835349  0.99728532  0.99736596  1
  Cr  Cr1  1  0.16605777  0.16640598  0.16521625  1
  Cr  Cr2  1  0.00102379  0.99939765  0.33526701  1
  Cr  Cr3  1  0.99642990  0.33242633  0.99799988  1
  Cr  Cr4  1  0.16565061  0.49934474  0.16758462  1
  Ni  Ni5  1  0.99714354  0.33465675  0.33108970  1
  Cr  Cr6  1  -0.00029567  0.66629203  0.99859798  1
  Cr  Cr7  1  0.16547703  0.83282969  0.16364814  1
  Fe  Fe8  1  0.99930219  0.66806018  0.33386847  1
  Fe  Fe9  1  0.33027367  0.99835827  0.99805406  1
  Cr  Cr10  1  0.49862417  0.16568443  0.16612820  1
  Ni  Ni11  1  0.33456397  0.99673652  0.33436800  1
  Fe  Fe12  1  0.33225343  0.33617209  0.99810834  1
  Ni  Ni13  1  0.50056186  0.49841799  0.16794719  1
  Fe  Fe14  1  0.33165338  0.33167540  0.33331842  1
  Fe  Fe15  1  0.33451685  0.66198137  0.99757415  1
  Cr  Cr16  1  0.50083223  0.83141464  0.16388150  1
  Fe  Fe17  1  0.33354833  0.66646334  0.33382900  1
  Cr  Cr18  1  0.67050544  0.99896203  -0.00020777  1
  Fe  Fe19  1  0.83294764  0.16536025  0.16787573  1
  Fe  Fe20  1  0.66694670  0.99782715  0.33397802  1
  Cr  Cr21  1  0.66525579  0.33598067  0.99852620  1
  Fe  Fe22  1  0.83008503  0.50146322  0.16855058  1
  Fe  Fe23  1  0.66505894  0.33319661  0.33270997  1
  Fe  Fe24  1  0.66848153  0.66491781  0.99915523  1
  Ni  Ni25  1  0.83262495  0.83214342  0.16775601  1
  Fe  Fe26  1  0.66574195  0.66819825  0.33307171  1
  Fe  Fe27  1  0.16603242  0.16252851  0.50036643  1
  Ni  Ni28  1  0.00260266  0.99378932  0.66649016  1
  Cr  Cr29  1  0.16685820  0.16357072  0.83210692  1
  Cr  Cr30  1  0.16540779  0.49827621  0.49885688  1
  Cr  Cr31  1  0.99750781  0.33373627  0.66946060  1
  Ni  Ni32  1  0.16685792  0.50087024  0.83234234  1
  Ni  Ni33  1  0.16785008  0.83109894  0.50056244  1
  Ni  Ni34  1  0.00157433  0.66758929  0.66666843  1
  Ni  Ni35  1  0.16470390  0.83088200  0.83280869  1
  Cr  Cr36  1  0.49684194  0.16731948  0.49994887  1
  Ni  Ni37  1  0.33101680  0.99524856  0.66421746  1
  Cr  Cr38  1  0.49861967  0.16715880  0.83202081  1
  Fe  Fe39  1  0.49954371  0.50365216  0.49988966  1
  Fe  Fe40  1  0.33195377  0.33341842  0.66666264  1
  Ni  Ni41  1  0.50008923  0.49961934  0.83036876  1
  Ni  Ni42  1  0.49878936  0.83347946  0.49808448  1
  Fe  Fe43  1  0.33278067  0.66660367  0.66640841  1
  Cr  Cr44  1  0.49984395  0.83150837  0.83473454  1
  Cr  Cr45  1  0.83270026  0.16751932  0.50162167  1
  Cr  Cr46  1  0.66638968  0.99912570  0.66512660  1
  Fe  Fe47  1  0.83300235  0.16528642  0.83034394  1
  Cr  Cr48  1  0.83248988  0.50264982  0.49902216  1
  Ni  Ni49  1  0.66266867  0.33843828  0.66734375  1
  Ni  Ni50  1  0.83154803  0.50289321  0.83057375  1
  Ni  Ni51  1  0.83379032  0.83198209  0.50038188  1
  Fe  Fe52  1  0.66720760  0.66768937  0.66577863  1
  Ni  Ni53  1  0.83591238  0.83061579  0.83074846  1
" 