1027,Ni32Fe34Cr32_6,-225.946105726065, 190.182182181106,Ni32Fe34Cr32,"# generated using pymatgen
 data_Cr19Fe18Ni17
_symmetry_space_group_name_H-M   'P 1'
_cell_length_a   7.47175826
_cell_length_b   7.47175826
_cell_length_c   10.56666186
_cell_angle_alpha   90.00000000
_cell_angle_beta   90.00000000
_cell_angle_gamma   90.00000000
_symmetry_Int_Tables_number   1
_chemical_formula_structural   Cr19Fe18Ni17
_chemical_formula_sum   'Cr19 Fe18 Ni17'
_cell_volume   589.90684395
_cell_formula_units_Z   1
loop_
 _symmetry_equiv_pos_site_id
 _symmetry_equiv_pos_as_xyz
  1  'x, y, z'
loop_
 _atom_site_type_symbol
 _atom_site_label
 _atom_site_symmetry_multiplicity
 _atom_site_fract_x
 _atom_site_fract_y
 _atom_site_fract_z
 _atom_site_occupancy
  Cr  Cr0  1  0.00105120  0.00330568  0.99887121  1
  Ni  Ni1  1  0.16424432  0.16792954  0.16907276  1
  Ni  Ni2  1  0.99914853  0.00241092  0.33509288  1
  Fe  Fe3  1  0.00027607  0.33065024  0.00117709  1
  Cr  Cr4  1  0.16547229  0.49914694  0.16350471  1
  Ni  Ni5  1  0.99754623  0.33128593  0.33075364  1
  Fe  Fe6  1  0.99591901  0.66988401  0.00021011  1
  Cr  Cr7  1  0.16234647  0.83309830  0.17132425  1
  Ni  Ni8  1  0.00127749  0.66477755  0.33463508  1
  Cr  Cr9  1  0.33173144  0.99823145  0.00307183  1
  Cr  Cr10  1  0.50094729  0.16412694  0.16968266  1
  Fe  Fe11  1  0.32957614  0.00137277  0.33441600  1
  Fe  Fe12  1  0.33312172  0.32912971  0.00053013  1
  Cr  Cr13  1  0.49918764  0.49997207  0.16973597  1
  Fe  Fe14  1  0.32874673  0.33053225  0.33396461  1
  Fe  Fe15  1  0.33471674  0.66863972  -0.00006754  1
  Fe  Fe16  1  0.50052918  0.83401274  0.16903293  1
  Ni  Ni17  1  0.33381515  0.66773386  0.33291855  1
  Ni  Ni18  1  0.66647356  0.99732418  0.99730938  1
  Ni  Ni19  1  0.83381136  0.16334062  0.16690481  1
  Ni  Ni20  1  0.66678919  0.00276468  0.33373028  1
  Cr  Cr21  1  0.67055207  0.33224610  0.00255795  1
  Fe  Fe22  1  0.83467544  0.49870343  0.16868706  1
  Fe  Fe23  1  0.67008816  0.33211967  0.33441481  1
  Ni  Ni24  1  0.66425694  0.66725904  0.00172899  1
  Cr  Cr25  1  0.83110207  0.83486778  0.16848053  1
  Fe  Fe26  1  0.67082080  0.66714949  0.33432474  1
  Fe  Fe27  1  0.16266528  0.16608386  0.49873798  1
  Ni  Ni28  1  0.00025126  0.00294121  0.66567894  1
  Ni  Ni29  1  0.16598511  0.16680707  0.83208855  1
  Cr  Cr30  1  0.16517010  0.49803185  0.50131222  1
  Ni  Ni31  1  0.99825912  0.32921562  0.66642329  1
  Cr  Cr32  1  0.16639769  0.49769843  0.83444116  1
  Fe  Fe33  1  0.16565843  0.83345621  0.49642015  1
  Cr  Cr34  1  -0.00003883  0.66917860  0.66382800  1
  Fe  Fe35  1  0.16424885  0.83371686  0.83282019  1
  Ni  Ni36  1  0.49852829  0.16558434  0.49791346  1
  Cr  Cr37  1  0.33004973  0.99694889  0.66401017  1
  Cr  Cr38  1  0.50081449  0.16446021  0.83030923  1
  Cr  Cr39  1  0.49673198  0.49707855  0.49950854  1
  Fe  Fe40  1  0.32917424  0.32973855  0.66478550  1
  Cr  Cr41  1  0.49710809  0.49790934  0.83088435  1
  Cr  Cr42  1  0.50307990  0.83516641  0.49661831  1
  Ni  Ni43  1  0.33229025  0.66917921  0.66815026  1
  Fe  Fe44  1  0.50071247  0.83229457  0.83366827  1
  Fe  Fe45  1  0.83392239  0.16599429  0.49698111  1
  Fe  Fe46  1  0.67075203  0.99888281  0.66432628  1
  Fe  Fe47  1  0.83549340  0.16579509  0.83243323  1
  Ni  Ni48  1  0.83606474  0.50044752  0.49516847  1
  Cr  Cr49  1  0.67082628  0.33147590  0.66157556  1
  Cr  Cr50  1  0.83487179  0.50308229  0.83498084  1
  Ni  Ni51  1  0.83697278  0.83686832  0.49770033  1
  Cr  Cr52  1  0.66661521  0.66581151  0.66364531  1
  Ni  Ni53  1  0.83214925  0.83711442  0.83250242  1
" 