7785,Ni32Fe68_2,-243.106398928402, 219.815819636027,Ni32Fe68,"# generated using pymatgen
 data_Fe17Ni37
_symmetry_space_group_name_H-M   'P 1'
_cell_length_a   7.41246784
_cell_length_b   7.41246784
_cell_length_c   10.48281255
_cell_angle_alpha   90.00000000
_cell_angle_beta   90.00000000
_cell_angle_gamma   90.00000000
_symmetry_Int_Tables_number   1
_chemical_formula_structural   Fe17Ni37
_chemical_formula_sum   'Fe17 Ni37'
_cell_volume   575.97477520
_cell_formula_units_Z   1
loop_
 _symmetry_equiv_pos_site_id
 _symmetry_equiv_pos_as_xyz
  1  'x, y, z'
loop_
 _atom_site_type_symbol
 _atom_site_label
 _atom_site_symmetry_multiplicity
 _atom_site_fract_x
 _atom_site_fract_y
 _atom_site_fract_z
 _atom_site_occupancy
  Ni  Ni0  1  0.00452274  0.00489492  0.00452520  1
  Ni  Ni1  1  0.16986619  0.17165065  0.17076867  1
  Fe  Fe2  1  1.00360928  1.00314077  0.33679828  1
  Ni  Ni3  1  1.00331993  0.33594728  1.00320195  1
  Ni  Ni4  1  0.16864280  0.50375862  0.17010995  1
  Ni  Ni5  1  0.00369683  0.33715183  0.33665119  1
  Ni  Ni6  1  0.00453099  0.67020549  0.00389409  1
  Fe  Fe7  1  0.17136149  0.83718475  0.16983967  1
  Ni  Ni8  1  0.00404079  0.66877384  0.33630394  1
  Fe  Fe9  1  0.33677287  1.00343992  0.00372526  1
  Ni  Ni10  1  0.50414597  0.16849588  0.17021536  1
  Ni  Ni11  1  0.33828955  1.00353288  0.33664791  1
  Fe  Fe12  1  0.33625233  0.33784564  1.00313980  1
  Fe  Fe13  1  0.50298425  0.50390032  0.16937814  1
  Fe  Fe14  1  0.33664928  0.33721718  0.33706960  1
  Ni  Ni15  1  0.33750107  0.67091608  0.00395958  1
  Ni  Ni16  1  0.50465755  0.83754864  0.17023609  1
  Ni  Ni17  1  0.33735938  0.67127328  0.33689054  1
  Fe  Fe18  1  0.67076600  1.00340510  0.00372636  1
  Fe  Fe19  1  0.83733028  0.17059325  0.17003886  1
  Ni  Ni20  1  0.66873470  0.00387266  0.33642428  1
  Ni  Ni21  1  0.67058553  0.33679718  0.00417969  1
  Fe  Fe22  1  0.83715942  0.50340892  0.17068969  1
  Fe  Fe23  1  0.67039493  0.33689881  0.33742905  1
  Ni  Ni24  1  0.66901114  0.66971723  0.00389273  1
  Fe  Fe25  1  0.83703904  0.83703912  0.17035081  1
  Ni  Ni26  1  0.66964501  0.67094795  0.33673671  1
  Fe  Fe27  1  0.17028010  0.17084159  0.50394698  1
  Ni  Ni28  1  0.00401574  0.00467672  0.66954327  1
  Ni  Ni29  1  0.16899016  0.17084361  0.83644549  1
  Ni  Ni30  1  0.16839151  0.50452888  0.50381579  1
  Ni  Ni31  1  1.00366794  0.33648105  0.67118979  1
  Ni  Ni32  1  0.16954034  0.50445277  0.83711817  1
  Fe  Fe33  1  0.17050238  0.83679635  0.50436134  1
  Ni  Ni34  1  0.00406321  0.66988911  0.67084897  1
  Ni  Ni35  1  0.17057205  0.83574974  0.83737711  1
  Ni  Ni36  1  0.50513248  0.16816886  0.50383462  1
  Ni  Ni37  1  0.33739786  0.00393842  0.67085341  1
  Ni  Ni38  1  0.50502125  0.16949737  0.83699625  1
  Fe  Fe39  1  0.50433483  0.50365927  0.50468009  1
  Ni  Ni40  1  0.33701565  0.33648608  0.67054151  1
  Ni  Ni41  1  0.50345378  0.50479059  0.83668725  1
  Ni  Ni42  1  0.50391907  0.83797292  0.50379526  1
  Ni  Ni43  1  0.33735621  0.67062013  0.67019558  1
  Ni  Ni44  1  0.50378159  0.83675670  0.83701402  1
  Ni  Ni45  1  0.83628370  0.17099648  0.50291875  1
  Ni  Ni46  1  0.66963267  0.00433174  0.67107049  1
  Ni  Ni47  1  0.83703373  0.17052132  0.83725604  1
  Ni  Ni48  1  0.83908777  0.50331460  0.50381449  1
  Ni  Ni49  1  0.67036139  0.33643890  0.66984882  1
  Fe  Fe50  1  0.83679575  0.50319012  0.83672089  1
  Fe  Fe51  1  0.83627667  0.83669956  0.50370447  1
  Ni  Ni52  1  0.66962508  0.67027240  0.67041521  1
  Fe  Fe53  1  0.83740518  0.83733395  0.83699000  1
" 