3735,Ni32Fe34Cr32_19,-226.015372169085, 182.154127013528,Ni32Fe34Cr32,"# generated using pymatgen
 data_Cr19Fe18Ni17
_symmetry_space_group_name_H-M   'P 1'
_cell_length_a   7.47637579
_cell_length_b   7.47637579
_cell_length_c   10.57319204
_cell_angle_alpha   90.00000000
_cell_angle_beta   90.00000000
_cell_angle_gamma   90.00000000
_symmetry_Int_Tables_number   1
_chemical_formula_structural   Cr19Fe18Ni17
_chemical_formula_sum   'Cr19 Fe18 Ni17'
_cell_volume   591.00120378
_cell_formula_units_Z   1
loop_
 _symmetry_equiv_pos_site_id
 _symmetry_equiv_pos_as_xyz
  1  'x, y, z'
loop_
 _atom_site_type_symbol
 _atom_site_label
 _atom_site_symmetry_multiplicity
 _atom_site_fract_x
 _atom_site_fract_y
 _atom_site_fract_z
 _atom_site_occupancy
  Fe  Fe0  1  0.99697402  0.00276369  0.99898610  1
  Cr  Cr1  1  0.16631228  0.16547225  0.16931926  1
  Fe  Fe2  1  0.99443027  -0.00019137  0.33284922  1
  Ni  Ni3  1  0.99911456  0.32982169  0.99888035  1
  Cr  Cr4  1  0.16404035  0.49765749  0.16693886  1
  Fe  Fe5  1  0.99465182  0.33124474  0.33206881  1
  Fe  Fe6  1  0.99813454  0.66737158  0.99926097  1
  Cr  Cr7  1  0.16407496  0.83550267  0.16688051  1
  Fe  Fe8  1  0.99533484  0.66684601  0.33358606  1
  Ni  Ni9  1  0.33338177  0.00112997  0.00010955  1
  Fe  Fe10  1  0.50226447  0.16482272  0.16738148  1
  Ni  Ni11  1  0.33529401  -0.00038423  0.33078370  1
  Fe  Fe12  1  0.33512595  0.32943831  -0.00048626  1
  Cr  Cr13  1  0.50226297  0.49710076  0.16718210  1
  Ni  Ni14  1  0.33451407  0.33071040  0.33213129  1
  Cr  Cr15  1  0.33274555  0.66805131  0.99900798  1
  Fe  Fe16  1  0.50319798  0.83616324  0.16665319  1
  Cr  Cr17  1  0.33597769  0.66788896  0.33381131  1
  Ni  Ni18  1  0.66550471  0.00262345  0.00102295  1
  Ni  Ni19  1  0.83124542  0.16464211  0.16656266  1
  Ni  Ni20  1  0.66690119  0.99923501  0.33257083  1
  Ni  Ni21  1  0.66923120  0.32835174  -0.00005052  1
  Cr  Cr22  1  0.83138102  0.49891967  0.16349234  1
  Ni  Ni23  1  0.66856646  0.33173035  0.33339737  1
  Ni  Ni24  1  0.66589854  0.66812689  0.00247239  1
  Fe  Fe25  1  0.83016943  0.83484135  0.16580835  1
  Ni  Ni26  1  0.66866443  0.66743776  0.33408515  1
  Cr  Cr27  1  0.16497428  0.16486890  0.49473036  1
  Ni  Ni28  1  0.99869839  0.00185173  0.66687685  1
  Fe  Fe29  1  0.16521825  0.16544254  0.83478191  1
  Cr  Cr30  1  0.16532981  0.49757503  0.49678624  1
  Cr  Cr31  1  0.99589449  0.33049248  0.66566617  1
  Fe  Fe32  1  0.16570594  0.49752031  0.83365142  1
  Cr  Cr33  1  0.16590053  0.83538943  0.49893605  1
  Cr  Cr34  1  0.00003122  0.66638669  0.66696024  1
  Fe  Fe35  1  0.16482684  0.83489948  0.83358791  1
  Cr  Cr36  1  0.50010390  0.16523230  0.49929981  1
  Cr  Cr37  1  0.33249040  0.99843037  0.66800776  1
  Fe  Fe38  1  0.50332010  0.16626003  0.83372566  1
  Fe  Fe39  1  0.50070690  0.49806369  0.49796024  1
  Fe  Fe40  1  0.33263257  0.33332959  0.66568695  1
  Cr  Cr41  1  0.50032365  0.49700412  0.83095119  1
  Ni  Ni42  1  0.50144585  0.83369156  0.49827543  1
  Ni  Ni43  1  0.33284432  0.66598745  0.66487944  1
  Cr  Cr44  1  0.50113618  0.83405266  0.83270560  1
  Fe  Fe45  1  0.83127189  0.16456602  0.49848037  1
  Fe  Fe46  1  0.66905490  0.00081491  0.66504206  1
  Ni  Ni47  1  0.83284308  0.16541026  0.83210030  1
  Ni  Ni48  1  0.82984478  0.49811744  0.49636948  1
  Ni  Ni49  1  0.66719170  0.33015771  0.66478911  1
  Cr  Cr50  1  0.83021047  0.49793399  0.83760954  1
  Fe  Fe51  1  0.83197628  0.83486525  0.49835548  1
  Cr  Cr52  1  0.66503465  0.66462029  0.66078632  1
  Cr  Cr53  1  0.83190658  0.83602966  0.83460452  1
" 