4896,Ni32Fe34Cr32_8,-225.848084580139, 179.624925042031,Ni32Fe34Cr32,"# generated using pymatgen
 data_Cr19Fe18Ni17
_symmetry_space_group_name_H-M   'P 1'
_cell_length_a   7.47615983
_cell_length_b   7.47615983
_cell_length_c   10.57288663
_cell_angle_alpha   90.00000000
_cell_angle_beta   90.00000000
_cell_angle_gamma   90.00000000
_symmetry_Int_Tables_number   1
_chemical_formula_structural   Cr19Fe18Ni17
_chemical_formula_sum   'Cr19 Fe18 Ni17'
_cell_volume   590.94999168
_cell_formula_units_Z   1
loop_
 _symmetry_equiv_pos_site_id
 _symmetry_equiv_pos_as_xyz
  1  'x, y, z'
loop_
 _atom_site_type_symbol
 _atom_site_label
 _atom_site_symmetry_multiplicity
 _atom_site_fract_x
 _atom_site_fract_y
 _atom_site_fract_z
 _atom_site_occupancy
  Ni  Ni0  1  0.99506727  0.00116294  0.99817029  1
  Ni  Ni1  1  0.16423301  0.16885095  0.16231668  1
  Cr  Cr2  1  0.99538598  0.99928401  0.33342351  1
  Fe  Fe3  1  0.00061549  0.32997203  -0.00020843  1
  Ni  Ni4  1  0.16794098  0.49473371  0.16717144  1
  Ni  Ni5  1  0.99741740  0.33188119  0.33121759  1
  Cr  Cr6  1  0.99710616  0.66554056  -0.00029177  1
  Cr  Cr7  1  0.16504738  0.83395674  0.16716967  1
  Cr  Cr8  1  0.00112279  0.66572551  0.33314782  1
  Cr  Cr9  1  0.33371773  0.00243911  0.00133848  1
  Fe  Fe10  1  0.50214168  0.16715497  0.16662213  1
  Cr  Cr11  1  0.33622950  0.99867107  0.33324968  1
  Fe  Fe12  1  0.33054974  0.33272532  0.00084727  1
  Ni  Ni13  1  0.49996464  0.49986759  0.16642799  1
  Cr  Cr14  1  0.33477716  0.33461874  0.32971978  1
  Cr  Cr15  1  0.33289161  0.66145220  -0.00004815  1
  Fe  Fe16  1  0.50176096  0.82985933  0.16722223  1
  Ni  Ni17  1  0.33577625  0.66392490  0.33540054  1
  Ni  Ni18  1  0.67014607  0.00070139  0.00185699  1
  Fe  Fe19  1  0.83350440  0.16641966  0.16558844  1
  Fe  Fe20  1  0.66623312  0.99911233  0.33310108  1
  Cr  Cr21  1  0.66486971  0.33302319  0.99782518  1
  Cr  Cr22  1  0.83084954  0.49977301  0.16802618  1
  Ni  Ni23  1  0.66503732  0.33075149  0.33479525  1
  Fe  Fe24  1  0.66681124  0.66879739  -0.00041008  1
  Ni  Ni25  1  0.82762030  0.83532056  0.16401917  1
  Fe  Fe26  1  0.66337083  0.66652831  0.33378836  1
  Cr  Cr27  1  0.16291696  0.16731783  0.50071365  1
  Ni  Ni28  1  0.99617708  0.99936424  0.66644611  1
  Fe  Fe29  1  0.16122051  0.16692770  0.83332047  1
  Fe  Fe30  1  0.16880597  0.50051508  0.49796841  1
  Fe  Fe31  1  0.99695696  0.33120115  0.66711442  1
  Fe  Fe32  1  0.16427407  0.49665312  0.83336282  1
  Fe  Fe33  1  0.16768236  0.83069285  0.49997216  1
  Cr  Cr34  1  0.99799789  0.66731068  0.66504891  1
  Cr  Cr35  1  0.16508071  0.83549345  0.83039953  1
  Ni  Ni36  1  0.50108877  0.16754022  0.49796261  1
  Cr  Cr37  1  0.33278319  0.99932537  0.66299683  1
  Cr  Cr38  1  0.49975422  0.16649341  0.83291493  1
  Ni  Ni39  1  0.50079420  0.50084998  0.50088373  1
  Cr  Cr40  1  0.33544715  0.33512427  0.66718098  1
  Fe  Fe41  1  0.50240913  0.50057266  0.83164691  1
  Ni  Ni42  1  0.50151046  0.82958874  0.49846445  1
  Fe  Fe43  1  0.33511915  0.66605914  0.66338925  1
  Cr  Cr44  1  0.50282702  0.83104789  0.83367229  1
  Fe  Fe45  1  0.82961216  0.16594139  0.49927335  1
  Cr  Cr46  1  0.66850440  -0.00019992  0.66375917  1
  Ni  Ni47  1  0.83598242  0.16661466  0.83183810  1
  Cr  Cr48  1  0.83113227  0.49729579  0.49815451  1
  Fe  Fe49  1  0.66826385  0.33333243  0.66543038  1
  Fe  Fe50  1  0.83126663  0.49917268  0.83138632  1
  Ni  Ni51  1  0.83046033  0.83246700  0.50028362  1
  Ni  Ni52  1  0.66651582  0.66411718  0.66766082  1
  Ni  Ni53  1  0.83231942  0.83402423  0.83435935  1
" 