7356,Ni32Fe34Cr32_15,-225.888319384309, 181.805136266599,Ni32Fe34Cr32,"# generated using pymatgen
 data_Cr19Fe18Ni17
_symmetry_space_group_name_H-M   'P 1'
_cell_length_a   7.47575478
_cell_length_b   7.47575478
_cell_length_c   10.57231380
_cell_angle_alpha   90.00000000
_cell_angle_beta   90.00000000
_cell_angle_gamma   90.00000000
_symmetry_Int_Tables_number   1
_chemical_formula_structural   Cr19Fe18Ni17
_chemical_formula_sum   'Cr19 Fe18 Ni17'
_cell_volume   590.85394418
_cell_formula_units_Z   1
loop_
 _symmetry_equiv_pos_site_id
 _symmetry_equiv_pos_as_xyz
  1  'x, y, z'
loop_
 _atom_site_type_symbol
 _atom_site_label
 _atom_site_symmetry_multiplicity
 _atom_site_fract_x
 _atom_site_fract_y
 _atom_site_fract_z
 _atom_site_occupancy
  Ni  Ni0  1  0.00084694  0.99827854  0.00092935  1
  Fe  Fe1  1  0.16384164  0.16541267  0.16518135  1
  Fe  Fe2  1  0.99828709  0.00294956  0.33309115  1
  Ni  Ni3  1  0.00131551  0.33503009  0.00036544  1
  Cr  Cr4  1  0.16597799  0.50265663  0.16951599  1
  Ni  Ni5  1  0.00072621  0.33464556  0.33233114  1
  Ni  Ni6  1  0.00126627  0.66584475  0.00029044  1
  Ni  Ni7  1  0.16609147  0.83235275  0.16575809  1
  Fe  Fe8  1  0.99835025  0.66736024  0.33296045  1
  Fe  Fe9  1  0.33151088  0.99743980  0.00009708  1
  Cr  Cr10  1  0.50166205  0.16486114  0.16384661  1
  Cr  Cr11  1  0.33394079  0.99775609  0.32871155  1
  Cr  Cr12  1  0.33150485  0.33337883  0.99683251  1
  Cr  Cr13  1  0.50164572  0.50113153  0.16552713  1
  Cr  Cr14  1  0.33206834  0.33243408  0.33685550  1
  Fe  Fe15  1  0.33292467  0.66684776  0.99862850  1
  Fe  Fe16  1  0.49986855  0.83187405  0.16495836  1
  Fe  Fe17  1  0.33551635  0.66637557  0.33392298  1
  Ni  Ni18  1  0.66438276  0.99540697  0.99871612  1
  Cr  Cr19  1  0.83207364  0.16746244  0.16411397  1
  Ni  Ni20  1  0.66559944  0.99490568  0.33686431  1
  Ni  Ni21  1  0.66659941  0.33512483  -0.00038854  1
  Fe  Fe22  1  0.83483976  0.50086045  0.16452181  1
  Cr  Cr23  1  0.66739001  0.33335072  0.33260303  1
  Fe  Fe24  1  0.66680350  0.66664193  0.99792182  1
  Cr  Cr25  1  0.83403978  0.83300416  0.16792875  1
  Fe  Fe26  1  0.66387721  0.66708887  0.33510528  1
  Fe  Fe27  1  0.16633181  0.16731765  0.49874643  1
  Cr  Cr28  1  0.99718358  0.99858926  0.66372693  1
  Fe  Fe29  1  0.16592581  0.16688820  0.83490847  1
  Fe  Fe30  1  0.16782475  0.50038260  0.50025382  1
  Cr  Cr31  1  0.00168579  0.33389221  0.66800210  1
  Ni  Ni32  1  0.16817985  0.50136726  0.83015445  1
  Cr  Cr33  1  0.16444758  0.83045910  0.49815660  1
  Ni  Ni34  1  0.99931749  0.66390210  0.66480632  1
  Cr  Cr35  1  0.16518791  0.82977225  0.83399056  1
  Fe  Fe36  1  0.50114661  0.16492609  0.50067967  1
  Cr  Cr37  1  0.33392466  -0.00018421  0.66828132  1
  Cr  Cr38  1  0.50321727  0.16690983  0.83183484  1
  Ni  Ni39  1  0.49880525  0.50013014  0.50213258  1
  Fe  Fe40  1  0.33520096  0.33587431  0.66544937  1
  Ni  Ni41  1  0.49810398  0.50069564  0.83066113  1
  Ni  Ni42  1  0.49852074  0.83149645  0.49859690  1
  Fe  Fe43  1  0.33576149  0.66521356  0.66621737  1
  Ni  Ni44  1  0.49864498  0.83092222  0.83483584  1
  Fe  Fe45  1  0.83003238  0.16487384  0.49894948  1
  Ni  Ni46  1  0.66194975  0.99635166  0.66207417  1
  Cr  Cr47  1  0.83118889  0.16507872  0.83461133  1
  Cr  Cr48  1  0.83295050  0.49916235  0.49854962  1
  Ni  Ni49  1  0.66402987  0.33433003  0.66446959  1
  Cr  Cr50  1  0.83256548  0.49934013  0.83628772  1
  Fe  Fe51  1  0.82813634  0.83073192  0.50010189  1
  Ni  Ni52  1  0.66319609  0.66632822  0.66605020  1
  Cr  Cr53  1  0.83214167  0.83332531  0.82883368  1
" 