190,Ni32Fe26Cr40_13,-223.526154645171, 178.211832878582,Ni32Fe26Cr40,"# generated using pymatgen
 data_Cr23Fe14Ni17
_symmetry_space_group_name_H-M   'P 1'
_cell_length_a   7.49257800
_cell_length_b   7.49257800
_cell_length_c   10.59610543
_cell_angle_alpha   90.00000000
_cell_angle_beta   90.00000000
_cell_angle_gamma   90.00000000
_symmetry_Int_Tables_number   1
_chemical_formula_structural   Cr23Fe14Ni17
_chemical_formula_sum   'Cr23 Fe14 Ni17'
_cell_volume   594.85185056
_cell_formula_units_Z   1
loop_
 _symmetry_equiv_pos_site_id
 _symmetry_equiv_pos_as_xyz
  1  'x, y, z'
loop_
 _atom_site_type_symbol
 _atom_site_label
 _atom_site_symmetry_multiplicity
 _atom_site_fract_x
 _atom_site_fract_y
 _atom_site_fract_z
 _atom_site_occupancy
  Ni  Ni0  1  -0.00062313  0.99789044  0.99824654  1
  Cr  Cr1  1  0.16465279  0.16457186  0.16615215  1
  Cr  Cr2  1  0.99745432  0.99766516  0.33300858  1
  Cr  Cr3  1  0.99797509  0.33021751  -0.00078754  1
  Fe  Fe4  1  0.16482563  0.49858881  0.16483012  1
  Fe  Fe5  1  0.00026318  0.33230928  0.33328065  1
  Cr  Cr6  1  0.00204954  0.66774333  -0.00018581  1
  Fe  Fe7  1  0.16392273  0.83338288  0.16602518  1
  Ni  Ni8  1  0.00114359  0.66265076  0.33337428  1
  Fe  Fe9  1  0.33074155  0.99614199  0.99778231  1
  Cr  Cr10  1  0.49514154  0.16364418  0.16635894  1
  Ni  Ni11  1  0.32728780  0.99792468  0.33248028  1
  Ni  Ni12  1  0.33156258  0.33207486  0.99794659  1
  Cr  Cr13  1  0.49604115  0.49768347  0.16268305  1
  Fe  Fe14  1  0.32666756  0.33244774  0.33232077  1
  Fe  Fe15  1  0.33048750  0.66882341  0.99779207  1
  Ni  Ni16  1  0.49501776  0.83195129  0.16540265  1
  Cr  Cr17  1  0.32739355  0.66530560  0.33025594  1
  Cr  Cr18  1  0.66626209  -0.00114483  -0.00122429  1
  Ni  Ni19  1  0.83463689  0.16253706  0.16337567  1
  Cr  Cr20  1  0.66633285  0.99801610  0.33204476  1
  Fe  Fe21  1  0.66558206  0.32881764  0.99770439  1
  Cr  Cr22  1  0.83350853  0.49902595  0.16553767  1
  Cr  Cr23  1  0.66876522  0.32987915  0.33125932  1
  Cr  Cr24  1  0.66398723  0.66768748  -0.00030876  1
  Ni  Ni25  1  0.83467183  0.83225169  0.16646780  1
  Cr  Cr26  1  0.66809746  0.66672533  0.33153738  1
  Ni  Ni27  1  0.16212899  0.16661306  0.49783363  1
  Ni  Ni28  1  -0.00127781  0.00136237  0.66377416  1
  Cr  Cr29  1  0.16326761  0.16299469  0.83195007  1
  Fe  Fe30  1  0.16265181  0.49894830  0.50044612  1
  Fe  Fe31  1  0.99805604  0.33028733  0.66350123  1
  Cr  Cr32  1  0.16474161  0.49930287  0.83067695  1
  Ni  Ni33  1  0.16189735  0.83232982  0.49974520  1
  Fe  Fe34  1  -0.00004479  0.66778096  0.66169375  1
  Fe  Fe35  1  0.16566095  0.83293975  0.83007119  1
  Cr  Cr36  1  0.49374619  0.16599288  0.49543701  1
  Cr  Cr37  1  0.32927593  0.99724012  0.66503800  1
  Ni  Ni38  1  0.49751785  0.16519857  0.83348529  1
  Cr  Cr39  1  0.49787327  0.49812624  0.50027055  1
  Fe  Fe40  1  0.33035301  0.33051684  0.66560311  1
  Cr  Cr41  1  0.49879315  0.49819563  0.83173013  1
  Cr  Cr42  1  0.49785734  0.83020828  0.49736809  1
  Ni  Ni43  1  0.33006527  0.66328702  0.66655585  1
  Ni  Ni44  1  0.49635350  0.83094700  0.83094174  1
  Ni  Ni45  1  0.83665223  0.16590159  0.49972774  1
  Cr  Cr46  1  0.66655725  -0.00078695  0.66369329  1
  Ni  Ni47  1  0.83227703  0.16448546  0.83161424  1
  Fe  Fe48  1  0.83555937  0.49875431  0.49994768  1
  Fe  Fe49  1  0.66619130  0.32895845  0.66454475  1
  Cr  Cr50  1  0.83134756  0.49853933  0.82833064  1
  Ni  Ni51  1  0.83722462  0.82978908  0.49949219  1
  Ni  Ni52  1  0.66447481  0.66320069  0.66288046  1
  Cr  Cr53  1  0.83494920  0.83207300  0.82828579  1
" 