2762,Ni32Fe34Cr32_4,-226.471325166042, 185.623569026755,Ni32Fe34Cr32,"# generated using pymatgen
 data_Cr19Fe18Ni17
_symmetry_space_group_name_H-M   'P 1'
_cell_length_a   7.47525122
_cell_length_b   7.47525122
_cell_length_c   10.57160166
_cell_angle_alpha   90.00000000
_cell_angle_beta   90.00000000
_cell_angle_gamma   90.00000000
_symmetry_Int_Tables_number   1
_chemical_formula_structural   Cr19Fe18Ni17
_chemical_formula_sum   'Cr19 Fe18 Ni17'
_cell_volume   590.73455529
_cell_formula_units_Z   1
loop_
 _symmetry_equiv_pos_site_id
 _symmetry_equiv_pos_as_xyz
  1  'x, y, z'
loop_
 _atom_site_type_symbol
 _atom_site_label
 _atom_site_symmetry_multiplicity
 _atom_site_fract_x
 _atom_site_fract_y
 _atom_site_fract_z
 _atom_site_occupancy
  Fe  Fe0  1  0.99812902  0.99560652  -0.00024241  1
  Ni  Ni1  1  0.16904391  0.16621412  0.16513097  1
  Cr  Cr2  1  0.00074505  0.99728899  0.33248100  1
  Fe  Fe3  1  -0.00006781  0.33404010  -0.00005076  1
  Fe  Fe4  1  0.16621686  0.50025414  0.16313747  1
  Cr  Cr5  1  0.99878899  0.33433196  0.33196505  1
  Ni  Ni6  1  -0.00022452  0.66691512  0.00084871  1
  Fe  Fe7  1  0.16717565  0.83382619  0.16471155  1
  Fe  Fe8  1  0.99897807  0.66840937  0.33198778  1
  Fe  Fe9  1  0.33238988  0.99724691  0.00245470  1
  Ni  Ni10  1  0.49741459  0.16444368  0.16550328  1
  Ni  Ni11  1  0.33382771  0.99765226  0.32974104  1
  Fe  Fe12  1  0.33240720  0.33420441  0.00217036  1
  Ni  Ni13  1  0.49929734  0.50000439  0.16334620  1
  Cr  Cr14  1  0.33309345  0.33068035  0.33037490  1
  Fe  Fe15  1  0.33196158  0.66696073  0.00095868  1
  Ni  Ni16  1  0.50105461  0.83397065  0.16574026  1
  Cr  Cr17  1  0.33280032  0.66900378  0.33272288  1
  Ni  Ni18  1  0.66640906  0.99769617  0.99940941  1
  Cr  Cr19  1  0.83154409  0.16387533  0.16409736  1
  Ni  Ni20  1  0.66443841  0.99728629  0.33355113  1
  Fe  Fe21  1  0.66592805  0.33370193  0.00169309  1
  Fe  Fe22  1  0.83215631  0.50198404  0.16309931  1
  Cr  Cr23  1  0.66642647  0.33367114  0.33263440  1
  Ni  Ni24  1  0.66772226  0.66811251  0.00215848  1
  Ni  Ni25  1  0.83186510  0.83035398  0.16544594  1
  Cr  Cr26  1  0.66814180  0.66730691  0.33223345  1
  Cr  Cr27  1  0.16384607  0.16433219  0.49892361  1
  Fe  Fe28  1  0.99649135  0.99736148  0.66588635  1
  Cr  Cr29  1  0.16318168  0.16681992  0.83278788  1
  Cr  Cr30  1  0.16409522  0.50260439  0.50182986  1
  Ni  Ni31  1  0.99809274  0.33329215  0.66702197  1
  Ni  Ni32  1  0.16406495  0.50222789  0.83285395  1
  Ni  Ni33  1  0.16501078  0.83042350  0.49994248  1
  Ni  Ni34  1  0.00059333  0.66785288  0.66600930  1
  Ni  Ni35  1  0.16217095  0.82930921  0.83301095  1
  Cr  Cr36  1  0.50177253  0.16340423  0.49647800  1
  Cr  Cr37  1  0.33106246  0.99583428  0.66541292  1
  Cr  Cr38  1  0.50226273  0.16526357  0.83593370  1
  Fe  Fe39  1  0.49974271  0.50136612  0.49954494  1
  Cr  Cr40  1  0.33118090  0.33482018  0.66611059  1
  Cr  Cr41  1  0.49695222  0.50092156  0.83407277  1
  Fe  Fe42  1  0.49866010  0.83419768  0.49816179  1
  Fe  Fe43  1  0.32869498  0.66660540  0.66587614  1
  Cr  Cr44  1  0.50066454  0.83216014  0.83385509  1
  Ni  Ni45  1  0.83161115  0.16459266  0.50254753  1
  Fe  Fe46  1  0.67126027  0.99892167  0.66573996  1
  Fe  Fe47  1  0.83432894  0.16332501  0.83303050  1
  Fe  Fe48  1  0.83519604  0.49962612  0.50098977  1
  Cr  Cr49  1  0.66885284  0.33195822  0.66499227  1
  Cr  Cr50  1  0.83576900  0.50084796  0.83506301  1
  Fe  Fe51  1  0.83467623  0.83454072  0.49998984  1
  Cr  Cr52  1  0.66693956  0.66838259  0.66407230  1
  Ni  Ni53  1  0.83553148  0.83433555  0.83292754  1
" 