6175,Ni32Fe26Cr40_18,-223.080475236584, 172.563515412134,Ni32Fe26Cr40,"# generated using pymatgen
 data_Cr23Fe14Ni17
_symmetry_space_group_name_H-M   'P 1'
_cell_length_a   7.49036677
_cell_length_b   7.49036677
_cell_length_c   10.59297828
_cell_angle_alpha   90.00000000
_cell_angle_beta   90.00000000
_cell_angle_gamma   90.00000000
_symmetry_Int_Tables_number   1
_chemical_formula_structural   Cr23Fe14Ni17
_chemical_formula_sum   'Cr23 Fe14 Ni17'
_cell_volume   594.32534313
_cell_formula_units_Z   1
loop_
 _symmetry_equiv_pos_site_id
 _symmetry_equiv_pos_as_xyz
  1  'x, y, z'
loop_
 _atom_site_type_symbol
 _atom_site_label
 _atom_site_symmetry_multiplicity
 _atom_site_fract_x
 _atom_site_fract_y
 _atom_site_fract_z
 _atom_site_occupancy
  Fe  Fe0  1  0.00256886  0.99833563  0.99758588  1
  Ni  Ni1  1  0.16512716  0.16271908  0.16348739  1
  Cr  Cr2  1  -0.00012644  -0.00129856  0.33255227  1
  Ni  Ni3  1  0.99796069  0.33325914  0.99699395  1
  Cr  Cr4  1  0.16148087  0.49753094  0.16547563  1
  Cr  Cr5  1  0.99597439  0.33151324  0.33315597  1
  Ni  Ni6  1  0.99647266  0.66533322  0.99782502  1
  Fe  Fe7  1  0.16660133  0.83501601  0.16339740  1
  Cr  Cr8  1  0.99759451  0.66526632  0.33181032  1
  Ni  Ni9  1  0.33011956  0.99559884  -0.00129221  1
  Cr  Cr10  1  0.49753265  0.16212444  0.16726265  1
  Ni  Ni11  1  0.33110029  -0.00007093  0.32887602  1
  Cr  Cr12  1  0.33030513  0.32965683  0.99750513  1
  Cr  Cr13  1  0.49990561  0.49898055  0.16720986  1
  Fe  Fe14  1  0.33075934  0.33062488  0.33350863  1
  Cr  Cr15  1  0.33172149  0.66859488  0.99748684  1
  Ni  Ni16  1  0.49810128  0.83565382  0.16421669  1
  Cr  Cr17  1  0.33114419  0.66679842  0.33126976  1
  Fe  Fe18  1  0.66356461  0.99428328  0.99728053  1
  Cr  Cr19  1  0.83216199  0.16637684  0.16407978  1
  Fe  Fe20  1  0.66484826  0.99833859  0.33194117  1
  Cr  Cr21  1  0.66644936  0.33420039  0.99777537  1
  Ni  Ni22  1  0.83357429  0.49880652  0.16200153  1
  Ni  Ni23  1  0.66607672  0.33237780  0.33327893  1
  Fe  Fe24  1  0.66538318  0.66663300  0.99634383  1
  Cr  Cr25  1  0.83105816  0.83065174  0.16286414  1
  Cr  Cr26  1  0.66654790  0.66265294  0.33291939  1
  Fe  Fe27  1  0.16556770  0.16604822  0.49901927  1
  Ni  Ni28  1  0.00049499  0.00022842  0.66528845  1
  Fe  Fe29  1  0.16501120  0.16362380  0.83287647  1
  Ni  Ni30  1  0.16337710  0.49545739  0.49840370  1
  Fe  Fe31  1  -0.00037241  0.33118743  0.66478199  1
  Ni  Ni32  1  0.16103923  0.49864167  0.83216557  1
  Cr  Cr33  1  0.16526021  0.83246664  0.49922340  1
  Cr  Cr34  1  0.99635775  0.66538818  0.66388758  1
  Fe  Fe35  1  0.16513601  0.83333718  0.83194534  1
  Cr  Cr36  1  0.49788335  0.16434455  0.49514204  1
  Ni  Ni37  1  0.32753060  -0.00115728  0.66770308  1
  Cr  Cr38  1  0.49751860  0.16160086  0.83280792  1
  Ni  Ni39  1  0.49982098  0.49732335  0.49811872  1
  Cr  Cr40  1  0.33076636  0.33226021  0.66572954  1
  Ni  Ni41  1  0.49840719  0.50352248  0.83067064  1
  Cr  Cr42  1  0.49861772  0.83223198  0.49929475  1
  Cr  Cr43  1  0.33424499  0.66453159  0.66681534  1
  Ni  Ni44  1  0.49947335  0.83130562  0.83202500  1
  Fe  Fe45  1  0.83324658  0.16675815  0.49912613  1
  Cr  Cr46  1  0.66700783  0.99601599  0.66393648  1
  Cr  Cr47  1  0.83598114  0.16404985  0.83254893  1
  Ni  Ni48  1  0.83221775  0.49678938  0.50010344  1
  Cr  Cr49  1  0.66607457  0.33602041  0.66494589  1
  Fe  Fe50  1  0.83203496  0.50183025  0.83309708  1
  Fe  Fe51  1  0.83120525  0.82985319  0.49979345  1
  Ni  Ni52  1  0.66654897  0.66361654  0.66693024  1
  Fe  Fe53  1  0.83148297  0.82870910  0.83275075  1
" 