5198,Ni32Fe68_15,-243.351633059753, 222.107115207867,Ni32Fe68,"# generated using pymatgen
 data_Fe17Ni37
_symmetry_space_group_name_H-M   'P 1'
_cell_length_a   7.41150490
_cell_length_b   7.41150490
_cell_length_c   10.48145075
_cell_angle_alpha   90.00000000
_cell_angle_beta   90.00000000
_cell_angle_gamma   90.00000000
_symmetry_Int_Tables_number   1
_chemical_formula_structural   Fe17Ni37
_chemical_formula_sum   'Fe17 Ni37'
_cell_volume   575.75033372
_cell_formula_units_Z   1
loop_
 _symmetry_equiv_pos_site_id
 _symmetry_equiv_pos_as_xyz
  1  'x, y, z'
loop_
 _atom_site_type_symbol
 _atom_site_label
 _atom_site_symmetry_multiplicity
 _atom_site_fract_x
 _atom_site_fract_y
 _atom_site_fract_z
 _atom_site_occupancy
  Ni  Ni0  1  0.00421599  1.00295493  1.00357062  1
  Fe  Fe1  1  0.16964535  0.17048038  0.16979036  1
  Ni  Ni2  1  0.00412280  1.00238825  0.33723455  1
  Ni  Ni3  1  0.00419652  0.33678729  0.00412833  1
  Ni  Ni4  1  0.17052551  0.50396691  0.17031816  1
  Fe  Fe5  1  1.00272871  0.33705602  0.33700934  1
  Ni  Ni6  1  1.00237413  0.67149836  1.00288528  1
  Ni  Ni7  1  0.17016304  0.83719538  0.17010276  1
  Ni  Ni8  1  1.00230994  0.67162955  0.33719934  1
  Fe  Fe9  1  0.33623298  0.00374724  1.00335803  1
  Fe  Fe10  1  0.50354436  0.17087617  0.17156786  1
  Ni  Ni11  1  0.33663584  0.00507370  0.33710964  1
  Ni  Ni12  1  0.33762755  0.33644479  1.00317773  1
  Fe  Fe13  1  0.50406984  0.50419336  0.17034520  1
  Ni  Ni14  1  0.33814391  0.33604258  0.33731832  1
  Fe  Fe15  1  0.33642655  0.66969006  1.00309692  1
  Fe  Fe16  1  0.50421069  0.83617355  0.17031887  1
  Fe  Fe17  1  0.33703431  0.67097417  0.33743184  1
  Fe  Fe18  1  0.67175833  0.00391086  0.00384251  1
  Fe  Fe19  1  0.83805174  0.17034456  0.17034797  1
  Ni  Ni20  1  0.67048614  1.00327408  0.33708964  1
  Ni  Ni21  1  0.66941567  0.33828573  1.00328403  1
  Ni  Ni22  1  0.83688626  0.50366533  0.17064240  1
  Ni  Ni23  1  0.66897983  0.33784968  0.33723122  1
  Ni  Ni24  1  0.67122765  0.67001136  0.00389952  1
  Ni  Ni25  1  0.83791443  0.83683265  0.17043179  1
  Ni  Ni26  1  0.67166852  0.67011636  0.33699073  1
  Fe  Fe27  1  0.17029171  0.17027609  0.50453021  1
  Ni  Ni28  1  0.00424912  1.00354064  0.67043501  1
  Ni  Ni29  1  0.17031560  0.16955899  0.83717362  1
  Fe  Fe30  1  0.16998986  0.50359015  0.50365017  1
  Ni  Ni31  1  0.00421080  0.33659108  0.67046991  1
  Fe  Fe32  1  0.16982944  0.50379781  0.83740586  1
  Ni  Ni33  1  0.17015219  0.83760879  0.50341183  1
  Ni  Ni34  1  1.00241810  0.67111027  0.67115695  1
  Ni  Ni35  1  0.17080046  0.83827031  0.83772481  1
  Ni  Ni36  1  0.50360961  0.17173996  0.50425990  1
  Ni  Ni37  1  0.33657700  0.00452268  0.67064340  1
  Fe  Fe38  1  0.50364246  0.17031457  0.83679879  1
  Ni  Ni39  1  0.50397047  0.50223453  0.50276745  1
  Ni  Ni40  1  0.33729797  0.33629204  0.67075001  1
  Ni  Ni41  1  0.50418256  0.50360410  0.83772672  1
  Fe  Fe42  1  0.50479535  0.83715162  0.50423125  1
  Ni  Ni43  1  0.33810275  0.67042551  0.67042940  1
  Ni  Ni44  1  0.50270517  0.83624368  0.83682740  1
  Ni  Ni45  1  0.83628902  0.17056919  0.50299118  1
  Fe  Fe46  1  0.67081366  1.00335341  0.66992868  1
  Ni  Ni47  1  0.83793645  0.17104444  0.83750162  1
  Ni  Ni48  1  0.83594677  0.50342699  0.50330737  1
  Fe  Fe49  1  0.67064491  0.33777630  0.67004818  1
  Ni  Ni50  1  0.83590461  0.50311820  0.83729062  1
  Ni  Ni51  1  0.83861417  0.83724512  0.50362019  1
  Ni  Ni52  1  0.67072056  0.67038941  0.67034993  1
  Ni  Ni53  1  0.83773386  0.83708204  0.83718784  1
" 