5430,Ni32Fe26Cr40_1,-223.311546744857, 179.020385970599,Ni32Fe26Cr40,"# generated using pymatgen
 data_Cr23Fe14Ni17
_symmetry_space_group_name_H-M   'P 1'
_cell_length_a   7.48940407
_cell_length_b   7.48940407
_cell_length_c   10.59161682
_cell_angle_alpha   90.00000000
_cell_angle_beta   90.00000000
_cell_angle_gamma   90.00000000
_symmetry_Int_Tables_number   1
_chemical_formula_structural   Cr23Fe14Ni17
_chemical_formula_sum   'Cr23 Fe14 Ni17'
_cell_volume   594.09621536
_cell_formula_units_Z   1
loop_
 _symmetry_equiv_pos_site_id
 _symmetry_equiv_pos_as_xyz
  1  'x, y, z'
loop_
 _atom_site_type_symbol
 _atom_site_label
 _atom_site_symmetry_multiplicity
 _atom_site_fract_x
 _atom_site_fract_y
 _atom_site_fract_z
 _atom_site_occupancy
  Cr  Cr0  1  -0.00145420  0.99727446  0.00016195  1
  Fe  Fe1  1  0.16655526  0.16377485  0.16641306  1
  Cr  Cr2  1  0.99656964  0.99562014  0.32884526  1
  Cr  Cr3  1  0.99528553  0.33082552  0.99803864  1
  Cr  Cr4  1  0.16474287  0.50134934  0.16661837  1
  Cr  Cr5  1  -0.00088135  0.33280250  0.33049993  1
  Fe  Fe6  1  0.99527580  0.66624498  -0.00140587  1
  Ni  Ni7  1  0.16395662  0.82945843  0.16437349  1
  Fe  Fe8  1  0.99719035  0.66746417  0.33183179  1
  Cr  Cr9  1  0.33135705  0.99515815  0.00143592  1
  Ni  Ni10  1  0.50109885  0.16453004  0.16810433  1
  Cr  Cr11  1  0.33418649  0.99752960  0.32902023  1
  Cr  Cr12  1  0.33372350  0.33188079  0.99830373  1
  Cr  Cr13  1  0.49901403  0.49896665  0.16251699  1
  Ni  Ni14  1  0.33333347  0.33248966  0.33364985  1
  Ni  Ni15  1  0.33517780  0.66732945  0.99800587  1
  Ni  Ni16  1  0.49998689  0.83250773  0.16517655  1
  Cr  Cr17  1  0.33286155  0.66544736  0.33371797  1
  Cr  Cr18  1  0.66573499  0.99556719  0.00041395  1
  Ni  Ni19  1  0.82884492  0.16425317  0.16550806  1
  Ni  Ni20  1  0.66536767  0.99570955  0.33147501  1
  Ni  Ni21  1  0.66715225  0.33568252  -0.00049492  1
  Fe  Fe22  1  0.82995594  0.50152849  0.16324668  1
  Cr  Cr23  1  0.66313255  0.33179433  0.32986031  1
  Ni  Ni24  1  0.66530669  0.66446319  0.99710076  1
  Ni  Ni25  1  0.83146117  0.83105586  0.16699557  1
  Fe  Fe26  1  0.66518955  0.66840418  0.33081913  1
  Cr  Cr27  1  0.16757774  0.16492663  0.49929953  1
  Cr  Cr28  1  0.99823201  0.99551781  0.66675196  1
  Fe  Fe29  1  0.16607602  0.16332787  0.83052250  1
  Fe  Fe30  1  0.16706540  0.50152634  0.49900871  1
  Cr  Cr31  1  0.99781498  0.33422218  0.66689221  1
  Cr  Cr32  1  0.16542405  0.50152216  0.83082815  1
  Fe  Fe33  1  0.16564434  0.82858539  0.50029089  1
  Ni  Ni34  1  0.99763585  0.66700693  0.66397892  1
  Cr  Cr35  1  0.16702375  0.82987705  0.83203163  1
  Fe  Fe36  1  0.49855134  0.16444308  0.49761443  1
  Ni  Ni37  1  0.33405281  0.99434602  0.66440180  1
  Cr  Cr38  1  0.49845572  0.16314969  0.83064214  1
  Ni  Ni39  1  0.49629724  0.50086540  0.49947875  1
  Cr  Cr40  1  0.33336763  0.33395419  0.66387105  1
  Fe  Fe41  1  0.50159304  0.50391015  0.83282803  1
  Fe  Fe42  1  0.50004766  0.83191687  0.50008803  1
  Ni  Ni43  1  0.33365977  0.66796356  0.66367778  1
  Ni  Ni44  1  0.49919955  0.82909358  0.82992084  1
  Cr  Cr45  1  0.82829772  0.16158090  0.49931768  1
  Fe  Fe46  1  0.66225221  0.99320461  0.66461637  1
  Cr  Cr47  1  0.83022980  0.16484787  0.83073436  1
  Cr  Cr48  1  0.83213627  0.50211801  0.49722457  1
  Cr  Cr49  1  0.66449953  0.33533655  0.66666561  1
  Ni  Ni50  1  0.83062974  0.50241149  0.83355272  1
  Fe  Fe51  1  0.82988257  0.83012518  0.49837927  1
  Fe  Fe52  1  0.66415840  0.66728614  0.66689917  1
  Ni  Ni53  1  0.82947184  0.82722491  0.82965320  1
" 