7392,Ni32Fe68_10,-242.778370121978, 222.854749207106,Ni32Fe68,"# generated using pymatgen
 data_Fe17Ni37
_symmetry_space_group_name_H-M   'P 1'
_cell_length_a   7.40661482
_cell_length_b   7.40661482
_cell_length_c   10.47453513
_cell_angle_alpha   90.00000000
_cell_angle_beta   90.00000000
_cell_angle_gamma   90.00000000
_symmetry_Int_Tables_number   1
_chemical_formula_structural   Fe17Ni37
_chemical_formula_sum   'Fe17 Ni37'
_cell_volume   574.61145221
_cell_formula_units_Z   1
loop_
 _symmetry_equiv_pos_site_id
 _symmetry_equiv_pos_as_xyz
  1  'x, y, z'
loop_
 _atom_site_type_symbol
 _atom_site_label
 _atom_site_symmetry_multiplicity
 _atom_site_fract_x
 _atom_site_fract_y
 _atom_site_fract_z
 _atom_site_occupancy
  Ni  Ni0  1  1.00397845  0.00522122  1.00357110  1
  Ni  Ni1  1  0.17049002  0.16933116  0.17008115  1
  Ni  Ni2  1  0.00409812  0.00479747  0.33746439  1
  Ni  Ni3  1  0.00433362  0.33652791  0.00456833  1
  Fe  Fe4  1  0.17047654  0.50380510  0.17021348  1
  Fe  Fe5  1  1.00400468  0.33694545  0.33748394  1
  Ni  Ni6  1  1.00364232  0.67048896  0.00448675  1
  Ni  Ni7  1  0.16964787  0.83796880  0.17090377  1
  Fe  Fe8  1  1.00384275  0.67105591  0.33725098  1
  Fe  Fe9  1  0.33659883  1.00318766  0.00423845  1
  Ni  Ni10  1  0.50387029  0.17107365  0.17077672  1
  Ni  Ni11  1  0.33697301  0.00481498  0.33692142  1
  Fe  Fe12  1  0.33690964  0.33853626  1.00392810  1
  Ni  Ni13  1  0.50472575  0.50407992  0.17101975  1
  Ni  Ni14  1  0.33785113  0.33760629  0.33667354  1
  Ni  Ni15  1  0.33863986  0.67011440  1.00366890  1
  Fe  Fe16  1  0.50458524  0.83737673  0.17113726  1
  Ni  Ni17  1  0.33856457  0.66981555  0.33781333  1
  Fe  Fe18  1  0.67179897  1.00364707  1.00378421  1
  Ni  Ni19  1  0.83787900  0.17019860  0.17158190  1
  Ni  Ni20  1  0.67116832  0.00408476  0.33681754  1
  Fe  Fe21  1  0.67156121  0.33815124  0.00489258  1
  Ni  Ni22  1  0.83699210  0.50492284  0.16997044  1
  Ni  Ni23  1  0.66994939  0.33800181  0.33757971  1
  Ni  Ni24  1  0.66995517  0.67046990  0.00452119  1
  Ni  Ni25  1  0.83873383  0.83711842  0.17054881  1
  Ni  Ni26  1  0.66997217  0.67015339  0.33678539  1
  Ni  Ni27  1  0.17082847  0.17054669  0.50484997  1
  Ni  Ni28  1  0.00416336  0.00480677  0.67120399  1
  Fe  Fe29  1  0.17129636  0.17129368  0.83687220  1
  Ni  Ni30  1  0.16996547  0.50386688  0.50335295  1
  Ni  Ni31  1  0.00540006  0.33737263  0.67062341  1
  Ni  Ni32  1  0.17043463  0.50491770  0.83763938  1
  Fe  Fe33  1  0.17164451  0.83737583  0.50350090  1
  Ni  Ni34  1  1.00296333  0.67006039  0.67133290  1
  Fe  Fe35  1  0.17132755  0.83745557  0.83814487  1
  Ni  Ni36  1  0.50341504  0.16968572  0.50451568  1
  Ni  Ni37  1  0.33783291  0.00565329  0.67079696  1
  Ni  Ni38  1  0.50493355  0.16998210  0.83694345  1
  Ni  Ni39  1  0.50429128  0.50473768  0.50495832  1
  Ni  Ni40  1  0.33693754  0.33687064  0.67105560  1
  Ni  Ni41  1  0.50321766  0.50493761  0.83626115  1
  Ni  Ni42  1  0.50430688  0.83781549  0.50359061  1
  Fe  Fe43  1  0.33721904  0.67086660  0.67096965  1
  Ni  Ni44  1  0.50409164  0.83731872  0.83788837  1
  Fe  Fe45  1  0.83705432  0.17125367  0.50423238  1
  Ni  Ni46  1  0.67024396  1.00321606  0.67072443  1
  Ni  Ni47  1  0.83772962  0.16998709  0.83700366  1
  Ni  Ni48  1  0.83798108  0.50475962  0.50485094  1
  Fe  Fe49  1  0.67093811  0.33675418  0.67038915  1
  Fe  Fe50  1  0.83686345  0.50407346  0.83741416  1
  Fe  Fe51  1  0.83671252  0.83703258  0.50395637  1
  Ni  Ni52  1  0.67074483  0.67095379  0.67093317  1
  Fe  Fe53  1  0.83652108  0.83721123  0.83761335  1
" 