8907,Ni32Fe34Cr32_13,-226.296897527177, 184.049682567933,Ni32Fe34Cr32,"# generated using pymatgen
 data_Cr19Fe18Ni17
_symmetry_space_group_name_H-M   'P 1'
_cell_length_a   7.47594321
_cell_length_b   7.47594321
_cell_length_c   10.57258028
_cell_angle_alpha   90.00000000
_cell_angle_beta   90.00000000
_cell_angle_gamma   90.00000000
_symmetry_Int_Tables_number   1
_chemical_formula_structural   Cr19Fe18Ni17
_chemical_formula_sum   'Cr19 Fe18 Ni17'
_cell_volume   590.89862516
_cell_formula_units_Z   1
loop_
 _symmetry_equiv_pos_site_id
 _symmetry_equiv_pos_as_xyz
  1  'x, y, z'
loop_
 _atom_site_type_symbol
 _atom_site_label
 _atom_site_symmetry_multiplicity
 _atom_site_fract_x
 _atom_site_fract_y
 _atom_site_fract_z
 _atom_site_occupancy
  Ni  Ni0  1  -0.00044447  -0.00035065  0.99851512  1
  Cr  Cr1  1  0.16373960  0.16483372  0.16401542  1
  Cr  Cr2  1  0.99724877  0.00032622  0.33371107  1
  Ni  Ni3  1  0.99792828  0.33525898  0.99889539  1
  Fe  Fe4  1  0.16203911  0.50248215  0.16644149  1
  Ni  Ni5  1  0.99785732  0.33505642  0.33244061  1
  Ni  Ni6  1  -0.00008421  0.66345116  0.99939612  1
  Ni  Ni7  1  0.16759848  0.83081619  0.16732194  1
  Fe  Fe8  1  0.00340303  0.66419813  0.33125506  1
  Cr  Cr9  1  0.33290582  0.99810149  -0.00055914  1
  Fe  Fe10  1  0.50092746  0.16410367  0.16683741  1
  Fe  Fe11  1  0.33230062  0.99511323  0.33248983  1
  Cr  Cr12  1  0.33181261  0.33395973  0.99528482  1
  Cr  Cr13  1  0.50158587  0.49953558  0.16531162  1
  Cr  Cr14  1  0.33029215  0.33611756  0.33101265  1
  Cr  Cr15  1  0.33201326  0.66590132  0.99765657  1
  Ni  Ni16  1  0.49614807  0.83051509  0.16773165  1
  Ni  Ni17  1  0.33080001  0.66784879  0.33427382  1
  Cr  Cr18  1  0.66473568  0.99904576  -0.00040508  1
  Ni  Ni19  1  0.83407352  0.17122818  0.16585619  1
  Cr  Cr20  1  0.66579115  0.00005725  0.33380554  1
  Fe  Fe21  1  0.66950137  0.33407591  0.99932917  1
  Fe  Fe22  1  0.83660304  0.49799057  0.16436742  1
  Fe  Fe23  1  0.66935374  0.33197971  0.33141988  1
  Fe  Fe24  1  0.66656105  0.66369122  0.99806487  1
  Cr  Cr25  1  0.83610483  0.83094192  0.16066823  1
  Cr  Cr26  1  0.66491505  0.66782613  0.33101186  1
  Cr  Cr27  1  0.16591647  0.16719419  0.50073153  1
  Cr  Cr28  1  -0.00025372  0.00038010  0.66691101  1
  Ni  Ni29  1  0.16746444  0.16695980  0.83233919  1
  Fe  Fe30  1  0.16552649  0.50087478  0.50049143  1
  Ni  Ni31  1  0.00041467  0.33602559  0.66647218  1
  Fe  Fe32  1  0.16165096  0.50011543  0.83135701  1
  Fe  Fe33  1  0.16927748  0.83070042  0.50003468  1
  Fe  Fe34  1  0.00340798  0.66292709  0.66904799  1
  Ni  Ni35  1  0.16790667  0.83407013  0.83285945  1
  Cr  Cr36  1  0.49830638  0.16629331  0.49967715  1
  Ni  Ni37  1  0.33512061  0.99783606  0.66714749  1
  Fe  Fe38  1  0.49844831  0.16472506  0.82937426  1
  Cr  Cr39  1  0.49798003  0.50093415  0.50189356  1
  Ni  Ni40  1  0.33121643  0.33433822  0.66989251  1
  Fe  Fe41  1  0.50069346  0.49978840  0.83030229  1
  Ni  Ni42  1  0.49541032  0.83123406  0.50082143  1
  Fe  Fe43  1  0.33022898  0.66724302  0.66702617  1
  Ni  Ni44  1  0.49781323  0.82974645  0.82979744  1
  Ni  Ni45  1  0.83381706  0.16973356  0.50033990  1
  Fe  Fe46  1  0.66287045  0.00050662  0.66604010  1
  Cr  Cr47  1  0.83667695  0.16873739  0.83245768  1
  Cr  Cr48  1  0.83401400  0.49786758  0.49875136  1
  Fe  Fe49  1  0.66667379  0.33191158  0.66765593  1
  Ni  Ni50  1  0.83131427  0.49888993  0.83416948  1
  Cr  Cr51  1  0.83266554  0.83104095  0.50386872  1
  Fe  Fe52  1  0.66388923  0.66513744  0.66806688  1
  Cr  Cr53  1  0.83371104  0.82855602  0.83419641  1
" 