8009,Ni32Fe34Cr32_17,-226.069232011867, 182.046689810201,Ni32Fe34Cr32,"# generated using pymatgen
 data_Cr19Fe18Ni17
_symmetry_space_group_name_H-M   'P 1'
_cell_length_a   7.47789476
_cell_length_b   7.47789476
_cell_length_c   10.57534019
_cell_angle_alpha   90.00000000
_cell_angle_beta   90.00000000
_cell_angle_gamma   90.00000000
_symmetry_Int_Tables_number   1
_chemical_formula_structural   Cr19Fe18Ni17
_chemical_formula_sum   'Cr19 Fe18 Ni17'
_cell_volume   591.36149632
_cell_formula_units_Z   1
loop_
 _symmetry_equiv_pos_site_id
 _symmetry_equiv_pos_as_xyz
  1  'x, y, z'
loop_
 _atom_site_type_symbol
 _atom_site_label
 _atom_site_symmetry_multiplicity
 _atom_site_fract_x
 _atom_site_fract_y
 _atom_site_fract_z
 _atom_site_occupancy
  Ni  Ni0  1  0.99877833  0.00080857  0.00022244  1
  Ni  Ni1  1  0.16262369  0.16732173  0.16716863  1
  Fe  Fe2  1  0.99768375  0.00375509  0.33169816  1
  Fe  Fe3  1  0.00228150  0.33028848  -0.00009747  1
  Fe  Fe4  1  0.16570636  0.49632569  0.16561720  1
  Ni  Ni5  1  0.99908609  0.33035863  0.33249983  1
  Ni  Ni6  1  0.00276982  0.66604402  0.00068263  1
  Cr  Cr7  1  0.16537464  0.83331714  0.16526590  1
  Fe  Fe8  1  0.99879999  0.66446032  0.33149970  1
  Cr  Cr9  1  0.33032828  0.00020290  0.99569697  1
  Cr  Cr10  1  0.49893077  0.16773963  0.16633160  1
  Fe  Fe11  1  0.33113064  0.00332242  0.33344738  1
  Ni  Ni12  1  0.33037279  0.33474218  -0.00067167  1
  Cr  Cr13  1  0.49806299  0.49835568  0.16582098  1
  Fe  Fe14  1  0.33053392  0.33084810  0.33186149  1
  Ni  Ni15  1  0.32933828  0.66185938  0.99709614  1
  Cr  Cr16  1  0.49799267  0.83197856  0.16803065  1
  Fe  Fe17  1  0.33125024  0.66386190  0.33209615  1
  Cr  Cr18  1  0.66934223  0.00128442  0.99916536  1
  Ni  Ni19  1  0.83593748  0.16699947  0.16589949  1
  Fe  Fe20  1  0.66898629  0.00280892  0.33261225  1
  Fe  Fe21  1  0.66631818  0.33134595  0.99822206  1
  Cr  Cr22  1  0.83376849  0.49674767  0.16609240  1
  Ni  Ni23  1  0.66737144  0.32968736  0.33306782  1
  Cr  Cr24  1  0.66560526  0.66701824  0.99817018  1
  Fe  Fe25  1  0.83484052  0.83524074  0.16663880  1
  Fe  Fe26  1  0.66772682  0.66505054  0.33179781  1
  Fe  Fe27  1  0.16415401  0.16491378  0.49887277  1
  Ni  Ni28  1  0.00106798  0.00046011  0.66607794  1
  Ni  Ni29  1  0.16421035  0.16487409  0.83189064  1
  Cr  Cr30  1  0.16456870  0.49867812  0.49890865  1
  Fe  Fe31  1  0.00095802  0.32888419  0.66609921  1
  Fe  Fe32  1  0.16627393  0.50093641  0.83340086  1
  Cr  Cr33  1  0.16708107  0.83513311  0.50173033  1
  Ni  Ni34  1  0.00202610  0.66693130  0.66658149  1
  Ni  Ni35  1  0.16843581  0.83290848  0.83115202  1
  Fe  Fe36  1  0.49934496  0.16524056  0.49691902  1
  Ni  Ni37  1  0.33057931  0.99871650  0.66698186  1
  Fe  Fe38  1  0.49766371  0.16534777  0.83349090  1
  Cr  Cr39  1  0.50025652  0.49983922  0.49788929  1
  Cr  Cr40  1  0.33164360  0.33140901  0.66572096  1
  Fe  Fe41  1  0.49571765  0.49985111  0.83369880  1
  Cr  Cr42  1  0.49682581  0.83308034  0.49921672  1
  Ni  Ni43  1  0.33088459  0.66708863  0.66942226  1
  Ni  Ni44  1  0.49391210  0.82995459  0.83029168  1
  Ni  Ni45  1  0.83462375  0.16719430  0.49810851  1
  Cr  Cr46  1  0.66591707  0.00109338  0.66688841  1
  Ni  Ni47  1  0.83645437  0.16812759  0.83405356  1
  Cr  Cr48  1  0.83296563  0.49711358  0.50122788  1
  Cr  Cr49  1  0.66628006  0.33087548  0.66669345  1
  Cr  Cr50  1  0.83395017  0.49659822  0.83064676  1
  Cr  Cr51  1  0.83389301  0.83303148  0.49935559  1
  Fe  Fe52  1  0.66378952  0.66737416  0.66782407  1
  Cr  Cr53  1  0.83641554  0.83340563  0.83175831  1
" 