1895,Ni32Fe34Cr32_5,-225.971887106751, 186.278168897806,Ni32Fe34Cr32,"# generated using pymatgen
 data_Cr19Fe18Ni17
_symmetry_space_group_name_H-M   'P 1'
_cell_length_a   7.47204277
_cell_length_b   7.47204277
_cell_length_c   10.56706422
_cell_angle_alpha   90.00000000
_cell_angle_beta   90.00000000
_cell_angle_gamma   90.00000000
_symmetry_Int_Tables_number   1
_chemical_formula_structural   Cr19Fe18Ni17
_chemical_formula_sum   'Cr19 Fe18 Ni17'
_cell_volume   589.97423360
_cell_formula_units_Z   1
loop_
 _symmetry_equiv_pos_site_id
 _symmetry_equiv_pos_as_xyz
  1  'x, y, z'
loop_
 _atom_site_type_symbol
 _atom_site_label
 _atom_site_symmetry_multiplicity
 _atom_site_fract_x
 _atom_site_fract_y
 _atom_site_fract_z
 _atom_site_occupancy
  Cr  Cr0  1  0.00040282  0.99948579  0.99849920  1
  Cr  Cr1  1  0.16580426  0.16712496  0.16823020  1
  Ni  Ni2  1  0.00122600  0.99804293  0.33295046  1
  Ni  Ni3  1  0.00335780  0.33448969  0.99949435  1
  Ni  Ni4  1  0.16664875  0.49848942  0.16547828  1
  Fe  Fe5  1  0.00116546  0.33143559  0.33379033  1
  Fe  Fe6  1  0.00257037  0.66590634  0.99959394  1
  Fe  Fe7  1  0.16708004  0.83026032  0.16717788  1
  Cr  Cr8  1  0.00224133  0.66589800  0.33454334  1
  Cr  Cr9  1  0.33283074  0.99909991  -0.00023942  1
  Fe  Fe10  1  0.49672971  0.16582139  0.16749981  1
  Ni  Ni11  1  0.33225572  0.99813665  0.33253726  1
  Ni  Ni12  1  0.32842603  0.33476893  0.99946041  1
  Cr  Cr13  1  0.49614040  0.50202892  0.16375756  1
  Fe  Fe14  1  0.33105708  0.33228733  0.33368375  1
  Fe  Fe15  1  0.33074478  0.66674762  0.99855651  1
  Ni  Ni16  1  0.49981798  0.83290454  0.16695982  1
  Fe  Fe17  1  0.33128487  0.66866103  0.33293870  1
  Cr  Cr18  1  0.66578510  0.99842251  0.00193487  1
  Fe  Fe19  1  0.83588728  0.16536812  0.16690184  1
  Cr  Cr20  1  0.66541091  0.00102560  0.33072020  1
  Cr  Cr21  1  0.66649847  0.33084630  0.00173927  1
  Cr  Cr22  1  0.83613319  0.50159924  0.16462586  1
  Cr  Cr23  1  0.66680178  0.33121127  0.33262322  1
  Ni  Ni24  1  0.66636884  0.66986727  -0.00018615  1
  Ni  Ni25  1  0.83306491  0.83405622  0.16502530  1
  Cr  Cr26  1  0.66666417  0.66676409  0.33542234  1
  Cr  Cr27  1  0.16694491  0.16520741  0.50112633  1
  Fe  Fe28  1  0.00020405  0.00111431  0.66739453  1
  Fe  Fe29  1  0.16564124  0.16840699  0.83120989  1
  Ni  Ni30  1  0.16483557  0.49752044  0.49842379  1
  Ni  Ni31  1  -0.00003537  0.33221966  0.66622419  1
  Ni  Ni32  1  0.16459352  0.49771919  0.83498977  1
  Fe  Fe33  1  0.16872870  0.83505350  0.49930833  1
  Cr  Cr34  1  0.00171068  0.66585155  0.66542200  1
  Ni  Ni35  1  0.16581516  0.83433252  0.83274001  1
  Ni  Ni36  1  0.49941250  0.16385878  0.50045227  1
  Ni  Ni37  1  0.33293190  -0.00004210  0.66668210  1
  Cr  Cr38  1  0.49804508  0.16628448  0.83026629  1
  Cr  Cr39  1  0.49766666  0.49752414  0.50115901  1
  Ni  Ni40  1  0.33102506  0.33064225  0.66647337  1
  Cr  Cr41  1  0.49827660  0.50034524  0.83424266  1
  Fe  Fe42  1  0.49581624  0.83728587  0.49956295  1
  Cr  Cr43  1  0.33003729  0.66770699  0.66653459  1
  Ni  Ni44  1  0.49990714  0.83456274  0.83213429  1
  Fe  Fe45  1  0.83354809  0.16674152  0.50109733  1
  Fe  Fe46  1  0.66584708  0.00169719  0.66523930  1
  Fe  Fe47  1  0.83590320  0.16611713  0.83077210  1
  Fe  Fe48  1  0.83549538  0.49479262  0.50109024  1
  Ni  Ni49  1  0.66818577  0.32962487  0.66425593  1
  Cr  Cr50  1  0.83408966  0.49918201  0.83442433  1
  Fe  Fe51  1  0.83486390  0.83697027  0.49898428  1
  Cr  Cr52  1  0.66734328  0.66749623  0.66424334  1
  Fe  Fe53  1  0.83271812  0.83298438  0.83377778  1
" 