2000,Ni32Fe26Cr40_9,-222.947110830474, 171.442701565766,Ni32Fe26Cr40,"# generated using pymatgen
 data_Cr23Fe14Ni17
_symmetry_space_group_name_H-M   'P 1'
_cell_length_a   7.49034365
_cell_length_b   7.49034365
_cell_length_c   10.59294558
_cell_angle_alpha   90.00000000
_cell_angle_beta   90.00000000
_cell_angle_gamma   90.00000000
_symmetry_Int_Tables_number   1
_chemical_formula_structural   Cr23Fe14Ni17
_chemical_formula_sum   'Cr23 Fe14 Ni17'
_cell_volume   594.31983954
_cell_formula_units_Z   1
loop_
 _symmetry_equiv_pos_site_id
 _symmetry_equiv_pos_as_xyz
  1  'x, y, z'
loop_
 _atom_site_type_symbol
 _atom_site_label
 _atom_site_symmetry_multiplicity
 _atom_site_fract_x
 _atom_site_fract_y
 _atom_site_fract_z
 _atom_site_occupancy
  Fe  Fe0  1  0.00294408  0.99659474  0.99837888  1
  Ni  Ni1  1  0.16898799  0.16352703  0.16402231  1
  Cr  Cr2  1  0.99545895  0.99725186  0.33160098  1
  Cr  Cr3  1  0.99767939  0.33181640  0.99772143  1
  Fe  Fe4  1  0.16471298  0.49943137  0.16700539  1
  Cr  Cr5  1  -0.00011671  0.33206233  0.33175100  1
  Ni  Ni6  1  0.99791480  0.66600121  -0.00047366  1
  Ni  Ni7  1  0.16542163  0.83056318  0.16319763  1
  Ni  Ni8  1  0.99709227  0.66531847  0.32974384  1
  Ni  Ni9  1  0.32965609  -0.00001081  0.99785502  1
  Ni  Ni10  1  0.49698925  0.16553403  0.16553271  1
  Cr  Cr11  1  0.33370943  0.00020129  0.32991240  1
  Cr  Cr12  1  0.33291449  0.32947862  -0.00022118  1
  Fe  Fe13  1  0.49846980  0.49736459  0.16775020  1
  Ni  Ni14  1  0.33457790  0.33355547  0.33121580  1
  Cr  Cr15  1  0.33021529  0.66647213  -0.00016496  1
  Fe  Fe16  1  0.49799804  0.83270373  0.16676554  1
  Ni  Ni17  1  0.33298140  0.66166366  0.32978199  1
  Cr  Cr18  1  0.66423097  0.00024321  -0.00106207  1
  Cr  Cr19  1  0.82971996  0.16637503  0.16499542  1
  Ni  Ni20  1  0.66529399  0.99806804  0.33349651  1
  Fe  Fe21  1  0.66477923  0.33289751  0.99796791  1
  Ni  Ni22  1  0.83090805  0.50129140  0.16502573  1
  Fe  Fe23  1  0.66226505  0.33184869  0.33189687  1
  Cr  Cr24  1  0.66658441  0.66263751  0.99796180  1
  Fe  Fe25  1  0.83290322  0.82985363  0.16672156  1
  Ni  Ni26  1  0.66525530  0.66579482  0.33135834  1
  Cr  Cr27  1  0.16693497  0.16714698  0.49990331  1
  Cr  Cr28  1  0.99840100  0.00032350  0.66498891  1
  Ni  Ni29  1  0.16691343  0.16305522  0.83095243  1
  Cr  Cr30  1  0.16602332  0.49793748  0.49706711  1
  Fe  Fe31  1  0.99784410  0.33047002  0.66659503  1
  Cr  Cr32  1  0.16282030  0.49813543  0.83045624  1
  Cr  Cr33  1  0.16504772  0.83026719  0.49904820  1
  Cr  Cr34  1  0.99800986  0.66526681  0.66538997  1
  Ni  Ni35  1  0.16610421  0.83506719  0.83341269  1
  Ni  Ni36  1  0.49988968  0.16643169  0.49789258  1
  Fe  Fe37  1  0.33159416  0.00082047  0.66707769  1
  Fe  Fe38  1  0.49633754  0.16585718  0.83212754  1
  Fe  Fe39  1  0.49819340  0.49648677  0.49590783  1
  Fe  Fe40  1  0.33239257  0.32945771  0.66525221  1
  Fe  Fe41  1  0.49924599  0.49645582  0.83173097  1
  Cr  Cr42  1  0.50007923  0.83262974  0.49708337  1
  Cr  Cr43  1  0.33244054  0.66415415  0.66592281  1
  Cr  Cr44  1  0.49539793  0.83359763  0.83166276  1
  Ni  Ni45  1  0.82805363  0.16458182  0.49837244  1
  Cr  Cr46  1  0.66573127  0.00009192  0.66242608  1
  Fe  Fe47  1  0.83354837  0.16689392  0.83186216  1
  Cr  Cr48  1  0.83171255  0.49898262  0.49733274  1
  Cr  Cr49  1  0.66467577  0.33101873  0.66671640  1
  Ni  Ni50  1  0.83096769  0.49627120  0.83282304  1
  Ni  Ni51  1  0.82958618  0.83197168  0.49532538  1
  Cr  Cr52  1  0.66487474  0.66420954  0.66534858  1
  Cr  Cr53  1  0.83365872  0.82990459  0.83361030  1
" 