4223,Ni32Fe68_9,-242.788029765455, 220.491726179911,Ni32Fe68,"# generated using pymatgen
 data_Fe17Ni37
_symmetry_space_group_name_H-M   'P 1'
_cell_length_a   7.40945114
_cell_length_b   7.40945114
_cell_length_c   10.47854629
_cell_angle_alpha   90.00000000
_cell_angle_beta   90.00000000
_cell_angle_gamma   90.00000000
_symmetry_Int_Tables_number   1
_chemical_formula_structural   Fe17Ni37
_chemical_formula_sum   'Fe17 Ni37'
_cell_volume   575.27183625
_cell_formula_units_Z   1
loop_
 _symmetry_equiv_pos_site_id
 _symmetry_equiv_pos_as_xyz
  1  'x, y, z'
loop_
 _atom_site_type_symbol
 _atom_site_label
 _atom_site_symmetry_multiplicity
 _atom_site_fract_x
 _atom_site_fract_y
 _atom_site_fract_z
 _atom_site_occupancy
  Ni  Ni0  1  0.00398046  1.00378275  0.00478113  1
  Ni  Ni1  1  0.17039899  0.17127989  0.17022448  1
  Fe  Fe2  1  1.00358717  0.00431608  0.33713053  1
  Fe  Fe3  1  0.00439575  0.33722861  0.00429059  1
  Ni  Ni4  1  0.17070615  0.50382895  0.16980632  1
  Ni  Ni5  1  1.00308220  0.33793059  0.33723930  1
  Ni  Ni6  1  0.00463752  0.67064674  1.00346673  1
  Ni  Ni7  1  0.17039724  0.83655385  0.17079495  1
  Ni  Ni8  1  0.00537222  0.66947555  0.33799078  1
  Ni  Ni9  1  0.33702451  0.00462214  1.00336291  1
  Ni  Ni10  1  0.50427238  0.16979871  0.17100319  1
  Ni  Ni11  1  0.33804050  1.00340707  0.33776360  1
  Ni  Ni12  1  0.33783859  0.33719779  0.00468514  1
  Fe  Fe13  1  0.50351616  0.50381257  0.17011998  1
  Fe  Fe14  1  0.33663211  0.33729883  0.33694772  1
  Ni  Ni15  1  0.33633625  0.66983221  1.00371501  1
  Ni  Ni16  1  0.50490643  0.83739406  0.16982750  1
  Ni  Ni17  1  0.33574704  0.67109770  0.33723831  1
  Ni  Ni18  1  0.67065506  0.00527806  1.00380544  1
  Ni  Ni19  1  0.83698626  0.16949259  0.16959921  1
  Ni  Ni20  1  0.66976102  0.00570113  0.33723100  1
  Ni  Ni21  1  0.66984593  0.33653917  1.00347571  1
  Fe  Fe22  1  0.83773668  0.50381201  0.17007259  1
  Ni  Ni23  1  0.67138101  0.33563697  0.33787608  1
  Ni  Ni24  1  0.67068783  0.66984028  0.00432576  1
  Ni  Ni25  1  0.83635243  0.83769833  0.17033955  1
  Fe  Fe26  1  0.67026203  0.67122416  0.33764794  1
  Ni  Ni27  1  0.16939638  0.17162544  0.50355180  1
  Ni  Ni28  1  1.00328472  0.00420962  0.66940578  1
  Ni  Ni29  1  0.17089752  0.17090995  0.83788944  1
  Ni  Ni30  1  0.17136146  0.50317117  0.50464428  1
  Fe  Fe31  1  0.00399048  0.33756224  0.66993660  1
  Ni  Ni32  1  0.17044368  0.50364994  0.83721696  1
  Fe  Fe33  1  0.17062718  0.83670547  0.50355007  1
  Ni  Ni34  1  0.00475379  0.67028211  0.67020004  1
  Fe  Fe35  1  0.17073252  0.83652336  0.83784765  1
  Fe  Fe36  1  0.50446556  0.17011523  0.50345490  1
  Fe  Fe37  1  0.33714182  1.00298150  0.67054415  1
  Ni  Ni38  1  0.50353219  0.17026528  0.83668785  1
  Ni  Ni39  1  0.50298142  0.50546150  0.50401967  1
  Fe  Fe40  1  0.33686190  0.33787966  0.67140167  1
  Ni  Ni41  1  0.50400883  0.50432011  0.83776902  1
  Ni  Ni42  1  0.50562228  0.83607835  0.50428813  1
  Ni  Ni43  1  0.33664907  0.66943507  0.67071107  1
  Fe  Fe44  1  0.50356701  0.83650959  0.83723312  1
  Ni  Ni45  1  0.83810144  0.16898789  0.50451802  1
  Ni  Ni46  1  0.67108442  0.00485962  0.67061332  1
  Fe  Fe47  1  0.83694145  0.17144122  0.83723079  1
  Fe  Fe48  1  0.83744320  0.50396605  0.50414704  1
  Fe  Fe49  1  0.67080722  0.33800500  0.67084078  1
  Ni  Ni50  1  0.83720866  0.50516777  0.83678927  1
  Ni  Ni51  1  0.83581685  0.83803508  0.50387834  1
  Ni  Ni52  1  0.67026045  0.67028912  0.66974524  1
  Fe  Fe53  1  0.83735976  0.83671710  0.83700478  1
" 