3019,Ni32Fe26Cr40_12,-223.270864469498, 181.139622923554,Ni32Fe26Cr40,"# generated using pymatgen
 data_Cr23Fe14Ni17
_symmetry_space_group_name_H-M   'P 1'
_cell_length_a   7.48453024
_cell_length_b   7.48453024
_cell_length_c   10.58472417
_cell_angle_alpha   90.00000000
_cell_angle_beta   90.00000000
_cell_angle_gamma   90.00000000
_symmetry_Int_Tables_number   1
_chemical_formula_structural   Cr23Fe14Ni17
_chemical_formula_sum   'Cr23 Fe14 Ni17'
_cell_volume   592.93712031
_cell_formula_units_Z   1
loop_
 _symmetry_equiv_pos_site_id
 _symmetry_equiv_pos_as_xyz
  1  'x, y, z'
loop_
 _atom_site_type_symbol
 _atom_site_label
 _atom_site_symmetry_multiplicity
 _atom_site_fract_x
 _atom_site_fract_y
 _atom_site_fract_z
 _atom_site_occupancy
  Fe  Fe0  1  0.00145185  0.99780010  0.00059664  1
  Ni  Ni1  1  0.16301916  0.16478066  0.16690484  1
  Ni  Ni2  1  0.00062350  0.00051026  0.33193498  1
  Fe  Fe3  1  0.99830268  0.33398410  0.99850868  1
  Ni  Ni4  1  0.16367732  0.49930385  0.16795737  1
  Ni  Ni5  1  0.00269704  0.33072689  0.33260625  1
  Fe  Fe6  1  -0.00053071  0.66461834  0.99842112  1
  Ni  Ni7  1  0.16344668  0.83245041  0.16522672  1
  Fe  Fe8  1  0.00208763  0.66515208  0.33027801  1
  Fe  Fe9  1  0.33124706  0.99641715  -0.00090814  1
  Cr  Cr10  1  0.49685025  0.16670733  0.16370297  1
  Cr  Cr11  1  0.32972088  0.99827292  0.32870092  1
  Cr  Cr12  1  0.32895683  0.33089036  0.00059059  1
  Cr  Cr13  1  0.49781693  0.49914315  0.16663030  1
  Ni  Ni14  1  0.32666054  0.33423123  0.33190948  1
  Cr  Cr15  1  0.32938530  0.66843135  0.99798786  1
  Ni  Ni16  1  0.49807188  0.83067741  0.16539118  1
  Ni  Ni17  1  0.33102770  0.66480941  0.33220718  1
  Cr  Cr18  1  0.66340413  0.99789418  -0.00109212  1
  Cr  Cr19  1  0.83488316  0.16483594  0.16570870  1
  Cr  Cr20  1  0.66663907  0.99700911  0.33254075  1
  Ni  Ni21  1  0.66886247  0.33256287  0.99517567  1
  Cr  Cr22  1  0.83339516  0.50029983  0.16335665  1
  Cr  Cr23  1  0.66694220  0.33287028  0.33484345  1
  Ni  Ni24  1  0.66728357  0.66656851  0.99881295  1
  Fe  Fe25  1  0.83514333  0.83160612  0.16491266  1
  Cr  Cr26  1  0.66435253  0.66667446  0.33292177  1
  Ni  Ni27  1  0.16195149  0.16743180  0.49830872  1
  Fe  Fe28  1  -0.00074143  0.00261852  0.66491615  1
  Cr  Cr29  1  0.16404979  0.16546323  0.83143007  1
  Cr  Cr30  1  0.16849484  0.49623855  0.49797533  1
  Ni  Ni31  1  0.00013100  0.33135200  0.66601906  1
  Ni  Ni32  1  0.16375765  0.49861653  0.83071628  1
  Cr  Cr33  1  0.16433059  0.83361568  0.50000219  1
  Cr  Cr34  1  0.00072785  0.66264108  0.66810867  1
  Ni  Ni35  1  0.16543388  0.83194050  0.83228057  1
  Cr  Cr36  1  0.49584010  0.16909229  0.49831227  1
  Cr  Cr37  1  0.33179314  0.99729053  0.66771386  1
  Fe  Fe38  1  0.49811568  0.16482004  0.83288053  1
  Ni  Ni39  1  0.49773284  0.49908992  0.49862065  1
  Ni  Ni40  1  0.32899750  0.33273635  0.66489245  1
  Cr  Cr41  1  0.49879512  0.49801918  0.83204057  1
  Fe  Fe42  1  0.49570192  0.82933626  0.49842375  1
  Fe  Fe43  1  0.33236222  0.66324683  0.66658534  1
  Ni  Ni44  1  0.49820017  0.83191609  0.83158451  1
  Fe  Fe45  1  0.83767070  0.16773096  0.49838563  1
  Cr  Cr46  1  0.66533902  -0.00094343  0.66479142  1
  Fe  Fe47  1  0.83334006  0.16749798  0.83314890  1
  Fe  Fe48  1  0.83408233  0.49599369  0.49822770  1
  Cr  Cr49  1  0.66839453  0.33208889  0.66577331  1
  Fe  Fe50  1  0.83478530  0.49781455  0.83481041  1
  Cr  Cr51  1  0.83428842  0.83383602  0.49655816  1
  Cr  Cr52  1  0.66411762  0.66549469  0.66401002  1
  Cr  Cr53  1  0.83382200  0.83272542  0.83458851  1
" 