1353,Ni32Fe34Cr32_0,-226.58541101021, 182.608789503111,Ni32Fe34Cr32,"# generated using pymatgen
 data_Cr19Fe18Ni17
_symmetry_space_group_name_H-M   'P 1'
_cell_length_a   7.47960539
_cell_length_b   7.47960539
_cell_length_c   10.57775939
_cell_angle_alpha   90.00000000
_cell_angle_beta   90.00000000
_cell_angle_gamma   90.00000000
_symmetry_Int_Tables_number   1
_chemical_formula_structural   Cr19Fe18Ni17
_chemical_formula_sum   'Cr19 Fe18 Ni17'
_cell_volume   591.76742611
_cell_formula_units_Z   1
loop_
 _symmetry_equiv_pos_site_id
 _symmetry_equiv_pos_as_xyz
  1  'x, y, z'
loop_
 _atom_site_type_symbol
 _atom_site_label
 _atom_site_symmetry_multiplicity
 _atom_site_fract_x
 _atom_site_fract_y
 _atom_site_fract_z
 _atom_site_occupancy
  Fe  Fe0  1  0.99704728  0.00230944  0.00145266  1
  Ni  Ni1  1  0.16389310  0.16274727  0.16713165  1
  Fe  Fe2  1  0.00179696  0.00011144  0.33110253  1
  Ni  Ni3  1  0.99553062  0.33217989  -0.00053353  1
  Cr  Cr4  1  0.16559115  0.49905318  0.16256165  1
  Cr  Cr5  1  0.99735821  0.33215655  0.33089667  1
  Fe  Fe6  1  0.99491604  0.66598949  0.00093385  1
  Ni  Ni7  1  0.16529064  0.83670241  0.16514812  1
  Cr  Cr8  1  0.99841271  0.66943535  0.33024700  1
  Fe  Fe9  1  0.33193508  0.00031599  0.00062117  1
  Fe  Fe10  1  0.49851931  0.16483274  0.16804472  1
  Ni  Ni11  1  0.33079070  0.99867558  0.33073572  1
  Cr  Cr12  1  0.33223989  0.32889213  0.00062905  1
  Cr  Cr13  1  0.50068141  0.49927196  0.17156797  1
  Ni  Ni14  1  0.33398128  0.33067261  0.33174742  1
  Fe  Fe15  1  0.33270769  0.66742393  0.00017901  1
  Cr  Cr16  1  0.49893155  0.83148033  0.16567439  1
  Ni  Ni17  1  0.33010663  0.66768207  0.33299250  1
  Fe  Fe18  1  0.66862564  -0.00076903  0.99900774  1
  Ni  Ni19  1  0.83463143  0.16535015  0.16562122  1
  Cr  Cr20  1  0.66943598  0.00032603  0.32875320  1
  Cr  Cr21  1  0.66799658  0.32837155  0.00060665  1
  Ni  Ni22  1  0.83057390  0.49850636  0.16517197  1
  Ni  Ni23  1  0.66697767  0.33201743  0.33177651  1
  Fe  Fe24  1  0.66972995  0.66535797  -0.00066153  1
  Ni  Ni25  1  0.83390240  0.83422996  0.16402162  1
  Fe  Fe26  1  0.66663875  0.66376983  0.33269848  1
  Fe  Fe27  1  0.16617608  0.16360298  0.49861957  1
  Fe  Fe28  1  -0.00082913  0.00138076  0.66344208  1
  Cr  Cr29  1  0.16108883  0.16497925  0.82955543  1
  Cr  Cr30  1  0.16804753  0.49784515  0.49908519  1
  Ni  Ni31  1  0.99332979  0.33217590  0.66624149  1
  Cr  Cr32  1  0.16148138  0.49816738  0.83612995  1
  Ni  Ni33  1  0.16451760  0.83833221  0.49776049  1
  Cr  Cr34  1  0.99686561  0.66625428  0.66565051  1
  Cr  Cr35  1  0.16601941  0.83487707  0.83479159  1
  Cr  Cr36  1  0.50037715  0.16747132  0.49750105  1
  Ni  Ni37  1  0.33294316  0.99773078  0.66666275  1
  Fe  Fe38  1  0.50058488  0.16447465  0.83225272  1
  Ni  Ni39  1  0.50408505  0.49860012  0.49670476  1
  Cr  Cr40  1  0.33372740  0.33047011  0.66570399  1
  Cr  Cr41  1  0.50215259  0.50118367  0.83068505  1
  Cr  Cr42  1  0.49835669  0.83006810  0.49787101  1
  Cr  Cr43  1  0.33172399  0.66844524  0.66554308  1
  Fe  Fe44  1  0.50151071  0.83461995  0.83502643  1
  Fe  Fe45  1  0.83382660  0.16712045  0.49998483  1
  Cr  Cr46  1  0.66619460  0.99865775  0.66967083  1
  Ni  Ni47  1  0.83229176  0.16593319  0.83181227  1
  Fe  Fe48  1  0.82943030  0.49800713  0.49934749  1
  Ni  Ni49  1  0.67032251  0.33194842  0.66578263  1
  Ni  Ni50  1  0.83034078  0.49718664  0.83194105  1
  Fe  Fe51  1  0.83270276  0.83301047  0.49812538  1
  Fe  Fe52  1  0.66699219  0.66326629  0.66511986  1
  Fe  Fe53  1  0.83216594  0.83176684  0.83552882  1
" 