3852,Ni32Fe34Cr32_7,-226.484204703877, 183.758349871778,Ni32Fe34Cr32,"# generated using pymatgen
 data_Cr19Fe18Ni17
_symmetry_space_group_name_H-M   'P 1'
_cell_length_a   7.47544983
_cell_length_b   7.47544983
_cell_length_c   10.57188254
_cell_angle_alpha   90.00000000
_cell_angle_beta   90.00000000
_cell_angle_gamma   90.00000000
_symmetry_Int_Tables_number   1
_chemical_formula_structural   Cr19Fe18Ni17
_chemical_formula_sum   'Cr19 Fe18 Ni17'
_cell_volume   590.78164270
_cell_formula_units_Z   1
loop_
 _symmetry_equiv_pos_site_id
 _symmetry_equiv_pos_as_xyz
  1  'x, y, z'
loop_
 _atom_site_type_symbol
 _atom_site_label
 _atom_site_symmetry_multiplicity
 _atom_site_fract_x
 _atom_site_fract_y
 _atom_site_fract_z
 _atom_site_occupancy
  Ni  Ni0  1  0.99877586  0.99786805  0.99774387  1
  Cr  Cr1  1  0.16535978  0.16500321  0.16600474  1
  Ni  Ni2  1  0.00128908  0.99827475  0.33352664  1
  Fe  Fe3  1  0.99709296  0.33033245  0.99703236  1
  Cr  Cr4  1  0.16556134  0.50089379  0.16763586  1
  Fe  Fe5  1  0.00099511  0.33314758  0.33633961  1
  Fe  Fe6  1  0.99842859  0.66690488  0.00032280  1
  Fe  Fe7  1  0.16624977  0.83477267  0.16575750  1
  Ni  Ni8  1  0.00077740  0.66690611  0.33219913  1
  Ni  Ni9  1  0.33321799  0.99708253  0.99849956  1
  Ni  Ni10  1  0.49970584  0.16487499  0.16486075  1
  Fe  Fe11  1  0.33309844  0.00246806  0.33398002  1
  Cr  Cr12  1  0.33492085  0.32994739  0.99736978  1
  Cr  Cr13  1  0.49839063  0.49811484  0.16324175  1
  Ni  Ni14  1  0.33330538  0.33166237  0.33593298  1
  Ni  Ni15  1  0.33152944  0.66971548  0.00157631  1
  Cr  Cr16  1  0.49820507  0.83520627  0.16703500  1
  Fe  Fe17  1  0.33117864  0.66474920  0.33407102  1
  Ni  Ni18  1  0.66629299  0.00140652  0.99778318  1
  Cr  Cr19  1  0.83200109  0.16521112  0.16784625  1
  Fe  Fe20  1  0.66515081  0.00108742  0.33433575  1
  Ni  Ni21  1  0.66946815  0.33177859  0.99939296  1
  Fe  Fe22  1  0.83331991  0.49875287  0.16467381  1
  Cr  Cr23  1  0.66390006  0.33170599  0.33314982  1
  Fe  Fe24  1  0.66633378  0.66889571  0.99806657  1
  Cr  Cr25  1  0.83444083  0.83518645  0.16479264  1
  Cr  Cr26  1  0.66690801  0.66484637  0.33487819  1
  Ni  Ni27  1  0.16536611  0.16744575  0.49974298  1
  Cr  Cr28  1  0.00045856  0.00212534  0.66836689  1
  Fe  Fe29  1  0.16554107  0.16444932  0.83292702  1
  Fe  Fe30  1  0.16444204  0.49577651  0.49729995  1
  Ni  Ni31  1  0.99736131  0.33313176  0.66443653  1
  Cr  Cr32  1  0.16460188  0.49834321  0.83151611  1
  Cr  Cr33  1  0.16571779  0.83337760  0.49695869  1
  Fe  Fe34  1  0.99726195  0.66352556  0.66526511  1
  Cr  Cr35  1  0.16768589  0.83306831  0.83520692  1
  Ni  Ni36  1  0.49798421  0.16666625  0.49787097  1
  Ni  Ni37  1  0.33363451  -0.00020094  0.66638765  1
  Fe  Fe38  1  0.50071633  0.16181553  0.83459548  1
  Ni  Ni39  1  0.49769654  0.50001073  0.49870956  1
  Cr  Cr40  1  0.33176421  0.32872054  0.66529204  1
  Cr  Cr41  1  0.50071521  0.50197002  0.83531619  1
  Fe  Fe42  1  0.49850159  0.83638676  0.49913818  1
  Cr  Cr43  1  0.33418413  0.66734661  0.66232580  1
  Ni  Ni44  1  0.50091153  0.83357057  0.83319403  1
  Ni  Ni45  1  0.83499764  0.16676839  0.49664989  1
  Cr  Cr46  1  0.66459643  -0.00005844  0.66582600  1
  Ni  Ni47  1  0.83399116  0.16651183  0.83518862  1
  Fe  Fe48  1  0.83543184  0.49733304  0.49962058  1
  Cr  Cr49  1  0.66744742  0.33257455  0.66483511  1
  Fe  Fe50  1  0.83294455  0.49942854  0.83349649  1
  Cr  Cr51  1  0.83255977  0.83461076  0.50069984  1
  Fe  Fe52  1  0.66684442  0.66583993  0.66568441  1
  Fe  Fe53  1  0.83039679  0.83231893  0.83505272  1
" 