6972,Ni32Fe68_19,-243.077290590268, 221.977830019967,Ni32Fe68,"# generated using pymatgen
 data_Fe17Ni37
_symmetry_space_group_name_H-M   'P 1'
_cell_length_a   7.41113865
_cell_length_b   7.41113865
_cell_length_c   10.48093279
_cell_angle_alpha   90.00000000
_cell_angle_beta   90.00000000
_cell_angle_gamma   90.00000000
_symmetry_Int_Tables_number   1
_chemical_formula_structural   Fe17Ni37
_chemical_formula_sum   'Fe17 Ni37'
_cell_volume   575.66498290
_cell_formula_units_Z   1
loop_
 _symmetry_equiv_pos_site_id
 _symmetry_equiv_pos_as_xyz
  1  'x, y, z'
loop_
 _atom_site_type_symbol
 _atom_site_label
 _atom_site_symmetry_multiplicity
 _atom_site_fract_x
 _atom_site_fract_y
 _atom_site_fract_z
 _atom_site_occupancy
  Ni  Ni0  1  0.00399252  1.00347885  0.00436455  1
  Ni  Ni1  1  0.17041100  0.17150910  0.17025021  1
  Fe  Fe2  1  0.00496625  0.00400402  0.33741889  1
  Ni  Ni3  1  0.00520535  0.33758913  0.00394322  1
  Ni  Ni4  1  0.17118544  0.50320444  0.17082290  1
  Ni  Ni5  1  0.00453499  0.33732579  0.33744696  1
  Ni  Ni6  1  1.00195813  0.67025499  1.00359238  1
  Fe  Fe7  1  0.16934760  0.83675369  0.17085810  1
  Ni  Ni8  1  1.00376952  0.67027039  0.33823485  1
  Ni  Ni9  1  0.33822533  0.00529731  0.00453792  1
  Ni  Ni10  1  0.50351897  0.17108951  0.17120896  1
  Fe  Fe11  1  0.33527277  1.00376749  0.33706860  1
  Ni  Ni12  1  0.33731998  0.33572197  1.00352115  1
  Ni  Ni13  1  0.50218915  0.50326479  0.16896195  1
  Ni  Ni14  1  0.33716557  0.33677022  0.33812356  1
  Fe  Fe15  1  0.33596636  0.67088372  0.00404788  1
  Fe  Fe16  1  0.50434112  0.83727349  0.17015617  1
  Ni  Ni17  1  0.33750261  0.67020237  0.33651590  1
  Ni  Ni18  1  0.66927351  1.00247871  1.00302496  1
  Ni  Ni19  1  0.83755029  0.16927505  0.16948864  1
  Fe  Fe20  1  0.67100545  1.00376910  0.33632563  1
  Fe  Fe21  1  0.67125711  0.33640127  1.00313248  1
  Ni  Ni22  1  0.83787070  0.50418243  0.17056633  1
  Fe  Fe23  1  0.67065827  0.33859290  0.33726418  1
  Ni  Ni24  1  0.67073411  0.67117018  0.00416149  1
  Ni  Ni25  1  0.83736423  0.83773205  0.17047839  1
  Fe  Fe26  1  0.67041607  0.66889751  0.33699826  1
  Ni  Ni27  1  0.16937798  0.17110215  0.50444216  1
  Ni  Ni28  1  0.00489172  0.00391451  0.67029421  1
  Fe  Fe29  1  0.17004256  0.17073545  0.83765465  1
  Ni  Ni30  1  0.17171659  0.50358117  0.50342258  1
  Ni  Ni31  1  1.00327945  0.33661512  0.67011574  1
  Ni  Ni32  1  0.17052654  0.50394760  0.83707524  1
  Ni  Ni33  1  0.17036589  0.83668809  0.50369169  1
  Ni  Ni34  1  1.00285879  0.67087164  0.66963576  1
  Fe  Fe35  1  0.16982402  0.83689869  0.83692209  1
  Fe  Fe36  1  0.50313901  0.16973715  0.50389963  1
  Fe  Fe37  1  0.33707818  1.00315573  0.67061965  1
  Ni  Ni38  1  0.50411301  0.17007705  0.83606853  1
  Ni  Ni39  1  0.50209130  0.50436454  0.50406935  1
  Fe  Fe40  1  0.33629292  0.33828283  0.67069290  1
  Ni  Ni41  1  0.50260752  0.50445812  0.83797222  1
  Ni  Ni42  1  0.50432545  0.83629753  0.50328617  1
  Fe  Fe43  1  0.33646566  0.66979320  0.66957956  1
  Ni  Ni44  1  0.50427949  0.83670337  0.83725138  1
  Ni  Ni45  1  0.83778102  0.16924327  0.50342747  1
  Fe  Fe46  1  0.67282937  0.00384319  0.67113606  1
  Ni  Ni47  1  0.83765385  0.16929521  0.83826736  1
  Fe  Fe48  1  0.83819260  0.50417758  0.50444892  1
  Ni  Ni49  1  0.66972064  0.33768347  0.67038277  1
  Ni  Ni50  1  0.83775186  0.50418487  0.83660266  1
  Ni  Ni51  1  0.83679042  0.83880484  0.50405511  1
  Ni  Ni52  1  0.66971672  0.67035364  0.66958432  1
  Ni  Ni53  1  0.83697058  0.83771504  0.83657291  1
" 