2169,Ni32Fe34Cr32_12,-226.441731441414, 187.254976750682,Ni32Fe34Cr32,"# generated using pymatgen
 data_Cr19Fe18Ni17
_symmetry_space_group_name_H-M   'P 1'
_cell_length_a   7.47210545
_cell_length_b   7.47210545
_cell_length_c   10.56715286
_cell_angle_alpha   90.00000000
_cell_angle_beta   90.00000000
_cell_angle_gamma   90.00000000
_symmetry_Int_Tables_number   1
_chemical_formula_structural   Cr19Fe18Ni17
_chemical_formula_sum   'Cr19 Fe18 Ni17'
_cell_volume   589.98908060
_cell_formula_units_Z   1
loop_
 _symmetry_equiv_pos_site_id
 _symmetry_equiv_pos_as_xyz
  1  'x, y, z'
loop_
 _atom_site_type_symbol
 _atom_site_label
 _atom_site_symmetry_multiplicity
 _atom_site_fract_x
 _atom_site_fract_y
 _atom_site_fract_z
 _atom_site_occupancy
  Cr  Cr0  1  -0.00009220  0.99814621  0.00280309  1
  Ni  Ni1  1  0.16650059  0.16835869  0.16863086  1
  Fe  Fe2  1  0.99889774  0.00031591  0.32963082  1
  Fe  Fe3  1  0.00099893  0.33112271  0.00265554  1
  Fe  Fe4  1  0.16408011  0.49980229  0.16822258  1
  Ni  Ni5  1  -0.00012913  0.33233207  0.33061126  1
  Fe  Fe6  1  -0.00030126  0.66571277  0.00088127  1
  Cr  Cr7  1  0.16905143  0.83497996  0.16837844  1
  Ni  Ni8  1  0.99797368  0.66668839  0.32989742  1
  Ni  Ni9  1  0.33388852  0.00374558  0.99839976  1
  Fe  Fe10  1  0.49948062  0.16268973  0.16545861  1
  Ni  Ni11  1  0.33417372  0.00208428  0.33275566  1
  Cr  Cr12  1  0.33296607  0.33377311  0.00167632  1
  Fe  Fe13  1  0.49972614  0.49966564  0.16663321  1
  Ni  Ni14  1  0.33214671  0.33121736  0.32934875  1
  Fe  Fe15  1  0.33268885  0.66678914  -0.00007412  1
  Cr  Cr16  1  0.49911124  0.83223629  0.16649825  1
  Ni  Ni17  1  0.33330625  0.66508621  0.33122294  1
  Ni  Ni18  1  0.66760856  -0.00004544  0.00028639  1
  Ni  Ni19  1  0.83347729  0.16728159  0.16798265  1
  Fe  Fe20  1  0.66615339  0.99929046  0.33033372  1
  Fe  Fe21  1  0.66634714  0.33067496  0.00258330  1
  Fe  Fe22  1  0.83498126  0.50041695  0.16623498  1
  Cr  Cr23  1  0.66469819  0.33278121  0.33082764  1
  Fe  Fe24  1  0.66659945  0.66719828  0.00165983  1
  Ni  Ni25  1  0.83079895  0.83293939  0.16631775  1
  Ni  Ni26  1  0.66732155  0.66728765  0.33053189  1
  Cr  Cr27  1  0.16502107  0.16748969  0.49720628  1
  Cr  Cr28  1  0.99860212  0.99813715  0.66729779  1
  Ni  Ni29  1  0.16728137  0.16839328  0.83327926  1
  Cr  Cr30  1  0.16556877  0.50009336  0.49824371  1
  Fe  Fe31  1  0.00177711  0.33509894  0.66728990  1
  Ni  Ni32  1  0.16723236  0.49855887  0.83325454  1
  Cr  Cr33  1  0.16924918  0.83169812  0.49657327  1
  Ni  Ni34  1  0.00088258  0.66858317  0.66974652  1
  Cr  Cr35  1  0.16810640  0.83357393  0.83426603  1
  Fe  Fe36  1  0.49932301  0.16311525  0.49736797  1
  Fe  Fe37  1  0.33474582  0.99895465  0.66583775  1
  Fe  Fe38  1  0.49923744  0.16603894  0.83564223  1
  Cr  Cr39  1  0.49763947  0.50246160  0.49594015  1
  Cr  Cr40  1  0.33472445  0.33295065  0.66832748  1
  Ni  Ni41  1  0.49902457  0.50054198  0.83660735  1
  Fe  Fe42  1  0.49822714  0.83425285  0.49682637  1
  Ni  Ni43  1  0.33210439  0.66519503  0.66801916  1
  Cr  Cr44  1  0.50000025  0.83350715  0.83402223  1
  Fe  Fe45  1  0.83249958  0.16583588  0.49739347  1
  Fe  Fe46  1  0.66407997  0.99819085  0.66631452  1
  Cr  Cr47  1  0.83336560  0.16642808  0.83292836  1
  Cr  Cr48  1  0.83584396  0.49777074  0.49952300  1
  Cr  Cr49  1  0.66319948  0.33093801  0.66602047  1
  Cr  Cr50  1  0.83335006  0.49889119  0.83486338  1
  Cr  Cr51  1  0.83144586  0.83318355  0.49667873  1
  Cr  Cr52  1  0.66606089  0.66654833  0.66610019  1
  Ni  Ni53  1  0.83067715  0.83272120  0.83576490  1
" 