6896,Ni32Fe26Cr40_7,-223.465766584126, 177.527675987755,Ni32Fe26Cr40,"# generated using pymatgen
 data_Cr23Fe14Ni17
_symmetry_space_group_name_H-M   'P 1'
_cell_length_a   7.48950886
_cell_length_b   7.48950886
_cell_length_c   10.59176501
_cell_angle_alpha   90.00000000
_cell_angle_beta   90.00000000
_cell_angle_gamma   90.00000000
_symmetry_Int_Tables_number   1
_chemical_formula_structural   Cr23Fe14Ni17
_chemical_formula_sum   'Cr23 Fe14 Ni17'
_cell_volume   594.12115234
_cell_formula_units_Z   1
loop_
 _symmetry_equiv_pos_site_id
 _symmetry_equiv_pos_as_xyz
  1  'x, y, z'
loop_
 _atom_site_type_symbol
 _atom_site_label
 _atom_site_symmetry_multiplicity
 _atom_site_fract_x
 _atom_site_fract_y
 _atom_site_fract_z
 _atom_site_occupancy
  Ni  Ni0  1  -0.00047727  0.00099397  0.99594798  1
  Ni  Ni1  1  0.16440241  0.16606956  0.16382735  1
  Cr  Cr2  1  0.00218019  -0.00040134  0.33199186  1
  Fe  Fe3  1  0.00072442  0.32893983  -0.00071370  1
  Ni  Ni4  1  0.16286710  0.49815997  0.16628889  1
  Fe  Fe5  1  0.99746843  0.33482619  0.33246051  1
  Cr  Cr6  1  0.99727830  0.66519502  0.00032605  1
  Ni  Ni7  1  0.16491188  0.83123520  0.16825082  1
  Ni  Ni8  1  0.00021123  0.66249846  0.33140909  1
  Cr  Cr9  1  0.32890876  -0.00044414  0.00093026  1
  Cr  Cr10  1  0.49625764  0.16594609  0.16665289  1
  Fe  Fe11  1  0.32953490  0.99589054  0.33230280  1
  Fe  Fe12  1  0.32710806  0.33044513  -0.00089377  1
  Cr  Cr13  1  0.49964722  0.49898432  0.16493883  1
  Cr  Cr14  1  0.32976731  0.33169735  0.33078558  1
  Cr  Cr15  1  0.33217785  0.66488036  0.99806552  1
  Cr  Cr16  1  0.49761381  0.83052677  0.16770898  1
  Ni  Ni17  1  0.32998812  0.66606560  0.33438415  1
  Cr  Cr18  1  0.66707623  0.99651062  0.99497005  1
  Cr  Cr19  1  0.83412802  0.16746666  0.16631106  1
  Cr  Cr20  1  0.66390631  -0.00049516  0.33286375  1
  Cr  Cr21  1  0.66683395  0.33325212  0.99834137  1
  Ni  Ni22  1  0.83374965  0.49909658  0.16834526  1
  Ni  Ni23  1  0.66777923  0.33510715  0.33456776  1
  Fe  Fe24  1  0.66631899  0.66678885  0.99779287  1
  Cr  Cr25  1  0.83346146  0.82860859  0.16408674  1
  Ni  Ni26  1  0.66529638  0.66134023  0.33129158  1
  Ni  Ni27  1  0.16445736  0.16589954  0.49852131  1
  Fe  Fe28  1  0.99740943  -0.00051954  0.66571371  1
  Ni  Ni29  1  0.16295319  0.16567617  0.83311626  1
  Fe  Fe30  1  0.16464750  0.49907881  0.49838972  1
  Cr  Cr31  1  -0.00126763  0.33047774  0.66374190  1
  Cr  Cr32  1  0.16671177  0.49630255  0.83081177  1
  Fe  Fe33  1  0.16545042  0.83106159  0.49773255  1
  Ni  Ni34  1  -0.00111081  0.66626290  0.66375751  1
  Cr  Cr35  1  0.16229499  0.83243312  0.82919120  1
  Cr  Cr36  1  0.49948574  0.16685654  0.49825801  1
  Cr  Cr37  1  0.33136167  -0.00136860  0.66411281  1
  Cr  Cr38  1  0.49770721  0.16635570  0.83073026  1
  Fe  Fe39  1  0.49859044  0.49865820  0.49790786  1
  Ni  Ni40  1  0.33119037  0.33176653  0.66559138  1
  Cr  Cr41  1  0.49629373  0.49852011  0.83138189  1
  Fe  Fe42  1  0.49695748  0.83046625  0.49753278  1
  Fe  Fe43  1  0.33074672  0.66397749  0.66315240  1
  Ni  Ni44  1  0.50159790  0.83108548  0.83052735  1
  Ni  Ni45  1  0.83228613  0.16719819  0.49961437  1
  Fe  Fe46  1  0.66781161  -0.00068854  0.66636144  1
  Ni  Ni47  1  0.83399449  0.16148672  0.82988714  1
  Fe  Fe48  1  0.83229937  0.49689892  0.49624310  1
  Fe  Fe49  1  0.66569373  0.33062582  0.66360846  1
  Cr  Cr50  1  0.83251502  0.49958705  0.83264919  1
  Cr  Cr51  1  0.83363849  0.83106958  0.49915906  1
  Cr  Cr52  1  0.66518490  0.66610833  0.66693421  1
  Ni  Ni53  1  0.83100442  0.83456505  0.83116405  1
" 