8431,Ni32Fe68_7,-243.00170338773, 220.5751755355,Ni32Fe68,"# generated using pymatgen
 data_Fe17Ni37
_symmetry_space_group_name_H-M   'P 1'
_cell_length_a   7.41012221
_cell_length_b   7.41012221
_cell_length_c   10.47949533
_cell_angle_alpha   90.00000000
_cell_angle_beta   90.00000000
_cell_angle_gamma   90.00000000
_symmetry_Int_Tables_number   1
_chemical_formula_structural   Fe17Ni37
_chemical_formula_sum   'Fe17 Ni37'
_cell_volume   575.42815756
_cell_formula_units_Z   1
loop_
 _symmetry_equiv_pos_site_id
 _symmetry_equiv_pos_as_xyz
  1  'x, y, z'
loop_
 _atom_site_type_symbol
 _atom_site_label
 _atom_site_symmetry_multiplicity
 _atom_site_fract_x
 _atom_site_fract_y
 _atom_site_fract_z
 _atom_site_occupancy
  Ni  Ni0  1  0.00537623  1.00381267  1.00343046  1
  Ni  Ni1  1  0.16926520  0.17041419  0.17000356  1
  Ni  Ni2  1  0.00402113  0.00397792  0.33774657  1
  Fe  Fe3  1  0.00391905  0.33651902  1.00362088  1
  Ni  Ni4  1  0.17120971  0.50409064  0.17080065  1
  Ni  Ni5  1  0.00401265  0.33679448  0.33647417  1
  Fe  Fe6  1  0.00459892  0.67025952  1.00342021  1
  Ni  Ni7  1  0.17184102  0.83701637  0.17099754  1
  Ni  Ni8  1  0.00417024  0.67075239  0.33681302  1
  Ni  Ni9  1  0.33560923  0.00491152  0.00412547  1
  Fe  Fe10  1  0.50305286  0.17086480  0.16961828  1
  Fe  Fe11  1  0.33681122  1.00277068  0.33717124  1
  Ni  Ni12  1  0.33751486  0.33643489  0.00436631  1
  Ni  Ni13  1  0.50411948  0.50520376  0.17034175  1
  Fe  Fe14  1  0.33673862  0.33780746  0.33667008  1
  Fe  Fe15  1  0.33724213  0.67057804  0.00501562  1
  Ni  Ni16  1  0.50345339  0.83587040  0.17038319  1
  Ni  Ni17  1  0.33736118  0.67043159  0.33697714  1
  Fe  Fe18  1  0.66997661  0.00481405  0.00384413  1
  Ni  Ni19  1  0.83734126  0.17108849  0.17059433  1
  Ni  Ni20  1  0.67081931  1.00362267  0.33624502  1
  Ni  Ni21  1  0.66942117  0.33865335  1.00330905  1
  Fe  Fe22  1  0.83707308  0.50393932  0.17087610  1
  Ni  Ni23  1  0.67050064  0.33747200  0.33752094  1
  Ni  Ni24  1  0.67052466  0.66938375  0.00449887  1
  Fe  Fe25  1  0.83765349  0.83714760  0.17127146  1
  Ni  Ni26  1  0.66999301  0.67042856  0.33701038  1
  Ni  Ni27  1  0.16970181  0.16996836  0.50418582  1
  Ni  Ni28  1  0.00435062  0.00392482  0.67034525  1
  Ni  Ni29  1  0.17057866  0.17014646  0.83733497  1
  Fe  Fe30  1  0.16922768  0.50423958  0.50383915  1
  Ni  Ni31  1  0.00511998  0.33714130  0.67130670  1
  Ni  Ni32  1  0.17009229  0.50437879  0.83688227  1
  Ni  Ni33  1  0.17146942  0.83759207  0.50360067  1
  Ni  Ni34  1  1.00287921  0.67045858  0.67047236  1
  Ni  Ni35  1  0.17152915  0.83700070  0.83692399  1
  Fe  Fe36  1  0.50446326  0.16937857  0.50473255  1
  Ni  Ni37  1  0.33680052  0.00504290  0.67048424  1
  Ni  Ni38  1  0.50449069  0.17015710  0.83743179  1
  Fe  Fe39  1  0.50448600  0.50448842  0.50302085  1
  Ni  Ni40  1  0.33633744  0.33632747  0.67058797  1
  Fe  Fe41  1  0.50365063  0.50258766  0.83805935  1
  Ni  Ni42  1  0.50367061  0.83648041  0.50404115  1
  Fe  Fe43  1  0.33627214  0.67147840  0.66996908  1
  Fe  Fe44  1  0.50375854  0.83782082  0.83696288  1
  Ni  Ni45  1  0.83751659  0.17138500  0.50456234  1
  Ni  Ni46  1  0.67037538  1.00280248  0.67143517  1
  Ni  Ni47  1  0.83645517  0.17158813  0.83636646  1
  Ni  Ni48  1  0.83640509  0.50332804  0.50321707  1
  Fe  Fe49  1  0.67162813  0.33649385  0.67086159  1
  Ni  Ni50  1  0.83688754  0.50298724  0.83753609  1
  Ni  Ni51  1  0.83638161  0.83680798  0.50375293  1
  Ni  Ni52  1  0.67118300  0.67091513  0.67001364  1
  Fe  Fe53  1  0.83808554  0.83743665  0.83634435  1
" 