2311,Ni32Fe26Cr40_11,-223.484135174232, 179.327592045733,Ni32Fe26Cr40,"# generated using pymatgen
 data_Cr23Fe14Ni17
_symmetry_space_group_name_H-M   'P 1'
_cell_length_a   7.48756047
_cell_length_b   7.48756047
_cell_length_c   10.58900956
_cell_angle_alpha   90.00000000
_cell_angle_beta   90.00000000
_cell_angle_gamma   90.00000000
_symmetry_Int_Tables_number   1
_chemical_formula_structural   Cr23Fe14Ni17
_chemical_formula_sum   'Cr23 Fe14 Ni17'
_cell_volume   593.65759162
_cell_formula_units_Z   1
loop_
 _symmetry_equiv_pos_site_id
 _symmetry_equiv_pos_as_xyz
  1  'x, y, z'
loop_
 _atom_site_type_symbol
 _atom_site_label
 _atom_site_symmetry_multiplicity
 _atom_site_fract_x
 _atom_site_fract_y
 _atom_site_fract_z
 _atom_site_occupancy
  Ni  Ni0  1  0.99587449  0.00114857  0.99774440  1
  Ni  Ni1  1  0.16698830  0.16628336  0.16512615  1
  Cr  Cr2  1  0.00145512  0.00061899  0.33375900  1
  Cr  Cr3  1  0.00087428  0.33211673  0.00003306  1
  Fe  Fe4  1  0.17103110  0.49820104  0.16498778  1
  Cr  Cr5  1  0.00085065  0.33170580  0.32876254  1
  Cr  Cr6  1  -0.00004887  0.66358728  0.99791425  1
  Cr  Cr7  1  0.16655201  0.83286984  0.16432775  1
  Cr  Cr8  1  -0.00083734  0.66300417  0.33032324  1
  Fe  Fe9  1  0.33082289  0.99785140  0.00017134  1
  Cr  Cr10  1  0.49691024  0.16584614  0.16316646  1
  Ni  Ni11  1  0.33157509  0.99796909  0.33241427  1
  Ni  Ni12  1  0.33157592  0.33483257  -0.00017464  1
  Ni  Ni13  1  0.49708792  0.49816314  0.16502820  1
  Fe  Fe14  1  0.33147168  0.33143650  0.33023487  1
  Ni  Ni15  1  0.33344847  0.66137972  -0.00012945  1
  Ni  Ni16  1  0.49594752  0.83066656  0.16399316  1
  Fe  Fe17  1  0.33369636  0.66659541  0.33113654  1
  Ni  Ni18  1  0.66651942  -0.00060852  -0.00042985  1
  Fe  Fe19  1  0.83132611  0.16481660  0.16354617  1
  Cr  Cr20  1  0.66155945  0.99615051  0.33079498  1
  Fe  Fe21  1  0.66548932  0.33375249  -0.00130644  1
  Fe  Fe22  1  0.82951435  0.49704565  0.16426065  1
  Cr  Cr23  1  0.66556001  0.33400050  0.33242042  1
  Cr  Cr24  1  0.66339186  0.66687668  -0.00070771  1
  Cr  Cr25  1  0.83200385  0.83204119  0.16371632  1
  Cr  Cr26  1  0.66232472  0.66569503  0.33169404  1
  Ni  Ni27  1  0.16802683  0.16402340  0.49822015  1
  Fe  Fe28  1  0.00088861  0.99601321  0.66554270  1
  Cr  Cr29  1  0.16757998  0.16391714  0.83256526  1
  Cr  Cr30  1  0.16506120  0.50004088  0.49764872  1
  Cr  Cr31  1  -0.00119218  0.33164131  0.66649666  1
  Fe  Fe32  1  0.16697254  0.50065833  0.83163378  1
  Fe  Fe33  1  0.16729057  0.83234631  0.50048106  1
  Ni  Ni34  1  0.99794804  0.66363187  0.66648697  1
  Cr  Cr35  1  0.16465814  0.83051062  0.83078485  1
  Cr  Cr36  1  0.49609475  0.16608604  0.49840352  1
  Ni  Ni37  1  0.33148308  0.99698929  0.66293656  1
  Cr  Cr38  1  0.49872806  0.16811528  0.83473539  1
  Fe  Fe39  1  0.49920183  0.50094528  0.49940932  1
  Cr  Cr40  1  0.33188773  0.33288156  0.66532824  1
  Fe  Fe41  1  0.49825799  0.50043371  0.83264002  1
  Ni  Ni42  1  0.49489304  0.82989862  0.49841892  1
  Ni  Ni43  1  0.33373987  0.66633243  0.66407400  1
  Cr  Cr44  1  0.49752359  0.83225563  0.83422029  1
  Cr  Cr45  1  0.83257960  0.16753368  0.50060923  1
  Cr  Cr46  1  0.66371360  0.99655444  0.66578879  1
  Fe  Fe47  1  0.83129237  0.16354272  0.83322392  1
  Ni  Ni48  1  0.83117444  0.50005126  0.50005860  1
  Fe  Fe49  1  0.66451698  0.33640477  0.66592033  1
  Ni  Ni50  1  0.83022777  0.49935830  0.83029205  1
  Cr  Cr51  1  0.83339502  0.82800317  0.50109382  1
  Ni  Ni52  1  0.66464902  0.66396529  0.66491219  1
  Ni  Ni53  1  0.83247362  0.82985005  0.83129817  1
" 