8823,Ni32Fe26Cr40_2,-222.840994034604, 174.018040972795,Ni32Fe26Cr40,"# generated using pymatgen
 data_Cr23Fe14Ni17
_symmetry_space_group_name_H-M   'P 1'
_cell_length_a   7.48815137
_cell_length_b   7.48815137
_cell_length_c   10.58984522
_cell_angle_alpha   90.00000000
_cell_angle_beta   90.00000000
_cell_angle_gamma   90.00000000
_symmetry_Int_Tables_number   1
_chemical_formula_structural   Cr23Fe14Ni17
_chemical_formula_sum   'Cr23 Fe14 Ni17'
_cell_volume   593.79815308
_cell_formula_units_Z   1
loop_
 _symmetry_equiv_pos_site_id
 _symmetry_equiv_pos_as_xyz
  1  'x, y, z'
loop_
 _atom_site_type_symbol
 _atom_site_label
 _atom_site_symmetry_multiplicity
 _atom_site_fract_x
 _atom_site_fract_y
 _atom_site_fract_z
 _atom_site_occupancy
  Ni  Ni0  1  0.00134098  0.00077223  -0.00062016  1
  Ni  Ni1  1  0.16251647  0.16309473  0.16201266  1
  Cr  Cr2  1  0.99726438  0.99818030  0.33309430  1
  Fe  Fe3  1  -0.00050250  0.33101134  -0.00131052  1
  Ni  Ni4  1  0.16418520  0.49775498  0.16462328  1
  Cr  Cr5  1  0.99843521  0.33045586  0.32953414  1
  Cr  Cr6  1  -0.00093565  0.66461900  -0.00083446  1
  Ni  Ni7  1  0.16513613  0.83501341  0.16386119  1
  Cr  Cr8  1  -0.00109557  0.66726039  0.33173962  1
  Ni  Ni9  1  0.32967464  -0.00020317  0.99831311  1
  Cr  Cr10  1  0.49759564  0.16280813  0.16578973  1
  Fe  Fe11  1  0.33226964  0.99767359  0.33028527  1
  Cr  Cr12  1  0.33146925  0.33041166  0.99777911  1
  Ni  Ni13  1  0.49915504  0.49884857  0.16444497  1
  Cr  Cr14  1  0.33190251  0.33007304  0.33177922  1
  Cr  Cr15  1  0.33180286  0.66729515  -0.00138771  1
  Ni  Ni16  1  0.49808041  0.83383542  0.16502660  1
  Cr  Cr17  1  0.33035649  0.66645809  0.32917374  1
  Cr  Cr18  1  0.66287036  0.99827556  0.99826389  1
  Fe  Fe19  1  0.83364562  0.16351234  0.16316849  1
  Ni  Ni20  1  0.66598919  -0.00088558  0.33340838  1
  Fe  Fe21  1  0.66596126  0.33117145  -0.00074984  1
  Fe  Fe22  1  0.83275607  0.49658658  0.16396559  1
  Cr  Cr23  1  0.66573388  0.32886534  0.33138746  1
  Cr  Cr24  1  0.66526548  0.66371331  0.00046534  1
  Fe  Fe25  1  0.83275537  0.83573065  0.16508988  1
  Cr  Cr26  1  0.66667452  0.66740864  0.32855344  1
  Cr  Cr27  1  0.16620394  0.16502001  0.49955686  1
  Ni  Ni28  1  0.99807449  0.00121717  0.66392928  1
  Fe  Fe29  1  0.16467460  0.16503755  0.83251731  1
  Cr  Cr30  1  0.16634448  0.49970197  0.50068090  1
  Ni  Ni31  1  0.99839501  0.32928311  0.66782907  1
  Ni  Ni32  1  0.16409479  0.49716901  0.82935446  1
  Ni  Ni33  1  0.16345666  0.83383864  0.50042871  1
  Cr  Cr34  1  -0.00018365  0.66746405  0.66481114  1
  Fe  Fe35  1  0.16625630  0.83425785  0.83220455  1
  Ni  Ni36  1  0.50180848  0.16348407  0.50000781  1
  Cr  Cr37  1  0.33186522  -0.00031591  0.66775959  1
  Ni  Ni38  1  0.49863901  0.16497524  0.83106484  1
  Cr  Cr39  1  0.49761055  0.49711017  0.50115901  1
  Fe  Fe40  1  0.33043939  0.33084682  0.66723066  1
  Cr  Cr41  1  0.49884724  0.49803487  0.82914444  1
  Cr  Cr42  1  0.49919968  0.83278434  0.49861985  1
  Ni  Ni43  1  0.33266425  0.66611430  0.66726142  1
  Fe  Fe44  1  0.49719471  0.83315307  0.83154156  1
  Fe  Fe45  1  0.83032924  0.16282205  0.50154429  1
  Fe  Fe46  1  0.66649060  -0.00104580  0.66410819  1
  Cr  Cr47  1  0.83315315  0.16441997  0.83211450  1
  Cr  Cr48  1  0.83177713  0.49922847  0.50211222  1
  Fe  Fe49  1  0.66517582  0.32877565  0.66549811  1
  Fe  Fe50  1  0.83246730  0.49643949  0.83007961  1
  Ni  Ni51  1  0.83148006  0.83573065  0.50012329  1
  Ni  Ni52  1  0.66403824  0.66587934  0.66619165  1
  Cr  Cr53  1  0.83310664  0.83273910  0.83017624  1
" 