346,Ni32Fe68_16,-243.014192934004, 221.895846818522,Ni32Fe68,"# generated using pymatgen
 data_Fe17Ni37
_symmetry_space_group_name_H-M   'P 1'
_cell_length_a   7.40944959
_cell_length_b   7.40944959
_cell_length_c   10.47854409
_cell_angle_alpha   90.00000000
_cell_angle_beta   90.00000000
_cell_angle_gamma   90.00000000
_symmetry_Int_Tables_number   1
_chemical_formula_structural   Fe17Ni37
_chemical_formula_sum   'Fe17 Ni37'
_cell_volume   575.27147527
_cell_formula_units_Z   1
loop_
 _symmetry_equiv_pos_site_id
 _symmetry_equiv_pos_as_xyz
  1  'x, y, z'
loop_
 _atom_site_type_symbol
 _atom_site_label
 _atom_site_symmetry_multiplicity
 _atom_site_fract_x
 _atom_site_fract_y
 _atom_site_fract_z
 _atom_site_occupancy
  Ni  Ni0  1  1.00284215  0.00410353  1.00282098  1
  Fe  Fe1  1  0.17049885  0.17021191  0.17107416  1
  Ni  Ni2  1  1.00304620  0.00442075  0.33860391  1
  Fe  Fe3  1  1.00258172  0.33862751  1.00338726  1
  Fe  Fe4  1  0.17198372  0.50475811  0.17016379  1
  Ni  Ni5  1  0.00450710  0.33551700  0.33583874  1
  Ni  Ni6  1  0.00417646  0.67238881  0.00393940  1
  Fe  Fe7  1  0.17086408  0.83674973  0.17105022  1
  Fe  Fe8  1  1.00264428  0.66989922  0.33717857  1
  Fe  Fe9  1  0.33852389  1.00336789  1.00340344  1
  Ni  Ni10  1  0.50227980  0.17056570  0.17127552  1
  Fe  Fe11  1  0.33807712  0.00455747  0.33831168  1
  Ni  Ni12  1  0.33667207  0.33759465  1.00315196  1
  Ni  Ni13  1  0.50431675  0.50309853  0.16977895  1
  Ni  Ni14  1  0.33629241  0.33879192  0.33803874  1
  Ni  Ni15  1  0.33739975  0.66954824  1.00294684  1
  Ni  Ni16  1  0.50382181  0.83808825  0.17056572  1
  Ni  Ni17  1  0.33785584  0.66995075  0.33729196  1
  Ni  Ni18  1  0.67251774  1.00365220  0.00445452  1
  Fe  Fe19  1  0.83465061  0.17030822  0.17068060  1
  Ni  Ni20  1  0.67252042  1.00292801  0.33731380  1
  Ni  Ni21  1  0.66955595  0.33662146  1.00321699  1
  Ni  Ni22  1  0.83745687  0.50436754  0.17038894  1
  Ni  Ni23  1  0.67072981  0.33732554  0.33811491  1
  Ni  Ni24  1  0.67048241  0.67133073  1.00387585  1
  Ni  Ni25  1  0.83732942  0.83639038  0.17059588  1
  Ni  Ni26  1  0.66918708  0.67129297  0.33655058  1
  Ni  Ni27  1  0.17140316  0.17100676  0.50425461  1
  Fe  Fe28  1  0.00392163  1.00369121  0.66971275  1
  Fe  Fe29  1  0.16989551  0.17052153  0.83648778  1
  Ni  Ni30  1  0.16995232  0.50381549  0.50275559  1
  Ni  Ni31  1  0.00436565  0.33619804  0.67087864  1
  Ni  Ni32  1  0.17050897  0.50384919  0.83757439  1
  Ni  Ni33  1  0.17128921  0.83667613  0.50384157  1
  Fe  Fe34  1  0.00457440  0.66992816  0.67074966  1
  Fe  Fe35  1  0.17014175  0.83703400  0.83685463  1
  Fe  Fe36  1  0.50418295  0.17042650  0.50419875  1
  Ni  Ni37  1  0.33760704  1.00371027  0.67055066  1
  Ni  Ni38  1  0.50301932  0.16921048  0.83685720  1
  Fe  Fe39  1  0.50403112  0.50455580  0.50327600  1
  Ni  Ni40  1  0.33499184  0.33826267  0.67016624  1
  Fe  Fe41  1  0.50520564  0.50412162  0.83769920  1
  Fe  Fe42  1  0.50416413  0.83682674  0.50443381  1
  Ni  Ni43  1  0.33783176  0.66971435  0.67128627  1
  Ni  Ni44  1  0.50379642  0.83891444  0.83808624  1
  Ni  Ni45  1  0.83743078  0.17106789  0.50371142  1
  Ni  Ni46  1  0.67187781  1.00285335  0.67042286  1
  Ni  Ni47  1  0.83584384  0.17039753  0.83747250  1
  Ni  Ni48  1  0.83819332  0.50382638  0.50404229  1
  Fe  Fe49  1  0.66993351  0.33709357  0.67101048  1
  Ni  Ni50  1  0.83914872  0.50452037  0.83722532  1
  Ni  Ni51  1  0.83732545  0.83648149  0.50399063  1
  Ni  Ni52  1  0.67025978  0.67182417  0.67134350  1
  Ni  Ni53  1  0.83617664  0.83690180  0.83699003  1
" 