4061,Ni32Fe26Cr40_14,-223.46903767398, 171.228458169638,Ni32Fe26Cr40,"# generated using pymatgen
 data_Cr23Fe14Ni17
_symmetry_space_group_name_H-M   'P 1'
_cell_length_a   7.49186224
_cell_length_b   7.49186224
_cell_length_c   10.59509318
_cell_angle_alpha   90.00000000
_cell_angle_beta   90.00000000
_cell_angle_gamma   90.00000000
_symmetry_Int_Tables_number   1
_chemical_formula_structural   Cr23Fe14Ni17
_chemical_formula_sum   'Cr23 Fe14 Ni17'
_cell_volume   594.68138741
_cell_formula_units_Z   1
loop_
 _symmetry_equiv_pos_site_id
 _symmetry_equiv_pos_as_xyz
  1  'x, y, z'
loop_
 _atom_site_type_symbol
 _atom_site_label
 _atom_site_symmetry_multiplicity
 _atom_site_fract_x
 _atom_site_fract_y
 _atom_site_fract_z
 _atom_site_occupancy
  Ni  Ni0  1  0.00055621  0.00291390  0.99601033  1
  Fe  Fe1  1  0.16710893  0.16279469  0.16289350  1
  Cr  Cr2  1  0.00303214  -0.00082069  0.33578262  1
  Fe  Fe3  1  0.00104695  0.32878941  0.99578650  1
  Cr  Cr4  1  0.16504071  0.49683190  0.16215416  1
  Cr  Cr5  1  -0.00009140  0.32907249  0.33362717  1
  Cr  Cr6  1  -0.00011762  0.67027850  0.99613282  1
  Cr  Cr7  1  0.16705935  0.83327179  0.16604172  1
  Cr  Cr8  1  0.99798604  0.66680664  0.33538929  1
  Fe  Fe9  1  0.33088308  -0.00128453  0.99780006  1
  Fe  Fe10  1  0.49633958  0.16272852  0.16506147  1
  Ni  Ni11  1  0.33305284  0.00015116  0.33259098  1
  Fe  Fe12  1  0.32826737  0.32956307  0.99716413  1
  Cr  Cr13  1  0.49705147  0.49958282  0.16556276  1
  Cr  Cr14  1  0.33193102  0.32723775  0.33231684  1
  Ni  Ni15  1  0.33201754  0.66619258  0.99461311  1
  Cr  Cr16  1  0.49832788  0.83423774  0.16519204  1
  Cr  Cr17  1  0.33164832  0.66728000  0.33671179  1
  Fe  Fe18  1  0.66636335  0.99748693  0.99585258  1
  Cr  Cr19  1  0.83171474  0.16267376  0.16514595  1
  Fe  Fe20  1  0.66299698  0.99761285  0.33509815  1
  Cr  Cr21  1  0.66295406  0.32803357  0.99735132  1
  Cr  Cr22  1  0.83237365  0.49841814  0.16637585  1
  Cr  Cr23  1  0.66324242  0.33092257  0.33557887  1
  Cr  Cr24  1  0.66332506  0.66594294  0.99493735  1
  Cr  Cr25  1  0.82983925  0.83345643  0.16633024  1
  Ni  Ni26  1  0.66329301  0.66606105  0.33521095  1
  Ni  Ni27  1  0.16733222  0.16523248  0.49985980  1
  Ni  Ni28  1  0.00021576  0.00121546  0.66433101  1
  Ni  Ni29  1  0.16403867  0.16610240  0.83233627  1
  Ni  Ni30  1  0.16417879  0.49507738  0.50141395  1
  Ni  Ni31  1  0.00069311  0.32771434  0.66554155  1
  Ni  Ni32  1  0.16661190  0.49471556  0.83131346  1
  Fe  Fe33  1  0.16682550  0.83503732  0.50119591  1
  Cr  Cr34  1  0.99781195  0.66784640  0.66414519  1
  Cr  Cr35  1  0.16726405  0.83365106  0.82904159  1
  Ni  Ni36  1  0.49584744  0.16010389  0.49773272  1
  Fe  Fe37  1  0.33104222  -0.00058281  0.66247877  1
  Cr  Cr38  1  0.49637652  0.16162702  0.82992305  1
  Fe  Fe39  1  0.49745064  0.49930501  0.49993115  1
  Fe  Fe40  1  0.32754678  0.32929310  0.66330493  1
  Cr  Cr41  1  0.49222588  0.49855812  0.82912109  1
  Ni  Ni42  1  0.49904416  0.83527770  0.49887144  1
  Fe  Fe43  1  0.33001799  0.66580288  0.66336446  1
  Ni  Ni44  1  0.49757933  0.83488897  0.83121595  1
  Fe  Fe45  1  0.83312804  0.16312062  0.50156917  1
  Fe  Fe46  1  0.66778709  0.99749282  0.66396658  1
  Ni  Ni47  1  0.83411278  0.16045995  0.82969014  1
  Ni  Ni48  1  0.83374497  0.49902402  0.49739385  1
  Cr  Cr49  1  0.66436175  0.32930850  0.66184481  1
  Cr  Cr50  1  0.83580130  0.49481351  0.83186324  1
  Ni  Ni51  1  0.82808570  0.83310948  0.49766859  1
  Cr  Cr52  1  0.66338111  0.66733124  0.66666076  1
  Ni  Ni53  1  0.83082172  0.83880790  0.83207834  1
" 