2165,Ni32Fe26Cr40_10,-223.886366275751, 182.345936230101,Ni32Fe26Cr40,"# generated using pymatgen
 data_Cr23Fe14Ni17
_symmetry_space_group_name_H-M   'P 1'
_cell_length_a   7.48706393
_cell_length_b   7.48706393
_cell_length_c   10.58830735
_cell_angle_alpha   90.00000000
_cell_angle_beta   90.00000000
_cell_angle_gamma   90.00000000
_symmetry_Int_Tables_number   1
_chemical_formula_structural   Cr23Fe14Ni17
_chemical_formula_sum   'Cr23 Fe14 Ni17'
_cell_volume   593.53949421
_cell_formula_units_Z   1
loop_
 _symmetry_equiv_pos_site_id
 _symmetry_equiv_pos_as_xyz
  1  'x, y, z'
loop_
 _atom_site_type_symbol
 _atom_site_label
 _atom_site_symmetry_multiplicity
 _atom_site_fract_x
 _atom_site_fract_y
 _atom_site_fract_z
 _atom_site_occupancy
  Ni  Ni0  1  0.00278224  0.99588940  0.99798120  1
  Fe  Fe1  1  0.16522781  0.16418693  0.16446506  1
  Cr  Cr2  1  -0.00046883  0.99425866  0.33018856  1
  Cr  Cr3  1  0.00348027  0.33071575  0.99636535  1
  Ni  Ni4  1  0.16483989  0.50388313  0.16586246  1
  Cr  Cr5  1  -0.00039796  0.33452303  0.33317848  1
  Ni  Ni6  1  0.00050461  0.66675906  -0.00103742  1
  Ni  Ni7  1  0.16403020  0.82943221  0.16552157  1
  Ni  Ni8  1  0.00220442  0.66728017  0.33361623  1
  Cr  Cr9  1  0.32883146  -0.00122983  0.99730555  1
  Cr  Cr10  1  0.49692944  0.16566503  0.16885005  1
  Ni  Ni11  1  0.32964662  0.99672414  0.33270487  1
  Fe  Fe12  1  0.32978916  0.33405802  0.99772767  1
  Fe  Fe13  1  0.49622703  0.50008744  0.16528590  1
  Cr  Cr14  1  0.33075543  0.33325623  0.33053958  1
  Cr  Cr15  1  0.33194462  0.66319890  0.99425832  1
  Cr  Cr16  1  0.49487730  0.83225778  0.16459997  1
  Fe  Fe17  1  0.32827069  0.66705143  0.33192055  1
  Cr  Cr18  1  0.66798447  0.99513554  0.99595461  1
  Cr  Cr19  1  0.83188311  0.16579996  0.16308370  1
  Cr  Cr20  1  0.66558334  0.99810423  0.33557771  1
  Cr  Cr21  1  0.66202385  0.33456479  0.99670623  1
  Cr  Cr22  1  0.83339316  0.50050418  0.16451888  1
  Ni  Ni23  1  0.66301465  0.33312121  0.33333877  1
  Ni  Ni24  1  0.66455724  0.66463923  0.99831918  1
  Fe  Fe25  1  0.83590490  0.83004189  0.16198180  1
  Cr  Cr26  1  0.66818105  0.66709623  0.32930471  1
  Cr  Cr27  1  0.16756780  0.16043369  0.49882979  1
  Fe  Fe28  1  0.00072005  0.99848196  0.66735642  1
  Ni  Ni29  1  0.16606081  0.16411642  0.83306802  1
  Fe  Fe30  1  0.16613897  0.50046650  0.50051294  1
  Ni  Ni31  1  -0.00040767  0.33211238  0.66727787  1
  Ni  Ni32  1  0.16396424  0.50015648  0.83036008  1
  Ni  Ni33  1  0.16394821  0.82873204  0.50000837  1
  Fe  Fe34  1  0.00165992  0.66539751  0.66529188  1
  Ni  Ni35  1  0.16548771  0.83222643  0.83036859  1
  Ni  Ni36  1  0.49883364  0.16455406  0.49893142  1
  Ni  Ni37  1  0.32990156  0.99608308  0.66617830  1
  Cr  Cr38  1  0.49834437  0.16413257  0.82974501  1
  Cr  Cr39  1  0.50009669  0.49880360  0.49805391  1
  Cr  Cr40  1  0.32930026  0.33169035  0.66714699  1
  Fe  Fe41  1  0.49731771  0.50106126  0.82911688  1
  Cr  Cr42  1  0.49287982  0.83387014  0.50171320  1
  Fe  Fe43  1  0.33010139  0.66520310  0.66747803  1
  Fe  Fe44  1  0.49640021  0.82961734  0.82905494  1
  Cr  Cr45  1  0.83067286  0.16833353  0.50338073  1
  Fe  Fe46  1  0.66454381  -0.00059991  0.66575535  1
  Fe  Fe47  1  0.83691911  0.16450620  0.82964462  1
  Cr  Cr48  1  0.83455953  0.50032449  0.50077137  1
  Ni  Ni49  1  0.66599002  0.33363834  0.66547224  1
  Cr  Cr50  1  0.83241673  0.49888677  0.83116722  1
  Fe  Fe51  1  0.83340358  0.83185667  0.50273328  1
  Ni  Ni52  1  0.66503054  0.66716718  0.66711003  1
  Cr  Cr53  1  0.83396471  0.82955980  0.83316972  1
" 