5454,Ni32Fe68_4,-243.01701874731, 221.420441617272,Ni32Fe68,"# generated using pymatgen
 data_Fe17Ni37
_symmetry_space_group_name_H-M   'P 1'
_cell_length_a   7.41183434
_cell_length_b   7.41183434
_cell_length_c   10.48191664
_cell_angle_alpha   90.00000000
_cell_angle_beta   90.00000000
_cell_angle_gamma   90.00000000
_symmetry_Int_Tables_number   1
_chemical_formula_structural   Fe17Ni37
_chemical_formula_sum   'Fe17 Ni37'
_cell_volume   575.82711222
_cell_formula_units_Z   1
loop_
 _symmetry_equiv_pos_site_id
 _symmetry_equiv_pos_as_xyz
  1  'x, y, z'
loop_
 _atom_site_type_symbol
 _atom_site_label
 _atom_site_symmetry_multiplicity
 _atom_site_fract_x
 _atom_site_fract_y
 _atom_site_fract_z
 _atom_site_occupancy
  Ni  Ni0  1  0.00523977  1.00207545  0.00460724  1
  Ni  Ni1  1  0.17017279  0.17045947  0.17050192  1
  Fe  Fe2  1  1.00367743  0.00386582  0.33734218  1
  Fe  Fe3  1  0.00379200  0.33597489  0.00437631  1
  Ni  Ni4  1  0.16958711  0.50353225  0.17124349  1
  Ni  Ni5  1  1.00335440  0.33795419  0.33722408  1
  Ni  Ni6  1  0.00421934  0.67124615  0.00374411  1
  Ni  Ni7  1  0.16930163  0.83718147  0.17022734  1
  Ni  Ni8  1  1.00336058  0.67018401  0.33719079  1
  Ni  Ni9  1  0.33671711  0.00399361  1.00273639  1
  Ni  Ni10  1  0.50369588  0.17081790  0.17090651  1
  Ni  Ni11  1  0.33679079  0.00406718  0.33721273  1
  Fe  Fe12  1  0.33695860  0.33614072  1.00307500  1
  Ni  Ni13  1  0.50460040  0.50348929  0.17068086  1
  Fe  Fe14  1  0.33715706  0.33741407  0.33740025  1
  Fe  Fe15  1  0.33708139  0.67130723  1.00365701  1
  Ni  Ni16  1  0.50453274  0.83687068  0.17049890  1
  Fe  Fe17  1  0.33736818  0.67010719  0.33688623  1
  Ni  Ni18  1  0.66921644  0.00483128  1.00370619  1
  Fe  Fe19  1  0.83674223  0.17084946  0.17015232  1
  Fe  Fe20  1  0.67043653  1.00365543  0.33662414  1
  Ni  Ni21  1  0.66918920  0.33698385  1.00372452  1
  Ni  Ni22  1  0.83698583  0.50436486  0.17027498  1
  Ni  Ni23  1  0.66997810  0.33797009  0.33724232  1
  Fe  Fe24  1  0.67056842  0.67179000  0.00403704  1
  Ni  Ni25  1  0.83734185  0.83628382  0.17112413  1
  Ni  Ni26  1  0.67100596  0.66913516  0.33630426  1
  Ni  Ni27  1  0.16909596  0.17009137  0.50406551  1
  Ni  Ni28  1  0.00524602  1.00228421  0.67034314  1
  Ni  Ni29  1  0.16930573  0.17067472  0.83660620  1
  Fe  Fe30  1  0.17083094  0.50321856  0.50380027  1
  Fe  Fe31  1  1.00352237  0.33677155  0.66998171  1
  Ni  Ni32  1  0.17049452  0.50374447  0.83654121  1
  Ni  Ni33  1  0.16991571  0.83713890  0.50371978  1
  Ni  Ni34  1  1.00338308  0.67199821  0.67023910  1
  Ni  Ni35  1  0.16924716  0.83675018  0.83722695  1
  Ni  Ni36  1  0.50454144  0.17132800  0.50406157  1
  Fe  Fe37  1  0.33701335  1.00362557  0.67010658  1
  Ni  Ni38  1  0.50456192  0.17108278  0.83620168  1
  Ni  Ni39  1  0.50460337  0.50392637  0.50331850  1
  Ni  Ni40  1  0.33869486  0.33590937  0.67013575  1
  Ni  Ni41  1  0.50371534  0.50368219  0.83717381  1
  Ni  Ni42  1  0.50370752  0.83591584  0.50378756  1
  Fe  Fe43  1  0.33736900  0.66993201  0.67063173  1
  Ni  Ni44  1  0.50456337  0.83640963  0.83688586  1
  Ni  Ni45  1  0.83753706  0.17099207  0.50316757  1
  Fe  Fe46  1  0.67085394  0.00389867  0.67113580  1
  Ni  Ni47  1  0.83730588  0.16983053  0.83744813  1
  Fe  Fe48  1  0.83626303  0.50348800  0.50276704  1
  Ni  Ni49  1  0.66826309  0.33777417  0.67020335  1
  Fe  Fe50  1  0.83681762  0.50403484  0.83725550  1
  Fe  Fe51  1  0.83685803  0.83725307  0.50410698  1
  Ni  Ni52  1  0.67098151  0.66922888  0.67112389  1
  Ni  Ni53  1  0.83736857  0.83760244  0.83639575  1
" 