8287,Ni32Fe68_6,-243.680201375386, 220.768526026621,Ni32Fe68,"# generated using pymatgen
 data_Fe17Ni37
_symmetry_space_group_name_H-M   'P 1'
_cell_length_a   7.41509990
_cell_length_b   7.41509990
_cell_length_c   10.48653484
_cell_angle_alpha   90.00000000
_cell_angle_beta   90.00000000
_cell_angle_gamma   90.00000000
_symmetry_Int_Tables_number   1
_chemical_formula_structural   Fe17Ni37
_chemical_formula_sum   'Fe17 Ni37'
_cell_volume   576.58855423
_cell_formula_units_Z   1
loop_
 _symmetry_equiv_pos_site_id
 _symmetry_equiv_pos_as_xyz
  1  'x, y, z'
loop_
 _atom_site_type_symbol
 _atom_site_label
 _atom_site_symmetry_multiplicity
 _atom_site_fract_x
 _atom_site_fract_y
 _atom_site_fract_z
 _atom_site_occupancy
  Ni  Ni0  1  1.00269620  1.00303475  0.00397556  1
  Fe  Fe1  1  0.16896827  0.17023250  0.17121791  1
  Ni  Ni2  1  0.00447246  1.00271400  0.33681929  1
  Ni  Ni3  1  0.00401999  0.33616990  1.00333736  1
  Fe  Fe4  1  0.16879158  0.50384664  0.16967437  1
  Ni  Ni5  1  0.00388724  0.33652716  0.33738412  1
  Ni  Ni6  1  0.00368536  0.67130465  0.00360579  1
  Ni  Ni7  1  0.16962654  0.83778309  0.17024774  1
  Ni  Ni8  1  1.00254828  0.67126755  0.33683487  1
  Fe  Fe9  1  0.33656994  1.00316109  0.00455504  1
  Fe  Fe10  1  0.50451429  0.17060381  0.17016859  1
  Ni  Ni11  1  0.33574256  0.00439088  0.33723098  1
  Ni  Ni12  1  0.33723582  0.33755744  0.00393042  1
  Ni  Ni13  1  0.50320579  0.50295355  0.17022261  1
  Ni  Ni14  1  0.33744460  0.33596931  0.33688321  1
  Ni  Ni15  1  0.33683721  0.66917998  0.00419656  1
  Fe  Fe16  1  0.50472996  0.83618387  0.17046032  1
  Fe  Fe17  1  0.33662747  0.66949706  0.33702304  1
  Ni  Ni18  1  0.67137395  1.00343284  0.00428232  1
  Ni  Ni19  1  0.83731557  0.16941579  0.17055591  1
  Fe  Fe20  1  0.67110804  0.00352446  0.33683673  1
  Ni  Ni21  1  0.66925068  0.33656529  0.00351381  1
  Ni  Ni22  1  0.83560115  0.50297638  0.16881014  1
  Ni  Ni23  1  0.66917347  0.33789300  0.33690320  1
  Ni  Ni24  1  0.66998425  0.67050978  1.00286925  1
  Ni  Ni25  1  0.83788498  0.83811652  0.16985545  1
  Ni  Ni26  1  0.67085311  0.66956527  0.33713911  1
  Ni  Ni27  1  0.17021884  0.17073701  0.50374694  1
  Ni  Ni28  1  1.00288497  1.00235473  0.66971696  1
  Fe  Fe29  1  0.16944914  0.17096405  0.83646838  1
  Ni  Ni30  1  0.17132169  0.50174231  0.50272376  1
  Fe  Fe31  1  1.00337134  0.33750522  0.66990653  1
  Ni  Ni32  1  0.17253582  0.50303814  0.83747076  1
  Fe  Fe33  1  0.16970875  0.83587818  0.50287025  1
  Ni  Ni34  1  0.00384670  0.67187011  0.67006605  1
  Fe  Fe35  1  0.16910618  0.83576991  0.83754653  1
  Fe  Fe36  1  0.50329414  0.17118359  0.50350178  1
  Fe  Fe37  1  0.33746591  1.00294795  0.66885043  1
  Fe  Fe38  1  0.50456869  0.17123249  0.83683851  1
  Ni  Ni39  1  0.50274738  0.50397751  0.50381435  1
  Ni  Ni40  1  0.33787580  0.33763945  0.66969553  1
  Ni  Ni41  1  0.50161351  0.50338217  0.83647057  1
  Ni  Ni42  1  0.50442454  0.83631086  0.50353339  1
  Ni  Ni43  1  0.33662250  0.66882861  0.66899623  1
  Fe  Fe44  1  0.50449160  0.83592167  0.83620355  1
  Fe  Fe45  1  0.83681868  0.17072382  0.50365403  1
  Ni  Ni46  1  0.67139722  0.00360758  0.66910944  1
  Ni  Ni47  1  0.83709546  0.16809282  0.83661971  1
  Ni  Ni48  1  0.83643816  0.50403531  0.50446824  1
  Ni  Ni49  1  0.66835338  0.33668068  0.67009169  1
  Fe  Fe50  1  0.83664443  0.50369556  0.83710382  1
  Ni  Ni51  1  0.83591912  0.83741765  0.50307946  1
  Ni  Ni52  1  0.67003881  0.67022427  0.67049934  1
  Ni  Ni53  1  0.83675146  0.83901476  0.83757301  1
" 