4936,Ni32Fe68_1,-243.512912059002, 221.894939457133,Ni32Fe68,"# generated using pymatgen
 data_Fe17Ni37
_symmetry_space_group_name_H-M   'P 1'
_cell_length_a   7.41231698
_cell_length_b   7.41231698
_cell_length_c   10.48259920
_cell_angle_alpha   90.00000000
_cell_angle_beta   90.00000000
_cell_angle_gamma   90.00000000
_symmetry_Int_Tables_number   1
_chemical_formula_structural   Fe17Ni37
_chemical_formula_sum   'Fe17 Ni37'
_cell_volume   575.93960828
_cell_formula_units_Z   1
loop_
 _symmetry_equiv_pos_site_id
 _symmetry_equiv_pos_as_xyz
  1  'x, y, z'
loop_
 _atom_site_type_symbol
 _atom_site_label
 _atom_site_symmetry_multiplicity
 _atom_site_fract_x
 _atom_site_fract_y
 _atom_site_fract_z
 _atom_site_occupancy
  Ni  Ni0  1  0.00414247  1.00297902  0.00404108  1
  Ni  Ni1  1  0.17121896  0.17104924  0.17027971  1
  Ni  Ni2  1  0.00404259  1.00350189  0.33726310  1
  Fe  Fe3  1  0.00416607  0.33817245  0.00382982  1
  Ni  Ni4  1  0.16936483  0.50298080  0.17018111  1
  Fe  Fe5  1  0.00423520  0.33716544  0.33709834  1
  Ni  Ni6  1  0.00377214  0.67192714  0.00373746  1
  Ni  Ni7  1  0.16933829  0.83704736  0.17094580  1
  Ni  Ni8  1  1.00367034  0.67096483  0.33688556  1
  Fe  Fe9  1  0.33704889  1.00332681  0.00369570  1
  Ni  Ni10  1  0.50251721  0.17023906  0.17062426  1
  Ni  Ni11  1  0.33625829  0.00420922  0.33670191  1
  Ni  Ni12  1  0.33802759  0.33733245  0.00383433  1
  Fe  Fe13  1  0.50256580  0.50453240  0.16974404  1
  Fe  Fe14  1  0.33681518  0.33647923  0.33702334  1
  Ni  Ni15  1  0.33682998  0.66919942  1.00339803  1
  Ni  Ni16  1  0.50471580  0.83754600  0.17032618  1
  Ni  Ni17  1  0.33693528  0.66995053  0.33722087  1
  Fe  Fe18  1  0.66985928  1.00277977  0.00390117  1
  Fe  Fe19  1  0.83752737  0.16889532  0.17035624  1
  Ni  Ni20  1  0.67077425  0.00381649  0.33723054  1
  Ni  Ni21  1  0.66890526  0.33770016  1.00346151  1
  Fe  Fe22  1  0.83732977  0.50466859  0.17012025  1
  Fe  Fe23  1  0.67002211  0.33702286  0.33749902  1
  Ni  Ni24  1  0.67047400  0.66919396  0.00391674  1
  Ni  Ni25  1  0.83702222  0.83569262  0.17038961  1
  Ni  Ni26  1  0.67047215  0.66996953  0.33671940  1
  Ni  Ni27  1  0.17131403  0.17045205  0.50310862  1
  Ni  Ni28  1  0.00411256  1.00349505  0.66977248  1
  Ni  Ni29  1  0.17131441  0.17016815  0.83768694  1
  Fe  Fe30  1  0.17110410  0.50388522  0.50274102  1
  Fe  Fe31  1  1.00326024  0.33604517  0.67014589  1
  Fe  Fe32  1  0.17141499  0.50426481  0.83814380  1
  Fe  Fe33  1  0.17079546  0.83741060  0.50321541  1
  Fe  Fe34  1  1.00236283  0.67092932  0.67059707  1
  Ni  Ni35  1  0.16940864  0.83831933  0.83716010  1
  Ni  Ni36  1  0.50193823  0.17045556  0.50388912  1
  Ni  Ni37  1  0.33597423  0.00506790  0.67067136  1
  Ni  Ni38  1  0.50215564  0.17107335  0.83656484  1
  Ni  Ni39  1  0.50502972  0.50333817  0.50322856  1
  Ni  Ni40  1  0.33786053  0.33657988  0.67021616  1
  Ni  Ni41  1  0.50524449  0.50292311  0.83725876  1
  Ni  Ni42  1  0.50503369  0.83728315  0.50374754  1
  Fe  Fe43  1  0.33872910  0.67110125  0.67059906  1
  Ni  Ni44  1  0.50439195  0.83707757  0.83700487  1
  Fe  Fe45  1  0.83584869  0.16978224  0.50385963  1
  Ni  Ni46  1  0.67098589  0.00381129  0.67065416  1
  Fe  Fe47  1  0.83635357  0.16961296  0.83686074  1
  Ni  Ni48  1  0.83660903  0.50522210  0.50320790  1
  Ni  Ni49  1  0.66911831  0.33784212  0.67013071  1
  Ni  Ni50  1  0.83637009  0.50482747  0.83734725  1
  Ni  Ni51  1  0.83661647  0.83540213  0.50366186  1
  Ni  Ni52  1  0.67068713  0.66941929  0.67043485  1
  Ni  Ni53  1  0.83727567  0.83522916  0.83702719  1
" 