2842,Ni32Fe68_14,-243.25670374833, 219.340864668956,Ni32Fe68,"# generated using pymatgen
 data_Fe17Ni37
_symmetry_space_group_name_H-M   'P 1'
_cell_length_a   7.41147237
_cell_length_b   7.41147237
_cell_length_c   10.48140474
_cell_angle_alpha   90.00000000
_cell_angle_beta   90.00000000
_cell_angle_gamma   90.00000000
_symmetry_Int_Tables_number   1
_chemical_formula_structural   Fe17Ni37
_chemical_formula_sum   'Fe17 Ni37'
_cell_volume   575.74275176
_cell_formula_units_Z   1
loop_
 _symmetry_equiv_pos_site_id
 _symmetry_equiv_pos_as_xyz
  1  'x, y, z'
loop_
 _atom_site_type_symbol
 _atom_site_label
 _atom_site_symmetry_multiplicity
 _atom_site_fract_x
 _atom_site_fract_y
 _atom_site_fract_z
 _atom_site_occupancy
  Ni  Ni0  1  1.00304070  0.00437273  0.00473770  1
  Ni  Ni1  1  0.17023687  0.16983772  0.17153548  1
  Fe  Fe2  1  1.00365458  0.00443362  0.33695715  1
  Fe  Fe3  1  0.00460258  0.33850734  0.00393309  1
  Fe  Fe4  1  0.17144695  0.50482911  0.17035375  1
  Ni  Ni5  1  1.00297942  0.33749517  0.33541936  1
  Ni  Ni6  1  1.00371727  0.67150570  0.00393822  1
  Ni  Ni7  1  0.16967676  0.83817089  0.17071812  1
  Fe  Fe8  1  1.00353685  0.67064055  0.33700894  1
  Fe  Fe9  1  0.33603577  1.00291821  1.00369863  1
  Ni  Ni10  1  0.50209697  0.17105000  0.17062439  1
  Ni  Ni11  1  0.33831552  1.00206906  0.33601862  1
  Ni  Ni12  1  0.33747930  0.33705348  0.00448976  1
  Ni  Ni13  1  0.50523579  0.50346576  0.17164596  1
  Fe  Fe14  1  0.33849629  0.33630176  0.33631258  1
  Ni  Ni15  1  0.33742807  0.66955134  0.00393210  1
  Ni  Ni16  1  0.50341243  0.83648735  0.17025034  1
  Ni  Ni17  1  0.33665103  0.67106106  0.33553154  1
  Fe  Fe18  1  0.66976309  1.00198061  1.00344479  1
  Fe  Fe19  1  0.83598808  0.16913535  0.17062216  1
  Ni  Ni20  1  0.66929575  0.00468449  0.33638434  1
  Fe  Fe21  1  0.67011255  0.33872550  1.00349773  1
  Ni  Ni22  1  0.83696572  0.50434323  0.17111768  1
  Ni  Ni23  1  0.67168527  0.33601846  0.33632963  1
  Ni  Ni24  1  0.67034020  0.67027693  0.00439089  1
  Ni  Ni25  1  0.83791066  0.83548651  0.17157251  1
  Fe  Fe26  1  0.66901354  0.67061400  0.33682906  1
  Fe  Fe27  1  0.17189537  0.17067833  0.50353194  1
  Ni  Ni28  1  1.00363777  0.00459192  0.66896412  1
  Ni  Ni29  1  0.16986331  0.16929998  0.83598712  1
  Fe  Fe30  1  0.17133547  0.50307461  0.50375635  1
  Ni  Ni31  1  1.00280217  0.33679388  0.67167541  1
  Fe  Fe32  1  0.17077818  0.50413868  0.83746479  1
  Fe  Fe33  1  0.17246325  0.83746191  0.50421661  1
  Ni  Ni34  1  0.00452787  0.66985176  0.67004886  1
  Ni  Ni35  1  0.16933768  0.83799281  0.83679129  1
  Ni  Ni36  1  0.50424937  0.17078241  0.50412588  1
  Ni  Ni37  1  0.33769497  1.00280542  0.67124446  1
  Ni  Ni38  1  0.50300559  0.17123984  0.83645057  1
  Ni  Ni39  1  0.50342038  0.50365521  0.50325107  1
  Fe  Fe40  1  0.33772299  0.33724014  0.67127621  1
  Ni  Ni41  1  0.50494466  0.50404243  0.83629333  1
  Ni  Ni42  1  0.50273208  0.83664446  0.50365411  1
  Ni  Ni43  1  0.33725059  0.67090065  0.67181769  1
  Ni  Ni44  1  0.50330171  0.83587450  0.83712058  1
  Ni  Ni45  1  0.83830998  0.17106342  0.50322537  1
  Ni  Ni46  1  0.67007754  0.00487334  0.67148819  1
  Ni  Ni47  1  0.83830164  0.17069535  0.83823641  1
  Fe  Fe48  1  0.83552009  0.50220549  0.50409270  1
  Ni  Ni49  1  0.67139031  0.33627277  0.67082076  1
  Ni  Ni50  1  0.83664797  0.50468929  0.83593104  1
  Fe  Fe51  1  0.83434539  0.83828616  0.50455674  1
  Ni  Ni52  1  0.66941228  0.67005999  0.66962995  1
  Ni  Ni53  1  0.83837403  0.83622997  0.83551460  1
" 