6475,Ni32Fe34Cr32_9,-226.376273951746, 188.297661888212,Ni32Fe34Cr32,"# generated using pymatgen
 data_Cr19Fe18Ni17
_symmetry_space_group_name_H-M   'P 1'
_cell_length_a   7.47652743
_cell_length_b   7.47652743
_cell_length_c   10.57340648
_cell_angle_alpha   90.00000000
_cell_angle_beta   90.00000000
_cell_angle_gamma   90.00000000
_symmetry_Int_Tables_number   1
_chemical_formula_structural   Cr19Fe18Ni17
_chemical_formula_sum   'Cr19 Fe18 Ni17'
_cell_volume   591.03716420
_cell_formula_units_Z   1
loop_
 _symmetry_equiv_pos_site_id
 _symmetry_equiv_pos_as_xyz
  1  'x, y, z'
loop_
 _atom_site_type_symbol
 _atom_site_label
 _atom_site_symmetry_multiplicity
 _atom_site_fract_x
 _atom_site_fract_y
 _atom_site_fract_z
 _atom_site_occupancy
  Fe  Fe0  1  0.00056158  0.99637442  0.99877323  1
  Fe  Fe1  1  0.16803069  0.16235512  0.16621007  1
  Fe  Fe2  1  0.00164097  0.99779206  0.33325923  1
  Cr  Cr3  1  0.99791425  0.33427058  -0.00048372  1
  Cr  Cr4  1  0.16674659  0.50055803  0.16537724  1
  Fe  Fe5  1  0.00055992  0.33166163  0.33241282  1
  Fe  Fe6  1  0.99902723  0.66718995  0.99778929  1
  Ni  Ni7  1  0.16647773  0.83303602  0.16551762  1
  Fe  Fe8  1  0.00005982  0.66864210  0.33280429  1
  Fe  Fe9  1  0.33273131  0.99864038  0.00004425  1
  Ni  Ni10  1  0.49782457  0.16696535  0.16457016  1
  Ni  Ni11  1  0.33104581  0.99850122  0.33198664  1
  Fe  Fe12  1  0.33580242  0.33311723  -0.00003091  1
  Fe  Fe13  1  0.50039211  0.49990911  0.16451292  1
  Cr  Cr14  1  0.33340045  0.33122715  0.33295085  1
  Ni  Ni15  1  0.33101854  0.66760830  0.99838060  1
  Cr  Cr16  1  0.49794019  0.83221827  0.16702227  1
  Ni  Ni17  1  0.33098272  0.66855308  0.33323745  1
  Cr  Cr18  1  0.66481536  0.00057116  0.99693818  1
  Cr  Cr19  1  0.83265288  0.16608229  0.16690850  1
  Ni  Ni20  1  0.66557319  0.99890763  0.33373717  1
  Ni  Ni21  1  0.66534643  0.33354830  -0.00041847  1
  Fe  Fe22  1  0.83075531  0.50051066  0.16551106  1
  Cr  Cr23  1  0.66516526  0.33244601  0.33127204  1
  Ni  Ni24  1  0.66616830  0.66421509  0.99905684  1
  Cr  Cr25  1  0.83335000  0.83161941  0.16801627  1
  Fe  Fe26  1  0.66485313  0.66708052  0.33344765  1
  Fe  Fe27  1  0.16597940  0.16427103  0.49902049  1
  Fe  Fe28  1  0.99795672  0.99934900  0.66607363  1
  Cr  Cr29  1  0.16463663  0.16736448  0.83304566  1
  Cr  Cr30  1  0.16724908  0.49818623  0.49971528  1
  Ni  Ni31  1  0.99739763  0.33196550  0.66682080  1
  Ni  Ni32  1  0.16480331  0.49964169  0.83375648  1
  Fe  Fe33  1  0.16501965  0.83452047  0.49624723  1
  Cr  Cr34  1  0.99857692  0.66670289  0.66870763  1
  Fe  Fe35  1  0.16603567  0.83106595  0.83541310  1
  Ni  Ni36  1  0.49856286  0.16647480  0.49933592  1
  Cr  Cr37  1  0.33266553  0.99873918  0.66536204  1
  Fe  Fe38  1  0.50116125  0.16594210  0.83392338  1
  Ni  Ni39  1  0.49946031  0.49946297  0.49925893  1
  Cr  Cr40  1  0.33347423  0.33244604  0.66397461  1
  Cr  Cr41  1  0.49953602  0.50048690  0.83309341  1
  Cr  Cr42  1  0.50116059  0.83140446  0.49712855  1
  Cr  Cr43  1  0.33258640  0.66690884  0.66591424  1
  Ni  Ni44  1  0.50113765  0.83180553  0.83420778  1
  Cr  Cr45  1  0.83418429  0.16400819  0.50085415  1
  Cr  Cr46  1  0.66660247  -0.00050361  0.66742674  1
  Fe  Fe47  1  0.83180814  0.16714933  0.83180425  1
  Cr  Cr48  1  0.83143469  0.50035826  0.50002924  1
  Ni  Ni49  1  0.66796595  0.33270741  0.66693581  1
  Fe  Fe50  1  0.83205968  0.49993584  0.83225046  1
  Ni  Ni51  1  0.83331962  0.83373674  0.49761748  1
  Ni  Ni52  1  0.66800085  0.66547819  0.66601547  1
  Ni  Ni53  1  0.83215320  0.83255602  0.83302922  1
" 