6330,Ni32Fe68_18,-243.336348839146, 216.330267708443,Ni32Fe68,"# generated using pymatgen
 data_Fe17Ni37
_symmetry_space_group_name_H-M   'P 1'
_cell_length_a   7.41321059
_cell_length_b   7.41321059
_cell_length_c   10.48386295
_cell_angle_alpha   90.00000000
_cell_angle_beta   90.00000000
_cell_angle_gamma   90.00000000
_symmetry_Int_Tables_number   1
_chemical_formula_structural   Fe17Ni37
_chemical_formula_sum   'Fe17 Ni37'
_cell_volume   576.14793504
_cell_formula_units_Z   1
loop_
 _symmetry_equiv_pos_site_id
 _symmetry_equiv_pos_as_xyz
  1  'x, y, z'
loop_
 _atom_site_type_symbol
 _atom_site_label
 _atom_site_symmetry_multiplicity
 _atom_site_fract_x
 _atom_site_fract_y
 _atom_site_fract_z
 _atom_site_occupancy
  Ni  Ni0  1  1.00358376  1.00338910  0.00383640  1
  Ni  Ni1  1  0.17066309  0.17107860  0.16943463  1
  Ni  Ni2  1  0.00390600  0.00363985  0.33655097  1
  Ni  Ni3  1  1.00270937  0.33683684  0.00483506  1
  Ni  Ni4  1  0.17031414  0.50299963  0.17096227  1
  Fe  Fe5  1  0.00437162  0.33629785  0.33659756  1
  Ni  Ni6  1  1.00292496  0.67066531  0.00390426  1
  Ni  Ni7  1  0.17063635  0.83681642  0.17141225  1
  Fe  Fe8  1  0.00377684  0.67096362  0.33579247  1
  Ni  Ni9  1  0.33639490  1.00339120  0.00392369  1
  Ni  Ni10  1  0.50307386  0.17043160  0.17142875  1
  Ni  Ni11  1  0.33592516  0.00451629  0.33689651  1
  Ni  Ni12  1  0.33759770  0.33715774  0.00393936  1
  Ni  Ni13  1  0.50312068  0.50334025  0.17009104  1
  Ni  Ni14  1  0.33713218  0.33640614  0.33610100  1
  Ni  Ni15  1  0.33738154  0.67034388  0.00483764  1
  Ni  Ni16  1  0.50344234  0.83712274  0.17054024  1
  Fe  Fe17  1  0.33726480  0.67098639  0.33637771  1
  Fe  Fe18  1  0.67022288  0.00434262  1.00297610  1
  Ni  Ni19  1  0.83715406  0.17075371  0.17106872  1
  Fe  Fe20  1  0.66978330  1.00308479  0.33720831  1
  Ni  Ni21  1  0.67058626  0.33782630  0.00392449  1
  Ni  Ni22  1  0.83746108  0.50336660  0.17063990  1
  Fe  Fe23  1  0.66980803  0.33650015  0.33540141  1
  Fe  Fe24  1  0.67061512  0.66998509  0.00402100  1
  Ni  Ni25  1  0.83681345  0.83677264  0.17010810  1
  Ni  Ni26  1  0.67070710  0.66999609  0.33589209  1
  Ni  Ni27  1  0.17073937  0.17137500  0.50464483  1
  Ni  Ni28  1  1.00293248  0.00440967  0.67050525  1
  Fe  Fe29  1  0.16970803  0.16978319  0.83660326  1
  Fe  Fe30  1  0.17085957  0.50346546  0.50426469  1
  Ni  Ni31  1  0.00382487  0.33608149  0.67029742  1
  Ni  Ni32  1  0.16966553  0.50364970  0.83627156  1
  Fe  Fe33  1  0.17046702  0.83834300  0.50380597  1
  Fe  Fe34  1  0.00390150  0.67084091  0.67146563  1
  Ni  Ni35  1  0.17088882  0.83590740  0.83540497  1
  Fe  Fe36  1  0.50277320  0.16919394  0.50388011  1
  Ni  Ni37  1  0.33683221  1.00353586  0.67007272  1
  Ni  Ni38  1  0.50374833  0.16975562  0.83572741  1
  Fe  Fe39  1  0.50346453  0.50443613  0.50321390  1
  Ni  Ni40  1  0.33626180  0.33728056  0.67085355  1
  Fe  Fe41  1  0.50372817  0.50415224  0.83726117  1
  Ni  Ni42  1  0.50443878  0.83697065  0.50400657  1
  Ni  Ni43  1  0.33873153  0.67007990  0.66952458  1
  Ni  Ni44  1  0.50321776  0.83799129  0.83634344  1
  Fe  Fe45  1  0.83764902  0.16880202  0.50419217  1
  Ni  Ni46  1  0.67112650  1.00194386  0.66975003  1
  Ni  Ni47  1  0.83628132  0.17097813  0.83581637  1
  Fe  Fe48  1  0.83657243  0.50443831  0.50380593  1
  Fe  Fe49  1  0.67009519  0.33613630  0.67153965  1
  Ni  Ni50  1  0.83836338  0.50311933  0.83618244  1
  Ni  Ni51  1  0.83571918  0.83663881  0.50441819  1
  Ni  Ni52  1  0.66993312  0.67096645  0.67116295  1
  Ni  Ni53  1  0.83678814  0.83679565  0.83636566  1
" 