4067,Ni32Fe68_12,-243.065093852895, 219.368152661988,Ni32Fe68,"# generated using pymatgen
 data_Fe17Ni37
_symmetry_space_group_name_H-M   'P 1'
_cell_length_a   7.41070124
_cell_length_b   7.41070124
_cell_length_c   10.48031421
_cell_angle_alpha   90.00000000
_cell_angle_beta   90.00000000
_cell_angle_gamma   90.00000000
_symmetry_Int_Tables_number   1
_chemical_formula_structural   Fe17Ni37
_chemical_formula_sum   'Fe17 Ni37'
_cell_volume   575.56306176
_cell_formula_units_Z   1
loop_
 _symmetry_equiv_pos_site_id
 _symmetry_equiv_pos_as_xyz
  1  'x, y, z'
loop_
 _atom_site_type_symbol
 _atom_site_label
 _atom_site_symmetry_multiplicity
 _atom_site_fract_x
 _atom_site_fract_y
 _atom_site_fract_z
 _atom_site_occupancy
  Ni  Ni0  1  1.00344623  0.00397547  0.00403702  1
  Ni  Ni1  1  0.17018555  0.17045197  0.17044796  1
  Ni  Ni2  1  1.00323502  0.00418618  0.33626492  1
  Ni  Ni3  1  1.00345008  0.33798566  1.00325233  1
  Ni  Ni4  1  0.17051546  0.50321985  0.17020661  1
  Ni  Ni5  1  0.00408952  0.33748840  0.33730273  1
  Ni  Ni6  1  1.00343323  0.66944023  1.00339616  1
  Fe  Fe7  1  0.17123522  0.83714863  0.17048258  1
  Ni  Ni8  1  1.00322435  0.66972840  0.33750518  1
  Ni  Ni9  1  0.33825120  1.00363323  1.00380088  1
  Ni  Ni10  1  0.50299985  0.17026528  0.17032396  1
  Ni  Ni11  1  0.33824215  0.00384565  0.33721396  1
  Fe  Fe12  1  0.33624025  0.33616833  0.00447672  1
  Ni  Ni13  1  0.50369250  0.50442127  0.17090222  1
  Ni  Ni14  1  0.33703875  0.33748104  0.33749807  1
  Fe  Fe15  1  0.33647673  0.67119705  0.00381550  1
  Ni  Ni16  1  0.50471660  0.83671872  0.17033310  1
  Ni  Ni17  1  0.33824546  0.67007551  0.33664093  1
  Ni  Ni18  1  0.66970956  1.00361672  1.00307447  1
  Fe  Fe19  1  0.83694671  0.16996913  0.17024796  1
  Ni  Ni20  1  0.66992551  1.00297990  0.33759619  1
  Fe  Fe21  1  0.67119192  0.33647190  1.00271239  1
  Fe  Fe22  1  0.83747401  0.50413803  0.17055777  1
  Fe  Fe23  1  0.67000034  0.33727236  0.33823820  1
  Fe  Fe24  1  0.67127041  0.67119850  0.00446344  1
  Ni  Ni25  1  0.83701597  0.83703983  0.17044657  1
  Ni  Ni26  1  0.66993838  0.67092986  0.33694617  1
  Ni  Ni27  1  0.16981264  0.16901416  0.50399932  1
  Ni  Ni28  1  1.00380022  0.00448260  0.67110223  1
  Ni  Ni29  1  0.16921504  0.16870597  0.83696452  1
  Fe  Fe30  1  0.17113438  0.50314020  0.50293177  1
  Ni  Ni31  1  1.00289283  0.33684258  0.67084786  1
  Fe  Fe32  1  0.16966968  0.50321293  0.83761749  1
  Ni  Ni33  1  0.17101364  0.83828230  0.50255446  1
  Fe  Fe34  1  0.00477257  0.67004607  0.67068632  1
  Ni  Ni35  1  0.17041790  0.83867193  0.83831313  1
  Ni  Ni36  1  0.50344912  0.17055990  0.50421567  1
  Ni  Ni37  1  0.33716900  1.00326475  0.67039011  1
  Fe  Fe38  1  0.50371150  0.17070819  0.83704314  1
  Ni  Ni39  1  0.50498848  0.50446303  0.50321850  1
  Ni  Ni40  1  0.33772392  0.33770082  0.67096321  1
  Ni  Ni41  1  0.50508587  0.50437169  0.83728930  1
  Ni  Ni42  1  0.50260437  0.83638288  0.50375270  1
  Ni  Ni43  1  0.33806156  0.67043821  0.67062037  1
  Fe  Fe44  1  0.50337340  0.83756105  0.83720299  1
  Ni  Ni45  1  0.83814263  0.17140037  0.50334883  1
  Fe  Fe46  1  0.66997742  0.00530725  0.67007761  1
  Ni  Ni47  1  0.83864069  0.17110644  0.83762120  1
  Ni  Ni48  1  0.83624358  0.50326262  0.50333668  1
  Ni  Ni49  1  0.67078857  0.33772925  0.67040419  1
  Ni  Ni50  1  0.83590901  0.50316550  0.83787289  1
  Fe  Fe51  1  0.83679791  0.83787152  0.50239154  1
  Fe  Fe52  1  0.66963922  0.66902537  0.66988237  1
  Fe  Fe53  1  0.83806512  0.83752652  0.83845883  1
" 