5761,Ni32Fe26Cr40_3,-222.933664547868, 174.717315780777,Ni32Fe26Cr40,"# generated using pymatgen
 data_Cr23Fe14Ni17
_symmetry_space_group_name_H-M   'P 1'
_cell_length_a   7.48687133
_cell_length_b   7.48687133
_cell_length_c   10.58803498
_cell_angle_alpha   90.00000000
_cell_angle_beta   90.00000000
_cell_angle_gamma   90.00000000
_symmetry_Int_Tables_number   1
_chemical_formula_structural   Cr23Fe14Ni17
_chemical_formula_sum   'Cr23 Fe14 Ni17'
_cell_volume   593.49369114
_cell_formula_units_Z   1
loop_
 _symmetry_equiv_pos_site_id
 _symmetry_equiv_pos_as_xyz
  1  'x, y, z'
loop_
 _atom_site_type_symbol
 _atom_site_label
 _atom_site_symmetry_multiplicity
 _atom_site_fract_x
 _atom_site_fract_y
 _atom_site_fract_z
 _atom_site_occupancy
  Cr  Cr0  1  0.00074735  -0.00041925  0.99827768  1
  Ni  Ni1  1  0.16852710  0.16926666  0.16765143  1
  Cr  Cr2  1  -0.00072301  0.00196714  0.33167628  1
  Fe  Fe3  1  0.00065821  0.33057157  0.99819631  1
  Cr  Cr4  1  0.16441244  0.49360851  0.16817046  1
  Fe  Fe5  1  0.99860942  0.33314534  0.33441541  1
  Cr  Cr6  1  -0.00098440  0.66768382  0.99650764  1
  Cr  Cr7  1  0.16602651  0.83235899  0.16687795  1
  Ni  Ni8  1  0.99481986  0.66735099  0.33377530  1
  Cr  Cr9  1  0.32991535  0.00030419  -0.00043725  1
  Fe  Fe10  1  0.49763597  0.16765467  0.16716380  1
  Fe  Fe11  1  0.33480578  0.00075559  0.33225820  1
  Ni  Ni12  1  0.33467146  0.32980562  0.99770813  1
  Fe  Fe13  1  0.49859637  0.49584500  0.16541870  1
  Ni  Ni14  1  0.33336084  0.32804915  0.33393482  1
  Cr  Cr15  1  0.33367135  0.66403375  -0.00034302  1
  Ni  Ni16  1  0.50289882  0.83579079  0.16981672  1
  Cr  Cr17  1  0.33547966  0.66328935  0.32979881  1
  Cr  Cr18  1  0.66473769  0.00058088  0.00191062  1
  Fe  Fe19  1  0.83277105  0.16548008  0.16502869  1
  Fe  Fe20  1  0.66346929  0.99777332  0.33350150  1
  Ni  Ni21  1  0.66206739  0.33198398  0.99797573  1
  Cr  Cr22  1  0.83277886  0.49732081  0.16430448  1
  Cr  Cr23  1  0.66452874  0.33232829  0.33448752  1
  Cr  Cr24  1  0.66386890  0.66270795  -0.00019918  1
  Ni  Ni25  1  0.82734340  0.83161940  0.16939063  1
  Ni  Ni26  1  0.66585641  0.66524327  0.33325252  1
  Ni  Ni27  1  0.16934170  0.16550825  0.49688266  1
  Ni  Ni28  1  0.00137227  -0.00046253  0.66513079  1
  Ni  Ni29  1  0.16689193  0.16668251  0.83125353  1
  Cr  Cr30  1  0.16405888  0.49758109  0.49679711  1
  Cr  Cr31  1  0.99745300  0.32871360  0.66243805  1
  Cr  Cr32  1  0.16573797  0.49747430  0.83059818  1
  Cr  Cr33  1  0.16648481  0.83173718  0.50040375  1
  Fe  Fe34  1  0.99798023  0.66491551  0.66457241  1
  Ni  Ni35  1  0.16578098  0.83334721  0.82800983  1
  Ni  Ni36  1  0.49790989  0.16362016  0.49786263  1
  Cr  Cr37  1  0.32975452  0.00109715  0.66606555  1
  Fe  Fe38  1  0.49624202  0.16895668  0.83199454  1
  Fe  Fe39  1  0.49576712  0.49698051  0.49856895  1
  Fe  Fe40  1  0.33236822  0.33137961  0.66385599  1
  Ni  Ni41  1  0.49818063  0.49497762  0.83170244  1
  Fe  Fe42  1  0.49885841  0.83152539  0.49733464  1
  Ni  Ni43  1  0.33223096  0.66353351  0.66618450  1
  Cr  Cr44  1  0.49803063  0.83361744  0.83087347  1
  Fe  Fe45  1  0.83442350  0.16589563  0.49796497  1
  Cr  Cr46  1  0.66729310  0.00192527  0.66150939  1
  Cr  Cr47  1  0.83026030  0.16691475  0.83392002  1
  Ni  Ni48  1  0.83054851  0.50135110  0.49714728  1
  Cr  Cr49  1  0.66287003  0.33332553  0.66452236  1
  Ni  Ni50  1  0.82998965  0.49609387  0.83316273  1
  Fe  Fe51  1  0.83215279  0.83285231  0.49731707  1
  Cr  Cr52  1  0.66369186  0.66139928  0.66316652  1
  Cr  Cr53  1  0.83228474  0.83146662  0.82875021  1
" 