5664,Ni32Fe34Cr32_16,-226.262184729199, 184.064577037385,Ni32Fe34Cr32,"# generated using pymatgen
 data_Cr19Fe18Ni17
_symmetry_space_group_name_H-M   'P 1'
_cell_length_a   7.47212861
_cell_length_b   7.47212861
_cell_length_c   10.56718562
_cell_angle_alpha   90.00000000
_cell_angle_beta   90.00000000
_cell_angle_gamma   90.00000000
_symmetry_Int_Tables_number   1
_chemical_formula_structural   Cr19Fe18Ni17
_chemical_formula_sum   'Cr19 Fe18 Ni17'
_cell_volume   589.99456700
_cell_formula_units_Z   1
loop_
 _symmetry_equiv_pos_site_id
 _symmetry_equiv_pos_as_xyz
  1  'x, y, z'
loop_
 _atom_site_type_symbol
 _atom_site_label
 _atom_site_symmetry_multiplicity
 _atom_site_fract_x
 _atom_site_fract_y
 _atom_site_fract_z
 _atom_site_occupancy
  Ni  Ni0  1  0.00119363  0.00158391  0.99907554  1
  Fe  Fe1  1  0.16950122  0.16666867  0.16487944  1
  Cr  Cr2  1  0.00076381  0.00315535  0.33293977  1
  Cr  Cr3  1  0.99842140  0.33283315  0.99948356  1
  Cr  Cr4  1  0.16817209  0.49827691  0.16740060  1
  Fe  Fe5  1  0.99831024  0.33377729  0.33439307  1
  Ni  Ni6  1  0.99927576  0.66644113  -0.00023927  1
  Cr  Cr7  1  0.16538604  0.83216296  0.16334888  1
  Fe  Fe8  1  0.99945918  0.66426988  0.33354126  1
  Ni  Ni9  1  0.33134593  0.00264876  0.99901196  1
  Ni  Ni10  1  0.50181928  0.16969582  0.16558225  1
  Cr  Cr11  1  0.33394205  0.00116571  0.33424209  1
  Ni  Ni12  1  0.33433297  0.33029089  0.00115775  1
  Ni  Ni13  1  0.49903629  0.49477513  0.16656508  1
  Fe  Fe14  1  0.33512506  0.33275541  0.33332767  1
  Ni  Ni15  1  0.33282048  0.66583134  0.00099433  1
  Cr  Cr16  1  0.49956297  0.83466528  0.16511684  1
  Fe  Fe17  1  0.33443683  0.66480008  0.33385373  1
  Fe  Fe18  1  0.66628389  0.00333964  0.00001902  1
  Fe  Fe19  1  0.83068565  0.16812135  0.16707839  1
  Ni  Ni20  1  0.66516551  0.00216521  0.33363584  1
  Fe  Fe21  1  0.66510889  0.33059121  0.00038531  1
  Fe  Fe22  1  0.83179954  0.49771699  0.16707667  1
  Fe  Fe23  1  0.66587279  0.33046134  0.33276962  1
  Cr  Cr24  1  0.66709647  0.66131443  -0.00023620  1
  Cr  Cr25  1  0.83387306  0.83592701  0.16641305  1
  Cr  Cr26  1  0.66500758  0.66333281  0.33391287  1
  Ni  Ni27  1  0.16532507  0.17289996  0.49957098  1
  Cr  Cr28  1  0.00222916  0.00296364  0.66723102  1
  Ni  Ni29  1  0.16635767  0.16824139  0.83371643  1
  Fe  Fe30  1  0.16606532  0.49816831  0.50042156  1
  Ni  Ni31  1  -0.00004837  0.33422305  0.66471755  1
  Cr  Cr32  1  0.16817928  0.49897806  0.83127348  1
  Cr  Cr33  1  0.16638541  0.83048787  0.50048016  1
  Ni  Ni34  1  -0.00014869  0.66282664  0.66632414  1
  Ni  Ni35  1  0.16545737  0.83231026  0.83544249  1
  Fe  Fe36  1  0.49982534  0.16723534  0.49804003  1
  Cr  Cr37  1  0.33200796  0.00121995  0.66618113  1
  Fe  Fe38  1  0.49656747  0.16667506  0.83517733  1
  Fe  Fe39  1  0.49726138  0.49817136  0.49985592  1
  Ni  Ni40  1  0.33211567  0.33286182  0.66404192  1
  Cr  Cr41  1  0.49708975  0.49677163  0.83361358  1
  Ni  Ni42  1  0.50056518  0.83025743  0.49967276  1
  Ni  Ni43  1  0.33312588  0.66518763  0.66409834  1
  Cr  Cr44  1  0.49794247  0.83240736  0.83371035  1
  Ni  Ni45  1  0.83286426  0.16963044  0.49827097  1
  Cr  Cr46  1  0.66430922  0.00091172  0.66449236  1
  Fe  Fe47  1  0.83418727  0.16743178  0.83303734  1
  Fe  Fe48  1  0.83547286  0.49838092  0.49994656  1
  Cr  Cr49  1  0.66714066  0.33335290  0.66713561  1
  Fe  Fe50  1  0.83576948  0.49945818  0.83190365  1
  Cr  Cr51  1  0.83165942  0.83451453  0.50012671  1
  Fe  Fe52  1  0.66540874  0.66396360  0.66494573  1
  Cr  Cr53  1  0.83472632  0.83334169  0.83248298  1
" 