8371,Ni32Fe26Cr40_0,-223.600678279857, 178.044570915811,Ni32Fe26Cr40,"# generated using pymatgen
 data_Cr23Fe14Ni17
_symmetry_space_group_name_H-M   'P 1'
_cell_length_a   7.49272622
_cell_length_b   7.49272622
_cell_length_c   10.59631504
_cell_angle_alpha   90.00000000
_cell_angle_beta   90.00000000
_cell_angle_gamma   90.00000000
_symmetry_Int_Tables_number   1
_chemical_formula_structural   Cr23Fe14Ni17
_chemical_formula_sum   'Cr23 Fe14 Ni17'
_cell_volume   594.88715236
_cell_formula_units_Z   1
loop_
 _symmetry_equiv_pos_site_id
 _symmetry_equiv_pos_as_xyz
  1  'x, y, z'
loop_
 _atom_site_type_symbol
 _atom_site_label
 _atom_site_symmetry_multiplicity
 _atom_site_fract_x
 _atom_site_fract_y
 _atom_site_fract_z
 _atom_site_occupancy
  Fe  Fe0  1  0.99742373  0.00048432  -0.00100532  1
  Ni  Ni1  1  0.16154239  0.16456075  0.16315463  1
  Fe  Fe2  1  -0.00121913  0.99685066  0.33015005  1
  Ni  Ni3  1  -0.00015339  0.33054630  -0.00124887  1
  Ni  Ni4  1  0.16218910  0.49876030  0.16681271  1
  Cr  Cr5  1  0.99785517  0.33217324  0.33061089  1
  Cr  Cr6  1  0.00102088  0.66685928  0.00159161  1
  Fe  Fe7  1  0.16591901  0.83417821  0.16742965  1
  Ni  Ni8  1  -0.00006576  0.66713976  0.33007751  1
  Fe  Fe9  1  0.32900824  0.99578832  -0.00066642  1
  Cr  Cr10  1  0.49564473  0.15927087  0.16758011  1
  Ni  Ni11  1  0.33023437  0.99588074  0.33317579  1
  Cr  Cr12  1  0.33035396  0.33397372  0.00065476  1
  Fe  Fe13  1  0.49479872  0.50018432  0.16675986  1
  Cr  Cr14  1  0.33076456  0.33180102  0.33161327  1
  Fe  Fe15  1  0.33072860  0.66599695  -0.00046466  1
  Cr  Cr16  1  0.50008797  0.83208217  0.16598709  1
  Ni  Ni17  1  0.32882077  0.66864309  0.32999569  1
  Ni  Ni18  1  0.66656758  0.99799180  0.99781379  1
  Fe  Fe19  1  0.83361083  0.16096253  0.16391901  1
  Ni  Ni20  1  0.66589294  0.99697978  0.33355413  1
  Cr  Cr21  1  0.66726875  0.33186538  0.00135989  1
  Fe  Fe22  1  0.83399093  0.49986433  0.16601552  1
  Cr  Cr23  1  0.66648400  0.33001661  0.32944752  1
  Cr  Cr24  1  0.66483494  0.66520278  -0.00117365  1
  Fe  Fe25  1  0.83350125  0.83458741  0.16727104  1
  Ni  Ni26  1  0.66632411  0.66745949  0.32889591  1
  Cr  Cr27  1  0.16474348  0.16528658  0.49736778  1
  Cr  Cr28  1  -0.00119633  0.99677634  0.66564759  1
  Fe  Fe29  1  0.16398338  0.16312390  0.83431816  1
  Fe  Fe30  1  0.16482403  0.50306972  0.49652936  1
  Fe  Fe31  1  0.99764556  0.32889242  0.66440476  1
  Cr  Cr32  1  0.16333342  0.49657158  0.82866148  1
  Fe  Fe33  1  0.16526788  0.83050013  0.49545871  1
  Ni  Ni34  1  0.00099674  0.66657621  0.66306009  1
  Fe  Fe35  1  0.16553924  0.83196916  0.83361697  1
  Ni  Ni36  1  0.49853625  0.15937544  0.49411356  1
  Cr  Cr37  1  0.33161272  0.99641458  0.66438218  1
  Cr  Cr38  1  0.49746932  0.16251827  0.83429550  1
  Cr  Cr39  1  0.49911180  0.50286328  0.49538420  1
  Cr  Cr40  1  0.33261307  0.33081954  0.66211562  1
  Ni  Ni41  1  0.49614719  0.50233718  0.83342587  1
  Ni  Ni42  1  0.49740164  0.83172248  0.49519844  1
  Cr  Cr43  1  0.33172054  0.66805453  0.66546697  1
  Ni  Ni44  1  0.49606534  0.83134678  0.83414847  1
  Ni  Ni45  1  0.83273152  0.16336035  0.49633647  1
  Cr  Cr46  1  0.66414955  0.99747124  0.66273673  1
  Ni  Ni47  1  0.83569386  0.16437081  0.83428741  1
  Cr  Cr48  1  0.83507865  0.50042492  0.50164065  1
  Cr  Cr49  1  0.66348516  0.32842468  0.66458467  1
  Cr  Cr50  1  0.83288212  0.49778871  0.82731386  1
  Cr  Cr51  1  0.83034850  0.82921135  0.49576247  1
  Ni  Ni52  1  0.66365856  0.66638301  0.66683467  1
  Cr  Cr53  1  0.83019480  0.83170995  0.83106310  1
" 