7381,Ni32Fe34Cr32_11,-226.072340576652, 182.222546936322,Ni32Fe34Cr32,"# generated using pymatgen
 data_Cr19Fe18Ni17
_symmetry_space_group_name_H-M   'P 1'
_cell_length_a   7.47415690
_cell_length_b   7.47415690
_cell_length_c   10.57005406
_cell_angle_alpha   90.00000000
_cell_angle_beta   90.00000000
_cell_angle_gamma   90.00000000
_symmetry_Int_Tables_number   1
_chemical_formula_structural   Cr19Fe18Ni17
_chemical_formula_sum   'Cr19 Fe18 Ni17'
_cell_volume   590.47515648
_cell_formula_units_Z   1
loop_
 _symmetry_equiv_pos_site_id
 _symmetry_equiv_pos_as_xyz
  1  'x, y, z'
loop_
 _atom_site_type_symbol
 _atom_site_label
 _atom_site_symmetry_multiplicity
 _atom_site_fract_x
 _atom_site_fract_y
 _atom_site_fract_z
 _atom_site_occupancy
  Cr  Cr0  1  0.00094618  0.00344191  0.00010564  1
  Fe  Fe1  1  0.16672480  0.16688382  0.16768858  1
  Fe  Fe2  1  0.00249606  0.00138869  0.33063393  1
  Fe  Fe3  1  0.99812531  0.33338031  0.00119763  1
  Ni  Ni4  1  0.16795722  0.49386057  0.16744239  1
  Ni  Ni5  1  0.00107644  0.33255141  0.33046872  1
  Cr  Cr6  1  0.00004313  0.66600511  0.00092600  1
  Fe  Fe7  1  0.16622224  0.83469084  0.16728806  1
  Cr  Cr8  1  0.00146474  0.66483007  0.33280622  1
  Fe  Fe9  1  0.33643968  0.00113854  0.00132664  1
  Fe  Fe10  1  0.49954452  0.16643344  0.16490766  1
  Ni  Ni11  1  0.33190971  0.00056454  0.33094459  1
  Fe  Fe12  1  0.33433144  0.33075810  0.00107217  1
  Fe  Fe13  1  0.50127771  0.49737388  0.16446755  1
  Ni  Ni14  1  0.33180290  0.33046377  0.33124548  1
  Cr  Cr15  1  0.33338942  0.66523278  0.00345202  1
  Ni  Ni16  1  0.49805544  0.83598356  0.16446718  1
  Cr  Cr17  1  0.33204849  0.66722845  0.33046780  1
  Ni  Ni18  1  0.66559763  0.00202301  0.99756317  1
  Ni  Ni19  1  0.83351512  0.16833564  0.16542495  1
  Cr  Cr20  1  0.66328271  0.00161240  0.33325287  1
  Ni  Ni21  1  0.66514433  0.33120455  0.00118779  1
  Ni  Ni22  1  0.83405280  0.49607686  0.16530591  1
  Cr  Cr23  1  0.66667201  0.33206642  0.33230121  1
  Ni  Ni24  1  0.66351458  0.66542638  0.00029705  1
  Cr  Cr25  1  0.82923740  0.83465832  0.16507434  1
  Cr  Cr26  1  0.66495367  0.66437293  0.33140179  1
  Cr  Cr27  1  0.16781466  0.16742695  0.49824244  1
  Cr  Cr28  1  0.99782920  0.00042491  0.66897318  1
  Fe  Fe29  1  0.16809844  0.16803371  0.83285419  1
  Fe  Fe30  1  0.16454194  0.49920430  0.49996525  1
  Ni  Ni31  1  0.00151638  0.33345978  0.66716280  1
  Cr  Cr32  1  0.16930980  0.49752124  0.82995146  1
  Ni  Ni33  1  0.16884687  0.83376372  0.49882169  1
  Ni  Ni34  1  0.00322974  0.66585946  0.66432935  1
  Cr  Cr35  1  0.16758208  0.83373606  0.83244968  1
  Fe  Fe36  1  0.49675913  0.16264033  0.49957835  1
  Fe  Fe37  1  0.33388683  0.99855220  0.66537215  1
  Fe  Fe38  1  0.49888852  0.16565644  0.83434353  1
  Cr  Cr39  1  0.49560628  0.49724013  0.49863969  1
  Fe  Fe40  1  0.33339388  0.33221633  0.66636210  1
  Ni  Ni41  1  0.49843203  0.49683516  0.83532557  1
  Fe  Fe42  1  0.49632367  0.83581548  0.49968838  1
  Ni  Ni43  1  0.33206911  0.66678384  0.66460075  1
  Fe  Fe44  1  0.50054341  0.83118569  0.83470557  1
  Cr  Cr45  1  0.83411964  0.16627415  0.49830606  1
  Ni  Ni46  1  0.66204736  0.00029033  0.66886008  1
  Fe  Fe47  1  0.83095181  0.16764576  0.83454687  1
  Fe  Fe48  1  0.83729813  0.49863312  0.50011050  1
  Cr  Cr49  1  0.66632482  0.32907630  0.66512626  1
  Cr  Cr50  1  0.83162949  0.50144455  0.83343742  1
  Cr  Cr51  1  0.83354333  0.83352241  0.49990977  1
  Cr  Cr52  1  0.66416998  0.66715852  0.66644152  1
  Ni  Ni53  1  0.82973583  0.83593091  0.83349609  1
" 