3869,Ni32Fe34Cr32_18,-225.968337412696, 185.733948173139,Ni32Fe34Cr32,"# generated using pymatgen
 data_Cr19Fe18Ni17
_symmetry_space_group_name_H-M   'P 1'
_cell_length_a   7.47409773
_cell_length_b   7.47409773
_cell_length_c   10.56997038
_cell_angle_alpha   90.00000000
_cell_angle_beta   90.00000000
_cell_angle_gamma   90.00000000
_symmetry_Int_Tables_number   1
_chemical_formula_structural   Cr19Fe18Ni17
_chemical_formula_sum   'Cr19 Fe18 Ni17'
_cell_volume   590.46113187
_cell_formula_units_Z   1
loop_
 _symmetry_equiv_pos_site_id
 _symmetry_equiv_pos_as_xyz
  1  'x, y, z'
loop_
 _atom_site_type_symbol
 _atom_site_label
 _atom_site_symmetry_multiplicity
 _atom_site_fract_x
 _atom_site_fract_y
 _atom_site_fract_z
 _atom_site_occupancy
  Ni  Ni0  1  0.99691303  0.00232044  0.00040110  1
  Cr  Cr1  1  0.16360557  0.16445015  0.16535191  1
  Fe  Fe2  1  0.99808186  -0.00028244  0.33442731  1
  Fe  Fe3  1  0.99533516  0.32959932  0.99718174  1
  Cr  Cr4  1  0.16750851  0.49862095  0.16603962  1
  Cr  Cr5  1  0.99647137  0.33043092  0.33482613  1
  Cr  Cr6  1  -0.00009350  0.66586645  0.99734303  1
  Ni  Ni7  1  0.16409897  0.83407639  0.16589564  1
  Cr  Cr8  1  -0.00035806  0.66700123  0.33606808  1
  Cr  Cr9  1  0.33330546  0.99644653  0.99899973  1
  Fe  Fe10  1  0.50304944  0.16470335  0.16595364  1
  Cr  Cr11  1  0.33278575  0.99842831  0.33367063  1
  Cr  Cr12  1  0.33558987  0.33360503  0.99889591  1
  Fe  Fe13  1  0.50293058  0.49817144  0.16632683  1
  Fe  Fe14  1  0.33311510  0.33144672  0.33407172  1
  Cr  Cr15  1  0.33420751  0.66864859  0.00008141  1
  Fe  Fe16  1  0.50110762  0.83566316  0.16573084  1
  Cr  Cr17  1  0.33318431  0.66964085  0.33011541  1
  Ni  Ni18  1  0.66881601  0.00257284  0.99925531  1
  Ni  Ni19  1  0.83015232  0.16513547  0.16363535  1
  Fe  Fe20  1  0.66772850  0.99913011  0.33461309  1
  Ni  Ni21  1  0.67011486  0.33136615  0.00144296  1
  Fe  Fe22  1  0.83244614  0.49723627  0.16520546  1
  Cr  Cr23  1  0.66793671  0.33076040  0.33092269  1
  Cr  Cr24  1  0.66456595  0.66435351  0.99883838  1
  Cr  Cr25  1  0.83352675  0.83583814  0.16688108  1
  Fe  Fe26  1  0.66651051  0.66804865  0.33417361  1
  Ni  Ni27  1  0.16835420  0.16735657  0.50028595  1
  Cr  Cr28  1  0.99936726  0.00244009  0.66431670  1
  Ni  Ni29  1  0.16322580  0.16980489  0.83236953  1
  Fe  Fe30  1  0.16483166  0.49820582  0.50160078  1
  Ni  Ni31  1  0.00090583  0.33445807  0.66686523  1
  Fe  Fe32  1  0.16579262  0.49702218  0.83100791  1
  Ni  Ni33  1  0.16208283  0.83485675  0.49924402  1
  Fe  Fe34  1  0.99551173  0.66631421  0.66483771  1
  Cr  Cr35  1  0.16258788  0.83643711  0.83379954  1
  Ni  Ni36  1  0.49756084  0.16602555  0.49996076  1
  Ni  Ni37  1  0.33372518  -0.00030839  0.66448184  1
  Cr  Cr38  1  0.49926926  0.16562614  0.83119309  1
  Cr  Cr39  1  0.49935080  0.49789068  0.49954640  1
  Fe  Fe40  1  0.33072929  0.32983961  0.66649029  1
  Ni  Ni41  1  0.50152897  0.49948127  0.83337261  1
  Fe  Fe42  1  0.50087165  0.83667525  0.50208968  1
  Cr  Cr43  1  0.33286519  0.66947163  0.66852670  1
  Ni  Ni44  1  0.50597730  0.83167824  0.83022794  1
  Fe  Fe45  1  0.83271738  0.16291427  0.49960324  1
  Ni  Ni46  1  0.66463476  0.99707565  0.66435826  1
  Fe  Fe47  1  0.83351198  0.16399466  0.83532946  1
  Fe  Fe48  1  0.83485712  0.50086047  0.50232375  1
  Cr  Cr49  1  0.67068770  0.33135215  0.66715834  1
  Fe  Fe50  1  0.83245026  0.49921743  0.83146830  1
  Ni  Ni51  1  0.83136843  0.83185605  0.49951710  1
  Ni  Ni52  1  0.66761093  0.66767858  0.66615923  1
  Ni  Ni53  1  0.82951843  0.83302776  0.83204866  1
" 