2416,Ni32Fe68_11,-243.163272841256, 220.646708094833,Ni32Fe68,"# generated using pymatgen
 data_Fe17Ni37
_symmetry_space_group_name_H-M   'P 1'
_cell_length_a   7.41044768
_cell_length_b   7.41044768
_cell_length_c   10.47995561
_cell_angle_alpha   90.00000000
_cell_angle_beta   90.00000000
_cell_angle_gamma   90.00000000
_symmetry_Int_Tables_number   1
_chemical_formula_structural   Fe17Ni37
_chemical_formula_sum   'Fe17 Ni37'
_cell_volume   575.50398325
_cell_formula_units_Z   1
loop_
 _symmetry_equiv_pos_site_id
 _symmetry_equiv_pos_as_xyz
  1  'x, y, z'
loop_
 _atom_site_type_symbol
 _atom_site_label
 _atom_site_symmetry_multiplicity
 _atom_site_fract_x
 _atom_site_fract_y
 _atom_site_fract_z
 _atom_site_occupancy
  Ni  Ni0  1  1.00269311  0.00389008  1.00319009  1
  Ni  Ni1  1  0.17017408  0.17086015  0.17056515  1
  Ni  Ni2  1  1.00367771  1.00339058  0.33817591  1
  Ni  Ni3  1  0.00414817  0.33680865  1.00337376  1
  Fe  Fe4  1  0.16961862  0.50391373  0.17034711  1
  Ni  Ni5  1  0.00513623  0.33759904  0.33740573  1
  Fe  Fe6  1  1.00340295  0.66993200  0.00416921  1
  Ni  Ni7  1  0.17128838  0.83751297  0.17019464  1
  Ni  Ni8  1  1.00350726  0.67047101  0.33731850  1
  Fe  Fe9  1  0.33715456  0.00472551  0.00423324  1
  Fe  Fe10  1  0.50430172  0.16962272  0.17041578  1
  Ni  Ni11  1  0.33758164  0.00387121  0.33718539  1
  Ni  Ni12  1  0.33672523  0.33875857  1.00250937  1
  Fe  Fe13  1  0.50404092  0.50409616  0.17068325  1
  Ni  Ni14  1  0.33614460  0.33714283  0.33797628  1
  Ni  Ni15  1  0.33708852  0.66999538  0.00402863  1
  Ni  Ni16  1  0.50370878  0.83667169  0.17097014  1
  Fe  Fe17  1  0.33673674  0.67141834  0.33719051  1
  Ni  Ni18  1  0.67135134  1.00352001  1.00346181  1
  Ni  Ni19  1  0.83794534  0.17128525  0.17005645  1
  Ni  Ni20  1  0.67020273  1.00224198  0.33765602  1
  Ni  Ni21  1  0.67058568  0.33648254  1.00349566  1
  Ni  Ni22  1  0.83710702  0.50344926  0.17078603  1
  Fe  Fe23  1  0.67112989  0.33664517  0.33738023  1
  Fe  Fe24  1  0.67081966  0.67037059  0.00437281  1
  Ni  Ni25  1  0.83645669  0.83670916  0.17034728  1
  Ni  Ni26  1  0.67065499  0.67190236  0.33773510  1
  Ni  Ni27  1  0.17029447  0.17145046  0.50363355  1
  Fe  Fe28  1  1.00264345  0.00491770  0.67033448  1
  Ni  Ni29  1  0.17075546  0.17222768  0.83725243  1
  Ni  Ni30  1  0.17108992  0.50333038  0.50271423  1
  Ni  Ni31  1  0.00395072  0.33763825  0.67067569  1
  Ni  Ni32  1  0.16998104  0.50258813  0.83810900  1
  Ni  Ni33  1  0.17062478  0.83668278  0.50368792  1
  Fe  Fe34  1  1.00285926  0.66996945  0.67006951  1
  Fe  Fe35  1  0.17006901  0.83743347  0.83760342  1
  Ni  Ni36  1  0.50393893  0.17076658  0.50311501  1
  Fe  Fe37  1  0.33790012  0.00494348  0.66977075  1
  Ni  Ni38  1  0.50357212  0.16992743  0.83777821  1
  Ni  Ni39  1  0.50312629  0.50398884  0.50397985  1
  Fe  Fe40  1  0.33740807  0.33651376  0.67018896  1
  Fe  Fe41  1  0.50417866  0.50295741  0.83718424  1
  Ni  Ni42  1  0.50426525  0.83669918  0.50324759  1
  Fe  Fe43  1  0.33762502  0.66999991  0.67066114  1
  Ni  Ni44  1  0.50464609  0.83748182  0.83724814  1
  Ni  Ni45  1  0.83722826  0.17030639  0.50359082  1
  Ni  Ni46  1  0.67009626  1.00361647  0.67033734  1
  Ni  Ni47  1  0.83712847  0.17108119  0.83780678  1
  Fe  Fe48  1  0.83738112  0.50365462  0.50365399  1
  Ni  Ni49  1  0.67091626  0.33644570  0.67021312  1
  Ni  Ni50  1  0.83796341  0.50365572  0.83702186  1
  Ni  Ni51  1  0.83656198  0.83749152  0.50298560  1
  Fe  Fe52  1  0.67097158  0.67045745  0.67000032  1
  Ni  Ni53  1  0.83566356  0.83670941  0.83813406  1
" 