2268,Ni32Fe68_13,-243.1670288666, 221.782880520133,Ni32Fe68,"# generated using pymatgen
 data_Fe17Ni37
_symmetry_space_group_name_H-M   'P 1'
_cell_length_a   7.41139554
_cell_length_b   7.41139554
_cell_length_c   10.48129610
_cell_angle_alpha   90.00000000
_cell_angle_beta   90.00000000
_cell_angle_gamma   90.00000000
_symmetry_Int_Tables_number   1
_chemical_formula_structural   Fe17Ni37
_chemical_formula_sum   'Fe17 Ni37'
_cell_volume   575.72484843
_cell_formula_units_Z   1
loop_
 _symmetry_equiv_pos_site_id
 _symmetry_equiv_pos_as_xyz
  1  'x, y, z'
loop_
 _atom_site_type_symbol
 _atom_site_label
 _atom_site_symmetry_multiplicity
 _atom_site_fract_x
 _atom_site_fract_y
 _atom_site_fract_z
 _atom_site_occupancy
  Ni  Ni0  1  1.00262023  0.00436111  1.00328391  1
  Fe  Fe1  1  0.17050370  0.17094646  0.17040468  1
  Ni  Ni2  1  1.00355502  0.00483724  0.33711502  1
  Ni  Ni3  1  1.00348564  0.33721178  1.00372804  1
  Ni  Ni4  1  0.17051944  0.50313847  0.17078573  1
  Ni  Ni5  1  1.00355220  0.33671193  0.33712040  1
  Ni  Ni6  1  1.00311710  0.66968667  1.00283815  1
  Fe  Fe7  1  0.17039450  0.83560628  0.17056491  1
  Ni  Ni8  1  1.00237258  0.66971458  0.33815666  1
  Ni  Ni9  1  0.33805818  1.00367843  1.00340769  1
  Fe  Fe10  1  0.50362252  0.17078245  0.17067885  1
  Ni  Ni11  1  0.33721462  0.00414866  0.33702220  1
  Ni  Ni12  1  0.33684529  0.33756214  1.00284659  1
  Ni  Ni13  1  0.50318807  0.50432548  0.17069432  1
  Ni  Ni14  1  0.33685658  0.33704111  0.33801697  1
  Ni  Ni15  1  0.33791628  0.67002711  0.00385432  1
  Ni  Ni16  1  0.50403592  0.83742870  0.17089312  1
  Ni  Ni17  1  0.33872134  0.67006487  0.33725043  1
  Ni  Ni18  1  0.67058251  1.00331598  1.00306012  1
  Fe  Fe19  1  0.83713286  0.17062129  0.17010968  1
  Fe  Fe20  1  0.67035018  1.00336361  0.33644570  1
  Fe  Fe21  1  0.67079463  0.33687442  0.00376226  1
  Ni  Ni22  1  0.83755599  0.50400687  0.17035776  1
  Fe  Fe23  1  0.67056979  0.33771614  0.33745361  1
  Fe  Fe24  1  0.67064682  0.67119261  0.00406369  1
  Ni  Ni25  1  0.83602406  0.83706258  0.17055535  1
  Ni  Ni26  1  0.67016999  0.67006564  0.33667853  1
  Ni  Ni27  1  0.17104869  0.17019162  0.50352432  1
  Ni  Ni28  1  0.00386392  0.00577588  0.67085311  1
  Ni  Ni29  1  0.17042919  0.17054589  0.83681451  1
  Ni  Ni30  1  0.16988533  0.50406552  0.50339345  1
  Ni  Ni31  1  1.00298314  0.33583155  0.67040055  1
  Ni  Ni32  1  0.17011070  0.50335957  0.83708536  1
  Ni  Ni33  1  0.17144548  0.83701192  0.50317678  1
  Fe  Fe34  1  0.00443385  0.67062955  0.67066168  1
  Ni  Ni35  1  0.17164191  0.83736154  0.83808953  1
  Ni  Ni36  1  0.50369740  0.16948297  0.50349464  1
  Ni  Ni37  1  0.33672948  1.00338557  0.67084583  1
  Fe  Fe38  1  0.50336657  0.16951274  0.83711557  1
  Fe  Fe39  1  0.50318555  0.50340054  0.50310242  1
  Fe  Fe40  1  0.33613130  0.33686253  0.67010741  1
  Fe  Fe41  1  0.50337312  0.50475167  0.83744582  1
  Fe  Fe42  1  0.50286381  0.83708803  0.50389503  1
  Ni  Ni43  1  0.33909278  0.67088117  0.67017628  1
  Ni  Ni44  1  0.50349644  0.83769040  0.83730267  1
  Ni  Ni45  1  0.83650276  0.17104779  0.50318532  1
  Fe  Fe46  1  0.67051226  1.00359394  0.67121786  1
  Ni  Ni47  1  0.83732159  0.17055924  0.83740600  1
  Ni  Ni48  1  0.83762490  0.50325190  0.50307432  1
  Fe  Fe49  1  0.67107302  0.33682415  0.67004411  1
  Ni  Ni50  1  0.83764886  0.50334313  0.83784322  1
  Fe  Fe51  1  0.83820963  0.83743390  0.50339846  1
  Ni  Ni52  1  0.66953162  0.67000473  0.67107406  1
  Ni  Ni53  1  0.83613328  0.83736256  0.83686567  1
" 