4046,Ni32Fe34Cr32_14,-225.744796260002, 178.896705812883,Ni32Fe34Cr32,"# generated using pymatgen
 data_Cr19Fe18Ni17
_symmetry_space_group_name_H-M   'P 1'
_cell_length_a   7.47607225
_cell_length_b   7.47607225
_cell_length_c   10.57276277
_cell_angle_alpha   90.00000000
_cell_angle_beta   90.00000000
_cell_angle_gamma   90.00000000
_symmetry_Int_Tables_number   1
_chemical_formula_structural   Cr19Fe18Ni17
_chemical_formula_sum   'Cr19 Fe18 Ni17'
_cell_volume   590.92922306
_cell_formula_units_Z   1
loop_
 _symmetry_equiv_pos_site_id
 _symmetry_equiv_pos_as_xyz
  1  'x, y, z'
loop_
 _atom_site_type_symbol
 _atom_site_label
 _atom_site_symmetry_multiplicity
 _atom_site_fract_x
 _atom_site_fract_y
 _atom_site_fract_z
 _atom_site_occupancy
  Cr  Cr0  1  0.00369418  0.99839077  0.00002191  1
  Ni  Ni1  1  0.16579344  0.16608697  0.16765895  1
  Fe  Fe2  1  0.99684821  0.00007773  0.33177906  1
  Cr  Cr3  1  0.99887939  0.33525760  0.99910665  1
  Fe  Fe4  1  0.16694265  0.49975788  0.16868644  1
  Ni  Ni5  1  0.00056667  0.33563217  0.33218921  1
  Cr  Cr6  1  0.99691996  0.66461750  -0.00009091  1
  Ni  Ni7  1  0.16715765  0.83009801  0.16697129  1
  Fe  Fe8  1  0.99633955  0.66652602  0.33200265  1
  Ni  Ni9  1  0.33423121  0.99806581  0.99814279  1
  Cr  Cr10  1  0.50231294  0.16566577  0.16359614  1
  Cr  Cr11  1  0.33280456  0.99903310  0.33255920  1
  Cr  Cr12  1  0.33268264  0.33108616  0.99861652  1
  Fe  Fe13  1  0.50045803  0.50094186  0.16486918  1
  Fe  Fe14  1  0.33266868  0.33389173  0.33101211  1
  Fe  Fe15  1  0.33532933  0.66660445  0.99781323  1
  Cr  Cr16  1  0.49980254  0.83023500  0.16503544  1
  Fe  Fe17  1  0.33452298  0.66452388  0.33240985  1
  Ni  Ni18  1  0.66224177  0.99698149  0.99576066  1
  Cr  Cr19  1  0.83158525  0.16650302  0.16598791  1
  Ni  Ni20  1  0.66676233  0.99597569  0.33662556  1
  Ni  Ni21  1  0.66449103  0.33659258  0.99822920  1
  Fe  Fe22  1  0.83070571  0.50098622  0.16599177  1
  Cr  Cr23  1  0.66825469  0.33461226  0.33285060  1
  Ni  Ni24  1  0.66461035  0.66449245  0.99601641  1
  Cr  Cr25  1  0.83057481  0.83393766  0.16438726  1
  Ni  Ni26  1  0.66741777  0.66742844  0.33518969  1
  Cr  Cr27  1  0.16362849  0.16693891  0.50147419  1
  Fe  Fe28  1  0.99868478  -0.00058947  0.66713417  1
  Fe  Fe29  1  0.16750621  0.16558588  0.83090737  1
  Cr  Cr30  1  0.16537037  0.50071654  0.50092788  1
  Ni  Ni31  1  0.99534420  0.33385257  0.66650418  1
  Cr  Cr32  1  0.16515954  0.50181482  0.82699900  1
  Cr  Cr33  1  0.16461210  0.83082955  0.49997374  1
  Ni  Ni34  1  0.99427369  0.66659552  0.66524208  1
  Cr  Cr35  1  0.16716415  0.83270631  0.83164902  1
  Cr  Cr36  1  0.50363833  0.16543778  0.50064947  1
  Ni  Ni37  1  0.33451720  0.99715382  0.66832273  1
  Fe  Fe38  1  0.50071750  0.16529299  0.83310784  1
  Cr  Cr39  1  0.50033047  0.50201256  0.50053401  1
  Cr  Cr40  1  0.33558065  0.33083754  0.66829883  1
  Ni  Ni41  1  0.50252262  0.50124984  0.83268396  1
  Fe  Fe42  1  0.50028788  0.83271541  0.50164460  1
  Ni  Ni43  1  0.33353729  0.67021579  0.66628206  1
  Ni  Ni44  1  0.49949348  0.83222789  0.83158782  1
  Fe  Fe45  1  0.83446275  0.16658833  0.50011868  1
  Fe  Fe46  1  0.66663609  0.99775287  0.66679450  1
  Cr  Cr47  1  0.83127496  0.16585787  0.83387014  1
  Fe  Fe48  1  0.83400342  0.49942384  0.50135734  1
  Ni  Ni49  1  0.67004265  0.33303464  0.66731306  1
  Ni  Ni50  1  0.82881415  0.49842302  0.83060732  1
  Fe  Fe51  1  0.83070220  0.83243459  0.49991824  1
  Fe  Fe52  1  0.66515857  0.66526512  0.66777714  1
  Fe  Fe53  1  0.82934526  0.82903052  0.83230920  1
" 