2097,Ni32Fe26Cr40_16,-223.437490973514, 177.739223277028,Ni32Fe26Cr40,"# generated using pymatgen
 data_Cr23Fe14Ni17
_symmetry_space_group_name_H-M   'P 1'
_cell_length_a   7.49072925
_cell_length_b   7.49072925
_cell_length_c   10.59349090
_cell_angle_alpha   90.00000000
_cell_angle_beta   90.00000000
_cell_angle_gamma   90.00000000
_symmetry_Int_Tables_number   1
_chemical_formula_structural   Cr23Fe14Ni17
_chemical_formula_sum   'Cr23 Fe14 Ni17'
_cell_volume   594.41162988
_cell_formula_units_Z   1
loop_
 _symmetry_equiv_pos_site_id
 _symmetry_equiv_pos_as_xyz
  1  'x, y, z'
loop_
 _atom_site_type_symbol
 _atom_site_label
 _atom_site_symmetry_multiplicity
 _atom_site_fract_x
 _atom_site_fract_y
 _atom_site_fract_z
 _atom_site_occupancy
  Fe  Fe0  1  0.99565925  0.00079979  0.00050559  1
  Fe  Fe1  1  0.16596720  0.17103384  0.16575558  1
  Cr  Cr2  1  -0.00083717  0.00181660  0.32822064  1
  Cr  Cr3  1  0.00000712  0.33409427  0.00141524  1
  Ni  Ni4  1  0.16927653  0.49838577  0.16473441  1
  Ni  Ni5  1  0.00212553  0.33153287  0.33032652  1
  Ni  Ni6  1  0.00267516  0.66505552  0.99753025  1
  Cr  Cr7  1  0.16804096  0.83098024  0.16113910  1
  Cr  Cr8  1  0.00022204  0.66227098  0.33191282  1
  Cr  Cr9  1  0.33469778  0.00244890  0.00135069  1
  Ni  Ni10  1  0.50027469  0.16838209  0.16589370  1
  Cr  Cr11  1  0.33267971  0.00189266  0.33070702  1
  Ni  Ni12  1  0.33356819  0.33252496  0.00033200  1
  Ni  Ni13  1  0.49601687  0.49463719  0.16499067  1
  Fe  Fe14  1  0.33277541  0.33390725  0.33014483  1
  Fe  Fe15  1  0.33288847  0.66014025  -0.00064598  1
  Fe  Fe16  1  0.50058334  0.83091945  0.16625064  1
  Fe  Fe17  1  0.33332097  0.66205587  0.32988779  1
  Ni  Ni18  1  0.66338044  0.00127858  -0.00001849  1
  Ni  Ni19  1  0.82761235  0.16587957  0.16386980  1
  Ni  Ni20  1  0.66184326  -0.00021113  0.32902643  1
  Ni  Ni21  1  0.66085765  0.32734380  0.99698481  1
  Cr  Cr22  1  0.82898238  0.49456131  0.16811360  1
  Ni  Ni23  1  0.66260079  0.33094521  0.33089060  1
  Cr  Cr24  1  0.66555437  0.66333305  0.00023616  1
  Cr  Cr25  1  0.83153576  0.83288287  0.16546166  1
  Ni  Ni26  1  0.65980878  0.66373979  0.33067768  1
  Ni  Ni27  1  0.16681011  0.16726425  0.49691647  1
  Fe  Fe28  1  0.99830481  0.00411464  0.66460156  1
  Cr  Cr29  1  0.16495201  0.16495535  0.83370365  1
  Fe  Fe30  1  0.16569907  0.49579247  0.49669315  1
  Ni  Ni31  1  0.00295501  0.33282767  0.66435885  1
  Fe  Fe32  1  0.16827802  0.49798500  0.83368576  1
  Cr  Cr33  1  0.16622508  0.83378580  0.50360486  1
  Fe  Fe34  1  -0.00043603  0.66053524  0.66536166  1
  Cr  Cr35  1  0.16513125  0.83149364  0.83026247  1
  Fe  Fe36  1  0.49859534  0.16717483  0.49594196  1
  Fe  Fe37  1  0.33139358  0.00164461  0.66465578  1
  Ni  Ni38  1  0.49753371  0.16722477  0.83331027  1
  Ni  Ni39  1  0.49544115  0.49618244  0.49488220  1
  Cr  Cr40  1  0.33165337  0.33078094  0.66400241  1
  Ni  Ni41  1  0.49603907  0.49430174  0.83516331  1
  Cr  Cr42  1  0.49685921  0.83017973  0.49556638  1
  Fe  Fe43  1  0.33239367  0.66007588  0.66529966  1
  Cr  Cr44  1  0.49529942  0.83133923  0.83374292  1
  Cr  Cr45  1  0.83321530  0.16773895  0.49673268  1
  Cr  Cr46  1  0.66166965  -0.00008833  0.66571402  1
  Fe  Fe47  1  0.82995288  0.16502405  0.83439902  1
  Cr  Cr48  1  0.82864804  0.49586751  0.49492995  1
  Cr  Cr49  1  0.66416120  0.33158202  0.66843439  1
  Cr  Cr50  1  0.83227306  0.49547384  0.83322724  1
  Cr  Cr51  1  0.83150265  0.83195853  0.49670765  1
  Cr  Cr52  1  0.66357422  0.66335347  0.66450965  1
  Cr  Cr53  1  0.83439787  0.83344073  0.83253889  1
" 