3046,Ni32Fe34Cr32_10,-226.31666537169, 183.73539720544,Ni32Fe34Cr32,"# generated using pymatgen
 data_Cr19Fe18Ni17
_symmetry_space_group_name_H-M   'P 1'
_cell_length_a   7.47436978
_cell_length_b   7.47436978
_cell_length_c   10.57035511
_cell_angle_alpha   90.00000000
_cell_angle_beta   90.00000000
_cell_angle_gamma   90.00000000
_symmetry_Int_Tables_number   1
_chemical_formula_structural   Cr19Fe18Ni17
_chemical_formula_sum   'Cr19 Fe18 Ni17'
_cell_volume   590.52561001
_cell_formula_units_Z   1
loop_
 _symmetry_equiv_pos_site_id
 _symmetry_equiv_pos_as_xyz
  1  'x, y, z'
loop_
 _atom_site_type_symbol
 _atom_site_label
 _atom_site_symmetry_multiplicity
 _atom_site_fract_x
 _atom_site_fract_y
 _atom_site_fract_z
 _atom_site_occupancy
  Ni  Ni0  1  0.00334063  0.00078517  0.00065955  1
  Ni  Ni1  1  0.16713714  0.16766007  0.16471375  1
  Cr  Cr2  1  0.00173398  0.99880471  0.33363226  1
  Ni  Ni3  1  0.00434812  0.33288384  0.00086846  1
  Ni  Ni4  1  0.16405687  0.49973487  0.16550116  1
  Fe  Fe5  1  0.00340915  0.33631243  0.33235929  1
  Fe  Fe6  1  0.00023912  0.66425451  0.00124682  1
  Fe  Fe7  1  0.16604601  0.83191559  0.16422007  1
  Fe  Fe8  1  0.00193613  0.66323421  0.33269133  1
  Fe  Fe9  1  0.33166316  -0.00038201  -0.00019375  1
  Cr  Cr10  1  0.49641985  0.16492721  0.16920044  1
  Fe  Fe11  1  0.33041504  0.99927786  0.33182455  1
  Fe  Fe12  1  0.32959342  0.33265833  0.99890897  1
  Cr  Cr13  1  0.49618059  0.49985984  0.16790518  1
  Ni  Ni14  1  0.32800057  0.33349145  0.33364249  1
  Ni  Ni15  1  0.33130363  0.66628357  0.00137009  1
  Ni  Ni16  1  0.49628529  0.83324949  0.16609428  1
  Fe  Fe17  1  0.32849414  0.66589966  0.33177033  1
  Cr  Cr18  1  0.66574706  0.99735688  0.00192936  1
  Cr  Cr19  1  0.83477932  0.16859966  0.16730953  1
  Fe  Fe20  1  0.66516820  0.99778329  0.33105910  1
  Cr  Cr21  1  0.66641068  0.33462366  0.99847410  1
  Ni  Ni22  1  0.83822691  0.50144190  0.16649169  1
  Fe  Fe23  1  0.66736449  0.33519769  0.33314490  1
  Cr  Cr24  1  0.66395039  0.66670959  0.99776320  1
  Ni  Ni25  1  0.83442530  0.83068706  0.16609403  1
  Cr  Cr26  1  0.66710500  0.66656658  0.33286229  1
  Ni  Ni27  1  0.16850395  0.16736156  0.50148700  1
  Fe  Fe28  1  0.00354921  -0.00029675  0.66462544  1
  Fe  Fe29  1  0.16819610  0.16685121  0.83451823  1
  Ni  Ni30  1  0.16613500  0.49866076  0.49718647  1
  Cr  Cr31  1  0.00442064  0.33222111  0.66557450  1
  Fe  Fe32  1  0.16758396  0.49795251  0.83530360  1
  Fe  Fe33  1  0.16509845  0.83327087  0.49914248  1
  Cr  Cr34  1  0.99855930  0.66540242  0.66313246  1
  Cr  Cr35  1  0.16752678  0.83221943  0.83394943  1
  Cr  Cr36  1  0.49703173  0.16674871  0.49651843  1
  Fe  Fe37  1  0.33149354  0.00203672  0.66725192  1
  Ni  Ni38  1  0.49376014  0.16556447  0.83267594  1
  Fe  Fe39  1  0.49772487  0.49728232  0.49818925  1
  Ni  Ni40  1  0.33100972  0.33172085  0.66771124  1
  Fe  Fe41  1  0.49757229  0.50074090  0.83304820  1
  Cr  Cr42  1  0.49775268  0.83249561  0.49947915  1
  Cr  Cr43  1  0.33453079  0.66223110  0.66435437  1
  Ni  Ni44  1  0.49620421  0.83328562  0.83313387  1
  Cr  Cr45  1  0.83336573  0.16791299  0.49800048  1
  Cr  Cr46  1  0.66665340  0.99704253  0.66705500  1
  Cr  Cr47  1  0.83522485  0.16742249  0.83377623  1
  Ni  Ni48  1  0.83461606  0.50155460  0.49806886  1
  Cr  Cr49  1  0.66321319  0.33731717  0.66692676  1
  Ni  Ni50  1  0.83546812  0.49988368  0.83367449  1
  Fe  Fe51  1  0.83480379  0.83104920  0.49902117  1
  Ni  Ni52  1  0.66549887  0.66547030  0.66671584  1
  Cr  Cr53  1  0.83427226  0.83033034  0.83148548  1
" 