3631,Ni32Fe34Cr32_2,-225.945659702272, 186.127667817244,Ni32Fe34Cr32,"# generated using pymatgen
 data_Cr19Fe18Ni17
_symmetry_space_group_name_H-M   'P 1'
_cell_length_a   7.46830937
_cell_length_b   7.46830937
_cell_length_c   10.56178440
_cell_angle_alpha   90.00000000
_cell_angle_beta   90.00000000
_cell_angle_gamma   90.00000000
_symmetry_Int_Tables_number   1
_chemical_formula_structural   Cr19Fe18Ni17
_chemical_formula_sum   'Cr19 Fe18 Ni17'
_cell_volume   589.09033641
_cell_formula_units_Z   1
loop_
 _symmetry_equiv_pos_site_id
 _symmetry_equiv_pos_as_xyz
  1  'x, y, z'
loop_
 _atom_site_type_symbol
 _atom_site_label
 _atom_site_symmetry_multiplicity
 _atom_site_fract_x
 _atom_site_fract_y
 _atom_site_fract_z
 _atom_site_occupancy
  Fe  Fe0  1  0.99825400  0.99780234  0.99848592  1
  Cr  Cr1  1  0.16445656  0.16998867  0.16507144  1
  Fe  Fe2  1  0.99783062  0.99840775  0.33285122  1
  Ni  Ni3  1  0.00112591  0.33544963  0.99879208  1
  Ni  Ni4  1  0.16585400  0.50056852  0.16654393  1
  Ni  Ni5  1  0.99890200  0.33887823  0.33415988  1
  Fe  Fe6  1  0.99834211  0.66449264  0.00142989  1
  Cr  Cr7  1  0.16415681  0.82979245  0.17043471  1
  Ni  Ni8  1  0.99911355  0.66393926  0.33338085  1
  Cr  Cr9  1  0.33332789  0.00004384  0.99871668  1
  Cr  Cr10  1  0.50084334  0.16793621  0.16659697  1
  Cr  Cr11  1  0.33509170  0.99787297  0.33474278  1
  Ni  Ni12  1  0.33083309  0.33549288  0.99906859  1
  Ni  Ni13  1  0.50000494  0.50264284  0.16517311  1
  Cr  Cr14  1  0.33294941  0.33759492  0.33219735  1
  Cr  Cr15  1  0.33593371  0.66394566  -0.00006105  1
  Fe  Fe16  1  0.50332912  0.82939875  0.16809743  1
  Ni  Ni17  1  0.33236312  0.66469175  0.33412002  1
  Fe  Fe18  1  0.66784953  0.99640609  0.00079755  1
  Cr  Cr19  1  0.83432085  0.16622438  0.16537073  1
  Ni  Ni20  1  0.66797901  0.99697208  0.33234168  1
  Fe  Fe21  1  0.66530141  0.33837645  0.00149502  1
  Ni  Ni22  1  0.83380166  0.50284392  0.16718560  1
  Cr  Cr23  1  0.66745466  0.33594862  0.33464081  1
  Ni  Ni24  1  0.66918226  0.66830985  0.00113836  1
  Ni  Ni25  1  0.83135630  0.83120914  0.16640944  1
  Fe  Fe26  1  0.66596527  0.66572930  0.33050752  1
  Cr  Cr27  1  0.16579025  0.16689233  0.49803510  1
  Cr  Cr28  1  0.00101279  0.99890213  0.66801858  1
  Ni  Ni29  1  0.16718468  0.16873235  0.83491927  1
  Ni  Ni30  1  0.16685613  0.50266182  0.49933610  1
  Fe  Fe31  1  0.00187532  0.33543721  0.66684298  1
  Ni  Ni32  1  0.16732678  0.49870015  0.83369509  1
  Fe  Fe33  1  0.16709830  0.82864177  0.49989638  1
  Fe  Fe34  1  0.00166987  0.66431181  0.66533385  1
  Cr  Cr35  1  0.16600874  0.83030095  0.83094120  1
  Fe  Fe36  1  0.50074607  0.16719527  0.50133164  1
  Ni  Ni37  1  0.33450862  0.99884165  0.66641489  1
  Cr  Cr38  1  0.50023469  0.16749372  0.83280734  1
  Ni  Ni39  1  0.49938008  0.50203568  0.50121604  1
  Cr  Cr40  1  0.33256896  0.33384582  0.66693561  1
  Fe  Fe41  1  0.49989812  0.50165803  0.83390760  1
  Cr  Cr42  1  0.49944022  0.83139513  0.49988163  1
  Fe  Fe43  1  0.33241655  0.66594832  0.66565541  1
  Fe  Fe44  1  0.50243367  0.83135602  0.83138361  1
  Cr  Cr45  1  0.83201704  0.16737760  0.49943291  1
  Fe  Fe46  1  0.66483342  0.99861733  0.66681268  1
  Cr  Cr47  1  0.83300740  0.16651682  0.83513660  1
  Fe  Fe48  1  0.83463614  0.50130476  0.50032549  1
  Fe  Fe49  1  0.66606788  0.33461578  0.66430164  1
  Cr  Cr50  1  0.83369776  0.50166038  0.83205122  1
  Cr  Cr51  1  0.83346840  0.83116187  0.49831557  1
  Fe  Fe52  1  0.66510102  0.66676099  0.66812660  1
  Ni  Ni53  1  0.83023663  0.83211355  0.83469483  1
" 