6149,Ni32Fe68_5,-242.987774329714, 220.819032935473,Ni32Fe68,"# generated using pymatgen
 data_Fe17Ni37
_symmetry_space_group_name_H-M   'P 1'
_cell_length_a   7.41096561
_cell_length_b   7.41096561
_cell_length_c   10.48068808
_cell_angle_alpha   90.00000000
_cell_angle_beta   90.00000000
_cell_angle_gamma   90.00000000
_symmetry_Int_Tables_number   1
_chemical_formula_structural   Fe17Ni37
_chemical_formula_sum   'Fe17 Ni37'
_cell_volume   575.62466145
_cell_formula_units_Z   1
loop_
 _symmetry_equiv_pos_site_id
 _symmetry_equiv_pos_as_xyz
  1  'x, y, z'
loop_
 _atom_site_type_symbol
 _atom_site_label
 _atom_site_symmetry_multiplicity
 _atom_site_fract_x
 _atom_site_fract_y
 _atom_site_fract_z
 _atom_site_occupancy
  Ni  Ni0  1  1.00318057  0.00400858  0.00383096  1
  Fe  Fe1  1  0.16991294  0.17047955  0.16947099  1
  Fe  Fe2  1  1.00294352  1.00267294  0.33607402  1
  Ni  Ni3  1  1.00283190  0.33703589  1.00369164  1
  Fe  Fe4  1  0.16991232  0.50382063  0.17092242  1
  Ni  Ni5  1  1.00236806  0.33838694  0.33696305  1
  Fe  Fe6  1  0.00401052  0.67124414  0.00446939  1
  Ni  Ni7  1  0.16988062  0.83719268  0.17040329  1
  Ni  Ni8  1  0.00412808  0.66916800  0.33704463  1
  Ni  Ni9  1  0.33724007  1.00222704  1.00319177  1
  Ni  Ni10  1  0.50377185  0.17173108  0.16957309  1
  Ni  Ni11  1  0.33811686  1.00206182  0.33703748  1
  Ni  Ni12  1  0.33662848  0.33785206  0.00381936  1
  Ni  Ni13  1  0.50376583  0.50241975  0.17105539  1
  Fe  Fe14  1  0.33824867  0.33772851  0.33740593  1
  Ni  Ni15  1  0.33660716  0.67127362  0.00393933  1
  Fe  Fe16  1  0.50437588  0.83733372  0.17066639  1
  Ni  Ni17  1  0.33666019  0.67171776  0.33745837  1
  Ni  Ni18  1  0.67093301  0.00401802  0.00393418  1
  Ni  Ni19  1  0.83660034  0.17063534  0.17071433  1
  Ni  Ni20  1  0.66974476  0.00382516  0.33695829  1
  Ni  Ni21  1  0.67188521  0.33639743  1.00364045  1
  Ni  Ni22  1  0.83660888  0.50351619  0.17034575  1
  Ni  Ni23  1  0.67229874  0.33693258  0.33744164  1
  Fe  Fe24  1  0.67022349  0.67052768  0.00434225  1
  Ni  Ni25  1  0.83852880  0.83719847  0.16997638  1
  Ni  Ni26  1  0.67056739  0.67059729  0.33737957  1
  Fe  Fe27  1  0.17110206  0.17123521  0.50460995  1
  Fe  Fe28  1  0.00403622  0.00448156  0.67184906  1
  Ni  Ni29  1  0.17034141  0.17051881  0.83753335  1
  Ni  Ni30  1  0.17063942  0.50333546  0.50363099  1
  Ni  Ni31  1  1.00294823  0.33781744  0.67069746  1
  Fe  Fe32  1  0.17034817  0.50389465  0.83650948  1
  Fe  Fe33  1  0.17171058  0.83585587  0.50342727  1
  Fe  Fe34  1  0.00393344  0.67023783  0.66968920  1
  Ni  Ni35  1  0.17082783  0.83775099  0.83635799  1
  Ni  Ni36  1  0.50317000  0.17080151  0.50458470  1
  Ni  Ni37  1  0.33795939  1.00215200  0.67111725  1
  Fe  Fe38  1  0.50385576  0.16893647  0.83704990  1
  Ni  Ni39  1  0.50317153  0.50301912  0.50383625  1
  Ni  Ni40  1  0.33648798  0.33781207  0.67015545  1
  Fe  Fe41  1  0.50327729  0.50398316  0.83725093  1
  Ni  Ni42  1  0.50395898  0.83752889  0.50309532  1
  Ni  Ni43  1  0.33651091  0.67138397  0.66995043  1
  Ni  Ni44  1  0.50319603  0.83695173  0.83772106  1
  Fe  Fe45  1  0.83576941  0.17148827  0.50391995  1
  Ni  Ni46  1  0.67014874  0.00389323  0.67045979  1
  Ni  Ni47  1  0.83780598  0.17050762  0.83700444  1
  Ni  Ni48  1  0.83754138  0.50412063  0.50381157  1
  Ni  Ni49  1  0.67191332  0.33636838  0.67027318  1
  Fe  Fe50  1  0.83772158  0.50331977  0.83704975  1
  Ni  Ni51  1  0.83704876  0.83672177  0.50384751  1
  Fe  Fe52  1  0.66959613  0.67042075  0.66960898  1
  Ni  Ni53  1  0.83732609  0.83778071  0.83752919  1
" 