2583,Ni32Fe68_3,-243.297040744897, 220.573913729733,Ni32Fe68,"# generated using pymatgen
 data_Fe17Ni37
_symmetry_space_group_name_H-M   'P 1'
_cell_length_a   7.41047035
_cell_length_b   7.41047035
_cell_length_c   10.47998768
_cell_angle_alpha   90.00000000
_cell_angle_beta   90.00000000
_cell_angle_gamma   90.00000000
_symmetry_Int_Tables_number   1
_chemical_formula_structural   Fe17Ni37
_chemical_formula_sum   'Fe17 Ni37'
_cell_volume   575.50926593
_cell_formula_units_Z   1
loop_
 _symmetry_equiv_pos_site_id
 _symmetry_equiv_pos_as_xyz
  1  'x, y, z'
loop_
 _atom_site_type_symbol
 _atom_site_label
 _atom_site_symmetry_multiplicity
 _atom_site_fract_x
 _atom_site_fract_y
 _atom_site_fract_z
 _atom_site_occupancy
  Ni  Ni0  1  1.00340983  1.00367407  1.00333450  1
  Ni  Ni1  1  0.17131573  0.16875658  0.17079363  1
  Ni  Ni2  1  1.00340817  1.00290961  0.33759508  1
  Ni  Ni3  1  1.00211990  0.33709985  0.00415163  1
  Fe  Fe4  1  0.16991073  0.50380440  0.17043602  1
  Fe  Fe5  1  1.00371855  0.33631506  0.33766073  1
  Ni  Ni6  1  0.00555628  0.67064089  1.00379844  1
  Ni  Ni7  1  0.16867770  0.83884391  0.17118538  1
  Ni  Ni8  1  1.00344137  0.67048731  0.33640009  1
  Fe  Fe9  1  0.33560905  0.00452530  0.00488033  1
  Ni  Ni10  1  0.50214955  0.17126767  0.17007084  1
  Ni  Ni11  1  0.33777563  0.00527427  0.33764931  1
  Fe  Fe12  1  0.33580772  0.33770218  0.00393521  1
  Ni  Ni13  1  0.50457740  0.50292157  0.17073895  1
  Ni  Ni14  1  0.33765839  0.33721467  0.33636465  1
  Ni  Ni15  1  0.33760628  0.67095511  0.00571757  1
  Fe  Fe16  1  0.50362033  0.83717389  0.17106999  1
  Fe  Fe17  1  0.33759705  0.67164217  0.33665042  1
  Fe  Fe18  1  0.67142429  1.00344239  1.00351876  1
  Fe  Fe19  1  0.83751816  0.17039638  0.17002573  1
  Ni  Ni20  1  0.67030096  0.00383349  0.33546646  1
  Ni  Ni21  1  0.66994724  0.33587130  1.00354644  1
  Ni  Ni22  1  0.83620374  0.50635136  0.17072287  1
  Fe  Fe23  1  0.67055420  0.33708016  0.33739969  1
  Fe  Fe24  1  0.67210977  0.66891631  0.00458043  1
  Ni  Ni25  1  0.83862736  0.83640583  0.17014589  1
  Ni  Ni26  1  0.67104074  0.67120617  0.33760421  1
  Ni  Ni27  1  0.17185395  0.17056128  0.50431586  1
  Fe  Fe28  1  1.00338462  0.00490157  0.67058534  1
  Ni  Ni29  1  0.17116947  0.17026353  0.83706763  1
  Ni  Ni30  1  0.17124640  0.50325878  0.50217789  1
  Ni  Ni31  1  1.00372036  0.33825043  0.67041566  1
  Ni  Ni32  1  0.17116882  0.50353414  0.83874982  1
  Fe  Fe33  1  0.16971798  0.83657808  0.50251804  1
  Ni  Ni34  1  0.00606331  0.67047932  0.67129520  1
  Fe  Fe35  1  0.17066100  0.83613880  0.83838728  1
  Ni  Ni36  1  0.50259805  0.17116717  0.50367310  1
  Fe  Fe37  1  0.33691491  0.00505859  0.66983811  1
  Ni  Ni38  1  0.50246121  0.17088913  0.83755026  1
  Ni  Ni39  1  0.50318645  0.50304553  0.50366617  1
  Ni  Ni40  1  0.33722979  0.33866438  0.67194878  1
  Ni  Ni41  1  0.50367369  0.50386894  0.83713250  1
  Fe  Fe42  1  0.50505743  0.83781288  0.50365849  1
  Ni  Ni43  1  0.33562272  0.67003994  0.66897241  1
  Fe  Fe44  1  0.50370985  0.83649364  0.83660186  1
  Ni  Ni45  1  0.83698828  0.16862305  0.50264487  1
  Ni  Ni46  1  0.67035923  0.00472069  0.67080598  1
  Ni  Ni47  1  0.83737753  0.16965617  0.83750713  1
  Ni  Ni48  1  0.83713821  0.50573672  0.50438510  1
  Ni  Ni49  1  0.67046701  0.33455234  0.66957127  1
  Ni  Ni50  1  0.83666156  0.50515089  0.83646715  1
  Ni  Ni51  1  0.83767983  0.83686085  0.50399622  1
  Fe  Fe52  1  0.67070249  0.66896063  0.66966097  1
  Ni  Ni53  1  0.83763857  0.83615954  0.83710253  1
" 