2339,Ni32Fe68_8,-242.991878552141, 220.651163473557,Ni32Fe68,"# generated using pymatgen
 data_Fe17Ni37
_symmetry_space_group_name_H-M   'P 1'
_cell_length_a   7.41023023
_cell_length_b   7.41023023
_cell_length_c   10.47964809
_cell_angle_alpha   90.00000000
_cell_angle_beta   90.00000000
_cell_angle_gamma   90.00000000
_symmetry_Int_Tables_number   1
_chemical_formula_structural   Fe17Ni37
_chemical_formula_sum   'Fe17 Ni37'
_cell_volume   575.45332313
_cell_formula_units_Z   1
loop_
 _symmetry_equiv_pos_site_id
 _symmetry_equiv_pos_as_xyz
  1  'x, y, z'
loop_
 _atom_site_type_symbol
 _atom_site_label
 _atom_site_symmetry_multiplicity
 _atom_site_fract_x
 _atom_site_fract_y
 _atom_site_fract_z
 _atom_site_occupancy
  Ni  Ni0  1  0.00406198  0.00533110  1.00324843  1
  Fe  Fe1  1  0.17045631  0.17109580  0.16998129  1
  Ni  Ni2  1  1.00287022  0.00449545  0.33774594  1
  Ni  Ni3  1  0.00391103  0.33614647  1.00346458  1
  Ni  Ni4  1  0.17143917  0.50584686  0.17015724  1
  Ni  Ni5  1  0.00534739  0.33667422  0.33778089  1
  Fe  Fe6  1  1.00345914  0.67124634  1.00376184  1
  Ni  Ni7  1  0.16983652  0.83602771  0.17059423  1
  Ni  Ni8  1  0.00413886  0.67033224  0.33657788  1
  Ni  Ni9  1  0.33711372  1.00322294  0.00429260  1
  Ni  Ni10  1  0.50465171  0.17122208  0.17039621  1
  Fe  Fe11  1  0.33697581  1.00324385  0.33671884  1
  Fe  Fe12  1  0.33832183  0.33665455  0.00383667  1
  Ni  Ni13  1  0.50251640  0.50340627  0.17085806  1
  Ni  Ni14  1  0.33616284  0.33791909  0.33647702  1
  Ni  Ni15  1  0.33798267  0.67087710  1.00326869  1
  Fe  Fe16  1  0.50343328  0.83684866  0.17070358  1
  Ni  Ni17  1  0.33772497  0.66944270  0.33809208  1
  Ni  Ni18  1  0.67032791  1.00377049  1.00336477  1
  Ni  Ni19  1  0.83669622  0.16962394  0.17012877  1
  Ni  Ni20  1  0.67087700  1.00293253  0.33693734  1
  Ni  Ni21  1  0.67118478  0.33701462  1.00358735  1
  Fe  Fe22  1  0.83731465  0.50326987  0.17042595  1
  Fe  Fe23  1  0.67071148  0.33736680  0.33726058  1
  Ni  Ni24  1  0.66906543  0.67071659  1.00354761  1
  Fe  Fe25  1  0.83688655  0.83744724  0.17080701  1
  Ni  Ni26  1  0.66963212  0.67191962  0.33756430  1
  Fe  Fe27  1  0.17034746  0.17129244  0.50426727  1
  Fe  Fe28  1  1.00234210  0.00443452  0.67081760  1
  Ni  Ni29  1  0.17062862  0.16981704  0.83825627  1
  Fe  Fe30  1  0.17026188  0.50351783  0.50300430  1
  Ni  Ni31  1  0.00463244  0.33745996  0.67025498  1
  Fe  Fe32  1  0.16966352  0.50251514  0.83730340  1
  Fe  Fe33  1  0.17009238  0.83668631  0.50276005  1
  Ni  Ni34  1  1.00339006  0.66989926  0.67072257  1
  Fe  Fe35  1  0.17010268  0.83771468  0.83831629  1
  Ni  Ni36  1  0.50384163  0.17084794  0.50383763  1
  Fe  Fe37  1  0.33797309  0.00486481  0.67109592  1
  Ni  Ni38  1  0.50329993  0.17141396  0.83726761  1
  Ni  Ni39  1  0.50347520  0.50392433  0.50357106  1
  Ni  Ni40  1  0.33668218  0.33693083  0.67145437  1
  Ni  Ni41  1  0.50381996  0.50341558  0.83707033  1
  Ni  Ni42  1  0.50352532  0.83672657  0.50346811  1
  Fe  Fe43  1  0.33825259  0.66925845  0.67026207  1
  Fe  Fe44  1  0.50524415  0.83768932  0.83720397  1
  Ni  Ni45  1  0.83731826  0.17011256  0.50464343  1
  Ni  Ni46  1  0.67018391  1.00342089  0.67119859  1
  Ni  Ni47  1  0.83757541  0.16984695  0.83672571  1
  Ni  Ni48  1  0.83734266  0.50432388  0.50326168  1
  Ni  Ni49  1  0.67018226  0.33660700  0.66991948  1
  Ni  Ni50  1  0.83669248  0.50462689  0.83763952  1
  Ni  Ni51  1  0.83803141  0.83706761  0.50324084  1
  Ni  Ni52  1  0.67072142  0.67147745  0.67038797  1
  Ni  Ni53  1  0.83829749  0.83703311  0.83748967  1
" 