5590,Ni32Fe26Cr40_17,-223.141653549462, 176.429180674716,Ni32Fe26Cr40,"# generated using pymatgen
 data_Cr23Fe14Ni17
_symmetry_space_group_name_H-M   'P 1'
_cell_length_a   7.48670723
_cell_length_b   7.48670723
_cell_length_c   10.58780291
_cell_angle_alpha   90.00000000
_cell_angle_beta   90.00000000
_cell_angle_gamma   90.00000000
_symmetry_Int_Tables_number   1
_chemical_formula_structural   Cr23Fe14Ni17
_chemical_formula_sum   'Cr23 Fe14 Ni17'
_cell_volume   593.45466679
_cell_formula_units_Z   1
loop_
 _symmetry_equiv_pos_site_id
 _symmetry_equiv_pos_as_xyz
  1  'x, y, z'
loop_
 _atom_site_type_symbol
 _atom_site_label
 _atom_site_symmetry_multiplicity
 _atom_site_fract_x
 _atom_site_fract_y
 _atom_site_fract_z
 _atom_site_occupancy
  Cr  Cr0  1  0.99770753  -0.00019453  0.00227161  1
  Ni  Ni1  1  0.16619286  0.16898210  0.16572524  1
  Cr  Cr2  1  0.99748224  0.00064037  0.33045649  1
  Fe  Fe3  1  0.00010591  0.33250478  -0.00092144  1
  Cr  Cr4  1  0.16641219  0.50041835  0.16638167  1
  Cr  Cr5  1  0.99834524  0.33001432  0.33489956  1
  Cr  Cr6  1  0.99688861  0.66697559  0.99761926  1
  Fe  Fe7  1  0.16366053  0.83231839  0.16667142  1
  Fe  Fe8  1  0.99859159  0.66635297  0.33308725  1
  Cr  Cr9  1  0.33170723  -0.00127922  0.00042201  1
  Ni  Ni10  1  0.49975492  0.16647601  0.16476695  1
  Cr  Cr11  1  0.33193053  -0.00112325  0.33025644  1
  Ni  Ni12  1  0.33355725  0.33169123  -0.00012693  1
  Fe  Fe13  1  0.49844274  0.49573049  0.16484541  1
  Fe  Fe14  1  0.33201563  0.33154213  0.33127097  1
  Cr  Cr15  1  0.33466010  0.66496679  0.99635150  1
  Cr  Cr16  1  0.50011195  0.83212955  0.16692059  1
  Ni  Ni17  1  0.33150492  0.66493560  0.33112746  1
  Fe  Fe18  1  0.66485928  0.99749945  0.00004154  1
  Ni  Ni19  1  0.82984315  0.16421036  0.16390142  1
  Ni  Ni20  1  0.66673400  -0.00115928  0.33166217  1
  Fe  Fe21  1  0.66396802  0.33180935  -0.00079361  1
  Cr  Cr22  1  0.83276535  0.49934554  0.16521022  1
  Cr  Cr23  1  0.66650459  0.32980360  0.33088869  1
  Cr  Cr24  1  0.66503846  0.66509290  0.99540784  1
  Ni  Ni25  1  0.83151633  0.83370032  0.16718340  1
  Cr  Cr26  1  0.66460302  0.66610491  0.33369562  1
  Fe  Fe27  1  0.16752654  0.16518639  0.50019229  1
  Fe  Fe28  1  0.99752803  0.99673333  0.66422372  1
  Cr  Cr29  1  0.16622627  0.16687280  0.83002831  1
  Ni  Ni30  1  0.16354818  0.49880820  0.49895367  1
  Cr  Cr31  1  0.99835785  0.33257824  0.66419769  1
  Fe  Fe32  1  0.16538599  0.49780627  0.83119043  1
  Cr  Cr33  1  0.16545373  0.82923857  0.49832998  1
  Ni  Ni34  1  0.99517184  0.66480968  0.66487304  1
  Cr  Cr35  1  0.16376107  0.83229063  0.83071329  1
  Cr  Cr36  1  0.49905087  0.16267509  0.49972165  1
  Ni  Ni37  1  0.33233138  0.99846343  0.66485048  1
  Cr  Cr38  1  0.49854412  0.16443622  0.83152943  1
  Cr  Cr39  1  0.49560252  0.49984301  0.49674039  1
  Ni  Ni40  1  0.33101313  0.33157265  0.66426657  1
  Ni  Ni41  1  0.49961007  0.49709157  0.83247491  1
  Ni  Ni42  1  0.50043321  0.83300239  0.50016176  1
  Cr  Cr43  1  0.33549155  0.66485900  0.66877201  1
  Ni  Ni44  1  0.50223677  0.83227707  0.82883525  1
  Fe  Fe45  1  0.83171893  0.16222520  0.49900003  1
  Fe  Fe46  1  0.66538759  0.99566939  0.66455064  1
  Cr  Cr47  1  0.83101606  0.16421876  0.83438487  1
  Fe  Fe48  1  0.83282845  0.50289792  0.50004225  1
  Cr  Cr49  1  0.66572628  0.33657366  0.66515893  1
  Ni  Ni50  1  0.83223505  0.50000568  0.83123483  1
  Fe  Fe51  1  0.83028820  0.83172890  0.49984812  1
  Ni  Ni52  1  0.66744085  0.66723346  0.66655383  1
  Ni  Ni53  1  0.83028098  0.83051335  0.82904860  1
" 