120,Ni32Fe68_0,-243.027018465059, 218.985644242778,Ni32Fe68,"# generated using pymatgen
 data_Fe17Ni37
_symmetry_space_group_name_H-M   'P 1'
_cell_length_a   7.41298563
_cell_length_b   7.41298563
_cell_length_c   10.48354481
_cell_angle_alpha   90.00000000
_cell_angle_beta   90.00000000
_cell_angle_gamma   90.00000000
_symmetry_Int_Tables_number   1
_chemical_formula_structural   Fe17Ni37
_chemical_formula_sum   'Fe17 Ni37'
_cell_volume   576.09548577
_cell_formula_units_Z   1
loop_
 _symmetry_equiv_pos_site_id
 _symmetry_equiv_pos_as_xyz
  1  'x, y, z'
loop_
 _atom_site_type_symbol
 _atom_site_label
 _atom_site_symmetry_multiplicity
 _atom_site_fract_x
 _atom_site_fract_y
 _atom_site_fract_z
 _atom_site_occupancy
  Ni  Ni0  1  1.00347979  1.00348633  1.00295465  1
  Fe  Fe1  1  0.17074136  0.16995298  0.17087993  1
  Ni  Ni2  1  1.00347374  0.00411606  0.33778356  1
  Ni  Ni3  1  1.00346022  0.33749392  1.00305691  1
  Ni  Ni4  1  0.17085807  0.50259983  0.17003165  1
  Ni  Ni5  1  1.00348303  0.33676750  0.33766497  1
  Ni  Ni6  1  0.00382205  0.66996154  0.00384259  1
  Ni  Ni7  1  0.17001128  0.83795293  0.17036530  1
  Fe  Fe8  1  1.00350493  0.67072502  0.33705134  1
  Ni  Ni9  1  0.33705532  1.00312624  1.00335628  1
  Fe  Fe10  1  0.50321599  0.16981473  0.17024423  1
  Ni  Ni11  1  0.33674797  1.00293580  0.33770199  1
  Ni  Ni12  1  0.33707546  0.33785291  1.00332516  1
  Ni  Ni13  1  0.50361540  0.50296028  0.16971594  1
  Ni  Ni14  1  0.33676733  0.33797026  0.33765035  1
  Ni  Ni15  1  0.33707150  0.66996168  1.00329422  1
  Ni  Ni16  1  0.50378878  0.83691560  0.17004998  1
  Ni  Ni17  1  0.33763420  0.67003322  0.33740827  1
  Ni  Ni18  1  0.67040298  1.00348497  1.00354316  1
  Fe  Fe19  1  0.83698201  0.16977519  0.17024061  1
  Ni  Ni20  1  0.67071735  1.00324176  0.33751037  1
  Ni  Ni21  1  0.67040519  0.33750964  0.00371078  1
  Fe  Fe22  1  0.83687814  0.50481578  0.17000514  1
  Ni  Ni23  1  0.67068946  0.33765244  0.33732474  1
  Ni  Ni24  1  0.67004621  0.66994215  1.00272172  1
  Ni  Ni25  1  0.83713854  0.83812972  0.16947902  1
  Ni  Ni26  1  0.66951202  0.67004297  0.33791583  1
  Ni  Ni27  1  0.16986676  0.16927167  0.50339647  1
  Ni  Ni28  1  1.00321854  1.00315802  0.67020177  1
  Fe  Fe29  1  0.17081294  0.17000380  0.83681371  1
  Fe  Fe30  1  0.17048257  0.50474909  0.50297931  1
  Fe  Fe31  1  0.00383789  0.33664811  0.67007425  1
  Fe  Fe32  1  0.17074310  0.50503638  0.83795377  1
  Ni  Ni33  1  0.17022298  0.83951258  0.50311901  1
  Ni  Ni34  1  0.00433342  0.67016221  0.66966785  1
  Ni  Ni35  1  0.17075548  0.83877981  0.83745425  1
  Fe  Fe36  1  0.50373534  0.16940984  0.50331020  1
  Ni  Ni37  1  0.33724368  1.00279900  0.66988149  1
  Fe  Fe38  1  0.50378487  0.16990664  0.83738639  1
  Ni  Ni39  1  0.50499234  0.50334274  0.50362977  1
  Fe  Fe40  1  0.33671842  0.33657791  0.67007345  1
  Ni  Ni41  1  0.50499302  0.50341791  0.83759475  1
  Ni  Ni42  1  0.50347344  0.83680341  0.50341329  1
  Ni  Ni43  1  0.33646008  0.67019013  0.67023698  1
  Ni  Ni44  1  0.50262407  0.83694661  0.83747540  1
  Fe  Fe45  1  0.83695718  0.16940929  0.50324308  1
  Ni  Ni46  1  0.67047550  0.00398833  0.66988545  1
  Fe  Fe47  1  0.83634144  0.16994967  0.83745646  1
  Ni  Ni48  1  0.83572435  0.50298835  0.50276097  1
  Fe  Fe49  1  0.67038378  0.33752734  0.67045295  1
  Ni  Ni50  1  0.83603960  0.50223570  0.83814632  1
  Ni  Ni51  1  0.83724276  0.83715924  0.50431698  1
  Fe  Fe52  1  0.67014415  0.67140747  0.67000761  1
  Fe  Fe53  1  0.83672158  0.83630494  0.83714700  1
" 