8791,Ni32Fe68_17,-242.942815957298, 221.146069596077,Ni32Fe68,"# generated using pymatgen
 data_Fe17Ni37
_symmetry_space_group_name_H-M   'P 1'
_cell_length_a   7.40942105
_cell_length_b   7.40942105
_cell_length_c   10.47850374
_cell_angle_alpha   90.00000000
_cell_angle_beta   90.00000000
_cell_angle_gamma   90.00000000
_symmetry_Int_Tables_number   1
_chemical_formula_structural   Fe17Ni37
_chemical_formula_sum   'Fe17 Ni37'
_cell_volume   575.26482905
_cell_formula_units_Z   1
loop_
 _symmetry_equiv_pos_site_id
 _symmetry_equiv_pos_as_xyz
  1  'x, y, z'
loop_
 _atom_site_type_symbol
 _atom_site_label
 _atom_site_symmetry_multiplicity
 _atom_site_fract_x
 _atom_site_fract_y
 _atom_site_fract_z
 _atom_site_occupancy
  Fe  Fe0  1  0.00393552  0.00414948  1.00296809  1
  Ni  Ni1  1  0.16954742  0.17023589  0.16966426  1
  Fe  Fe2  1  1.00379318  1.00300376  0.33807295  1
  Ni  Ni3  1  0.00411155  0.33769383  1.00386516  1
  Ni  Ni4  1  0.17130549  0.50333842  0.17038647  1
  Ni  Ni5  1  0.00443153  0.33710854  0.33640334  1
  Ni  Ni6  1  1.00253705  0.66953903  0.00406870  1
  Ni  Ni7  1  0.17058413  0.83797842  0.17003153  1
  Fe  Fe8  1  1.00384529  0.67216857  0.33607118  1
  Ni  Ni9  1  0.33739801  1.00373594  0.00399640  1
  Fe  Fe10  1  0.50206711  0.16890342  0.17011609  1
  Ni  Ni11  1  0.33778410  1.00354515  0.33806685  1
  Ni  Ni12  1  0.33644057  0.33493335  0.00443112  1
  Ni  Ni13  1  0.50443892  0.50363075  0.16885242  1
  Fe  Fe14  1  0.33809197  0.33734463  0.33692815  1
  Fe  Fe15  1  0.33676330  0.66931846  0.00455198  1
  Ni  Ni16  1  0.50392013  0.83615318  0.16951393  1
  Ni  Ni17  1  0.33893549  0.67140627  0.33601909  1
  Fe  Fe18  1  0.67038014  0.00498149  1.00342376  1
  Fe  Fe19  1  0.83769689  0.17041880  0.17082870  1
  Ni  Ni20  1  0.66980321  1.00179927  0.33709183  1
  Ni  Ni21  1  0.67128411  0.33857750  0.00491773  1
  Fe  Fe22  1  0.83815560  0.50535806  0.17035779  1
  Fe  Fe23  1  0.66917558  0.33747103  0.33687860  1
  Ni  Ni24  1  0.67119660  0.67136739  0.00390198  1
  Ni  Ni25  1  0.83711704  0.83794612  0.16886204  1
  Ni  Ni26  1  0.67023106  0.67176291  0.33704653  1
  Ni  Ni27  1  0.17026647  0.16988577  0.50463978  1
  Ni  Ni28  1  1.00364430  0.00597644  0.67072598  1
  Fe  Fe29  1  0.17120366  0.16978835  0.83699788  1
  Fe  Fe30  1  0.17079739  0.50400964  0.50306426  1
  Ni  Ni31  1  0.00404288  0.33740810  0.67125381  1
  Fe  Fe32  1  0.17099548  0.50318532  0.83820094  1
  Ni  Ni33  1  0.17107555  0.83738842  0.50338647  1
  Fe  Fe34  1  0.00506179  0.67158670  0.67170192  1
  Ni  Ni35  1  0.17136084  0.83706878  0.83838842  1
  Ni  Ni36  1  0.50405198  0.17088790  0.50384493  1
  Ni  Ni37  1  0.33768366  1.00371651  0.66950470  1
  Ni  Ni38  1  0.50420638  0.17075365  0.83736957  1
  Ni  Ni39  1  0.50488117  0.50412409  0.50525048  1
  Ni  Ni40  1  0.33490041  0.33690422  0.66997328  1
  Fe  Fe41  1  0.50457564  0.50360060  0.83760276  1
  Ni  Ni42  1  0.50321497  0.83657648  0.50407766  1
  Ni  Ni43  1  0.33877280  0.67078160  0.67112856  1
  Ni  Ni44  1  0.50184041  0.83764121  0.83795945  1
  Ni  Ni45  1  0.83710209  0.17155161  0.50386764  1
  Ni  Ni46  1  0.67021359  1.00223054  0.67061274  1
  Ni  Ni47  1  0.83690300  0.17289018  0.83747556  1
  Ni  Ni48  1  0.83668007  0.50353877  0.50338936  1
  Fe  Fe49  1  0.66974552  0.33610356  0.67121738  1
  Ni  Ni50  1  0.83726871  0.50287218  0.83761192  1
  Ni  Ni51  1  0.83776265  0.83665473  0.50565427  1
  Ni  Ni52  1  0.67060605  0.67127554  0.67059651  1
  Fe  Fe53  1  0.83616326  0.83772116  0.83717884  1
" 