2425,Ni32Fe26Cr40_8,-223.806422709131, 182.376951642123,Ni32Fe26Cr40,"# generated using pymatgen
 data_Cr23Fe14Ni17
_symmetry_space_group_name_H-M   'P 1'
_cell_length_a   7.48946044
_cell_length_b   7.48946044
_cell_length_c   10.59169652
_cell_angle_alpha   90.00000000
_cell_angle_beta   90.00000000
_cell_angle_gamma   90.00000000
_symmetry_Int_Tables_number   1
_chemical_formula_structural   Cr23Fe14Ni17
_chemical_formula_sum   'Cr23 Fe14 Ni17'
_cell_volume   594.10962819
_cell_formula_units_Z   1
loop_
 _symmetry_equiv_pos_site_id
 _symmetry_equiv_pos_as_xyz
  1  'x, y, z'
loop_
 _atom_site_type_symbol
 _atom_site_label
 _atom_site_symmetry_multiplicity
 _atom_site_fract_x
 _atom_site_fract_y
 _atom_site_fract_z
 _atom_site_occupancy
  Fe  Fe0  1  0.99652060  0.99735266  0.00279026  1
  Ni  Ni1  1  0.16210394  0.16642980  0.16879847  1
  Ni  Ni2  1  0.99727224  -0.00135261  0.33297930  1
  Cr  Cr3  1  0.99623195  0.33179319  0.00393623  1
  Ni  Ni4  1  0.16301213  0.49812377  0.16882904  1
  Ni  Ni5  1  0.00031581  0.33046351  0.33147628  1
  Fe  Fe6  1  0.99814574  0.66795899  0.00388592  1
  Fe  Fe7  1  0.16136984  0.83134749  0.16857509  1
  Ni  Ni8  1  0.99734222  0.66667240  0.33164223  1
  Cr  Cr9  1  0.32970127  0.99671636  0.00275583  1
  Fe  Fe10  1  0.50089111  0.16414610  0.16598794  1
  Cr  Cr11  1  0.32932339  0.99837664  0.32922171  1
  Cr  Cr12  1  0.33096278  0.33021064  0.00172107  1
  Cr  Cr13  1  0.49639986  0.49817811  0.16751912  1
  Ni  Ni14  1  0.32900643  0.33226528  0.33277513  1
  Cr  Cr15  1  0.32957337  0.66831838  -0.00078042  1
  Ni  Ni16  1  0.50177501  0.83314023  0.16757177  1
  Fe  Fe17  1  0.32748397  0.66410464  0.33184888  1
  Ni  Ni18  1  0.66761481  -0.00053336  0.00153874  1
  Ni  Ni19  1  0.83405872  0.16190481  0.16449816  1
  Fe  Fe20  1  0.67034540  -0.00107433  0.32949735  1
  Ni  Ni21  1  0.66934399  0.32828772  -0.00077802  1
  Fe  Fe22  1  0.83419599  0.49882462  0.16810340  1
  Cr  Cr23  1  0.66976848  0.33062272  0.33137311  1
  Cr  Cr24  1  0.66751525  0.66512581  0.00309851  1
  Ni  Ni25  1  0.83183944  0.83431194  0.16782039  1
  Fe  Fe26  1  0.66755491  0.66687388  0.33039504  1
  Ni  Ni27  1  0.16181445  0.16496228  0.49479330  1
  Fe  Fe28  1  0.99767525  0.99665965  0.66120968  1
  Cr  Cr29  1  0.16080148  0.16309032  0.83271147  1
  Ni  Ni30  1  0.16579009  0.49879559  0.49463549  1
  Cr  Cr31  1  0.99579746  0.32996192  0.66061886  1
  Cr  Cr32  1  0.16231393  0.49998348  0.83266431  1
  Ni  Ni33  1  0.16159298  0.83114640  0.49719614  1
  Fe  Fe34  1  0.00022409  0.66666369  0.66146771  1
  Fe  Fe35  1  0.16283008  0.83192061  0.83124838  1
  Cr  Cr36  1  0.49897179  0.16545453  0.49607595  1
  Cr  Cr37  1  0.32848179  0.99726685  0.66342675  1
  Cr  Cr38  1  0.50006229  0.16473794  0.83347569  1
  Ni  Ni39  1  0.49640898  0.49874334  0.49603206  1
  Cr  Cr40  1  0.32924424  0.33149530  0.66110563  1
  Cr  Cr41  1  0.49932695  0.49629975  0.83089433  1
  Cr  Cr42  1  0.50187434  0.83153295  0.49361009  1
  Cr  Cr43  1  0.33137685  0.66670864  0.66305889  1
  Cr  Cr44  1  0.50118703  0.83380992  0.83260131  1
  Ni  Ni45  1  0.83444127  0.16144998  0.49888817  1
  Fe  Fe46  1  0.66825157  0.00051438  0.66362286  1
  Fe  Fe47  1  0.83069620  0.16472372  0.83256477  1
  Cr  Cr48  1  0.83411693  0.50033177  0.49447648  1
  Fe  Fe49  1  0.66541558  0.33053127  0.66281750  1
  Cr  Cr50  1  0.83301978  0.49925837  0.83430825  1
  Ni  Ni51  1  0.83452112  0.83519935  0.49628899  1
  Cr  Cr52  1  0.66780126  0.66496647  0.66093434  1
  Cr  Cr53  1  0.83549383  0.83440237  0.83139235  1
" 