415,Ni33Fe27Cr39_1,-223.110638243103, 168.634876139328,Ni33Fe27Cr39,"# generated using pymatgen
 data_Cr23Fe14Ni17
_symmetry_space_group_name_H-M   'P 1'
_cell_length_a   7.49040677
_cell_length_b   7.49040677
_cell_length_c   10.59303484
_cell_angle_alpha   90.00000000
_cell_angle_beta   90.00000000
_cell_angle_gamma   90.00000000
_symmetry_Int_Tables_number   1
_chemical_formula_structural   Cr23Fe14Ni17
_chemical_formula_sum   'Cr23 Fe14 Ni17'
_cell_volume   594.33486348
_cell_formula_units_Z   1
loop_
 _symmetry_equiv_pos_site_id
 _symmetry_equiv_pos_as_xyz
  1  'x, y, z'
loop_
 _atom_site_type_symbol
 _atom_site_label
 _atom_site_symmetry_multiplicity
 _atom_site_fract_x
 _atom_site_fract_y
 _atom_site_fract_z
 _atom_site_occupancy
  Ni  Ni0  1  0.99792455  0.99823121  -0.00095502  1
  Ni  Ni1  1  0.16248952  0.16519255  0.16274456  1
  Cr  Cr2  1  0.00161482  0.99796506  0.33330154  1
  Fe  Fe3  1  0.99721807  0.32914933  -0.00145772  1
  Cr  Cr4  1  0.16441566  0.49935424  0.16077231  1
  Cr  Cr5  1  0.99706778  0.33112859  0.33038883  1
  Fe  Fe6  1  0.99600820  0.66704549  0.99762845  1
  Ni  Ni7  1  0.16477977  0.83069984  0.16355547  1
  Cr  Cr8  1  0.99722530  0.66591308  0.33429053  1
  Cr  Cr9  1  0.33095630  0.99646586  -0.00027912  1
  Cr  Cr10  1  0.50041593  0.16366509  0.16559011  1
  Cr  Cr11  1  0.32835384  0.99727904  0.33118234  1
  Fe  Fe12  1  0.33254265  0.33135375  0.99838388  1
  Fe  Fe13  1  0.49991104  0.50134114  0.16312773  1
  Cr  Cr14  1  0.33223179  0.33161416  0.33096343  1
  Fe  Fe15  1  0.33432539  0.66487628  0.99786884  1
  Ni  Ni16  1  0.49960662  0.82766628  0.16251087  1
  Cr  Cr17  1  0.33290820  0.66660395  0.33063571  1
  Fe  Fe18  1  0.66741318  0.99763130  0.99711036  1
  Ni  Ni19  1  0.83411353  0.16470465  0.16245075  1
  Cr  Cr20  1  0.66561018  0.99738688  0.32965983  1
  Cr  Cr21  1  0.66632613  0.33383150  0.99787274  1
  Fe  Fe22  1  0.83113502  0.49972460  0.16436326  1
  Cr  Cr23  1  0.66615494  0.33605161  0.33171726  1
  Fe  Fe24  1  0.66471339  0.66714980  0.99631862  1
  Cr  Cr25  1  0.83054385  0.83170395  0.16549766  1
  Ni  Ni26  1  0.66473542  0.66213609  0.33141699  1
  Ni  Ni27  1  0.16415294  0.16449687  0.50231426  1
  Ni  Ni28  1  -0.00004710  -0.00088603  0.66496417  1
  Cr  Cr29  1  0.16327910  0.16678771  0.83012986  1
  Cr  Cr30  1  0.16649886  0.49741204  0.50163854  1
  Fe  Fe31  1  0.99523126  0.33119123  0.66508890  1
  Cr  Cr32  1  0.16621052  0.49786282  0.83237469  1
  Fe  Fe33  1  0.16599643  0.83241390  0.50154428  1
  Cr  Cr34  1  0.99580745  0.66645889  0.66439495  1
  Cr  Cr35  1  0.16365410  0.83062350  0.83121664  1
  Cr  Cr36  1  0.49752845  0.16675529  0.50108866  1
  Ni  Ni37  1  0.32837442  0.99719896  0.66422377  1
  Cr  Cr38  1  0.49864805  0.16627352  0.82884893  1
  Ni  Ni39  1  0.50064458  0.50123638  0.50002873  1
  Fe  Fe40  1  0.33408140  0.33360784  0.66464652  1
  Ni  Ni41  1  0.49851798  0.50086988  0.83074959  1
  Cr  Cr42  1  0.50127777  0.83001845  0.50019199  1
  Ni  Ni43  1  0.33428873  0.66526928  0.66650843  1
  Fe  Fe44  1  0.49901769  0.82954221  0.83133191  1
  Cr  Cr45  1  0.83163747  0.16462773  0.49993625  1
  Cr  Cr46  1  0.66710247  0.99751944  0.66955837  1
  Ni  Ni47  1  0.83301765  0.16365162  0.83223204  1
  Ni  Ni48  1  0.82871402  0.50075408  0.49983321  1
  Ni  Ni49  1  0.66605170  0.33593892  0.66581966  1
  Fe  Fe50  1  0.83047623  0.49810254  0.83054681  1
  Fe  Fe51  1  0.83040830  0.83013361  0.50041338  1
  Ni  Ni52  1  0.66398677  0.66029259  0.66714800  1
  Ni  Ni53  1  0.83050100  0.83178076  0.83236661  1
" 