367,Ni33Fe7Cr59_16,-215.088061581088, 149.652172503821,Ni33Fe7Cr59,"# generated using pymatgen
 data_Cr11FeNi6
_symmetry_space_group_name_H-M   'P 1'
_cell_length_a   7.53788214
_cell_length_b   7.53788214
_cell_length_c   10.66017515
_cell_angle_alpha   90.00000000
_cell_angle_beta   90.00000000
_cell_angle_gamma   90.00000000
_symmetry_Int_Tables_number   1
_chemical_formula_structural   Cr11FeNi6
_chemical_formula_sum   'Cr33 Fe3 Ni18'
_cell_volume   605.70760349
_cell_formula_units_Z   3
loop_
 _symmetry_equiv_pos_site_id
 _symmetry_equiv_pos_as_xyz
  1  'x, y, z'
loop_
 _atom_site_type_symbol
 _atom_site_label
 _atom_site_symmetry_multiplicity
 _atom_site_fract_x
 _atom_site_fract_y
 _atom_site_fract_z
 _atom_site_occupancy
  Cr  Cr0  1  -0.00435210  0.99393435  -0.00433785  1
  Cr  Cr1  1  0.16159015  0.16321076  0.16455024  1
  Ni  Ni2  1  -0.00204855  -0.00394579  0.33097245  1
  Cr  Cr3  1  -0.00447047  0.33187508  -0.00374754  1
  Cr  Cr4  1  0.16385821  0.49417422  0.16258949  1
  Ni  Ni5  1  -0.00328652  0.32947541  0.32953245  1
  Cr  Cr6  1  -0.00396302  0.66008256  0.99336866  1
  Cr  Cr7  1  0.16417295  0.82831948  0.16108694  1
  Cr  Cr8  1  -0.00468995  0.66145750  0.33025735  1
  Cr  Cr9  1  0.33023592  -0.00386467  0.99467162  1
  Fe  Fe10  1  0.49477626  0.16508103  0.16409828  1
  Cr  Cr11  1  0.32789538  -0.00376148  0.33011611  1
  Cr  Cr12  1  0.32978278  0.32916585  0.99314477  1
  Cr  Cr13  1  0.49437045  0.49688971  0.16377546  1
  Ni  Ni14  1  0.32725174  0.32887446  0.33000323  1
  Ni  Ni15  1  0.32948869  0.66098783  0.99301571  1
  Cr  Cr16  1  0.49378994  0.82419025  0.16221779  1
  Fe  Fe17  1  0.32647299  0.66021870  0.33013648  1
  Cr  Cr18  1  0.65984983  -0.00345983  -0.00333532  1
  Cr  Cr19  1  0.83152003  0.16464441  0.16454080  1
  Cr  Cr20  1  0.66219443  0.99498091  0.32719239  1
  Cr  Cr21  1  0.66058070  0.32844753  0.99450444  1
  Ni  Ni22  1  0.82565230  0.49422809  0.16358008  1
  Ni  Ni23  1  0.66156942  0.33084942  0.32710859  1
  Ni  Ni24  1  0.66009808  0.65973975  -0.00412434  1
  Cr  Cr25  1  0.82778357  0.82644639  0.16168884  1
  Ni  Ni26  1  0.66278842  0.65902818  0.32709723  1
  Ni  Ni27  1  0.16126204  0.16146626  0.49428253  1
  Ni  Ni28  1  0.00074179  0.99246148  0.66027270  1
  Cr  Cr29  1  0.16046501  0.16012487  0.82775215  1
  Ni  Ni30  1  0.16246213  0.49437094  0.49345084  1
  Cr  Cr31  1  -0.00194870  0.33305619  0.66084856  1
  Ni  Ni32  1  0.16538291  0.49840804  0.82897483  1
  Ni  Ni33  1  0.16147936  0.83030025  0.49679026  1
  Ni  Ni34  1  -0.00043629  0.66385358  0.66243498  1
  Ni  Ni35  1  0.16385955  0.82750761  0.82703675  1
  Cr  Cr36  1  0.49395548  0.16440367  0.49640951  1
  Ni  Ni37  1  0.32424155  0.99514555  0.66187470  1
  Fe  Fe38  1  0.49407700  0.16289741  0.82659922  1
  Cr  Cr39  1  0.49493677  0.49506640  0.49276251  1
  Cr  Cr40  1  0.32889196  0.32903687  0.66302549  1
  Ni  Ni41  1  0.49423278  0.49558516  0.82950441  1
  Cr  Cr42  1  0.49276920  0.82596423  0.49381243  1
  Cr  Cr43  1  0.32473250  0.66126713  0.66084554  1
  Cr  Cr44  1  0.49293103  0.82573260  0.82916686  1
  Cr  Cr45  1  0.83195438  0.16328301  0.49587775  1
  Cr  Cr46  1  0.65913784  -0.00324942  0.66231086  1
  Cr  Cr47  1  0.83022883  0.16169382  0.82571089  1
  Cr  Cr48  1  0.82731078  0.49338349  0.49486955  1
  Ni  Ni49  1  0.65961516  0.32920480  0.66412528  1
  Cr  Cr50  1  0.82726587  0.49540350  0.82779542  1
  Cr  Cr51  1  0.83016074  0.82939385  0.49667866  1
  Cr  Cr52  1  0.66303227  0.65999453  0.66178178  1
  Cr  Cr53  1  0.83062367  0.82925133  0.82757845  1
" 