5423,Ni33Fe60Cr6_8,-234.350217573331, 203.668497777,Ni33Fe60Cr6,"# generated using pymatgen
 data_Cr5Fe32Ni17
_symmetry_space_group_name_H-M   'P 1'
_cell_length_a   7.41811540
_cell_length_b   7.41811540
_cell_length_c   10.49079940
_cell_angle_alpha   90.00000000
_cell_angle_beta   90.00000000
_cell_angle_gamma   90.00000000
_symmetry_Int_Tables_number   1
_chemical_formula_structural   Cr5Fe32Ni17
_chemical_formula_sum   'Cr5 Fe32 Ni17'
_cell_volume   577.29228350
_cell_formula_units_Z   1
loop_
 _symmetry_equiv_pos_site_id
 _symmetry_equiv_pos_as_xyz
  1  'x, y, z'
loop_
 _atom_site_type_symbol
 _atom_site_label
 _atom_site_symmetry_multiplicity
 _atom_site_fract_x
 _atom_site_fract_y
 _atom_site_fract_z
 _atom_site_occupancy
  Fe  Fe0  1  1.00269216  1.00294923  1.00260387  1
  Ni  Ni1  1  0.16829104  0.16735164  0.17006959  1
  Ni  Ni2  1  0.00397339  1.00226563  0.33487715  1
  Ni  Ni3  1  1.00303258  0.33598913  1.00199032  1
  Cr  Cr4  1  0.16867798  0.50526166  0.16989699  1
  Ni  Ni5  1  1.00325069  0.33632833  0.33667173  1
  Ni  Ni6  1  0.99929004  0.67152441  0.00338475  1
  Fe  Fe7  1  0.17047114  0.83768118  0.16963295  1
  Fe  Fe8  1  0.00461576  0.67131191  0.33768868  1
  Fe  Fe9  1  0.33585232  1.00079833  0.00404856  1
  Ni  Ni10  1  0.50521411  0.16804676  0.17015718  1
  Ni  Ni11  1  0.33644399  0.00332891  0.33648674  1
  Cr  Cr12  1  0.33697124  0.33318577  0.00343287  1
  Ni  Ni13  1  0.50515031  0.50432562  0.16982747  1
  Cr  Cr14  1  0.33711567  0.33481524  0.33678272  1
  Fe  Fe15  1  0.33683911  0.67053687  1.00203142  1
  Fe  Fe16  1  0.50211495  0.83684794  0.16888826  1
  Fe  Fe17  1  0.33533028  0.67253621  0.33787508  1
  Fe  Fe18  1  0.67146753  0.00344597  1.00267179  1
  Fe  Fe19  1  0.83754191  0.17200464  0.16963995  1
  Fe  Fe20  1  0.66960809  0.00442669  0.33545308  1
  Fe  Fe21  1  0.67179447  0.33822654  1.00319649  1
  Ni  Ni22  1  0.83647138  0.50291484  0.16943830  1
  Fe  Fe23  1  0.67121059  0.33465681  0.33489293  1
  Ni  Ni24  1  0.67059479  0.67135621  1.00202820  1
  Fe  Fe25  1  0.83717902  0.83718202  0.16804628  1
  Cr  Cr26  1  0.67150110  0.67031427  0.33667135  1
  Fe  Fe27  1  0.17009135  0.16766811  0.50369322  1
  Ni  Ni28  1  0.00430065  1.00197685  0.67129353  1
  Fe  Fe29  1  0.16886773  0.16901480  0.83584557  1
  Fe  Fe30  1  0.16817983  0.50329543  0.50468273  1
  Fe  Fe31  1  0.00525519  0.33575259  0.67117972  1
  Fe  Fe32  1  0.16724462  0.50463560  0.83574149  1
  Fe  Fe33  1  0.16939844  0.83859106  0.50404675  1
  Ni  Ni34  1  0.99967480  0.67027564  0.66943914  1
  Fe  Fe35  1  0.16902413  0.83586944  0.83591289  1
  Fe  Fe36  1  0.50245820  0.16797395  0.50413531  1
  Ni  Ni37  1  0.33673566  0.00555329  0.67062302  1
  Fe  Fe38  1  0.50561678  0.16899084  0.83584076  1
  Fe  Fe39  1  0.50359837  0.50282756  0.50566498  1
  Ni  Ni40  1  0.33752570  0.33536376  0.67007358  1
  Ni  Ni41  1  0.50202696  0.50443974  0.83590222  1
  Fe  Fe42  1  0.50207833  0.83908546  0.50411029  1
  Fe  Fe43  1  0.33436946  0.67078385  0.67014467  1
  Fe  Fe44  1  0.50454593  0.83730226  0.83654769  1
  Cr  Cr45  1  0.83744273  0.16818178  0.50271574  1
  Fe  Fe46  1  0.67023035  1.00277573  0.67141993  1
  Ni  Ni47  1  0.83754114  0.16883604  0.83712029  1
  Fe  Fe48  1  0.83826023  0.50346643  0.50325021  1
  Fe  Fe49  1  0.67010597  0.33638464  0.67167132  1
  Fe  Fe50  1  0.83609049  0.50411582  0.83755235  1
  Fe  Fe51  1  0.83826917  0.83646400  0.50497721  1
  Fe  Fe52  1  0.66907574  0.67081601  0.67096987  1
  Ni  Ni53  1  0.83739691  0.83804703  0.83516128  1
" 