1179,Ni33Fe7Cr59_18,-214.974054828775, 144.436194785225,Ni33Fe7Cr59,"# generated using pymatgen
 data_Cr11FeNi6
_symmetry_space_group_name_H-M   'P 1'
_cell_length_a   7.53799766
_cell_length_b   7.53799766
_cell_length_c   10.66033852
_cell_angle_alpha   90.00000000
_cell_angle_beta   90.00000000
_cell_angle_gamma   90.00000000
_symmetry_Int_Tables_number   1
_chemical_formula_structural   Cr11FeNi6
_chemical_formula_sum   'Cr33 Fe3 Ni18'
_cell_volume   605.73545179
_cell_formula_units_Z   3
loop_
 _symmetry_equiv_pos_site_id
 _symmetry_equiv_pos_as_xyz
  1  'x, y, z'
loop_
 _atom_site_type_symbol
 _atom_site_label
 _atom_site_symmetry_multiplicity
 _atom_site_fract_x
 _atom_site_fract_y
 _atom_site_fract_z
 _atom_site_occupancy
  Cr  Cr0  1  0.99494897  0.99305094  0.99323171  1
  Cr  Cr1  1  0.16235057  0.16077198  0.16234833  1
  Cr  Cr2  1  0.99353137  0.99280085  0.32916478  1
  Ni  Ni3  1  -0.00358377  0.32973463  0.99518116  1
  Cr  Cr4  1  0.15824884  0.49380286  0.16071250  1
  Ni  Ni5  1  0.99209809  0.32990649  0.32797494  1
  Ni  Ni6  1  0.99146865  0.66204292  -0.00455014  1
  Cr  Cr7  1  0.16362529  0.83064033  0.16063968  1
  Cr  Cr8  1  0.99418508  0.66232428  0.32650728  1
  Ni  Ni9  1  0.32840214  -0.00097292  0.99318965  1
  Ni  Ni10  1  0.49385767  0.16112819  0.16113574  1
  Ni  Ni11  1  0.33107473  -0.00423431  0.32889486  1
  Ni  Ni12  1  0.32741098  0.32375562  0.99410996  1
  Cr  Cr13  1  0.49817843  0.49583971  0.16064778  1
  Cr  Cr14  1  0.33023704  0.32822471  0.32745578  1
  Cr  Cr15  1  0.32541063  0.66126131  0.99462081  1
  Cr  Cr16  1  0.49405612  0.83047568  0.16165178  1
  Cr  Cr17  1  0.32781675  0.66275018  0.33155093  1
  Cr  Cr18  1  0.66239902  -0.00424463  -0.00395116  1
  Cr  Cr19  1  0.82957788  0.16570711  0.16415610  1
  Cr  Cr20  1  0.66214661  -0.00388185  0.32741789  1
  Cr  Cr21  1  0.65998431  0.32667569  -0.00391376  1
  Ni  Ni22  1  0.82884585  0.49525077  0.16054094  1
  Ni  Ni23  1  0.66341107  0.32878568  0.32653777  1
  Ni  Ni24  1  0.66702196  0.66268555  0.99519689  1
  Fe  Fe25  1  0.82807319  0.82614447  0.15987830  1
  Cr  Cr26  1  0.66388072  0.66305447  0.32954582  1
  Cr  Cr27  1  0.15962838  0.16082201  0.49571039  1
  Ni  Ni28  1  -0.00374285  0.99410076  0.66363527  1
  Ni  Ni29  1  0.16240691  0.15938146  0.82853677  1
  Cr  Cr30  1  0.15921075  0.49232272  0.49444532  1
  Ni  Ni31  1  -0.00387580  0.32627024  0.66292234  1
  Cr  Cr32  1  0.15970769  0.49366204  0.83063204  1
  Cr  Cr33  1  0.16414392  0.83282423  0.49534473  1
  Cr  Cr34  1  0.99523917  0.66510017  0.66272631  1
  Ni  Ni35  1  0.16139891  0.83297918  0.82876238  1
  Cr  Cr36  1  0.49498787  0.15947814  0.49388911  1
  Ni  Ni37  1  0.32725917  0.99471933  0.66357685  1
  Fe  Fe38  1  0.49224085  0.15959286  0.82999345  1
  Cr  Cr39  1  0.49801351  0.49781819  0.49626730  1
  Cr  Cr40  1  0.32775781  0.32668654  0.66502294  1
  Cr  Cr41  1  0.49738972  0.49726994  0.82959872  1
  Ni  Ni42  1  0.49674583  0.83055402  0.49625581  1
  Cr  Cr43  1  0.32783501  0.66263077  0.65958697  1
  Cr  Cr44  1  0.49513202  0.82847285  0.82853706  1
  Cr  Cr45  1  0.83132666  0.16277756  0.49529251  1
  Cr  Cr46  1  0.66363382  0.99433682  0.66229745  1
  Cr  Cr47  1  0.83315842  0.16241348  0.82635019  1
  Cr  Cr48  1  0.82863034  0.49303770  0.49630503  1
  Cr  Cr49  1  0.66027287  0.32731772  0.66251320  1
  Cr  Cr50  1  0.82826897  0.49596143  0.82917639  1
  Ni  Ni51  1  0.82675162  0.82883207  0.49713984  1
  Fe  Fe52  1  0.66376499  0.66516650  0.66208035  1
  Ni  Ni53  1  0.82992260  0.82785791  0.82939227  1
" 