8403,Ni33Fe7Cr59_11,-215.42631373223, 153.24189178639,Ni33Fe7Cr59,"# generated using pymatgen
 data_Cr11FeNi6
_symmetry_space_group_name_H-M   'P 1'
_cell_length_a   7.53405343
_cell_length_b   7.53405343
_cell_length_c   10.65476054
_cell_angle_alpha   90.00000000
_cell_angle_beta   90.00000000
_cell_angle_gamma   90.00000000
_symmetry_Int_Tables_number   1
_chemical_formula_structural   Cr11FeNi6
_chemical_formula_sum   'Cr33 Fe3 Ni18'
_cell_volume   604.78510237
_cell_formula_units_Z   3
loop_
 _symmetry_equiv_pos_site_id
 _symmetry_equiv_pos_as_xyz
  1  'x, y, z'
loop_
 _atom_site_type_symbol
 _atom_site_label
 _atom_site_symmetry_multiplicity
 _atom_site_fract_x
 _atom_site_fract_y
 _atom_site_fract_z
 _atom_site_occupancy
  Cr  Cr0  1  0.99544518  -0.00224917  0.99219064  1
  Cr  Cr1  1  0.16041483  0.16416976  0.16081442  1
  Ni  Ni2  1  -0.00357475  -0.00395398  0.32984799  1
  Ni  Ni3  1  0.99312606  0.33143989  0.99530900  1
  Ni  Ni4  1  0.15998427  0.49342296  0.16132265  1
  Cr  Cr5  1  -0.00197979  0.32870334  0.32687846  1
  Ni  Ni6  1  0.99346658  0.65879699  0.99403099  1
  Cr  Cr7  1  0.16125639  0.82702747  0.16185915  1
  Cr  Cr8  1  -0.00252325  0.66077593  0.33069333  1
  Cr  Cr9  1  0.32944279  -0.00369366  0.99305337  1
  Cr  Cr10  1  0.49698348  0.16248682  0.16205826  1
  Cr  Cr11  1  0.32753234  -0.00355852  0.33021572  1
  Cr  Cr12  1  0.32627229  0.32942392  0.99489073  1
  Cr  Cr13  1  0.49467602  0.49367578  0.16144262  1
  Ni  Ni14  1  0.32701149  0.32956808  0.33022980  1
  Cr  Cr15  1  0.32791651  0.66096328  -0.00206860  1
  Ni  Ni16  1  0.49722254  0.83134627  0.16062771  1
  Cr  Cr17  1  0.32808468  0.65890316  0.32720282  1
  Ni  Ni18  1  0.66452458  -0.00325607  -0.00364867  1
  Fe  Fe19  1  0.82922372  0.16263316  0.16006020  1
  Cr  Cr20  1  0.66347844  -0.00397813  0.32891705  1
  Ni  Ni21  1  0.66482889  0.32826490  0.99302797  1
  Cr  Cr22  1  0.83074146  0.49380974  0.15978633  1
  Cr  Cr23  1  0.66160159  0.32883491  0.33020031  1
  Cr  Cr24  1  0.66270655  0.66143896  0.99421755  1
  Cr  Cr25  1  0.82991189  0.82995043  0.16149569  1
  Cr  Cr26  1  0.66158572  0.66195940  0.32811610  1
  Cr  Cr27  1  0.16275249  0.16438581  0.49699268  1
  Cr  Cr28  1  -0.00429479  -0.00382161  0.66324644  1
  Ni  Ni29  1  0.16117045  0.16754816  0.82740546  1
  Ni  Ni30  1  0.16337745  0.49567182  0.49749816  1
  Ni  Ni31  1  -0.00204280  0.33241678  0.66377564  1
  Cr  Cr32  1  0.16045198  0.49525215  0.82873311  1
  Ni  Ni33  1  0.16150260  0.82526599  0.49723410  1
  Ni  Ni34  1  -0.00280043  0.65828541  0.66271113  1
  Cr  Cr35  1  0.16018330  0.82663354  0.82696391  1
  Ni  Ni36  1  0.49372583  0.16585852  0.49686805  1
  Cr  Cr37  1  0.32742979  -0.00313963  0.66257819  1
  Cr  Cr38  1  0.49460111  0.16509797  0.82779567  1
  Cr  Cr39  1  0.49394974  0.49246314  0.49855033  1
  Ni  Ni40  1  0.32725168  0.33162183  0.66194029  1
  Fe  Fe41  1  0.49603902  0.49447051  0.82742774  1
  Cr  Cr42  1  0.49319917  0.82891478  0.49521356  1
  Ni  Ni43  1  0.32655582  0.65783361  0.66107938  1
  Cr  Cr44  1  0.49570465  0.82825713  0.83077063  1
  Cr  Cr45  1  0.82826601  0.16424177  0.49482905  1
  Cr  Cr46  1  0.66280103  -0.00384077  0.66192181  1
  Cr  Cr47  1  0.82947937  0.16521826  0.83045571  1
  Cr  Cr48  1  0.83185665  0.49486133  0.49908412  1
  Fe  Fe49  1  0.66288604  0.33018890  0.66392104  1
  Ni  Ni50  1  0.83031404  0.49515556  0.82866314  1
  Cr  Cr51  1  0.83294736  0.82797349  0.49603950  1
  Cr  Cr52  1  0.66367583  0.66101521  0.66511128  1
  Ni  Ni53  1  0.82952547  0.82513407  0.83028767  1
" 