3711,Ni33Fe49Cr17_19,-231.040450903875, 198.623868489705,Ni33Fe49Cr17,"# generated using pymatgen
 data_Cr11Fe26Ni17
_symmetry_space_group_name_H-M   'P 1'
_cell_length_a   7.44610093
_cell_length_b   7.44610093
_cell_length_c   10.53037693
_cell_angle_alpha   90.00000000
_cell_angle_beta   90.00000000
_cell_angle_gamma   90.00000000
_symmetry_Int_Tables_number   1
_chemical_formula_structural   Cr11Fe26Ni17
_chemical_formula_sum   'Cr11 Fe26 Ni17'
_cell_volume   583.85063147
_cell_formula_units_Z   1
loop_
 _symmetry_equiv_pos_site_id
 _symmetry_equiv_pos_as_xyz
  1  'x, y, z'
loop_
 _atom_site_type_symbol
 _atom_site_label
 _atom_site_symmetry_multiplicity
 _atom_site_fract_x
 _atom_site_fract_y
 _atom_site_fract_z
 _atom_site_occupancy
  Fe  Fe0  1  0.99964125  0.00170106  1.00131813  1
  Ni  Ni1  1  0.16697973  0.16696795  0.16793293  1
  Fe  Fe2  1  0.00245958  0.99963926  0.33425993  1
  Fe  Fe3  1  1.00019695  0.33359837  1.00041363  1
  Cr  Cr4  1  0.16779035  0.50322917  0.16727402  1
  Cr  Cr5  1  1.00123876  0.33329961  0.33582927  1
  Fe  Fe6  1  0.00203994  0.66892160  1.00097417  1
  Ni  Ni7  1  0.16692621  0.83459492  0.16899290  1
  Ni  Ni8  1  0.99936920  0.66951831  0.33391516  1
  Cr  Cr9  1  0.33343052  1.00071765  1.00082162  1
  Cr  Cr10  1  0.50291815  0.16780628  0.16813159  1
  Fe  Fe11  1  0.33294872  0.99849756  0.33470240  1
  Fe  Fe12  1  0.33414969  0.33641616  1.00041688  1
  Fe  Fe13  1  0.50121978  0.50263214  0.16951721  1
  Fe  Fe14  1  0.33601457  0.33567074  0.33508818  1
  Fe  Fe15  1  0.33468630  0.66848769  1.00075243  1
  Ni  Ni16  1  0.50194797  0.83487178  0.17019391  1
  Fe  Fe17  1  0.33622513  0.67005489  0.33489745  1
  Ni  Ni18  1  0.67041432  1.00047642  0.00143182  1
  Fe  Fe19  1  0.83575695  0.16625781  0.16657426  1
  Fe  Fe20  1  0.66881325  0.99942486  0.33362814  1
  Fe  Fe21  1  0.66987856  0.33401813  1.00087867  1
  Fe  Fe22  1  0.83382441  0.50231029  0.16873852  1
  Fe  Fe23  1  0.66871691  0.33770818  0.33535321  1
  Cr  Cr24  1  0.66753866  0.66886280  1.00135872  1
  Fe  Fe25  1  0.83564980  0.83564977  0.16915068  1
  Ni  Ni26  1  0.66703384  0.66733453  0.33395599  1
  Fe  Fe27  1  0.16814252  0.16566652  0.50236408  1
  Ni  Ni28  1  0.00492434  0.00342071  0.66860361  1
  Fe  Fe29  1  0.16593251  0.16916104  0.83371413  1
  Cr  Cr30  1  0.16743110  0.50362703  0.50228263  1
  Fe  Fe31  1  1.00082263  0.33349471  0.66920316  1
  Ni  Ni32  1  0.16664107  0.50221710  0.83500185  1
  Ni  Ni33  1  0.16908489  0.83560877  0.50149740  1
  Fe  Fe34  1  0.00354355  0.66817823  0.66893224  1
  Fe  Fe35  1  0.16701066  0.83410771  0.83348215  1
  Cr  Cr36  1  0.50153037  0.16802032  0.50124297  1
  Ni  Ni37  1  0.33078862  1.00107086  0.66734201  1
  Cr  Cr38  1  0.50303873  0.16741507  0.83484356  1
  Ni  Ni39  1  0.50249137  0.50087462  0.50067392  1
  Ni  Ni40  1  0.33266600  0.33482402  0.66885727  1
  Fe  Fe41  1  0.50024626  0.50105324  0.83406089  1
  Ni  Ni42  1  0.49841621  0.83473770  0.49966066  1
  Fe  Fe43  1  0.33411182  0.66976061  0.66856980  1
  Ni  Ni44  1  0.50002257  0.83515814  0.83436277  1
  Fe  Fe45  1  0.83587766  0.16926148  0.50216344  1
  Cr  Cr46  1  0.66814074  0.99994772  0.66933669  1
  Ni  Ni47  1  0.83535501  0.16904409  0.83562847  1
  Ni  Ni48  1  0.83396013  0.49998070  0.50135113  1
  Fe  Fe49  1  0.66949236  0.33558817  0.66798715  1
  Ni  Ni50  1  0.83821270  0.49936409  0.83432396  1
  Cr  Cr51  1  0.83673006  0.83403771  0.50022785  1
  Cr  Cr52  1  0.66709265  0.66605202  0.66840343  1
  Fe  Fe53  1  0.83643785  0.83561361  0.83533487  1
" 