1168,Ni33Fe60Cr6_14,-234.045274485315, 206.162995729211,Ni33Fe60Cr6,"# generated using pymatgen
 data_Cr5Fe32Ni17
_symmetry_space_group_name_H-M   'P 1'
_cell_length_a   7.41225789
_cell_length_b   7.41225789
_cell_length_c   10.48251564
_cell_angle_alpha   90.00000000
_cell_angle_beta   90.00000000
_cell_angle_gamma   90.00000000
_symmetry_Int_Tables_number   1
_chemical_formula_structural   Cr5Fe32Ni17
_chemical_formula_sum   'Cr5 Fe32 Ni17'
_cell_volume   575.92583530
_cell_formula_units_Z   1
loop_
 _symmetry_equiv_pos_site_id
 _symmetry_equiv_pos_as_xyz
  1  'x, y, z'
loop_
 _atom_site_type_symbol
 _atom_site_label
 _atom_site_symmetry_multiplicity
 _atom_site_fract_x
 _atom_site_fract_y
 _atom_site_fract_z
 _atom_site_occupancy
  Fe  Fe0  1  1.00305071  1.00354617  1.00327161  1
  Cr  Cr1  1  0.17024004  0.17015465  0.17168641  1
  Ni  Ni2  1  1.00355241  1.00131814  0.33782833  1
  Fe  Fe3  1  1.00327369  0.33567414  1.00345548  1
  Ni  Ni4  1  0.17076372  0.50506361  0.16901688  1
  Fe  Fe5  1  1.00030911  0.33756422  0.33680266  1
  Fe  Fe6  1  0.00406772  0.67193371  0.00565159  1
  Ni  Ni7  1  0.17099109  0.83537141  0.17154837  1
  Ni  Ni8  1  1.00348450  0.67178104  0.33652219  1
  Fe  Fe9  1  0.33841372  1.00365272  1.00339270  1
  Ni  Ni10  1  0.50510495  0.16988496  0.16986494  1
  Fe  Fe11  1  0.33867170  1.00218110  0.33800655  1
  Ni  Ni12  1  0.33812857  0.33829548  1.00185826  1
  Fe  Fe13  1  0.50257641  0.50204526  0.16921636  1
  Fe  Fe14  1  0.33813502  0.33766132  0.33552174  1
  Fe  Fe15  1  0.33820740  0.67082107  0.00391724  1
  Fe  Fe16  1  0.50312041  0.83876225  0.17059704  1
  Fe  Fe17  1  0.33795239  0.67123546  0.33592238  1
  Ni  Ni18  1  0.67080000  1.00307481  1.00344293  1
  Ni  Ni19  1  0.83521978  0.16959968  0.17026285  1
  Fe  Fe20  1  0.67209964  1.00345375  0.33585430  1
  Fe  Fe21  1  0.66889219  0.33545365  0.00414519  1
  Fe  Fe22  1  0.83804719  0.50285428  0.17086250  1
  Ni  Ni23  1  0.66891593  0.33793750  0.33565126  1
  Fe  Fe24  1  0.66815990  0.67159395  0.00371639  1
  Fe  Fe25  1  0.83836394  0.83873070  0.17020277  1
  Fe  Fe26  1  0.67193558  0.67113896  0.33738177  1
  Fe  Fe27  1  0.16992376  0.16598637  0.50245954  1
  Ni  Ni28  1  0.00369972  1.00139721  0.67089143  1
  Ni  Ni29  1  0.17053500  0.17039615  0.83864185  1
  Cr  Cr30  1  0.17140124  0.50263553  0.50403943  1
  Cr  Cr31  1  1.00144201  0.33417253  0.67014542  1
  Fe  Fe32  1  0.17091817  0.50421148  0.83857130  1
  Fe  Fe33  1  0.16936053  0.83773984  0.50171641  1
  Fe  Fe34  1  1.00273787  0.67392262  0.66945596  1
  Fe  Fe35  1  0.16786471  0.83610671  0.83902256  1
  Fe  Fe36  1  0.50553646  0.17078319  0.50174585  1
  Cr  Cr37  1  0.33662023  1.00268050  0.67183043  1
  Fe  Fe38  1  0.50641563  0.17182847  0.83915402  1
  Fe  Fe39  1  0.50698696  0.50452822  0.50453975  1
  Fe  Fe40  1  0.33854959  0.33619229  0.67278196  1
  Ni  Ni41  1  0.50187659  0.50469050  0.83555547  1
  Ni  Ni42  1  0.50603375  0.83697890  0.50296014  1
  Fe  Fe43  1  0.33831981  0.66977224  0.67096558  1
  Fe  Fe44  1  0.50614155  0.83654841  0.83763063  1
  Fe  Fe45  1  0.83499309  0.16855566  0.50254315  1
  Fe  Fe46  1  0.67269643  0.00461610  0.67078453  1
  Ni  Ni47  1  0.83722990  0.16775115  0.83720283  1
  Fe  Fe48  1  0.83303637  0.50579597  0.50247572  1
  Ni  Ni49  1  0.66799383  0.33709813  0.67088766  1
  Cr  Cr50  1  0.83470471  0.50510693  0.83738041  1
  Ni  Ni51  1  0.83580050  0.83822620  0.50433307  1
  Fe  Fe52  1  0.66963691  0.67249739  0.66961300  1
  Ni  Ni53  1  0.83664480  0.83857516  0.83664906  1
" 