2717,Ni33Fe60Cr6_12,-234.409710769765, 209.088551187532,Ni33Fe60Cr6,"# generated using pymatgen
 data_Cr5Fe32Ni17
_symmetry_space_group_name_H-M   'P 1'
_cell_length_a   7.41310877
_cell_length_b   7.41310877
_cell_length_c   10.48371896
_cell_angle_alpha   90.00000000
_cell_angle_beta   90.00000000
_cell_angle_gamma   90.00000000
_symmetry_Int_Tables_number   1
_chemical_formula_structural   Cr5Fe32Ni17
_chemical_formula_sum   'Cr5 Fe32 Ni17'
_cell_volume   576.12419547
_cell_formula_units_Z   1
loop_
 _symmetry_equiv_pos_site_id
 _symmetry_equiv_pos_as_xyz
  1  'x, y, z'
loop_
 _atom_site_type_symbol
 _atom_site_label
 _atom_site_symmetry_multiplicity
 _atom_site_fract_x
 _atom_site_fract_y
 _atom_site_fract_z
 _atom_site_occupancy
  Ni  Ni0  1  0.00404260  0.00463184  0.00433396  1
  Fe  Fe1  1  0.17138673  0.16968851  0.17071506  1
  Fe  Fe2  1  0.00502767  0.00493852  0.33777697  1
  Fe  Fe3  1  0.00570458  0.33546100  0.00457161  1
  Ni  Ni4  1  0.16940696  0.50326939  0.17051592  1
  Ni  Ni5  1  0.00365820  0.33787475  0.33651510  1
  Fe  Fe6  1  0.00513350  0.66839278  0.00496077  1
  Fe  Fe7  1  0.17263289  0.83691376  0.17060634  1
  Ni  Ni8  1  0.00427180  0.66969781  0.33765495  1
  Fe  Fe9  1  0.33855916  0.00484595  0.00499319  1
  Ni  Ni10  1  0.50317644  0.16913213  0.17155655  1
  Ni  Ni11  1  0.33829677  0.00398837  0.33751102  1
  Fe  Fe12  1  0.33424571  0.33679031  0.00487431  1
  Fe  Fe13  1  0.50165806  0.50494770  0.17225939  1
  Ni  Ni14  1  0.33764482  0.33660927  0.33612346  1
  Fe  Fe15  1  0.33848200  0.66915099  0.00404501  1
  Ni  Ni16  1  0.50326484  0.83802522  0.17200114  1
  Fe  Fe17  1  0.33637919  0.66981432  0.33724958  1
  Fe  Fe18  1  0.66885932  1.00329979  1.00342063  1
  Fe  Fe19  1  0.83758672  0.17061927  0.17115743  1
  Ni  Ni20  1  0.66932339  0.00480868  0.33718453  1
  Cr  Cr21  1  0.66770015  0.33704582  0.00585343  1
  Fe  Fe22  1  0.83711705  0.50327064  0.17177807  1
  Fe  Fe23  1  0.66942721  0.33612871  0.33699364  1
  Fe  Fe24  1  0.66780779  0.67240232  1.00330707  1
  Cr  Cr25  1  0.83664593  0.83738361  0.16980670  1
  Fe  Fe26  1  0.66898187  0.66967656  0.33757768  1
  Fe  Fe27  1  0.17289811  0.17219381  0.50222604  1
  Cr  Cr28  1  1.00298861  1.00356609  0.66831021  1
  Ni  Ni29  1  0.17017117  0.17209940  0.83725775  1
  Fe  Fe30  1  0.17145700  0.50294658  0.50292278  1
  Fe  Fe31  1  0.00543722  0.33768940  0.66900700  1
  Ni  Ni32  1  0.17076300  0.50197428  0.83597153  1
  Fe  Fe33  1  0.17270444  0.83540498  0.50304248  1
  Ni  Ni34  1  0.00457908  0.67029323  0.66954114  1
  Cr  Cr35  1  0.17212023  0.83584316  0.83885100  1
  Ni  Ni36  1  0.50364763  0.17050016  0.50416015  1
  Fe  Fe37  1  0.33804394  1.00278162  0.66948439  1
  Fe  Fe38  1  0.50204818  0.16993656  0.83603161  1
  Ni  Ni39  1  0.50353461  0.50272120  0.50269493  1
  Fe  Fe40  1  0.33613304  0.33736577  0.66904358  1
  Fe  Fe41  1  0.50111903  0.50389034  0.83540589  1
  Fe  Fe42  1  0.50327105  0.83702989  0.50329507  1
  Ni  Ni43  1  0.33741939  0.66877237  0.66944505  1
  Ni  Ni44  1  0.50512997  0.83785812  0.83616693  1
  Fe  Fe45  1  0.83476723  0.17223790  0.50270776  1
  Fe  Fe46  1  0.66862165  1.00260382  0.66970654  1
  Ni  Ni47  1  0.83674518  0.17011419  0.83701734  1
  Fe  Fe48  1  0.83646834  0.50320755  0.50362504  1
  Fe  Fe49  1  0.66969049  0.33686087  0.66965000  1
  Cr  Cr50  1  0.83899133  0.50429755  0.83655887  1
  Fe  Fe51  1  0.83503432  0.83546256  0.50163057  1
  Fe  Fe52  1  0.66942361  0.67152580  0.66915067  1
  Fe  Fe53  1  0.83682666  0.83847065  0.83820806  1
" 