6752,Ni33Fe49Cr17_3,-231.505354374796, 194.855595803984,Ni33Fe49Cr17,"# generated using pymatgen
 data_Cr11Fe26Ni17
_symmetry_space_group_name_H-M   'P 1'
_cell_length_a   7.45065567
_cell_length_b   7.45065567
_cell_length_c   10.53681830
_cell_angle_alpha   90.00000000
_cell_angle_beta   90.00000000
_cell_angle_gamma   90.00000000
_symmetry_Int_Tables_number   1
_chemical_formula_structural   Cr11Fe26Ni17
_chemical_formula_sum   'Cr11 Fe26 Ni17'
_cell_volume   584.92270128
_cell_formula_units_Z   1
loop_
 _symmetry_equiv_pos_site_id
 _symmetry_equiv_pos_as_xyz
  1  'x, y, z'
loop_
 _atom_site_type_symbol
 _atom_site_label
 _atom_site_symmetry_multiplicity
 _atom_site_fract_x
 _atom_site_fract_y
 _atom_site_fract_z
 _atom_site_occupancy
  Fe  Fe0  1  0.99895410  0.00185460  0.00198553  1
  Cr  Cr1  1  0.16626190  0.16850361  0.16819459  1
  Ni  Ni2  1  0.99831262  0.00264728  0.33432371  1
  Fe  Fe3  1  0.99990120  0.33384161  1.00093166  1
  Ni  Ni4  1  0.16874739  0.50204941  0.16648320  1
  Fe  Fe5  1  1.00107784  0.33270181  0.33617606  1
  Fe  Fe6  1  1.00025962  0.66760264  0.00220660  1
  Fe  Fe7  1  0.16765845  0.83387071  0.16604986  1
  Cr  Cr8  1  1.00058586  0.66806843  0.33386271  1
  Fe  Fe9  1  0.33732915  0.00160092  1.00071905  1
  Ni  Ni10  1  0.50317016  0.16773187  0.16643818  1
  Cr  Cr11  1  0.33432674  0.00344849  0.33410791  1
  Fe  Fe12  1  0.33706139  0.33478283  0.00128228  1
  Ni  Ni13  1  0.50010262  0.50172350  0.16805541  1
  Fe  Fe14  1  0.33477806  0.33494904  0.33495660  1
  Fe  Fe15  1  0.33696084  0.66692013  0.00247567  1
  Ni  Ni16  1  0.50125312  0.83384434  0.16508113  1
  Cr  Cr17  1  0.33487255  0.66386129  0.33239119  1
  Fe  Fe18  1  0.66701995  0.00195318  1.00109805  1
  Ni  Ni19  1  0.83393758  0.16676707  0.16739276  1
  Cr  Cr20  1  0.67045158  0.00287285  0.33230464  1
  Ni  Ni21  1  0.66674446  0.33334378  1.00016134  1
  Cr  Cr22  1  0.83427800  0.49908942  0.16733062  1
  Fe  Fe23  1  0.66744392  0.33415340  0.33460846  1
  Fe  Fe24  1  0.66608031  0.66786478  1.00045857  1
  Fe  Fe25  1  0.83395538  0.83626863  0.16676716  1
  Fe  Fe26  1  0.66786959  0.66696011  0.33411208  1
  Fe  Fe27  1  0.16601399  0.16941085  0.50091534  1
  Fe  Fe28  1  1.00018224  0.00231241  0.66699412  1
  Fe  Fe29  1  0.16891700  0.16670108  0.83503061  1
  Ni  Ni30  1  0.16520557  0.49981061  0.50147272  1
  Fe  Fe31  1  0.99943417  0.33367663  0.66619588  1
  Cr  Cr32  1  0.16667310  0.50121814  0.83556023  1
  Cr  Cr33  1  0.16753104  0.83493852  0.50367239  1
  Fe  Fe34  1  0.99992305  0.66731380  0.66634207  1
  Cr  Cr35  1  0.16974857  0.83535213  0.83351882  1
  Ni  Ni36  1  0.50295800  0.16873875  0.50150511  1
  Ni  Ni37  1  0.33607758  0.00134839  0.66883825  1
  Ni  Ni38  1  0.50311261  0.16591402  0.83535271  1
  Fe  Fe39  1  0.50252598  0.49918212  0.50127634  1
  Cr  Cr40  1  0.33539514  0.33419218  0.66659956  1
  Ni  Ni41  1  0.50375419  0.50198350  0.83466097  1
  Cr  Cr42  1  0.50153071  0.83503572  0.50466103  1
  Ni  Ni43  1  0.33517304  0.66758427  0.66804505  1
  Ni  Ni44  1  0.50195461  0.83540241  0.83361242  1
  Ni  Ni45  1  0.83493345  0.16974912  0.50135115  1
  Ni  Ni46  1  0.66846542  0.00172264  0.66918507  1
  Fe  Fe47  1  0.83279482  0.16780792  0.83455957  1
  Ni  Ni48  1  0.83534575  0.49894046  0.50242298  1
  Fe  Fe49  1  0.66783687  0.33352078  0.66797206  1
  Fe  Fe50  1  0.83145008  0.50103355  0.83443910  1
  Fe  Fe51  1  0.83453904  0.83493571  0.50234645  1
  Fe  Fe52  1  0.66696471  0.66784289  0.66873693  1
  Fe  Fe53  1  0.83156670  0.83445745  0.83417986  1
" 