674,Ni33Fe27Cr39_5,-223.25643011061, 179.509533947775,Ni33Fe27Cr39,"# generated using pymatgen
 data_Cr23Fe14Ni17
_symmetry_space_group_name_H-M   'P 1'
_cell_length_a   7.48836191
_cell_length_b   7.48836191
_cell_length_c   10.59014297
_cell_angle_alpha   90.00000000
_cell_angle_beta   90.00000000
_cell_angle_gamma   90.00000000
_symmetry_Int_Tables_number   1
_chemical_formula_structural   Cr23Fe14Ni17
_chemical_formula_sum   'Cr23 Fe14 Ni17'
_cell_volume   593.84824042
_cell_formula_units_Z   1
loop_
 _symmetry_equiv_pos_site_id
 _symmetry_equiv_pos_as_xyz
  1  'x, y, z'
loop_
 _atom_site_type_symbol
 _atom_site_label
 _atom_site_symmetry_multiplicity
 _atom_site_fract_x
 _atom_site_fract_y
 _atom_site_fract_z
 _atom_site_occupancy
  Cr  Cr0  1  0.00053282  0.99813550  0.99755557  1
  Fe  Fe1  1  0.16213771  0.16765245  0.16449692  1
  Ni  Ni2  1  0.00049671  -0.00140067  0.33198634  1
  Ni  Ni3  1  0.00183635  0.33021078  -0.00137452  1
  Fe  Fe4  1  0.16480128  0.49645471  0.16483339  1
  Ni  Ni5  1  -0.00106595  0.33077090  0.33020756  1
  Fe  Fe6  1  0.00067089  0.66411118  0.99714207  1
  Fe  Fe7  1  0.16439723  0.83072660  0.16657901  1
  Ni  Ni8  1  0.00462960  0.66612508  0.33020860  1
  Fe  Fe9  1  0.33056888  0.00177262  0.99589979  1
  Cr  Cr10  1  0.49277070  0.16402891  0.16092165  1
  Cr  Cr11  1  0.32865965  0.99526920  0.33197549  1
  Ni  Ni12  1  0.32889654  0.33297480  0.99680601  1
  Cr  Cr13  1  0.49592126  0.49830704  0.16717056  1
  Fe  Fe14  1  0.32702132  0.33104202  0.32957125  1
  Cr  Cr15  1  0.32773837  0.66545747  0.99772828  1
  Cr  Cr16  1  0.49941256  0.83415818  0.16437775  1
  Fe  Fe17  1  0.32872586  0.66551264  0.33288804  1
  Ni  Ni18  1  0.66703487  0.00110895  0.99570385  1
  Fe  Fe19  1  0.83471837  0.16478520  0.16551012  1
  Cr  Cr20  1  0.66612679  0.00175811  0.33380042  1
  Cr  Cr21  1  0.66531641  0.32976533  0.99704339  1
  Cr  Cr22  1  0.83702017  0.49995560  0.16534980  1
  Cr  Cr23  1  0.66561490  0.33093666  0.33155193  1
  Cr  Cr24  1  0.66304720  0.66376550  0.99650028  1
  Cr  Cr25  1  0.83305998  0.83175279  0.16452443  1
  Fe  Fe26  1  0.66667191  0.66694046  0.33231671  1
  Cr  Cr27  1  0.16454991  0.16655980  0.49922841  1
  Cr  Cr28  1  0.00044487  0.00007038  0.66432610  1
  Ni  Ni29  1  0.16712750  0.16731333  0.83215665  1
  Cr  Cr30  1  0.16405877  0.49619884  0.49920857  1
  Ni  Ni31  1  0.99794506  0.33001699  0.66705554  1
  Ni  Ni32  1  0.16544803  0.49430100  0.83302186  1
  Ni  Ni33  1  0.16661268  0.83167402  0.49779880  1
  Cr  Cr34  1  0.00472927  0.66617548  0.66912391  1
  Fe  Fe35  1  0.16738609  0.83252649  0.83067627  1
  Cr  Cr36  1  0.49365899  0.16352192  0.50216297  1
  Ni  Ni37  1  0.33200166  0.99488799  0.66689886  1
  Ni  Ni38  1  0.49364000  0.16445964  0.83300642  1
  Cr  Cr39  1  0.49624121  0.50036017  0.49839355  1
  Fe  Fe40  1  0.32877727  0.33184754  0.66961007  1
  Ni  Ni41  1  0.49390048  0.49695563  0.83027440  1
  Ni  Ni42  1  0.49712190  0.83117583  0.49972054  1
  Ni  Ni43  1  0.33306361  0.66688888  0.66479999  1
  Cr  Cr44  1  0.50046194  0.83520769  0.83195747  1
  Ni  Ni45  1  0.83477459  0.16519744  0.49789308  1
  Fe  Fe46  1  0.66556376  0.99821113  0.66627661  1
  Fe  Fe47  1  0.83302354  0.16482082  0.83147952  1
  Cr  Cr48  1  0.83538307  0.49937786  0.49804627  1
  Cr  Cr49  1  0.66577933  0.33042342  0.66730306  1
  Cr  Cr50  1  0.83567974  0.50110402  0.83269060  1
  Cr  Cr51  1  0.83228148  0.83076391  0.49871453  1
  Fe  Fe52  1  0.66412749  0.66683767  0.66690682  1
  Ni  Ni53  1  0.83260468  0.83419339  0.83314368  1
" 