6742,Ni33Fe60Cr6_9,-234.245576784031, 202.019768604271,Ni33Fe60Cr6,"# generated using pymatgen
 data_Cr5Fe32Ni17
_symmetry_space_group_name_H-M   'P 1'
_cell_length_a   7.42083378
_cell_length_b   7.42083378
_cell_length_c   10.49464377
_cell_angle_alpha   90.00000000
_cell_angle_beta   90.00000000
_cell_angle_gamma   90.00000000
_symmetry_Int_Tables_number   1
_chemical_formula_structural   Cr5Fe32Ni17
_chemical_formula_sum   'Cr5 Fe32 Ni17'
_cell_volume   577.92716548
_cell_formula_units_Z   1
loop_
 _symmetry_equiv_pos_site_id
 _symmetry_equiv_pos_as_xyz
  1  'x, y, z'
loop_
 _atom_site_type_symbol
 _atom_site_label
 _atom_site_symmetry_multiplicity
 _atom_site_fract_x
 _atom_site_fract_y
 _atom_site_fract_z
 _atom_site_occupancy
  Fe  Fe0  1  0.00320397  0.00494652  1.00218642  1
  Ni  Ni1  1  0.17241278  0.17085371  0.16952066  1
  Fe  Fe2  1  0.00321529  0.00774680  0.33517015  1
  Ni  Ni3  1  0.00510246  0.33531222  0.00384697  1
  Fe  Fe4  1  0.17057898  0.50170470  0.17004229  1
  Fe  Fe5  1  0.00393501  0.33712776  0.33540989  1
  Fe  Fe6  1  1.00015633  0.66788796  1.00233866  1
  Cr  Cr7  1  0.16986197  0.83765581  0.16976088  1
  Fe  Fe8  1  1.00294728  0.66420569  0.33523577  1
  Fe  Fe9  1  0.33655862  0.00485545  1.00255125  1
  Ni  Ni10  1  0.50066023  0.17176088  0.16946555  1
  Fe  Fe11  1  0.33936926  0.00702570  0.33614298  1
  Fe  Fe12  1  0.33706579  0.33536971  0.00362161  1
  Fe  Fe13  1  0.50296268  0.50314803  0.17068141  1
  Ni  Ni14  1  0.33576529  0.33702585  0.33629731  1
  Fe  Fe15  1  0.33801327  0.66893161  0.00324547  1
  Ni  Ni16  1  0.50294637  0.83634595  0.17206172  1
  Ni  Ni17  1  0.33768605  0.66814298  0.33744880  1
  Cr  Cr18  1  0.67017172  1.00271118  0.00360130  1
  Fe  Fe19  1  0.83702525  0.16993044  0.16981415  1
  Fe  Fe20  1  0.66677335  0.00513559  0.33452629  1
  Fe  Fe21  1  0.67119049  0.33814510  0.00335650  1
  Ni  Ni22  1  0.83545090  0.50361368  0.16923842  1
  Ni  Ni23  1  0.66986262  0.33537198  0.33616529  1
  Ni  Ni24  1  0.66845395  0.66995496  0.00411488  1
  Ni  Ni25  1  0.83618727  0.83209823  0.17074438  1
  Fe  Fe26  1  0.66798635  0.66622109  0.33465646  1
  Ni  Ni27  1  0.17234313  0.17068054  0.50332970  1
  Fe  Fe28  1  0.00337608  0.00544960  0.67122606  1
  Ni  Ni29  1  0.17141689  0.16876326  0.83677877  1
  Fe  Fe30  1  0.16986543  0.50031351  0.50271376  1
  Fe  Fe31  1  1.00304025  0.33683112  0.67094044  1
  Fe  Fe32  1  0.16930540  0.49984593  0.83706604  1
  Cr  Cr33  1  0.17064331  0.83741640  0.50203558  1
  Fe  Fe34  1  0.00440884  0.66684880  0.67144438  1
  Fe  Fe35  1  0.16918268  0.83723427  0.83623359  1
  Ni  Ni36  1  0.50200514  0.17093905  0.50379021  1
  Fe  Fe37  1  0.33794975  0.00470871  0.67085047  1
  Ni  Ni38  1  0.50179803  0.17130916  0.83595761  1
  Fe  Fe39  1  0.50216125  0.50082852  0.50133280  1
  Fe  Fe40  1  0.33650908  0.33571557  0.66922655  1
  Fe  Fe41  1  0.50307550  0.50003740  0.83790555  1
  Fe  Fe42  1  0.50254155  0.83808030  0.50118196  1
  Fe  Fe43  1  0.33511685  0.66857368  0.67024885  1
  Fe  Fe44  1  0.50177278  0.83709218  0.83774772  1
  Fe  Fe45  1  0.83683516  0.17163430  0.50369102  1
  Fe  Fe46  1  0.66840243  0.00645069  0.67104289  1
  Ni  Ni47  1  0.83639787  0.17353144  0.83527791  1
  Ni  Ni48  1  0.83610935  0.50165134  0.50270063  1
  Fe  Fe49  1  0.67009847  0.33508507  0.66904975  1
  Ni  Ni50  1  0.83586791  0.50399149  0.83756250  1
  Cr  Cr51  1  0.83631445  0.83414128  0.50066419  1
  Cr  Cr52  1  0.66789145  0.66972115  0.66989872  1
  Fe  Fe53  1  0.83817207  0.83804035  0.83700157  1
" 