4319,Ni33Fe27Cr39_16,-223.299965748863, 180.381247685079,Ni33Fe27Cr39,"# generated using pymatgen
 data_Cr23Fe14Ni17
_symmetry_space_group_name_H-M   'P 1'
_cell_length_a   7.48971723
_cell_length_b   7.48971723
_cell_length_c   10.59205968
_cell_angle_alpha   90.00000000
_cell_angle_beta   90.00000000
_cell_angle_gamma   90.00000000
_symmetry_Int_Tables_number   1
_chemical_formula_structural   Cr23Fe14Ni17
_chemical_formula_sum   'Cr23 Fe14 Ni17'
_cell_volume   594.17074128
_cell_formula_units_Z   1
loop_
 _symmetry_equiv_pos_site_id
 _symmetry_equiv_pos_as_xyz
  1  'x, y, z'
loop_
 _atom_site_type_symbol
 _atom_site_label
 _atom_site_symmetry_multiplicity
 _atom_site_fract_x
 _atom_site_fract_y
 _atom_site_fract_z
 _atom_site_occupancy
  Ni  Ni0  1  -0.00039105  0.99817589  -0.00138955  1
  Fe  Fe1  1  0.16295364  0.16376131  0.16222005  1
  Cr  Cr2  1  0.99710468  0.99759413  0.33075843  1
  Fe  Fe3  1  -0.00064858  0.33117475  0.99691764  1
  Ni  Ni4  1  0.16476009  0.49542681  0.16469625  1
  Fe  Fe5  1  0.99801094  0.33027272  0.33237058  1
  Cr  Cr6  1  0.99790918  0.66791199  0.99742975  1
  Ni  Ni7  1  0.16616305  0.83155697  0.16366696  1
  Cr  Cr8  1  0.99795914  0.66686998  0.32946521  1
  Ni  Ni9  1  0.32856717  0.00123547  0.00038449  1
  Fe  Fe10  1  0.49985323  0.16413625  0.16244335  1
  Cr  Cr11  1  0.33325871  0.00154322  0.33121778  1
  Cr  Cr12  1  0.33379312  0.33044703  -0.00149980  1
  Fe  Fe13  1  0.49970039  0.49810592  0.16394701  1
  Cr  Cr14  1  0.33398893  0.32988063  0.32952221  1
  Cr  Cr15  1  0.33024378  0.66236647  -0.00113045  1
  Cr  Cr16  1  0.50005814  0.83474683  0.16368415  1
  Cr  Cr17  1  0.33196381  0.66358775  0.33024025  1
  Ni  Ni18  1  0.66729338  0.00046130  -0.00105385  1
  Cr  Cr19  1  0.83015803  0.16545705  0.16318264  1
  Ni  Ni20  1  0.66550098  0.00091914  0.33371461  1
  Ni  Ni21  1  0.66403261  0.33184161  0.99829724  1
  Cr  Cr22  1  0.83336506  0.49475870  0.16610201  1
  Cr  Cr23  1  0.66197351  0.32910217  0.33441731  1
  Cr  Cr24  1  0.66802385  0.66251401  0.99530020  1
  Ni  Ni25  1  0.83080834  0.83470426  0.16279311  1
  Cr  Cr26  1  0.66610733  0.66511624  0.33344604  1
  Cr  Cr27  1  0.16193566  0.16722901  0.50146366  1
  Ni  Ni28  1  0.99707208  0.00018777  0.66635672  1
  Ni  Ni29  1  0.16445106  0.16629119  0.83127395  1
  Cr  Cr30  1  0.16401887  0.49674120  0.49981324  1
  Fe  Fe31  1  -0.00126028  0.33058950  0.66710889  1
  Fe  Fe32  1  0.16520588  0.49518864  0.82978361  1
  Cr  Cr33  1  0.17098029  0.83110944  0.50046074  1
  Cr  Cr34  1  0.99562734  0.66753046  0.66819994  1
  Cr  Cr35  1  0.16989355  0.83532996  0.82967031  1
  Fe  Fe36  1  0.49946037  0.16271979  0.50221723  1
  Ni  Ni37  1  0.33070393  0.00072005  0.66382974  1
  Cr  Cr38  1  0.49840720  0.16221152  0.83220015  1
  Fe  Fe39  1  0.49893541  0.49884051  0.50206703  1
  Ni  Ni40  1  0.33536081  0.33118551  0.66654279  1
  Fe  Fe41  1  0.49977566  0.49558936  0.82896733  1
  Ni  Ni42  1  0.49985336  0.83210204  0.50105749  1
  Ni  Ni43  1  0.33400711  0.66214544  0.66492220  1
  Cr  Cr44  1  0.49830345  0.83209663  0.83049474  1
  Ni  Ni45  1  0.82878202  0.16887936  0.50077585  1
  Fe  Fe46  1  0.66366310  0.00096306  0.66384152  1
  Cr  Cr47  1  0.83232532  0.16730557  0.83285508  1
  Fe  Fe48  1  0.83070891  0.49681687  0.50137380  1
  Ni  Ni49  1  0.66447958  0.33338370  0.66358672  1
  Ni  Ni50  1  0.83059428  0.49520013  0.83006644  1
  Cr  Cr51  1  0.82825439  0.83490179  0.50003845  1
  Fe  Fe52  1  0.66232283  0.66365941  0.66595035  1
  Fe  Fe53  1  0.83190371  0.83569083  0.83221574  1
" 