1246,Ni33Fe49Cr17_12,-231.336531801466, 194.571656337044,Ni33Fe49Cr17,"# generated using pymatgen
 data_Cr11Fe26Ni17
_symmetry_space_group_name_H-M   'P 1'
_cell_length_a   7.44538720
_cell_length_b   7.44538720
_cell_length_c   10.52936756
_cell_angle_alpha   90.00000000
_cell_angle_beta   90.00000000
_cell_angle_gamma   90.00000000
_symmetry_Int_Tables_number   1
_chemical_formula_structural   Cr11Fe26Ni17
_chemical_formula_sum   'Cr11 Fe26 Ni17'
_cell_volume   583.68275665
_cell_formula_units_Z   1
loop_
 _symmetry_equiv_pos_site_id
 _symmetry_equiv_pos_as_xyz
  1  'x, y, z'
loop_
 _atom_site_type_symbol
 _atom_site_label
 _atom_site_symmetry_multiplicity
 _atom_site_fract_x
 _atom_site_fract_y
 _atom_site_fract_z
 _atom_site_occupancy
  Ni  Ni0  1  1.00069139  0.00331471  1.00062261  1
  Cr  Cr1  1  0.16887735  0.16772123  0.16727293  1
  Ni  Ni2  1  1.00063764  1.00126853  0.33638816  1
  Ni  Ni3  1  1.00079533  0.33495191  0.99987634  1
  Ni  Ni4  1  0.16775818  0.50203832  0.16810406  1
  Cr  Cr5  1  1.00037001  0.33413643  0.33417065  1
  Ni  Ni6  1  0.00292005  0.66609623  0.00253351  1
  Ni  Ni7  1  0.16705400  0.83374816  0.16977693  1
  Fe  Fe8  1  0.00285831  0.67043328  0.33376451  1
  Fe  Fe9  1  0.33339336  0.00215610  0.99946540  1
  Fe  Fe10  1  0.50298409  0.16922650  0.16824177  1
  Fe  Fe11  1  0.33452435  1.00069297  0.33587682  1
  Fe  Fe12  1  0.33394440  0.33366273  1.00066802  1
  Fe  Fe13  1  0.50060043  0.49959703  0.16903317  1
  Fe  Fe14  1  0.33758966  0.33504738  0.33508348  1
  Cr  Cr15  1  0.33338890  0.66742008  1.00062809  1
  Cr  Cr16  1  0.50124355  0.83657600  0.16813453  1
  Ni  Ni17  1  0.33392172  0.66732333  0.33490453  1
  Ni  Ni18  1  0.66817175  0.00415192  1.00117485  1
  Fe  Fe19  1  0.83381544  0.16834773  0.16681357  1
  Ni  Ni20  1  0.66881214  0.00415515  0.33615317  1
  Fe  Fe21  1  0.66999657  0.33442246  0.00153993  1
  Ni  Ni22  1  0.83519976  0.50029134  0.16694515  1
  Fe  Fe23  1  0.66674986  0.33346074  0.33483515  1
  Fe  Fe24  1  0.67017605  0.66667662  1.00038970  1
  Cr  Cr25  1  0.83679789  0.83523722  0.16627645  1
  Cr  Cr26  1  0.66650921  0.66780373  0.33599713  1
  Fe  Fe27  1  0.16788301  0.16542793  0.50162897  1
  Fe  Fe28  1  0.00332126  0.00168556  0.66783563  1
  Ni  Ni29  1  0.16746765  0.16786099  0.83458674  1
  Cr  Cr30  1  0.16846029  0.50148519  0.50003858  1
  Fe  Fe31  1  0.99908384  0.33409810  0.66958833  1
  Fe  Fe32  1  0.16559135  0.50087491  0.83619789  1
  Fe  Fe33  1  0.16736977  0.83622602  0.50022073  1
  Fe  Fe34  1  0.99962312  0.66858259  0.66847313  1
  Ni  Ni35  1  0.16887256  0.83710358  0.83457153  1
  Fe  Fe36  1  0.50198769  0.16818470  0.49978781  1
  Fe  Fe37  1  0.33367666  1.00074868  0.66902204  1
  Fe  Fe38  1  0.50132063  0.16662852  0.83633683  1
  Ni  Ni39  1  0.50342776  0.50035350  0.50012337  1
  Cr  Cr40  1  0.33416568  0.33400736  0.66958289  1
  Fe  Fe41  1  0.50325650  0.50133199  0.83442098  1
  Fe  Fe42  1  0.50155926  0.83441596  0.50093436  1
  Cr  Cr43  1  0.33654172  0.66986140  0.66936823  1
  Ni  Ni44  1  0.50097518  0.83503930  0.83453419  1
  Fe  Fe45  1  0.83449273  0.16764749  0.50133890  1
  Cr  Cr46  1  0.66813702  1.00100588  0.66728293  1
  Ni  Ni47  1  0.83628908  0.17048478  0.83584057  1
  Fe  Fe48  1  0.83268407  0.50227777  0.50271318  1
  Fe  Fe49  1  0.66919127  0.33691119  0.66798717  1
  Fe  Fe50  1  0.83551836  0.50039604  0.83542713  1
  Ni  Ni51  1  0.83542430  0.83539194  0.50124628  1
  Ni  Ni52  1  0.66789974  0.66673322  0.66788099  1
  Cr  Cr53  1  0.83454753  0.83382699  0.83690945  1
" 