6542,Ni33Fe27Cr39_12,-223.547112800669, 178.505240802767,Ni33Fe27Cr39,"# generated using pymatgen
 data_Cr23Fe14Ni17
_symmetry_space_group_name_H-M   'P 1'
_cell_length_a   7.48935231
_cell_length_b   7.48935231
_cell_length_c   10.59154361
_cell_angle_alpha   90.00000000
_cell_angle_beta   90.00000000
_cell_angle_gamma   90.00000000
_symmetry_Int_Tables_number   1
_chemical_formula_structural   Cr23Fe14Ni17
_chemical_formula_sum   'Cr23 Fe14 Ni17'
_cell_volume   594.08389723
_cell_formula_units_Z   1
loop_
 _symmetry_equiv_pos_site_id
 _symmetry_equiv_pos_as_xyz
  1  'x, y, z'
loop_
 _atom_site_type_symbol
 _atom_site_label
 _atom_site_symmetry_multiplicity
 _atom_site_fract_x
 _atom_site_fract_y
 _atom_site_fract_z
 _atom_site_occupancy
  Cr  Cr0  1  0.99643742  0.99751318  -0.00066779  1
  Cr  Cr1  1  0.16661834  0.16418805  0.16717427  1
  Cr  Cr2  1  -0.00003592  -0.00148573  0.33471659  1
  Cr  Cr3  1  0.99802668  0.33231252  -0.00082752  1
  Fe  Fe4  1  0.16591165  0.49828951  0.16878885  1
  Ni  Ni5  1  -0.00065954  0.33438548  0.33387552  1
  Fe  Fe6  1  -0.00056778  0.66420863  -0.00103465  1
  Ni  Ni7  1  0.16511239  0.82743988  0.16572660  1
  Ni  Ni8  1  0.00111601  0.66356408  0.33087241  1
  Cr  Cr9  1  0.33483908  -0.00093215  -0.00117969  1
  Ni  Ni10  1  0.50194689  0.16968735  0.16647116  1
  Cr  Cr11  1  0.33271397  0.99767008  0.33342951  1
  Cr  Cr12  1  0.33504671  0.33363528  0.00091965  1
  Ni  Ni13  1  0.49958990  0.49692825  0.16773611  1
  Fe  Fe14  1  0.33093958  0.33489123  0.33231060  1
  Cr  Cr15  1  0.33056333  0.66265070  0.00056807  1
  Cr  Cr16  1  0.49767345  0.83094591  0.16886672  1
  Fe  Fe17  1  0.33040677  0.66210313  0.33319205  1
  Cr  Cr18  1  0.66621513  0.00190124  0.00038350  1
  Ni  Ni19  1  0.82888103  0.16884600  0.16851208  1
  Fe  Fe20  1  0.66616750  -0.00074901  0.33170136  1
  Ni  Ni21  1  0.66436346  0.33156446  0.99818491  1
  Cr  Cr22  1  0.83078432  0.49812188  0.16672570  1
  Ni  Ni23  1  0.66306144  0.33474274  0.32954231  1
  Cr  Cr24  1  0.66414698  0.66412659  0.99424347  1
  Cr  Cr25  1  0.83265409  0.82894643  0.16750286  1
  Ni  Ni26  1  0.66208602  0.66300434  0.33534540  1
  Ni  Ni27  1  0.16580112  0.16675949  0.50101290  1
  Fe  Fe28  1  0.99847837  0.00113348  0.66283924  1
  Cr  Cr29  1  0.16523619  0.16689120  0.82686702  1
  Ni  Ni30  1  0.16478106  0.49909320  0.49613883  1
  Ni  Ni31  1  -0.00123085  0.33294264  0.66378118  1
  Ni  Ni32  1  0.16585416  0.50028205  0.83286590  1
  Ni  Ni33  1  0.16862812  0.82981037  0.49951884  1
  Cr  Cr34  1  0.00078791  0.66440741  0.66439150  1
  Cr  Cr35  1  0.16814901  0.83250111  0.83151086  1
  Cr  Cr36  1  0.49904217  0.16620497  0.49542742  1
  Fe  Fe37  1  0.33177795  0.99841252  0.66158623  1
  Fe  Fe38  1  0.50002301  0.16780958  0.83103920  1
  Fe  Fe39  1  0.49664970  0.49929279  0.49649529  1
  Cr  Cr40  1  0.33065067  0.33576602  0.66285412  1
  Fe  Fe41  1  0.49710247  0.49656645  0.83095602  1
  Ni  Ni42  1  0.49518459  0.82759972  0.49894772  1
  Fe  Fe43  1  0.33317173  0.66394751  0.66397270  1
  Fe  Fe44  1  0.49945128  0.83104357  0.82871104  1
  Cr  Cr45  1  0.83281819  0.16985677  0.49766008  1
  Cr  Cr46  1  0.66472160  0.99642588  0.66448970  1
  Ni  Ni47  1  0.82870564  0.16696518  0.82952593  1
  Cr  Cr48  1  0.82960696  0.49667123  0.49762696  1
  Ni  Ni49  1  0.66346160  0.33167820  0.66699028  1
  Cr  Cr50  1  0.83142516  0.49680273  0.83022417  1
  Cr  Cr51  1  0.83020046  0.82774803  0.49674401  1
  Fe  Fe52  1  0.66158510  0.66124842  0.66426212  1
  Fe  Fe53  1  0.83348666  0.83322837  0.83006959  1
" 