31,Ni33Fe7Cr59_14,-215.262633275526, 147.456233339837,Ni33Fe7Cr59,"# generated using pymatgen
 data_Cr11FeNi6
_symmetry_space_group_name_H-M   'P 1'
_cell_length_a   7.53922750
_cell_length_b   7.53922750
_cell_length_c   10.66207777
_cell_angle_alpha   90.00000000
_cell_angle_beta   90.00000000
_cell_angle_gamma   90.00000000
_symmetry_Int_Tables_number   1
_chemical_formula_structural   Cr11FeNi6
_chemical_formula_sum   'Cr33 Fe3 Ni18'
_cell_volume   606.03198079
_cell_formula_units_Z   3
loop_
 _symmetry_equiv_pos_site_id
 _symmetry_equiv_pos_as_xyz
  1  'x, y, z'
loop_
 _atom_site_type_symbol
 _atom_site_label
 _atom_site_symmetry_multiplicity
 _atom_site_fract_x
 _atom_site_fract_y
 _atom_site_fract_z
 _atom_site_occupancy
  Ni  Ni0  1  -0.00404130  0.99501461  -0.00412889  1
  Ni  Ni1  1  0.16319353  0.16084106  0.15988806  1
  Cr  Cr2  1  0.99493432  0.99252722  0.33049853  1
  Ni  Ni3  1  -0.00249690  0.32695821  0.99371160  1
  Cr  Cr4  1  0.16142634  0.49586835  0.16290509  1
  Cr  Cr5  1  -0.00239888  0.32733984  0.32733619  1
  Fe  Fe6  1  0.99503588  0.66257245  0.99387365  1
  Cr  Cr7  1  0.15845133  0.82974863  0.15804925  1
  Ni  Ni8  1  0.99465895  0.66602467  0.32790128  1
  Fe  Fe9  1  0.32881852  -0.00361048  0.99419560  1
  Ni  Ni10  1  0.49422601  0.15828963  0.16132607  1
  Cr  Cr11  1  0.32772313  -0.00356394  0.32630671  1
  Cr  Cr12  1  0.32696823  0.32657721  -0.00311772  1
  Cr  Cr13  1  0.49374593  0.49476088  0.16568991  1
  Ni  Ni14  1  0.32797616  0.32591089  0.32538516  1
  Cr  Cr15  1  0.32754998  0.66488508  0.99098799  1
  Cr  Cr16  1  0.49746234  0.83133995  0.15971793  1
  Cr  Cr17  1  0.32626861  0.66565990  0.33081000  1
  Ni  Ni18  1  0.66214265  0.99427411  -0.00422806  1
  Cr  Cr19  1  0.82889984  0.15776317  0.15996524  1
  Ni  Ni20  1  0.66200278  0.99249314  0.32813398  1
  Cr  Cr21  1  0.66264281  0.32741761  0.99292087  1
  Cr  Cr22  1  0.83102098  0.49907802  0.15984311  1
  Cr  Cr23  1  0.66171833  0.32540687  0.32684454  1
  Cr  Cr24  1  0.66251948  0.66449103  0.99415465  1
  Ni  Ni25  1  0.82992682  0.83147634  0.16122330  1
  Cr  Cr26  1  0.66517262  0.66668206  0.32865371  1
  Cr  Cr27  1  0.16191605  0.15926714  0.49598447  1
  Ni  Ni28  1  -0.00359053  0.98999972  0.66054867  1
  Cr  Cr29  1  0.16015950  0.15812848  0.82924601  1
  Cr  Cr30  1  0.16368655  0.49713863  0.49360789  1
  Cr  Cr31  1  0.99519282  0.32782449  0.66447675  1
  Ni  Ni32  1  0.15982471  0.49830133  0.82949052  1
  Ni  Ni33  1  0.15943185  0.82715910  0.49725788  1
  Cr  Cr34  1  -0.00346495  0.66338820  0.66331417  1
  Ni  Ni35  1  0.16230536  0.82750146  0.82943054  1
  Cr  Cr36  1  0.49516260  0.16212287  0.49410850  1
  Cr  Cr37  1  0.32644954  0.99106003  0.66429753  1
  Ni  Ni38  1  0.49485620  0.15690414  0.83163647  1
  Cr  Cr39  1  0.49318571  0.49634781  0.49404145  1
  Cr  Cr40  1  0.32737580  0.32881546  0.66426503  1
  Cr  Cr41  1  0.49367752  0.49732086  0.82616284  1
  Fe  Fe42  1  0.49422145  0.82962352  0.49572555  1
  Ni  Ni43  1  0.32644281  0.66549578  0.66293540  1
  Ni  Ni44  1  0.49285695  0.83189196  0.82839950  1
  Cr  Cr45  1  0.82844911  0.15767072  0.49853725  1
  Cr  Cr46  1  0.66143523  0.99307419  0.66101404  1
  Cr  Cr47  1  0.82892312  0.15976728  0.82772567  1
  Cr  Cr48  1  0.82882199  0.49658501  0.49485998  1
  Cr  Cr49  1  0.66282253  0.32918152  0.66692961  1
  Ni  Ni50  1  0.83333708  0.49648574  0.83131169  1
  Ni  Ni51  1  0.83076148  0.82918747  0.49335241  1
  Cr  Cr52  1  0.66131578  0.66419408  0.66245433  1
  Cr  Cr53  1  0.83039968  0.83084095  0.83154251  1
" 