434,Ni33Fe7Cr59_19,-214.87473515369, 144.322023322562,Ni33Fe7Cr59,"# generated using pymatgen
 data_Cr11FeNi6
_symmetry_space_group_name_H-M   'P 1'
_cell_length_a   7.54414798
_cell_length_b   7.54414798
_cell_length_c   10.66903640
_cell_angle_alpha   90.00000000
_cell_angle_beta   90.00000000
_cell_angle_gamma   90.00000000
_symmetry_Int_Tables_number   1
_chemical_formula_structural   Cr11FeNi6
_chemical_formula_sum   'Cr33 Fe3 Ni18'
_cell_volume   607.21933845
_cell_formula_units_Z   3
loop_
 _symmetry_equiv_pos_site_id
 _symmetry_equiv_pos_as_xyz
  1  'x, y, z'
loop_
 _atom_site_type_symbol
 _atom_site_label
 _atom_site_symmetry_multiplicity
 _atom_site_fract_x
 _atom_site_fract_y
 _atom_site_fract_z
 _atom_site_occupancy
  Ni  Ni0  1  -0.00250213  0.99222438  -0.00406708  1
  Cr  Cr1  1  0.16170223  0.16019499  0.16091355  1
  Ni  Ni2  1  -0.00005569  -0.00372139  0.32906731  1
  Cr  Cr3  1  -0.00428902  0.32814135  0.99423632  1
  Cr  Cr4  1  0.16052992  0.49504892  0.16016092  1
  Ni  Ni5  1  0.99406888  0.32670851  0.33107401  1
  Fe  Fe6  1  0.99344761  0.66251569  0.99481800  1
  Ni  Ni7  1  0.16045638  0.83174364  0.16151712  1
  Cr  Cr8  1  -0.00271893  0.66049787  0.32890396  1
  Fe  Fe9  1  0.32604428  -0.00449566  -0.00372670  1
  Cr  Cr10  1  0.49276323  0.16221982  0.16215986  1
  Ni  Ni11  1  0.32257382  0.99421790  0.32744311  1
  Ni  Ni12  1  0.32876937  0.32885014  0.99335149  1
  Cr  Cr13  1  0.49553135  0.49393898  0.16145189  1
  Cr  Cr14  1  0.32678275  0.32817470  0.32968242  1
  Cr  Cr15  1  0.32855944  0.66109816  -0.00444142  1
  Cr  Cr16  1  0.49301273  0.82866038  0.16145967  1
  Cr  Cr17  1  0.32645035  0.66320845  0.33108274  1
  Cr  Cr18  1  0.66199877  0.99364005  0.99449318  1
  Cr  Cr19  1  0.83008923  0.16201593  0.16554455  1
  Cr  Cr20  1  0.66078268  -0.00361929  0.32750601  1
  Cr  Cr21  1  0.66055686  0.33035497  0.99305886  1
  Cr  Cr22  1  0.82851513  0.49509216  0.16245719  1
  Ni  Ni23  1  0.66385437  0.33011832  0.33030609  1
  Ni  Ni24  1  0.66196597  0.66014664  0.99264354  1
  Cr  Cr25  1  0.83089846  0.82745797  0.15946492  1
  Cr  Cr26  1  0.66096123  0.65877289  0.32923027  1
  Ni  Ni27  1  0.16057555  0.16155493  0.49376136  1
  Ni  Ni28  1  -0.00251686  -0.00484400  0.65966184  1
  Cr  Cr29  1  0.16254049  0.16164694  0.82896412  1
  Ni  Ni30  1  0.16269469  0.49283674  0.49594906  1
  Cr  Cr31  1  0.99487400  0.32813448  0.66000227  1
  Cr  Cr32  1  0.16399176  0.49436129  0.82863539  1
  Fe  Fe33  1  0.16142309  0.82918662  0.49452879  1
  Cr  Cr34  1  -0.00317021  0.66079390  0.66060472  1
  Cr  Cr35  1  0.16014385  0.82859530  0.82816782  1
  Cr  Cr36  1  0.49337670  0.16445795  0.49454252  1
  Cr  Cr37  1  0.32544565  0.99475015  0.66010469  1
  Cr  Cr38  1  0.49234000  0.16539215  0.82780627  1
  Ni  Ni39  1  0.49398197  0.49334861  0.49745364  1
  Ni  Ni40  1  0.32996773  0.33238705  0.66042105  1
  Ni  Ni41  1  0.49576258  0.49406631  0.82688873  1
  Cr  Cr42  1  0.49261212  0.82626800  0.49502818  1
  Ni  Ni43  1  0.32847687  0.65711117  0.65945014  1
  Cr  Cr44  1  0.49439874  0.82527475  0.82823428  1
  Cr  Cr45  1  0.83069086  0.16297933  0.49366338  1
  Cr  Cr46  1  0.66336503  -0.00314231  0.66273904  1
  Cr  Cr47  1  0.82971200  0.16134469  0.82568737  1
  Ni  Ni48  1  0.82797320  0.49232411  0.49356472  1
  Ni  Ni49  1  0.65938625  0.33279152  0.66180179  1
  Ni  Ni50  1  0.82466243  0.49613001  0.82929137  1
  Cr  Cr51  1  0.83057243  0.82867197  0.49545952  1
  Cr  Cr52  1  0.65999496  0.65764436  0.66221806  1
  Cr  Cr53  1  0.83003776  0.82679043  0.82964103  1
" 