1231,Ni33Fe7Cr59_4,-214.96060015211, 146.024047788443,Ni33Fe7Cr59,"# generated using pymatgen
 data_Cr11FeNi6
_symmetry_space_group_name_H-M   'P 1'
_cell_length_a   7.54338324
_cell_length_b   7.54338324
_cell_length_c   10.66795489
_cell_angle_alpha   90.00000000
_cell_angle_beta   90.00000000
_cell_angle_gamma   90.00000000
_symmetry_Int_Tables_number   1
_chemical_formula_structural   Cr11FeNi6
_chemical_formula_sum   'Cr33 Fe3 Ni18'
_cell_volume   607.03469753
_cell_formula_units_Z   3
loop_
 _symmetry_equiv_pos_site_id
 _symmetry_equiv_pos_as_xyz
  1  'x, y, z'
loop_
 _atom_site_type_symbol
 _atom_site_label
 _atom_site_symmetry_multiplicity
 _atom_site_fract_x
 _atom_site_fract_y
 _atom_site_fract_z
 _atom_site_occupancy
  Ni  Ni0  1  -0.00407523  -0.00482958  0.99352540  1
  Cr  Cr1  1  0.16046994  0.15976653  0.16105435  1
  Cr  Cr2  1  0.99463603  -0.00309437  0.32696326  1
  Cr  Cr3  1  0.99239285  0.32898309  -0.00484263  1
  Cr  Cr4  1  0.16312234  0.49745833  0.16447568  1
  Cr  Cr5  1  0.99474425  0.32834057  0.32814393  1
  Cr  Cr6  1  -0.00354492  0.66134233  0.99187752  1
  Cr  Cr7  1  0.16170435  0.82811648  0.16060924  1
  Ni  Ni8  1  0.99428318  0.66088444  0.32955318  1
  Fe  Fe9  1  0.32778905  0.99405185  -0.00436409  1
  Ni  Ni10  1  0.49583605  0.16014249  0.15909768  1
  Cr  Cr11  1  0.33030203  -0.00443357  0.33025376  1
  Cr  Cr12  1  0.32655781  0.32915135  -0.00442054  1
  Cr  Cr13  1  0.49506523  0.49546278  0.16169191  1
  Cr  Cr14  1  0.32768400  0.32543556  0.33109476  1
  Fe  Fe15  1  0.32782822  0.66415549  -0.00491498  1
  Ni  Ni16  1  0.49293581  0.82846262  0.16210076  1
  Ni  Ni17  1  0.32998496  0.66433754  0.32690896  1
  Cr  Cr18  1  0.66317953  -0.00443122  -0.00309538  1
  Ni  Ni19  1  0.82607494  0.16150369  0.15755448  1
  Cr  Cr20  1  0.65928814  0.99417743  0.32807027  1
  Ni  Ni21  1  0.66227916  0.32623292  -0.00505302  1
  Cr  Cr22  1  0.82658398  0.49531014  0.16472774  1
  Cr  Cr23  1  0.66224210  0.32532915  0.32724313  1
  Cr  Cr24  1  0.66339833  0.66144013  0.99434632  1
  Cr  Cr25  1  0.82901690  0.82862028  0.16482893  1
  Ni  Ni26  1  0.66020701  0.66286152  0.32945894  1
  Ni  Ni27  1  0.16020311  0.16126277  0.49751700  1
  Ni  Ni28  1  -0.00315846  -0.00463651  0.66358733  1
  Cr  Cr29  1  0.16008560  0.15824541  0.82645954  1
  Cr  Cr30  1  0.15959567  0.49576304  0.49367723  1
  Ni  Ni31  1  0.99416852  0.32980517  0.66273345  1
  Fe  Fe32  1  0.15855034  0.49451710  0.82674100  1
  Cr  Cr33  1  0.15920448  0.82861540  0.49460875  1
  Ni  Ni34  1  -0.00460399  0.65960886  0.66381904  1
  Ni  Ni35  1  0.16002316  0.82780807  0.82957749  1
  Ni  Ni36  1  0.49389989  0.16038723  0.49511289  1
  Cr  Cr37  1  0.32877985  0.99397259  0.65790157  1
  Cr  Cr38  1  0.49689336  0.16273133  0.82915871  1
  Cr  Cr39  1  0.49735259  0.49648358  0.49280441  1
  Cr  Cr40  1  0.32527619  0.32777426  0.65818043  1
  Cr  Cr41  1  0.49549779  0.49382519  0.83087022  1
  Ni  Ni42  1  0.49391419  0.82694731  0.49214889  1
  Cr  Cr43  1  0.32611471  0.66245771  0.66433887  1
  Cr  Cr44  1  0.49204054  0.82888991  0.82963762  1
  Cr  Cr45  1  0.83148038  0.16218191  0.49815562  1
  Cr  Cr46  1  0.66069700  0.99457800  0.65900596  1
  Ni  Ni47  1  0.83186490  0.16474481  0.82925372  1
  Ni  Ni48  1  0.83058151  0.49622308  0.49493157  1
  Cr  Cr49  1  0.66353944  0.32856542  0.66268250  1
  Ni  Ni50  1  0.83023601  0.49236253  0.82646584  1
  Cr  Cr51  1  0.82939108  0.82521182  0.49464993  1
  Cr  Cr52  1  0.66341587  0.66185831  0.66072806  1
  Cr  Cr53  1  0.83174246  0.83180991  0.82513499  1
" 