1038,Ni33Fe49Cr17_15,-230.89806990622, 198.451557090061,Ni33Fe49Cr17,"# generated using pymatgen
 data_Cr11Fe26Ni17
_symmetry_space_group_name_H-M   'P 1'
_cell_length_a   7.44140288
_cell_length_b   7.44140288
_cell_length_c   10.52373288
_cell_angle_alpha   90.00000000
_cell_angle_beta   90.00000000
_cell_angle_gamma   90.00000000
_symmetry_Int_Tables_number   1
_chemical_formula_structural   Cr11Fe26Ni17
_chemical_formula_sum   'Cr11 Fe26 Ni17'
_cell_volume   582.74620210
_cell_formula_units_Z   1
loop_
 _symmetry_equiv_pos_site_id
 _symmetry_equiv_pos_as_xyz
  1  'x, y, z'
loop_
 _atom_site_type_symbol
 _atom_site_label
 _atom_site_symmetry_multiplicity
 _atom_site_fract_x
 _atom_site_fract_y
 _atom_site_fract_z
 _atom_site_occupancy
  Fe  Fe0  1  1.00110843  1.00145578  0.00360548  1
  Fe  Fe1  1  0.16696979  0.16799899  0.16859601  1
  Ni  Ni2  1  0.00269013  0.00469126  0.33477456  1
  Ni  Ni3  1  1.00093317  0.33441897  0.00174151  1
  Ni  Ni4  1  0.16726492  0.50316780  0.16774078  1
  Fe  Fe5  1  0.00411431  0.33420616  0.33415084  1
  Fe  Fe6  1  0.00272387  0.66878771  0.00198184  1
  Ni  Ni7  1  0.16900580  0.83591900  0.16819782  1
  Fe  Fe8  1  0.00370477  0.67117500  0.33439748  1
  Ni  Ni9  1  0.33802598  1.00079116  0.00417661  1
  Fe  Fe10  1  0.50092809  0.16828014  0.16716302  1
  Fe  Fe11  1  0.33377802  1.00158385  0.33421351  1
  Cr  Cr12  1  0.33251495  0.33593568  0.00280683  1
  Fe  Fe13  1  0.50085830  0.50339072  0.16789679  1
  Fe  Fe14  1  0.33470515  0.33331824  0.33508041  1
  Ni  Ni15  1  0.33623965  0.66863778  1.00143975  1
  Fe  Fe16  1  0.50135978  0.83313336  0.16694628  1
  Cr  Cr17  1  0.33569192  0.66740769  0.33547948  1
  Ni  Ni18  1  0.66903294  1.00083087  0.00248323  1
  Fe  Fe19  1  0.83757148  0.16745267  0.16651285  1
  Cr  Cr20  1  0.66811299  1.00007403  0.33346404  1
  Fe  Fe21  1  0.66760671  0.33408022  1.00091163  1
  Cr  Cr22  1  0.83352262  0.50182051  0.16919541  1
  Fe  Fe23  1  0.66592379  0.33375141  0.33449211  1
  Ni  Ni24  1  0.66739543  0.67117671  1.00124213  1
  Fe  Fe25  1  0.83688965  0.83471353  0.16814649  1
  Ni  Ni26  1  0.66578996  0.66899357  0.33481824  1
  Fe  Fe27  1  0.16971689  0.16710795  0.50087407  1
  Fe  Fe28  1  1.00128120  0.00194810  0.66729487  1
  Cr  Cr29  1  0.17072696  0.16523819  0.83593662  1
  Ni  Ni30  1  0.16933810  0.50123260  0.50110960  1
  Cr  Cr31  1  0.00299980  0.33332963  0.66870283  1
  Fe  Fe32  1  0.17012385  0.50053084  0.83576787  1
  Ni  Ni33  1  0.17126284  0.83663949  0.50183946  1
  Cr  Cr34  1  0.00374197  0.66732256  0.66880750  1
  Cr  Cr35  1  0.17120600  0.83458503  0.83520814  1
  Fe  Fe36  1  0.50039506  0.16846337  0.50343328  1
  Fe  Fe37  1  0.33760694  1.00159615  0.66781440  1
  Ni  Ni38  1  0.50351657  0.16801624  0.83474452  1
  Fe  Fe39  1  0.49964080  0.50216373  0.50186121  1
  Ni  Ni40  1  0.33518381  0.33616508  0.66711364  1
  Fe  Fe41  1  0.50079298  0.50100643  0.83536882  1
  Ni  Ni42  1  0.49903974  0.83733364  0.50281131  1
  Ni  Ni43  1  0.33563899  0.66627574  0.66805420  1
  Fe  Fe44  1  0.50206789  0.83819104  0.83610473  1
  Fe  Fe45  1  0.83550799  0.16693769  0.50224846  1
  Ni  Ni46  1  0.66843328  0.00356606  0.66872039  1
  Ni  Ni47  1  0.83230015  0.16889090  0.83589097  1
  Cr  Cr48  1  0.83324375  0.49956507  0.49858188  1
  Fe  Fe49  1  0.66581093  0.33417023  0.66909814  1
  Fe  Fe50  1  0.83401715  0.50042208  0.83797853  1
  Cr  Cr51  1  0.83604664  0.83464759  0.50058985  1
  Cr  Cr52  1  0.66553693  0.67166406  0.66913384  1
  Fe  Fe53  1  0.83340822  0.83884572  0.83630380  1
" 