5034,Ni33Fe60Cr6_13,-234.449496540813, 206.115700219494,Ni33Fe60Cr6,"# generated using pymatgen
 data_Cr5Fe32Ni17
_symmetry_space_group_name_H-M   'P 1'
_cell_length_a   7.41498148
_cell_length_b   7.41498148
_cell_length_c   10.48636738
_cell_angle_alpha   90.00000000
_cell_angle_beta   90.00000000
_cell_angle_gamma   90.00000000
_symmetry_Int_Tables_number   1
_chemical_formula_structural   Cr5Fe32Ni17
_chemical_formula_sum   'Cr5 Fe32 Ni17'
_cell_volume   576.56093119
_cell_formula_units_Z   1
loop_
 _symmetry_equiv_pos_site_id
 _symmetry_equiv_pos_as_xyz
  1  'x, y, z'
loop_
 _atom_site_type_symbol
 _atom_site_label
 _atom_site_symmetry_multiplicity
 _atom_site_fract_x
 _atom_site_fract_y
 _atom_site_fract_z
 _atom_site_occupancy
  Ni  Ni0  1  1.00154140  1.00336868  0.00408779  1
  Cr  Cr1  1  0.17097309  0.16994431  0.16896844  1
  Fe  Fe2  1  1.00329486  0.00373602  0.33625510  1
  Fe  Fe3  1  1.00125842  0.33616363  0.00384727  1
  Fe  Fe4  1  0.16968987  0.50446150  0.17088123  1
  Ni  Ni5  1  1.00279101  0.33724054  0.33693829  1
  Fe  Fe6  1  1.00140515  0.67015245  0.00467829  1
  Fe  Fe7  1  0.16953567  0.83519970  0.16931194  1
  Fe  Fe8  1  0.00382328  0.66947633  0.33567866  1
  Ni  Ni9  1  0.33881088  1.00162742  0.00384739  1
  Fe  Fe10  1  0.50630055  0.16973819  0.16872087  1
  Fe  Fe11  1  0.33797277  1.00273298  0.33635972  1
  Fe  Fe12  1  0.33880680  0.33548610  1.00178285  1
  Fe  Fe13  1  0.50420392  0.50276342  0.17025549  1
  Fe  Fe14  1  0.33754112  0.33740258  0.33836149  1
  Fe  Fe15  1  0.33956195  0.67075450  0.00439919  1
  Ni  Ni16  1  0.50351195  0.83626662  0.17048011  1
  Ni  Ni17  1  0.33669663  0.67062568  0.33610097  1
  Ni  Ni18  1  0.66991563  0.00374480  1.00345409  1
  Ni  Ni19  1  0.83710686  0.17105085  0.17097469  1
  Ni  Ni20  1  0.66980123  0.00439337  0.33509341  1
  Ni  Ni21  1  0.67123878  0.33664737  0.00472121  1
  Ni  Ni22  1  0.83634707  0.50335423  0.17120681  1
  Fe  Fe23  1  0.66997053  0.33705197  0.33632278  1
  Fe  Fe24  1  0.66967533  0.67141627  1.00335696  1
  Fe  Fe25  1  0.83582443  0.83789610  0.17031468  1
  Fe  Fe26  1  0.66862412  0.66943986  0.33644013  1
  Fe  Fe27  1  0.17121773  0.17028336  0.50239199  1
  Fe  Fe28  1  1.00298684  0.00436787  0.67062775  1
  Fe  Fe29  1  0.17300751  0.17074734  0.83889799  1
  Fe  Fe30  1  0.17069916  0.50340015  0.50159508  1
  Cr  Cr31  1  1.00295046  0.33622950  0.67195097  1
  Fe  Fe32  1  0.17275871  0.50231362  0.83892023  1
  Fe  Fe33  1  0.17199972  0.83696124  0.50274688  1
  Fe  Fe34  1  1.00198891  0.66836684  0.67068724  1
  Cr  Cr35  1  0.16928451  0.83821401  0.83734147  1
  Fe  Fe36  1  0.50435646  0.17018284  0.50408840  1
  Fe  Fe37  1  0.33901132  0.00648020  0.67038562  1
  Ni  Ni38  1  0.50382816  0.17136249  0.83679321  1
  Ni  Ni39  1  0.50421187  0.50248911  0.50278230  1
  Ni  Ni40  1  0.33723656  0.33701380  0.67021242  1
  Ni  Ni41  1  0.50516397  0.50211913  0.83780764  1
  Fe  Fe42  1  0.50369169  0.83677740  0.50177119  1
  Cr  Cr43  1  0.33870066  0.66953575  0.67002572  1
  Ni  Ni44  1  0.50440551  0.83749378  0.83591572  1
  Fe  Fe45  1  0.83493333  0.17143336  0.50132933  1
  Fe  Fe46  1  0.66857505  0.00517548  0.67078964  1
  Fe  Fe47  1  0.83396028  0.16925317  0.83874036  1
  Fe  Fe48  1  0.83485988  0.50250084  0.50245120  1
  Ni  Ni49  1  0.67015683  0.33741742  0.66922247  1
  Fe  Fe50  1  0.83360618  0.50437780  0.83832374  1
  Cr  Cr51  1  0.83664171  0.83617309  0.50385359  1
  Ni  Ni52  1  0.66937475  0.66952868  0.67061091  1
  Fe  Fe53  1  0.83375610  0.83725344  0.83648428  1
" 