3118,Ni33Fe49Cr17_4,-230.984496966913, 193.552015191044,Ni33Fe49Cr17,"# generated using pymatgen
 data_Cr11Fe26Ni17
_symmetry_space_group_name_H-M   'P 1'
_cell_length_a   7.44386292
_cell_length_b   7.44386292
_cell_length_c   10.52721190
_cell_angle_alpha   90.00000000
_cell_angle_beta   90.00000000
_cell_angle_gamma   90.00000000
_symmetry_Int_Tables_number   1
_chemical_formula_structural   Cr11Fe26Ni17
_chemical_formula_sum   'Cr11 Fe26 Ni17'
_cell_volume   583.32434132
_cell_formula_units_Z   1
loop_
 _symmetry_equiv_pos_site_id
 _symmetry_equiv_pos_as_xyz
  1  'x, y, z'
loop_
 _atom_site_type_symbol
 _atom_site_label
 _atom_site_symmetry_multiplicity
 _atom_site_fract_x
 _atom_site_fract_y
 _atom_site_fract_z
 _atom_site_occupancy
  Cr  Cr0  1  0.99953409  1.00019560  1.00148830  1
  Fe  Fe1  1  0.16791889  0.16518075  0.16821347  1
  Ni  Ni2  1  0.00185726  0.00291064  0.33461840  1
  Cr  Cr3  1  0.99839061  0.33468046  0.00166961  1
  Cr  Cr4  1  0.16636632  0.50468609  0.16816256  1
  Fe  Fe5  1  0.99866376  0.33381021  0.33494662  1
  Ni  Ni6  1  0.00318243  0.66843617  1.00060501  1
  Fe  Fe7  1  0.16663107  0.83693754  0.16917015  1
  Fe  Fe8  1  0.99876620  0.67133476  0.33551300  1
  Fe  Fe9  1  0.33559146  0.00163217  0.99953115  1
  Ni  Ni10  1  0.50205865  0.16782526  0.16529710  1
  Ni  Ni11  1  0.33173995  0.00278317  0.33469128  1
  Fe  Fe12  1  0.33490866  0.33517186  1.00046165  1
  Fe  Fe13  1  0.50476386  0.50160472  0.16676549  1
  Cr  Cr14  1  0.33617119  0.33423694  0.33449487  1
  Ni  Ni15  1  0.33510834  0.66781700  0.99897278  1
  Cr  Cr16  1  0.50114984  0.83592161  0.16903846  1
  Cr  Cr17  1  0.33691745  0.66900837  0.33897517  1
  Ni  Ni18  1  0.66778099  0.00321366  1.00006541  1
  Ni  Ni19  1  0.83227954  0.16804446  0.17060206  1
  Cr  Cr20  1  0.67064857  1.00074932  0.33598962  1
  Ni  Ni21  1  0.66614258  0.33481770  0.00339717  1
  Fe  Fe22  1  0.83123267  0.50307681  0.16742288  1
  Fe  Fe23  1  0.66989674  0.33540825  0.33318328  1
  Fe  Fe24  1  0.67047584  0.66899988  1.00103444  1
  Ni  Ni25  1  0.83516922  0.83374836  0.16792821  1
  Ni  Ni26  1  0.67063355  0.66466704  0.33611185  1
  Fe  Fe27  1  0.16484463  0.16624375  0.50201584  1
  Ni  Ni28  1  1.00020407  1.00081769  0.66768948  1
  Ni  Ni29  1  0.16991024  0.17039937  0.83360894  1
  Fe  Fe30  1  0.16406962  0.50035295  0.50264057  1
  Fe  Fe31  1  0.00339626  0.33666024  0.66877299  1
  Ni  Ni32  1  0.16739733  0.50204257  0.83342123  1
  Ni  Ni33  1  0.16529223  0.83432290  0.49964780  1
  Ni  Ni34  1  1.00070702  0.66858346  0.66847841  1
  Fe  Fe35  1  0.16647610  0.83319818  0.83404186  1
  Cr  Cr36  1  0.50359164  0.16690749  0.50376281  1
  Cr  Cr37  1  0.33305578  1.00003427  0.66920005  1
  Fe  Fe38  1  0.50083131  0.17057374  0.83639561  1
  Fe  Fe39  1  0.50554809  0.50157043  0.50238645  1
  Fe  Fe40  1  0.33221179  0.33511765  0.66866115  1
  Fe  Fe41  1  0.50266658  0.50075779  0.83629922  1
  Fe  Fe42  1  0.50317892  0.83396368  0.50170756  1
  Cr  Cr43  1  0.33534440  0.66601211  0.66638178  1
  Ni  Ni44  1  0.50380206  0.83500511  0.83513851  1
  Fe  Fe45  1  0.83909668  0.16838574  0.50283005  1
  Fe  Fe46  1  0.66993483  0.99681972  0.66903983  1
  Cr  Cr47  1  0.83377636  0.16873625  0.83147250  1
  Fe  Fe48  1  0.83556724  0.50230462  0.50305032  1
  Fe  Fe49  1  0.66947402  0.33860371  0.66915875  1
  Ni  Ni50  1  0.83577718  0.50377932  0.83544286  1
  Fe  Fe51  1  0.83718617  0.83406826  0.50150761  1
  Fe  Fe52  1  0.67100838  0.66964268  0.66809193  1
  Fe  Fe53  1  0.83576562  0.83229183  0.83490022  1
" 