3149,Ni33Fe7Cr59_15,-214.958455369573, 143.714228506501,Ni33Fe7Cr59,"# generated using pymatgen
 data_Cr11FeNi6
_symmetry_space_group_name_H-M   'P 1'
_cell_length_a   7.54459046
_cell_length_b   7.54459046
_cell_length_c   10.66966215
_cell_angle_alpha   90.00000000
_cell_angle_beta   90.00000000
_cell_angle_gamma   90.00000000
_symmetry_Int_Tables_number   1
_chemical_formula_structural   Cr11FeNi6
_chemical_formula_sum   'Cr33 Fe3 Ni18'
_cell_volume   607.32618795
_cell_formula_units_Z   3
loop_
 _symmetry_equiv_pos_site_id
 _symmetry_equiv_pos_as_xyz
  1  'x, y, z'
loop_
 _atom_site_type_symbol
 _atom_site_label
 _atom_site_symmetry_multiplicity
 _atom_site_fract_x
 _atom_site_fract_y
 _atom_site_fract_z
 _atom_site_occupancy
  Ni  Ni0  1  -0.00439609  0.99478027  -0.00402264  1
  Cr  Cr1  1  0.16091472  0.15917323  0.15912124  1
  Cr  Cr2  1  0.99329523  0.99411476  0.32970796  1
  Ni  Ni3  1  -0.00428205  0.32661738  -0.00280932  1
  Cr  Cr4  1  0.16058062  0.49473633  0.15880973  1
  Cr  Cr5  1  0.99264166  0.32767224  0.32490294  1
  Cr  Cr6  1  0.99370565  0.66158542  -0.00392245  1
  Cr  Cr7  1  0.16274988  0.83062370  0.16082274  1
  Cr  Cr8  1  0.99392968  0.66274298  0.32824010  1
  Ni  Ni9  1  0.32574868  0.99284063  -0.00464966  1
  Cr  Cr10  1  0.49298091  0.15983571  0.16298493  1
  Ni  Ni11  1  0.33070691  0.99191808  0.32824535  1
  Ni  Ni12  1  0.32518310  0.32941173  0.99331896  1
  Cr  Cr13  1  0.49413381  0.49473392  0.16237079  1
  Cr  Cr14  1  0.32735032  0.32670330  0.32997865  1
  Ni  Ni15  1  0.32574902  0.66254623  0.99320424  1
  Fe  Fe16  1  0.49445499  0.83077910  0.16152910  1
  Cr  Cr17  1  0.32684191  0.66349823  0.32863152  1
  Cr  Cr18  1  0.66294542  0.99339429  -0.00332829  1
  Ni  Ni19  1  0.82744240  0.16015554  0.16114549  1
  Ni  Ni20  1  0.66317868  -0.00334675  0.32669711  1
  Cr  Cr21  1  0.66315292  0.32783921  -0.00474705  1
  Ni  Ni22  1  0.82712578  0.49296343  0.16149009  1
  Ni  Ni23  1  0.66545956  0.32482130  0.32756033  1
  Cr  Cr24  1  0.66147118  0.66379715  -0.00046633  1
  Ni  Ni25  1  0.82885701  0.83140762  0.16258374  1
  Cr  Cr26  1  0.66409056  0.66427111  0.32280314  1
  Cr  Cr27  1  0.15937738  0.15650617  0.49208462  1
  Ni  Ni28  1  -0.00438047  0.99108476  0.65913395  1
  Cr  Cr29  1  0.15979999  0.15645437  0.83374960  1
  Cr  Cr30  1  0.16016052  0.49969888  0.49609094  1
  Cr  Cr31  1  -0.00355982  0.32608708  0.66137747  1
  Fe  Fe32  1  0.16109939  0.49719268  0.82959462  1
  Ni  Ni33  1  0.15981365  0.82882919  0.49752599  1
  Ni  Ni34  1  -0.00063110  0.66571274  0.66080568  1
  Ni  Ni35  1  0.16108430  0.82678442  0.82792855  1
  Cr  Cr36  1  0.49830931  0.16156845  0.49307037  1
  Cr  Cr37  1  0.32602457  0.99379453  0.66157853  1
  Cr  Cr38  1  0.49451133  0.16232958  0.82851629  1
  Cr  Cr39  1  0.49707372  0.49524438  0.49575381  1
  Cr  Cr40  1  0.32776840  0.32911116  0.66212860  1
  Cr  Cr41  1  0.49437489  0.49566942  0.82639380  1
  Cr  Cr42  1  0.49313809  0.82859901  0.49238966  1
  Ni  Ni43  1  0.32255173  0.66367463  0.66318315  1
  Cr  Cr44  1  0.49079111  0.82747972  0.83162699  1
  Ni  Ni45  1  0.82664022  0.15956333  0.49476276  1
  Cr  Cr46  1  0.66359575  -0.00356372  0.66110992  1
  Cr  Cr47  1  0.83112117  0.16088335  0.82803720  1
  Cr  Cr48  1  0.82724025  0.49458863  0.49517133  1
  Ni  Ni49  1  0.66413557  0.32730990  0.65962162  1
  Cr  Cr50  1  0.83017985  0.49496475  0.82719956  1
  Fe  Fe51  1  0.82962563  0.83021195  0.49507919  1
  Cr  Cr52  1  0.66157948  0.66395396  0.66230892  1
  Cr  Cr53  1  0.83505824  0.82914615  0.82607008  1
" 