8444,Ni33Fe49Cr17_1,-231.01276074442, 198.378313601088,Ni33Fe49Cr17,"# generated using pymatgen
 data_Cr11Fe26Ni17
_symmetry_space_group_name_H-M   'P 1'
_cell_length_a   7.44089138
_cell_length_b   7.44089138
_cell_length_c   10.52300950
_cell_angle_alpha   90.00000000
_cell_angle_beta   90.00000000
_cell_angle_gamma   90.00000000
_symmetry_Int_Tables_number   1
_chemical_formula_structural   Cr11Fe26Ni17
_chemical_formula_sum   'Cr11 Fe26 Ni17'
_cell_volume   582.62604128
_cell_formula_units_Z   1
loop_
 _symmetry_equiv_pos_site_id
 _symmetry_equiv_pos_as_xyz
  1  'x, y, z'
loop_
 _atom_site_type_symbol
 _atom_site_label
 _atom_site_symmetry_multiplicity
 _atom_site_fract_x
 _atom_site_fract_y
 _atom_site_fract_z
 _atom_site_occupancy
  Fe  Fe0  1  0.99980822  1.00078850  0.00190169  1
  Cr  Cr1  1  0.16713849  0.16749582  0.16826865  1
  Fe  Fe2  1  1.00079328  0.00405336  0.33508555  1
  Fe  Fe3  1  1.00145394  0.33685640  0.99964225  1
  Ni  Ni4  1  0.16968237  0.50353067  0.16831571  1
  Fe  Fe5  1  0.00253549  0.33254066  0.33671189  1
  Ni  Ni6  1  1.00150212  0.66727395  1.00117080  1
  Fe  Fe7  1  0.16925211  0.83427087  0.16752384  1
  Cr  Cr8  1  0.00181201  0.66746584  0.33461709  1
  Fe  Fe9  1  0.33700471  1.00014191  1.00165364  1
  Ni  Ni10  1  0.50364275  0.16636087  0.16933675  1
  Ni  Ni11  1  0.33768584  0.00435277  0.33343503  1
  Fe  Fe12  1  0.33416876  0.33631934  0.00198284  1
  Cr  Cr13  1  0.50078653  0.50271967  0.16865857  1
  Ni  Ni14  1  0.33468712  0.33288588  0.33637210  1
  Ni  Ni15  1  0.33377576  0.66895066  0.00316732  1
  Fe  Fe16  1  0.50177200  0.83692023  0.16815066  1
  Fe  Fe17  1  0.33534731  0.66858095  0.33300756  1
  Fe  Fe18  1  0.66846076  1.00082250  0.00226317  1
  Ni  Ni19  1  0.83387349  0.16640252  0.16954555  1
  Ni  Ni20  1  0.66761509  0.00326128  0.33450857  1
  Fe  Fe21  1  0.66965029  0.33399651  1.00092405  1
  Cr  Cr22  1  0.83467352  0.50000518  0.16711063  1
  Fe  Fe23  1  0.66820955  0.33172107  0.33542129  1
  Ni  Ni24  1  0.66999459  0.67059591  1.00114535  1
  Fe  Fe25  1  0.83425225  0.83732786  0.16768903  1
  Fe  Fe26  1  0.66743906  0.67031983  0.33503060  1
  Ni  Ni27  1  0.16691925  0.16907360  0.50230880  1
  Fe  Fe28  1  1.00059885  0.00366535  0.66828908  1
  Fe  Fe29  1  0.16813219  0.17037192  0.83402772  1
  Fe  Fe30  1  0.16763828  0.49918001  0.50264374  1
  Ni  Ni31  1  0.00364781  0.33653417  0.66830703  1
  Ni  Ni32  1  0.16662861  0.50110563  0.83402867  1
  Cr  Cr33  1  0.16860420  0.83728926  0.50271229  1
  Ni  Ni34  1  1.00132762  0.66576842  0.66923597  1
  Cr  Cr35  1  0.16932937  0.83467088  0.83421729  1
  Fe  Fe36  1  0.49977294  0.16709887  0.50000090  1
  Ni  Ni37  1  0.33634273  0.00464208  0.66936984  1
  Fe  Fe38  1  0.50117872  0.16641126  0.83590081  1
  Cr  Cr39  1  0.50100331  0.50169504  0.49980610  1
  Fe  Fe40  1  0.33104443  0.33390203  0.66777563  1
  Cr  Cr41  1  0.50097394  0.50364125  0.83681060  1
  Cr  Cr42  1  0.50146679  0.83562701  0.50131570  1
  Fe  Fe43  1  0.33231652  0.66769033  0.67006640  1
  Ni  Ni44  1  0.50182001  0.83645412  0.83536560  1
  Fe  Fe45  1  0.83611663  0.16760139  0.50105543  1
  Fe  Fe46  1  0.66948313  0.00239329  0.66913352  1
  Ni  Ni47  1  0.83608872  0.16845128  0.83570485  1
  Fe  Fe48  1  0.83798658  0.50112806  0.50200859  1
  Cr  Cr49  1  0.66980276  0.33251443  0.66851374  1
  Ni  Ni50  1  0.83767335  0.50055807  0.83629843  1
  Fe  Fe51  1  0.83539940  0.83654287  0.50160880  1
  Cr  Cr52  1  0.67216944  0.67067279  0.66978706  1
  Fe  Fe53  1  0.83442748  0.83426599  0.83597768  1
" 