4752,Ni33Fe60Cr6_6,-233.848091632043, 199.191943774388,Ni33Fe60Cr6,"# generated using pymatgen
 data_Cr5Fe32Ni17
_symmetry_space_group_name_H-M   'P 1'
_cell_length_a   7.41662144
_cell_length_b   7.41662144
_cell_length_c   10.48868663
_cell_angle_alpha   90.00000000
_cell_angle_beta   90.00000000
_cell_angle_gamma   90.00000000
_symmetry_Int_Tables_number   1
_chemical_formula_structural   Cr5Fe32Ni17
_chemical_formula_sum   'Cr5 Fe32 Ni17'
_cell_volume   576.94356732
_cell_formula_units_Z   1
loop_
 _symmetry_equiv_pos_site_id
 _symmetry_equiv_pos_as_xyz
  1  'x, y, z'
loop_
 _atom_site_type_symbol
 _atom_site_label
 _atom_site_symmetry_multiplicity
 _atom_site_fract_x
 _atom_site_fract_y
 _atom_site_fract_z
 _atom_site_occupancy
  Fe  Fe0  1  1.00120354  1.00316775  1.00204438  1
  Cr  Cr1  1  0.17020667  0.17025607  0.16903021  1
  Fe  Fe2  1  1.00263273  1.00210185  0.33766970  1
  Ni  Ni3  1  0.00340569  0.33916549  1.00247806  1
  Fe  Fe4  1  0.17008510  0.50522163  0.16894611  1
  Cr  Cr5  1  1.00293420  0.33953428  0.33846312  1
  Ni  Ni6  1  0.00388008  0.66785084  1.00337823  1
  Cr  Cr7  1  0.16841165  0.83692651  0.16996565  1
  Ni  Ni8  1  0.00477347  0.66896963  0.33636430  1
  Fe  Fe9  1  0.33796958  1.00307476  1.00201928  1
  Fe  Fe10  1  0.50558638  0.16847787  0.17014702  1
  Fe  Fe11  1  0.33757365  1.00295310  0.33840686  1
  Fe  Fe12  1  0.33715312  0.33766701  1.00255000  1
  Fe  Fe13  1  0.50329370  0.50412688  0.17015097  1
  Fe  Fe14  1  0.33900415  0.33738910  0.33782183  1
  Fe  Fe15  1  0.33776641  0.66945616  1.00249351  1
  Ni  Ni16  1  0.50616613  0.83611452  0.17036581  1
  Fe  Fe17  1  0.33765579  0.66985620  0.33760364  1
  Ni  Ni18  1  0.66828596  0.00342929  0.00370777  1
  Fe  Fe19  1  0.83392233  0.16804908  0.16909390  1
  Ni  Ni20  1  0.66745042  0.00419185  0.33574214  1
  Fe  Fe21  1  0.67069651  0.33705125  1.00311169  1
  Fe  Fe22  1  0.83682550  0.50517255  0.16965991  1
  Fe  Fe23  1  0.66898097  0.33733050  0.33740516  1
  Fe  Fe24  1  0.67061159  0.67059517  1.00317892  1
  Ni  Ni25  1  0.83507160  0.83636547  0.17004997  1
  Fe  Fe26  1  0.66984807  0.66942288  0.33595717  1
  Ni  Ni27  1  0.17091570  0.16904276  0.50453654  1
  Fe  Fe28  1  0.00388283  0.00422453  0.67048336  1
  Fe  Fe29  1  0.17019826  0.17023618  0.83653420  1
  Fe  Fe30  1  0.16990232  0.50449799  0.50425239  1
  Ni  Ni31  1  0.00505793  0.33848000  0.66967647  1
  Fe  Fe32  1  0.16963882  0.50426356  0.83700224  1
  Ni  Ni33  1  0.17039190  0.83871501  0.50311051  1
  Ni  Ni34  1  0.00553410  0.66799512  0.67045549  1
  Fe  Fe35  1  0.17017250  0.83569924  0.83641320  1
  Fe  Fe36  1  0.50284335  0.16919260  0.50251303  1
  Fe  Fe37  1  0.33600241  1.00339807  0.66977056  1
  Fe  Fe38  1  0.50359606  0.16835131  0.83753780  1
  Ni  Ni39  1  0.50362191  0.50300236  0.50234110  1
  Fe  Fe40  1  0.33513435  0.33689097  0.66982611  1
  Ni  Ni41  1  0.50283954  0.50398757  0.83793662  1
  Fe  Fe42  1  0.50185821  0.83690866  0.50334055  1
  Fe  Fe43  1  0.33710748  0.66990945  0.67010073  1
  Ni  Ni44  1  0.50471159  0.83590244  0.83618986  1
  Fe  Fe45  1  0.83684920  0.17038516  0.50359511  1
  Ni  Ni46  1  0.66754830  1.00289933  0.67074908  1
  Fe  Fe47  1  0.83640112  0.16889045  0.83751034  1
  Ni  Ni48  1  0.83540527  0.50353110  0.50392746  1
  Cr  Cr49  1  0.67107763  0.33516534  0.66951926  1
  Fe  Fe50  1  0.83761231  0.50496138  0.83697006  1
  Cr  Cr51  1  0.83751564  0.83585180  0.50335846  1
  Fe  Fe52  1  0.66989578  0.67036866  0.67106295  1
  Ni  Ni53  1  0.83646553  0.83690628  0.83705627  1
" 