6003,Ni33Fe60Cr6_15,-234.276067209833, 199.905589066656,Ni33Fe60Cr6,"# generated using pymatgen
 data_Cr5Fe32Ni17
_symmetry_space_group_name_H-M   'P 1'
_cell_length_a   7.41886883
_cell_length_b   7.41886883
_cell_length_c   10.49186491
_cell_angle_alpha   90.00000000
_cell_angle_beta   90.00000000
_cell_angle_gamma   90.00000000
_symmetry_Int_Tables_number   1
_chemical_formula_structural   Cr5Fe32Ni17
_chemical_formula_sum   'Cr5 Fe32 Ni17'
_cell_volume   577.46820226
_cell_formula_units_Z   1
loop_
 _symmetry_equiv_pos_site_id
 _symmetry_equiv_pos_as_xyz
  1  'x, y, z'
loop_
 _atom_site_type_symbol
 _atom_site_label
 _atom_site_symmetry_multiplicity
 _atom_site_fract_x
 _atom_site_fract_y
 _atom_site_fract_z
 _atom_site_occupancy
  Fe  Fe0  1  0.00461915  0.00374424  1.00244166  1
  Fe  Fe1  1  0.16820381  0.17020233  0.16972389  1
  Fe  Fe2  1  0.00407882  0.00334327  0.33802393  1
  Fe  Fe3  1  0.00579437  0.33678271  0.00405074  1
  Ni  Ni4  1  0.16978028  0.50334016  0.16924234  1
  Ni  Ni5  1  1.00191681  0.33607717  0.33613379  1
  Fe  Fe6  1  0.00487834  0.66921248  0.00325554  1
  Fe  Fe7  1  0.17209539  0.83592343  0.17025108  1
  Ni  Ni8  1  0.00467481  0.66833493  0.33780331  1
  Ni  Ni9  1  0.33594467  1.00110550  1.00207011  1
  Cr  Cr10  1  0.50216349  0.16919716  0.17023858  1
  Fe  Fe11  1  0.33403292  1.00112142  0.33609988  1
  Fe  Fe12  1  0.33435602  0.33720611  1.00204753  1
  Fe  Fe13  1  0.50185374  0.50608650  0.17107749  1
  Fe  Fe14  1  0.33403525  0.33960063  0.33711543  1
  Ni  Ni15  1  0.33647601  0.67143876  0.00376269  1
  Fe  Fe16  1  0.50065900  0.83449729  0.16903883  1
  Ni  Ni17  1  0.33654372  0.67050986  0.33660097  1
  Fe  Fe18  1  0.66855572  1.00136501  1.00118915  1
  Fe  Fe19  1  0.83946233  0.17139712  0.17130397  1
  Fe  Fe20  1  0.67162850  1.00218626  0.33774774  1
  Cr  Cr21  1  0.67138491  0.33659290  1.00190403  1
  Fe  Fe22  1  0.83803688  0.50219658  0.17131549  1
  Fe  Fe23  1  0.67209433  0.33900451  0.33687630  1
  Fe  Fe24  1  0.66813127  0.67142665  1.00175615  1
  Cr  Cr25  1  0.83703850  0.83605791  0.16936263  1
  Fe  Fe26  1  0.66987328  0.66855035  0.33833509  1
  Fe  Fe27  1  0.16742522  0.17074416  0.50331176  1
  Fe  Fe28  1  0.00490811  1.00258493  0.66927213  1
  Fe  Fe29  1  0.17126035  0.16939059  0.83670479  1
  Ni  Ni30  1  0.16984055  0.50460260  0.50357015  1
  Fe  Fe31  1  0.00325241  0.33745319  0.66895993  1
  Fe  Fe32  1  0.17144919  0.50332999  0.83657195  1
  Ni  Ni33  1  0.16852527  0.83532718  0.50317937  1
  Fe  Fe34  1  0.00346362  0.66970351  0.66867393  1
  Fe  Fe35  1  0.17147308  0.83702001  0.83652855  1
  Cr  Cr36  1  0.50270713  0.17171692  0.50344485  1
  Fe  Fe37  1  0.33504224  1.00193353  0.67158548  1
  Ni  Ni38  1  0.50157677  0.16928710  0.83690878  1
  Ni  Ni39  1  0.50271505  0.50360394  0.50355110  1
  Ni  Ni40  1  0.33541598  0.33803493  0.67105175  1
  Fe  Fe41  1  0.50219984  0.50439420  0.83490337  1
  Fe  Fe42  1  0.50282850  0.83280208  0.50307881  1
  Ni  Ni43  1  0.33705876  0.66920954  0.66937810  1
  Ni  Ni44  1  0.50292402  0.83737513  0.83825542  1
  Ni  Ni45  1  0.83774823  0.17005984  0.50183279  1
  Cr  Cr46  1  0.67093533  1.00234089  0.67093547  1
  Fe  Fe47  1  0.83716987  0.16942494  0.83633066  1
  Ni  Ni48  1  0.83718389  0.50405376  0.50287703  1
  Fe  Fe49  1  0.66968486  0.33965037  0.67052029  1
  Fe  Fe50  1  0.83609239  0.50418347  0.83540075  1
  Ni  Ni51  1  0.83875100  0.83562681  0.50321842  1
  Ni  Ni52  1  0.66929277  0.66885423  0.66954611  1
  Fe  Fe53  1  0.83610359  0.83613125  0.83698027  1
" 