9003,Ni33Fe49Cr17_18,-231.243260991412, 200.140143901479,Ni33Fe49Cr17,"# generated using pymatgen
 data_Cr11Fe26Ni17
_symmetry_space_group_name_H-M   'P 1'
_cell_length_a   7.43655046
_cell_length_b   7.43655046
_cell_length_c   10.51687051
_cell_angle_alpha   90.00000000
_cell_angle_beta   90.00000000
_cell_angle_gamma   90.00000000
_symmetry_Int_Tables_number   1
_chemical_formula_structural   Cr11Fe26Ni17
_chemical_formula_sum   'Cr11 Fe26 Ni17'
_cell_volume   581.60694601
_cell_formula_units_Z   1
loop_
 _symmetry_equiv_pos_site_id
 _symmetry_equiv_pos_as_xyz
  1  'x, y, z'
loop_
 _atom_site_type_symbol
 _atom_site_label
 _atom_site_symmetry_multiplicity
 _atom_site_fract_x
 _atom_site_fract_y
 _atom_site_fract_z
 _atom_site_occupancy
  Fe  Fe0  1  0.00432420  1.00167865  0.00311995  1
  Ni  Ni1  1  0.16658599  0.16774244  0.16831595  1
  Fe  Fe2  1  0.00211743  0.00293234  0.33428804  1
  Fe  Fe3  1  1.00087318  0.33511913  0.00274836  1
  Fe  Fe4  1  0.16813209  0.50417456  0.16891028  1
  Fe  Fe5  1  0.00263309  0.33556613  0.33597137  1
  Ni  Ni6  1  1.00156203  0.66915979  0.00359027  1
  Ni  Ni7  1  0.16800713  0.83472213  0.16663211  1
  Fe  Fe8  1  0.00377016  0.66765173  0.33508076  1
  Ni  Ni9  1  0.33383946  1.00184328  0.00270533  1
  Fe  Fe10  1  0.50223578  0.16708986  0.16712193  1
  Cr  Cr11  1  0.33486567  1.00049446  0.33559401  1
  Cr  Cr12  1  0.33699115  0.33336675  0.00266667  1
  Ni  Ni13  1  0.50258168  0.50497791  0.16754978  1
  Cr  Cr14  1  0.33470704  0.33628853  0.33651011  1
  Ni  Ni15  1  0.33474015  0.67128261  0.00399369  1
  Fe  Fe16  1  0.50124854  0.83410361  0.16740681  1
  Ni  Ni17  1  0.33429542  0.66947545  0.33505516  1
  Fe  Fe18  1  0.66778686  0.00244174  0.00264744  1
  Fe  Fe19  1  0.83663744  0.16800484  0.16870274  1
  Fe  Fe20  1  0.66877393  1.00170810  0.33589629  1
  Fe  Fe21  1  0.66909072  0.33651212  0.00212641  1
  Fe  Fe22  1  0.83649718  0.50319244  0.16786700  1
  Cr  Cr23  1  0.67062249  0.33520557  0.33544684  1
  Ni  Ni24  1  0.66985062  0.66619085  0.00326784  1
  Fe  Fe25  1  0.83585240  0.83495043  0.16817227  1
  Fe  Fe26  1  0.66706650  0.66881476  0.33462603  1
  Fe  Fe27  1  0.16592743  0.17039624  0.50272129  1
  Fe  Fe28  1  1.00103522  0.00286555  0.66873482  1
  Ni  Ni29  1  0.16838224  0.16860982  0.83448978  1
  Ni  Ni30  1  0.16755929  0.50179513  0.50082062  1
  Fe  Fe31  1  0.00212149  0.33525975  0.66743089  1
  Cr  Cr32  1  0.16786231  0.50176716  0.83639140  1
  Fe  Fe33  1  0.16753800  0.83402280  0.50079042  1
  Ni  Ni34  1  1.00089261  0.66776575  0.66780054  1
  Fe  Fe35  1  0.16779608  0.83731008  0.83783130  1
  Ni  Ni36  1  0.50281217  0.16751210  0.50289479  1
  Cr  Cr37  1  0.33434463  0.00416170  0.66808906  1
  Ni  Ni38  1  0.50194481  0.16893690  0.83679582  1
  Fe  Fe39  1  0.50261426  0.50314737  0.50142771  1
  Fe  Fe40  1  0.33522405  0.33458885  0.66805396  1
  Fe  Fe41  1  0.50406818  0.50125015  0.83697810  1
  Fe  Fe42  1  0.50358801  0.83451988  0.50178047  1
  Cr  Cr43  1  0.33458690  0.66852245  0.66773543  1
  Cr  Cr44  1  0.50363614  0.83538829  0.83713282  1
  Ni  Ni45  1  0.83575781  0.16783973  0.50238066  1
  Ni  Ni46  1  0.66944194  0.00448881  0.66709064  1
  Fe  Fe47  1  0.83582342  0.16912806  0.83532008  1
  Ni  Ni48  1  0.83795223  0.50303151  0.50262978  1
  Cr  Cr49  1  0.66913202  0.33539623  0.66967805  1
  Fe  Fe50  1  0.83456735  0.50162411  0.83563738  1
  Cr  Cr51  1  0.83377456  0.83538453  0.50245112  1
  Ni  Ni52  1  0.67114755  0.66683959  0.66729819  1
  Cr  Cr53  1  0.83550744  0.83448374  0.83432799  1
" 