4890,Ni33Fe60Cr6_7,-234.022752493132, 200.407364749083,Ni33Fe60Cr6,"# generated using pymatgen
 data_Cr5Fe32Ni17
_symmetry_space_group_name_H-M   'P 1'
_cell_length_a   7.41694508
_cell_length_b   7.41694508
_cell_length_c   10.48914432
_cell_angle_alpha   90.00000000
_cell_angle_beta   90.00000000
_cell_angle_gamma   90.00000000
_symmetry_Int_Tables_number   1
_chemical_formula_structural   Cr5Fe32Ni17
_chemical_formula_sum   'Cr5 Fe32 Ni17'
_cell_volume   577.01909737
_cell_formula_units_Z   1
loop_
 _symmetry_equiv_pos_site_id
 _symmetry_equiv_pos_as_xyz
  1  'x, y, z'
loop_
 _atom_site_type_symbol
 _atom_site_label
 _atom_site_symmetry_multiplicity
 _atom_site_fract_x
 _atom_site_fract_y
 _atom_site_fract_z
 _atom_site_occupancy
  Fe  Fe0  1  0.00356945  0.00421276  0.00440531  1
  Ni  Ni1  1  0.17130974  0.17038451  0.17061042  1
  Ni  Ni2  1  1.00130834  0.00339741  0.33585816  1
  Ni  Ni3  1  1.00316168  0.33744337  0.00418848  1
  Fe  Fe4  1  0.16865993  0.50472957  0.16941597  1
  Fe  Fe5  1  0.00551522  0.33731529  0.33566120  1
  Fe  Fe6  1  1.00333736  0.67079919  1.00329796  1
  Ni  Ni7  1  0.16871873  0.83727654  0.16982355  1
  Fe  Fe8  1  1.00221905  0.66858909  0.33575637  1
  Cr  Cr9  1  0.33783567  1.00209266  0.00475574  1
  Fe  Fe10  1  0.50438040  0.16961731  0.17085397  1
  Fe  Fe11  1  0.33652213  0.00585130  0.33503903  1
  Fe  Fe12  1  0.33561913  0.33645635  0.00425085  1
  Fe  Fe13  1  0.50104755  0.50560171  0.17028032  1
  Ni  Ni14  1  0.33693113  0.33856916  0.33604019  1
  Ni  Ni15  1  0.33521237  0.66855527  1.00292388  1
  Fe  Fe16  1  0.50368900  0.83451966  0.17038257  1
  Ni  Ni17  1  0.33604215  0.66965639  0.33694153  1
  Ni  Ni18  1  0.67146197  0.00441636  0.00471325  1
  Fe  Fe19  1  0.83972191  0.16870783  0.16851399  1
  Fe  Fe20  1  0.66874613  1.00120522  0.33656222  1
  Fe  Fe21  1  0.66903324  0.33709749  0.00342078  1
  Ni  Ni22  1  0.83477407  0.50481807  0.16848200  1
  Cr  Cr23  1  0.67115019  0.33520144  0.33635925  1
  Fe  Fe24  1  0.66943472  0.67056944  1.00334109  1
  Ni  Ni25  1  0.83671774  0.83493632  0.16946789  1
  Fe  Fe26  1  0.66971353  0.67009495  0.33667958  1
  Ni  Ni27  1  0.17121538  0.17100959  0.50352626  1
  Fe  Fe28  1  1.00309341  0.00625485  0.66959569  1
  Ni  Ni29  1  0.17025370  0.16992024  0.83626845  1
  Fe  Fe30  1  0.17098252  0.50154736  0.50219205  1
  Fe  Fe31  1  1.00225023  0.33461927  0.67065867  1
  Fe  Fe32  1  0.17108352  0.50106341  0.83850305  1
  Cr  Cr33  1  0.16997293  0.84037792  0.50267384  1
  Cr  Cr34  1  0.00546056  0.66888376  0.67020779  1
  Fe  Fe35  1  0.17043946  0.83670150  0.83716143  1
  Ni  Ni36  1  0.49991497  0.17174569  0.50320944  1
  Fe  Fe37  1  0.33607588  0.00542038  0.67172898  1
  Fe  Fe38  1  0.50379768  0.17162565  0.83657621  1
  Ni  Ni39  1  0.50474541  0.50269208  0.50461136  1
  Fe  Fe40  1  0.33684163  0.33635150  0.66924286  1
  Fe  Fe41  1  0.50232181  0.50247729  0.83620390  1
  Fe  Fe42  1  0.50339379  0.83566019  0.50184066  1
  Fe  Fe43  1  0.34044714  0.66910599  0.67089264  1
  Fe  Fe44  1  0.50359599  0.83596622  0.83751068  1
  Fe  Fe45  1  0.83851345  0.17090949  0.50296256  1
  Cr  Cr46  1  0.67016479  0.00468621  0.66730088  1
  Fe  Fe47  1  0.83759785  0.17107047  0.83841579  1
  Ni  Ni48  1  0.83501534  0.50363920  0.50422744  1
  Ni  Ni49  1  0.67058904  0.33623369  0.67101625  1
  Fe  Fe50  1  0.83639405  0.50078019  0.83767559  1
  Ni  Ni51  1  0.83611984  0.83449404  0.50183568  1
  Fe  Fe52  1  0.66959840  0.66850668  0.67010865  1
  Fe  Fe53  1  0.83667759  0.83853136  0.83821658  1
" 