132,Ni33Fe27Cr39_3,-223.528454579906, 179.693087294778,Ni33Fe27Cr39,"# generated using pymatgen
 data_Cr23Fe14Ni17
_symmetry_space_group_name_H-M   'P 1'
_cell_length_a   7.48511523
_cell_length_b   7.48511523
_cell_length_c   10.58555148
_cell_angle_alpha   90.00000000
_cell_angle_beta   90.00000000
_cell_angle_gamma   90.00000000
_symmetry_Int_Tables_number   1
_chemical_formula_structural   Cr23Fe14Ni17
_chemical_formula_sum   'Cr23 Fe14 Ni17'
_cell_volume   593.07616439
_cell_formula_units_Z   1
loop_
 _symmetry_equiv_pos_site_id
 _symmetry_equiv_pos_as_xyz
  1  'x, y, z'
loop_
 _atom_site_type_symbol
 _atom_site_label
 _atom_site_symmetry_multiplicity
 _atom_site_fract_x
 _atom_site_fract_y
 _atom_site_fract_z
 _atom_site_occupancy
  Fe  Fe0  1  0.99628499  0.00237789  -0.00117172  1
  Cr  Cr1  1  0.16743083  0.16821208  0.16586373  1
  Cr  Cr2  1  0.99690679  0.00210416  0.33184738  1
  Fe  Fe3  1  0.99747569  0.32830578  0.99853705  1
  Fe  Fe4  1  0.16804030  0.49784479  0.16425836  1
  Cr  Cr5  1  0.00140771  0.33112261  0.33241560  1
  Cr  Cr6  1  -0.00033890  0.66900447  -0.00021639  1
  Cr  Cr7  1  0.16474635  0.83108523  0.16721159  1
  Fe  Fe8  1  0.99730183  0.66404537  0.33224774  1
  Cr  Cr9  1  0.33150651  0.99763254  0.99878553  1
  Cr  Cr10  1  0.50014235  0.16638593  0.16620431  1
  Fe  Fe11  1  0.33490076  -0.00015373  0.33238828  1
  Ni  Ni12  1  0.33232583  0.33294910  -0.00049499  1
  Ni  Ni13  1  0.49871052  0.49787157  0.16405921  1
  Ni  Ni14  1  0.33101211  0.33420330  0.33259247  1
  Fe  Fe15  1  0.33512163  0.66262443  0.00125077  1
  Ni  Ni16  1  0.50171390  0.83107394  0.16774810  1
  Cr  Cr17  1  0.33460698  0.66331507  0.32918537  1
  Fe  Fe18  1  0.66818239  0.00020501  0.00006370  1
  Ni  Ni19  1  0.83114111  0.16409725  0.16237093  1
  Ni  Ni20  1  0.66604557  0.99566326  0.32802267  1
  Ni  Ni21  1  0.66453277  0.33092859  0.99673803  1
  Cr  Cr22  1  0.83229178  0.49865528  0.16655493  1
  Cr  Cr23  1  0.66482180  0.33133235  0.33469880  1
  Cr  Cr24  1  0.66343546  0.66750441  -0.00104019  1
  Ni  Ni25  1  0.83009531  0.83285127  0.16662947  1
  Ni  Ni26  1  0.66335256  0.66727995  0.33209819  1
  Ni  Ni27  1  0.16847158  0.16808508  0.49960849  1
  Fe  Fe28  1  0.00090670  0.00011379  0.66663919  1
  Ni  Ni29  1  0.16448749  0.16471471  0.83096379  1
  Ni  Ni30  1  0.16530995  0.49710440  0.49579280  1
  Cr  Cr31  1  -0.00076173  0.32864443  0.66303994  1
  Cr  Cr32  1  0.16715023  0.49672316  0.83716223  1
  Cr  Cr33  1  0.16770836  0.83378060  0.49955544  1
  Cr  Cr34  1  -0.00073156  0.66592675  0.66476822  1
  Fe  Fe35  1  0.16312798  0.83572054  0.83227303  1
  Cr  Cr36  1  0.49664164  0.16365977  0.49849759  1
  Fe  Fe37  1  0.33016317  0.00067179  0.66589863  1
  Cr  Cr38  1  0.49760440  0.16976981  0.83225153  1
  Fe  Fe39  1  0.49506741  0.49926838  0.49857866  1
  Ni  Ni40  1  0.33012497  0.33213817  0.66453257  1
  Ni  Ni41  1  0.49718538  0.49599039  0.83235269  1
  Ni  Ni42  1  0.49955512  0.83320719  0.49552546  1
  Cr  Cr43  1  0.33258017  0.66384455  0.66871261  1
  Cr  Cr44  1  0.49874153  0.83226428  0.83292709  1
  Fe  Fe45  1  0.83228070  0.16326791  0.49866304  1
  Cr  Cr46  1  0.66818973  -0.00043931  0.66707970  1
  Ni  Ni47  1  0.83438155  0.16357166  0.83390371  1
  Fe  Fe48  1  0.83160792  0.49782947  0.49753400  1
  Fe  Fe49  1  0.66352011  0.33247175  0.66530914  1
  Cr  Cr50  1  0.82949227  0.49771607  0.83110194  1
  Cr  Cr51  1  0.83053228  0.82948586  0.49542712  1
  Cr  Cr52  1  0.66323581  0.66502918  0.66425288  1
  Ni  Ni53  1  0.83505912  0.83574490  0.83362675  1
" 