5,Ni33Fe27Cr39_19,-222.848827499473, 173.078688801788,Ni33Fe27Cr39,"# generated using pymatgen
 data_Cr23Fe14Ni17
_symmetry_space_group_name_H-M   'P 1'
_cell_length_a   7.49120788
_cell_length_b   7.49120788
_cell_length_c   10.59416778
_cell_angle_alpha   90.00000000
_cell_angle_beta   90.00000000
_cell_angle_gamma   90.00000000
_symmetry_Int_Tables_number   1
_chemical_formula_structural   Cr23Fe14Ni17
_chemical_formula_sum   'Cr23 Fe14 Ni17'
_cell_volume   594.52557890
_cell_formula_units_Z   1
loop_
 _symmetry_equiv_pos_site_id
 _symmetry_equiv_pos_as_xyz
  1  'x, y, z'
loop_
 _atom_site_type_symbol
 _atom_site_label
 _atom_site_symmetry_multiplicity
 _atom_site_fract_x
 _atom_site_fract_y
 _atom_site_fract_z
 _atom_site_occupancy
  Ni  Ni0  1  -0.00116532  0.99746735  0.99766254  1
  Fe  Fe1  1  0.16148953  0.16736694  0.16765748  1
  Fe  Fe2  1  0.00040894  0.99761734  0.33063129  1
  Fe  Fe3  1  -0.00133435  0.33295313  0.00150036  1
  Ni  Ni4  1  0.16286069  0.50101185  0.16524519  1
  Ni  Ni5  1  0.99707010  0.33232747  0.33114068  1
  Ni  Ni6  1  -0.00100022  0.66595732  0.00171489  1
  Fe  Fe7  1  0.16336473  0.82868764  0.16671527  1
  Ni  Ni8  1  -0.00141236  0.66339592  0.33129367  1
  Cr  Cr9  1  0.32770968  0.99661341  0.00472377  1
  Cr  Cr10  1  0.49886659  0.16329479  0.17133068  1
  Ni  Ni11  1  0.32771445  0.99803379  0.32918666  1
  Cr  Cr12  1  0.33045458  0.33077810  0.00100869  1
  Cr  Cr13  1  0.49803360  0.49940700  0.16650758  1
  Fe  Fe14  1  0.32835376  0.33489611  0.33069931  1
  Ni  Ni15  1  0.33016674  0.66506833  -0.00042779  1
  Fe  Fe16  1  0.49814713  0.82758358  0.16731815  1
  Ni  Ni17  1  0.32901341  0.66980358  0.33096577  1
  Cr  Cr18  1  0.66476971  0.99783492  0.99681897  1
  Cr  Cr19  1  0.83262740  0.16538883  0.16544836  1
  Fe  Fe20  1  0.66662628  0.99643211  0.33164525  1
  Cr  Cr21  1  0.66720842  0.33376021  0.99742766  1
  Ni  Ni22  1  0.83536477  0.49949714  0.16748492  1
  Ni  Ni23  1  0.66973315  0.33292972  0.33358761  1
  Ni  Ni24  1  0.66668736  0.66385943  -0.00128248  1
  Cr  Cr25  1  0.83235352  0.82996304  0.16394420  1
  Ni  Ni26  1  0.66701229  0.66184342  0.33063798  1
  Fe  Fe27  1  0.16360585  0.16403793  0.49620038  1
  Fe  Fe28  1  0.99637408  0.00149463  0.66418526  1
  Cr  Cr29  1  0.16084606  0.16692192  0.83232314  1
  Cr  Cr30  1  0.16368245  0.49826033  0.49873685  1
  Ni  Ni31  1  -0.00124564  0.33000451  0.66344469  1
  Cr  Cr32  1  0.16750839  0.49886798  0.83154292  1
  Ni  Ni33  1  0.16273688  0.83264750  0.49589484  1
  Cr  Cr34  1  0.99819482  0.66589412  0.66137546  1
  Cr  Cr35  1  0.16206537  0.82939629  0.83146608  1
  Cr  Cr36  1  0.50018384  0.16521031  0.49471413  1
  Cr  Cr37  1  0.32916823  0.99729427  0.66261391  1
  Cr  Cr38  1  0.49860240  0.16542312  0.83003715  1
  Cr  Cr39  1  0.49619146  0.49794388  0.49799605  1
  Ni  Ni40  1  0.32906136  0.32965191  0.66370744  1
  Fe  Fe41  1  0.49766158  0.49871994  0.83217621  1
  Cr  Cr42  1  0.49815242  0.83169601  0.49463713  1
  Fe  Fe43  1  0.33177794  0.66375914  0.66351794  1
  Cr  Cr44  1  0.49878324  0.82964528  0.83254927  1
  Fe  Fe45  1  0.83550493  0.16646048  0.49764681  1
  Ni  Ni46  1  0.66772164  -0.00038800  0.66523354  1
  Ni  Ni47  1  0.83380144  0.16309665  0.83022507  1
  Fe  Fe48  1  0.83256697  0.49795131  0.49445174  1
  Cr  Cr49  1  0.66764884  0.33257622  0.66529044  1
  Cr  Cr50  1  0.83764534  0.49883523  0.83586075  1
  Cr  Cr51  1  0.83313943  0.83466067  0.49681254  1
  Cr  Cr52  1  0.66719428  0.66551647  0.66621180  1
  Fe  Fe53  1  0.83322275  0.83357037  0.83348275  1
" 