4764,Ni33Fe27Cr39_8,-223.383127476999, 180.830627350933,Ni33Fe27Cr39,"# generated using pymatgen
 data_Cr23Fe14Ni17
_symmetry_space_group_name_H-M   'P 1'
_cell_length_a   7.48504809
_cell_length_b   7.48504809
_cell_length_c   10.58545652
_cell_angle_alpha   90.00000000
_cell_angle_beta   90.00000000
_cell_angle_gamma   90.00000000
_symmetry_Int_Tables_number   1
_chemical_formula_structural   Cr23Fe14Ni17
_chemical_formula_sum   'Cr23 Fe14 Ni17'
_cell_volume   593.06020392
_cell_formula_units_Z   1
loop_
 _symmetry_equiv_pos_site_id
 _symmetry_equiv_pos_as_xyz
  1  'x, y, z'
loop_
 _atom_site_type_symbol
 _atom_site_label
 _atom_site_symmetry_multiplicity
 _atom_site_fract_x
 _atom_site_fract_y
 _atom_site_fract_z
 _atom_site_occupancy
  Cr  Cr0  1  0.99845029  -0.00041892  -0.00058220  1
  Fe  Fe1  1  0.16755040  0.16494303  0.16810054  1
  Cr  Cr2  1  0.99422247  -0.00057233  0.33203355  1
  Cr  Cr3  1  0.00005673  0.32971076  0.00316748  1
  Ni  Ni4  1  0.16488439  0.49879562  0.17045325  1
  Ni  Ni5  1  0.00039892  0.33245633  0.33038218  1
  Fe  Fe6  1  0.00039660  0.66544616  0.00128588  1
  Cr  Cr7  1  0.16783149  0.83129278  0.16527600  1
  Ni  Ni8  1  0.00046231  0.66666824  0.33425073  1
  Ni  Ni9  1  0.33289910  0.99808033  0.00009367  1
  Ni  Ni10  1  0.49834171  0.16194957  0.16697717  1
  Fe  Fe11  1  0.33235013  -0.00105634  0.33122728  1
  Cr  Cr12  1  0.33246056  0.33272539  0.00241574  1
  Fe  Fe13  1  0.49845955  0.50002669  0.16860724  1
  Ni  Ni14  1  0.33165991  0.33460603  0.32842500  1
  Cr  Cr15  1  0.33365906  0.66312326  0.99844541  1
  Ni  Ni16  1  0.50053705  0.83477966  0.16622025  1
  Fe  Fe17  1  0.33070346  0.66525169  0.33235084  1
  Ni  Ni18  1  0.66609581  0.99835185  0.00345666  1
  Ni  Ni19  1  0.82860894  0.16628890  0.16531616  1
  Fe  Fe20  1  0.66497213  0.99874207  0.33162285  1
  Cr  Cr21  1  0.66397429  0.33260127  0.99775806  1
  Cr  Cr22  1  0.83506949  0.50129419  0.16778158  1
  Cr  Cr23  1  0.66586584  0.32931479  0.33272573  1
  Fe  Fe24  1  0.66494458  0.66691068  0.00233695  1
  Fe  Fe25  1  0.83029349  0.83310211  0.16695993  1
  Fe  Fe26  1  0.66588900  0.66753719  0.33227208  1
  Cr  Cr27  1  0.16627334  0.16853144  0.49458581  1
  Cr  Cr28  1  0.99878847  0.99795585  0.66547083  1
  Ni  Ni29  1  0.16675277  0.16498865  0.83459536  1
  Ni  Ni30  1  0.16423637  0.49951299  0.49622267  1
  Ni  Ni31  1  -0.00118886  0.32950780  0.66428879  1
  Cr  Cr32  1  0.16034733  0.49960393  0.83046282  1
  Ni  Ni33  1  0.16622954  0.83006782  0.49763691  1
  Fe  Fe34  1  -0.00019556  0.66745488  0.66215205  1
  Ni  Ni35  1  0.16512507  0.83324681  0.83309224  1
  Fe  Fe36  1  0.49769686  0.16344808  0.49553785  1
  Cr  Cr37  1  0.32975268  0.99631383  0.66361849  1
  Cr  Cr38  1  0.49932235  0.16343266  0.83090786  1
  Cr  Cr39  1  0.49760168  0.49761524  0.49742328  1
  Cr  Cr40  1  0.33168189  0.33385398  0.66608883  1
  Fe  Fe41  1  0.49813714  0.49967999  0.83150435  1
  Ni  Ni42  1  0.49791056  0.83443769  0.49323658  1
  Cr  Cr43  1  0.33126011  0.66681355  0.66388013  1
  Cr  Cr44  1  0.49823932  0.83541098  0.83562781  1
  Ni  Ni45  1  0.83146546  0.16632680  0.49952798  1
  Cr  Cr46  1  0.66842519  0.99783143  0.65982233  1
  Fe  Fe47  1  0.83392368  0.16425642  0.83179473  1
  Cr  Cr48  1  0.83685042  0.49735745  0.49933821  1
  Fe  Fe49  1  0.66700088  0.32996552  0.66445337  1
  Cr  Cr50  1  0.83162470  0.49782172  0.82961342  1
  Ni  Ni51  1  0.83151022  0.83182244  0.49483840  1
  Cr  Cr52  1  0.66299713  0.66669950  0.66335028  1
  Cr  Cr53  1  0.83226240  0.82916038  0.83663745  1
" 