2282,Ni33Fe27Cr39_0,-222.8595977149, 174.25853450515,Ni33Fe27Cr39,"# generated using pymatgen
 data_Cr23Fe14Ni17
_symmetry_space_group_name_H-M   'P 1'
_cell_length_a   7.48571083
_cell_length_b   7.48571083
_cell_length_c   10.58639379
_cell_angle_alpha   90.00000000
_cell_angle_beta   90.00000000
_cell_angle_gamma   90.00000000
_symmetry_Int_Tables_number   1
_chemical_formula_structural   Cr23Fe14Ni17
_chemical_formula_sum   'Cr23 Fe14 Ni17'
_cell_volume   593.21775111
_cell_formula_units_Z   1
loop_
 _symmetry_equiv_pos_site_id
 _symmetry_equiv_pos_as_xyz
  1  'x, y, z'
loop_
 _atom_site_type_symbol
 _atom_site_label
 _atom_site_symmetry_multiplicity
 _atom_site_fract_x
 _atom_site_fract_y
 _atom_site_fract_z
 _atom_site_occupancy
  Fe  Fe0  1  -0.00052706  0.00143252  -0.00089834  1
  Fe  Fe1  1  0.15976111  0.16625111  0.16547024  1
  Ni  Ni2  1  -0.00052929  0.00029975  0.33344482  1
  Ni  Ni3  1  0.99790212  0.33015882  0.00061262  1
  Ni  Ni4  1  0.16243970  0.49696750  0.16484762  1
  Ni  Ni5  1  -0.00016986  0.32924200  0.33201603  1
  Cr  Cr6  1  0.00181170  0.66265490  0.99765726  1
  Cr  Cr7  1  0.16578125  0.83175300  0.16507087  1
  Fe  Fe8  1  0.00163337  0.66201405  0.33340756  1
  Fe  Fe9  1  0.33086213  0.99845702  0.99754522  1
  Cr  Cr10  1  0.49845562  0.16248865  0.16573756  1
  Fe  Fe11  1  0.32742128  -0.00123271  0.33323051  1
  Cr  Cr12  1  0.33016404  0.33546398  0.00036774  1
  Fe  Fe13  1  0.49590944  0.50174224  0.16499342  1
  Cr  Cr14  1  0.32765482  0.33363248  0.33006952  1
  Ni  Ni15  1  0.33022155  0.66531491  0.99766912  1
  Cr  Cr16  1  0.49769071  0.83335159  0.16559883  1
  Ni  Ni17  1  0.32837932  0.66576796  0.33142494  1
  Ni  Ni18  1  0.66699930  0.00221150  0.99860384  1
  Fe  Fe19  1  0.83727821  0.16569909  0.16605988  1
  Fe  Fe20  1  0.66958613  0.00037247  0.33319059  1
  Cr  Cr21  1  0.66749190  0.33241950  -0.00056107  1
  Ni  Ni22  1  0.83847550  0.49514602  0.16740008  1
  Cr  Cr23  1  0.66840913  0.33265015  0.32980293  1
  Cr  Cr24  1  0.66420058  0.66248134  -0.00059426  1
  Cr  Cr25  1  0.83295455  0.83368384  0.16541031  1
  Cr  Cr26  1  0.66707487  0.66402583  0.33130383  1
  Fe  Fe27  1  0.16154148  0.16840419  0.49826206  1
  Cr  Cr28  1  -0.00096137  -0.00119574  0.66453022  1
  Cr  Cr29  1  0.16374372  0.16854515  0.83270230  1
  Ni  Ni30  1  0.16300486  0.49726928  0.50001531  1
  Ni  Ni31  1  0.00025401  0.33223581  0.66392118  1
  Fe  Fe32  1  0.16564816  0.49999338  0.83109403  1
  Fe  Fe33  1  0.16439092  0.83005301  0.49606909  1
  Cr  Cr34  1  0.00077182  0.66622566  0.66369447  1
  Ni  Ni35  1  0.16770397  0.83168296  0.83358488  1
  Cr  Cr36  1  0.49773120  0.16616384  0.49981895  1
  Cr  Cr37  1  0.32846217  0.99841987  0.66440986  1
  Fe  Fe38  1  0.49883845  0.16661655  0.83288800  1
  Cr  Cr39  1  0.49367116  0.49875166  0.49994437  1
  Ni  Ni40  1  0.32898590  0.33497818  0.66659596  1
  Ni  Ni41  1  0.49584824  0.49738131  0.83167129  1
  Cr  Cr42  1  0.49845649  0.83163132  0.49639835  1
  Ni  Ni43  1  0.32905265  0.66286436  0.66738706  1
  Cr  Cr44  1  0.49647712  0.83153235  0.83380926  1
  Ni  Ni45  1  0.83645861  0.16503842  0.49711390  1
  Cr  Cr46  1  0.66822480  -0.00013773  0.66480517  1
  Fe  Fe47  1  0.83347629  0.16766691  0.83317885  1
  Fe  Fe48  1  0.83632935  0.49639838  0.49774601  1
  Cr  Cr49  1  0.66647647  0.33173118  0.66766030  1
  Ni  Ni50  1  0.83458271  0.49385124  0.83088462  1
  Ni  Ni51  1  0.83546425  0.83462650  0.49490059  1
  Cr  Cr52  1  0.66656923  0.66462615  0.66569827  1
  Cr  Cr53  1  0.83414936  0.83288044  0.83501813  1
" 