8071,Ni33Fe27Cr39_6,-223.030695359607, 170.94054407884,Ni33Fe27Cr39,"# generated using pymatgen
 data_Cr23Fe14Ni17
_symmetry_space_group_name_H-M   'P 1'
_cell_length_a   7.49168964
_cell_length_b   7.49168964
_cell_length_c   10.59484909
_cell_angle_alpha   90.00000000
_cell_angle_beta   90.00000000
_cell_angle_gamma   90.00000000
_symmetry_Int_Tables_number   1
_chemical_formula_structural   Cr23Fe14Ni17
_chemical_formula_sum   'Cr23 Fe14 Ni17'
_cell_volume   594.64028726
_cell_formula_units_Z   1
loop_
 _symmetry_equiv_pos_site_id
 _symmetry_equiv_pos_as_xyz
  1  'x, y, z'
loop_
 _atom_site_type_symbol
 _atom_site_label
 _atom_site_symmetry_multiplicity
 _atom_site_fract_x
 _atom_site_fract_y
 _atom_site_fract_z
 _atom_site_occupancy
  Ni  Ni0  1  0.99743137  -0.00094096  0.99792825  1
  Ni  Ni1  1  0.16222442  0.16424684  0.16528190  1
  Cr  Cr2  1  0.99830339  0.00004824  0.33491938  1
  Cr  Cr3  1  0.99800275  0.33373941  0.99825583  1
  Fe  Fe4  1  0.16562624  0.49906631  0.16558534  1
  Ni  Ni5  1  0.99566815  0.33439411  0.33073334  1
  Fe  Fe6  1  -0.00050793  0.66545268  0.99740869  1
  Ni  Ni7  1  0.16159588  0.82897014  0.16394702  1
  Fe  Fe8  1  -0.00149771  0.66212973  0.33092144  1
  Cr  Cr9  1  0.33296091  0.99808346  0.00191739  1
  Ni  Ni10  1  0.49895888  0.17128923  0.16587665  1
  Cr  Cr11  1  0.33199392  0.99620558  0.32736781  1
  Cr  Cr12  1  0.33182867  0.33462267  0.99646031  1
  Ni  Ni13  1  0.49903470  0.49807931  0.16651223  1
  Cr  Cr14  1  0.33091214  0.33195661  0.33080258  1
  Ni  Ni15  1  0.33122070  0.66398582  0.00051211  1
  Fe  Fe16  1  0.49592375  0.82881271  0.16400907  1
  Fe  Fe17  1  0.33145865  0.66240905  0.32897747  1
  Cr  Cr18  1  0.66443810  -0.00139946  -0.00153666  1
  Fe  Fe19  1  0.83294433  0.16653087  0.16676565  1
  Cr  Cr20  1  0.66378151  -0.00030727  0.33003631  1
  Cr  Cr21  1  0.66593847  0.33228297  -0.00057384  1
  Fe  Fe22  1  0.83229223  0.49703633  0.16625924  1
  Ni  Ni23  1  0.66795679  0.33519022  0.33071606  1
  Cr  Cr24  1  0.66294599  0.66319008  0.99475615  1
  Cr  Cr25  1  0.83366444  0.82949386  0.16313080  1
  Cr  Cr26  1  0.66504041  0.66269402  0.33443616  1
  Cr  Cr27  1  0.16331744  0.16579022  0.50187359  1
  Ni  Ni28  1  0.99370251  0.99796034  0.66411173  1
  Cr  Cr29  1  0.16428552  0.16531911  0.82834991  1
  Cr  Cr30  1  0.16863606  0.49894042  0.49765183  1
  Cr  Cr31  1  0.99580354  0.33259161  0.66626183  1
  Fe  Fe32  1  0.16881677  0.50154980  0.83112111  1
  Cr  Cr33  1  0.16303666  0.82999182  0.49810393  1
  Cr  Cr34  1  0.99642661  0.66421585  0.66491856  1
  Cr  Cr35  1  0.16330620  0.83154689  0.83336180  1
  Cr  Cr36  1  0.50160616  0.17094316  0.49889365  1
  Cr  Cr37  1  0.33285782  0.99588032  0.66576838  1
  Ni  Ni38  1  0.50102419  0.16895795  0.82964174  1
  Ni  Ni39  1  0.50256169  0.49860112  0.50096563  1
  Fe  Fe40  1  0.33485717  0.33448090  0.66675948  1
  Ni  Ni41  1  0.49944195  0.49849174  0.82796044  1
  Cr  Cr42  1  0.49768275  0.82663262  0.49830186  1
  Ni  Ni43  1  0.33440353  0.66149549  0.66628298  1
  Ni  Ni44  1  0.49975901  0.82774808  0.83292549  1
  Ni  Ni45  1  0.83110427  0.16768943  0.49797439  1
  Cr  Cr46  1  0.66548037  0.99718933  0.66620659  1
  Fe  Fe47  1  0.82946595  0.16327086  0.83046513  1
  Fe  Fe48  1  0.83045909  0.49514131  0.49753633  1
  Ni  Ni49  1  0.66580777  0.33471217  0.66537927  1
  Fe  Fe50  1  0.82915344  0.49883614  0.83115060  1
  Fe  Fe51  1  0.83062649  0.83183360  0.49967704  1
  Fe  Fe52  1  0.66471167  0.66349039  0.66699546  1
  Ni  Ni53  1  0.83271455  0.83062709  0.83114485  1
" 