7024,Ni33Fe7Cr59_5,-215.044773460052, 148.984179835445,Ni33Fe7Cr59,"# generated using pymatgen
 data_Cr11FeNi6
_symmetry_space_group_name_H-M   'P 1'
_cell_length_a   7.53730279
_cell_length_b   7.53730279
_cell_length_c   10.65935583
_cell_angle_alpha   90.00000000
_cell_angle_beta   90.00000000
_cell_angle_gamma   90.00000000
_symmetry_Int_Tables_number   1
_chemical_formula_structural   Cr11FeNi6
_chemical_formula_sum   'Cr33 Fe3 Ni18'
_cell_volume   605.56795447
_cell_formula_units_Z   3
loop_
 _symmetry_equiv_pos_site_id
 _symmetry_equiv_pos_as_xyz
  1  'x, y, z'
loop_
 _atom_site_type_symbol
 _atom_site_label
 _atom_site_symmetry_multiplicity
 _atom_site_fract_x
 _atom_site_fract_y
 _atom_site_fract_z
 _atom_site_occupancy
  Ni  Ni0  1  -0.00409742  0.99476819  -0.00073873  1
  Ni  Ni1  1  0.15837701  0.16108791  0.16332095  1
  Fe  Fe2  1  -0.00282234  -0.00241188  0.32699141  1
  Ni  Ni3  1  -0.00297171  0.33039010  0.99473229  1
  Cr  Cr4  1  0.16152767  0.49538162  0.16048247  1
  Ni  Ni5  1  -0.00344871  0.32811224  0.32875422  1
  Ni  Ni6  1  -0.00389316  0.66087123  0.99456476  1
  Cr  Cr7  1  0.16077857  0.82846533  0.16204837  1
  Cr  Cr8  1  0.99355917  0.66199513  0.33012387  1
  Cr  Cr9  1  0.32679982  -0.00430824  -0.00401116  1
  Cr  Cr10  1  0.49438621  0.16217066  0.16311824  1
  Ni  Ni11  1  0.32574104  -0.00460540  0.32772104  1
  Cr  Cr12  1  0.32576992  0.32871525  0.99453094  1
  Cr  Cr13  1  0.49331544  0.49741325  0.16217550  1
  Cr  Cr14  1  0.32554193  0.32487435  0.32711301  1
  Ni  Ni15  1  0.32691296  0.66125028  0.99301437  1
  Cr  Cr16  1  0.49402914  0.82648226  0.16300990  1
  Fe  Fe17  1  0.32774959  0.66312887  0.32875010  1
  Cr  Cr18  1  0.66226478  0.99337848  -0.00456652  1
  Cr  Cr19  1  0.83284393  0.16157385  0.16056142  1
  Cr  Cr20  1  0.66168313  0.99398217  0.32742221  1
  Cr  Cr21  1  0.66217399  0.33015297  0.99416692  1
  Cr  Cr22  1  0.83086779  0.49528173  0.16105543  1
  Cr  Cr23  1  0.66397573  0.32993905  0.32972644  1
  Cr  Cr24  1  0.66344525  0.66264977  0.99366059  1
  Ni  Ni25  1  0.83164020  0.82969969  0.16062836  1
  Cr  Cr26  1  0.66505793  0.66228151  0.32954466  1
  Cr  Cr27  1  0.16076118  0.16143216  0.49691363  1
  Ni  Ni28  1  -0.00380781  -0.00286236  0.66078340  1
  Cr  Cr29  1  0.15920157  0.16357578  0.82673916  1
  Cr  Cr30  1  0.16179333  0.49496938  0.49622369  1
  Ni  Ni31  1  -0.00306130  0.33008868  0.66251182  1
  Ni  Ni32  1  0.16163796  0.49569189  0.82878703  1
  Cr  Cr33  1  0.16454873  0.82952793  0.49602304  1
  Cr  Cr34  1  0.99529475  0.65944572  0.66220010  1
  Cr  Cr35  1  0.16365377  0.82609997  0.82822559  1
  Cr  Cr36  1  0.49466867  0.16035278  0.49766066  1
  Ni  Ni37  1  0.32959207  0.99478597  0.66242748  1
  Cr  Cr38  1  0.49594770  0.16019282  0.82504570  1
  Cr  Cr39  1  0.49362043  0.49658536  0.49469878  1
  Ni  Ni40  1  0.32604759  0.32979088  0.66362162  1
  Fe  Fe41  1  0.49211756  0.49823182  0.82764827  1
  Cr  Cr42  1  0.49222565  0.82900932  0.49653806  1
  Ni  Ni43  1  0.32943808  0.66149686  0.66416994  1
  Ni  Ni44  1  0.49311206  0.82635429  0.82619604  1
  Cr  Cr45  1  0.83072979  0.16331563  0.49771254  1
  Ni  Ni46  1  0.66016408  0.99396281  0.66282154  1
  Cr  Cr47  1  0.83092940  0.16267655  0.82773089  1
  Ni  Ni48  1  0.83092036  0.49268748  0.49506683  1
  Cr  Cr49  1  0.66290638  0.33062036  0.66188564  1
  Ni  Ni50  1  0.83290547  0.49409372  0.82968163  1
  Cr  Cr51  1  0.82940917  0.83086152  0.49667026  1
  Cr  Cr52  1  0.66302665  0.66216334  0.66279079  1
  Cr  Cr53  1  0.82934192  0.83046199  0.82965788  1
" 