2130,Ni33Fe27Cr39_9,-223.142543705665, 179.114979636933,Ni33Fe27Cr39,"# generated using pymatgen
 data_Cr23Fe14Ni17
_symmetry_space_group_name_H-M   'P 1'
_cell_length_a   7.48735622
_cell_length_b   7.48735622
_cell_length_c   10.58872071
_cell_angle_alpha   90.00000000
_cell_angle_beta   90.00000000
_cell_angle_gamma   90.00000000
_symmetry_Int_Tables_number   1
_chemical_formula_structural   Cr23Fe14Ni17
_chemical_formula_sum   'Cr23 Fe14 Ni17'
_cell_volume   593.60901034
_cell_formula_units_Z   1
loop_
 _symmetry_equiv_pos_site_id
 _symmetry_equiv_pos_as_xyz
  1  'x, y, z'
loop_
 _atom_site_type_symbol
 _atom_site_label
 _atom_site_symmetry_multiplicity
 _atom_site_fract_x
 _atom_site_fract_y
 _atom_site_fract_z
 _atom_site_occupancy
  Fe  Fe0  1  -0.00052851  0.99683799  -0.00075260  1
  Fe  Fe1  1  0.16527634  0.16390723  0.16804384  1
  Ni  Ni2  1  -0.00012967  0.99607881  0.33002622  1
  Cr  Cr3  1  0.00163728  0.33323773  -0.00032309  1
  Ni  Ni4  1  0.16904014  0.49873468  0.16776153  1
  Fe  Fe5  1  0.00068266  0.32885189  0.33280522  1
  Cr  Cr6  1  0.99780765  0.66808297  -0.00034256  1
  Ni  Ni7  1  0.16664515  0.83245481  0.16505652  1
  Cr  Cr8  1  0.99686321  0.66438193  0.33107917  1
  Cr  Cr9  1  0.33205360  -0.00074878  0.99813887  1
  Fe  Fe10  1  0.49770289  0.16315221  0.16655498  1
  Cr  Cr11  1  0.33456552  0.00075355  0.33272089  1
  Cr  Cr12  1  0.33144911  0.32694650  -0.00043753  1
  Cr  Cr13  1  0.49620654  0.50083739  0.16351401  1
  Ni  Ni14  1  0.33070983  0.33037349  0.33092714  1
  Fe  Fe15  1  0.33224302  0.66860232  -0.00021441  1
  Ni  Ni16  1  0.49830445  0.83093736  0.16612838  1
  Fe  Fe17  1  0.33249902  0.66729321  0.33030079  1
  Cr  Cr18  1  0.66219467  0.99642968  -0.00006322  1
  Cr  Cr19  1  0.83343005  0.16124837  0.16621489  1
  Ni  Ni20  1  0.66351927  0.99624957  0.33071021  1
  Cr  Cr21  1  0.66297386  0.32994231  0.99774186  1
  Cr  Cr22  1  0.83040517  0.49796583  0.16584942  1
  Cr  Cr23  1  0.66247203  0.32998230  0.33296650  1
  Ni  Ni24  1  0.66678695  0.67026071  -0.00133200  1
  Ni  Ni25  1  0.83115093  0.83486700  0.16598649  1
  Fe  Fe26  1  0.66393152  0.66839358  0.33087480  1
  Ni  Ni27  1  0.16532518  0.16426125  0.49878892  1
  Fe  Fe28  1  0.00015098  0.00040625  0.66572065  1
  Fe  Fe29  1  0.16465894  0.16241388  0.82923365  1
  Cr  Cr30  1  0.16756066  0.49774240  0.49690982  1
  Ni  Ni31  1  0.99821009  0.33321496  0.66279768  1
  Cr  Cr32  1  0.16886454  0.50086390  0.83175963  1
  Cr  Cr33  1  0.16823856  0.83528728  0.49960308  1
  Cr  Cr34  1  0.99676783  0.66539325  0.66533480  1
  Ni  Ni35  1  0.16658940  0.83570172  0.83115512  1
  Fe  Fe36  1  0.49863058  0.16350363  0.50009877  1
  Ni  Ni37  1  0.33446173  0.99733805  0.66583647  1
  Ni  Ni38  1  0.49916159  0.16379044  0.82971686  1
  Cr  Cr39  1  0.49814199  0.50181997  0.49894346  1
  Cr  Cr40  1  0.33235291  0.32663840  0.66542963  1
  Cr  Cr41  1  0.49800781  0.50062860  0.83340224  1
  Fe  Fe42  1  0.49958588  0.83420618  0.49880782  1
  Fe  Fe43  1  0.33405772  0.66848181  0.66603930  1
  Fe  Fe44  1  0.49933295  0.83274633  0.83116859  1
  Cr  Cr45  1  0.83334798  0.16337151  0.49939087  1
  Ni  Ni46  1  0.66063100  0.99727445  0.66581720  1
  Cr  Cr47  1  0.83255017  0.16229736  0.83028245  1
  Ni  Ni48  1  0.82906326  0.49715145  0.49982490  1
  Ni  Ni49  1  0.66509939  0.33020781  0.66502349  1
  Cr  Cr50  1  0.82915834  0.49764609  0.83046984  1
  Cr  Cr51  1  0.83001165  0.83551753  0.49747563  1
  Fe  Fe52  1  0.66445712  0.66731292  0.66589156  1
  Ni  Ni53  1  0.83245458  0.83549347  0.83190680  1
" 