6735,Ni33Fe49Cr17_0,-231.151354450269, 200.265338568372,Ni33Fe49Cr17,"# generated using pymatgen
 data_Cr11Fe26Ni17
_symmetry_space_group_name_H-M   'P 1'
_cell_length_a   7.44178810
_cell_length_b   7.44178810
_cell_length_c   10.52427766
_cell_angle_alpha   90.00000000
_cell_angle_beta   90.00000000
_cell_angle_gamma   90.00000000
_symmetry_Int_Tables_number   1
_chemical_formula_structural   Cr11Fe26Ni17
_chemical_formula_sum   'Cr11 Fe26 Ni17'
_cell_volume   582.83670908
_cell_formula_units_Z   1
loop_
 _symmetry_equiv_pos_site_id
 _symmetry_equiv_pos_as_xyz
  1  'x, y, z'
loop_
 _atom_site_type_symbol
 _atom_site_label
 _atom_site_symmetry_multiplicity
 _atom_site_fract_x
 _atom_site_fract_y
 _atom_site_fract_z
 _atom_site_occupancy
  Fe  Fe0  1  0.00207559  1.00003058  0.00234909  1
  Ni  Ni1  1  0.16801531  0.16867677  0.16773948  1
  Ni  Ni2  1  1.00071422  0.00320753  0.33546006  1
  Cr  Cr3  1  0.00381293  0.33608945  0.00183074  1
  Fe  Fe4  1  0.16808216  0.50108507  0.16934212  1
  Fe  Fe5  1  0.00212113  0.33406286  0.33421173  1
  Ni  Ni6  1  1.00056614  0.66804841  1.00039370  1
  Fe  Fe7  1  0.16762736  0.83569780  0.16912398  1
  Fe  Fe8  1  0.00447691  0.66865461  0.33549005  1
  Fe  Fe9  1  0.33533076  0.00258706  1.00152609  1
  Fe  Fe10  1  0.50211261  0.16796786  0.16892184  1
  Cr  Cr11  1  0.33413650  0.00252968  0.33474462  1
  Fe  Fe12  1  0.33436508  0.33358417  0.00259578  1
  Fe  Fe13  1  0.50087633  0.50060725  0.16961734  1
  Ni  Ni14  1  0.33445443  0.33713176  0.33410691  1
  Cr  Cr15  1  0.33456127  0.66853762  0.00232831  1
  Fe  Fe16  1  0.50167245  0.83651692  0.16768619  1
  Ni  Ni17  1  0.33335210  0.66492651  0.33539785  1
  Ni  Ni18  1  0.66675676  0.99985897  1.00149069  1
  Ni  Ni19  1  0.83534404  0.16735757  0.17066460  1
  Ni  Ni20  1  0.67075547  0.00430905  0.33547242  1
  Cr  Cr21  1  0.66810033  0.33556457  0.00287614  1
  Fe  Fe22  1  0.83613116  0.50065056  0.16785451  1
  Fe  Fe23  1  0.66746493  0.33303096  0.33522008  1
  Ni  Ni24  1  0.67016883  0.67008917  1.00137728  1
  Cr  Cr25  1  0.83552301  0.83667557  0.16711998  1
  Cr  Cr26  1  0.66756944  0.66791762  0.33410732  1
  Fe  Fe27  1  0.16821729  0.16771764  0.50132007  1
  Ni  Ni28  1  0.00263404  1.00129200  0.66784845  1
  Fe  Fe29  1  0.16938347  0.16790655  0.83503061  1
  Fe  Fe30  1  0.16946146  0.50259899  0.50099461  1
  Fe  Fe31  1  1.00080040  0.33493764  0.66862881  1
  Ni  Ni32  1  0.16650182  0.50313949  0.83435383  1
  Ni  Ni33  1  0.16623876  0.83404119  0.50202267  1
  Fe  Fe34  1  0.00332455  0.66931780  0.66917667  1
  Fe  Fe35  1  0.16706305  0.83485370  0.83361207  1
  Ni  Ni36  1  0.50411166  0.17021052  0.50188431  1
  Ni  Ni37  1  0.33395824  0.00213082  0.66955254  1
  Fe  Fe38  1  0.50065044  0.16604951  0.83429319  1
  Ni  Ni39  1  0.50067994  0.49935195  0.50055867  1
  Cr  Cr40  1  0.33407710  0.33408850  0.66855710  1
  Cr  Cr41  1  0.50170577  0.50191825  0.83476941  1
  Cr  Cr42  1  0.49988155  0.83571851  0.50221073  1
  Fe  Fe43  1  0.33228659  0.67084427  0.66775230  1
  Fe  Fe44  1  0.50240547  0.83727443  0.83503266  1
  Fe  Fe45  1  0.83431054  0.16715922  0.50140870  1
  Ni  Ni46  1  0.66849973  0.00244127  0.66812788  1
  Cr  Cr47  1  0.83472328  0.16687169  0.83377517  1
  Fe  Fe48  1  0.83554915  0.50066519  0.50227644  1
  Fe  Fe49  1  0.66940711  0.33268613  0.66698110  1
  Ni  Ni50  1  0.83726578  0.50390073  0.83513097  1
  Fe  Fe51  1  0.83709483  0.83726637  0.50152789  1
  Cr  Cr52  1  0.66962429  0.66839909  0.66962925  1
  Fe  Fe53  1  0.83562200  0.83346811  0.83614053  1
" 