6779,Ni33Fe60Cr6_0,-233.943772244278, 204.377471367645,Ni33Fe60Cr6,"# generated using pymatgen
 data_Cr5Fe32Ni17
_symmetry_space_group_name_H-M   'P 1'
_cell_length_a   7.41368673
_cell_length_b   7.41368673
_cell_length_c   10.48453632
_cell_angle_alpha   90.00000000
_cell_angle_beta   90.00000000
_cell_angle_gamma   90.00000000
_symmetry_Int_Tables_number   1
_chemical_formula_structural   Cr5Fe32Ni17
_chemical_formula_sum   'Cr5 Fe32 Ni17'
_cell_volume   576.25895848
_cell_formula_units_Z   1
loop_
 _symmetry_equiv_pos_site_id
 _symmetry_equiv_pos_as_xyz
  1  'x, y, z'
loop_
 _atom_site_type_symbol
 _atom_site_label
 _atom_site_symmetry_multiplicity
 _atom_site_fract_x
 _atom_site_fract_y
 _atom_site_fract_z
 _atom_site_occupancy
  Ni  Ni0  1  0.00460085  1.00270328  1.00265030  1
  Fe  Fe1  1  0.16948672  0.16848199  0.16904939  1
  Ni  Ni2  1  1.00289075  1.00297019  0.33800546  1
  Fe  Fe3  1  1.00248458  0.33769922  1.00278868  1
  Fe  Fe4  1  0.16993467  0.50468211  0.16935290  1
  Fe  Fe5  1  1.00116955  0.33622782  0.33764020  1
  Ni  Ni6  1  1.00341162  0.67073168  1.00278304  1
  Ni  Ni7  1  0.17006491  0.83764128  0.17093780  1
  Fe  Fe8  1  1.00336578  0.67089551  0.33636175  1
  Fe  Fe9  1  0.33673182  1.00288163  1.00311961  1
  Ni  Ni10  1  0.50488412  0.16978814  0.16920486  1
  Fe  Fe11  1  0.33718102  1.00169339  0.33677819  1
  Fe  Fe12  1  0.33610312  0.33600549  0.00453819  1
  Fe  Fe13  1  0.50420470  0.50425122  0.16922519  1
  Cr  Cr14  1  0.33737446  0.33758202  0.33790963  1
  Fe  Fe15  1  0.33582588  0.67191126  0.00424935  1
  Fe  Fe16  1  0.50356394  0.83740186  0.17041003  1
  Fe  Fe17  1  0.33710699  0.67332302  0.33737787  1
  Fe  Fe18  1  0.67052159  1.00314649  0.00368774  1
  Fe  Fe19  1  0.83688891  0.16912356  0.17051130  1
  Ni  Ni20  1  0.67092214  1.00272602  0.33657581  1
  Ni  Ni21  1  0.66936977  0.33731197  0.00415719  1
  Fe  Fe22  1  0.83665516  0.50381886  0.16936876  1
  Fe  Fe23  1  0.67230136  0.33615367  0.33663930  1
  Ni  Ni24  1  0.67122197  0.67012573  0.00480939  1
  Fe  Fe25  1  0.83732245  0.83785100  0.17015629  1
  Fe  Fe26  1  0.67032291  0.67075025  0.33736331  1
  Fe  Fe27  1  0.16850261  0.16886005  0.50247310  1
  Ni  Ni28  1  1.00121345  1.00121835  0.67014433  1
  Ni  Ni29  1  0.16829322  0.16748273  0.84059680  1
  Fe  Fe30  1  0.17020203  0.50661446  0.50265111  1
  Cr  Cr31  1  1.00353812  0.33733625  0.67106718  1
  Fe  Fe32  1  0.16851529  0.50601630  0.83879648  1
  Fe  Fe33  1  0.16936533  0.83532609  0.50262912  1
  Fe  Fe34  1  1.00325415  0.67248265  0.67099287  1
  Ni  Ni35  1  0.16949970  0.83826728  0.83681204  1
  Fe  Fe36  1  0.50725639  0.16969978  0.50213007  1
  Cr  Cr37  1  0.33745457  1.00278323  0.66945982  1
  Fe  Fe38  1  0.50523611  0.16823873  0.83920688  1
  Ni  Ni39  1  0.50672618  0.50543255  0.50355070  1
  Cr  Cr40  1  0.33779282  0.33843206  0.67006724  1
  Cr  Cr41  1  0.50668802  0.50487129  0.83699817  1
  Ni  Ni42  1  0.50324123  0.83585483  0.50199980  1
  Fe  Fe43  1  0.33643471  0.67257347  0.66916729  1
  Ni  Ni44  1  0.50327030  0.83770234  0.83841286  1
  Fe  Fe45  1  0.83504070  0.16886565  0.50270198  1
  Ni  Ni46  1  0.67189477  1.00218546  0.67133017  1
  Fe  Fe47  1  0.83642671  0.16851773  0.83758869  1
  Ni  Ni48  1  0.83516465  0.50292482  0.50235026  1
  Fe  Fe49  1  0.67180385  0.33565836  0.66958254  1
  Ni  Ni50  1  0.83704537  0.50342361  0.83779121  1
  Fe  Fe51  1  0.83586855  0.83701151  0.50350795  1
  Fe  Fe52  1  0.67110723  0.67160131  0.66954082  1
  Fe  Fe53  1  0.83758787  0.83707611  0.83713466  1
" 