7749,Ni33Fe7Cr59_1,-215.209963272704, 150.143472174889,Ni33Fe7Cr59,"# generated using pymatgen
 data_Cr11FeNi6
_symmetry_space_group_name_H-M   'P 1'
_cell_length_a   7.54148782
_cell_length_b   7.54148782
_cell_length_c   10.66527436
_cell_angle_alpha   90.00000000
_cell_angle_beta   90.00000000
_cell_angle_gamma   90.00000000
_symmetry_Int_Tables_number   1
_chemical_formula_structural   Cr11FeNi6
_chemical_formula_sum   'Cr33 Fe3 Ni18'
_cell_volume   606.57722487
_cell_formula_units_Z   3
loop_
 _symmetry_equiv_pos_site_id
 _symmetry_equiv_pos_as_xyz
  1  'x, y, z'
loop_
 _atom_site_type_symbol
 _atom_site_label
 _atom_site_symmetry_multiplicity
 _atom_site_fract_x
 _atom_site_fract_y
 _atom_site_fract_z
 _atom_site_occupancy
  Cr  Cr0  1  -0.00380634  -0.00492310  -0.00380718  1
  Cr  Cr1  1  0.16437108  0.16000649  0.16348568  1
  Fe  Fe2  1  -0.00467389  0.99154608  0.33019379  1
  Ni  Ni3  1  -0.00279118  0.32718521  0.99269984  1
  Cr  Cr4  1  0.16195400  0.49336564  0.15979526  1
  Cr  Cr5  1  0.99323216  0.32777373  0.32891664  1
  Cr  Cr6  1  -0.00198067  0.66217149  0.99412039  1
  Ni  Ni7  1  0.16229281  0.82787680  0.16897389  1
  Ni  Ni8  1  -0.00151877  0.66575728  0.32889805  1
  Cr  Cr9  1  0.32904487  0.99413601  -0.00209730  1
  Ni  Ni10  1  0.49294477  0.16129435  0.16164014  1
  Fe  Fe11  1  0.32912537  0.99213783  0.32903969  1
  Ni  Ni12  1  0.32834857  0.32644552  0.99343282  1
  Cr  Cr13  1  0.49503863  0.49583415  0.16314398  1
  Cr  Cr14  1  0.33003393  0.32996732  0.32933907  1
  Cr  Cr15  1  0.32595109  0.66286039  0.99367624  1
  Cr  Cr16  1  0.49581477  0.82718421  0.16233362  1
  Ni  Ni17  1  0.32706331  0.66637703  0.33116569  1
  Cr  Cr18  1  0.66159903  -0.00276840  0.99240819  1
  Cr  Cr19  1  0.83079977  0.16097807  0.16299515  1
  Cr  Cr20  1  0.66094403  -0.00230173  0.32894529  1
  Cr  Cr21  1  0.66300223  0.32568705  -0.00347036  1
  Cr  Cr22  1  0.82794481  0.49824111  0.16304192  1
  Cr  Cr23  1  0.66138946  0.32812849  0.33215206  1
  Ni  Ni24  1  0.66130962  0.66132096  -0.00394264  1
  Cr  Cr25  1  0.82811286  0.82599262  0.16166342  1
  Ni  Ni26  1  0.65947111  0.66561368  0.33058525  1
  Cr  Cr27  1  0.16014381  0.15779551  0.49511431  1
  Ni  Ni28  1  0.99253646  0.99490014  0.65920070  1
  Cr  Cr29  1  0.16375985  0.16370565  0.82711294  1
  Cr  Cr30  1  0.16231465  0.49339072  0.49680191  1
  Cr  Cr31  1  0.99318263  0.32949758  0.66247007  1
  Ni  Ni32  1  0.16164242  0.49276165  0.82764303  1
  Fe  Fe33  1  0.16155780  0.82739043  0.49433328  1
  Ni  Ni34  1  -0.00312459  0.66390709  0.66162994  1
  Cr  Cr35  1  0.15955386  0.83005246  0.82456716  1
  Cr  Cr36  1  0.49226430  0.16040479  0.49701147  1
  Cr  Cr37  1  0.33079001  0.99203153  0.66070093  1
  Ni  Ni38  1  0.49625104  0.16319869  0.82663379  1
  Ni  Ni39  1  0.49199183  0.49958364  0.49304234  1
  Ni  Ni40  1  0.32909605  0.32830883  0.66261476  1
  Cr  Cr41  1  0.49275878  0.49288641  0.82921070  1
  Ni  Ni42  1  0.49500507  0.82792119  0.49333965  1
  Cr  Cr43  1  0.32620255  0.65999553  0.66003398  1
  Cr  Cr44  1  0.49832585  0.82954543  0.82833242  1
  Ni  Ni45  1  0.82970005  0.15683568  0.49642044  1
  Ni  Ni46  1  0.66314097  -0.00291542  0.66160218  1
  Ni  Ni47  1  0.82861665  0.16104835  0.82510065  1
  Cr  Cr48  1  0.82815737  0.49870969  0.49178938  1
  Cr  Cr49  1  0.66120213  0.32670793  0.65671254  1
  Cr  Cr50  1  0.82887495  0.49738350  0.83060005  1
  Cr  Cr51  1  0.82819952  0.82884681  0.49673162  1
  Cr  Cr52  1  0.65921528  0.66202929  0.65954341  1
  Cr  Cr53  1  0.82711278  0.82967813  0.82586728  1
" 