4542,Ni33Fe27Cr39_13,-223.503436042418, 176.41446821223,Ni33Fe27Cr39,"# generated using pymatgen
 data_Cr23Fe14Ni17
_symmetry_space_group_name_H-M   'P 1'
_cell_length_a   7.48991963
_cell_length_b   7.48991963
_cell_length_c   10.59234592
_cell_angle_alpha   90.00000000
_cell_angle_beta   90.00000000
_cell_angle_gamma   90.00000000
_symmetry_Int_Tables_number   1
_chemical_formula_structural   Cr23Fe14Ni17
_chemical_formula_sum   'Cr23 Fe14 Ni17'
_cell_volume   594.21891270
_cell_formula_units_Z   1
loop_
 _symmetry_equiv_pos_site_id
 _symmetry_equiv_pos_as_xyz
  1  'x, y, z'
loop_
 _atom_site_type_symbol
 _atom_site_label
 _atom_site_symmetry_multiplicity
 _atom_site_fract_x
 _atom_site_fract_y
 _atom_site_fract_z
 _atom_site_occupancy
  Ni  Ni0  1  0.99823727  0.99572062  0.99486232  1
  Cr  Cr1  1  0.16632191  0.16575655  0.16461022  1
  Cr  Cr2  1  0.00137127  -0.00022529  0.33372617  1
  Cr  Cr3  1  -0.00147306  0.33045879  0.99787924  1
  Cr  Cr4  1  0.16775250  0.49891438  0.16242445  1
  Ni  Ni5  1  0.99724476  0.33200044  0.33126286  1
  Fe  Fe6  1  0.99630239  0.66683183  0.99676857  1
  Cr  Cr7  1  0.16676504  0.83088386  0.16417482  1
  Cr  Cr8  1  0.99769351  0.66388727  0.33178443  1
  Cr  Cr9  1  0.33191644  -0.00031948  0.99656013  1
  Fe  Fe10  1  0.49920620  0.16505938  0.16402097  1
  Ni  Ni11  1  0.33449804  -0.00078801  0.33271761  1
  Ni  Ni12  1  0.33552097  0.33259495  0.99672246  1
  Fe  Fe13  1  0.50055289  0.49666607  0.16211813  1
  Cr  Cr14  1  0.33273848  0.33002818  0.33220913  1
  Fe  Fe15  1  0.33562717  0.66587977  0.99633600  1
  Fe  Fe16  1  0.49838041  0.83462072  0.16451852  1
  Cr  Cr17  1  0.33398427  0.66667802  0.33202123  1
  Ni  Ni18  1  0.66391275  0.99670448  0.99745036  1
  Cr  Cr19  1  0.82748685  0.16446562  0.16595697  1
  Ni  Ni20  1  0.66081588  -0.00000366  0.33014784  1
  Ni  Ni21  1  0.66265612  0.33375527  0.99740414  1
  Fe  Fe22  1  0.83009486  0.49663861  0.16453052  1
  Ni  Ni23  1  0.66382141  0.33167137  0.33132890  1
  Fe  Fe24  1  0.66422603  0.66497054  0.99642599  1
  Cr  Cr25  1  0.82959116  0.83418650  0.16393996  1
  Cr  Cr26  1  0.66403687  0.66411621  0.33034121  1
  Fe  Fe27  1  0.16673791  0.16300478  0.49948978  1
  Fe  Fe28  1  0.00058633  0.99690785  0.66756646  1
  Ni  Ni29  1  0.16769571  0.16289827  0.83199135  1
  Cr  Cr30  1  0.16771822  0.50065944  0.49942079  1
  Cr  Cr31  1  0.99800730  0.32996100  0.66677177  1
  Cr  Cr32  1  0.16906251  0.50024975  0.83365729  1
  Fe  Fe33  1  0.16665627  0.83468293  0.50126176  1
  Fe  Fe34  1  -0.00041100  0.66737535  0.66686077  1
  Ni  Ni35  1  0.16398065  0.83098631  0.83024206  1
  Ni  Ni36  1  0.49838649  0.16488810  0.49722194  1
  Ni  Ni37  1  0.32959394  0.99736153  0.66597795  1
  Ni  Ni38  1  0.49877124  0.16727824  0.83322660  1
  Fe  Fe39  1  0.49992048  0.49627336  0.50046885  1
  Cr  Cr40  1  0.33442659  0.32861736  0.66637916  1
  Ni  Ni41  1  0.49877149  0.49809517  0.83178851  1
  Cr  Cr42  1  0.49739685  0.83395269  0.49843177  1
  Ni  Ni43  1  0.33164424  0.66771517  0.66650632  1
  Fe  Fe44  1  0.49624093  0.83243170  0.83179731  1
  Cr  Cr45  1  0.82743668  0.16490938  0.49717080  1
  Cr  Cr46  1  0.66217291  -0.00065631  0.66793212  1
  Cr  Cr47  1  0.82860763  0.16316706  0.83274740  1
  Cr  Cr48  1  0.83170940  0.49640962  0.49883054  1
  Ni  Ni49  1  0.66340464  0.33251737  0.66609424  1
  Fe  Fe50  1  0.83013921  0.49850945  0.83271537  1
  Cr  Cr51  1  0.83201811  0.83395870  0.49948687  1
  Cr  Cr52  1  0.66463514  0.66356984  0.66771994  1
  Ni  Ni53  1  0.83295767  0.83067279  0.83354900  1
" 