5541,Ni33Fe49Cr17_16,-231.456438367678, 197.030367074216,Ni33Fe49Cr17,"# generated using pymatgen
 data_Cr11Fe26Ni17
_symmetry_space_group_name_H-M   'P 1'
_cell_length_a   7.44578990
_cell_length_b   7.44578990
_cell_length_c   10.52993706
_cell_angle_alpha   90.00000000
_cell_angle_beta   90.00000000
_cell_angle_gamma   90.00000000
_symmetry_Int_Tables_number   1
_chemical_formula_structural   Cr11Fe26Ni17
_chemical_formula_sum   'Cr11 Fe26 Ni17'
_cell_volume   583.77746980
_cell_formula_units_Z   1
loop_
 _symmetry_equiv_pos_site_id
 _symmetry_equiv_pos_as_xyz
  1  'x, y, z'
loop_
 _atom_site_type_symbol
 _atom_site_label
 _atom_site_symmetry_multiplicity
 _atom_site_fract_x
 _atom_site_fract_y
 _atom_site_fract_z
 _atom_site_occupancy
  Ni  Ni0  1  0.99869998  0.99929732  1.00064028  1
  Cr  Cr1  1  0.16901573  0.16710214  0.16740117  1
  Ni  Ni2  1  1.00110520  0.99887096  0.33471493  1
  Fe  Fe3  1  1.00078900  0.33343884  1.00037705  1
  Fe  Fe4  1  0.16743320  0.50253666  0.16696310  1
  Fe  Fe5  1  0.00273472  0.33505404  0.33456844  1
  Fe  Fe6  1  1.00033741  0.66874225  1.00037635  1
  Cr  Cr7  1  0.16769622  0.83418672  0.16598001  1
  Ni  Ni8  1  1.00116361  0.66944075  0.33510219  1
  Ni  Ni9  1  0.33579188  0.00302778  0.99926256  1
  Ni  Ni10  1  0.50162820  0.16821900  0.16598034  1
  Ni  Ni11  1  0.33370814  1.00126526  0.33616099  1
  Ni  Ni12  1  0.33720261  0.33686322  1.00128472  1
  Fe  Fe13  1  0.50086193  0.50323464  0.16511825  1
  Cr  Cr14  1  0.33574904  0.33582516  0.33497480  1
  Fe  Fe15  1  0.33507087  0.66852185  0.99858910  1
  Cr  Cr16  1  0.50082166  0.83650846  0.16756533  1
  Fe  Fe17  1  0.33325478  0.66926345  0.33708415  1
  Ni  Ni18  1  0.66984606  1.00137104  1.00072599  1
  Fe  Fe19  1  0.83465095  0.16411127  0.16646542  1
  Fe  Fe20  1  0.66863105  1.00040049  0.33328967  1
  Fe  Fe21  1  0.66754403  0.33248015  1.00094202  1
  Fe  Fe22  1  0.83627747  0.50307493  0.16740583  1
  Cr  Cr23  1  0.66682614  0.33616858  0.33055349  1
  Fe  Fe24  1  0.66906420  0.66942300  1.00047256  1
  Ni  Ni25  1  0.83458947  0.83220144  0.16919717  1
  Fe  Fe26  1  0.66841035  0.67042221  0.33513945  1
  Fe  Fe27  1  0.16703563  0.16791626  0.50127894  1
  Cr  Cr28  1  1.00104130  0.99900365  0.66923756  1
  Cr  Cr29  1  0.16946713  0.16769733  0.83458193  1
  Fe  Fe30  1  0.16827301  0.50247343  0.50293615  1
  Ni  Ni31  1  1.00128724  0.33546165  0.66842031  1
  Fe  Fe32  1  0.16754969  0.50176323  0.83452961  1
  Fe  Fe33  1  0.16824308  0.83358528  0.50136239  1
  Ni  Ni34  1  0.00353319  0.66839847  0.66968816  1
  Ni  Ni35  1  0.16869747  0.83173063  0.83587926  1
  Cr  Cr36  1  0.50148034  0.16673770  0.50473440  1
  Fe  Fe37  1  0.33541314  0.99820574  0.66932173  1
  Ni  Ni38  1  0.50230213  0.16913682  0.83449458  1
  Fe  Fe39  1  0.50082358  0.50255542  0.50297285  1
  Fe  Fe40  1  0.33399331  0.33793345  0.66916925  1
  Fe  Fe41  1  0.50052956  0.50115783  0.83538343  1
  Fe  Fe42  1  0.50075798  0.83347702  0.50056280  1
  Ni  Ni43  1  0.33413841  0.66829309  0.66804831  1
  Fe  Fe44  1  0.50084595  0.83729687  0.83587129  1
  Cr  Cr45  1  0.83421492  0.16890889  0.50157779  1
  Fe  Fe46  1  0.66814426  1.00099299  0.67175480  1
  Ni  Ni47  1  0.83258619  0.16900336  0.83512805  1
  Cr  Cr48  1  0.83610601  0.50258309  0.50283109  1
  Ni  Ni49  1  0.66658449  0.33478943  0.67180063  1
  Fe  Fe50  1  0.83652394  0.50013443  0.83436179  1
  Fe  Fe51  1  0.83493908  0.83474341  0.50018594  1
  Cr  Cr52  1  0.66802206  0.66904089  0.66923988  1
  Ni  Ni53  1  0.83564796  0.83301297  0.83539662  1
" 