1186,Ni33Fe60Cr6_18,-234.044993982588, 200.293418797595,Ni33Fe60Cr6,"# generated using pymatgen
 data_Cr5Fe32Ni17
_symmetry_space_group_name_H-M   'P 1'
_cell_length_a   7.41685163
_cell_length_b   7.41685163
_cell_length_c   10.48901216
_cell_angle_alpha   90.00000000
_cell_angle_beta   90.00000000
_cell_angle_gamma   90.00000000
_symmetry_Int_Tables_number   1
_chemical_formula_structural   Cr5Fe32Ni17
_chemical_formula_sum   'Cr5 Fe32 Ni17'
_cell_volume   576.99728731
_cell_formula_units_Z   1
loop_
 _symmetry_equiv_pos_site_id
 _symmetry_equiv_pos_as_xyz
  1  'x, y, z'
loop_
 _atom_site_type_symbol
 _atom_site_label
 _atom_site_symmetry_multiplicity
 _atom_site_fract_x
 _atom_site_fract_y
 _atom_site_fract_z
 _atom_site_occupancy
  Fe  Fe0  1  0.00421094  1.00224135  0.00347980  1
  Fe  Fe1  1  0.17056565  0.17168153  0.16964259  1
  Cr  Cr2  1  1.00134451  1.00232741  0.33712254  1
  Fe  Fe3  1  0.00389331  0.33980895  1.00307221  1
  Ni  Ni4  1  0.16883542  0.50351873  0.16982332  1
  Fe  Fe5  1  0.00343120  0.34014596  0.33651383  1
  Ni  Ni6  1  1.00272239  0.67025214  0.00442141  1
  Fe  Fe7  1  0.17120202  0.83399341  0.16955343  1
  Fe  Fe8  1  0.00423651  0.66813034  0.33619885  1
  Fe  Fe9  1  0.33686899  1.00172224  0.00350810  1
  Fe  Fe10  1  0.50322657  0.17139924  0.17062606  1
  Ni  Ni11  1  0.33759072  1.00210444  0.33565198  1
  Ni  Ni12  1  0.33737947  0.33713168  0.00463387  1
  Fe  Fe13  1  0.50309185  0.50417296  0.16867443  1
  Fe  Fe14  1  0.33770764  0.33734832  0.33488152  1
  Ni  Ni15  1  0.33718044  0.66779632  0.00367084  1
  Fe  Fe16  1  0.50291334  0.83434671  0.17060340  1
  Ni  Ni17  1  0.33763690  0.66876850  0.33618159  1
  Fe  Fe18  1  0.66912171  1.00220146  0.00338644  1
  Fe  Fe19  1  0.83636421  0.17233316  0.16894457  1
  Fe  Fe20  1  0.66677350  1.00236933  0.33702902  1
  Fe  Fe21  1  0.66961820  0.33993404  1.00334429  1
  Ni  Ni22  1  0.83713544  0.50386330  0.16936381  1
  Fe  Fe23  1  0.66942558  0.33743822  0.33695862  1
  Ni  Ni24  1  0.67021468  0.66995687  0.00390870  1
  Fe  Fe25  1  0.83624188  0.83449322  0.16847932  1
  Fe  Fe26  1  0.66977876  0.67034591  0.33618299  1
  Cr  Cr27  1  0.17221654  0.17007576  0.50314391  1
  Cr  Cr28  1  1.00242322  1.00250992  0.67010071  1
  Fe  Fe29  1  0.17044361  0.17191751  0.83776261  1
  Fe  Fe30  1  0.17014898  0.50599320  0.50214334  1
  Ni  Ni31  1  1.00140381  0.33873358  0.67060584  1
  Fe  Fe32  1  0.16957483  0.50500372  0.83836952  1
  Fe  Fe33  1  0.17333304  0.83309584  0.50342256  1
  Ni  Ni34  1  0.00348200  0.66843525  0.66903384  1
  Fe  Fe35  1  0.17092232  0.83312238  0.83720734  1
  Ni  Ni36  1  0.50290122  0.16806808  0.50216601  1
  Ni  Ni37  1  0.33795711  1.00158652  0.67148313  1
  Fe  Fe38  1  0.50356516  0.17151601  0.83813401  1
  Fe  Fe39  1  0.50463823  0.50465940  0.50275178  1
  Cr  Cr40  1  0.33843936  0.33930407  0.66985909  1
  Ni  Ni41  1  0.50541246  0.50470028  0.83755860  1
  Ni  Ni42  1  0.50168293  0.83664707  0.50355323  1
  Ni  Ni43  1  0.33701893  0.67010226  0.67034557  1
  Fe  Fe44  1  0.50289282  0.83385293  0.83700108  1
  Fe  Fe45  1  0.83359494  0.17390792  0.50233213  1
  Cr  Cr46  1  0.66940792  0.00408739  0.66914820  1
  Fe  Fe47  1  0.83612584  0.17304488  0.83858088  1
  Ni  Ni48  1  0.83745284  0.50432614  0.50365785  1
  Fe  Fe49  1  0.67115387  0.33930672  0.66975835  1
  Ni  Ni50  1  0.83698676  0.50413662  0.83707264  1
  Fe  Fe51  1  0.83458379  0.83334067  0.50252621  1
  Fe  Fe52  1  0.66978579  0.66825506  0.67054357  1
  Fe  Fe53  1  0.83647122  0.83317649  0.83861186  1
" 