6133,Ni33Fe49Cr17_9,-231.159400944983, 195.426457130289,Ni33Fe49Cr17,"# generated using pymatgen
 data_Cr11Fe26Ni17
_symmetry_space_group_name_H-M   'P 1'
_cell_length_a   7.44285313
_cell_length_b   7.44285313
_cell_length_c   10.52578384
_cell_angle_alpha   90.00000000
_cell_angle_beta   90.00000000
_cell_angle_gamma   90.00000000
_symmetry_Int_Tables_number   1
_chemical_formula_structural   Cr11Fe26Ni17
_chemical_formula_sum   'Cr11 Fe26 Ni17'
_cell_volume   583.08698115
_cell_formula_units_Z   1
loop_
 _symmetry_equiv_pos_site_id
 _symmetry_equiv_pos_as_xyz
  1  'x, y, z'
loop_
 _atom_site_type_symbol
 _atom_site_label
 _atom_site_symmetry_multiplicity
 _atom_site_fract_x
 _atom_site_fract_y
 _atom_site_fract_z
 _atom_site_occupancy
  Fe  Fe0  1  0.00305379  1.00156020  1.00156116  1
  Fe  Fe1  1  0.16806638  0.16820313  0.16821170  1
  Fe  Fe2  1  0.00266576  0.00227034  0.33495609  1
  Fe  Fe3  1  0.00361080  0.33482298  0.00269642  1
  Fe  Fe4  1  0.16917274  0.50113779  0.16631498  1
  Cr  Cr5  1  1.00037665  0.33423237  0.33549447  1
  Fe  Fe6  1  0.00461272  0.66849501  0.00300958  1
  Fe  Fe7  1  0.16899876  0.83553276  0.16646335  1
  Cr  Cr8  1  1.00128311  0.66786490  0.33397871  1
  Ni  Ni9  1  0.33345017  0.99994878  1.00088225  1
  Cr  Cr10  1  0.49943286  0.16787643  0.16965800  1
  Ni  Ni11  1  0.33533097  0.00183732  0.33595181  1
  Fe  Fe12  1  0.33390780  0.33567120  1.00065050  1
  Ni  Ni13  1  0.50179616  0.50174192  0.16915479  1
  Fe  Fe14  1  0.33596799  0.33336987  0.33620887  1
  Ni  Ni15  1  0.33344815  0.66934838  1.00096794  1
  Fe  Fe16  1  0.50165677  0.83446948  0.16833983  1
  Cr  Cr17  1  0.33616900  0.66947300  0.33547932  1
  Fe  Fe18  1  0.66696247  1.00133018  1.00113031  1
  Fe  Fe19  1  0.83546707  0.16784355  0.16841688  1
  Ni  Ni20  1  0.66726278  0.00236578  0.33476691  1
  Cr  Cr21  1  0.66923763  0.33432058  1.00111922  1
  Ni  Ni22  1  0.83526759  0.50288608  0.16865375  1
  Fe  Fe23  1  0.66743731  0.33546424  0.33529146  1
  Cr  Cr24  1  0.66620639  0.66856011  0.00365910  1
  Fe  Fe25  1  0.83421545  0.83556924  0.16856582  1
  Fe  Fe26  1  0.66755499  0.66792687  0.33460410  1
  Ni  Ni27  1  0.16979526  0.16866387  0.50116398  1
  Ni  Ni28  1  0.00174655  0.00272875  0.66763773  1
  Fe  Fe29  1  0.16845793  0.16782474  0.83493327  1
  Fe  Fe30  1  0.16928494  0.50044043  0.50355783  1
  Fe  Fe31  1  0.00298474  0.33389626  0.66707985  1
  Fe  Fe32  1  0.17058608  0.50221927  0.83500334  1
  Fe  Fe33  1  0.16917894  0.83638076  0.50245644  1
  Fe  Fe34  1  0.00276607  0.66809654  0.66756239  1
  Ni  Ni35  1  0.16903238  0.83454387  0.83536215  1
  Ni  Ni36  1  0.49969351  0.16790673  0.49975695  1
  Cr  Cr37  1  0.33503293  1.00096838  0.66791434  1
  Ni  Ni38  1  0.49999674  0.16714809  0.83572743  1
  Fe  Fe39  1  0.50172842  0.50134740  0.50165292  1
  Ni  Ni40  1  0.33354031  0.33644022  0.66843166  1
  Fe  Fe41  1  0.49826611  0.50294599  0.83467123  1
  Ni  Ni42  1  0.50218077  0.83605148  0.50138364  1
  Fe  Fe43  1  0.33574323  0.66806769  0.66887913  1
  Ni  Ni44  1  0.50014000  0.83647365  0.83547234  1
  Fe  Fe45  1  0.83440833  0.16759071  0.50181863  1
  Ni  Ni46  1  0.66884827  1.00133569  0.66963495  1
  Fe  Fe47  1  0.83562544  0.16579690  0.83463876  1
  Ni  Ni48  1  0.83491329  0.50216808  0.50182569  1
  Cr  Cr49  1  0.66807353  0.33421184  0.66740754  1
  Cr  Cr50  1  0.83700132  0.50231884  0.83382489  1
  Cr  Cr51  1  0.83406191  0.83413763  0.50295527  1
  Ni  Ni52  1  0.66695464  0.66833965  0.66701994  1
  Cr  Cr53  1  0.83511502  0.83560296  0.83380929  1
" 