2119,Ni33Fe49Cr17_10,-230.943448262305, 195.276292000093,Ni33Fe49Cr17,"# generated using pymatgen
 data_Cr11Fe26Ni17
_symmetry_space_group_name_H-M   'P 1'
_cell_length_a   7.43530596
_cell_length_b   7.43530596
_cell_length_c   10.51511053
_cell_angle_alpha   90.00000000
_cell_angle_beta   90.00000000
_cell_angle_gamma   90.00000000
_symmetry_Int_Tables_number   1
_chemical_formula_structural   Cr11Fe26Ni17
_chemical_formula_sum   'Cr11 Fe26 Ni17'
_cell_volume   581.31500216
_cell_formula_units_Z   1
loop_
 _symmetry_equiv_pos_site_id
 _symmetry_equiv_pos_as_xyz
  1  'x, y, z'
loop_
 _atom_site_type_symbol
 _atom_site_label
 _atom_site_symmetry_multiplicity
 _atom_site_fract_x
 _atom_site_fract_y
 _atom_site_fract_z
 _atom_site_occupancy
  Fe  Fe0  1  0.00374314  0.00507772  1.00165087  1
  Ni  Ni1  1  0.16981868  0.16895466  0.16945750  1
  Ni  Ni2  1  0.00389117  0.00337812  0.33610524  1
  Ni  Ni3  1  0.00240637  0.33464409  0.00227763  1
  Fe  Fe4  1  0.16942955  0.50166045  0.16817567  1
  Fe  Fe5  1  0.00307860  0.33474853  0.33376385  1
  Fe  Fe6  1  0.00480591  0.66589014  1.00141746  1
  Fe  Fe7  1  0.17045036  0.83543277  0.16940684  1
  Fe  Fe8  1  0.00381867  0.66891087  0.33513268  1
  Fe  Fe9  1  0.33436644  0.00289318  0.00229396  1
  Fe  Fe10  1  0.50237768  0.16958808  0.16883939  1
  Fe  Fe11  1  0.33481804  1.00139495  0.33509199  1
  Ni  Ni12  1  0.33362497  0.33597790  0.00238645  1
  Ni  Ni13  1  0.50158296  0.50038742  0.16995040  1
  Fe  Fe14  1  0.33533183  0.33568346  0.33404851  1
  Fe  Fe15  1  0.33405587  0.66731311  0.00241104  1
  Fe  Fe16  1  0.49990815  0.83603271  0.16989529  1
  Ni  Ni17  1  0.33584199  0.66912374  0.33587743  1
  Fe  Fe18  1  0.66829848  0.00552142  0.00283905  1
  Fe  Fe19  1  0.83517625  0.17060259  0.16891171  1
  Ni  Ni20  1  0.66825531  0.00225047  0.33408255  1
  Ni  Ni21  1  0.67037484  0.33525716  1.00168446  1
  Fe  Fe22  1  0.83577490  0.49919189  0.16893321  1
  Ni  Ni23  1  0.66881757  0.33604683  0.33352670  1
  Cr  Cr24  1  0.66680259  0.66713521  0.00220817  1
  Cr  Cr25  1  0.83661424  0.83560086  0.17046644  1
  Fe  Fe26  1  0.66663914  0.66839914  0.33491610  1
  Fe  Fe27  1  0.16802401  0.16785349  0.50090770  1
  Ni  Ni28  1  0.00466676  0.00251507  0.66971697  1
  Ni  Ni29  1  0.16829089  0.16868762  0.83564454  1
  Fe  Fe30  1  0.17087517  0.50335074  0.50167649  1
  Cr  Cr31  1  0.00339153  0.33365416  0.67051592  1
  Ni  Ni32  1  0.16963710  0.50334143  0.83637953  1
  Ni  Ni33  1  0.16881264  0.83469228  0.50116539  1
  Fe  Fe34  1  0.00394353  0.67021208  0.66985231  1
  Ni  Ni35  1  0.16848238  0.83437399  0.83657111  1
  Cr  Cr36  1  0.50096390  0.17098697  0.50022568  1
  Cr  Cr37  1  0.33162566  1.00037881  0.66810496  1
  Cr  Cr38  1  0.50221157  0.17145781  0.83757794  1
  Fe  Fe39  1  0.50094095  0.50403036  0.50147293  1
  Fe  Fe40  1  0.33521027  0.33776545  0.66957603  1
  Fe  Fe41  1  0.50147356  0.50226339  0.83538159  1
  Fe  Fe42  1  0.50100529  0.83267959  0.50069449  1
  Fe  Fe43  1  0.33488488  0.66833145  0.66844539  1
  Fe  Fe44  1  0.50009702  0.83336411  0.83581234  1
  Cr  Cr45  1  0.83553417  0.16758316  0.50132855  1
  Cr  Cr46  1  0.67041995  1.00045123  0.66992715  1
  Ni  Ni47  1  0.83583353  0.17002830  0.83696293  1
  Cr  Cr48  1  0.83408706  0.50399299  0.50095037  1
  Fe  Fe49  1  0.66831853  0.33792804  0.67039991  1
  Ni  Ni50  1  0.83514865  0.50134144  0.83572449  1
  Cr  Cr51  1  0.83737153  0.83482666  0.50219526  1
  Ni  Ni52  1  0.66588903  0.66673724  0.66855856  1
  Cr  Cr53  1  0.83802094  0.83533888  0.83374504  1
" 