3481,Ni33Fe49Cr17_2,-230.935292992317, 198.55000761015,Ni33Fe49Cr17,"# generated using pymatgen
 data_Cr11Fe26Ni17
_symmetry_space_group_name_H-M   'P 1'
_cell_length_a   7.43740381
_cell_length_b   7.43740381
_cell_length_c   10.51807733
_cell_angle_alpha   90.00000000
_cell_angle_beta   90.00000000
_cell_angle_gamma   90.00000000
_symmetry_Int_Tables_number   1
_chemical_formula_structural   Cr11Fe26Ni17
_chemical_formula_sum   'Cr11 Fe26 Ni17'
_cell_volume   581.80718869
_cell_formula_units_Z   1
loop_
 _symmetry_equiv_pos_site_id
 _symmetry_equiv_pos_as_xyz
  1  'x, y, z'
loop_
 _atom_site_type_symbol
 _atom_site_label
 _atom_site_symmetry_multiplicity
 _atom_site_fract_x
 _atom_site_fract_y
 _atom_site_fract_z
 _atom_site_occupancy
  Fe  Fe0  1  1.00130653  0.00244372  0.00380619  1
  Fe  Fe1  1  0.16928930  0.16799202  0.16748196  1
  Cr  Cr2  1  0.99962386  0.00266399  0.33471324  1
  Fe  Fe3  1  0.99937322  0.33345713  1.00006539  1
  Cr  Cr4  1  0.16720686  0.50217871  0.16901263  1
  Fe  Fe5  1  0.00265104  0.33497878  0.33778845  1
  Fe  Fe6  1  1.00071104  0.66902652  1.00014908  1
  Fe  Fe7  1  0.16945361  0.83433399  0.16781185  1
  Fe  Fe8  1  0.00424201  0.66839967  0.33771482  1
  Ni  Ni9  1  0.33879763  1.00191748  0.00424779  1
  Fe  Fe10  1  0.50385618  0.16969888  0.16896737  1
  Cr  Cr11  1  0.33609966  1.00131465  0.33541909  1
  Cr  Cr12  1  0.33626428  0.33805675  1.00099936  1
  Fe  Fe13  1  0.50225034  0.50392119  0.17071862  1
  Ni  Ni14  1  0.33451024  0.33797622  0.33534674  1
  Fe  Fe15  1  0.33852114  0.67159204  0.00248343  1
  Ni  Ni16  1  0.50273222  0.83691858  0.16998029  1
  Ni  Ni17  1  0.33561643  0.66658123  0.33559879  1
  Ni  Ni18  1  0.66947355  1.00114692  0.00283823  1
  Fe  Fe19  1  0.83331004  0.16795878  0.16748920  1
  Ni  Ni20  1  0.67018302  1.00172319  0.33327989  1
  Fe  Fe21  1  0.66922875  0.33379037  1.00077455  1
  Cr  Cr22  1  0.83419227  0.50222321  0.17021147  1
  Fe  Fe23  1  0.66747897  0.33450692  0.33575340  1
  Fe  Fe24  1  0.66610028  0.67004591  1.00089106  1
  Fe  Fe25  1  0.83376788  0.83498157  0.16707268  1
  Fe  Fe26  1  0.66553092  0.66919531  0.33557776  1
  Fe  Fe27  1  0.16740824  0.17133492  0.50416095  1
  Fe  Fe28  1  0.00403183  1.00167872  0.66729169  1
  Cr  Cr29  1  0.17075851  0.16816730  0.83281642  1
  Fe  Fe30  1  0.16843244  0.50217443  0.50190522  1
  Ni  Ni31  1  1.00043620  0.33821347  0.66790910  1
  Ni  Ni32  1  0.16576260  0.50108456  0.83517148  1
  Ni  Ni33  1  0.16928197  0.83581297  0.50266076  1
  Ni  Ni34  1  1.00028385  0.66616780  0.66907996  1
  Cr  Cr35  1  0.16923464  0.83620112  0.83658930  1
  Cr  Cr36  1  0.50062115  0.16906107  0.50235654  1
  Ni  Ni37  1  0.33731273  0.00201948  0.66709057  1
  Fe  Fe38  1  0.50360486  0.16802846  0.83510007  1
  Ni  Ni39  1  0.50353962  0.50027042  0.50015642  1
  Ni  Ni40  1  0.33440988  0.33706682  0.66871399  1
  Fe  Fe41  1  0.50279180  0.50327305  0.83435943  1
  Fe  Fe42  1  0.50202414  0.83193146  0.50078346  1
  Cr  Cr43  1  0.33535657  0.66727823  0.66848983  1
  Ni  Ni44  1  0.50343002  0.83771195  0.83517232  1
  Fe  Fe45  1  0.83532935  0.17122316  0.50199702  1
  Cr  Cr46  1  0.67020479  1.00030857  0.66938817  1
  Fe  Fe47  1  0.83545667  0.16844262  0.83603305  1
  Ni  Ni48  1  0.83480401  0.50088279  0.50099199  1
  Fe  Fe49  1  0.66859637  0.33847455  0.66894110  1
  Ni  Ni50  1  0.83477792  0.50170924  0.83535457  1
  Cr  Cr51  1  0.83497799  0.83192407  0.50242214  1
  Fe  Fe52  1  0.66909119  0.66458274  0.66982123  1
  Ni  Ni53  1  0.83388527  0.83356820  0.83666577  1
" 