1240,Ni33Fe49Cr17_11,-231.135592482242, 195.299609605778,Ni33Fe49Cr17,"# generated using pymatgen
 data_Cr11Fe26Ni17
_symmetry_space_group_name_H-M   'P 1'
_cell_length_a   7.44178843
_cell_length_b   7.44178843
_cell_length_c   10.52427813
_cell_angle_alpha   90.00000000
_cell_angle_beta   90.00000000
_cell_angle_gamma   90.00000000
_symmetry_Int_Tables_number   1
_chemical_formula_structural   Cr11Fe26Ni17
_chemical_formula_sum   'Cr11 Fe26 Ni17'
_cell_volume   582.83678573
_cell_formula_units_Z   1
loop_
 _symmetry_equiv_pos_site_id
 _symmetry_equiv_pos_as_xyz
  1  'x, y, z'
loop_
 _atom_site_type_symbol
 _atom_site_label
 _atom_site_symmetry_multiplicity
 _atom_site_fract_x
 _atom_site_fract_y
 _atom_site_fract_z
 _atom_site_occupancy
  Ni  Ni0  1  0.99990156  0.00290519  1.00154650  1
  Ni  Ni1  1  0.16664938  0.16903843  0.16720725  1
  Fe  Fe2  1  0.00172916  1.00167313  0.33446682  1
  Ni  Ni3  1  1.00135245  0.33481822  0.00239996  1
  Fe  Fe4  1  0.16858454  0.50156385  0.16688898  1
  Cr  Cr5  1  0.00268595  0.33600458  0.33634026  1
  Fe  Fe6  1  0.99923318  0.66851162  1.00051453  1
  Cr  Cr7  1  0.16765427  0.83513579  0.16824267  1
  Ni  Ni8  1  0.00286646  0.66923661  0.33302068  1
  Cr  Cr9  1  0.33599516  0.00204184  1.00016044  1
  Fe  Fe10  1  0.50101193  0.16692826  0.16763678  1
  Fe  Fe11  1  0.33467841  0.99992194  0.33447071  1
  Fe  Fe12  1  0.33418383  0.33516390  0.00226873  1
  Ni  Ni13  1  0.50338172  0.50197853  0.16702786  1
  Cr  Cr14  1  0.33421785  0.33613629  0.33388666  1
  Cr  Cr15  1  0.33598415  0.66785978  1.00124460  1
  Ni  Ni16  1  0.50366070  0.83426268  0.16896306  1
  Fe  Fe17  1  0.33661455  0.66941965  0.33542790  1
  Fe  Fe18  1  0.67058583  1.00048019  1.00159359  1
  Fe  Fe19  1  0.83477223  0.16663149  0.16696959  1
  Ni  Ni20  1  0.66668173  0.99858336  0.33147501  1
  Fe  Fe21  1  0.66913536  0.33532446  1.00145485  1
  Fe  Fe22  1  0.83593779  0.50365696  0.16666855  1
  Cr  Cr23  1  0.66825991  0.33509168  0.33408009  1
  Ni  Ni24  1  0.66896279  0.66892827  0.00216174  1
  Fe  Fe25  1  0.83393865  0.83483199  0.16783104  1
  Fe  Fe26  1  0.66785168  0.66895783  0.33301415  1
  Fe  Fe27  1  0.16816038  0.16517092  0.50231876  1
  Ni  Ni28  1  0.00238707  1.00055108  0.66849412  1
  Fe  Fe29  1  0.16505195  0.16946063  0.83588028  1
  Ni  Ni30  1  0.16803395  0.50533251  0.50157670  1
  Ni  Ni31  1  0.00297970  0.33558879  0.66856257  1
  Ni  Ni32  1  0.16650600  0.50112218  0.83696582  1
  Ni  Ni33  1  0.16968906  0.83339254  0.50227932  1
  Ni  Ni34  1  0.00390505  0.66858294  0.67075867  1
  Fe  Fe35  1  0.16605730  0.83507677  0.83396455  1
  Cr  Cr36  1  0.50327418  0.16557153  0.50210497  1
  Fe  Fe37  1  0.33364109  0.99982304  0.66952894  1
  Fe  Fe38  1  0.50302831  0.16958121  0.83400308  1
  Fe  Fe39  1  0.50107565  0.50589203  0.50217451  1
  Cr  Cr40  1  0.33346541  0.33703117  0.66802445  1
  Fe  Fe41  1  0.50321277  0.50136954  0.83611242  1
  Ni  Ni42  1  0.50010911  0.83476456  0.50203932  1
  Fe  Fe43  1  0.33387583  0.66971990  0.66907889  1
  Fe  Fe44  1  0.50312362  0.83368501  0.83421481  1
  Cr  Cr45  1  0.83470309  0.16723088  0.50427567  1
  Ni  Ni46  1  0.66756774  1.00003883  0.67142703  1
  Fe  Fe47  1  0.83678415  0.16929135  0.83384546  1
  Cr  Cr48  1  0.83547924  0.50286033  0.50518432  1
  Ni  Ni49  1  0.66789564  0.33555643  0.67041789  1
  Fe  Fe50  1  0.83592068  0.50115960  0.83482064  1
  Cr  Cr51  1  0.83454552  0.83504140  0.50062723  1
  Fe  Fe52  1  0.66840703  0.66900310  0.67088726  1
  Fe  Fe53  1  0.83625364  0.83465957  0.83511363  1
" 