4301,Ni33Fe7Cr59_9,-215.306116365621, 148.549237361001,Ni33Fe7Cr59,"# generated using pymatgen
 data_Cr11FeNi6
_symmetry_space_group_name_H-M   'P 1'
_cell_length_a   7.53615354
_cell_length_b   7.53615354
_cell_length_c   10.65773054
_cell_angle_alpha   90.00000000
_cell_angle_beta   90.00000000
_cell_angle_gamma   90.00000000
_symmetry_Int_Tables_number   1
_chemical_formula_structural   Cr11FeNi6
_chemical_formula_sum   'Cr33 Fe3 Ni18'
_cell_volume   605.29099361
_cell_formula_units_Z   3
loop_
 _symmetry_equiv_pos_site_id
 _symmetry_equiv_pos_as_xyz
  1  'x, y, z'
loop_
 _atom_site_type_symbol
 _atom_site_label
 _atom_site_symmetry_multiplicity
 _atom_site_fract_x
 _atom_site_fract_y
 _atom_site_fract_z
 _atom_site_occupancy
  Cr  Cr0  1  0.99375480  0.99337919  -0.00455297  1
  Cr  Cr1  1  0.16508298  0.16340732  0.16430136  1
  Cr  Cr2  1  0.99295713  0.99313076  0.32805108  1
  Cr  Cr3  1  -0.00388994  0.33050434  0.99382229  1
  Cr  Cr4  1  0.16648966  0.49628464  0.16161128  1
  Cr  Cr5  1  0.99416850  0.33067088  0.33067857  1
  Ni  Ni6  1  0.99410255  0.66293496  -0.00435385  1
  Cr  Cr7  1  0.16024702  0.82661492  0.16046826  1
  Cr  Cr8  1  0.99057537  0.66241796  0.32941357  1
  Cr  Cr9  1  0.33227199  -0.00409340  0.99384303  1
  Ni  Ni10  1  0.49649361  0.16700604  0.16135118  1
  Cr  Cr11  1  0.33297198  -0.00170281  0.33006221  1
  Ni  Ni12  1  0.33234677  0.33088164  -0.00154978  1
  Ni  Ni13  1  0.49515582  0.49145702  0.15979376  1
  Ni  Ni14  1  0.33443734  0.32731474  0.32715037  1
  Ni  Ni15  1  0.33124152  0.65998068  0.99365248  1
  Cr  Cr16  1  0.49777702  0.82709590  0.15970450  1
  Cr  Cr17  1  0.33243190  0.66056088  0.32903503  1
  Ni  Ni18  1  0.66070928  0.99310089  -0.00362475  1
  Cr  Cr19  1  0.82435561  0.15986708  0.16030506  1
  Cr  Cr20  1  0.66045476  0.99437955  0.32899988  1
  Fe  Fe21  1  0.65791127  0.32989088  -0.00222936  1
  Cr  Cr22  1  0.82501528  0.49747863  0.16036589  1
  Ni  Ni23  1  0.65750450  0.32860055  0.32888494  1
  Ni  Ni24  1  0.66096338  0.66394819  -0.00349039  1
  Ni  Ni25  1  0.82740783  0.82776676  0.15887045  1
  Cr  Cr26  1  0.66337217  0.66157670  0.32976911  1
  Cr  Cr27  1  0.16433868  0.16253093  0.49295655  1
  Cr  Cr28  1  0.99410485  0.99497180  0.66276622  1
  Cr  Cr29  1  0.16217237  0.16182522  0.82913658  1
  Cr  Cr30  1  0.16333526  0.49594998  0.49432466  1
  Cr  Cr31  1  0.99332715  0.33028184  0.66168446  1
  Cr  Cr32  1  0.16471262  0.49875669  0.83040403  1
  Cr  Cr33  1  0.16384255  0.82771951  0.49596373  1
  Cr  Cr34  1  0.99326208  0.66098352  0.66080968  1
  Fe  Fe35  1  0.16504993  0.82549374  0.82980760  1
  Ni  Ni36  1  0.49786793  0.16169493  0.49488094  1
  Cr  Cr37  1  0.33321138  0.99299335  0.66245826  1
  Cr  Cr38  1  0.49895182  0.16090210  0.82938578  1
  Cr  Cr39  1  0.49695889  0.49563072  0.49606376  1
  Cr  Cr40  1  0.32988903  0.32876857  0.66144001  1
  Cr  Cr41  1  0.49582862  0.49921146  0.83005375  1
  Ni  Ni42  1  0.49909106  0.82973924  0.49960785  1
  Ni  Ni43  1  0.33352304  0.66459812  0.66368636  1
  Ni  Ni44  1  0.49611570  0.82677770  0.82800707  1
  Cr  Cr45  1  0.82477175  0.16212563  0.49743918  1
  Ni  Ni46  1  0.65963369  0.99196834  0.66008581  1
  Cr  Cr47  1  0.82495886  0.16121014  0.82836614  1
  Ni  Ni48  1  0.82529098  0.49680341  0.49688242  1
  Fe  Fe49  1  0.66097109  0.32959043  0.65969029  1
  Cr  Cr50  1  0.82543068  0.49622837  0.82871582  1
  Ni  Ni51  1  0.82451642  0.82703311  0.49705016  1
  Ni  Ni52  1  0.66016499  0.66534532  0.65980953  1
  Cr  Cr53  1  0.82478063  0.82882308  0.83060234  1
" 