3084,Ni33Fe7Cr59_8,-214.892095875995, 139.316226300443,Ni33Fe7Cr59,"# generated using pymatgen
 data_Cr11FeNi6
_symmetry_space_group_name_H-M   'P 1'
_cell_length_a   7.53785006
_cell_length_b   7.53785006
_cell_length_c   10.66012978
_cell_angle_alpha   90.00000000
_cell_angle_beta   90.00000000
_cell_angle_gamma   90.00000000
_symmetry_Int_Tables_number   1
_chemical_formula_structural   Cr11FeNi6
_chemical_formula_sum   'Cr33 Fe3 Ni18'
_cell_volume   605.69987016
_cell_formula_units_Z   3
loop_
 _symmetry_equiv_pos_site_id
 _symmetry_equiv_pos_as_xyz
  1  'x, y, z'
loop_
 _atom_site_type_symbol
 _atom_site_label
 _atom_site_symmetry_multiplicity
 _atom_site_fract_x
 _atom_site_fract_y
 _atom_site_fract_z
 _atom_site_occupancy
  Fe  Fe0  1  -0.00454735  -0.00460195  -0.00256548  1
  Cr  Cr1  1  0.16008121  0.15850328  0.16116394  1
  Ni  Ni2  1  -0.00391916  0.99363693  0.32819260  1
  Ni  Ni3  1  0.99093864  0.32803474  -0.00386776  1
  Cr  Cr4  1  0.16223704  0.49927607  0.16168539  1
  Cr  Cr5  1  0.99459832  0.32839985  0.32766038  1
  Cr  Cr6  1  0.99513455  0.66047261  -0.00314516  1
  Ni  Ni7  1  0.16175716  0.82878375  0.16294677  1
  Ni  Ni8  1  0.99504834  0.66542071  0.32782782  1
  Ni  Ni9  1  0.32712193  0.99150496  -0.00376015  1
  Cr  Cr10  1  0.49784738  0.16307712  0.16180976  1
  Fe  Fe11  1  0.32615673  0.99341297  0.32767126  1
  Cr  Cr12  1  0.32770446  0.32900293  0.99443318  1
  Cr  Cr13  1  0.49721823  0.49618078  0.16383317  1
  Cr  Cr14  1  0.32847544  0.32835795  0.33294503  1
  Ni  Ni15  1  0.32790767  0.66673613  -0.00461760  1
  Cr  Cr16  1  0.49165308  0.82664740  0.16220783  1
  Ni  Ni17  1  0.32815206  0.66321210  0.32810528  1
  Cr  Cr18  1  0.66129542  0.99484298  0.99507747  1
  Ni  Ni19  1  0.82983654  0.16408076  0.16105932  1
  Cr  Cr20  1  0.66385641  -0.00463413  0.32847596  1
  Ni  Ni21  1  0.66767715  0.32898606  -0.00270696  1
  Fe  Fe22  1  0.82835772  0.49437959  0.16279892  1
  Ni  Ni23  1  0.66313562  0.33080554  0.32692971  1
  Cr  Cr24  1  0.66270883  0.66242105  0.99386822  1
  Cr  Cr25  1  0.83131317  0.82918111  0.16538046  1
  Ni  Ni26  1  0.66276027  0.66089835  0.33026410  1
  Ni  Ni27  1  0.15980853  0.15831540  0.49447415  1
  Ni  Ni28  1  -0.00444714  0.99477840  0.66007476  1
  Cr  Cr29  1  0.15962987  0.16023010  0.82882211  1
  Cr  Cr30  1  0.16318009  0.49726125  0.49449758  1
  Cr  Cr31  1  -0.00351429  0.32862617  0.66200602  1
  Cr  Cr32  1  0.16000384  0.49560324  0.83003566  1
  Cr  Cr33  1  0.15856304  0.82957008  0.49233738  1
  Cr  Cr34  1  0.99235213  0.66253262  0.66164417  1
  Cr  Cr35  1  0.16245636  0.82994973  0.83136464  1
  Cr  Cr36  1  0.49577229  0.16369692  0.49307243  1
  Cr  Cr37  1  0.32867210  -0.00438410  0.66131994  1
  Cr  Cr38  1  0.49591802  0.16077559  0.83095051  1
  Ni  Ni39  1  0.49759907  0.49787575  0.49325170  1
  Cr  Cr40  1  0.32770047  0.32837267  0.65805021  1
  Cr  Cr41  1  0.49702930  0.49677325  0.82861594  1
  Cr  Cr42  1  0.49736474  0.82482985  0.49389780  1
  Cr  Cr43  1  0.33083871  0.66214544  0.66350464  1
  Ni  Ni44  1  0.49465524  0.82704576  0.83006123  1
  Cr  Cr45  1  0.83055972  0.15880858  0.49529021  1
  Cr  Cr46  1  0.66218663  0.99121645  0.66221688  1
  Cr  Cr47  1  0.83026135  0.16299216  0.83012314  1
  Cr  Cr48  1  0.82588775  0.49861634  0.49349623  1
  Cr  Cr49  1  0.66178120  0.33073028  0.66178189  1
  Ni  Ni50  1  0.82710236  0.49462650  0.83059937  1
  Ni  Ni51  1  0.82945405  0.82768807  0.49467591  1
  Ni  Ni52  1  0.66214866  0.66221264  0.66176221  1
  Cr  Cr53  1  0.82892012  0.82848228  0.82479088  1
" 