6501,Ni33Fe7Cr59_6,-215.015218650938, 147.078842383434,Ni33Fe7Cr59,"# generated using pymatgen
 data_Cr11FeNi6
_symmetry_space_group_name_H-M   'P 1'
_cell_length_a   7.53828948
_cell_length_b   7.53828948
_cell_length_c   10.66075122
_cell_angle_alpha   90.00000000
_cell_angle_beta   90.00000000
_cell_angle_gamma   90.00000000
_symmetry_Int_Tables_number   1
_chemical_formula_structural   Cr11FeNi6
_chemical_formula_sum   'Cr33 Fe3 Ni18'
_cell_volume   605.80580431
_cell_formula_units_Z   3
loop_
 _symmetry_equiv_pos_site_id
 _symmetry_equiv_pos_as_xyz
  1  'x, y, z'
loop_
 _atom_site_type_symbol
 _atom_site_label
 _atom_site_symmetry_multiplicity
 _atom_site_fract_x
 _atom_site_fract_y
 _atom_site_fract_z
 _atom_site_occupancy
  Cr  Cr0  1  -0.00335151  -0.00317084  0.99492977  1
  Ni  Ni1  1  0.16577020  0.15955300  0.16235472  1
  Cr  Cr2  1  -0.00459566  -0.00427971  0.32955686  1
  Cr  Cr3  1  -0.00384933  0.32802954  -0.00283012  1
  Cr  Cr4  1  0.16120800  0.49848412  0.16455060  1
  Cr  Cr5  1  -0.00291355  0.32807141  0.32723999  1
  Cr  Cr6  1  -0.00280072  0.66158484  -0.00402616  1
  Cr  Cr7  1  0.16371091  0.83011134  0.16238178  1
  Ni  Ni8  1  0.99487708  0.66265485  0.32903658  1
  Ni  Ni9  1  0.33041716  -0.00375958  -0.00117006  1
  Ni  Ni10  1  0.49312558  0.15984936  0.16031227  1
  Fe  Fe11  1  0.32923152  0.99356303  0.32832662  1
  Cr  Cr12  1  0.32899915  0.32851357  -0.00213921  1
  Cr  Cr13  1  0.49839442  0.49592506  0.16173099  1
  Cr  Cr14  1  0.32795398  0.32674064  0.32648153  1
  Ni  Ni15  1  0.33034296  0.66491091  0.99493428  1
  Cr  Cr16  1  0.49419268  0.82977482  0.16294414  1
  Ni  Ni17  1  0.32900789  0.66285919  0.33067130  1
  Fe  Fe18  1  0.66010053  -0.00260384  -0.00453355  1
  Cr  Cr19  1  0.82685395  0.16250069  0.16054421  1
  Cr  Cr20  1  0.66053367  0.99418330  0.33263082  1
  Ni  Ni21  1  0.66218625  0.32481893  -0.00275709  1
  Ni  Ni22  1  0.82739851  0.49555485  0.16366162  1
  Cr  Cr23  1  0.66073093  0.32720763  0.32742509  1
  Cr  Cr24  1  0.66229010  0.66124139  0.99412906  1
  Cr  Cr25  1  0.82839411  0.82547592  0.16378333  1
  Ni  Ni26  1  0.66155773  0.66403018  0.33059854  1
  Cr  Cr27  1  0.16132689  0.16238193  0.49798444  1
  Ni  Ni28  1  0.99488880  -0.00223844  0.66091492  1
  Cr  Cr29  1  0.16155665  0.16000738  0.82462717  1
  Fe  Fe30  1  0.16177189  0.49674975  0.49582020  1
  Ni  Ni31  1  -0.00394125  0.32543505  0.66072318  1
  Cr  Cr32  1  0.16380628  0.49588554  0.82404352  1
  Cr  Cr33  1  0.16245416  0.82910009  0.49478229  1
  Cr  Cr34  1  0.99476367  0.66351075  0.66163013  1
  Cr  Cr35  1  0.16466957  0.83045603  0.82914603  1
  Cr  Cr36  1  0.49322602  0.16049270  0.49595873  1
  Ni  Ni37  1  0.32797934  0.99390606  0.65967674  1
  Cr  Cr38  1  0.49522356  0.16154578  0.82954962  1
  Cr  Cr39  1  0.49290853  0.49655449  0.49600304  1
  Ni  Ni40  1  0.32522783  0.32889055  0.66062683  1
  Cr  Cr41  1  0.49383307  0.49503638  0.82761396  1
  Ni  Ni42  1  0.49328167  0.82654141  0.49404442  1
  Ni  Ni43  1  0.32767864  0.66316875  0.66008022  1
  Cr  Cr44  1  0.49190391  0.82992344  0.82926102  1
  Ni  Ni45  1  0.83128342  0.16024569  0.49838470  1
  Cr  Cr46  1  0.66339157  0.99385305  0.65936928  1
  Ni  Ni47  1  0.82901685  0.16254157  0.82762203  1
  Cr  Cr48  1  0.82980872  0.49432648  0.49178914  1
  Cr  Cr49  1  0.66204706  0.32701338  0.66188257  1
  Cr  Cr50  1  0.82812649  0.49098469  0.83028326  1
  Ni  Ni51  1  0.82902643  0.82864252  0.49352169  1
  Cr  Cr52  1  0.66013311  0.66500526  0.65966858  1
  Cr  Cr53  1  0.82967254  0.83304709  0.82905639  1
" 