8595,Ni33Fe49Cr17_5,-231.308345286047, 194.279791972717,Ni33Fe49Cr17,"# generated using pymatgen
 data_Cr11Fe26Ni17
_symmetry_space_group_name_H-M   'P 1'
_cell_length_a   7.44429210
_cell_length_b   7.44429210
_cell_length_c   10.52781885
_cell_angle_alpha   90.00000000
_cell_angle_beta   90.00000000
_cell_angle_gamma   90.00000000
_symmetry_Int_Tables_number   1
_chemical_formula_structural   Cr11Fe26Ni17
_chemical_formula_sum   'Cr11 Fe26 Ni17'
_cell_volume   583.42524200
_cell_formula_units_Z   1
loop_
 _symmetry_equiv_pos_site_id
 _symmetry_equiv_pos_as_xyz
  1  'x, y, z'
loop_
 _atom_site_type_symbol
 _atom_site_label
 _atom_site_symmetry_multiplicity
 _atom_site_fract_x
 _atom_site_fract_y
 _atom_site_fract_z
 _atom_site_occupancy
  Fe  Fe0  1  1.00105407  0.00178092  0.00168687  1
  Fe  Fe1  1  0.16969831  0.16754758  0.16785840  1
  Fe  Fe2  1  0.99818982  1.00080353  0.33355839  1
  Cr  Cr3  1  0.00217730  0.33205328  1.00038937  1
  Cr  Cr4  1  0.17100777  0.50217879  0.17152452  1
  Fe  Fe5  1  1.00031549  0.33452709  0.33631809  1
  Cr  Cr6  1  1.00132721  0.66980598  1.00140403  1
  Ni  Ni7  1  0.16629284  0.83785552  0.16835889  1
  Fe  Fe8  1  1.00122031  0.66972048  0.33564259  1
  Ni  Ni9  1  0.33578015  0.00328396  0.00173276  1
  Ni  Ni10  1  0.50257708  0.16960191  0.16808280  1
  Cr  Cr11  1  0.33816801  1.00070895  0.33264375  1
  Ni  Ni12  1  0.33676496  0.33121073  1.00087775  1
  Ni  Ni13  1  0.50238457  0.49808117  0.16585124  1
  Fe  Fe14  1  0.34038852  0.33668584  0.33472326  1
  Cr  Cr15  1  0.33666322  0.66983289  1.00027448  1
  Fe  Fe16  1  0.50123101  0.83418446  0.16622018  1
  Ni  Ni17  1  0.33549786  0.66862290  0.33628478  1
  Ni  Ni18  1  0.66638047  0.00215633  0.00227272  1
  Fe  Fe19  1  0.83258375  0.16697672  0.16880595  1
  Fe  Fe20  1  0.66912639  0.00296528  0.33434330  1
  Ni  Ni21  1  0.66602886  0.33205882  1.00069343  1
  Cr  Cr22  1  0.83096231  0.50161279  0.16770141  1
  Ni  Ni23  1  0.66906690  0.33322293  0.33618250  1
  Ni  Ni24  1  0.66695036  0.67034717  1.00082627  1
  Fe  Fe25  1  0.83291493  0.83785986  0.16764306  1
  Cr  Cr26  1  0.66556638  0.66847822  0.33487797  1
  Cr  Cr27  1  0.16985450  0.16849527  0.50105437  1
  Fe  Fe28  1  0.99997735  0.00293999  0.66950813  1
  Fe  Fe29  1  0.16965018  0.16609742  0.83302222  1
  Fe  Fe30  1  0.16928660  0.50109967  0.50047467  1
  Ni  Ni31  1  1.00036129  0.33409110  0.66748024  1
  Fe  Fe32  1  0.17146474  0.49967587  0.83348474  1
  Cr  Cr33  1  0.16784636  0.83587471  0.50244277  1
  Cr  Cr34  1  1.00057144  0.66674025  0.66844140  1
  Fe  Fe35  1  0.17001067  0.83870098  0.83415446  1
  Fe  Fe36  1  0.50396814  0.16765974  0.50249908  1
  Ni  Ni37  1  0.33778960  1.00139542  0.66931379  1
  Ni  Ni38  1  0.50025524  0.16810311  0.83462944  1
  Ni  Ni39  1  0.50167199  0.49947748  0.50267420  1
  Fe  Fe40  1  0.33515927  0.33506126  0.66968354  1
  Fe  Fe41  1  0.50193362  0.50123914  0.83501254  1
  Fe  Fe42  1  0.50233482  0.83451276  0.50408424  1
  Fe  Fe43  1  0.33726605  0.66709340  0.66842715  1
  Ni  Ni44  1  0.50297882  0.83730629  0.83405141  1
  Fe  Fe45  1  0.83311185  0.16815221  0.50170925  1
  Fe  Fe46  1  0.66916669  1.00133787  0.66947842  1
  Fe  Fe47  1  0.83159875  0.16544844  0.83416663  1
  Fe  Fe48  1  0.83424629  0.49995897  0.50146538  1
  Fe  Fe49  1  0.66691221  0.33337497  0.66744722  1
  Cr  Cr50  1  0.83107255  0.50142188  0.83580237  1
  Ni  Ni51  1  0.83361840  0.83629517  0.50130220  1
  Fe  Fe52  1  0.66630395  0.66996865  0.66791341  1
  Ni  Ni53  1  0.83380265  0.83684672  0.83603085  1
" 