8368,Ni33Fe7Cr59_2,-214.835177448878, 144.729682240453,Ni33Fe7Cr59,"# generated using pymatgen
 data_Cr11FeNi6
_symmetry_space_group_name_H-M   'P 1'
_cell_length_a   7.54963089
_cell_length_b   7.54963089
_cell_length_c   10.67679040
_cell_angle_alpha   90.00000000
_cell_angle_beta   90.00000000
_cell_angle_gamma   90.00000000
_symmetry_Int_Tables_number   1
_chemical_formula_structural   Cr11FeNi6
_chemical_formula_sum   'Cr33 Fe3 Ni18'
_cell_volume   608.54423903
_cell_formula_units_Z   3
loop_
 _symmetry_equiv_pos_site_id
 _symmetry_equiv_pos_as_xyz
  1  'x, y, z'
loop_
 _atom_site_type_symbol
 _atom_site_label
 _atom_site_symmetry_multiplicity
 _atom_site_fract_x
 _atom_site_fract_y
 _atom_site_fract_z
 _atom_site_occupancy
  Ni  Ni0  1  0.99040988  0.99399766  0.99301339  1
  Ni  Ni1  1  0.15749907  0.16280719  0.16428852  1
  Ni  Ni2  1  0.99278920  -0.00102440  0.32884851  1
  Cr  Cr3  1  -0.00445943  0.32537397  0.99426926  1
  Ni  Ni4  1  0.16070575  0.49290305  0.16215649  1
  Ni  Ni5  1  -0.00449689  0.32438709  0.32629498  1
  Fe  Fe6  1  -0.00472136  0.66164646  0.99441225  1
  Cr  Cr7  1  0.15774983  0.83136069  0.15940098  1
  Cr  Cr8  1  -0.00457714  0.66098229  0.32786442  1
  Cr  Cr9  1  0.32670326  -0.00339851  -0.00277640  1
  Cr  Cr10  1  0.49837227  0.16297475  0.16149673  1
  Cr  Cr11  1  0.32895546  -0.00379420  0.32643918  1
  Cr  Cr12  1  0.32488112  0.32857528  -0.00376312  1
  Cr  Cr13  1  0.49751363  0.49324836  0.16063458  1
  Ni  Ni14  1  0.32644895  0.32640075  0.32636529  1
  Ni  Ni15  1  0.32552990  0.65962806  -0.00377068  1
  Cr  Cr16  1  0.49752401  0.82773668  0.15694218  1
  Cr  Cr17  1  0.32785410  0.66137372  0.32659486  1
  Ni  Ni18  1  0.66701211  -0.00505140  0.99169259  1
  Cr  Cr19  1  0.82819104  0.16058061  0.16204675  1
  Cr  Cr20  1  0.66116288  -0.00529605  0.33211768  1
  Ni  Ni21  1  0.66381627  0.32475961  0.99304941  1
  Cr  Cr22  1  0.82628289  0.49276102  0.16264443  1
  Ni  Ni23  1  0.66141713  0.32492841  0.33033916  1
  Fe  Fe24  1  0.66269041  0.66251855  0.99358050  1
  Cr  Cr25  1  0.82855770  0.83024669  0.15984952  1
  Cr  Cr26  1  0.66051793  0.66523520  0.33295387  1
  Cr  Cr27  1  0.16014514  0.16019925  0.49543047  1
  Ni  Ni28  1  0.99010339  -0.00466414  0.66167490  1
  Cr  Cr29  1  0.16023850  0.15713101  0.82304321  1
  Cr  Cr30  1  0.16088653  0.49106526  0.49507953  1
  Cr  Cr31  1  0.99188052  0.32508376  0.66348871  1
  Cr  Cr32  1  0.16285204  0.49577526  0.82470548  1
  Cr  Cr33  1  0.15993336  0.83275221  0.49668156  1
  Cr  Cr34  1  0.99095127  0.66299846  0.66130602  1
  Cr  Cr35  1  0.15920606  0.83062633  0.82707484  1
  Ni  Ni36  1  0.49515145  0.16040588  0.49441844  1
  Ni  Ni37  1  0.32900152  -0.00360751  0.65903438  1
  Cr  Cr38  1  0.49585774  0.16115549  0.82751660  1
  Cr  Cr39  1  0.49456331  0.49017956  0.49451881  1
  Ni  Ni40  1  0.32967266  0.32313273  0.65958205  1
  Cr  Cr41  1  0.49532847  0.49351987  0.82873036  1
  Ni  Ni42  1  0.49337773  0.83236530  0.49613377  1
  Cr  Cr43  1  0.32946855  0.66222764  0.65960441  1
  Cr  Cr44  1  0.49451398  0.82878732  0.83094400  1
  Ni  Ni45  1  0.82828017  0.15940044  0.49253489  1
  Cr  Cr46  1  0.66236330  -0.00500911  0.65945817  1
  Ni  Ni47  1  0.82819372  0.15625588  0.83020876  1
  Cr  Cr48  1  0.82836797  0.48961407  0.49094145  1
  Cr  Cr49  1  0.66317422  0.32393046  0.66198131  1
  Cr  Cr50  1  0.82534830  0.49555339  0.83107026  1
  Fe  Fe51  1  0.82997334  0.83307341  0.49483695  1
  Cr  Cr52  1  0.66264977  0.66528545  0.65806805  1
  Ni  Ni53  1  0.82884161  0.83155539  0.82960189  1
" 