1596,Ni33Fe60Cr6_10,-234.594374622538, 207.331975083255,Ni33Fe60Cr6,"# generated using pymatgen
 data_Cr5Fe32Ni17
_symmetry_space_group_name_H-M   'P 1'
_cell_length_a   7.41693283
_cell_length_b   7.41693283
_cell_length_c   10.48912700
_cell_angle_alpha   90.00000000
_cell_angle_beta   90.00000000
_cell_angle_gamma   90.00000000
_symmetry_Int_Tables_number   1
_chemical_formula_structural   Cr5Fe32Ni17
_chemical_formula_sum   'Cr5 Fe32 Ni17'
_cell_volume   577.01623901
_cell_formula_units_Z   1
loop_
 _symmetry_equiv_pos_site_id
 _symmetry_equiv_pos_as_xyz
  1  'x, y, z'
loop_
 _atom_site_type_symbol
 _atom_site_label
 _atom_site_symmetry_multiplicity
 _atom_site_fract_x
 _atom_site_fract_y
 _atom_site_fract_z
 _atom_site_occupancy
  Ni  Ni0  1  0.00451573  0.00468237  1.00232499  1
  Fe  Fe1  1  0.16915478  0.17014446  0.16930061  1
  Fe  Fe2  1  1.00271630  0.00433381  0.33736348  1
  Fe  Fe3  1  0.00353694  0.33543305  0.00435408  1
  Ni  Ni4  1  0.16970889  0.50273025  0.17104067  1
  Fe  Fe5  1  0.00450179  0.33602021  0.33630525  1
  Fe  Fe6  1  1.00303757  0.67115978  0.00371443  1
  Ni  Ni7  1  0.16995608  0.83683654  0.17002843  1
  Fe  Fe8  1  0.00547815  0.66977619  0.33612891  1
  Ni  Ni9  1  0.33553678  0.00355159  1.00328328  1
  Fe  Fe10  1  0.50380284  0.17058718  0.16884709  1
  Cr  Cr11  1  0.33567099  1.00146183  0.33620678  1
  Fe  Fe12  1  0.33761164  0.33474346  0.00344071  1
  Fe  Fe13  1  0.50386942  0.50322516  0.17098883  1
  Fe  Fe14  1  0.33694051  0.33900051  0.33693642  1
  Cr  Cr15  1  0.33680529  0.67159402  1.00317919  1
  Fe  Fe16  1  0.50241685  0.83632309  0.16927222  1
  Ni  Ni17  1  0.33596375  0.66914383  0.33744120  1
  Ni  Ni18  1  0.67008080  0.00500531  1.00246393  1
  Fe  Fe19  1  0.83718014  0.17159815  0.17014567  1
  Fe  Fe20  1  0.67068667  0.00432154  0.33736241  1
  Ni  Ni21  1  0.67091643  0.33636437  0.00400399  1
  Fe  Fe22  1  0.83706888  0.50216896  0.16980113  1
  Ni  Ni23  1  0.67126729  0.33634460  0.33629160  1
  Ni  Ni24  1  0.66978121  0.66876453  1.00337692  1
  Cr  Cr25  1  0.83668265  0.83675695  0.16903099  1
  Fe  Fe26  1  0.66770014  0.66956966  0.33657789  1
  Ni  Ni27  1  0.16889698  0.16974164  0.50362732  1
  Fe  Fe28  1  0.00446719  1.00320888  0.67006472  1
  Fe  Fe29  1  0.17101649  0.16913289  0.83637883  1
  Fe  Fe30  1  0.17180435  0.50285917  0.50286544  1
  Fe  Fe31  1  0.00579913  0.33475159  0.66947722  1
  Fe  Fe32  1  0.17174206  0.50377016  0.83606438  1
  Fe  Fe33  1  0.16970079  0.83607434  0.50430493  1
  Fe  Fe34  1  0.00597647  0.67217466  0.67029192  1
  Ni  Ni35  1  0.17006872  0.83880758  0.83663764  1
  Fe  Fe36  1  0.50441575  0.17140476  0.50398486  1
  Ni  Ni37  1  0.33605630  1.00207946  0.67034959  1
  Fe  Fe38  1  0.50308180  0.16933518  0.83730268  1
  Ni  Ni39  1  0.50230681  0.50373359  0.50311337  1
  Fe  Fe40  1  0.33680984  0.33704476  0.66975840  1
  Ni  Ni41  1  0.50376331  0.50295974  0.83629560  1
  Fe  Fe42  1  0.50371945  0.83610164  0.50475926  1
  Ni  Ni43  1  0.33642392  0.67041320  0.66936759  1
  Ni  Ni44  1  0.50323696  0.83742243  0.83692896  1
  Ni  Ni45  1  0.83746522  0.16840878  0.50278504  1
  Fe  Fe46  1  0.66929676  1.00286514  0.67028500  1
  Fe  Fe47  1  0.83603752  0.16803783  0.83691551  1
  Cr  Cr48  1  0.83528638  0.50308126  0.50236357  1
  Fe  Fe49  1  0.66752409  0.33553202  0.66969395  1
  Cr  Cr50  1  0.83519931  0.50368273  0.83817596  1
  Fe  Fe51  1  0.83671040  0.83866767  0.50312739  1
  Fe  Fe52  1  0.66699955  0.67173600  0.67074251  1
  Fe  Fe53  1  0.83603972  0.83776526  0.83756107  1
" 