2304,Ni33Fe27Cr39_2,-223.488640713744, 177.401210122914,Ni33Fe27Cr39,"# generated using pymatgen
 data_Cr23Fe14Ni17
_symmetry_space_group_name_H-M   'P 1'
_cell_length_a   7.48992342
_cell_length_b   7.48992342
_cell_length_c   10.59235128
_cell_angle_alpha   90.00000000
_cell_angle_beta   90.00000000
_cell_angle_gamma   90.00000000
_symmetry_Int_Tables_number   1
_chemical_formula_structural   Cr23Fe14Ni17
_chemical_formula_sum   'Cr23 Fe14 Ni17'
_cell_volume   594.21981537
_cell_formula_units_Z   1
loop_
 _symmetry_equiv_pos_site_id
 _symmetry_equiv_pos_as_xyz
  1  'x, y, z'
loop_
 _atom_site_type_symbol
 _atom_site_label
 _atom_site_symmetry_multiplicity
 _atom_site_fract_x
 _atom_site_fract_y
 _atom_site_fract_z
 _atom_site_occupancy
  Cr  Cr0  1  -0.00094560  0.00053871  0.99834195  1
  Fe  Fe1  1  0.16586968  0.16825803  0.16747315  1
  Ni  Ni2  1  0.00063103  0.00018863  0.33045647  1
  Fe  Fe3  1  -0.00007605  0.33274483  0.00067115  1
  Fe  Fe4  1  0.16465428  0.49750255  0.16752122  1
  Fe  Fe5  1  0.00177061  0.33230979  0.32999182  1
  Cr  Cr6  1  0.00298103  0.66256401  -0.00054708  1
  Cr  Cr7  1  0.16760243  0.83171287  0.16798274  1
  Ni  Ni8  1  0.00230099  0.66252115  0.33246095  1
  Cr  Cr9  1  0.33054441  -0.00145924  0.00140534  1
  Fe  Fe10  1  0.49826162  0.16664177  0.16561966  1
  Ni  Ni11  1  0.33037446  -0.00011259  0.33179309  1
  Ni  Ni12  1  0.33091560  0.33478233  0.00020309  1
  Cr  Cr13  1  0.49625795  0.49878451  0.16376375  1
  Fe  Fe14  1  0.33099143  0.33294860  0.33201123  1
  Ni  Ni15  1  0.32995926  0.66010253  0.99756584  1
  Ni  Ni16  1  0.49350161  0.83169643  0.16630928  1
  Ni  Ni17  1  0.32821944  0.66472736  0.33374935  1
  Cr  Cr18  1  0.66577661  0.00129226  0.00065194  1
  Ni  Ni19  1  0.83458072  0.16996756  0.16478300  1
  Cr  Cr20  1  0.66327571  0.00109426  0.33124829  1
  Ni  Ni21  1  0.66473238  0.33201246  -0.00000976  1
  Ni  Ni22  1  0.83352490  0.49242070  0.16716027  1
  Fe  Fe23  1  0.66461832  0.33090255  0.33009430  1
  Cr  Cr24  1  0.66375792  0.66264362  0.00075262  1
  Cr  Cr25  1  0.83240594  0.82972565  0.16846995  1
  Cr  Cr26  1  0.66286352  0.66252456  0.33225913  1
  Cr  Cr27  1  0.16714831  0.16541756  0.49707670  1
  Cr  Cr28  1  0.00014179  0.99750904  0.66713109  1
  Cr  Cr29  1  0.16573350  0.16833640  0.83057244  1
  Ni  Ni30  1  0.16819983  0.49986961  0.49821807  1
  Fe  Fe31  1  0.00297035  0.33527168  0.66473732  1
  Fe  Fe32  1  0.16908743  0.49892265  0.82994534  1
  Ni  Ni33  1  0.16930935  0.83047482  0.49823633  1
  Ni  Ni34  1  0.00370561  0.66313909  0.66359890  1
  Fe  Fe35  1  0.16771620  0.82856693  0.82968030  1
  Fe  Fe36  1  0.49460731  0.16632020  0.49767837  1
  Ni  Ni37  1  0.33022279  0.99792494  0.66269802  1
  Cr  Cr38  1  0.49509992  0.16849714  0.83225880  1
  Fe  Fe39  1  0.49298898  0.49785108  0.49766906  1
  Ni  Ni40  1  0.33119263  0.33427694  0.66295775  1
  Ni  Ni41  1  0.49508784  0.49674885  0.83225709  1
  Fe  Fe42  1  0.49292316  0.83150104  0.49703182  1
  Ni  Ni43  1  0.32776178  0.66263498  0.66421600  1
  Cr  Cr44  1  0.49475801  0.82829430  0.83314494  1
  Cr  Cr45  1  0.83360613  0.16716922  0.49912774  1
  Cr  Cr46  1  0.66267111  -0.00018545  0.66445841  1
  Fe  Fe47  1  0.83061171  0.16814824  0.83289177  1
  Cr  Cr48  1  0.83492737  0.49803662  0.49570518  1
  Cr  Cr49  1  0.66252664  0.33221414  0.66363576  1
  Cr  Cr50  1  0.83243715  0.49697259  0.83161458  1
  Cr  Cr51  1  0.83689967  0.83066712  0.49621644  1
  Cr  Cr52  1  0.66242873  0.66371561  0.66195156  1
  Cr  Cr53  1  0.83342281  0.83020506  0.83064379  1
" 