7673,Ni33Fe60Cr6_4,-234.063460329754, 205.575429904941,Ni33Fe60Cr6,"# generated using pymatgen
 data_Cr5Fe32Ni17
_symmetry_space_group_name_H-M   'P 1'
_cell_length_a   7.41294408
_cell_length_b   7.41294408
_cell_length_c   10.48348606
_cell_angle_alpha   90.00000000
_cell_angle_beta   90.00000000
_cell_angle_gamma   90.00000000
_symmetry_Int_Tables_number   1
_chemical_formula_structural   Cr5Fe32Ni17
_chemical_formula_sum   'Cr5 Fe32 Ni17'
_cell_volume   576.08579944
_cell_formula_units_Z   1
loop_
 _symmetry_equiv_pos_site_id
 _symmetry_equiv_pos_as_xyz
  1  'x, y, z'
loop_
 _atom_site_type_symbol
 _atom_site_label
 _atom_site_symmetry_multiplicity
 _atom_site_fract_x
 _atom_site_fract_y
 _atom_site_fract_z
 _atom_site_occupancy
  Fe  Fe0  1  0.00460024  1.00159500  1.00296725  1
  Fe  Fe1  1  0.17093225  0.16860097  0.16927331  1
  Ni  Ni2  1  0.00370211  1.00273803  0.33608090  1
  Cr  Cr3  1  0.00419195  0.33732616  0.00420006  1
  Ni  Ni4  1  0.17018168  0.50513379  0.17077434  1
  Fe  Fe5  1  1.00154983  0.33678904  0.33719787  1
  Fe  Fe6  1  0.00642586  0.67259609  0.00459026  1
  Ni  Ni7  1  0.17073967  0.83678059  0.16937866  1
  Ni  Ni8  1  1.00347353  0.67170323  0.33789272  1
  Ni  Ni9  1  0.33673278  0.00402879  0.00385803  1
  Fe  Fe10  1  0.50284920  0.16930411  0.16973364  1
  Fe  Fe11  1  0.33469766  1.00211335  0.33516917  1
  Ni  Ni12  1  0.33735096  0.33651760  1.00215331  1
  Fe  Fe13  1  0.50138448  0.50358739  0.16920358  1
  Cr  Cr14  1  0.33603427  0.33808643  0.33834002  1
  Fe  Fe15  1  0.33541594  0.66979590  1.00261269  1
  Fe  Fe16  1  0.50148506  0.83813024  0.17095029  1
  Fe  Fe17  1  0.33441620  0.67295667  0.33630764  1
  Fe  Fe18  1  0.66952991  0.00573632  0.00395200  1
  Fe  Fe19  1  0.83741763  0.16899819  0.17181477  1
  Ni  Ni20  1  0.67176061  1.00267148  0.33630964  1
  Fe  Fe21  1  0.66734241  0.33509880  1.00297182  1
  Fe  Fe22  1  0.83878821  0.50453254  0.17338926  1
  Fe  Fe23  1  0.67316837  0.33634405  0.33780491  1
  Cr  Cr24  1  0.67086081  0.67071551  0.00422553  1
  Fe  Fe25  1  0.83961561  0.83750720  0.17095555  1
  Fe  Fe26  1  0.67212649  0.66964476  0.33664695  1
  Fe  Fe27  1  0.16945378  0.16974358  0.50435729  1
  Cr  Cr28  1  0.00376281  1.00311216  0.67061030  1
  Ni  Ni29  1  0.17080480  0.17126092  0.83728548  1
  Fe  Fe30  1  0.16880925  0.50674947  0.50413412  1
  Ni  Ni31  1  0.00409412  0.33657174  0.66895222  1
  Fe  Fe32  1  0.17155198  0.50482774  0.83646294  1
  Ni  Ni33  1  0.17077891  0.83733136  0.50359233  1
  Fe  Fe34  1  1.00281864  0.66779819  0.66887683  1
  Fe  Fe35  1  0.17251366  0.83626989  0.83777817  1
  Fe  Fe36  1  0.50570277  0.17117141  0.50412978  1
  Fe  Fe37  1  0.33809290  0.00443275  0.67224783  1
  Fe  Fe38  1  0.50345826  0.16951015  0.83739234  1
  Fe  Fe39  1  0.50459666  0.50361876  0.50625006  1
  Fe  Fe40  1  0.33693444  0.33762570  0.67125967  1
  Ni  Ni41  1  0.50360688  0.50313513  0.83644025  1
  Cr  Cr42  1  0.50297674  0.83769742  0.50331229  1
  Ni  Ni43  1  0.33792379  0.66997822  0.67177014  1
  Ni  Ni44  1  0.50425738  0.83716855  0.83691136  1
  Fe  Fe45  1  0.83609309  0.17023658  0.50252732  1
  Fe  Fe46  1  0.66939729  0.00413628  0.67094750  1
  Fe  Fe47  1  0.83468101  0.17071547  0.83639153  1
  Ni  Ni48  1  0.83689760  0.50158219  0.50344131  1
  Ni  Ni49  1  0.67003216  0.33790823  0.67091598  1
  Fe  Fe50  1  0.83678559  0.50392848  0.83374492  1
  Fe  Fe51  1  0.83826115  0.83494043  0.50277619  1
  Ni  Ni52  1  0.66975760  0.67003813  0.66953732  1
  Ni  Ni53  1  0.83624312  0.83653889  0.83626043  1
" 