7210,Ni33Fe27Cr39_11,-223.645103593048, 178.196316122356,Ni33Fe27Cr39,"# generated using pymatgen
 data_Cr23Fe14Ni17
_symmetry_space_group_name_H-M   'P 1'
_cell_length_a   7.49286630
_cell_length_b   7.49286630
_cell_length_c   10.59651314
_cell_angle_alpha   90.00000000
_cell_angle_beta   90.00000000
_cell_angle_gamma   90.00000000
_symmetry_Int_Tables_number   1
_chemical_formula_structural   Cr23Fe14Ni17
_chemical_formula_sum   'Cr23 Fe14 Ni17'
_cell_volume   594.92051815
_cell_formula_units_Z   1
loop_
 _symmetry_equiv_pos_site_id
 _symmetry_equiv_pos_as_xyz
  1  'x, y, z'
loop_
 _atom_site_type_symbol
 _atom_site_label
 _atom_site_symmetry_multiplicity
 _atom_site_fract_x
 _atom_site_fract_y
 _atom_site_fract_z
 _atom_site_occupancy
  Ni  Ni0  1  0.99577303  0.99783962  0.99692939  1
  Cr  Cr1  1  0.16576132  0.16839980  0.16643984  1
  Cr  Cr2  1  0.99780504  0.99821197  0.33250202  1
  Cr  Cr3  1  0.99562201  0.33260989  0.99769816  1
  Fe  Fe4  1  0.16572967  0.50047997  0.16756481  1
  Fe  Fe5  1  0.99742692  0.33453367  0.33248664  1
  Cr  Cr6  1  -0.00170042  0.66551855  -0.00160663  1
  Cr  Cr7  1  0.16320029  0.82886171  0.16447497  1
  Ni  Ni8  1  0.99571330  0.66163856  0.32979920  1
  Cr  Cr9  1  0.33188286  0.99553223  0.99691929  1
  Fe  Fe10  1  0.50060832  0.16768108  0.16529582  1
  Cr  Cr11  1  0.33291924  0.00014113  0.33576035  1
  Cr  Cr12  1  0.33499135  0.33607623  0.00093138  1
  Fe  Fe13  1  0.49927470  0.49706184  0.16720183  1
  Ni  Ni14  1  0.33385066  0.33374967  0.33103516  1
  Ni  Ni15  1  0.33373159  0.66466552  0.99663062  1
  Cr  Cr16  1  0.50089459  0.82903085  0.16615649  1
  Ni  Ni17  1  0.33322482  0.66046424  0.33115480  1
  Fe  Fe18  1  0.66596147  0.99816627  -0.00167337  1
  Cr  Cr19  1  0.82918971  0.16452731  0.16202977  1
  Cr  Cr20  1  0.66408789  0.99747273  0.33206102  1
  Ni  Ni21  1  0.66531679  0.33254337  0.99641650  1
  Fe  Fe22  1  0.83000020  0.49928092  0.16685870  1
  Ni  Ni23  1  0.66360273  0.33491235  0.33339052  1
  Cr  Cr24  1  0.66315107  0.66247686  -0.00105424  1
  Ni  Ni25  1  0.83111338  0.82999770  0.16528968  1
  Ni  Ni26  1  0.66577637  0.66073486  0.33182789  1
  Ni  Ni27  1  0.16619554  0.16652084  0.49696872  1
  Cr  Cr28  1  0.00002318  -0.00010372  0.66531941  1
  Cr  Cr29  1  0.16411960  0.16281872  0.83201587  1
  Cr  Cr30  1  0.16669082  0.49836440  0.49556013  1
  Cr  Cr31  1  0.99452126  0.33212335  0.66420128  1
  Cr  Cr32  1  0.16687015  0.50119495  0.83094917  1
  Cr  Cr33  1  0.16637687  0.83008882  0.50050005  1
  Fe  Fe34  1  0.99761600  0.66464165  0.66533298  1
  Fe  Fe35  1  0.16853795  0.82977082  0.83074037  1
  Fe  Fe36  1  0.49712133  0.16780993  0.49803729  1
  Ni  Ni37  1  0.33221112  0.99549123  0.66365549  1
  Cr  Cr38  1  0.50068505  0.16574592  0.83338602  1
  Ni  Ni39  1  0.50078729  0.49839808  0.49753405  1
  Cr  Cr40  1  0.33343068  0.33182123  0.66401822  1
  Ni  Ni41  1  0.50145261  0.50120930  0.83159250  1
  Fe  Fe42  1  0.49652047  0.82687943  0.49955079  1
  Ni  Ni43  1  0.33662576  0.66700521  0.66705484  1
  Ni  Ni44  1  0.49722085  0.82878802  0.82940837  1
  Fe  Fe45  1  0.83082964  0.16910596  0.49695110  1
  Cr  Cr46  1  0.66265467  0.99775569  0.66330987  1
  Fe  Fe47  1  0.82879302  0.16697560  0.83359118  1
  Fe  Fe48  1  0.82920180  0.49781291  0.49765490  1
  Fe  Fe49  1  0.66353061  0.33516074  0.66460977  1
  Ni  Ni50  1  0.82740656  0.49774141  0.82882377  1
  Cr  Cr51  1  0.82933632  0.82761790  0.49595098  1
  Ni  Ni52  1  0.66250245  0.66193484  0.66451145  1
  Cr  Cr53  1  0.83079372  0.83168210  0.83321501  1
" 