3309,Ni33Fe7Cr59_17,-215.194317021827, 147.391232563011,Ni33Fe7Cr59,"# generated using pymatgen
 data_Cr11FeNi6
_symmetry_space_group_name_H-M   'P 1'
_cell_length_a   7.53384242
_cell_length_b   7.53384242
_cell_length_c   10.65446213
_cell_angle_alpha   90.00000000
_cell_angle_beta   90.00000000
_cell_angle_gamma   90.00000000
_symmetry_Int_Tables_number   1
_chemical_formula_structural   Cr11FeNi6
_chemical_formula_sum   'Cr33 Fe3 Ni18'
_cell_volume   604.73428903
_cell_formula_units_Z   3
loop_
 _symmetry_equiv_pos_site_id
 _symmetry_equiv_pos_as_xyz
  1  'x, y, z'
loop_
 _atom_site_type_symbol
 _atom_site_label
 _atom_site_symmetry_multiplicity
 _atom_site_fract_x
 _atom_site_fract_y
 _atom_site_fract_z
 _atom_site_occupancy
  Ni  Ni0  1  -0.00307545  -0.00217883  -0.00392999  1
  Ni  Ni1  1  0.16500136  0.16173289  0.15855012  1
  Cr  Cr2  1  0.99487172  0.99408099  0.32714334  1
  Cr  Cr3  1  -0.00397578  0.32705828  0.99431677  1
  Cr  Cr4  1  0.16277963  0.49405351  0.16255939  1
  Cr  Cr5  1  -0.00302324  0.32925928  0.32834195  1
  Cr  Cr6  1  0.99055861  0.66242367  0.99460252  1
  Cr  Cr7  1  0.16207360  0.83089089  0.15856932  1
  Cr  Cr8  1  0.99405076  0.66301068  0.33065231  1
  Ni  Ni9  1  0.32749696  0.00121663  0.99460429  1
  Fe  Fe10  1  0.49408141  0.16348673  0.15932469  1
  Cr  Cr11  1  0.32921263  -0.00291819  0.32763707  1
  Ni  Ni12  1  0.33044438  0.32538000  0.99543029  1
  Ni  Ni13  1  0.49627286  0.49468477  0.16064069  1
  Cr  Cr14  1  0.32910418  0.32908825  0.32690482  1
  Cr  Cr15  1  0.33354636  0.65912063  0.99506524  1
  Cr  Cr16  1  0.49480766  0.82819992  0.16052105  1
  Fe  Fe17  1  0.32896225  0.66146738  0.32830697  1
  Cr  Cr18  1  0.66264061  0.99518914  -0.00424618  1
  Cr  Cr19  1  0.83092445  0.16294827  0.16228988  1
  Cr  Cr20  1  0.66309505  0.99348764  0.32908445  1
  Cr  Cr21  1  0.66018824  0.33141212  0.99422259  1
  Ni  Ni22  1  0.82569621  0.49759863  0.16092167  1
  Cr  Cr23  1  0.66052503  0.32957812  0.32608381  1
  Ni  Ni24  1  0.66280177  0.65980818  -0.00322702  1
  Ni  Ni25  1  0.82822722  0.82793267  0.16006706  1
  Cr  Cr26  1  0.66262636  0.66318671  0.32545647  1
  Cr  Cr27  1  0.16245271  0.16353855  0.49562681  1
  Cr  Cr28  1  0.99554555  0.99548871  0.66328179  1
  Ni  Ni29  1  0.16371648  0.16093007  0.83163850  1
  Ni  Ni30  1  0.16231741  0.49733770  0.49504008  1
  Cr  Cr31  1  -0.00418815  0.32985152  0.66393419  1
  Cr  Cr32  1  0.16191292  0.49483467  0.82894222  1
  Cr  Cr33  1  0.16324510  0.82744139  0.49692717  1
  Fe  Fe34  1  0.99414435  0.66220700  0.66250607  1
  Cr  Cr35  1  0.16340437  0.83161339  0.83092465  1
  Cr  Cr36  1  0.49789564  0.16209743  0.49839031  1
  Ni  Ni37  1  0.33033018  -0.00265029  0.66472834  1
  Ni  Ni38  1  0.49530980  0.16300632  0.82842959  1
  Cr  Cr39  1  0.49517618  0.49463255  0.49479040  1
  Cr  Cr40  1  0.32998243  0.32795125  0.66483695  1
  Ni  Ni41  1  0.49800969  0.49244433  0.83031624  1
  Cr  Cr42  1  0.49621002  0.83044215  0.49697163  1
  Cr  Cr43  1  0.32813558  0.66130788  0.66120867  1
  Cr  Cr44  1  0.49475295  0.83059182  0.82898488  1
  Cr  Cr45  1  0.82604613  0.16206319  0.49734938  1
  Ni  Ni46  1  0.66199474  -0.00276411  0.66290678  1
  Ni  Ni47  1  0.82778846  0.16307678  0.82748537  1
  Cr  Cr48  1  0.82907414  0.49350291  0.49763285  1
  Ni  Ni49  1  0.66225843  0.32744727  0.66662270  1
  Ni  Ni50  1  0.82516098  0.49333236  0.82855584  1
  Ni  Ni51  1  0.82855981  0.82838109  0.49742225  1
  Cr  Cr52  1  0.66289825  0.66171087  0.66500136  1
  Cr  Cr53  1  0.82856985  0.82960308  0.83027025  1
" 