2666,Ni33Fe7Cr59_0,-215.284522650024, 151.794715223303,Ni33Fe7Cr59,"# generated using pymatgen
 data_Cr11FeNi6
_symmetry_space_group_name_H-M   'P 1'
_cell_length_a   7.53735589
_cell_length_b   7.53735589
_cell_length_c   10.65943093
_cell_angle_alpha   90.00000000
_cell_angle_beta   90.00000000
_cell_angle_gamma   90.00000000
_symmetry_Int_Tables_number   1
_chemical_formula_structural   Cr11FeNi6
_chemical_formula_sum   'Cr33 Fe3 Ni18'
_cell_volume   605.58075263
_cell_formula_units_Z   3
loop_
 _symmetry_equiv_pos_site_id
 _symmetry_equiv_pos_as_xyz
  1  'x, y, z'
loop_
 _atom_site_type_symbol
 _atom_site_label
 _atom_site_symmetry_multiplicity
 _atom_site_fract_x
 _atom_site_fract_y
 _atom_site_fract_z
 _atom_site_occupancy
  Fe  Fe0  1  -0.00343589  -0.00053153  0.99417486  1
  Cr  Cr1  1  0.16577964  0.16107386  0.16024243  1
  Cr  Cr2  1  0.99512727  0.99423174  0.33026991  1
  Ni  Ni3  1  -0.00308466  0.32550752  0.99324764  1
  Cr  Cr4  1  0.16292651  0.49286850  0.16246525  1
  Cr  Cr5  1  -0.00136877  0.32853524  0.33068292  1
  Cr  Cr6  1  -0.00395746  0.66117915  -0.00322524  1
  Cr  Cr7  1  0.16310064  0.83191350  0.16073043  1
  Ni  Ni8  1  0.99394702  0.66288669  0.33000655  1
  Ni  Ni9  1  0.33023843  0.00052603  0.99476117  1
  Ni  Ni10  1  0.49165720  0.16534603  0.16339981  1
  Ni  Ni11  1  0.33154444  0.00072955  0.33192578  1
  Ni  Ni12  1  0.32985473  0.32541757  -0.00411761  1
  Ni  Ni13  1  0.49416845  0.48947128  0.16247280  1
  Ni  Ni14  1  0.33211192  0.32396786  0.32774290  1
  Cr  Cr15  1  0.33065996  0.65731611  0.99480083  1
  Cr  Cr16  1  0.49268888  0.83199071  0.16164335  1
  Cr  Cr17  1  0.32841750  0.65980383  0.32767934  1
  Cr  Cr18  1  0.66190701  -0.00125564  0.99486995  1
  Cr  Cr19  1  0.82755887  0.16376009  0.15994896  1
  Cr  Cr20  1  0.65969653  -0.00262446  0.32990127  1
  Cr  Cr21  1  0.65863379  0.32689663  0.99532389  1
  Cr  Cr22  1  0.82731895  0.49389935  0.16476121  1
  Fe  Fe23  1  0.65666045  0.32732375  0.32823204  1
  Cr  Cr24  1  0.65943244  0.66049485  0.99489874  1
  Cr  Cr25  1  0.83020945  0.82862679  0.16177368  1
  Cr  Cr26  1  0.66223569  0.66344808  0.32853592  1
  Ni  Ni27  1  0.16634183  0.16143251  0.49531947  1
  Cr  Cr28  1  0.99463605  -0.00147720  0.66118918  1
  Cr  Cr29  1  0.16213460  0.16169152  0.83037812  1
  Cr  Cr30  1  0.16051570  0.49196823  0.49438699  1
  Ni  Ni31  1  0.99372757  0.32532638  0.66224854  1
  Cr  Cr32  1  0.16218544  0.49233227  0.82926739  1
  Cr  Cr33  1  0.16476275  0.83174492  0.49412071  1
  Cr  Cr34  1  0.99474002  0.66191245  0.65956971  1
  Cr  Cr35  1  0.16454015  0.83237274  0.83130250  1
  Ni  Ni36  1  0.49179789  0.16037710  0.49387337  1
  Fe  Fe37  1  0.33112939  -0.00149953  0.65998413  1
  Ni  Ni38  1  0.49563490  0.16447800  0.82916713  1
  Cr  Cr39  1  0.49839736  0.49334624  0.49567445  1
  Cr  Cr40  1  0.32922451  0.32642123  0.66231429  1
  Ni  Ni41  1  0.49715169  0.49162682  0.82812179  1
  Ni  Ni42  1  0.49644276  0.83204268  0.49669636  1
  Cr  Cr43  1  0.33164404  0.66173405  0.66339782  1
  Cr  Cr44  1  0.49400336  0.82975122  0.82676356  1
  Cr  Cr45  1  0.82708416  0.16535060  0.49667889  1
  Cr  Cr46  1  0.66074018  -0.00318519  0.66092624  1
  Ni  Ni47  1  0.82836448  0.16509537  0.82888799  1
  Cr  Cr48  1  0.82704335  0.49551416  0.49675103  1
  Ni  Ni49  1  0.66089670  0.32717061  0.66388921  1
  Cr  Cr50  1  0.82636387  0.49152155  0.82474313  1
  Ni  Ni51  1  0.82632099  0.82648343  0.49491950  1
  Ni  Ni52  1  0.66032299  0.66194319  0.66109695  1
  Cr  Cr53  1  0.82796893  0.82986619  0.82932738  1
" 