3281,Ni33Fe60Cr6_17,-234.575942607826, 204.019996520089,Ni33Fe60Cr6,"# generated using pymatgen
 data_Cr5Fe32Ni17
_symmetry_space_group_name_H-M   'P 1'
_cell_length_a   7.41821309
_cell_length_b   7.41821309
_cell_length_c   10.49093756
_cell_angle_alpha   90.00000000
_cell_angle_beta   90.00000000
_cell_angle_gamma   90.00000000
_symmetry_Int_Tables_number   1
_chemical_formula_structural   Cr5Fe32Ni17
_chemical_formula_sum   'Cr5 Fe32 Ni17'
_cell_volume   577.31509177
_cell_formula_units_Z   1
loop_
 _symmetry_equiv_pos_site_id
 _symmetry_equiv_pos_as_xyz
  1  'x, y, z'
loop_
 _atom_site_type_symbol
 _atom_site_label
 _atom_site_symmetry_multiplicity
 _atom_site_fract_x
 _atom_site_fract_y
 _atom_site_fract_z
 _atom_site_occupancy
  Fe  Fe0  1  1.00269512  1.00308143  1.00300607  1
  Ni  Ni1  1  0.16948106  0.17100250  0.16858655  1
  Fe  Fe2  1  1.00122064  1.00266362  0.33704373  1
  Fe  Fe3  1  1.00317854  0.33639763  0.00332939  1
  Ni  Ni4  1  0.17092974  0.50315478  0.17055755  1
  Fe  Fe5  1  0.00409862  0.33581919  0.33585383  1
  Ni  Ni6  1  0.00456673  0.66876810  0.00339790  1
  Fe  Fe7  1  0.16970904  0.83538961  0.16918571  1
  Fe  Fe8  1  0.00377450  0.67138994  0.33545823  1
  Fe  Fe9  1  0.33655976  0.00331373  0.00378019  1
  Ni  Ni10  1  0.50351174  0.17072848  0.16953334  1
  Cr  Cr11  1  0.33741575  0.00332091  0.33545505  1
  Fe  Fe12  1  0.33654029  0.33663149  0.00422397  1
  Ni  Ni13  1  0.50231184  0.50368350  0.17063283  1
  Fe  Fe14  1  0.33769134  0.33884112  0.33592378  1
  Fe  Fe15  1  0.33663773  0.66993097  0.00384984  1
  Fe  Fe16  1  0.50400872  0.83602599  0.16985080  1
  Ni  Ni17  1  0.33574961  0.66682867  0.33471545  1
  Ni  Ni18  1  0.66927559  0.00432962  0.00415901  1
  Fe  Fe19  1  0.83617962  0.16997772  0.17000439  1
  Ni  Ni20  1  0.67217297  0.00451958  0.33579651  1
  Fe  Fe21  1  0.67015487  0.33647522  1.00279294  1
  Fe  Fe22  1  0.83681662  0.50333716  0.17001845  1
  Fe  Fe23  1  0.66808026  0.33628409  0.33657752  1
  Fe  Fe24  1  0.67038790  0.67041394  0.00417422  1
  Ni  Ni25  1  0.83635240  0.83691850  0.17078266  1
  Ni  Ni26  1  0.66915165  0.66992074  0.33492858  1
  Fe  Fe27  1  0.16976981  0.17019512  0.50308707  1
  Ni  Ni28  1  1.00223698  1.00189671  0.66948873  1
  Fe  Fe29  1  0.17016042  0.16900683  0.83755965  1
  Fe  Fe30  1  0.17159347  0.50351616  0.50141681  1
  Cr  Cr31  1  1.00297023  0.33644516  0.67136914  1
  Fe  Fe32  1  0.16897181  0.50339967  0.83857458  1
  Fe  Fe33  1  0.16668542  0.83615475  0.50377531  1
  Ni  Ni34  1  0.00393029  0.67210202  0.66995646  1
  Fe  Fe35  1  0.16817380  0.83746438  0.83689907  1
  Fe  Fe36  1  0.50529088  0.17256322  0.50395455  1
  Fe  Fe37  1  0.33552518  0.00559301  0.67062258  1
  Fe  Fe38  1  0.50437999  0.16966599  0.83684998  1
  Ni  Ni39  1  0.50205346  0.50180736  0.50305137  1
  Fe  Fe40  1  0.33829575  0.33499576  0.66972664  1
  Fe  Fe41  1  0.50465873  0.50183045  0.83692833  1
  Cr  Cr42  1  0.50525601  0.83561269  0.50309489  1
  Cr  Cr43  1  0.33492122  0.66862472  0.66988516  1
  Fe  Fe44  1  0.50479693  0.83837721  0.83716240  1
  Ni  Ni45  1  0.83668720  0.16716113  0.50222888  1
  Ni  Ni46  1  0.67103697  0.00569323  0.66992613  1
  Ni  Ni47  1  0.83624754  0.16879318  0.83745061  1
  Cr  Cr48  1  0.83494935  0.50426464  0.50311040  1
  Ni  Ni49  1  0.66771781  0.33425447  0.67042965  1
  Fe  Fe50  1  0.83624306  0.50381779  0.83691943  1
  Fe  Fe51  1  0.83748956  0.83828931  0.50301876  1
  Fe  Fe52  1  0.67214564  0.66988336  0.67074981  1
  Fe  Fe53  1  0.83690240  0.83718600  0.83688766  1
" 