6712,Ni33Fe60Cr6_3,-234.316424282664, 204.177884507833,Ni33Fe60Cr6,"# generated using pymatgen
 data_Cr5Fe32Ni17
_symmetry_space_group_name_H-M   'P 1'
_cell_length_a   7.41812697
_cell_length_b   7.41812697
_cell_length_c   10.49081576
_cell_angle_alpha   90.00000000
_cell_angle_beta   90.00000000
_cell_angle_gamma   90.00000000
_symmetry_Int_Tables_number   1
_chemical_formula_structural   Cr5Fe32Ni17
_chemical_formula_sum   'Cr5 Fe32 Ni17'
_cell_volume   577.29498499
_cell_formula_units_Z   1
loop_
 _symmetry_equiv_pos_site_id
 _symmetry_equiv_pos_as_xyz
  1  'x, y, z'
loop_
 _atom_site_type_symbol
 _atom_site_label
 _atom_site_symmetry_multiplicity
 _atom_site_fract_x
 _atom_site_fract_y
 _atom_site_fract_z
 _atom_site_occupancy
  Fe  Fe0  1  1.00313493  1.00293119  1.00311008  1
  Fe  Fe1  1  0.16971944  0.17152207  0.17129860  1
  Ni  Ni2  1  1.00219997  0.00436052  0.33547420  1
  Fe  Fe3  1  1.00323229  0.33686789  0.00335455  1
  Ni  Ni4  1  0.16820481  0.50263432  0.16933543  1
  Ni  Ni5  1  0.00387969  0.33600125  0.33623951  1
  Fe  Fe6  1  1.00309898  0.67009418  1.00306084  1
  Fe  Fe7  1  0.16891844  0.83676063  0.17010559  1
  Fe  Fe8  1  1.00208094  0.66932033  0.33626847  1
  Cr  Cr9  1  0.33697884  1.00300342  0.00355610  1
  Ni  Ni10  1  0.50297108  0.17006742  0.17256126  1
  Fe  Fe11  1  0.33644792  0.00534506  0.33586683  1
  Fe  Fe12  1  0.33637013  0.33729461  1.00299406  1
  Cr  Cr13  1  0.50311036  0.50185032  0.16852406  1
  Ni  Ni14  1  0.33525021  0.33496062  0.33625613  1
  Fe  Fe15  1  0.33615927  0.66931761  1.00204998  1
  Fe  Fe16  1  0.50379586  0.83716896  0.17040549  1
  Cr  Cr17  1  0.33693033  0.66918722  0.33681037  1
  Cr  Cr18  1  0.67077294  1.00295122  0.00376201  1
  Fe  Fe19  1  0.83769361  0.17125284  0.17156845  1
  Fe  Fe20  1  0.67017716  0.00402438  0.33673044  1
  Fe  Fe21  1  0.67028493  0.33732350  1.00240416  1
  Fe  Fe22  1  0.83810765  0.50292716  0.16983167  1
  Fe  Fe23  1  0.67074574  0.33583877  0.33744223  1
  Fe  Fe24  1  0.67062983  0.66942281  1.00213373  1
  Fe  Fe25  1  0.83717773  0.83571298  0.17068317  1
  Ni  Ni26  1  0.67157082  0.67144546  0.33702575  1
  Fe  Fe27  1  0.16939782  0.17086067  0.50330222  1
  Ni  Ni28  1  1.00137028  0.00525351  0.67178773  1
  Fe  Fe29  1  0.16892765  0.17089306  0.83529470  1
  Fe  Fe30  1  0.17032727  0.50065044  0.50297956  1
  Ni  Ni31  1  0.00380678  0.33487904  0.67037083  1
  Fe  Fe32  1  0.17096338  0.50325503  0.83731984  1
  Fe  Fe33  1  0.16973899  0.83837949  0.50345980  1
  Cr  Cr34  1  0.00342509  0.66923986  0.66868260  1
  Fe  Fe35  1  0.16995626  0.83574157  0.83632561  1
  Fe  Fe36  1  0.50349783  0.17065938  0.50289738  1
  Fe  Fe37  1  0.33617144  1.00326067  0.67049784  1
  Fe  Fe38  1  0.50421016  0.17139083  0.83551071  1
  Ni  Ni39  1  0.50327381  0.50294958  0.50433749  1
  Ni  Ni40  1  0.33652320  0.33794777  0.67067223  1
  Ni  Ni41  1  0.50309864  0.50394407  0.83692217  1
  Fe  Fe42  1  0.50476203  0.83697390  0.50464719  1
  Ni  Ni43  1  0.33878793  0.66889185  0.67121441  1
  Ni  Ni44  1  0.50344831  0.83429609  0.83481875  1
  Ni  Ni45  1  0.83796356  0.16914365  0.50367290  1
  Ni  Ni46  1  0.67042367  1.00298991  0.67042967  1
  Fe  Fe47  1  0.83675326  0.17038605  0.83478033  1
  Fe  Fe48  1  0.83559671  0.50191379  0.50256376  1
  Fe  Fe49  1  0.67015383  0.33672596  0.67005017  1
  Ni  Ni50  1  0.83531144  0.50283611  0.83742643  1
  Fe  Fe51  1  0.83539297  0.83790421  0.50281793  1
  Fe  Fe52  1  0.66822274  0.66975389  0.67023615  1
  Ni  Ni53  1  0.83690910  0.83735091  0.83618648  1
" 