6748,Ni33Fe49Cr17_14,-231.382359163184, 200.639876980272,Ni33Fe49Cr17,"# generated using pymatgen
 data_Cr11Fe26Ni17
_symmetry_space_group_name_H-M   'P 1'
_cell_length_a   7.43895602
_cell_length_b   7.43895602
_cell_length_c   10.52027250
_cell_angle_alpha   90.00000000
_cell_angle_beta   90.00000000
_cell_angle_gamma   90.00000000
_symmetry_Int_Tables_number   1
_chemical_formula_structural   Cr11Fe26Ni17
_chemical_formula_sum   'Cr11 Fe26 Ni17'
_cell_volume   582.17154116
_cell_formula_units_Z   1
loop_
 _symmetry_equiv_pos_site_id
 _symmetry_equiv_pos_as_xyz
  1  'x, y, z'
loop_
 _atom_site_type_symbol
 _atom_site_label
 _atom_site_symmetry_multiplicity
 _atom_site_fract_x
 _atom_site_fract_y
 _atom_site_fract_z
 _atom_site_occupancy
  Cr  Cr0  1  0.00215598  1.00103544  0.00286362  1
  Fe  Fe1  1  0.16860478  0.16821517  0.16874407  1
  Cr  Cr2  1  1.00121970  0.00244823  0.33479311  1
  Cr  Cr3  1  1.00115798  0.33618066  0.00266669  1
  Ni  Ni4  1  0.16671025  0.50389313  0.16968757  1
  Fe  Fe5  1  0.00223174  0.33467331  0.33415872  1
  Ni  Ni6  1  1.00153127  0.66795244  0.00298014  1
  Ni  Ni7  1  0.16794275  0.83316196  0.16884206  1
  Fe  Fe8  1  0.00311958  0.66848398  0.33350434  1
  Fe  Fe9  1  0.33428774  0.00247062  1.00097317  1
  Cr  Cr10  1  0.50231228  0.16745860  0.16668420  1
  Ni  Ni11  1  0.33498731  0.99978060  0.33575362  1
  Fe  Fe12  1  0.33524736  0.33551290  1.00104186  1
  Fe  Fe13  1  0.50200746  0.50251153  0.16786238  1
  Cr  Cr14  1  0.33409243  0.33647408  0.33573150  1
  Cr  Cr15  1  0.33455195  0.66772209  1.00140301  1
  Cr  Cr16  1  0.50146950  0.83605677  0.16979720  1
  Fe  Fe17  1  0.33481394  0.66985280  0.33534627  1
  Fe  Fe18  1  0.66892388  0.00256139  1.00143663  1
  Ni  Ni19  1  0.83494523  0.16886217  0.16892894  1
  Ni  Ni20  1  0.66928428  1.00036638  0.33658386  1
  Fe  Fe21  1  0.66889823  0.33636247  1.00049166  1
  Fe  Fe22  1  0.83623422  0.50349087  0.16796921  1
  Cr  Cr23  1  0.66930093  0.33484534  0.33557227  1
  Fe  Fe24  1  0.67050465  0.66673930  1.00139306  1
  Fe  Fe25  1  0.83597367  0.83401240  0.16839003  1
  Fe  Fe26  1  0.66772723  0.67050501  0.33542430  1
  Fe  Fe27  1  0.17006811  0.16812575  0.50302548  1
  Ni  Ni28  1  0.00192866  1.00097520  0.66797998  1
  Fe  Fe29  1  0.17018450  0.16840669  0.83389891  1
  Fe  Fe30  1  0.17046317  0.50199825  0.50149801  1
  Cr  Cr31  1  1.00130412  0.33388784  0.66876862  1
  Fe  Fe32  1  0.16848060  0.50224004  0.83518535  1
  Fe  Fe33  1  0.16964472  0.83553842  0.50231850  1
  Fe  Fe34  1  0.00303942  0.67018013  0.66928528  1
  Fe  Fe35  1  0.16906720  0.83501512  0.83422905  1
  Ni  Ni36  1  0.50207826  0.16671214  0.50385894  1
  Ni  Ni37  1  0.33518633  1.00130989  0.66892085  1
  Fe  Fe38  1  0.50285739  0.16930794  0.83413728  1
  Ni  Ni39  1  0.50001564  0.50269172  0.50281071  1
  Ni  Ni40  1  0.33748966  0.33636049  0.66900490  1
  Ni  Ni41  1  0.50226762  0.50053829  0.83480573  1
  Fe  Fe42  1  0.50257571  0.83650152  0.50151471  1
  Fe  Fe43  1  0.33597884  0.66833255  0.66871244  1
  Fe  Fe44  1  0.50220261  0.83589271  0.83447123  1
  Ni  Ni45  1  0.83382755  0.16613371  0.50294490  1
  Ni  Ni46  1  0.66855264  0.00283573  0.66723335  1
  Ni  Ni47  1  0.83311438  0.16926088  0.83379114  1
  Cr  Cr48  1  0.83529168  0.50178142  0.50261780  1
  Ni  Ni49  1  0.66629365  0.33488078  0.66987465  1
  Ni  Ni50  1  0.83383231  0.50178533  0.83588128  1
  Fe  Fe51  1  0.83344316  0.83689740  0.50286572  1
  Fe  Fe52  1  0.66664617  0.66804279  0.66885413  1
  Cr  Cr53  1  0.83588917  0.83469721  0.83444719  1
" 