5335,Ni33Fe60Cr6_19,-234.397439835051, 203.603706795917,Ni33Fe60Cr6,"# generated using pymatgen
 data_Cr5Fe32Ni17
_symmetry_space_group_name_H-M   'P 1'
_cell_length_a   7.41889339
_cell_length_b   7.41889339
_cell_length_c   10.49189964
_cell_angle_alpha   90.00000000
_cell_angle_beta   90.00000000
_cell_angle_gamma   90.00000000
_symmetry_Int_Tables_number   1
_chemical_formula_structural   Cr5Fe32Ni17
_chemical_formula_sum   'Cr5 Fe32 Ni17'
_cell_volume   577.47393668
_cell_formula_units_Z   1
loop_
 _symmetry_equiv_pos_site_id
 _symmetry_equiv_pos_as_xyz
  1  'x, y, z'
loop_
 _atom_site_type_symbol
 _atom_site_label
 _atom_site_symmetry_multiplicity
 _atom_site_fract_x
 _atom_site_fract_y
 _atom_site_fract_z
 _atom_site_occupancy
  Fe  Fe0  1  0.00342306  0.00406845  1.00314991  1
  Ni  Ni1  1  0.16986399  0.17074338  0.16926323  1
  Fe  Fe2  1  1.00304931  0.00518573  0.33544691  1
  Ni  Ni3  1  0.00500867  0.33493893  1.00281607  1
  Fe  Fe4  1  0.16872207  0.50256882  0.16969233  1
  Ni  Ni5  1  0.00554698  0.33563551  0.33693465  1
  Fe  Fe6  1  1.00230384  0.66950709  1.00259943  1
  Fe  Fe7  1  0.17186050  0.83764979  0.17047085  1
  Fe  Fe8  1  0.00446087  0.67008517  0.33579887  1
  Fe  Fe9  1  0.33674718  0.00495301  0.00360589  1
  Ni  Ni10  1  0.50153789  0.17020399  0.16985796  1
  Fe  Fe11  1  0.33594315  0.00474704  0.33576653  1
  Fe  Fe12  1  0.33588216  0.33422324  1.00137560  1
  Cr  Cr13  1  0.50345498  0.50111934  0.16779998  1
  Fe  Fe14  1  0.33677582  0.33431567  0.33836565  1
  Fe  Fe15  1  0.33558838  0.67095942  1.00214356  1
  Ni  Ni16  1  0.50456697  0.83671325  0.16918013  1
  Fe  Fe17  1  0.33502992  0.67052583  0.33794259  1
  Fe  Fe18  1  0.66977061  0.00495201  0.00405804  1
  Fe  Fe19  1  0.83624760  0.16980355  0.17020672  1
  Ni  Ni20  1  0.66826550  0.00445221  0.33422209  1
  Fe  Fe21  1  0.67142771  0.33522798  1.00127194  1
  Fe  Fe22  1  0.83839081  0.50200339  0.16842116  1
  Fe  Fe23  1  0.67091023  0.33403330  0.33816822  1
  Ni  Ni24  1  0.66959738  0.67200352  1.00112265  1
  Ni  Ni25  1  0.83810721  0.83560517  0.16852058  1
  Cr  Cr26  1  0.66898353  0.67150215  0.33826657  1
  Ni  Ni27  1  0.16992444  0.16954355  0.50526026  1
  Fe  Fe28  1  0.00376724  0.00584452  0.67083435  1
  Ni  Ni29  1  0.16999166  0.16984164  0.83544979  1
  Fe  Fe30  1  0.17092145  0.50154740  0.50148522  1
  Fe  Fe31  1  1.00227336  0.33439427  0.67029328  1
  Fe  Fe32  1  0.17093130  0.49962646  0.83846774  1
  Ni  Ni33  1  0.16886792  0.83998675  0.50185735  1
  Cr  Cr34  1  0.00402016  0.66774574  0.67113390  1
  Fe  Fe35  1  0.17066688  0.83988382  0.83735175  1
  Fe  Fe36  1  0.50305593  0.16863213  0.50386598  1
  Fe  Fe37  1  0.33758822  0.00494939  0.67010267  1
  Ni  Ni38  1  0.50212754  0.17144534  0.83630580  1
  Ni  Ni39  1  0.50455363  0.50068879  0.50514320  1
  Ni  Ni40  1  0.33526444  0.33525365  0.67000149  1
  Fe  Fe41  1  0.50407828  0.50087520  0.83616208  1
  Fe  Fe42  1  0.50086574  0.83969432  0.50289447  1
  Cr  Cr43  1  0.33721119  0.66993284  0.66963566  1
  Fe  Fe44  1  0.50390701  0.83954850  0.83819820  1
  Fe  Fe45  1  0.83655058  0.17066777  0.50286921  1
  Ni  Ni46  1  0.66853810  0.00416647  0.67116322  1
  Fe  Fe47  1  0.83615286  0.17028106  0.83623284  1
  Fe  Fe48  1  0.83734565  0.49946904  0.50372095  1
  Ni  Ni49  1  0.66937908  0.33511531  0.66935876  1
  Fe  Fe50  1  0.83486499  0.50029810  0.83764152  1
  Cr  Cr51  1  0.83657266  0.83839636  0.50497947  1
  Ni  Ni52  1  0.66930922  0.67029351  0.67120908  1
  Fe  Fe53  1  0.83505457  0.83940153  0.83716405  1
" 