4998,Ni33Fe49Cr17_6,-231.587563525452, 194.1213501087,Ni33Fe49Cr17,"# generated using pymatgen
 data_Cr11Fe26Ni17
_symmetry_space_group_name_H-M   'P 1'
_cell_length_a   7.44606626
_cell_length_b   7.44606626
_cell_length_c   10.53032790
_cell_angle_alpha   90.00000000
_cell_angle_beta   90.00000000
_cell_angle_gamma   90.00000000
_symmetry_Int_Tables_number   1
_chemical_formula_structural   Cr11Fe26Ni17
_chemical_formula_sum   'Cr11 Fe26 Ni17'
_cell_volume   583.84247645
_cell_formula_units_Z   1
loop_
 _symmetry_equiv_pos_site_id
 _symmetry_equiv_pos_as_xyz
  1  'x, y, z'
loop_
 _atom_site_type_symbol
 _atom_site_label
 _atom_site_symmetry_multiplicity
 _atom_site_fract_x
 _atom_site_fract_y
 _atom_site_fract_z
 _atom_site_occupancy
  Ni  Ni0  1  0.99973602  0.00380644  0.00218564  1
  Fe  Fe1  1  0.16649563  0.16707619  0.16821628  1
  Fe  Fe2  1  0.99898967  1.00094177  0.33424682  1
  Ni  Ni3  1  0.99848603  0.33201649  1.00049672  1
  Cr  Cr4  1  0.16725245  0.49923211  0.16843222  1
  Fe  Fe5  1  0.00145412  0.33436725  0.33525938  1
  Cr  Cr6  1  1.00091899  0.66930060  0.99987764  1
  Fe  Fe7  1  0.16564121  0.83742030  0.16923382  1
  Ni  Ni8  1  0.00177020  0.66818789  0.33567772  1
  Cr  Cr9  1  0.33391070  1.00038795  1.00131080  1
  Fe  Fe10  1  0.50255850  0.16589031  0.16845262  1
  Fe  Fe11  1  0.33665251  0.00313134  0.33436923  1
  Fe  Fe12  1  0.33494608  0.33271462  0.99969829  1
  Cr  Cr13  1  0.50194078  0.49922261  0.16593631  1
  Fe  Fe14  1  0.33370693  0.33169603  0.33659297  1
  Cr  Cr15  1  0.33528256  0.66974635  0.99991527  1
  Fe  Fe16  1  0.50384436  0.83817657  0.16876199  1
  Cr  Cr17  1  0.33337513  0.67022430  0.33546606  1
  Ni  Ni18  1  0.66974556  0.00377609  1.00102538  1
  Fe  Fe19  1  0.83516891  0.16689895  0.16624661  1
  Ni  Ni20  1  0.66767179  0.00282295  0.33606203  1
  Ni  Ni21  1  0.66977890  0.33326412  1.00099630  1
  Fe  Fe22  1  0.83592700  0.50101303  0.16712544  1
  Cr  Cr23  1  0.66969639  0.33147847  0.33626300  1
  Fe  Fe24  1  0.66990687  0.66917851  1.00000321  1
  Ni  Ni25  1  0.83526653  0.83775670  0.16832320  1
  Cr  Cr26  1  0.66998511  0.67001006  0.33600304  1
  Fe  Fe27  1  0.16791639  0.16831976  0.50170485  1
  Ni  Ni28  1  1.00125808  0.00246586  0.66923997  1
  Fe  Fe29  1  0.16577740  0.16790312  0.83430947  1
  Fe  Fe30  1  0.16629119  0.49858988  0.50062717  1
  Fe  Fe31  1  0.00201761  0.33426240  0.66849178  1
  Fe  Fe32  1  0.16668651  0.49947228  0.83450084  1
  Cr  Cr33  1  0.16519255  0.83505636  0.50010518  1
  Fe  Fe34  1  0.99817538  0.66869377  0.66864038  1
  Ni  Ni35  1  0.16511785  0.83601751  0.83435372  1
  Ni  Ni36  1  0.50039392  0.16763894  0.50072487  1
  Fe  Fe37  1  0.33580880  0.00293765  0.66859549  1
  Fe  Fe38  1  0.50252125  0.16773475  0.83494960  1
  Fe  Fe39  1  0.50180103  0.50109943  0.50293990  1
  Fe  Fe40  1  0.33389419  0.33339826  0.66793369  1
  Ni  Ni41  1  0.50075166  0.49986051  0.83638503  1
  Ni  Ni42  1  0.50466138  0.83709596  0.50194940  1
  Cr  Cr43  1  0.33599988  0.66865355  0.66884191  1
  Fe  Fe44  1  0.50466613  0.83520908  0.83343575  1
  Ni  Ni45  1  0.83520891  0.16611586  0.50043308  1
  Fe  Fe46  1  0.66912036  0.99910037  0.66717354  1
  Ni  Ni47  1  0.83602131  0.16601489  0.83710645  1
  Fe  Fe48  1  0.83613770  0.50295145  0.50201096  1
  Cr  Cr49  1  0.66891715  0.33439599  0.66676292  1
  Fe  Fe50  1  0.83428258  0.50161851  0.83509118  1
  Ni  Ni51  1  0.83369583  0.83585246  0.50247986  1
  Ni  Ni52  1  0.66827497  0.66894605  0.66768912  1
  Ni  Ni53  1  0.83538102  0.83693729  0.83342586  1
" 