8326,Ni33Fe7Cr59_12,-215.26124577258, 149.281153951821,Ni33Fe7Cr59,"# generated using pymatgen
 data_Cr11FeNi6
_symmetry_space_group_name_H-M   'P 1'
_cell_length_a   7.53913122
_cell_length_b   7.53913122
_cell_length_c   10.66194161
_cell_angle_alpha   90.00000000
_cell_angle_beta   90.00000000
_cell_angle_gamma   90.00000000
_symmetry_Int_Tables_number   1
_chemical_formula_structural   Cr11FeNi6
_chemical_formula_sum   'Cr33 Fe3 Ni18'
_cell_volume   606.00876303
_cell_formula_units_Z   3
loop_
 _symmetry_equiv_pos_site_id
 _symmetry_equiv_pos_as_xyz
  1  'x, y, z'
loop_
 _atom_site_type_symbol
 _atom_site_label
 _atom_site_symmetry_multiplicity
 _atom_site_fract_x
 _atom_site_fract_y
 _atom_site_fract_z
 _atom_site_occupancy
  Cr  Cr0  1  -0.00376547  -0.00173521  -0.00449213  1
  Ni  Ni1  1  0.15905719  0.16190819  0.16309301  1
  Ni  Ni2  1  0.99198623  -0.00254290  0.33032725  1
  Cr  Cr3  1  0.99410934  0.32635875  -0.00119119  1
  Ni  Ni4  1  0.15798174  0.49452937  0.16041426  1
  Cr  Cr5  1  0.99216575  0.32528015  0.32679944  1
  Ni  Ni6  1  -0.00413892  0.66097568  -0.00376527  1
  Cr  Cr7  1  0.15906126  0.82698334  0.16178675  1
  Cr  Cr8  1  0.99188236  0.66300105  0.32904041  1
  Cr  Cr9  1  0.32687073  -0.00451311  -0.00447577  1
  Cr  Cr10  1  0.49876855  0.15854728  0.16405057  1
  Cr  Cr11  1  0.32545082  0.99346339  0.32938350  1
  Cr  Cr12  1  0.32642916  0.32670036  0.99454208  1
  Cr  Cr13  1  0.49404227  0.49342440  0.16348105  1
  Cr  Cr14  1  0.32492152  0.32664424  0.32673914  1
  Cr  Cr15  1  0.32991049  0.66333354  -0.00329773  1
  Ni  Ni16  1  0.49769747  0.83181713  0.16251459  1
  Cr  Cr17  1  0.33056353  0.66530685  0.32815950  1
  Ni  Ni18  1  0.66207030  -0.00457099  -0.00197653  1
  Ni  Ni19  1  0.82836089  0.16051476  0.16425081  1
  Ni  Ni20  1  0.66533830  0.99510076  0.32963723  1
  Cr  Cr21  1  0.66502347  0.32912723  -0.00401522  1
  Ni  Ni22  1  0.83155058  0.49421905  0.16210143  1
  Ni  Ni23  1  0.66758799  0.32693218  0.32907255  1
  Cr  Cr24  1  0.66269180  0.66127192  -0.00236511  1
  Cr  Cr25  1  0.82788272  0.83170007  0.16020886  1
  Cr  Cr26  1  0.66283309  0.66238953  0.32945412  1
  Ni  Ni27  1  0.15882869  0.15969583  0.49403017  1
  Cr  Cr28  1  -0.00475310  -0.00459649  0.65991136  1
  Ni  Ni29  1  0.16190984  0.16207606  0.82849634  1
  Cr  Cr30  1  0.15962694  0.49558587  0.49468957  1
  Cr  Cr31  1  0.99358641  0.32533118  0.65952185  1
  Cr  Cr32  1  0.16017215  0.49799055  0.82858641  1
  Fe  Fe33  1  0.15787868  0.82997989  0.49399373  1
  Ni  Ni34  1  0.99487930  0.66517544  0.65935318  1
  Fe  Fe35  1  0.15944822  0.82890852  0.82879758  1
  Cr  Cr36  1  0.49739420  0.16017966  0.49379934  1
  Cr  Cr37  1  0.32587064  0.99427818  0.66071565  1
  Cr  Cr38  1  0.49721154  0.16031071  0.82779349  1
  Cr  Cr39  1  0.49457589  0.49291002  0.49520622  1
  Cr  Cr40  1  0.32686004  0.32626157  0.66430353  1
  Fe  Fe41  1  0.49583472  0.49546559  0.82847125  1
  Ni  Ni42  1  0.49928223  0.83202563  0.49440587  1
  Cr  Cr43  1  0.32984463  0.66607102  0.66088648  1
  Cr  Cr44  1  0.49894084  0.83166681  0.82982533  1
  Ni  Ni45  1  0.82881251  0.15819818  0.49311899  1
  Ni  Ni46  1  0.66290122  0.99350012  0.65851344  1
  Cr  Cr47  1  0.82675174  0.15774464  0.82854218  1
  Ni  Ni48  1  0.83038301  0.49622964  0.49539255  1
  Cr  Cr49  1  0.66510711  0.32887119  0.66095704  1
  Cr  Cr50  1  0.83273815  0.49894055  0.82788080  1
  Ni  Ni51  1  0.82793457  0.83110911  0.49602642  1
  Cr  Cr52  1  0.66326162  0.66304923  0.65935451  1
  Cr  Cr53  1  0.83023100  0.82872019  0.82979504  1
" 