4785,Ni33Fe27Cr39_15,-223.373413166361, 178.006341368027,Ni33Fe27Cr39,"# generated using pymatgen
 data_Cr23Fe14Ni17
_symmetry_space_group_name_H-M   'P 1'
_cell_length_a   7.49112179
_cell_length_b   7.49112179
_cell_length_c   10.59404603
_cell_angle_alpha   90.00000000
_cell_angle_beta   90.00000000
_cell_angle_gamma   90.00000000
_symmetry_Int_Tables_number   1
_chemical_formula_structural   Cr23Fe14Ni17
_chemical_formula_sum   'Cr23 Fe14 Ni17'
_cell_volume   594.50508149
_cell_formula_units_Z   1
loop_
 _symmetry_equiv_pos_site_id
 _symmetry_equiv_pos_as_xyz
  1  'x, y, z'
loop_
 _atom_site_type_symbol
 _atom_site_label
 _atom_site_symmetry_multiplicity
 _atom_site_fract_x
 _atom_site_fract_y
 _atom_site_fract_z
 _atom_site_occupancy
  Cr  Cr0  1  0.99816288  0.99261393  -0.00052784  1
  Cr  Cr1  1  0.16743678  0.16573152  0.16388720  1
  Cr  Cr2  1  0.00007419  0.99572890  0.33215488  1
  Cr  Cr3  1  0.99617932  0.33615570  0.99819836  1
  Cr  Cr4  1  0.16761594  0.49851478  0.16482321  1
  Fe  Fe5  1  -0.00102248  0.33405744  0.33220634  1
  Ni  Ni6  1  0.00025289  0.66521863  -0.00143955  1
  Fe  Fe7  1  0.16712875  0.82900134  0.16411154  1
  Cr  Cr8  1  -0.00018117  0.66741492  0.32969796  1
  Ni  Ni9  1  0.33377116  0.99715234  -0.00138667  1
  Fe  Fe10  1  0.49942582  0.16558895  0.16474207  1
  Cr  Cr11  1  0.33143217  0.99644125  0.33311029  1
  Fe  Fe12  1  0.33380196  0.33358974  0.99822022  1
  Ni  Ni13  1  0.49807293  0.50122368  0.16557518  1
  Cr  Cr14  1  0.33485778  0.33289552  0.33282427  1
  Ni  Ni15  1  0.33036271  0.66594209  -0.00091211  1
  Fe  Fe16  1  0.49787742  0.82984772  0.16523685  1
  Ni  Ni17  1  0.33457925  0.66531067  0.33259954  1
  Ni  Ni18  1  0.66127357  -0.00098880  0.00131849  1
  Cr  Cr19  1  0.83128023  0.16533672  0.16777774  1
  Fe  Fe20  1  0.66207128  0.99566090  0.33091749  1
  Cr  Cr21  1  0.66213464  0.33268104  0.99726186  1
  Ni  Ni22  1  0.82938956  0.50066170  0.16642059  1
  Ni  Ni23  1  0.66311122  0.33328612  0.33061354  1
  Cr  Cr24  1  0.66684943  0.66293205  -0.00062939  1
  Ni  Ni25  1  0.82734648  0.82984028  0.16462437  1
  Ni  Ni26  1  0.66224427  0.66306532  0.33025042  1
  Ni  Ni27  1  0.16680247  0.16673362  0.49936351  1
  Cr  Cr28  1  0.00202361  0.99729118  0.66370326  1
  Cr  Cr29  1  0.16771829  0.16579925  0.83251444  1
  Fe  Fe30  1  0.16650507  0.50056833  0.49826003  1
  Ni  Ni31  1  0.00050394  0.33332216  0.66360110  1
  Fe  Fe32  1  0.16589873  0.50135762  0.83235308  1
  Ni  Ni33  1  0.17123302  0.83163373  0.50005172  1
  Cr  Cr34  1  0.00004638  0.66487022  0.66685954  1
  Fe  Fe35  1  0.16709249  0.82878465  0.83257156  1
  Fe  Fe36  1  0.49870559  0.16336707  0.49754275  1
  Fe  Fe37  1  0.33197691  0.99669208  0.66327362  1
  Fe  Fe38  1  0.49785100  0.16382568  0.83381868  1
  Fe  Fe39  1  0.49786376  0.50201814  0.49698799  1
  Cr  Cr40  1  0.33325686  0.33264272  0.66450385  1
  Fe  Fe41  1  0.49640060  0.50071202  0.83232160  1
  Ni  Ni42  1  0.49543111  0.82812494  0.49807866  1
  Ni  Ni43  1  0.33266734  0.66467703  0.66314979  1
  Cr  Cr44  1  0.49581429  0.83041901  0.83090440  1
  Cr  Cr45  1  0.83340088  0.16756471  0.49657059  1
  Cr  Cr46  1  0.66203936  -0.00100352  0.66380237  1
  Cr  Cr47  1  0.83283495  0.16553105  0.83089708  1
  Cr  Cr48  1  0.83012077  0.49822606  0.49730582  1
  Cr  Cr49  1  0.66321522  0.33415804  0.66733256  1
  Ni  Ni50  1  0.83285794  0.49947356  0.83071378  1
  Cr  Cr51  1  0.82609760  0.82941496  0.49880382  1
  Ni  Ni52  1  0.66111500  0.66244640  0.66470090  1
  Cr  Cr53  1  0.82822806  0.82967511  0.83156692  1
" 