5225,Ni33Fe60Cr6_11,-233.969506491156, 194.26570775671,Ni33Fe60Cr6,"# generated using pymatgen
 data_Cr5Fe32Ni17
_symmetry_space_group_name_H-M   'P 1'
_cell_length_a   7.41836794
_cell_length_b   7.41836794
_cell_length_c   10.49115655
_cell_angle_alpha   90.00000000
_cell_angle_beta   90.00000000
_cell_angle_gamma   90.00000000
_symmetry_Int_Tables_number   1
_chemical_formula_structural   Cr5Fe32Ni17
_chemical_formula_sum   'Cr5 Fe32 Ni17'
_cell_volume   577.35124598
_cell_formula_units_Z   1
loop_
 _symmetry_equiv_pos_site_id
 _symmetry_equiv_pos_as_xyz
  1  'x, y, z'
loop_
 _atom_site_type_symbol
 _atom_site_label
 _atom_site_symmetry_multiplicity
 _atom_site_fract_x
 _atom_site_fract_y
 _atom_site_fract_z
 _atom_site_occupancy
  Fe  Fe0  1  1.00157004  0.00501354  0.00339991  1
  Fe  Fe1  1  0.16735476  0.17235847  0.16867389  1
  Fe  Fe2  1  1.00082273  0.00380261  0.33727938  1
  Fe  Fe3  1  0.00364107  0.33710935  0.00386253  1
  Ni  Ni4  1  0.17055667  0.50326690  0.16973046  1
  Ni  Ni5  1  1.00204716  0.33777075  0.33678221  1
  Fe  Fe6  1  1.00187119  0.66771865  0.00352955  1
  Cr  Cr7  1  0.16881271  0.83533384  0.16959922  1
  Ni  Ni8  1  1.00107966  0.66821965  0.33738043  1
  Fe  Fe9  1  0.33835876  0.00499139  1.00308577  1
  Fe  Fe10  1  0.50580102  0.17084258  0.16822542  1
  Cr  Cr11  1  0.33740656  1.00326716  0.33711999  1
  Fe  Fe12  1  0.33662832  0.33747050  0.00330893  1
  Ni  Ni13  1  0.50431919  0.50361854  0.16903408  1
  Cr  Cr14  1  0.33454149  0.33678905  0.33479750  1
  Ni  Ni15  1  0.33772130  0.66884971  0.00391500  1
  Fe  Fe16  1  0.50630660  0.83458372  0.16918007  1
  Fe  Fe17  1  0.33584389  0.66911684  0.33610167  1
  Fe  Fe18  1  0.66991262  1.00322017  0.00362469  1
  Ni  Ni19  1  0.83549469  0.16964532  0.17057744  1
  Fe  Fe20  1  0.67248546  1.00294363  0.33617499  1
  Ni  Ni21  1  0.66997806  0.33611665  0.00381012  1
  Ni  Ni22  1  0.83496702  0.50249829  0.17024959  1
  Fe  Fe23  1  0.67321915  0.33697719  0.33498934  1
  Fe  Fe24  1  0.66955403  0.66945106  0.00433348  1
  Ni  Ni25  1  0.83513968  0.83770084  0.16998696  1
  Ni  Ni26  1  0.67224304  0.67117229  0.33527871  1
  Ni  Ni27  1  0.16827119  0.16828190  0.50492589  1
  Fe  Fe28  1  1.00318031  0.00377698  0.66916996  1
  Ni  Ni29  1  0.17016280  0.17083705  0.83716925  1
  Ni  Ni30  1  0.16795459  0.50479874  0.50396199  1
  Fe  Fe31  1  0.00399347  0.33724496  0.66931253  1
  Ni  Ni32  1  0.17069012  0.50197172  0.83614856  1
  Ni  Ni33  1  0.16933779  0.83676155  0.50427970  1
  Ni  Ni34  1  1.00267991  0.66886370  0.66920696  1
  Cr  Cr35  1  0.16973535  0.83667895  0.83663702  1
  Fe  Fe36  1  0.50379500  0.16883240  0.50493115  1
  Fe  Fe37  1  0.33637035  0.00385691  0.66870919  1
  Fe  Fe38  1  0.50248263  0.17040200  0.83668569  1
  Cr  Cr39  1  0.50451716  0.50394673  0.50331733  1
  Fe  Fe40  1  0.33458393  0.33619084  0.67055124  1
  Fe  Fe41  1  0.50220413  0.50295142  0.83738402  1
  Fe  Fe42  1  0.50320364  0.83684516  0.50389087  1
  Fe  Fe43  1  0.33562539  0.66979409  0.67032089  1
  Fe  Fe44  1  0.50350946  0.83648864  0.83677265  1
  Fe  Fe45  1  0.83786519  0.17080178  0.50267689  1
  Fe  Fe46  1  0.67029132  1.00273719  0.67004567  1
  Fe  Fe47  1  0.83735558  0.17037470  0.83735410  1
  Ni  Ni48  1  0.83715080  0.50297178  0.50278864  1
  Fe  Fe49  1  0.67126680  0.33650088  0.67100796  1
  Fe  Fe50  1  0.83761032  0.50295250  0.83634527  1
  Fe  Fe51  1  0.83798801  0.83534590  0.50276692  1
  Fe  Fe52  1  0.67134507  0.67060483  0.67003158  1
  Fe  Fe53  1  0.83632805  0.83651324  0.83675196  1
" 