179,Ni33Fe49Cr17_7,-231.378358493845, 200.692394596499,Ni33Fe49Cr17,"# generated using pymatgen
 data_Cr11Fe26Ni17
_symmetry_space_group_name_H-M   'P 1'
_cell_length_a   7.43745708
_cell_length_b   7.43745708
_cell_length_c   10.51815267
_cell_angle_alpha   90.00000000
_cell_angle_beta   90.00000000
_cell_angle_gamma   90.00000000
_symmetry_Int_Tables_number   1
_chemical_formula_structural   Cr11Fe26Ni17
_chemical_formula_sum   'Cr11 Fe26 Ni17'
_cell_volume   581.81969035
_cell_formula_units_Z   1
loop_
 _symmetry_equiv_pos_site_id
 _symmetry_equiv_pos_as_xyz
  1  'x, y, z'
loop_
 _atom_site_type_symbol
 _atom_site_label
 _atom_site_symmetry_multiplicity
 _atom_site_fract_x
 _atom_site_fract_y
 _atom_site_fract_z
 _atom_site_occupancy
  Fe  Fe0  1  0.00276984  0.00494264  0.00438180  1
  Ni  Ni1  1  0.16918569  0.16915160  0.16926792  1
  Ni  Ni2  1  0.00398995  1.00139892  0.33385246  1
  Fe  Fe3  1  0.00443522  0.33347546  1.00145201  1
  Fe  Fe4  1  0.17236579  0.50041154  0.17039885  1
  Ni  Ni5  1  0.00320913  0.33418805  0.33396031  1
  Cr  Cr6  1  0.00410213  0.66783225  0.00460964  1
  Fe  Fe7  1  0.17121625  0.83715807  0.16950383  1
  Fe  Fe8  1  0.00327883  0.67140593  0.33533473  1
  Ni  Ni9  1  0.33583064  0.00297466  0.00364708  1
  Ni  Ni10  1  0.49853976  0.16863628  0.16893597  1
  Fe  Fe11  1  0.33395622  1.00140118  0.33513595  1
  Ni  Ni12  1  0.33453275  0.33499627  0.00265051  1
  Ni  Ni13  1  0.49959749  0.50122452  0.17082209  1
  Fe  Fe14  1  0.33525445  0.33344780  0.33458874  1
  Fe  Fe15  1  0.33633748  0.66712885  0.00411721  1
  Ni  Ni16  1  0.50087271  0.83600624  0.16662492  1
  Ni  Ni17  1  0.33679645  0.66975784  0.33296909  1
  Fe  Fe18  1  0.66647635  0.00296619  0.00343622  1
  Fe  Fe19  1  0.83570335  0.16713260  0.16948085  1
  Cr  Cr20  1  0.66644141  1.00149982  0.33327988  1
  Cr  Cr21  1  0.66797813  0.33457216  0.00277687  1
  Cr  Cr22  1  0.83626955  0.50131743  0.17265369  1
  Fe  Fe23  1  0.66565301  0.33566769  0.33555764  1
  Cr  Cr24  1  0.66717100  0.66864264  0.00304366  1
  Ni  Ni25  1  0.83605045  0.83690863  0.16932767  1
  Fe  Fe26  1  0.66695767  0.66974043  0.33539509  1
  Fe  Fe27  1  0.17102303  0.16850999  0.50040261  1
  Cr  Cr28  1  0.00382016  0.00317876  0.66610569  1
  Fe  Fe29  1  0.17028532  0.17039187  0.83630435  1
  Cr  Cr30  1  0.16733328  0.50055731  0.50219410  1
  Ni  Ni31  1  0.00354435  0.33672397  0.67142527  1
  Fe  Fe32  1  0.16984806  0.50005082  0.83452633  1
  Fe  Fe33  1  0.17133165  0.83632044  0.50024217  1
  Fe  Fe34  1  1.00156641  0.66710823  0.66851142  1
  Cr  Cr35  1  0.17268164  0.83585509  0.83517584  1
  Ni  Ni36  1  0.49956102  0.16747629  0.50199590  1
  Ni  Ni37  1  0.33708483  0.00272095  0.66626841  1
  Fe  Fe38  1  0.49929635  0.16653340  0.83507212  1
  Fe  Fe39  1  0.50148699  0.50241264  0.49977829  1
  Ni  Ni40  1  0.33486864  0.33452704  0.66889051  1
  Fe  Fe41  1  0.49924080  0.50283060  0.83561890  1
  Ni  Ni42  1  0.50137246  0.83555359  0.50386751  1
  Fe  Fe43  1  0.33727923  0.66829396  0.66727716  1
  Fe  Fe44  1  0.50065474  0.83631381  0.83460290  1
  Cr  Cr45  1  0.83554654  0.17019562  0.50115113  1
  Ni  Ni46  1  0.66587120  1.00073065  0.67016973  1
  Fe  Fe47  1  0.83642742  0.16902282  0.83497579  1
  Fe  Fe48  1  0.83397054  0.50347412  0.50132847  1
  Cr  Cr49  1  0.66690998  0.33546010  0.66806627  1
  Ni  Ni50  1  0.83723197  0.50067348  0.83248851  1
  Fe  Fe51  1  0.83374695  0.83378497  0.50122521  1
  Fe  Fe52  1  0.66705056  0.66870573  0.66796734  1
  Cr  Cr53  1  0.83341587  0.83602977  0.83458512  1
" 