3178,Ni33Fe49Cr17_8,-231.295880408174, 196.2757546727,Ni33Fe49Cr17,"# generated using pymatgen
 data_Cr11Fe26Ni17
_symmetry_space_group_name_H-M   'P 1'
_cell_length_a   7.44374817
_cell_length_b   7.44374817
_cell_length_c   10.52704962
_cell_angle_alpha   90.00000000
_cell_angle_beta   90.00000000
_cell_angle_gamma   90.00000000
_symmetry_Int_Tables_number   1
_chemical_formula_structural   Cr11Fe26Ni17
_chemical_formula_sum   'Cr11 Fe26 Ni17'
_cell_volume   583.29736473
_cell_formula_units_Z   1
loop_
 _symmetry_equiv_pos_site_id
 _symmetry_equiv_pos_as_xyz
  1  'x, y, z'
loop_
 _atom_site_type_symbol
 _atom_site_label
 _atom_site_symmetry_multiplicity
 _atom_site_fract_x
 _atom_site_fract_y
 _atom_site_fract_z
 _atom_site_occupancy
  Ni  Ni0  1  0.00434105  0.00194324  0.00206885  1
  Fe  Fe1  1  0.17000170  0.16790935  0.16891364  1
  Cr  Cr2  1  0.00461033  1.00029342  0.33431949  1
  Cr  Cr3  1  0.00182099  0.33195639  0.99854827  1
  Ni  Ni4  1  0.16704228  0.49937769  0.16910322  1
  Ni  Ni5  1  1.00046168  0.33395103  0.33533026  1
  Cr  Cr6  1  1.00074471  0.66987120  0.00475393  1
  Ni  Ni7  1  0.16890223  0.83560721  0.16721758  1
  Fe  Fe8  1  0.00259348  0.66848512  0.33369753  1
  Ni  Ni9  1  0.33258416  0.00313500  1.00002292  1
  Fe  Fe10  1  0.49870797  0.16933622  0.16802531  1
  Ni  Ni11  1  0.33485716  0.00388783  0.33812506  1
  Fe  Fe12  1  0.33388978  0.33398219  1.00052120  1
  Fe  Fe13  1  0.49882657  0.49955281  0.16890426  1
  Fe  Fe14  1  0.33304183  0.33118436  0.33404506  1
  Fe  Fe15  1  0.33230967  0.66789194  1.00150658  1
  Cr  Cr16  1  0.50108691  0.84029844  0.16523292  1
  Cr  Cr17  1  0.33390440  0.67198033  0.33474115  1
  Fe  Fe18  1  0.67038983  0.00301565  0.99871117  1
  Fe  Fe19  1  0.83589230  0.16742220  0.16880998  1
  Fe  Fe20  1  0.66682240  0.00395778  0.33722623  1
  Cr  Cr21  1  0.66721170  0.33593877  1.00125448  1
  Ni  Ni22  1  0.83722075  0.49851412  0.17175749  1
  Fe  Fe23  1  0.66934775  0.33082514  0.33410296  1
  Cr  Cr24  1  0.66758130  0.66701511  1.00039617  1
  Fe  Fe25  1  0.83721516  0.83609387  0.16721256  1
  Cr  Cr26  1  0.67120373  0.66890855  0.33517724  1
  Ni  Ni27  1  0.16653461  0.16663067  0.50223783  1
  Ni  Ni28  1  0.00278441  1.00086015  0.66887948  1
  Fe  Fe29  1  0.16807130  0.16383300  0.83388984  1
  Cr  Cr30  1  0.16395095  0.50124367  0.50119896  1
  Fe  Fe31  1  0.99743692  0.33331420  0.66818719  1
  Fe  Fe32  1  0.16832302  0.50376475  0.83376836  1
  Ni  Ni33  1  0.16839477  0.83731514  0.50406735  1
  Ni  Ni34  1  0.99989009  0.67050965  0.66747659  1
  Fe  Fe35  1  0.16778723  0.83711560  0.83426560  1
  Fe  Fe36  1  0.50132378  0.16507640  0.50244006  1
  Fe  Fe37  1  0.33571456  0.99964662  0.66794428  1
  Ni  Ni38  1  0.50230340  0.16665705  0.83475745  1
  Cr  Cr39  1  0.50387179  0.50122794  0.50174116  1
  Cr  Cr40  1  0.33503369  0.33104194  0.66893996  1
  Fe  Fe41  1  0.50177162  0.50248371  0.83241265  1
  Ni  Ni42  1  0.50288191  0.83866079  0.50538382  1
  Fe  Fe43  1  0.33533566  0.67224180  0.66868916  1
  Fe  Fe44  1  0.50175717  0.83737516  0.83338953  1
  Fe  Fe45  1  0.83522489  0.16809668  0.50320613  1
  Ni  Ni46  1  0.66877879  1.00147859  0.66824342  1
  Fe  Fe47  1  0.83396872  0.16457098  0.83228303  1
  Fe  Fe48  1  0.83613369  0.50115379  0.50252782  1
  Ni  Ni49  1  0.66907597  0.33474207  0.66802712  1
  Fe  Fe50  1  0.83464819  0.50233708  0.83129703  1
  Fe  Fe51  1  0.83594791  0.83546824  0.50554056  1
  Ni  Ni52  1  0.66961689  0.66857978  0.66928891  1
  Ni  Ni53  1  0.83533806  0.83675143  0.83470302  1
" 