7418,Ni33Fe27Cr39_18,-223.231862179454, 178.386193437093,Ni33Fe27Cr39,"# generated using pymatgen
 data_Cr23Fe14Ni17
_symmetry_space_group_name_H-M   'P 1'
_cell_length_a   7.48809726
_cell_length_b   7.48809726
_cell_length_c   10.58976871
_cell_angle_alpha   90.00000000
_cell_angle_beta   90.00000000
_cell_angle_gamma   90.00000000
_symmetry_Int_Tables_number   1
_chemical_formula_structural   Cr23Fe14Ni17
_chemical_formula_sum   'Cr23 Fe14 Ni17'
_cell_volume   593.78528174
_cell_formula_units_Z   1
loop_
 _symmetry_equiv_pos_site_id
 _symmetry_equiv_pos_as_xyz
  1  'x, y, z'
loop_
 _atom_site_type_symbol
 _atom_site_label
 _atom_site_symmetry_multiplicity
 _atom_site_fract_x
 _atom_site_fract_y
 _atom_site_fract_z
 _atom_site_occupancy
  Ni  Ni0  1  0.99806894  0.99715713  -0.00088419  1
  Ni  Ni1  1  0.16457380  0.16609718  0.16341890  1
  Cr  Cr2  1  0.00013144  0.99779154  0.33190326  1
  Ni  Ni3  1  0.00007422  0.33260574  0.00086987  1
  Cr  Cr4  1  0.16530688  0.49930685  0.16453617  1
  Fe  Fe5  1  -0.00101316  0.33124640  0.33032044  1
  Ni  Ni6  1  0.99510819  0.66622855  0.99822206  1
  Cr  Cr7  1  0.16653177  0.82998390  0.16364984  1
  Ni  Ni8  1  0.99526480  0.66465547  0.32885374  1
  Fe  Fe9  1  0.33156365  0.99778890  -0.00038065  1
  Fe  Fe10  1  0.49680129  0.16362420  0.16159833  1
  Cr  Cr11  1  0.33267589  0.00036127  0.33081399  1
  Ni  Ni12  1  0.33301756  0.32965221  -0.00066670  1
  Cr  Cr13  1  0.49776212  0.50006852  0.16481493  1
  Cr  Cr14  1  0.33097895  0.32886313  0.33439618  1
  Fe  Fe15  1  0.33282298  0.66534368  0.99702892  1
  Ni  Ni16  1  0.49946280  0.83205367  0.16430045  1
  Fe  Fe17  1  0.33432136  0.66706828  0.33268684  1
  Fe  Fe18  1  0.66585473  0.99672450  -0.00082254  1
  Cr  Cr19  1  0.83121221  0.16666759  0.16297519  1
  Cr  Cr20  1  0.66311100  0.99609693  0.32990551  1
  Fe  Fe21  1  0.66685569  0.33431487  0.99742891  1
  Fe  Fe22  1  0.83307228  0.50138342  0.16427277  1
  Cr  Cr23  1  0.66296640  0.33313606  0.33138023  1
  Cr  Cr24  1  0.66645697  0.66695060  0.99725814  1
  Ni  Ni25  1  0.83096629  0.83215712  0.16459072  1
  Fe  Fe26  1  0.66429630  0.66749267  0.33063452  1
  Fe  Fe27  1  0.16556016  0.16292829  0.49981262  1
  Fe  Fe28  1  -0.00139846  0.99672549  0.66638282  1
  Cr  Cr29  1  0.16454952  0.16339234  0.83278646  1
  Cr  Cr30  1  0.16573920  0.50223831  0.49724343  1
  Cr  Cr31  1  -0.00080914  0.33432710  0.66495724  1
  Cr  Cr32  1  0.16647447  0.50084710  0.83429626  1
  Cr  Cr33  1  0.16721811  0.82972589  0.50114867  1
  Ni  Ni34  1  0.99722995  0.66627458  0.66823134  1
  Cr  Cr35  1  0.16703863  0.83121880  0.83084633  1
  Fe  Fe36  1  0.49988058  0.16263762  0.50106286  1
  Ni  Ni37  1  0.33488767  0.99755527  0.66396276  1
  Cr  Cr38  1  0.50088512  0.16431556  0.83414684  1
  Fe  Fe39  1  0.49934283  0.50183235  0.49979673  1
  Cr  Cr40  1  0.33376742  0.33177892  0.66384314  1
  Ni  Ni41  1  0.49948222  0.49954115  0.83133512  1
  Ni  Ni42  1  0.49716447  0.83191305  0.49879602  1
  Ni  Ni43  1  0.33427206  0.66720097  0.66575706  1
  Ni  Ni44  1  0.49768910  0.83189797  0.83165498  1
  Cr  Cr45  1  0.82960349  0.16503165  0.50197896  1
  Ni  Ni46  1  0.66171251  0.99668139  0.66631961  1
  Cr  Cr47  1  0.83057718  0.16471035  0.83106448  1
  Cr  Cr48  1  0.83159318  0.49818905  0.49570294  1
  Ni  Ni49  1  0.66348535  0.33235403  0.66648034  1
  Ni  Ni50  1  0.83163581  0.49669084  0.83354990  1
  Cr  Cr51  1  0.83059286  0.83261260  0.49999192  1
  Cr  Cr52  1  0.66603965  0.66481723  0.66727068  1
  Fe  Fe53  1  0.83164148  0.83184251  0.83257546  1
" 