8475,Ni33Fe7Cr59_3,-215.200653247633, 151.118059289499,Ni33Fe7Cr59,"# generated using pymatgen
 data_Cr11FeNi6
_symmetry_space_group_name_H-M   'P 1'
_cell_length_a   7.53828748
_cell_length_b   7.53828748
_cell_length_c   10.66074838
_cell_angle_alpha   90.00000000
_cell_angle_beta   90.00000000
_cell_angle_gamma   90.00000000
_symmetry_Int_Tables_number   1
_chemical_formula_structural   Cr11FeNi6
_chemical_formula_sum   'Cr33 Fe3 Ni18'
_cell_volume   605.80532163
_cell_formula_units_Z   3
loop_
 _symmetry_equiv_pos_site_id
 _symmetry_equiv_pos_as_xyz
  1  'x, y, z'
loop_
 _atom_site_type_symbol
 _atom_site_label
 _atom_site_symmetry_multiplicity
 _atom_site_fract_x
 _atom_site_fract_y
 _atom_site_fract_z
 _atom_site_occupancy
  Ni  Ni0  1  0.99201494  0.99339026  -0.00312457  1
  Cr  Cr1  1  0.16342736  0.16037174  0.16256660  1
  Cr  Cr2  1  0.99410769  0.99376829  0.33052423  1
  Cr  Cr3  1  0.99417117  0.32689479  -0.00343423  1
  Cr  Cr4  1  0.15761586  0.49720297  0.16237421  1
  Ni  Ni5  1  0.99446473  0.32829707  0.32710887  1
  Ni  Ni6  1  0.99333802  0.66558615  -0.00269565  1
  Cr  Cr7  1  0.16205084  0.82832344  0.16105539  1
  Ni  Ni8  1  0.99369370  0.66352973  0.32839160  1
  Fe  Fe9  1  0.33077915  0.99381749  -0.00311437  1
  Ni  Ni10  1  0.49654175  0.15691591  0.16107195  1
  Ni  Ni11  1  0.32804012  0.99479385  0.32862638  1
  Cr  Cr12  1  0.32999042  0.33004647  0.99435374  1
  Cr  Cr13  1  0.49608849  0.49522152  0.16367793  1
  Cr  Cr14  1  0.32819725  0.32810402  0.32932098  1
  Cr  Cr15  1  0.33067662  0.66226241  0.99478549  1
  Ni  Ni16  1  0.49629638  0.83421368  0.16098534  1
  Cr  Cr17  1  0.32872519  0.66459838  0.32846240  1
  Ni  Ni18  1  0.66219036  0.99352711  -0.00191436  1
  Ni  Ni19  1  0.82802025  0.16076420  0.16064643  1
  Cr  Cr20  1  0.66411390  0.99354205  0.32515940  1
  Cr  Cr21  1  0.66152706  0.32756076  -0.00317327  1
  Ni  Ni22  1  0.83145633  0.49647503  0.16310178  1
  Cr  Cr23  1  0.66301390  0.32789819  0.32609365  1
  Cr  Cr24  1  0.66060062  0.66449209  -0.00396995  1
  Ni  Ni25  1  0.82918730  0.82847361  0.16044632  1
  Cr  Cr26  1  0.66308897  0.66466070  0.32808007  1
  Fe  Fe27  1  0.16267038  0.16015565  0.49353049  1
  Cr  Cr28  1  -0.00312633  0.99378316  0.65889671  1
  Cr  Cr29  1  0.16300405  0.15830812  0.82911002  1
  Cr  Cr30  1  0.15956639  0.49723405  0.49263438  1
  Cr  Cr31  1  -0.00278260  0.32651992  0.66174678  1
  Cr  Cr32  1  0.15909820  0.49779049  0.83068017  1
  Ni  Ni33  1  0.16090760  0.82916077  0.49505904  1
  Ni  Ni34  1  0.99510161  0.66503557  0.65997336  1
  Cr  Cr35  1  0.16172717  0.82920039  0.83058824  1
  Cr  Cr36  1  0.49406042  0.16088496  0.49422855  1
  Fe  Fe37  1  0.32815539  0.99267875  0.66089999  1
  Cr  Cr38  1  0.49560255  0.15776884  0.82982516  1
  Ni  Ni39  1  0.49561517  0.49591750  0.49700889  1
  Cr  Cr40  1  0.32810664  0.32954656  0.66226092  1
  Ni  Ni41  1  0.49644239  0.49778009  0.82659429  1
  Cr  Cr42  1  0.49535001  0.82915103  0.49520226  1
  Cr  Cr43  1  0.32977849  0.66175509  0.66292293  1
  Ni  Ni44  1  0.49531799  0.82906510  0.82880044  1
  Cr  Cr45  1  0.82754174  0.16289742  0.49493693  1
  Cr  Cr46  1  0.66398624  0.99172263  0.66173940  1
  Cr  Cr47  1  0.82774345  0.15991706  0.83043267  1
  Cr  Cr48  1  0.82802408  0.49777484  0.49546268  1
  Cr  Cr49  1  0.65991617  0.33112603  0.66310033  1
  Cr  Cr50  1  0.82881983  0.49827719  0.82705313  1
  Ni  Ni51  1  0.83158131  0.82543090  0.49638784  1
  Ni  Ni52  1  0.66082066  0.66361093  0.66188055  1
  Cr  Cr53  1  0.82839175  0.82761414  0.82847661  1
" 