5243,Ni33Fe27Cr39_10,-223.650754852711, 180.811425535301,Ni33Fe27Cr39,"# generated using pymatgen
 data_Cr23Fe14Ni17
_symmetry_space_group_name_H-M   'P 1'
_cell_length_a   7.49014352
_cell_length_b   7.49014352
_cell_length_c   10.59266255
_cell_angle_alpha   90.00000000
_cell_angle_beta   90.00000000
_cell_angle_gamma   90.00000000
_symmetry_Int_Tables_number   1
_chemical_formula_structural   Cr23Fe14Ni17
_chemical_formula_sum   'Cr23 Fe14 Ni17'
_cell_volume   594.27220277
_cell_formula_units_Z   1
loop_
 _symmetry_equiv_pos_site_id
 _symmetry_equiv_pos_as_xyz
  1  'x, y, z'
loop_
 _atom_site_type_symbol
 _atom_site_label
 _atom_site_symmetry_multiplicity
 _atom_site_fract_x
 _atom_site_fract_y
 _atom_site_fract_z
 _atom_site_occupancy
  Cr  Cr0  1  -0.00062339  -0.00009562  -0.00080193  1
  Fe  Fe1  1  0.16438734  0.16554418  0.16781984  1
  Fe  Fe2  1  0.00275023  0.99568470  0.33210387  1
  Fe  Fe3  1  -0.00063496  0.33216913  0.99593434  1
  Ni  Ni4  1  0.16266578  0.50046923  0.16332880  1
  Ni  Ni5  1  0.00107890  0.33531177  0.33148557  1
  Cr  Cr6  1  -0.00063903  0.66297674  -0.00096127  1
  Ni  Ni7  1  0.16369612  0.83148833  0.16699311  1
  Ni  Ni8  1  -0.00109542  0.66312101  0.33361184  1
  Cr  Cr9  1  0.33096034  -0.00045706  0.99644586  1
  Cr  Cr10  1  0.49871162  0.16625600  0.16833522  1
  Ni  Ni11  1  0.32876992  0.00111236  0.33342222  1
  Cr  Cr12  1  0.32649043  0.33129742  0.99800766  1
  Cr  Cr13  1  0.49643681  0.50016655  0.16572055  1
  Cr  Cr14  1  0.32849701  0.32922416  0.33445239  1
  Ni  Ni15  1  0.32879007  0.66511701  0.99663156  1
  Cr  Cr16  1  0.49400689  0.82871981  0.16079311  1
  Cr  Cr17  1  0.32454619  0.66591872  0.33319156  1
  Cr  Cr18  1  0.66588671  0.99768252  0.99748915  1
  Cr  Cr19  1  0.83682654  0.16505510  0.16713989  1
  Cr  Cr20  1  0.66434720  0.99790851  0.33126020  1
  Cr  Cr21  1  0.66721475  0.33014892  0.99715601  1
  Cr  Cr22  1  0.83308732  0.49587938  0.16482948  1
  Fe  Fe23  1  0.66818426  0.33216112  0.33450839  1
  Ni  Ni24  1  0.66592810  0.66529477  0.99608754  1
  Fe  Fe25  1  0.83502997  0.82888162  0.16632888  1
  Cr  Cr26  1  0.67320034  0.66596440  0.33458071  1
  Fe  Fe27  1  0.16386738  0.16643804  0.49937717  1
  Fe  Fe28  1  0.00000215  0.00024356  0.66576675  1
  Fe  Fe29  1  0.16174867  0.16624472  0.82905048  1
  Ni  Ni30  1  0.16112917  0.49680980  0.49939370  1
  Ni  Ni31  1  -0.00110820  0.33260921  0.66794595  1
  Fe  Fe32  1  0.16231275  0.49715150  0.83062791  1
  Ni  Ni33  1  0.16075615  0.83400906  0.49654738  1
  Cr  Cr34  1  0.99703167  0.66332200  0.66104865  1
  Ni  Ni35  1  0.16726285  0.83184419  0.83216591  1
  Ni  Ni36  1  0.49932542  0.16617866  0.50051015  1
  Cr  Cr37  1  0.33252786  0.00131155  0.66533584  1
  Fe  Fe38  1  0.50000964  0.16489218  0.82783408  1
  Cr  Cr39  1  0.49873540  0.49445568  0.49855755  1
  Ni  Ni40  1  0.32855173  0.32944859  0.66395173  1
  Cr  Cr41  1  0.49684123  0.50046990  0.83147534  1
  Cr  Cr42  1  0.49674614  0.83346983  0.50130580  1
  Cr  Cr43  1  0.32634961  0.66378434  0.66429787  1
  Fe  Fe44  1  0.49879259  0.83174055  0.83139991  1
  Cr  Cr45  1  0.83448001  0.16562469  0.49939947  1
  Ni  Ni46  1  0.66680280  0.00021564  0.66666251  1
  Ni  Ni47  1  0.83390051  0.16797605  0.82938969  1
  Ni  Ni48  1  0.83576730  0.49582532  0.49995847  1
  Fe  Fe49  1  0.66578286  0.33008352  0.66603965  1
  Fe  Fe50  1  0.83323580  0.49742599  0.83009339  1
  Ni  Ni51  1  0.83711546  0.83316347  0.49920953  1
  Fe  Fe52  1  0.66673980  0.66454888  0.66391251  1
  Cr  Cr53  1  0.83353850  0.83445760  0.82959337  1
" 