5069,Ni33Fe7Cr59_10,-215.29011819127, 149.881025517165,Ni33Fe7Cr59,"# generated using pymatgen
 data_Cr11FeNi6
_symmetry_space_group_name_H-M   'P 1'
_cell_length_a   7.54186726
_cell_length_b   7.54186726
_cell_length_c   10.66581097
_cell_angle_alpha   90.00000000
_cell_angle_beta   90.00000000
_cell_angle_gamma   90.00000000
_symmetry_Int_Tables_number   1
_chemical_formula_structural   Cr11FeNi6
_chemical_formula_sum   'Cr33 Fe3 Ni18'
_cell_volume   606.66878725
_cell_formula_units_Z   3
loop_
 _symmetry_equiv_pos_site_id
 _symmetry_equiv_pos_as_xyz
  1  'x, y, z'
loop_
 _atom_site_type_symbol
 _atom_site_label
 _atom_site_symmetry_multiplicity
 _atom_site_fract_x
 _atom_site_fract_y
 _atom_site_fract_z
 _atom_site_occupancy
  Ni  Ni0  1  0.99265764  0.99125254  0.99361194  1
  Cr  Cr1  1  0.16026078  0.16113056  0.15971443  1
  Cr  Cr2  1  -0.00473489  0.99407780  0.33290214  1
  Cr  Cr3  1  0.99159427  0.32874291  0.99313625  1
  Cr  Cr4  1  0.15913342  0.49617328  0.15949427  1
  Fe  Fe5  1  0.99471407  0.32646889  0.33243328  1
  Ni  Ni6  1  0.99124083  0.66411158  0.99171434  1
  Cr  Cr7  1  0.15970530  0.82766863  0.15898335  1
  Cr  Cr8  1  -0.00398914  0.66493416  0.33079297  1
  Cr  Cr9  1  0.32962663  0.99325605  -0.00452110  1
  Cr  Cr10  1  0.49741585  0.16154600  0.16141406  1
  Cr  Cr11  1  0.32844627  0.99284083  0.33197131  1
  Ni  Ni12  1  0.32776193  0.32939258  0.99448691  1
  Cr  Cr13  1  0.49712031  0.49444898  0.16611472  1
  Cr  Cr14  1  0.32821263  0.32872182  0.33051618  1
  Cr  Cr15  1  0.33114306  0.66131369  -0.00337395  1
  Cr  Cr16  1  0.49957648  0.82956502  0.16639775  1
  Cr  Cr17  1  0.32906114  0.66341808  0.33170177  1
  Cr  Cr18  1  0.66358220  0.99161636  0.99189711  1
  Cr  Cr19  1  0.82660372  0.16013553  0.16570800  1
  Ni  Ni20  1  0.66423877  -0.00446872  0.33380365  1
  Cr  Cr21  1  0.66016798  0.33042733  0.99141788  1
  Cr  Cr22  1  0.82768990  0.49625709  0.16614227  1
  Ni  Ni23  1  0.66211249  0.32747695  0.33264534  1
  Cr  Cr24  1  0.66302733  0.66196036  0.99255102  1
  Cr  Cr25  1  0.82845120  0.82850818  0.16213029  1
  Fe  Fe26  1  0.66193799  0.66492046  0.33334907  1
  Ni  Ni27  1  0.16078386  0.15847224  0.49614916  1
  Cr  Cr28  1  0.99390834  0.99419975  0.65757212  1
  Cr  Cr29  1  0.16269962  0.15927429  0.82811624  1
  Cr  Cr30  1  0.16164807  0.49795027  0.49833880  1
  Cr  Cr31  1  0.99300200  0.32840577  0.65800971  1
  Cr  Cr32  1  0.15916612  0.49858438  0.82667835  1
  Ni  Ni33  1  0.16214576  0.82854685  0.49912509  1
  Ni  Ni34  1  0.99288288  0.66522433  0.66130940  1
  Cr  Cr35  1  0.16256600  0.82775782  0.82671152  1
  Cr  Cr36  1  0.49709152  0.15947995  0.49801559  1
  Ni  Ni37  1  0.32973539  0.98955985  0.65809440  1
  Cr  Cr38  1  0.49401944  0.15614956  0.82651088  1
  Ni  Ni39  1  0.49724853  0.49890753  0.49593261  1
  Cr  Cr40  1  0.32819173  0.32797850  0.66042260  1
  Cr  Cr41  1  0.49420442  0.49826817  0.82432692  1
  Ni  Ni42  1  0.49694703  0.82728931  0.49709880  1
  Ni  Ni43  1  0.33016965  0.66603249  0.65821739  1
  Ni  Ni44  1  0.49695138  0.82709544  0.82237013  1
  Ni  Ni45  1  0.82743561  0.15958426  0.49331967  1
  Ni  Ni46  1  0.66133504  0.99025162  0.65980096  1
  Cr  Cr47  1  0.82812335  0.15854762  0.82587991  1
  Cr  Cr48  1  0.82676372  0.49671617  0.49412383  1
  Cr  Cr49  1  0.66321828  0.32942469  0.66294106  1
  Ni  Ni50  1  0.82878702  0.50127970  0.82507580  1
  Ni  Ni51  1  0.82644435  0.82932833  0.49719638  1
  Ni  Ni52  1  0.66209162  0.66524431  0.65946464  1
  Fe  Fe53  1  0.82782561  0.82669435  0.82420728  1
" 