3561,Ni33Fe7Cr59_13,-215.09257003069, 147.807969065002,Ni33Fe7Cr59,"# generated using pymatgen
 data_Cr11FeNi6
_symmetry_space_group_name_H-M   'P 1'
_cell_length_a   7.53717298
_cell_length_b   7.53717298
_cell_length_c   10.65917226
_cell_angle_alpha   90.00000000
_cell_angle_beta   90.00000000
_cell_angle_gamma   90.00000000
_symmetry_Int_Tables_number   1
_chemical_formula_structural   Cr11FeNi6
_chemical_formula_sum   'Cr33 Fe3 Ni18'
_cell_volume   605.53666713
_cell_formula_units_Z   3
loop_
 _symmetry_equiv_pos_site_id
 _symmetry_equiv_pos_as_xyz
  1  'x, y, z'
loop_
 _atom_site_type_symbol
 _atom_site_label
 _atom_site_symmetry_multiplicity
 _atom_site_fract_x
 _atom_site_fract_y
 _atom_site_fract_z
 _atom_site_occupancy
  Cr  Cr0  1  -0.00297418  -0.00344432  0.99440985  1
  Fe  Fe1  1  0.16099182  0.16303207  0.16026401  1
  Cr  Cr2  1  0.99429361  -0.00398601  0.32789936  1
  Ni  Ni3  1  -0.00362945  0.32984340  -0.00364442  1
  Ni  Ni4  1  0.15791119  0.49503242  0.16178920  1
  Cr  Cr5  1  -0.00292285  0.33131261  0.32831361  1
  Cr  Cr6  1  0.99308843  0.66069638  -0.00254625  1
  Cr  Cr7  1  0.16193053  0.82767232  0.16309398  1
  Fe  Fe8  1  0.99432723  0.66015258  0.32784513  1
  Ni  Ni9  1  0.32882848  0.99523175  -0.00425781  1
  Cr  Cr10  1  0.49643737  0.16186525  0.16182103  1
  Cr  Cr11  1  0.32901808  -0.00358155  0.32655534  1
  Cr  Cr12  1  0.32308078  0.32795385  0.99517165  1
  Cr  Cr13  1  0.49641040  0.49480405  0.15942167  1
  Cr  Cr14  1  0.32376927  0.32936306  0.33019515  1
  Cr  Cr15  1  0.33008822  0.66376080  0.99493421  1
  Ni  Ni16  1  0.49691523  0.83002432  0.16060457  1
  Cr  Cr17  1  0.32763855  0.65982644  0.32801865  1
  Cr  Cr18  1  0.66181009  0.98950268  0.99483804  1
  Cr  Cr19  1  0.82763981  0.16382585  0.16075002  1
  Ni  Ni20  1  0.66329210  0.99208175  0.32667738  1
  Ni  Ni21  1  0.66507608  0.33135957  -0.00324669  1
  Ni  Ni22  1  0.83135233  0.49639923  0.16048617  1
  Cr  Cr23  1  0.66473333  0.33089960  0.33076205  1
  Ni  Ni24  1  0.66286616  0.66274031  -0.00340606  1
  Ni  Ni25  1  0.82737534  0.82680366  0.16205759  1
  Cr  Cr26  1  0.66501763  0.66360226  0.32599494  1
  Ni  Ni27  1  0.15992387  0.16174672  0.49587349  1
  Ni  Ni28  1  -0.00324556  0.99465246  0.66307497  1
  Ni  Ni29  1  0.16030863  0.16171822  0.83052264  1
  Ni  Ni30  1  0.15839709  0.49710768  0.49669358  1
  Cr  Cr31  1  -0.00247798  0.32827524  0.66160943  1
  Ni  Ni32  1  0.15985377  0.49558301  0.82744085  1
  Cr  Cr33  1  0.16080147  0.82661630  0.49686771  1
  Ni  Ni34  1  -0.00359050  0.66087919  0.66069209  1
  Cr  Cr35  1  0.16156684  0.82697704  0.82556429  1
  Cr  Cr36  1  0.49632738  0.16131398  0.49329447  1
  Cr  Cr37  1  0.32783385  -0.00327858  0.66348316  1
  Cr  Cr38  1  0.49612909  0.16310473  0.83061112  1
  Cr  Cr39  1  0.49427516  0.49671147  0.49748708  1
  Cr  Cr40  1  0.32501789  0.32975289  0.66067467  1
  Cr  Cr41  1  0.49468259  0.49617374  0.82969961  1
  Cr  Cr42  1  0.49324103  0.82857914  0.49449293  1
  Ni  Ni43  1  0.32586896  0.66102253  0.66304708  1
  Ni  Ni44  1  0.49403224  0.82781619  0.83039259  1
  Cr  Cr45  1  0.82913237  0.16117963  0.49589727  1
  Cr  Cr46  1  0.66380334  0.99259845  0.66319788  1
  Cr  Cr47  1  0.83000096  0.16306164  0.82906430  1
  Ni  Ni48  1  0.83369712  0.49738611  0.49485718  1
  Cr  Cr49  1  0.66349385  0.33011992  0.65976411  1
  Cr  Cr50  1  0.83005080  0.49460376  0.83114824  1
  Cr  Cr51  1  0.83228371  0.82820606  0.49564733  1
  Cr  Cr52  1  0.66278880  0.66317015  0.66422822  1
  Fe  Fe53  1  0.83023141  0.82694171  0.82866509  1
" 