5376,Ni33Fe60Cr6_16,-233.858165803152, 203.592278285767,Ni33Fe60Cr6,"# generated using pymatgen
 data_Cr5Fe32Ni17
_symmetry_space_group_name_H-M   'P 1'
_cell_length_a   7.41368515
_cell_length_b   7.41368515
_cell_length_c   10.48453408
_cell_angle_alpha   90.00000000
_cell_angle_beta   90.00000000
_cell_angle_gamma   90.00000000
_symmetry_Int_Tables_number   1
_chemical_formula_structural   Cr5Fe32Ni17
_chemical_formula_sum   'Cr5 Fe32 Ni17'
_cell_volume   576.25858894
_cell_formula_units_Z   1
loop_
 _symmetry_equiv_pos_site_id
 _symmetry_equiv_pos_as_xyz
  1  'x, y, z'
loop_
 _atom_site_type_symbol
 _atom_site_label
 _atom_site_symmetry_multiplicity
 _atom_site_fract_x
 _atom_site_fract_y
 _atom_site_fract_z
 _atom_site_occupancy
  Ni  Ni0  1  0.00505830  0.00425551  0.00525768  1
  Fe  Fe1  1  0.17360761  0.17071065  0.16875840  1
  Cr  Cr2  1  0.00607260  1.00161836  0.33673557  1
  Fe  Fe3  1  0.00517413  0.33705019  1.00347814  1
  Ni  Ni4  1  0.16947638  0.50346027  0.16962111  1
  Cr  Cr5  1  1.00226426  0.33558700  0.33745419  1
  Fe  Fe6  1  0.00586936  0.66940876  0.00412240  1
  Fe  Fe7  1  0.17116101  0.83543052  0.16908053  1
  Fe  Fe8  1  0.00430750  0.66937680  0.33772084  1
  Ni  Ni9  1  0.33401118  1.00241195  1.00285974  1
  Ni  Ni10  1  0.50342905  0.17023936  0.17011764  1
  Fe  Fe11  1  0.33832554  0.00483236  0.33832890  1
  Fe  Fe12  1  0.33682142  0.33654270  0.00398534  1
  Fe  Fe13  1  0.50210530  0.50232987  0.16966983  1
  Fe  Fe14  1  0.33720490  0.33722953  0.33666673  1
  Ni  Ni15  1  0.33698134  0.66997927  1.00220455  1
  Cr  Cr16  1  0.50447469  0.83889794  0.17001629  1
  Fe  Fe17  1  0.33460838  0.66954911  0.33716663  1
  Fe  Fe18  1  0.66903545  0.00679020  1.00344416  1
  Fe  Fe19  1  0.83537096  0.17046596  0.16746098  1
  Fe  Fe20  1  0.67037092  0.00536743  0.33819498  1
  Ni  Ni21  1  0.67074237  0.33915619  0.00468647  1
  Fe  Fe22  1  0.83482802  0.50449230  0.16951289  1
  Fe  Fe23  1  0.66866823  0.33651258  0.33671548  1
  Fe  Fe24  1  0.66965945  0.66964826  1.00237139  1
  Fe  Fe25  1  0.83824393  0.83591377  0.16942889  1
  Fe  Fe26  1  0.67185303  0.67007163  0.33947624  1
  Fe  Fe27  1  0.17167465  0.16948326  0.50564889  1
  Ni  Ni28  1  0.00541083  0.00384274  0.66860453  1
  Fe  Fe29  1  0.16795109  0.16951428  0.83667481  1
  Ni  Ni30  1  0.17059445  0.50285541  0.50487542  1
  Fe  Fe31  1  0.00519402  0.33720037  0.67058234  1
  Ni  Ni32  1  0.17083422  0.50263434  0.83615266  1
  Ni  Ni33  1  0.17159424  0.83447668  0.50354564  1
  Fe  Fe34  1  0.00362605  0.67006801  0.66918698  1
  Fe  Fe35  1  0.16929649  0.83725156  0.83665739  1
  Fe  Fe36  1  0.50194133  0.16977244  0.50231608  1
  Ni  Ni37  1  0.33480367  1.00233530  0.67038709  1
  Fe  Fe38  1  0.50312387  0.17049278  0.83883589  1
  Fe  Fe39  1  0.50258213  0.50772985  0.50226457  1
  Fe  Fe40  1  0.33560608  0.33655978  0.67026394  1
  Fe  Fe41  1  0.50495095  0.50405022  0.83840063  1
  Ni  Ni42  1  0.50351479  0.83918039  0.50433927  1
  Fe  Fe43  1  0.33683186  0.67089173  0.67071588  1
  Fe  Fe44  1  0.50110086  0.83637456  0.83614373  1
  Fe  Fe45  1  0.83737358  0.16825096  0.50558838  1
  Fe  Fe46  1  0.66894489  1.00319111  0.66933323  1
  Ni  Ni47  1  0.83668835  0.17033586  0.83759013  1
  Ni  Ni48  1  0.83920114  0.50484275  0.50372113  1
  Cr  Cr49  1  0.67124146  0.34025770  0.66891833  1
  Ni  Ni50  1  0.84022952  0.50276371  0.83833585  1
  Ni  Ni51  1  0.83578454  0.83631581  0.50441255  1
  Ni  Ni52  1  0.66878329  0.66838035  0.67013269  1
  Cr  Cr53  1  0.83573780  0.83796106  0.83617749  1
" 