3818,Ni33Fe27Cr39_7,-223.274941250782, 173.398854542811,Ni33Fe27Cr39,"# generated using pymatgen
 data_Cr23Fe14Ni17
_symmetry_space_group_name_H-M   'P 1'
_cell_length_a   7.49180978
_cell_length_b   7.49180978
_cell_length_c   10.59501899
_cell_angle_alpha   90.00000000
_cell_angle_beta   90.00000000
_cell_angle_gamma   90.00000000
_symmetry_Int_Tables_number   1
_chemical_formula_structural   Cr23Fe14Ni17
_chemical_formula_sum   'Cr23 Fe14 Ni17'
_cell_volume   594.66889521
_cell_formula_units_Z   1
loop_
 _symmetry_equiv_pos_site_id
 _symmetry_equiv_pos_as_xyz
  1  'x, y, z'
loop_
 _atom_site_type_symbol
 _atom_site_label
 _atom_site_symmetry_multiplicity
 _atom_site_fract_x
 _atom_site_fract_y
 _atom_site_fract_z
 _atom_site_occupancy
  Fe  Fe0  1  0.00133002  -0.00037155  0.99680193  1
  Cr  Cr1  1  0.16637504  0.16676046  0.16288874  1
  Cr  Cr2  1  0.99676739  -0.00114042  0.33252624  1
  Ni  Ni3  1  0.00017057  0.33028248  0.99632352  1
  Cr  Cr4  1  0.16693925  0.49529699  0.16614023  1
  Ni  Ni5  1  0.99603864  0.33245055  0.33458601  1
  Cr  Cr6  1  -0.00090442  0.66468223  0.99819180  1
  Cr  Cr7  1  0.16675669  0.83304512  0.16396430  1
  Cr  Cr8  1  -0.00061999  0.66445779  0.33288533  1
  Ni  Ni9  1  0.33306542  -0.00046751  0.99529742  1
  Fe  Fe10  1  0.49741031  0.16507792  0.16450803  1
  Cr  Cr11  1  0.33338082  0.99729173  0.33345043  1
  Ni  Ni12  1  0.33060875  0.32790282  0.99566654  1
  Cr  Cr13  1  0.49647371  0.49822141  0.16655722  1
  Ni  Ni14  1  0.33239422  0.33272261  0.33096464  1
  Cr  Cr15  1  0.33152830  0.66529070  0.99472768  1
  Fe  Fe16  1  0.49905275  0.83370880  0.16532888  1
  Ni  Ni17  1  0.33248309  0.66595109  0.33341649  1
  Fe  Fe18  1  0.66115794  -0.00098836  0.99791268  1
  Cr  Cr19  1  0.83179256  0.16413016  0.16416585  1
  Fe  Fe20  1  0.66465459  -0.00097207  0.33212855  1
  Cr  Cr21  1  0.66266525  0.33055635  0.99496751  1
  Cr  Cr22  1  0.83112818  0.49727535  0.16657986  1
  Ni  Ni23  1  0.66637382  0.33022790  0.33319801  1
  Cr  Cr24  1  0.66408824  0.66645282  0.99781582  1
  Fe  Fe25  1  0.82937448  0.83249254  0.16502705  1
  Fe  Fe26  1  0.66344219  0.66542521  0.33229171  1
  Cr  Cr27  1  0.16411289  0.16603863  0.49903650  1
  Fe  Fe28  1  0.00019290  -0.00114480  0.66505590  1
  Ni  Ni29  1  0.16658519  0.16388328  0.83336508  1
  Fe  Fe30  1  0.16522092  0.49821510  0.49793761  1
  Fe  Fe31  1  -0.00091065  0.33190977  0.66490421  1
  Ni  Ni32  1  0.16463660  0.49655218  0.83281812  1
  Fe  Fe33  1  0.16690132  0.83140507  0.50015410  1
  Fe  Fe34  1  -0.00037897  0.66435895  0.66533575  1
  Ni  Ni35  1  0.16628653  0.83431763  0.82993993  1
  Cr  Cr36  1  0.49915462  0.16557343  0.49732586  1
  Ni  Ni37  1  0.32976560  0.99659733  0.66630822  1
  Ni  Ni38  1  0.49577360  0.16297885  0.83258682  1
  Cr  Cr39  1  0.49873831  0.49965323  0.49789387  1
  Cr  Cr40  1  0.33272903  0.32884430  0.66922225  1
  Fe  Fe41  1  0.49704365  0.49775190  0.83024366  1
  Ni  Ni42  1  0.49817546  0.82920890  0.49733958  1
  Cr  Cr43  1  0.33128834  0.66766872  0.66676001  1
  Ni  Ni44  1  0.49720772  0.83345380  0.83125115  1
  Ni  Ni45  1  0.83268792  0.16764198  0.49864518  1
  Cr  Cr46  1  0.66096834  0.00042798  0.66470570  1
  Cr  Cr47  1  0.83365346  0.16447768  0.83050764  1
  Fe  Fe48  1  0.83091082  0.49599666  0.49972802  1
  Ni  Ni49  1  0.66768475  0.33233745  0.66503086  1
  Cr  Cr50  1  0.83136973  0.49849246  0.82861477  1
  Cr  Cr51  1  0.82989515  0.83141511  0.50017234  1
  Ni  Ni52  1  0.66535789  0.66438842  0.66515257  1
  Cr  Cr53  1  0.83177978  0.83255159  0.83241054  1
" 