7253,Ni33Fe27Cr39_17,-223.039874634736, 175.391244427338,Ni33Fe27Cr39,"# generated using pymatgen
 data_Cr23Fe14Ni17
_symmetry_space_group_name_H-M   'P 1'
_cell_length_a   7.48738938
_cell_length_b   7.48738938
_cell_length_c   10.58876761
_cell_angle_alpha   90.00000000
_cell_angle_beta   90.00000000
_cell_angle_gamma   90.00000000
_symmetry_Int_Tables_number   1
_chemical_formula_structural   Cr23Fe14Ni17
_chemical_formula_sum   'Cr23 Fe14 Ni17'
_cell_volume   593.61689800
_cell_formula_units_Z   1
loop_
 _symmetry_equiv_pos_site_id
 _symmetry_equiv_pos_as_xyz
  1  'x, y, z'
loop_
 _atom_site_type_symbol
 _atom_site_label
 _atom_site_symmetry_multiplicity
 _atom_site_fract_x
 _atom_site_fract_y
 _atom_site_fract_z
 _atom_site_occupancy
  Cr  Cr0  1  0.00159106  0.99783578  0.99571628  1
  Fe  Fe1  1  0.16734434  0.16490646  0.16605506  1
  Cr  Cr2  1  0.00127066  0.99842880  0.33154139  1
  Cr  Cr3  1  -0.00000302  0.33282803  0.99636382  1
  Fe  Fe4  1  0.16324514  0.49981723  0.16440493  1
  Ni  Ni5  1  0.00011253  0.33535247  0.33165333  1
  Fe  Fe6  1  -0.00017921  0.66377416  0.99861297  1
  Ni  Ni7  1  0.16358381  0.82955207  0.16567060  1
  Fe  Fe8  1  0.00155982  0.66417563  0.33031796  1
  Cr  Cr9  1  0.32897600  0.99767989  0.00099323  1
  Ni  Ni10  1  0.49581525  0.16562752  0.16456475  1
  Ni  Ni11  1  0.32979218  0.99577864  0.32895975  1
  Ni  Ni12  1  0.33004402  0.33373089  0.99823620  1
  Cr  Cr13  1  0.49817089  0.49646001  0.16041217  1
  Cr  Cr14  1  0.32954599  0.33284690  0.33084405  1
  Fe  Fe15  1  0.32937768  0.66429971  -0.00115389  1
  Ni  Ni16  1  0.49737565  0.83284281  0.16413557  1
  Cr  Cr17  1  0.33093706  0.66747565  0.33323333  1
  Cr  Cr18  1  0.66595270  0.99771541  0.00014732  1
  Cr  Cr19  1  0.83254676  0.16699311  0.16579009  1
  Cr  Cr20  1  0.66314374  0.99717821  0.33105515  1
  Ni  Ni21  1  0.66581536  0.33631170  0.99844460  1
  Fe  Fe22  1  0.83434972  0.50165636  0.16321532  1
  Cr  Cr23  1  0.66750503  0.33346342  0.33123889  1
  Ni  Ni24  1  0.66652084  0.66329153  -0.00025280  1
  Ni  Ni25  1  0.83513786  0.82803697  0.16395762  1
  Cr  Cr26  1  0.66484258  0.66554165  0.32962651  1
  Cr  Cr27  1  0.16560181  0.16610007  0.49748195  1
  Cr  Cr28  1  0.00079383  0.00037679  0.66839449  1
  Fe  Fe29  1  0.16669123  0.16784485  0.82993409  1
  Ni  Ni30  1  0.16150602  0.49937861  0.50000800  1
  Ni  Ni31  1  0.99713011  0.33465741  0.66669776  1
  Ni  Ni32  1  0.16316913  0.49890060  0.83112963  1
  Ni  Ni33  1  0.16470232  0.83005682  0.49970280  1
  Fe  Fe34  1  0.00220762  0.66205291  0.66670345  1
  Ni  Ni35  1  0.16492052  0.82872919  0.83085689  1
  Cr  Cr36  1  0.49825507  0.16509054  0.49921225  1
  Ni  Ni37  1  0.32948713  0.99471127  0.66546581  1
  Cr  Cr38  1  0.49795255  0.16730522  0.83215562  1
  Cr  Cr39  1  0.49672473  0.49698995  0.50405743  1
  Fe  Fe40  1  0.32747766  0.33147785  0.66690729  1
  Cr  Cr41  1  0.49827139  0.49737983  0.83223914  1
  Cr  Cr42  1  0.49659661  0.83375760  0.50210178  1
  Fe  Fe43  1  0.32568345  0.66388492  0.66557547  1
  Cr  Cr44  1  0.49702850  0.83097387  0.83074697  1
  Fe  Fe45  1  0.83418227  0.16751117  0.50029548  1
  Fe  Fe46  1  0.66622371  0.00246931  0.66586347  1
  Fe  Fe47  1  0.83188963  0.16996612  0.83090973  1
  Cr  Cr48  1  0.83583516  0.49836255  0.49752204  1
  Ni  Ni49  1  0.66981764  0.33380322  0.66663055  1
  Ni  Ni50  1  0.83360076  0.49781895  0.83284828  1
  Cr  Cr51  1  0.83537652  0.83158628  0.49958306  1
  Fe  Fe52  1  0.66775767  0.66315292  0.66717631  1
  Cr  Cr53  1  0.83338882  0.82870647  0.83266235  1
" 