1831,Ni33Fe60Cr6_2,-234.464203355332, 204.802481663322,Ni33Fe60Cr6,"# generated using pymatgen
 data_Cr5Fe32Ni17
_symmetry_space_group_name_H-M   'P 1'
_cell_length_a   7.41880978
_cell_length_b   7.41880978
_cell_length_c   10.49178140
_cell_angle_alpha   90.00000000
_cell_angle_beta   90.00000000
_cell_angle_gamma   90.00000000
_symmetry_Int_Tables_number   1
_chemical_formula_structural   Cr5Fe32Ni17
_chemical_formula_sum   'Cr5 Fe32 Ni17'
_cell_volume   577.45441339
_cell_formula_units_Z   1
loop_
 _symmetry_equiv_pos_site_id
 _symmetry_equiv_pos_as_xyz
  1  'x, y, z'
loop_
 _atom_site_type_symbol
 _atom_site_label
 _atom_site_symmetry_multiplicity
 _atom_site_fract_x
 _atom_site_fract_y
 _atom_site_fract_z
 _atom_site_occupancy
  Fe  Fe0  1  0.00595189  0.00532695  0.00369471  1
  Fe  Fe1  1  0.17126971  0.17072547  0.16971893  1
  Ni  Ni2  1  1.00214408  0.00384445  0.33557861  1
  Fe  Fe3  1  0.00358030  0.33679163  0.00441075  1
  Fe  Fe4  1  0.17189963  0.50226683  0.17010379  1
  Ni  Ni5  1  0.00382327  0.33415560  0.33519665  1
  Fe  Fe6  1  0.00534095  0.66752773  0.00427121  1
  Fe  Fe7  1  0.16982742  0.83698634  0.16960999  1
  Fe  Fe8  1  1.00052877  0.67002416  0.33503485  1
  Fe  Fe9  1  0.33564092  0.00330867  0.00335984  1
  Ni  Ni10  1  0.50258869  0.16873148  0.17194448  1
  Fe  Fe11  1  0.33724090  0.00397289  0.33686153  1
  Ni  Ni12  1  0.33653764  0.33817023  1.00314301  1
  Fe  Fe13  1  0.50397407  0.50282259  0.17060489  1
  Ni  Ni14  1  0.33720690  0.33727422  0.33557721  1
  Fe  Fe15  1  0.33691905  0.67017663  1.00251500  1
  Ni  Ni16  1  0.50244719  0.83863235  0.16970044  1
  Fe  Fe17  1  0.33781792  0.67201241  0.33531453  1
  Fe  Fe18  1  0.66813035  0.00435357  0.00647881  1
  Fe  Fe19  1  0.83513053  0.16928474  0.17156143  1
  Ni  Ni20  1  0.67181215  1.00089129  0.33679821  1
  Fe  Fe21  1  0.67000930  0.33720342  0.00541826  1
  Ni  Ni22  1  0.83918733  0.50325262  0.17149887  1
  Fe  Fe23  1  0.67195437  0.33588762  0.33618274  1
  Fe  Fe24  1  0.66741612  0.66789792  0.00614255  1
  Fe  Fe25  1  0.83474296  0.83651465  0.17008118  1
  Ni  Ni26  1  0.66949352  0.66986765  0.33609002  1
  Fe  Fe27  1  0.16977820  0.17043302  0.50202931  1
  Cr  Cr28  1  0.00351192  0.00434780  0.66974241  1
  Ni  Ni29  1  0.17096215  0.17224341  0.83650079  1
  Cr  Cr30  1  0.16787479  0.50295586  0.50088571  1
  Fe  Fe31  1  0.00350473  0.33715505  0.66988396  1
  Ni  Ni32  1  0.16721845  0.50154507  0.83760403  1
  Fe  Fe33  1  0.16851136  0.83860339  0.50195146  1
  Fe  Fe34  1  0.00375470  0.66791139  0.67087975  1
  Ni  Ni35  1  0.17094874  0.83629409  0.83825594  1
  Fe  Fe36  1  0.50283442  0.17152383  0.50226687  1
  Ni  Ni37  1  0.33558707  0.00360433  0.66884116  1
  Cr  Cr38  1  0.50328802  0.16775769  0.83578571  1
  Fe  Fe39  1  0.50592875  0.50086963  0.50197323  1
  Ni  Ni40  1  0.33683957  0.33673601  0.67036522  1
  Fe  Fe41  1  0.50227765  0.50367215  0.83840778  1
  Fe  Fe42  1  0.50533067  0.83731606  0.50221206  1
  Cr  Cr43  1  0.33804200  0.66955573  0.67232577  1
  Ni  Ni44  1  0.50365148  0.83783010  0.83757095  1
  Ni  Ni45  1  0.83461327  0.17117541  0.50175304  1
  Fe  Fe46  1  0.66636576  0.00328027  0.66636691  1
  Fe  Fe47  1  0.83859580  0.17159749  0.83717818  1
  Ni  Ni48  1  0.83699519  0.50294120  0.50354740  1
  Fe  Fe49  1  0.67024033  0.33685667  0.66851696  1
  Fe  Fe50  1  0.83673199  0.50145477  0.83684499  1
  Fe  Fe51  1  0.83630895  0.83551873  0.50171385  1
  Fe  Fe52  1  0.66966375  0.66908956  0.66793695  1
  Cr  Cr53  1  0.83358100  0.83538383  0.83732376  1
" 