6747,Ni33Fe49Cr17_17,-231.219295687089, 198.945955205888,Ni33Fe49Cr17,"# generated using pymatgen
 data_Cr11Fe26Ni17
_symmetry_space_group_name_H-M   'P 1'
_cell_length_a   7.44292756
_cell_length_b   7.44292756
_cell_length_c   10.52588910
_cell_angle_alpha   90.00000000
_cell_angle_beta   90.00000000
_cell_angle_gamma   90.00000000
_symmetry_Int_Tables_number   1
_chemical_formula_structural   Cr11Fe26Ni17
_chemical_formula_sum   'Cr11 Fe26 Ni17'
_cell_volume   583.10447444
_cell_formula_units_Z   1
loop_
 _symmetry_equiv_pos_site_id
 _symmetry_equiv_pos_as_xyz
  1  'x, y, z'
loop_
 _atom_site_type_symbol
 _atom_site_label
 _atom_site_symmetry_multiplicity
 _atom_site_fract_x
 _atom_site_fract_y
 _atom_site_fract_z
 _atom_site_occupancy
  Fe  Fe0  1  1.00051462  1.00085192  1.00155991  1
  Fe  Fe1  1  0.16531572  0.16706065  0.16583134  1
  Ni  Ni2  1  0.99993924  0.99936608  0.33424958  1
  Ni  Ni3  1  0.00252203  0.33684518  1.00159419  1
  Ni  Ni4  1  0.16640582  0.50107750  0.16671718  1
  Fe  Fe5  1  1.00149301  0.33046658  0.33351627  1
  Ni  Ni6  1  0.00300573  0.66722945  1.00082878  1
  Ni  Ni7  1  0.16726377  0.83447728  0.16558501  1
  Cr  Cr8  1  1.00107344  0.66837276  0.33203287  1
  Ni  Ni9  1  0.33452691  0.00289555  0.99891002  1
  Cr  Cr10  1  0.50248232  0.16772442  0.16252267  1
  Cr  Cr11  1  0.33392292  0.00329977  0.33670894  1
  Fe  Fe12  1  0.33168663  0.33492281  1.00115355  1
  Fe  Fe13  1  0.49952582  0.50310036  0.16605157  1
  Cr  Cr14  1  0.33405885  0.33549150  0.33600881  1
  Fe  Fe15  1  0.33271527  0.67066465  1.00148206  1
  Cr  Cr16  1  0.50097620  0.83670243  0.16884795  1
  Fe  Fe17  1  0.33522524  0.66964094  0.33530188  1
  Ni  Ni18  1  0.66728029  0.00204301  0.99908207  1
  Fe  Fe19  1  0.83794288  0.16581244  0.16668427  1
  Ni  Ni20  1  0.66992724  1.00107778  0.33664159  1
  Fe  Fe21  1  0.67229340  0.33331211  1.00060445  1
  Ni  Ni22  1  0.83728172  0.49875759  0.16639009  1
  Cr  Cr23  1  0.66710765  0.33424303  0.33303577  1
  Cr  Cr24  1  0.67339328  0.66984591  0.00287772  1
  Fe  Fe25  1  0.83708089  0.83699911  0.16765389  1
  Fe  Fe26  1  0.66788691  0.67044110  0.33491919  1
  Fe  Fe27  1  0.16454134  0.16533154  0.50318416  1
  Fe  Fe28  1  1.00134549  0.00479666  0.66798327  1
  Fe  Fe29  1  0.16649934  0.16632767  0.83517592  1
  Fe  Fe30  1  0.16991600  0.50350769  0.50199529  1
  Ni  Ni31  1  1.00096093  0.33599604  0.66817922  1
  Fe  Fe32  1  0.16648567  0.50163512  0.83672128  1
  Fe  Fe33  1  0.16773594  0.83617702  0.50212606  1
  Cr  Cr34  1  1.00088224  0.67114071  0.67275245  1
  Fe  Fe35  1  0.16996294  0.83675500  0.83705873  1
  Ni  Ni36  1  0.50224968  0.16657548  0.50516418  1
  Ni  Ni37  1  0.33593902  0.99933147  0.66872270  1
  Fe  Fe38  1  0.50287930  0.16463692  0.83524238  1
  Fe  Fe39  1  0.50351960  0.50378792  0.50381932  1
  Cr  Cr40  1  0.33477702  0.33101491  0.66759691  1
  Cr  Cr41  1  0.50121338  0.50168254  0.83670341  1
  Ni  Ni42  1  0.50210502  0.83648156  0.50328724  1
  Fe  Fe43  1  0.33563261  0.66892476  0.66808940  1
  Ni  Ni44  1  0.50162602  0.83694242  0.83368113  1
  Fe  Fe45  1  0.83365129  0.16502199  0.50258559  1
  Fe  Fe46  1  0.66943922  1.00157385  0.66882943  1
  Fe  Fe47  1  0.83542317  0.16851268  0.83519834  1
  Cr  Cr48  1  0.83663138  0.49987001  0.50414449  1
  Ni  Ni49  1  0.66929628  0.33349212  0.67060884  1
  Fe  Fe50  1  0.83595876  0.50081290  0.83541902  1
  Ni  Ni51  1  0.83331913  0.83621494  0.50099528  1
  Fe  Fe52  1  0.66721811  0.67030723  0.66973690  1
  Ni  Ni53  1  0.83544133  0.83792496  0.83570547  1
" 