7032,Ni33Fe49Cr17_13,-230.925153699456, 195.660972227589,Ni33Fe49Cr17,"# generated using pymatgen
 data_Cr11Fe26Ni17
_symmetry_space_group_name_H-M   'P 1'
_cell_length_a   7.44032094
_cell_length_b   7.44032094
_cell_length_c   10.52220278
_cell_angle_alpha   90.00000000
_cell_angle_beta   90.00000000
_cell_angle_gamma   90.00000000
_symmetry_Int_Tables_number   1
_chemical_formula_structural   Cr11Fe26Ni17
_chemical_formula_sum   'Cr11 Fe26 Ni17'
_cell_volume   582.49205371
_cell_formula_units_Z   1
loop_
 _symmetry_equiv_pos_site_id
 _symmetry_equiv_pos_as_xyz
  1  'x, y, z'
loop_
 _atom_site_type_symbol
 _atom_site_label
 _atom_site_symmetry_multiplicity
 _atom_site_fract_x
 _atom_site_fract_y
 _atom_site_fract_z
 _atom_site_occupancy
  Ni  Ni0  1  1.00175012  0.99946147  0.00385306  1
  Ni  Ni1  1  0.16743868  0.16731392  0.17036298  1
  Fe  Fe2  1  1.00159262  1.00014200  0.33599195  1
  Cr  Cr3  1  0.00323183  0.33695313  0.99924383  1
  Cr  Cr4  1  0.16823814  0.50171999  0.16970382  1
  Ni  Ni5  1  0.00301120  0.33615596  0.33794692  1
  Ni  Ni6  1  0.99935586  0.66816178  1.00082728  1
  Fe  Fe7  1  0.16676758  0.83422656  0.16921503  1
  Ni  Ni8  1  0.00211497  0.66781185  0.33600756  1
  Cr  Cr9  1  0.33497746  0.00393779  0.00328197  1
  Fe  Fe10  1  0.50217040  0.16974557  0.16970680  1
  Fe  Fe11  1  0.33482067  1.00054475  0.33539397  1
  Fe  Fe12  1  0.33519379  0.33495630  0.00271557  1
  Ni  Ni13  1  0.50200768  0.50271170  0.16773283  1
  Fe  Fe14  1  0.33636064  0.33508285  0.33536597  1
  Fe  Fe15  1  0.33405462  0.66873976  0.00342979  1
  Ni  Ni16  1  0.50152159  0.83513261  0.16883273  1
  Fe  Fe17  1  0.33549202  0.66977781  0.33605699  1
  Ni  Ni18  1  0.66701222  1.00016511  1.00107156  1
  Cr  Cr19  1  0.83638929  0.16763955  0.17028793  1
  Ni  Ni20  1  0.66513617  1.00123496  0.33726129  1
  Fe  Fe21  1  0.66812846  0.33554705  0.00280487  1
  Ni  Ni22  1  0.83479876  0.50083586  0.16876582  1
  Fe  Fe23  1  0.66850454  0.33586484  0.33615717  1
  Fe  Fe24  1  0.67108486  0.66947816  0.00306341  1
  Fe  Fe25  1  0.83516860  0.83387764  0.16750981  1
  Cr  Cr26  1  0.66844347  0.66856434  0.33396633  1
  Fe  Fe27  1  0.17082672  0.16906195  0.50015202  1
  Cr  Cr28  1  0.00370110  1.00173765  0.66825912  1
  Fe  Fe29  1  0.17049557  0.16968516  0.83473174  1
  Fe  Fe30  1  0.16931831  0.50282641  0.50154866  1
  Fe  Fe31  1  0.00373566  0.33716742  0.66733206  1
  Ni  Ni32  1  0.16876829  0.50111032  0.83260165  1
  Fe  Fe33  1  0.17037326  0.83362149  0.50131992  1
  Fe  Fe34  1  1.00033974  0.66667725  0.66842543  1
  Cr  Cr35  1  0.16878851  0.83298575  0.83608968  1
  Fe  Fe36  1  0.50077451  0.16786499  0.50114826  1
  Ni  Ni37  1  0.33558105  0.00412837  0.66717389  1
  Fe  Fe38  1  0.50093656  0.16909690  0.83449076  1
  Ni  Ni39  1  0.49988392  0.50321074  0.50084124  1
  Fe  Fe40  1  0.33370718  0.33503085  0.66736273  1
  Cr  Cr41  1  0.50013885  0.50369510  0.83731899  1
  Ni  Ni42  1  0.50085102  0.83483284  0.50382325  1
  Fe  Fe43  1  0.33509847  0.66803050  0.66591207  1
  Cr  Cr44  1  0.50349742  0.83503607  0.83220528  1
  Fe  Fe45  1  0.83388666  0.16810551  0.49957010  1
  Fe  Fe46  1  0.66798523  1.00046730  0.66641929  1
  Cr  Cr47  1  0.83460146  0.16593919  0.83571642  1
  Fe  Fe48  1  0.83558784  0.50324696  0.50122332  1
  Cr  Cr49  1  0.66857146  0.33744002  0.66678834  1
  Ni  Ni50  1  0.83622280  0.50338983  0.83418371  1
  Fe  Fe51  1  0.83364177  0.83419724  0.50211525  1
  Ni  Ni52  1  0.67021259  0.66790242  0.66794950  1
  Ni  Ni53  1  0.83469561  0.83471623  0.83572784  1
" 