3780,Ni33Fe60Cr6_1,-234.691753506914, 205.590050547333,Ni33Fe60Cr6,"# generated using pymatgen
 data_Cr5Fe32Ni17
_symmetry_space_group_name_H-M   'P 1'
_cell_length_a   7.42026541
_cell_length_b   7.42026541
_cell_length_c   10.49383997
_cell_angle_alpha   90.00000000
_cell_angle_beta   90.00000000
_cell_angle_gamma   90.00000000
_symmetry_Int_Tables_number   1
_chemical_formula_structural   Cr5Fe32Ni17
_chemical_formula_sum   'Cr5 Fe32 Ni17'
_cell_volume   577.79438297
_cell_formula_units_Z   1
loop_
 _symmetry_equiv_pos_site_id
 _symmetry_equiv_pos_as_xyz
  1  'x, y, z'
loop_
 _atom_site_type_symbol
 _atom_site_label
 _atom_site_symmetry_multiplicity
 _atom_site_fract_x
 _atom_site_fract_y
 _atom_site_fract_z
 _atom_site_occupancy
  Ni  Ni0  1  0.00599943  1.00280823  1.00186365  1
  Ni  Ni1  1  0.17186020  0.16995662  0.16828154  1
  Fe  Fe2  1  0.00586385  0.00518890  0.33727212  1
  Ni  Ni3  1  1.00243705  0.33823967  0.00329356  1
  Fe  Fe4  1  0.17023523  0.50181245  0.16885693  1
  Fe  Fe5  1  0.00510810  0.33505689  0.33667857  1
  Fe  Fe6  1  0.00353216  0.66981715  1.00148756  1
  Fe  Fe7  1  0.17172186  0.83670837  0.16784176  1
  Cr  Cr8  1  0.00484577  0.66914855  0.33632896  1
  Ni  Ni9  1  0.33754640  1.00150259  0.00357624  1
  Fe  Fe10  1  0.50359465  0.17019429  0.16954721  1
  Fe  Fe11  1  0.33556251  0.00396895  0.33541107  1
  Fe  Fe12  1  0.33590395  0.33438040  1.00275322  1
  Ni  Ni13  1  0.50171515  0.50476903  0.16858921  1
  Fe  Fe14  1  0.33580940  0.33683620  0.33741593  1
  Fe  Fe15  1  0.33564071  0.66810144  1.00140627  1
  Ni  Ni16  1  0.50149029  0.83561079  0.16729863  1
  Fe  Fe17  1  0.33822798  0.66796354  0.33668288  1
  Fe  Fe18  1  0.66939560  0.00523957  0.99962654  1
  Cr  Cr19  1  0.83984895  0.17128085  0.16822864  1
  Fe  Fe20  1  0.66944178  0.00391591  0.33806218  1
  Ni  Ni21  1  0.66900811  0.33838948  1.00277380  1
  Ni  Ni22  1  0.83530491  0.50361909  0.16694543  1
  Fe  Fe23  1  0.66843333  0.33762528  0.33595994  1
  Fe  Fe24  1  0.66864716  0.66994483  1.00118748  1
  Cr  Cr25  1  0.83401332  0.83722967  0.16803235  1
  Fe  Fe26  1  0.66734718  0.66782989  0.33458368  1
  Ni  Ni27  1  0.16942334  0.16960847  0.50483283  1
  Fe  Fe28  1  0.00405494  1.00289105  0.67175504  1
  Fe  Fe29  1  0.17024653  0.16828982  0.83816048  1
  Ni  Ni30  1  0.17060511  0.50140780  0.50525533  1
  Fe  Fe31  1  0.00516113  0.33408325  0.67187330  1
  Fe  Fe32  1  0.16874113  0.50323063  0.83498845  1
  Fe  Fe33  1  0.17037573  0.83737013  0.50481126  1
  Fe  Fe34  1  0.00384196  0.67246098  0.67100245  1
  Fe  Fe35  1  0.17085762  0.83684507  0.83623439  1
  Ni  Ni36  1  0.50256149  0.16995428  0.50286275  1
  Ni  Ni37  1  0.33696553  1.00288226  0.66972228  1
  Fe  Fe38  1  0.50292843  0.16850232  0.83609518  1
  Ni  Ni39  1  0.50104594  0.50234536  0.50498453  1
  Fe  Fe40  1  0.33727624  0.33460021  0.66975137  1
  Fe  Fe41  1  0.50251328  0.50367173  0.83616024  1
  Cr  Cr42  1  0.50420801  0.83484520  0.50443202  1
  Ni  Ni43  1  0.33443862  0.66839572  0.66927705  1
  Fe  Fe44  1  0.50178595  0.83748912  0.83548327  1
  Ni  Ni45  1  0.83798306  0.16935938  0.50462134  1
  Ni  Ni46  1  0.67067953  0.00541103  0.67041527  1
  Fe  Fe47  1  0.83705506  0.17022201  0.83743188  1
  Cr  Cr48  1  0.83444770  0.50332969  0.50620120  1
  Fe  Fe49  1  0.66645033  0.33479411  0.67148043  1
  Fe  Fe50  1  0.83650820  0.50306102  0.83723612  1
  Fe  Fe51  1  0.83784435  0.83933197  0.50517836  1
  Fe  Fe52  1  0.66764198  0.67156324  0.67358291  1
  Ni  Ni53  1  0.83604948  0.83714119  0.83641058  1
" 