428,Ni33Fe60Cr6_5,-234.205336150064, 201.448421513715,Ni33Fe60Cr6,"# generated using pymatgen
 data_Cr5Fe32Ni17
_symmetry_space_group_name_H-M   'P 1'
_cell_length_a   7.41881339
_cell_length_b   7.41881339
_cell_length_c   10.49178652
_cell_angle_alpha   90.00000000
_cell_angle_beta   90.00000000
_cell_angle_gamma   90.00000000
_symmetry_Int_Tables_number   1
_chemical_formula_structural   Cr5Fe32Ni17
_chemical_formula_sum   'Cr5 Fe32 Ni17'
_cell_volume   577.45525793
_cell_formula_units_Z   1
loop_
 _symmetry_equiv_pos_site_id
 _symmetry_equiv_pos_as_xyz
  1  'x, y, z'
loop_
 _atom_site_type_symbol
 _atom_site_label
 _atom_site_symmetry_multiplicity
 _atom_site_fract_x
 _atom_site_fract_y
 _atom_site_fract_z
 _atom_site_occupancy
  Ni  Ni0  1  1.00312072  1.00220941  1.00287053  1
  Ni  Ni1  1  0.16989111  0.16956185  0.16891297  1
  Cr  Cr2  1  1.00231672  1.00225602  0.33508683  1
  Fe  Fe3  1  0.00351175  0.33619019  0.00335989  1
  Fe  Fe4  1  0.17008973  0.50440419  0.17009379  1
  Fe  Fe5  1  0.00359609  0.33967799  0.33665221  1
  Ni  Ni6  1  0.00475772  0.67092829  0.00449811  1
  Ni  Ni7  1  0.16959969  0.83704801  0.16843400  1
  Ni  Ni8  1  1.00315964  0.66827390  0.33569190  1
  Ni  Ni9  1  0.33537252  0.00390284  1.00210269  1
  Fe  Fe10  1  0.50308083  0.17176672  0.16917944  1
  Fe  Fe11  1  0.33790223  1.00321443  0.33611780  1
  Fe  Fe12  1  0.33637122  0.33621819  1.00318672  1
  Ni  Ni13  1  0.50488641  0.50225012  0.16965226  1
  Fe  Fe14  1  0.33602999  0.33796315  0.33673256  1
  Ni  Ni15  1  0.33428393  0.66868331  1.00225260  1
  Cr  Cr16  1  0.50244804  0.83616969  0.16980765  1
  Ni  Ni17  1  0.33635154  0.66722035  0.33741019  1
  Ni  Ni18  1  0.67126175  0.00589919  0.00336168  1
  Fe  Fe19  1  0.83579108  0.17078467  0.16845203  1
  Fe  Fe20  1  0.66892135  1.00220817  0.33770600  1
  Ni  Ni21  1  0.66901647  0.33552998  1.00290359  1
  Ni  Ni22  1  0.83612177  0.50254703  0.16969382  1
  Fe  Fe23  1  0.67012541  0.33829804  0.33614475  1
  Fe  Fe24  1  0.67067975  0.66973524  0.00334256  1
  Fe  Fe25  1  0.83817927  0.83517757  0.16900450  1
  Ni  Ni26  1  0.67024509  0.66881788  0.33808089  1
  Fe  Fe27  1  0.17039504  0.17133382  0.50286802  1
  Fe  Fe28  1  0.00359972  0.00487751  0.67089697  1
  Fe  Fe29  1  0.16915600  0.16904615  0.83803277  1
  Ni  Ni30  1  0.16812507  0.50237509  0.50142717  1
  Fe  Fe31  1  1.00163698  0.33676306  0.66973665  1
  Ni  Ni32  1  0.16868291  0.50399145  0.83808286  1
  Cr  Cr33  1  0.17234672  0.83525699  0.50446888  1
  Fe  Fe34  1  1.00241498  0.66811142  0.67071877  1
  Fe  Fe35  1  0.16990295  0.83607882  0.83776566  1
  Fe  Fe36  1  0.50287346  0.16985245  0.50216321  1
  Fe  Fe37  1  0.33664473  1.00287679  0.67077655  1
  Fe  Fe38  1  0.50337396  0.17043324  0.83839808  1
  Fe  Fe39  1  0.50360367  0.50485910  0.50185298  1
  Cr  Cr40  1  0.33736403  0.33761286  0.66987279  1
  Fe  Fe41  1  0.50380744  0.50367482  0.83792834  1
  Ni  Ni42  1  0.50399725  0.83653183  0.50297428  1
  Fe  Fe43  1  0.33785162  0.67008538  0.67045509  1
  Fe  Fe44  1  0.50167356  0.83564999  0.83745148  1
  Fe  Fe45  1  0.83648551  0.17144087  0.50376547  1
  Cr  Cr46  1  0.67039995  0.00395985  0.66904178  1
  Fe  Fe47  1  0.83722330  0.17118323  0.83752466  1
  Fe  Fe48  1  0.83653574  0.50405979  0.50263691  1
  Ni  Ni49  1  0.67083180  0.33759971  0.66911104  1
  Fe  Fe50  1  0.83678671  0.50292685  0.83705626  1
  Fe  Fe51  1  0.83505738  0.83424873  0.50289598  1
  Fe  Fe52  1  0.66948572  0.66813030  0.66905860  1
  Fe  Fe53  1  0.83817538  0.83564689  0.83785022  1
" 