6317,Ni33Fe27Cr39_4,-223.344073619569, 166.35478659955,Ni33Fe27Cr39,"# generated using pymatgen
 data_Cr23Fe14Ni17
_symmetry_space_group_name_H-M   'P 1'
_cell_length_a   7.50316570
_cell_length_b   7.50316570
_cell_length_c   10.61107869
_cell_angle_alpha   90.00000000
_cell_angle_beta   90.00000000
_cell_angle_gamma   90.00000000
_symmetry_Int_Tables_number   1
_chemical_formula_structural   Cr23Fe14Ni17
_chemical_formula_sum   'Cr23 Fe14 Ni17'
_cell_volume   597.37715490
_cell_formula_units_Z   1
loop_
 _symmetry_equiv_pos_site_id
 _symmetry_equiv_pos_as_xyz
  1  'x, y, z'
loop_
 _atom_site_type_symbol
 _atom_site_label
 _atom_site_symmetry_multiplicity
 _atom_site_fract_x
 _atom_site_fract_y
 _atom_site_fract_z
 _atom_site_occupancy
  Cr  Cr0  1  -0.00223939  0.99733504  0.99559270  1
  Fe  Fe1  1  0.16265388  0.16438212  0.16650603  1
  Ni  Ni2  1  -0.00184197  0.99685382  0.33197399  1
  Fe  Fe3  1  0.99665468  0.33100768  0.99694119  1
  Fe  Fe4  1  0.16407106  0.49663017  0.16594252  1
  Fe  Fe5  1  0.99716565  0.32931550  0.33076276  1
  Cr  Cr6  1  0.99416079  0.66386758  0.00083524  1
  Ni  Ni7  1  0.16417860  0.83205070  0.16700903  1
  Cr  Cr8  1  -0.00112265  0.66522775  0.32832296  1
  Cr  Cr9  1  0.33100422  -0.00099737  0.99631175  1
  Cr  Cr10  1  0.49625209  0.16409649  0.16671748  1
  Fe  Fe11  1  0.32976545  0.99529310  0.33029992  1
  Cr  Cr12  1  0.33007642  0.32986059  0.99707530  1
  Ni  Ni13  1  0.49701761  0.49891327  0.16493616  1
  Ni  Ni14  1  0.32970065  0.33273736  0.32914317  1
  Cr  Cr15  1  0.33273584  0.66359430  -0.00042215  1
  Fe  Fe16  1  0.49954487  0.82885285  0.16511939  1
  Fe  Fe17  1  0.33214883  0.66540523  0.33084576  1
  Cr  Cr18  1  0.66414224  0.99463930  0.99716495  1
  Cr  Cr19  1  0.83160586  0.16339150  0.16692401  1
  Ni  Ni20  1  0.66576538  0.99623971  0.33069232  1
  Cr  Cr21  1  0.66384395  0.33317722  0.99522162  1
  Ni  Ni22  1  0.83005888  0.49897113  0.16174960  1
  Cr  Cr23  1  0.66335424  0.33160229  0.33343732  1
  Ni  Ni24  1  0.66550218  0.66346242  0.99694119  1
  Ni  Ni25  1  0.83219316  0.83005891  0.16458493  1
  Cr  Cr26  1  0.66410030  0.66489435  0.32944606  1
  Cr  Cr27  1  0.16174324  0.16263363  0.49584553  1
  Fe  Fe28  1  -0.00222184  -0.00012962  0.66445363  1
  Ni  Ni29  1  0.16250217  0.16507051  0.83096631  1
  Cr  Cr30  1  0.16713548  0.49924409  0.49680568  1
  Ni  Ni31  1  0.99438625  0.32842897  0.66587407  1
  Cr  Cr32  1  0.16483339  0.49705871  0.83060564  1
  Ni  Ni33  1  0.16643479  0.83164867  0.49750045  1
  Cr  Cr34  1  0.99756765  0.66510471  0.66359620  1
  Cr  Cr35  1  0.16288203  0.83114378  0.82798212  1
  Cr  Cr36  1  0.49957498  0.16557352  0.49446015  1
  Cr  Cr37  1  0.33119944  0.99667167  0.66594163  1
  Ni  Ni38  1  0.49850874  0.16653741  0.83069266  1
  Ni  Ni39  1  0.49615527  0.49957313  0.49877458  1
  Cr  Cr40  1  0.33229815  0.33140492  0.66606469  1
  Ni  Ni41  1  0.50122076  0.49836064  0.82888598  1
  Fe  Fe42  1  0.49613075  0.82947575  0.49691597  1
  Ni  Ni43  1  0.33442123  0.66430550  0.66169528  1
  Fe  Fe44  1  0.49905350  0.82819350  0.83035525  1
  Ni  Ni45  1  0.83162354  0.16269308  0.49837202  1
  Cr  Cr46  1  0.66512258  -0.00107117  0.66512291  1
  Fe  Fe47  1  0.83202486  0.16550225  0.82871205  1
  Cr  Cr48  1  0.82890340  0.49499216  0.50035998  1
  Fe  Fe49  1  0.66439428  0.33241168  0.66534000  1
  Fe  Fe50  1  0.82945502  0.49736327  0.83041905  1
  Cr  Cr51  1  0.83234566  0.83426258  0.49696225  1
  Fe  Fe52  1  0.66154389  0.66267284  0.66630377  1
  Ni  Ni53  1  0.82829772  0.83004056  0.83094668  1
" 