1493,Ni33Fe27Cr39_14,-223.117945154983, 176.689131066405,Ni33Fe27Cr39,"# generated using pymatgen
 data_Cr23Fe14Ni17
_symmetry_space_group_name_H-M   'P 1'
_cell_length_a   7.48804548
_cell_length_b   7.48804548
_cell_length_c   10.58969547
_cell_angle_alpha   90.00000000
_cell_angle_beta   90.00000000
_cell_angle_gamma   90.00000000
_symmetry_Int_Tables_number   1
_chemical_formula_structural   Cr23Fe14Ni17
_chemical_formula_sum   'Cr23 Fe14 Ni17'
_cell_volume   593.77296231
_cell_formula_units_Z   1
loop_
 _symmetry_equiv_pos_site_id
 _symmetry_equiv_pos_as_xyz
  1  'x, y, z'
loop_
 _atom_site_type_symbol
 _atom_site_label
 _atom_site_symmetry_multiplicity
 _atom_site_fract_x
 _atom_site_fract_y
 _atom_site_fract_z
 _atom_site_occupancy
  Cr  Cr0  1  0.99794353  0.99599890  0.99816384  1
  Cr  Cr1  1  0.16663216  0.16421748  0.16676028  1
  Cr  Cr2  1  0.99646611  -0.00122196  0.33127928  1
  Cr  Cr3  1  0.99583353  0.33384033  0.00012453  1
  Ni  Ni4  1  0.16158824  0.50024768  0.16556288  1
  Fe  Fe5  1  0.99722686  0.33239256  0.33074684  1
  Fe  Fe6  1  0.99836089  0.66554608  -0.00131894  1
  Ni  Ni7  1  0.16510437  0.83141423  0.16516964  1
  Fe  Fe8  1  0.99814612  0.66556626  0.32874515  1
  Ni  Ni9  1  0.33228041  0.99557944  -0.00079746  1
  Cr  Cr10  1  0.49725221  0.16218984  0.16368369  1
  Ni  Ni11  1  0.33334287  0.99386448  0.33137720  1
  Cr  Cr12  1  0.33339320  0.33437442  -0.00085686  1
  Ni  Ni13  1  0.50209030  0.50106413  0.16441380  1
  Cr  Cr14  1  0.33243609  0.33534381  0.33086461  1
  Cr  Cr15  1  0.33032348  0.66566601  0.00022613  1
  Ni  Ni16  1  0.50017671  0.83216572  0.16668999  1
  Cr  Cr17  1  0.33359483  0.66620943  0.33245315  1
  Cr  Cr18  1  0.66679361  -0.00080598  0.99851648  1
  Fe  Fe19  1  0.83098301  0.16537876  0.16682302  1
  Ni  Ni20  1  0.66609941  0.99670961  0.33225960  1
  Fe  Fe21  1  0.66627315  0.33357654  -0.00079577  1
  Ni  Ni22  1  0.83213754  0.50145377  0.16515934  1
  Cr  Cr23  1  0.66714698  0.33218305  0.33062192  1
  Fe  Fe24  1  0.66749052  0.66411368  0.00057961  1
  Ni  Ni25  1  0.83057586  0.82825581  0.16525008  1
  Fe  Fe26  1  0.66385936  0.66763425  0.33024608  1
  Cr  Cr27  1  0.16508227  0.16515234  0.49839554  1
  Cr  Cr28  1  0.99708210  -0.00042407  0.66633001  1
  Cr  Cr29  1  0.16829574  0.16487339  0.83071156  1
  Cr  Cr30  1  0.16366291  0.49686581  0.49935785  1
  Ni  Ni31  1  0.99576037  0.33122490  0.66577686  1
  Ni  Ni32  1  0.16099191  0.49833675  0.83091931  1
  Fe  Fe33  1  0.16822866  0.83338899  0.49814686  1
  Cr  Cr34  1  0.00056824  0.66504273  0.66883606  1
  Ni  Ni35  1  0.16477647  0.83272800  0.83239675  1
  Cr  Cr36  1  0.49818335  0.16230822  0.50131479  1
  Ni  Ni37  1  0.33337240  0.99806608  0.66529320  1
  Fe  Fe38  1  0.49852222  0.16507384  0.83086933  1
  Ni  Ni39  1  0.49956416  0.50002850  0.49964108  1
  Fe  Fe40  1  0.33154918  0.33174717  0.66588526  1
  Cr  Cr41  1  0.50090330  0.49622066  0.83184702  1
  Ni  Ni42  1  0.49862265  0.83375140  0.49720313  1
  Cr  Cr43  1  0.33163438  0.66549768  0.66317693  1
  Cr  Cr44  1  0.49854155  0.83563000  0.83252056  1
  Ni  Ni45  1  0.83156985  0.16562405  0.49946718  1
  Fe  Fe46  1  0.66469406  0.00053257  0.66478688  1
  Fe  Fe47  1  0.83066754  0.16778483  0.82978459  1
  Cr  Cr48  1  0.83218046  0.49780622  0.49747470  1
  Fe  Fe49  1  0.66667483  0.33006675  0.66535836  1
  Ni  Ni50  1  0.83326792  0.49760945  0.83257841  1
  Cr  Cr51  1  0.82912163  0.83207789  0.49746590  1
  Cr  Cr52  1  0.66366362  0.66470524  0.66382172  1
  Fe  Fe53  1  0.83355387  0.82960925  0.83297906  1
" 