8762,Ni33Fe7Cr59_7,-215.222154466908, 148.637565874613,Ni33Fe7Cr59,"# generated using pymatgen
 data_Cr11FeNi6
_symmetry_space_group_name_H-M   'P 1'
_cell_length_a   7.53928276
_cell_length_b   7.53928276
_cell_length_c   10.66215593
_cell_angle_alpha   90.00000000
_cell_angle_beta   90.00000000
_cell_angle_gamma   90.00000000
_symmetry_Int_Tables_number   1
_chemical_formula_structural   Cr11FeNi6
_chemical_formula_sum   'Cr33 Fe3 Ni18'
_cell_volume   606.04530849
_cell_formula_units_Z   3
loop_
 _symmetry_equiv_pos_site_id
 _symmetry_equiv_pos_as_xyz
  1  'x, y, z'
loop_
 _atom_site_type_symbol
 _atom_site_label
 _atom_site_symmetry_multiplicity
 _atom_site_fract_x
 _atom_site_fract_y
 _atom_site_fract_z
 _atom_site_occupancy
  Cr  Cr0  1  -0.00184708  0.99403580  -0.00224554  1
  Fe  Fe1  1  0.16256001  0.16153162  0.16275392  1
  Fe  Fe2  1  0.99299055  0.99261890  0.32811344  1
  Cr  Cr3  1  -0.00200244  0.32794418  0.99186231  1
  Cr  Cr4  1  0.16139657  0.49729143  0.16409044  1
  Cr  Cr5  1  -0.00435424  0.32708895  0.33059398  1
  Ni  Ni6  1  0.99488601  0.66303695  -0.00366250  1
  Fe  Fe7  1  0.16090167  0.82725798  0.16299473  1
  Ni  Ni8  1  -0.00450387  0.66603600  0.32729545  1
  Cr  Cr9  1  0.32859627  0.99496192  -0.00364929  1
  Ni  Ni10  1  0.49471715  0.15991433  0.16294227  1
  Cr  Cr11  1  0.33010174  0.99474571  0.32375358  1
  Cr  Cr12  1  0.32801242  0.32590486  -0.00392631  1
  Cr  Cr13  1  0.49499221  0.49421811  0.16299683  1
  Ni  Ni14  1  0.32741376  0.32731481  0.32650041  1
  Cr  Cr15  1  0.32978603  0.66469754  0.99479062  1
  Ni  Ni16  1  0.49649625  0.82976094  0.16240747  1
  Ni  Ni17  1  0.32667609  0.66350739  0.32710426  1
  Cr  Cr18  1  0.65892357  0.99210439  -0.00315174  1
  Cr  Cr19  1  0.82686448  0.16009681  0.16193547  1
  Ni  Ni20  1  0.66335124  0.99379270  0.32835473  1
  Ni  Ni21  1  0.66064402  0.32864997  -0.00332558  1
  Cr  Cr22  1  0.82945004  0.49740316  0.15766028  1
  Cr  Cr23  1  0.66102718  0.32588060  0.32943559  1
  Ni  Ni24  1  0.66218458  0.66431271  -0.00324155  1
  Ni  Ni25  1  0.82957058  0.82873457  0.16308367  1
  Cr  Cr26  1  0.66236673  0.66662370  0.32840153  1
  Cr  Cr27  1  0.16294575  0.15943772  0.49430988  1
  Cr  Cr28  1  0.99427610  -0.00365490  0.66029413  1
  Ni  Ni29  1  0.16347477  0.16180681  0.82815514  1
  Cr  Cr30  1  0.16432927  0.49809934  0.49351531  1
  Cr  Cr31  1  -0.00430809  0.32811774  0.66329595  1
  Ni  Ni32  1  0.16241327  0.49633048  0.82847129  1
  Cr  Cr33  1  0.16209539  0.82767463  0.49406098  1
  Cr  Cr34  1  0.99497198  0.66092183  0.66185507  1
  Cr  Cr35  1  0.16317761  0.82844193  0.82730368  1
  Cr  Cr36  1  0.49573467  0.15966824  0.49519035  1
  Ni  Ni37  1  0.33009746  0.99354061  0.66481879  1
  Cr  Cr38  1  0.49614864  0.15893516  0.82759854  1
  Cr  Cr39  1  0.49102464  0.49613246  0.49284848  1
  Cr  Cr40  1  0.32635513  0.32905378  0.66308674  1
  Cr  Cr41  1  0.49577909  0.49700461  0.82967484  1
  Cr  Cr42  1  0.49323814  0.83006459  0.49790588  1
  Ni  Ni43  1  0.32851869  0.66407435  0.66366330  1
  Ni  Ni44  1  0.49472955  0.82886811  0.82657393  1
  Ni  Ni45  1  0.82763544  0.15579325  0.49441869  1
  Ni  Ni46  1  0.66092731  0.99354609  0.66025038  1
  Cr  Cr47  1  0.82708341  0.16064464  0.82850025  1
  Cr  Cr48  1  0.82999102  0.49640610  0.49370175  1
  Cr  Cr49  1  0.66410834  0.32795112  0.65955139  1
  Cr  Cr50  1  0.82851959  0.49627157  0.83432136  1
  Ni  Ni51  1  0.82870230  0.83326820  0.49267263  1
  Cr  Cr52  1  0.66130512  0.66461310  0.66127350  1
  Cr  Cr53  1  0.82683233  0.82883080  0.83012768  1
" 