2043,Ni34Fe26Cr38_10,-224.461260333024, 175.419242176917,Ni34Fe26Cr38,"# generated using pymatgen
 data_Cr11Fe7Ni9
_symmetry_space_group_name_H-M   'P 1'
_cell_length_a   7.49120874
_cell_length_b   7.49120874
_cell_length_c   10.59416899
_cell_angle_alpha   90.00000000
_cell_angle_beta   90.00000000
_cell_angle_gamma   90.00000000
_symmetry_Int_Tables_number   1
_chemical_formula_structural   Cr11Fe7Ni9
_chemical_formula_sum   'Cr22 Fe14 Ni18'
_cell_volume   594.52578263
_cell_formula_units_Z   2
loop_
 _symmetry_equiv_pos_site_id
 _symmetry_equiv_pos_as_xyz
  1  'x, y, z'
loop_
 _atom_site_type_symbol
 _atom_site_label
 _atom_site_symmetry_multiplicity
 _atom_site_fract_x
 _atom_site_fract_y
 _atom_site_fract_z
 _atom_site_occupancy
  Cr  Cr0  1  0.99745328  0.99719528  0.99588349  1
  Cr  Cr1  1  0.16424225  0.16665021  0.16604892  1
  Ni  Ni2  1  -0.00111735  0.99564032  0.33064508  1
  Ni  Ni3  1  0.00069887  0.33391142  0.00107904  1
  Fe  Fe4  1  0.16343105  0.49802364  0.16297281  1
  Fe  Fe5  1  0.99621825  0.33091627  0.33057228  1
  Ni  Ni6  1  -0.00069684  0.66384621  -0.00077228  1
  Cr  Cr7  1  0.16553257  0.83104730  0.16312527  1
  Cr  Cr8  1  0.00164624  0.66290411  0.33150813  1
  Cr  Cr9  1  0.33347594  0.99786172  0.99558221  1
  Cr  Cr10  1  0.49687713  0.16827589  0.16461761  1
  Cr  Cr11  1  0.33192896  0.99574076  0.33296556  1
  Ni  Ni12  1  0.32935902  0.33202764  0.99788733  1
  Cr  Cr13  1  0.49598653  0.49988351  0.16446429  1
  Fe  Fe14  1  0.33138216  0.33441702  0.33393688  1
  Fe  Fe15  1  0.33046459  0.66469926  0.99798424  1
  Fe  Fe16  1  0.49931819  0.83136586  0.16578118  1
  Fe  Fe17  1  0.33333019  0.66365827  0.33345886  1
  Cr  Cr18  1  0.66438158  0.99800269  0.99773514  1
  Ni  Ni19  1  0.83392884  0.16514998  0.16676597  1
  Cr  Cr20  1  0.66408438  -0.00050990  0.32910506  1
  Cr  Cr21  1  0.66637194  0.32923791  0.99443288  1
  Fe  Fe22  1  0.83307064  0.49599758  0.16552502  1
  Ni  Ni23  1  0.66355065  0.33443080  0.33216176  1
  Cr  Cr24  1  0.66742347  0.66780933  0.00071481  1
  Ni  Ni25  1  0.83322080  0.82993829  0.16666868  1
  Fe  Fe26  1  0.66384952  0.66610564  0.33180470  1
  Cr  Cr27  1  0.16445519  0.16321809  0.49716223  1
  Ni  Ni28  1  0.00385919  0.99441123  0.66793089  1
  Ni  Ni29  1  0.16708396  0.16521628  0.83137530  1
  Fe  Fe30  1  0.16869061  0.50034208  0.50023049  1
  Cr  Cr31  1  0.00119629  0.33296566  0.66639409  1
  Cr  Cr32  1  0.16620059  0.49779881  0.83433282  1
  Fe  Fe33  1  0.16619293  0.83166013  0.50027367  1
  Ni  Ni34  1  0.00136842  0.66818101  0.66552310  1
  Fe  Fe35  1  0.16619719  0.83118368  0.83027857  1
  Ni  Ni36  1  0.49468516  0.16552576  0.49831749  1
  Ni  Ni37  1  0.33126504  0.99743411  0.66535097  1
  Ni  Ni38  1  0.49003848  0.16431925  0.83037724  1
  Fe  Fe39  1  0.49679020  0.49820929  0.49822431  1
  Ni  Ni40  1  0.33190353  0.33007868  0.66293366  1
  Cr  Cr41  1  0.49587387  0.50029157  0.82968992  1
  Ni  Ni42  1  0.49607931  0.82898959  0.49820347  1
  Fe  Fe43  1  0.33177629  0.66739912  0.66376225  1
  Ni  Ni44  1  0.49862732  0.83100279  0.83152293  1
  Cr  Cr45  1  0.83242160  0.16252639  0.49761090  1
  Cr  Cr46  1  0.66121541  -0.00133111  0.66854893  1
  Fe  Fe47  1  0.83436198  0.16351710  0.83148532  1
  Cr  Cr48  1  0.82999644  0.50065573  0.49973398  1
  Cr  Cr49  1  0.66152703  0.33130758  0.66661141  1
  Cr  Cr50  1  0.83280061  0.50389733  0.83120557  1
  Cr  Cr51  1  0.83234041  0.83230156  0.50051275  1
  Ni  Ni52  1  0.66363395  0.66749578  0.66338946  1
  Ni  Ni53  1  0.83292403  0.83009337  0.82928121  1
" 