2021,Ni34Cr66_5,-226.037250587326, 143.672808542062,Ni34Cr66,"# generated using pymatgen
 data_CrNi2
_symmetry_space_group_name_H-M   'P 1'
_cell_length_a   7.49347128
_cell_length_b   7.49347128
_cell_length_c   10.59736871
_cell_angle_alpha   90.00000000
_cell_angle_beta   90.00000000
_cell_angle_gamma   90.00000000
_symmetry_Int_Tables_number   1
_chemical_formula_structural   CrNi2
_chemical_formula_sum   'Cr18 Ni36'
_cell_volume   595.06463277
_cell_formula_units_Z   18
loop_
 _symmetry_equiv_pos_site_id
 _symmetry_equiv_pos_as_xyz
  1  'x, y, z'
loop_
 _atom_site_type_symbol
 _atom_site_label
 _atom_site_symmetry_multiplicity
 _atom_site_fract_x
 _atom_site_fract_y
 _atom_site_fract_z
 _atom_site_occupancy
  Ni  Ni0  1  0.00014839  -0.00123886  0.99422477  1
  Cr  Cr1  1  0.16397960  0.16576551  0.16443384  1
  Ni  Ni2  1  0.99810852  0.99677963  0.33590689  1
  Ni  Ni3  1  0.00149960  0.33280578  0.99733765  1
  Ni  Ni4  1  0.16411661  0.49926027  0.16364331  1
  Ni  Ni5  1  -0.00174171  0.33389760  0.33136605  1
  Ni  Ni6  1  0.00064209  0.66317915  0.99822795  1
  Cr  Cr7  1  0.16476975  0.82887128  0.16503056  1
  Ni  Ni8  1  -0.00085373  0.66380985  0.33273143  1
  Ni  Ni9  1  0.33139874  0.99708095  0.99675004  1
  Ni  Ni10  1  0.49799519  0.16309941  0.16297783  1
  Cr  Cr11  1  0.33096949  0.99650746  0.33265588  1
  Ni  Ni12  1  0.32877576  0.33252080  -0.00073405  1
  Ni  Ni13  1  0.49574496  0.50052739  0.16314877  1
  Cr  Cr14  1  0.33094499  0.33386440  0.32949213  1
  Ni  Ni15  1  0.33076127  0.66507750  -0.00165661  1
  Ni  Ni16  1  0.49793891  0.83100273  0.16242073  1
  Ni  Ni17  1  0.33034970  0.66432856  0.33049096  1
  Ni  Ni18  1  0.66312738  0.99654628  -0.00141461  1
  Cr  Cr19  1  0.83335595  0.16322744  0.16453605  1
  Ni  Ni20  1  0.66560781  0.99676597  0.32983598  1
  Cr  Cr21  1  0.66573372  0.33267100  -0.00004375  1
  Ni  Ni22  1  0.83481359  0.49934713  0.16415842  1
  Cr  Cr23  1  0.66500074  0.33337077  0.33043049  1
  Ni  Ni24  1  0.66312659  0.66635069  0.00002918  1
  Cr  Cr25  1  0.83294496  0.83116839  0.16414509  1
  Cr  Cr26  1  0.66495987  0.66429504  0.33184420  1
  Ni  Ni27  1  0.16252699  0.16377788  0.50010264  1
  Ni  Ni28  1  0.00227274  0.99769550  0.66501389  1
  Ni  Ni29  1  0.16360257  0.16521128  0.83111253  1
  Cr  Cr30  1  0.16553768  0.49911076  0.49850378  1
  Ni  Ni31  1  -0.00030055  0.33112871  0.66625232  1
  Ni  Ni32  1  0.16488185  0.49848750  0.83238421  1
  Ni  Ni33  1  0.16197923  0.83136843  0.49904239  1
  Ni  Ni34  1  -0.00038483  0.66567645  0.66409672  1
  Ni  Ni35  1  0.16607037  0.83095134  0.83129594  1
  Cr  Cr36  1  0.49555955  0.16728135  0.50037334  1
  Ni  Ni37  1  0.32652056  0.99697195  0.66632631  1
  Cr  Cr38  1  0.49664972  0.16491674  0.83078517  1
  Ni  Ni39  1  0.49846299  0.49971291  0.50173414  1
  Ni  Ni40  1  0.32841146  0.33188004  0.66491737  1
  Cr  Cr41  1  0.49514248  0.50133704  0.82791066  1
  Cr  Cr42  1  0.49613604  0.82939176  0.49987558  1
  Ni  Ni43  1  0.32951918  0.66616087  0.66569732  1
  Ni  Ni44  1  0.49522834  0.83074998  0.83298188  1
  Cr  Cr45  1  0.83407779  0.16502368  0.49786445  1
  Cr  Cr46  1  0.66714708  0.99643811  0.66649349  1
  Ni  Ni47  1  0.83550724  0.16462516  0.83187947  1
  Ni  Ni48  1  0.83289666  0.50012678  0.50024197  1
  Ni  Ni49  1  0.66651001  0.33447534  0.66327299  1
  Cr  Cr50  1  0.83400856  0.49801775  0.83031121  1
  Ni  Ni51  1  0.83501488  0.82958784  0.49777520  1
  Ni  Ni52  1  0.66538450  0.66343597  0.66285606  1
  Cr  Cr53  1  0.83221007  0.83036869  0.83372171  1
" 