8080,Ni34Fe26Cr38_4,-224.455228837827, 181.760243102,Ni34Fe26Cr38,"# generated using pymatgen
 data_Cr11Fe7Ni9
_symmetry_space_group_name_H-M   'P 1'
_cell_length_a   7.48245932
_cell_length_b   7.48245932
_cell_length_c   10.58179545
_cell_angle_alpha   90.00000000
_cell_angle_beta   90.00000000
_cell_angle_gamma   90.00000000
_symmetry_Int_Tables_number   1
_chemical_formula_structural   Cr11Fe7Ni9
_chemical_formula_sum   'Cr22 Fe14 Ni18'
_cell_volume   592.44507211
_cell_formula_units_Z   2
loop_
 _symmetry_equiv_pos_site_id
 _symmetry_equiv_pos_as_xyz
  1  'x, y, z'
loop_
 _atom_site_type_symbol
 _atom_site_label
 _atom_site_symmetry_multiplicity
 _atom_site_fract_x
 _atom_site_fract_y
 _atom_site_fract_z
 _atom_site_occupancy
  Cr  Cr0  1  0.99537525  0.99702442  0.00372940  1
  Cr  Cr1  1  0.16484862  0.16599102  0.16588972  1
  Ni  Ni2  1  0.99762255  0.99765131  0.33215996  1
  Ni  Ni3  1  0.99654867  0.33617847  0.99819696  1
  Ni  Ni4  1  0.16567369  0.50108154  0.16409580  1
  Cr  Cr5  1  0.00096805  0.33369233  0.33051622  1
  Ni  Ni6  1  0.00177975  0.66308288  0.00182611  1
  Ni  Ni7  1  0.16676179  0.83015267  0.16564132  1
  Cr  Cr8  1  0.00293553  0.66840246  0.33065174  1
  Fe  Fe9  1  0.33136337  0.99781164  0.00298011  1
  Ni  Ni10  1  0.50061655  0.16507521  0.16689741  1
  Fe  Fe11  1  0.33123345  0.99680283  0.33034839  1
  Cr  Cr12  1  0.33382909  0.33571100  0.00065152  1
  Cr  Cr13  1  0.50181742  0.49978856  0.16974370  1
  Fe  Fe14  1  0.33296686  0.33240364  0.33250476  1
  Ni  Ni15  1  0.33137108  0.66422151  0.00036707  1
  Ni  Ni16  1  0.49809748  0.83074458  0.16332490  1
  Fe  Fe17  1  0.33119177  0.66665638  0.33141387  1
  Cr  Cr18  1  0.66520207  0.00039652  0.00075796  1
  Ni  Ni19  1  0.83165585  0.16788744  0.16575202  1
  Cr  Cr20  1  0.66691147  -0.00002479  0.33137264  1
  Ni  Ni21  1  0.66695134  0.33229931  0.00024906  1
  Fe  Fe22  1  0.83384657  0.49918498  0.16398434  1
  Fe  Fe23  1  0.66635164  0.33013623  0.33170679  1
  Fe  Fe24  1  0.66702253  0.66228086  0.00073873  1
  Ni  Ni25  1  0.83174817  0.82966074  0.16707482  1
  Fe  Fe26  1  0.66682265  0.66771140  0.33139570  1
  Cr  Cr27  1  0.16524014  0.16484898  0.49825695  1
  Cr  Cr28  1  0.99585996  0.99835652  0.66133425  1
  Cr  Cr29  1  0.16189830  0.16608039  0.83254649  1
  Ni  Ni30  1  0.16689043  0.50071629  0.49896577  1
  Fe  Fe31  1  0.99776290  0.33438293  0.66560425  1
  Fe  Fe32  1  0.16594029  0.50043588  0.83427504  1
  Ni  Ni33  1  0.16830342  0.83095334  0.49790356  1
  Cr  Cr34  1  0.00269529  0.66459451  0.66431972  1
  Cr  Cr35  1  0.16777880  0.83278283  0.83354029  1
  Ni  Ni36  1  0.49910759  0.16609806  0.49619759  1
  Fe  Fe37  1  0.33257814  0.99748479  0.66401663  1
  Cr  Cr38  1  0.49746380  0.16493819  0.83452685  1
  Fe  Fe39  1  0.49589858  0.49740596  0.49571697  1
  Cr  Cr40  1  0.33181394  0.33616220  0.66474079  1
  Ni  Ni41  1  0.50021741  0.50048425  0.83279998  1
  Cr  Cr42  1  0.49771606  0.83022699  0.49964891  1
  Ni  Ni43  1  0.33094740  0.66270733  0.66459808  1
  Cr  Cr44  1  0.49648613  0.82852142  0.83477860  1
  Ni  Ni45  1  0.83182293  0.16821611  0.49816543  1
  Cr  Cr46  1  0.66649958  0.00069373  0.66493519  1
  Ni  Ni47  1  0.83369955  0.17115001  0.83250546  1
  Cr  Cr48  1  0.83073340  0.49903211  0.49685717  1
  Cr  Cr49  1  0.66309266  0.33045854  0.66547265  1
  Fe  Fe50  1  0.83194798  0.49784070  0.83474775  1
  Fe  Fe51  1  0.83429418  0.83362048  0.49604462  1
  Cr  Cr52  1  0.66383348  0.66442439  0.66481625  1
  Cr  Cr53  1  0.83235218  0.82976569  0.83310154  1
" 