8999,Ni34Fe66_13,-242.878268523784, 220.325542477038,Ni34Fe66,"# generated using pymatgen
 data_FeNi2
_symmetry_space_group_name_H-M   'P 1'
_cell_length_a   7.40881794
_cell_length_b   7.40881794
_cell_length_c   10.47765081
_cell_angle_alpha   90.00000000
_cell_angle_beta   90.00000000
_cell_angle_gamma   90.00000000
_symmetry_Int_Tables_number   1
_chemical_formula_structural   FeNi2
_chemical_formula_sum   'Fe18 Ni36'
_cell_volume   575.12436345
_cell_formula_units_Z   18
loop_
 _symmetry_equiv_pos_site_id
 _symmetry_equiv_pos_as_xyz
  1  'x, y, z'
loop_
 _atom_site_type_symbol
 _atom_site_label
 _atom_site_symmetry_multiplicity
 _atom_site_fract_x
 _atom_site_fract_y
 _atom_site_fract_z
 _atom_site_occupancy
  Ni  Ni0  1  0.00469951  1.00309265  1.00355193  1
  Ni  Ni1  1  0.16882987  0.16940734  0.16903188  1
  Fe  Fe2  1  1.00310644  0.00536325  0.33662134  1
  Ni  Ni3  1  0.00433653  0.33695105  1.00325123  1
  Fe  Fe4  1  0.17048441  0.50274970  0.16980134  1
  Ni  Ni5  1  0.00451237  0.33871427  0.33664466  1
  Ni  Ni6  1  1.00347923  0.67112956  1.00339473  1
  Fe  Fe7  1  0.16956726  0.83628271  0.17106616  1
  Ni  Ni8  1  1.00316477  0.67019856  0.33700572  1
  Fe  Fe9  1  0.33721115  0.00408335  0.00415486  1
  Fe  Fe10  1  0.50459996  0.17230636  0.17068468  1
  Ni  Ni11  1  0.33718231  0.00435395  0.33670590  1
  Ni  Ni12  1  0.33774652  0.33737866  0.00411351  1
  Ni  Ni13  1  0.50471329  0.50616893  0.17067966  1
  Ni  Ni14  1  0.33615051  0.33499781  0.33779764  1
  Ni  Ni15  1  0.33707580  0.67099161  0.00402413  1
  Ni  Ni16  1  0.50316248  0.83652541  0.16913166  1
  Fe  Fe17  1  0.33877124  0.67001823  0.33677422  1
  Fe  Fe18  1  0.67174578  0.00466660  0.00428190  1
  Ni  Ni19  1  0.83846706  0.17111503  0.17033927  1
  Ni  Ni20  1  0.66841813  1.00274939  0.33745982  1
  Ni  Ni21  1  0.67008424  0.33812157  1.00361550  1
  Ni  Ni22  1  0.83653525  0.50281571  0.16875960  1
  Ni  Ni23  1  0.67056348  0.33762130  0.33829501  1
  Ni  Ni24  1  0.67044894  0.67092704  1.00321596  1
  Fe  Fe25  1  0.83632666  0.83675377  0.17008884  1
  Ni  Ni26  1  0.67251010  0.67125637  0.33739456  1
  Ni  Ni27  1  0.16770159  0.16964963  0.50531573  1
  Fe  Fe28  1  1.00259435  0.00534783  0.67158572  1
  Fe  Fe29  1  0.17206203  0.17291482  0.83776609  1
  Ni  Ni30  1  0.17112018  0.50424061  0.50282203  1
  Ni  Ni31  1  0.00487426  0.33828715  0.67161166  1
  Ni  Ni32  1  0.17130508  0.50569208  0.83828500  1
  Ni  Ni33  1  0.17229714  0.83817060  0.50364316  1
  Fe  Fe34  1  0.00512156  0.67002315  0.66992227  1
  Fe  Fe35  1  0.17112621  0.83792487  0.83710196  1
  Fe  Fe36  1  0.50243801  0.17095844  0.50487320  1
  Ni  Ni37  1  0.33684456  0.00404462  0.67197263  1
  Ni  Ni38  1  0.50598138  0.17063825  0.83801415  1
  Ni  Ni39  1  0.50444421  0.50614424  0.50402572  1
  Ni  Ni40  1  0.33629816  0.33627299  0.67029564  1
  Ni  Ni41  1  0.50300801  0.50439281  0.83723387  1
  Ni  Ni42  1  0.50300002  0.83664499  0.50494281  1
  Fe  Fe43  1  0.33836454  0.66920600  0.67096523  1
  Fe  Fe44  1  0.50431088  0.83734945  0.83721052  1
  Ni  Ni45  1  0.83762027  0.17036401  0.50367744  1
  Ni  Ni46  1  0.66946203  1.00285673  0.67029389  1
  Ni  Ni47  1  0.83764238  0.16949519  0.83784067  1
  Ni  Ni48  1  0.83729100  0.50189694  0.50502287  1
  Ni  Ni49  1  0.67050433  0.33709929  0.67031219  1
  Fe  Fe50  1  0.83638830  0.50216987  0.83742902  1
  Fe  Fe51  1  0.83790110  0.83614743  0.50389026  1
  Ni  Ni52  1  0.67208324  0.67095734  0.67084282  1
  Fe  Fe53  1  0.83652861  0.83657724  0.83742447  1
" 