2519,Ni34Fe66_16,-242.828560918489, 221.22514313165,Ni34Fe66,"# generated using pymatgen
 data_FeNi2
_symmetry_space_group_name_H-M   'P 1'
_cell_length_a   7.40867586
_cell_length_b   7.40867586
_cell_length_c   10.47744988
_cell_angle_alpha   90.00000000
_cell_angle_beta   90.00000000
_cell_angle_gamma   90.00000000
_symmetry_Int_Tables_number   1
_chemical_formula_structural   FeNi2
_chemical_formula_sum   'Fe18 Ni36'
_cell_volume   575.09127799
_cell_formula_units_Z   18
loop_
 _symmetry_equiv_pos_site_id
 _symmetry_equiv_pos_as_xyz
  1  'x, y, z'
loop_
 _atom_site_type_symbol
 _atom_site_label
 _atom_site_symmetry_multiplicity
 _atom_site_fract_x
 _atom_site_fract_y
 _atom_site_fract_z
 _atom_site_occupancy
  Ni  Ni0  1  0.00622322  1.00367114  0.00409562  1
  Ni  Ni1  1  0.16988156  0.17191782  0.16996639  1
  Ni  Ni2  1  0.00592668  0.00411957  0.33711763  1
  Ni  Ni3  1  1.00305805  0.33707971  1.00345898  1
  Ni  Ni4  1  0.17131941  0.50243906  0.17100808  1
  Fe  Fe5  1  1.00380083  0.33719304  0.33638248  1
  Ni  Ni6  1  1.00324884  0.67106193  0.00504247  1
  Fe  Fe7  1  0.17013210  0.83727213  0.17133750  1
  Fe  Fe8  1  1.00344038  0.67091244  0.33743397  1
  Ni  Ni9  1  0.33594197  0.00410056  1.00370623  1
  Fe  Fe10  1  0.50439927  0.17128329  0.17120308  1
  Ni  Ni11  1  0.33500153  1.00366013  0.33825213  1
  Fe  Fe12  1  0.33617768  0.33813117  1.00333452  1
  Ni  Ni13  1  0.50287168  0.50538476  0.17055581  1
  Fe  Fe14  1  0.33737073  0.33707584  0.33780399  1
  Fe  Fe15  1  0.33701236  0.67012369  0.00443735  1
  Ni  Ni16  1  0.50451495  0.83642533  0.17034495  1
  Ni  Ni17  1  0.33804182  0.67151616  0.33739687  1
  Fe  Fe18  1  0.67225214  1.00344853  1.00311382  1
  Ni  Ni19  1  0.83879271  0.17016498  0.17095335  1
  Fe  Fe20  1  0.67008388  1.00300206  0.33826744  1
  Ni  Ni21  1  0.67030328  0.33899199  1.00356319  1
  Ni  Ni22  1  0.83752725  0.50368906  0.16891506  1
  Ni  Ni23  1  0.67058593  0.33888528  0.33749820  1
  Ni  Ni24  1  0.67080924  0.66860664  1.00384902  1
  Ni  Ni25  1  0.83568322  0.83789100  0.17081212  1
  Ni  Ni26  1  0.67004199  0.66829987  0.33767439  1
  Ni  Ni27  1  0.17047740  0.17091905  0.50503518  1
  Ni  Ni28  1  0.00474202  1.00286769  0.67071301  1
  Fe  Fe29  1  0.17079594  0.17018396  0.83752310  1
  Fe  Fe30  1  0.17036374  0.50433585  0.50448973  1
  Fe  Fe31  1  1.00272414  0.33716521  0.67109364  1
  Ni  Ni32  1  0.17153318  0.50307148  0.83699572  1
  Ni  Ni33  1  0.17138065  0.83768166  0.50429622  1
  Ni  Ni34  1  1.00345654  0.67227205  0.67006086  1
  Fe  Fe35  1  0.16983478  0.83669490  0.83694735  1
  Ni  Ni36  1  0.50347755  0.16994044  0.50402518  1
  Fe  Fe37  1  0.33839250  1.00362575  0.66986610  1
  Fe  Fe38  1  0.50469558  0.17096032  0.83631470  1
  Fe  Fe39  1  0.50496444  0.50367831  0.50394265  1
  Ni  Ni40  1  0.33839493  0.33675200  0.67005542  1
  Ni  Ni41  1  0.50203804  0.50517197  0.83697427  1
  Ni  Ni42  1  0.50385788  0.83712516  0.50465971  1
  Fe  Fe43  1  0.33796236  0.67061459  0.67039772  1
  Ni  Ni44  1  0.50476402  0.83622225  0.83679199  1
  Ni  Ni45  1  0.83784387  0.17092216  0.50390986  1
  Ni  Ni46  1  0.67137169  0.00419188  0.66986881  1
  Ni  Ni47  1  0.83827506  0.16969930  0.83682490  1
  Ni  Ni48  1  0.83754732  0.50362144  0.50506397  1
  Ni  Ni49  1  0.66891330  0.33792310  0.67067926  1
  Fe  Fe50  1  0.83644498  0.50499779  0.83742549  1
  Ni  Ni51  1  0.83667965  0.83723115  0.50401570  1
  Ni  Ni52  1  0.67120640  0.66975778  0.67023019  1
  Ni  Ni53  1  0.83614791  0.83875420  0.83700323  1
" 