966,Ni34Fe33Cr32_3,-226.728362710986, 185.072950892816,Ni34Fe33Cr32,"# generated using pymatgen
 data_CrFeNi
_symmetry_space_group_name_H-M   'P 1'
_cell_length_a   7.46605543
_cell_length_b   7.46605543
_cell_length_c   10.55859685
_cell_angle_alpha   90.00000000
_cell_angle_beta   90.00000000
_cell_angle_gamma   90.00000000
_symmetry_Int_Tables_number   1
_chemical_formula_structural   CrFeNi
_chemical_formula_sum   'Cr18 Fe18 Ni18'
_cell_volume   588.55713305
_cell_formula_units_Z   18
loop_
 _symmetry_equiv_pos_site_id
 _symmetry_equiv_pos_as_xyz
  1  'x, y, z'
loop_
 _atom_site_type_symbol
 _atom_site_label
 _atom_site_symmetry_multiplicity
 _atom_site_fract_x
 _atom_site_fract_y
 _atom_site_fract_z
 _atom_site_occupancy
  Cr  Cr0  1  0.00116279  0.00165883  0.00179482  1
  Ni  Ni1  1  0.16636589  0.17005090  0.16657503  1
  Cr  Cr2  1  0.00165480  0.00358385  0.33051829  1
  Ni  Ni3  1  0.00360960  0.33554379  0.99975516  1
  Ni  Ni4  1  0.16469223  0.49891565  0.16640706  1
  Ni  Ni5  1  0.00280551  0.33232734  0.33410463  1
  Fe  Fe6  1  0.00035095  0.66596483  0.99942455  1
  Ni  Ni7  1  0.16562134  0.83121103  0.16713514  1
  Fe  Fe8  1  0.99692353  0.66745529  0.33262267  1
  Cr  Cr9  1  0.33004426  0.99789599  0.00208220  1
  Fe  Fe10  1  0.49948647  0.16712130  0.16870972  1
  Fe  Fe11  1  0.33284121  0.00157504  0.33121490  1
  Fe  Fe12  1  0.33024032  0.33506464  0.00038015  1
  Cr  Cr13  1  0.49899265  0.49853447  0.16494536  1
  Fe  Fe14  1  0.33274569  0.33098206  0.33249148  1
  Fe  Fe15  1  0.33014360  0.66537394  0.99925179  1
  Cr  Cr16  1  0.50207172  0.83317437  0.16876704  1
  Cr  Cr17  1  0.33278446  0.66460869  0.33309795  1
  Cr  Cr18  1  0.66874063  0.99707228  0.00091699  1
  Ni  Ni19  1  0.83306093  0.16854334  0.16861993  1
  Ni  Ni20  1  0.66884765  0.99845502  0.33280430  1
  Cr  Cr21  1  0.66939025  0.33713043  0.99926483  1
  Cr  Cr22  1  0.83520642  0.50179941  0.16825053  1
  Fe  Fe23  1  0.66927969  0.33343504  0.33431302  1
  Ni  Ni24  1  0.66428507  0.66655439  0.99617478  1
  Fe  Fe25  1  0.83453060  0.83173070  0.16800403  1
  Ni  Ni26  1  0.66453336  0.66621458  0.33770158  1
  Ni  Ni27  1  0.16904753  0.16835238  0.50222698  1
  Cr  Cr28  1  0.00155703  0.00172544  0.66903452  1
  Fe  Fe29  1  0.16665737  0.16848078  0.83322655  1
  Cr  Cr30  1  0.16469177  0.49953957  0.49931747  1
  Ni  Ni31  1  0.00553640  0.33489440  0.66670700  1
  Ni  Ni32  1  0.16568389  0.50043381  0.83382501  1
  Cr  Cr33  1  0.16498197  0.83474019  0.50127584  1
  Fe  Fe34  1  0.99669586  0.66592584  0.66811591  1
  Ni  Ni35  1  0.16680397  0.82908667  0.83200595  1
  Cr  Cr36  1  0.50087557  0.16499682  0.49690135  1
  Fe  Fe37  1  0.33332506  0.99999756  0.66823102  1
  Cr  Cr38  1  0.49851857  0.16718386  0.83497512  1
  Ni  Ni39  1  0.50003207  0.49819233  0.49959562  1
  Fe  Fe40  1  0.33381645  0.33468856  0.66686196  1
  Fe  Fe41  1  0.49810807  0.50390114  0.83364897  1
  Fe  Fe42  1  0.49892111  0.83253557  0.49868795  1
  Fe  Fe43  1  0.33078843  0.66436446  0.66748346  1
  Ni  Ni44  1  0.49678188  0.83199996  0.83197178  1
  Fe  Fe45  1  0.83748891  0.16754220  0.49854330  1
  Cr  Cr46  1  0.66864835  0.99644584  0.66718495  1
  Cr  Cr47  1  0.83441304  0.16917592  0.83300955  1
  Fe  Fe48  1  0.83460717  0.49992672  0.49827714  1
  Cr  Cr49  1  0.67049377  0.33788446  0.66510150  1
  Ni  Ni50  1  0.83711625  0.50258800  0.83282634  1
  Ni  Ni51  1  0.83158566  0.83195977  0.49702885  1
  Cr  Cr52  1  0.66263646  0.66666750  0.66575544  1
  Ni  Ni53  1  0.83336384  0.82838111  0.83644059  1
" 