4114,Ni34Fe66_15,-243.106386068223, 220.918687433943,Ni34Fe66,"# generated using pymatgen
 data_FeNi2
_symmetry_space_group_name_H-M   'P 1'
_cell_length_a   7.41067477
_cell_length_b   7.41067477
_cell_length_c   10.48027676
_cell_angle_alpha   90.00000000
_cell_angle_beta   90.00000000
_cell_angle_gamma   90.00000000
_symmetry_Int_Tables_number   1
_chemical_formula_structural   FeNi2
_chemical_formula_sum   'Fe18 Ni36'
_cell_volume   575.55689235
_cell_formula_units_Z   18
loop_
 _symmetry_equiv_pos_site_id
 _symmetry_equiv_pos_as_xyz
  1  'x, y, z'
loop_
 _atom_site_type_symbol
 _atom_site_label
 _atom_site_symmetry_multiplicity
 _atom_site_fract_x
 _atom_site_fract_y
 _atom_site_fract_z
 _atom_site_occupancy
  Ni  Ni0  1  1.00301261  0.00518997  1.00336966  1
  Ni  Ni1  1  0.16964724  0.17017636  0.17109959  1
  Ni  Ni2  1  1.00285854  0.00476209  0.33731526  1
  Ni  Ni3  1  1.00335781  0.33613106  0.00448755  1
  Ni  Ni4  1  0.17001966  0.50461858  0.17135029  1
  Ni  Ni5  1  0.00403678  0.33638736  0.33671307  1
  Ni  Ni6  1  1.00369399  0.67009321  0.00414470  1
  Ni  Ni7  1  0.17117714  0.83661321  0.17009728  1
  Ni  Ni8  1  0.00441670  0.67025981  0.33637009  1
  Fe  Fe9  1  0.33655675  1.00308017  1.00353879  1
  Ni  Ni10  1  0.50436489  0.16983619  0.17121697  1
  Fe  Fe11  1  0.33528939  1.00379530  0.33710431  1
  Fe  Fe12  1  0.33602069  0.33778134  0.00453066  1
  Ni  Ni13  1  0.50401098  0.50496855  0.16975661  1
  Ni  Ni14  1  0.33756741  0.33794932  0.33696162  1
  Ni  Ni15  1  0.33870092  0.67013382  0.00416459  1
  Ni  Ni16  1  0.50319062  0.83660229  0.17120106  1
  Ni  Ni17  1  0.33790736  0.66941143  0.33662360  1
  Fe  Fe18  1  0.67103904  1.00300780  1.00301237  1
  Ni  Ni19  1  0.83739431  0.17099667  0.16997104  1
  Fe  Fe20  1  0.67092838  0.00433069  0.33725121  1
  Fe  Fe21  1  0.67165129  0.33792944  0.00409949  1
  Ni  Ni22  1  0.83738581  0.50344507  0.17119248  1
  Fe  Fe23  1  0.67089569  0.33763231  0.33675659  1
  Ni  Ni24  1  0.66901552  0.67047649  1.00380206  1
  Fe  Fe25  1  0.83767979  0.83698622  0.16981624  1
  Fe  Fe26  1  0.67043928  0.66944892  0.33618874  1
  Ni  Ni27  1  0.16910557  0.17000308  0.50380314  1
  Ni  Ni28  1  1.00288425  0.00497725  0.67072572  1
  Ni  Ni29  1  0.17006279  0.17095878  0.83650427  1
  Ni  Ni30  1  0.17114385  0.50454355  0.50335651  1
  Ni  Ni31  1  1.00324418  0.33672952  0.67020864  1
  Ni  Ni32  1  0.16958251  0.50387970  0.83670326  1
  Ni  Ni33  1  0.17064294  0.83686045  0.50471474  1
  Ni  Ni34  1  0.00443170  0.66970364  0.67089481  1
  Fe  Fe35  1  0.16982140  0.83740143  0.83683355  1
  Fe  Fe36  1  0.50272955  0.17077811  0.50410115  1
  Ni  Ni37  1  0.33851991  1.00344340  0.67021314  1
  Ni  Ni38  1  0.50404145  0.16892558  0.83637908  1
  Ni  Ni39  1  0.50330054  0.50489038  0.50435222  1
  Fe  Fe40  1  0.33585965  0.33657482  0.66990105  1
  Fe  Fe41  1  0.50413651  0.50398552  0.83728954  1
  Fe  Fe42  1  0.50247135  0.83710347  0.50440136  1
  Ni  Ni43  1  0.33769729  0.67053037  0.67062685  1
  Ni  Ni44  1  0.50451707  0.83740842  0.83638421  1
  Ni  Ni45  1  0.83778829  0.16998725  0.50450150  1
  Ni  Ni46  1  0.67000176  0.00462452  0.67100118  1
  Ni  Ni47  1  0.83730147  0.17012693  0.83693843  1
  Fe  Fe48  1  0.83890431  0.50334291  0.50380143  1
  Fe  Fe49  1  0.67108419  0.33638265  0.67055326  1
  Ni  Ni50  1  0.83814453  0.50435536  0.83616185  1
  Fe  Fe51  1  0.83870532  0.83739869  0.50453183  1
  Fe  Fe52  1  0.67089648  0.67149776  0.67141802  1
  Ni  Ni53  1  0.83611096  0.83693123  0.83695173  1
" 