3368,Ni34Fe26Cr38_18,-224.277943136955, 170.431370877499,Ni34Fe26Cr38,"# generated using pymatgen
 data_Cr11Fe7Ni9
_symmetry_space_group_name_H-M   'P 1'
_cell_length_a   7.49311058
_cell_length_b   7.49311058
_cell_length_c   10.59685861
_cell_angle_alpha   90.00000000
_cell_angle_beta   90.00000000
_cell_angle_gamma   90.00000000
_symmetry_Int_Tables_number   1
_chemical_formula_structural   Cr11Fe7Ni9
_chemical_formula_sum   'Cr22 Fe14 Ni18'
_cell_volume   594.97870679
_cell_formula_units_Z   2
loop_
 _symmetry_equiv_pos_site_id
 _symmetry_equiv_pos_as_xyz
  1  'x, y, z'
loop_
 _atom_site_type_symbol
 _atom_site_label
 _atom_site_symmetry_multiplicity
 _atom_site_fract_x
 _atom_site_fract_y
 _atom_site_fract_z
 _atom_site_occupancy
  Fe  Fe0  1  -0.00067451  0.00048974  -0.00043192  1
  Ni  Ni1  1  0.16526329  0.16312664  0.16559552  1
  Ni  Ni2  1  -0.00138251  -0.00080749  0.33175569  1
  Ni  Ni3  1  -0.00086728  0.32772288  -0.00030390  1
  Cr  Cr4  1  0.16526862  0.49622374  0.16332019  1
  Cr  Cr5  1  0.99786027  0.32757315  0.33300003  1
  Fe  Fe6  1  0.00006725  0.66653544  0.99745286  1
  Fe  Fe7  1  0.16758045  0.83417512  0.16555880  1
  Cr  Cr8  1  -0.00082564  0.66626828  0.33309776  1
  Fe  Fe9  1  0.33242122  -0.00109455  0.99808366  1
  Cr  Cr10  1  0.49621964  0.16278457  0.16572742  1
  Fe  Fe11  1  0.32896488  0.99730859  0.33099205  1
  Ni  Ni12  1  0.33060678  0.33095710  0.99714698  1
  Cr  Cr13  1  0.49556433  0.49721287  0.16615711  1
  Ni  Ni14  1  0.32898016  0.33051439  0.33186235  1
  Fe  Fe15  1  0.33166089  0.66646515  0.99810686  1
  Ni  Ni16  1  0.49722489  0.83559150  0.16512647  1
  Ni  Ni17  1  0.33093728  0.66788359  0.32916490  1
  Ni  Ni18  1  0.66441237  -0.00076173  0.99732650  1
  Fe  Fe19  1  0.83272556  0.16247889  0.16318397  1
  Ni  Ni20  1  0.66743663  0.99782191  0.33110475  1
  Fe  Fe21  1  0.66355492  0.32883102  0.99626475  1
  Cr  Cr22  1  0.83363785  0.49836128  0.16177948  1
  Cr  Cr23  1  0.66741096  0.33023620  0.32970667  1
  Cr  Cr24  1  0.66038485  0.66604336  -0.00126176  1
  Cr  Cr25  1  0.83172220  0.83403621  0.16559535  1
  Cr  Cr26  1  0.66347764  0.66625594  0.33275176  1
  Fe  Fe27  1  0.16545898  0.16251698  0.49653824  1
  Cr  Cr28  1  0.99808290  0.99793765  0.66304456  1
  Cr  Cr29  1  0.16703648  0.16539931  0.83141942  1
  Cr  Cr30  1  0.16637966  0.49778267  0.49889208  1
  Cr  Cr31  1  0.99715729  0.33017447  0.66138405  1
  Cr  Cr32  1  0.16446457  0.49753355  0.83234530  1
  Ni  Ni33  1  0.16208939  0.83327817  0.49646066  1
  Ni  Ni34  1  0.99803192  0.66654151  0.66345594  1
  Fe  Fe35  1  0.16557654  0.83095247  0.83274333  1
  Cr  Cr36  1  0.49626767  0.16471883  0.49782983  1
  Cr  Cr37  1  0.33215092  0.99822029  0.66644304  1
  Ni  Ni38  1  0.49896272  0.16477086  0.83216232  1
  Cr  Cr39  1  0.49816020  0.49546473  0.49835984  1
  Ni  Ni40  1  0.33449857  0.33131114  0.66599862  1
  Ni  Ni41  1  0.49790423  0.49438988  0.83154350  1
  Cr  Cr42  1  0.50052420  0.83506433  0.49699832  1
  Cr  Cr43  1  0.33217331  0.66600347  0.66758382  1
  Fe  Fe44  1  0.49879558  0.83314031  0.83324139  1
  Fe  Fe45  1  0.82878542  0.16209335  0.49817550  1
  Ni  Ni46  1  0.66534050  -0.00035199  0.66640840  1
  Fe  Fe47  1  0.82887216  0.16601370  0.83292758  1
  Ni  Ni48  1  0.83157819  0.50064192  0.50177395  1
  Ni  Ni49  1  0.66409412  0.32993711  0.66767397  1
  Cr  Cr50  1  0.83238768  0.49960449  0.83144486  1
  Ni  Ni51  1  0.83317570  0.83318378  0.49938713  1
  Fe  Fe52  1  0.66567243  0.66428924  0.66445892  1
  Cr  Cr53  1  0.83283271  0.83324099  0.82952819  1
" 