6861,Ni34Fe26Cr38_7,-224.226403597649, 181.292962869727,Ni34Fe26Cr38,"# generated using pymatgen
 data_Cr11Fe7Ni9
_symmetry_space_group_name_H-M   'P 1'
_cell_length_a   7.48302716
_cell_length_b   7.48302716
_cell_length_c   10.58259850
_cell_angle_alpha   90.00000000
_cell_angle_beta   90.00000000
_cell_angle_gamma   90.00000000
_symmetry_Int_Tables_number   1
_chemical_formula_structural   Cr11Fe7Ni9
_chemical_formula_sum   'Cr22 Fe14 Ni18'
_cell_volume   592.57996264
_cell_formula_units_Z   2
loop_
 _symmetry_equiv_pos_site_id
 _symmetry_equiv_pos_as_xyz
  1  'x, y, z'
loop_
 _atom_site_type_symbol
 _atom_site_label
 _atom_site_symmetry_multiplicity
 _atom_site_fract_x
 _atom_site_fract_y
 _atom_site_fract_z
 _atom_site_occupancy
  Fe  Fe0  1  0.00220274  0.00004058  -0.00099542  1
  Cr  Cr1  1  0.16759959  0.16716719  0.16661536  1
  Ni  Ni2  1  0.00041450  0.99659089  0.33342213  1
  Ni  Ni3  1  0.00098759  0.33501970  0.99838283  1
  Ni  Ni4  1  0.16434361  0.49963675  0.16538663  1
  Fe  Fe5  1  -0.00037397  0.33328132  0.33133791  1
  Ni  Ni6  1  -0.00017071  0.66265544  -0.00064304  1
  Fe  Fe7  1  0.16448990  0.83159969  0.16679855  1
  Ni  Ni8  1  0.99881637  0.66520921  0.33118637  1
  Ni  Ni9  1  0.33087678  0.00150249  -0.00098209  1
  Ni  Ni10  1  0.49625842  0.16445494  0.16455046  1
  Ni  Ni11  1  0.33205535  0.99872831  0.33340935  1
  Ni  Ni12  1  0.33041707  0.33057340  0.99874218  1
  Fe  Fe13  1  0.49721435  0.49647686  0.16711868  1
  Fe  Fe14  1  0.33171662  0.33198184  0.33064239  1
  Cr  Cr15  1  0.32966959  0.66413220  0.00089398  1
  Cr  Cr16  1  0.49789060  0.83525320  0.16740980  1
  Fe  Fe17  1  0.33244607  0.66574889  0.33150916  1
  Fe  Fe18  1  0.66373071  -0.00004649  0.00043829  1
  Cr  Cr19  1  0.83139870  0.16536029  0.16437117  1
  Ni  Ni20  1  0.66426047  0.99790381  0.33239812  1
  Cr  Cr21  1  0.66499092  0.33294278  0.00042833  1
  Ni  Ni22  1  0.83681224  0.50054706  0.16656665  1
  Cr  Cr23  1  0.66514460  0.33422320  0.33016897  1
  Cr  Cr24  1  0.66680796  0.66269460  0.99868673  1
  Cr  Cr25  1  0.83402124  0.83138769  0.16492328  1
  Fe  Fe26  1  0.66709976  0.66699532  0.33454695  1
  Fe  Fe27  1  0.16627781  0.16578826  0.49715855  1
  Cr  Cr28  1  0.00168843  -0.00014683  0.66424809  1
  Ni  Ni29  1  0.16839693  0.16800423  0.83250036  1
  Cr  Cr30  1  0.16585524  0.49706101  0.49677943  1
  Cr  Cr31  1  0.99832695  0.33209666  0.66543560  1
  Fe  Fe32  1  0.16454827  0.49532571  0.83511952  1
  Cr  Cr33  1  0.16581240  0.83323932  0.49617102  1
  Cr  Cr34  1  0.99619373  0.66477075  0.66690523  1
  Cr  Cr35  1  0.16575402  0.83281837  0.83578471  1
  Cr  Cr36  1  0.49624109  0.16609873  0.49961677  1
  Fe  Fe37  1  0.33172750  0.00111985  0.66540013  1
  Cr  Cr38  1  0.49616167  0.16678780  0.83316953  1
  Ni  Ni39  1  0.50042307  0.49988026  0.49959446  1
  Fe  Fe40  1  0.33377335  0.33236909  0.66669392  1
  Fe  Fe41  1  0.49960146  0.49703341  0.83013741  1
  Fe  Fe42  1  0.50168380  0.82974613  0.49705701  1
  Cr  Cr43  1  0.33485964  0.66518898  0.66646799  1
  Cr  Cr44  1  0.49935440  0.83260223  0.83092624  1
  Cr  Cr45  1  0.83288560  0.16585907  0.49682193  1
  Cr  Cr46  1  0.66538518  0.99770519  0.66368460  1
  Cr  Cr47  1  0.83304258  0.16781668  0.83541691  1
  Ni  Ni48  1  0.82984300  0.50236749  0.49854095  1
  Ni  Ni49  1  0.66383569  0.33753182  0.66609160  1
  Ni  Ni50  1  0.83287229  0.49916243  0.83152585  1
  Ni  Ni51  1  0.83035423  0.82949809  0.49683502  1
  Ni  Ni52  1  0.66447200  0.66110136  0.66258238  1
  Cr  Cr53  1  0.83185172  0.82945590  0.83436421  1
" 