8692,Ni34Fe46Cr18_6,-231.91399834748, 202.961096954028,Ni34Fe46Cr18,"# generated using pymatgen
 data_Cr11Fe25Ni18
_symmetry_space_group_name_H-M   'P 1'
_cell_length_a   7.44101096
_cell_length_b   7.44101096
_cell_length_c   10.52317862
_cell_angle_alpha   90.00000000
_cell_angle_beta   90.00000000
_cell_angle_gamma   90.00000000
_symmetry_Int_Tables_number   1
_chemical_formula_structural   Cr11Fe25Ni18
_chemical_formula_sum   'Cr11 Fe25 Ni18'
_cell_volume   582.65413185
_cell_formula_units_Z   1
loop_
 _symmetry_equiv_pos_site_id
 _symmetry_equiv_pos_as_xyz
  1  'x, y, z'
loop_
 _atom_site_type_symbol
 _atom_site_label
 _atom_site_symmetry_multiplicity
 _atom_site_fract_x
 _atom_site_fract_y
 _atom_site_fract_z
 _atom_site_occupancy
  Ni  Ni0  1  0.00307762  1.00168327  0.00285293  1
  Cr  Cr1  1  0.16678421  0.16839072  0.16948024  1
  Fe  Fe2  1  0.00207173  0.00268239  0.33551191  1
  Fe  Fe3  1  1.00031202  0.33392367  1.00103266  1
  Cr  Cr4  1  0.17053078  0.50109157  0.16610805  1
  Ni  Ni5  1  1.00070728  0.33430511  0.33572823  1
  Fe  Fe6  1  0.00260162  0.66774275  1.00039054  1
  Fe  Fe7  1  0.17082587  0.83609740  0.16730832  1
  Cr  Cr8  1  0.00244561  0.66879205  0.33715675  1
  Ni  Ni9  1  0.33386661  1.00012516  1.00052212  1
  Cr  Cr10  1  0.50259053  0.16906418  0.16901162  1
  Fe  Fe11  1  0.33426564  1.00129212  0.33576892  1
  Ni  Ni12  1  0.33726913  0.33587844  1.00019977  1
  Ni  Ni13  1  0.50199487  0.50370099  0.16897896  1
  Fe  Fe14  1  0.33549919  0.33604021  0.33772974  1
  Fe  Fe15  1  0.33629765  0.66869309  0.00176582  1
  Fe  Fe16  1  0.50029115  0.83394876  0.16894585  1
  Ni  Ni17  1  0.33621734  0.66830150  0.33450555  1
  Fe  Fe18  1  0.66762418  0.00365373  1.00137510  1
  Ni  Ni19  1  0.83540927  0.16796110  0.16767807  1
  Ni  Ni20  1  0.66841830  0.00254436  0.33497600  1
  Ni  Ni21  1  0.66874641  0.33663489  0.00188575  1
  Fe  Fe22  1  0.83264869  0.49840643  0.16725114  1
  Fe  Fe23  1  0.66842204  0.33632452  0.33430649  1
  Fe  Fe24  1  0.66635349  0.66617902  1.00131046  1
  Cr  Cr25  1  0.83404896  0.83702077  0.16799108  1
  Fe  Fe26  1  0.66703532  0.66718011  0.33515014  1
  Ni  Ni27  1  0.17083402  0.17113174  0.50074375  1
  Cr  Cr28  1  0.00239902  1.00023446  0.66634559  1
  Fe  Fe29  1  0.16944544  0.16980652  0.83604591  1
  Ni  Ni30  1  0.16928205  0.50016703  0.50404744  1
  Fe  Fe31  1  0.00383772  0.33755101  0.66823503  1
  Fe  Fe32  1  0.16843429  0.50174787  0.83434032  1
  Fe  Fe33  1  0.16818522  0.83509013  0.50172952  1
  Ni  Ni34  1  0.00384050  0.66730427  0.66709795  1
  Fe  Fe35  1  0.17003348  0.83368798  0.83620753  1
  Ni  Ni36  1  0.49898688  0.16847502  0.50179706  1
  Fe  Fe37  1  0.33611063  0.00300646  0.66907105  1
  Fe  Fe38  1  0.50150155  0.16880130  0.83553842  1
  Fe  Fe39  1  0.49943032  0.49977709  0.50034814  1
  Ni  Ni40  1  0.33443349  0.33510278  0.66742469  1
  Ni  Ni41  1  0.49956128  0.50130235  0.83640754  1
  Cr  Cr42  1  0.50361498  0.83614698  0.50199737  1
  Fe  Fe43  1  0.33309428  0.66723208  0.66859150  1
  Fe  Fe44  1  0.50031691  0.83528856  0.83555412  1
  Cr  Cr45  1  0.83508596  0.16644718  0.50065750  1
  Ni  Ni46  1  0.66663082  0.00250012  0.66994679  1
  Fe  Fe47  1  0.83430076  0.17040298  0.83711835  1
  Fe  Fe48  1  0.83682092  0.50222074  0.50162497  1
  Cr  Cr49  1  0.66647098  0.33413574  0.66825291  1
  Ni  Ni50  1  0.83664437  0.50118434  0.83680129  1
  Ni  Ni51  1  0.83496072  0.83458485  0.50183044  1
  Cr  Cr52  1  0.66972419  0.66809143  0.66674649  1
  Cr  Cr53  1  0.83413868  0.83539570  0.83505113  1
" 