4369,Ni34Fe46Cr18_10,-231.289057737167, 199.394914443572,Ni34Fe46Cr18,"# generated using pymatgen
 data_Cr11Fe25Ni18
_symmetry_space_group_name_H-M   'P 1'
_cell_length_a   7.43716051
_cell_length_b   7.43716051
_cell_length_c   10.51773326
_cell_angle_alpha   90.00000000
_cell_angle_beta   90.00000000
_cell_angle_gamma   90.00000000
_symmetry_Int_Tables_number   1
_chemical_formula_structural   Cr11Fe25Ni18
_chemical_formula_sum   'Cr11 Fe25 Ni18'
_cell_volume   581.75009384
_cell_formula_units_Z   1
loop_
 _symmetry_equiv_pos_site_id
 _symmetry_equiv_pos_as_xyz
  1  'x, y, z'
loop_
 _atom_site_type_symbol
 _atom_site_label
 _atom_site_symmetry_multiplicity
 _atom_site_fract_x
 _atom_site_fract_y
 _atom_site_fract_z
 _atom_site_occupancy
  Ni  Ni0  1  1.00161399  1.00106296  1.00154975  1
  Cr  Cr1  1  0.17173671  0.16848544  0.16708086  1
  Cr  Cr2  1  1.00196968  0.00320844  0.33373231  1
  Ni  Ni3  1  1.00015733  0.33650089  0.00261830  1
  Cr  Cr4  1  0.16628192  0.50360362  0.17092458  1
  Fe  Fe5  1  0.99893610  0.33645460  0.33687476  1
  Fe  Fe6  1  0.00336659  0.67037948  1.00084797  1
  Ni  Ni7  1  0.16773083  0.83499180  0.16719639  1
  Fe  Fe8  1  0.99548922  0.66892576  0.33574515  1
  Ni  Ni9  1  0.33510091  0.99730033  0.00398598  1
  Fe  Fe10  1  0.50499334  0.16730011  0.16764449  1
  Fe  Fe11  1  0.34003186  0.00272751  0.33417956  1
  Fe  Fe12  1  0.33377706  0.33734050  1.00158540  1
  Fe  Fe13  1  0.50291709  0.50299419  0.16795732  1
  Fe  Fe14  1  0.33860293  0.33292167  0.33710388  1
  Ni  Ni15  1  0.33636527  0.66847891  0.99951870  1
  Fe  Fe16  1  0.50151582  0.83442018  0.16740859  1
  Cr  Cr17  1  0.33458368  0.66822828  0.33608266  1
  Fe  Fe18  1  0.66947018  0.99901103  0.00382049  1
  Fe  Fe19  1  0.83479653  0.16784200  0.16633936  1
  Ni  Ni20  1  0.66951996  0.00208077  0.33388039  1
  Fe  Fe21  1  0.66837199  0.33726911  0.00403348  1
  Fe  Fe22  1  0.83333755  0.50260530  0.16906278  1
  Ni  Ni23  1  0.66901105  0.33493105  0.33422284  1
  Fe  Fe24  1  0.66948504  0.66977990  1.00198483  1
  Ni  Ni25  1  0.83364738  0.83303143  0.16849519  1
  Ni  Ni26  1  0.66620841  0.66856465  0.33439440  1
  Ni  Ni27  1  0.17128096  0.16890321  0.50213637  1
  Fe  Fe28  1  0.00309754  1.00194843  0.66812106  1
  Cr  Cr29  1  0.16788540  0.16745722  0.83671333  1
  Fe  Fe30  1  0.16436491  0.50033403  0.50211275  1
  Ni  Ni31  1  1.00148442  0.33724460  0.66623481  1
  Ni  Ni32  1  0.16478675  0.50452156  0.83490481  1
  Cr  Cr33  1  0.16993801  0.83534089  0.50338845  1
  Ni  Ni34  1  1.00189566  0.66792285  0.66984926  1
  Ni  Ni35  1  0.17068083  0.83322780  0.83538085  1
  Fe  Fe36  1  0.50402849  0.16951853  0.50083034  1
  Fe  Fe37  1  0.33544800  1.00117150  0.66930530  1
  Cr  Cr38  1  0.50321888  0.16727807  0.83852581  1
  Fe  Fe39  1  0.50309252  0.50048287  0.50044566  1
  Cr  Cr40  1  0.33558024  0.33866649  0.66963303  1
  Fe  Fe41  1  0.50196465  0.50313753  0.83815075  1
  Fe  Fe42  1  0.50425789  0.83607559  0.50113648  1
  Fe  Fe43  1  0.33446290  0.66898455  0.67106261  1
  Ni  Ni44  1  0.50137045  0.83441837  0.83647669  1
  Fe  Fe45  1  0.83630904  0.17135287  0.50160534  1
  Cr  Cr46  1  0.67096826  1.00146372  0.66698724  1
  Cr  Cr47  1  0.83504810  0.17251400  0.83492924  1
  Ni  Ni48  1  0.83247519  0.50168324  0.50013214  1
  Ni  Ni49  1  0.66982309  0.33669582  0.66816889  1
  Ni  Ni50  1  0.83509251  0.50271350  0.83700037  1
  Fe  Fe51  1  0.83528056  0.83335061  0.49953773  1
  Cr  Cr52  1  0.66791321  0.66734729  0.67015766  1
  Fe  Fe53  1  0.83773578  0.83430761  0.83730527  1
" 