3884,Ni34Cr66_4,-225.889856129031, 140.260773955073,Ni34Cr66,"# generated using pymatgen
 data_CrNi2
_symmetry_space_group_name_H-M   'P 1'
_cell_length_a   7.49409902
_cell_length_b   7.49409902
_cell_length_c   10.59825647
_cell_angle_alpha   90.00000000
_cell_angle_beta   90.00000000
_cell_angle_gamma   90.00000000
_symmetry_Int_Tables_number   1
_chemical_formula_structural   CrNi2
_chemical_formula_sum   'Cr18 Ni36'
_cell_volume   595.21419418
_cell_formula_units_Z   18
loop_
 _symmetry_equiv_pos_site_id
 _symmetry_equiv_pos_as_xyz
  1  'x, y, z'
loop_
 _atom_site_type_symbol
 _atom_site_label
 _atom_site_symmetry_multiplicity
 _atom_site_fract_x
 _atom_site_fract_y
 _atom_site_fract_z
 _atom_site_occupancy
  Cr  Cr0  1  0.00181297  0.99630754  -0.00080807  1
  Ni  Ni1  1  0.16651987  0.16499221  0.16500131  1
  Cr  Cr2  1  -0.00169979  -0.00053668  0.33295544  1
  Cr  Cr3  1  0.99797035  0.33362337  0.00083670  1
  Ni  Ni4  1  0.16501207  0.50064789  0.16533431  1
  Ni  Ni5  1  -0.00114414  0.33257003  0.33221932  1
  Ni  Ni6  1  -0.00053788  0.66518031  -0.00045164  1
  Ni  Ni7  1  0.16716724  0.82895965  0.16264120  1
  Cr  Cr8  1  0.99806956  0.66406957  0.33129666  1
  Ni  Ni9  1  0.33293055  0.99681787  0.99764850  1
  Ni  Ni10  1  0.49847211  0.16287466  0.16263696  1
  Cr  Cr11  1  0.32963045  0.99762952  0.32974651  1
  Cr  Cr12  1  0.33332387  0.33043464  -0.00075328  1
  Ni  Ni13  1  0.49793303  0.50043569  0.16507521  1
  Cr  Cr14  1  0.32831423  0.33354718  0.33056984  1
  Ni  Ni15  1  0.33133101  0.66709443  -0.00047422  1
  Ni  Ni16  1  0.49788209  0.83119636  0.16495695  1
  Ni  Ni17  1  0.33220112  0.66391923  0.33049652  1
  Ni  Ni18  1  0.66057417  -0.00164838  -0.00026933  1
  Cr  Cr19  1  0.82928444  0.16469197  0.16525178  1
  Ni  Ni20  1  0.66601727  0.99551113  0.33010283  1
  Ni  Ni21  1  0.66276632  0.33216438  0.99752222  1
  Ni  Ni22  1  0.83164483  0.49990728  0.16427037  1
  Cr  Cr23  1  0.66583102  0.33380693  0.33153203  1
  Cr  Cr24  1  0.66427969  0.66329543  0.99758049  1
  Ni  Ni25  1  0.82957646  0.82964512  0.16509315  1
  Ni  Ni26  1  0.66461894  0.66509436  0.33112880  1
  Ni  Ni27  1  0.16218790  0.16639672  0.50112824  1
  Ni  Ni28  1  0.00166881  0.99805582  0.66280540  1
  Ni  Ni29  1  0.16749430  0.16296093  0.82855833  1
  Ni  Ni30  1  0.16394877  0.49762252  0.49849941  1
  Ni  Ni31  1  -0.00174321  0.33145767  0.66260726  1
  Cr  Cr32  1  0.16315608  0.49978409  0.83127851  1
  Ni  Ni33  1  0.16341511  0.83075549  0.50060877  1
  Ni  Ni34  1  -0.00178132  0.66496197  0.66382230  1
  Ni  Ni35  1  0.16685978  0.83253206  0.83150793  1
  Cr  Cr36  1  0.49806154  0.16555304  0.49941529  1
  Ni  Ni37  1  0.32767179  0.00001874  0.66724945  1
  Ni  Ni38  1  0.49673995  0.16490387  0.83188265  1
  Ni  Ni39  1  0.49779020  0.49803783  0.49812990  1
  Ni  Ni40  1  0.33156198  0.33012145  0.66463108  1
  Ni  Ni41  1  0.49867904  0.49621771  0.83113680  1
  Cr  Cr42  1  0.49748955  0.83029743  0.49505482  1
  Cr  Cr43  1  0.33180856  0.66511328  0.66464236  1
  Ni  Ni44  1  0.49441074  0.83348603  0.83373969  1
  Ni  Ni45  1  0.83392780  0.16603280  0.49890810  1
  Cr  Cr46  1  0.66489018  0.99795047  0.66477074  1
  Cr  Cr47  1  0.83126098  0.16723815  0.83113828  1
  Ni  Ni48  1  0.83299708  0.49720380  0.49946146  1
  Ni  Ni49  1  0.66479278  0.33313685  0.66560091  1
  Ni  Ni50  1  0.83144768  0.49698401  0.83075276  1
  Ni  Ni51  1  0.83326055  0.83135290  0.49771082  1
  Cr  Cr52  1  0.66620534  0.66195593  0.66448283  1
  Cr  Cr53  1  0.83455443  0.83017497  0.83187358  1
" 