89,Ni34Fe46Cr18_14,-231.88343695793, 202.507704924645,Ni34Fe46Cr18,"# generated using pymatgen
 data_Cr11Fe25Ni18
_symmetry_space_group_name_H-M   'P 1'
_cell_length_a   7.44371586
_cell_length_b   7.44371586
_cell_length_c   10.52700392
_cell_angle_alpha   90.00000000
_cell_angle_beta   90.00000000
_cell_angle_gamma   90.00000000
_symmetry_Int_Tables_number   1
_chemical_formula_structural   Cr11Fe25Ni18
_chemical_formula_sum   'Cr11 Fe25 Ni18'
_cell_volume   583.28976834
_cell_formula_units_Z   1
loop_
 _symmetry_equiv_pos_site_id
 _symmetry_equiv_pos_as_xyz
  1  'x, y, z'
loop_
 _atom_site_type_symbol
 _atom_site_label
 _atom_site_symmetry_multiplicity
 _atom_site_fract_x
 _atom_site_fract_y
 _atom_site_fract_z
 _atom_site_occupancy
  Fe  Fe0  1  1.00107583  0.99962117  0.00402362  1
  Ni  Ni1  1  0.16830086  0.16693504  0.17097328  1
  Ni  Ni2  1  1.00027400  0.00240023  0.33465716  1
  Cr  Cr3  1  0.99947375  0.33361850  1.00139448  1
  Fe  Fe4  1  0.16340382  0.49957534  0.16964415  1
  Ni  Ni5  1  0.00208866  0.33359107  0.33501448  1
  Ni  Ni6  1  0.99894477  0.66871224  0.00205571  1
  Fe  Fe7  1  0.16373106  0.83759850  0.16781250  1
  Ni  Ni8  1  0.00264005  0.66880226  0.33470449  1
  Ni  Ni9  1  0.33599803  0.00215325  0.00354803  1
  Fe  Fe10  1  0.50283043  0.16648682  0.16744615  1
  Fe  Fe11  1  0.33458128  0.00252330  0.33431738  1
  Cr  Cr12  1  0.33468972  0.33407273  1.00139022  1
  Fe  Fe13  1  0.50461522  0.49954717  0.16734613  1
  Fe  Fe14  1  0.33233657  0.33264111  0.33561460  1
  Cr  Cr15  1  0.33318132  0.66870327  0.00322536  1
  Fe  Fe16  1  0.50449970  0.83872769  0.16778613  1
  Cr  Cr17  1  0.33363390  0.66882798  0.33220220  1
  Fe  Fe18  1  0.67011659  0.00227330  0.00213812  1
  Ni  Ni19  1  0.83560517  0.16793124  0.16812774  1
  Ni  Ni20  1  0.66888098  0.00235285  0.33457894  1
  Fe  Fe21  1  0.66844321  0.33558279  0.00218953  1
  Ni  Ni22  1  0.83556147  0.50292603  0.16878373  1
  Cr  Cr23  1  0.66986419  0.33192868  0.33481264  1
  Ni  Ni24  1  0.67021821  0.66867018  0.00164227  1
  Fe  Fe25  1  0.83663592  0.83600228  0.16762407  1
  Cr  Cr26  1  0.66903349  0.67078868  0.33685246  1
  Fe  Fe27  1  0.16818796  0.16847226  0.50103268  1
  Fe  Fe28  1  0.99898696  0.00266435  0.66606801  1
  Cr  Cr29  1  0.16955612  0.16863868  0.83219750  1
  Ni  Ni30  1  0.16541551  0.49896166  0.50039160  1
  Ni  Ni31  1  0.00172409  0.33501313  0.66728071  1
  Ni  Ni32  1  0.16473183  0.50074284  0.83401081  1
  Fe  Fe33  1  0.16707689  0.83538687  0.50098839  1
  Fe  Fe34  1  0.99878105  0.66571259  0.66755832  1
  Cr  Cr35  1  0.16484559  0.83542632  0.83472933  1
  Fe  Fe36  1  0.49967766  0.16657530  0.50293624  1
  Fe  Fe37  1  0.33725767  0.00523171  0.66646967  1
  Ni  Ni38  1  0.50319505  0.16804409  0.83538028  1
  Fe  Fe39  1  0.49947221  0.50106403  0.50238624  1
  Ni  Ni40  1  0.33364700  0.33585789  0.66753395  1
  Fe  Fe41  1  0.50251418  0.50056279  0.83533819  1
  Ni  Ni42  1  0.50341737  0.83860654  0.50236562  1
  Cr  Cr43  1  0.33431561  0.66772465  0.66894939  1
  Cr  Cr44  1  0.50480813  0.83763858  0.83486479  1
  Fe  Fe45  1  0.83713322  0.16612977  0.50069250  1
  Ni  Ni46  1  0.67028243  1.00105713  0.66765698  1
  Fe  Fe47  1  0.83418124  0.16477175  0.83490024  1
  Fe  Fe48  1  0.83828350  0.50222422  0.50102781  1
  Cr  Cr49  1  0.66977105  0.33288917  0.66980809  1
  Fe  Fe50  1  0.83528712  0.50389069  0.83580613  1
  Fe  Fe51  1  0.83663626  0.83614088  0.50238649  1
  Fe  Fe52  1  0.67092188  0.66858959  0.66726072  1
  Ni  Ni53  1  0.83386365  0.83361823  0.83470319  1
" 