7855,Ni34Fe66_0,-242.795201287285, 220.521999539656,Ni34Fe66,"# generated using pymatgen
 data_FeNi2
_symmetry_space_group_name_H-M   'P 1'
_cell_length_a   7.40943406
_cell_length_b   7.40943406
_cell_length_c   10.47852214
_cell_angle_alpha   90.00000000
_cell_angle_beta   90.00000000
_cell_angle_gamma   90.00000000
_symmetry_Int_Tables_number   1
_chemical_formula_structural   FeNi2
_chemical_formula_sum   'Fe18 Ni36'
_cell_volume   575.26786005
_cell_formula_units_Z   18
loop_
 _symmetry_equiv_pos_site_id
 _symmetry_equiv_pos_as_xyz
  1  'x, y, z'
loop_
 _atom_site_type_symbol
 _atom_site_label
 _atom_site_symmetry_multiplicity
 _atom_site_fract_x
 _atom_site_fract_y
 _atom_site_fract_z
 _atom_site_occupancy
  Fe  Fe0  1  0.00451449  0.00420356  1.00352738  1
  Ni  Ni1  1  0.17134616  0.16947214  0.16996004  1
  Ni  Ni2  1  0.00428552  1.00315364  0.33702614  1
  Fe  Fe3  1  0.00495136  0.33712074  1.00381948  1
  Ni  Ni4  1  0.17084652  0.50394202  0.17123055  1
  Fe  Fe5  1  1.00365895  0.33730562  0.33700166  1
  Ni  Ni6  1  0.00532177  0.66995579  0.00396447  1
  Ni  Ni7  1  0.17018190  0.83824568  0.17018272  1
  Ni  Ni8  1  0.00489909  0.67053419  0.33763935  1
  Ni  Ni9  1  0.33748335  0.00416570  1.00364974  1
  Ni  Ni10  1  0.50333374  0.17095468  0.17036537  1
  Ni  Ni11  1  0.33674228  1.00349454  0.33722177  1
  Ni  Ni12  1  0.33815588  0.33756798  1.00381478  1
  Ni  Ni13  1  0.50479323  0.50342841  0.17062012  1
  Fe  Fe14  1  0.33759881  0.33707888  0.33623333  1
  Ni  Ni15  1  0.33486906  0.66992856  0.00414320  1
  Fe  Fe16  1  0.50260345  0.83717442  0.17118610  1
  Ni  Ni17  1  0.33577355  0.67054714  0.33689429  1
  Ni  Ni18  1  0.67033796  0.00628905  0.00403551  1
  Fe  Fe19  1  0.83683070  0.17139753  0.17022951  1
  Ni  Ni20  1  0.67063415  0.00561955  0.33764259  1
  Ni  Ni21  1  0.67031549  0.33608992  0.00396385  1
  Ni  Ni22  1  0.83602287  0.50458696  0.16952045  1
  Ni  Ni23  1  0.67064666  0.33700904  0.33687754  1
  Fe  Fe24  1  0.66959237  0.67019203  0.00429135  1
  Fe  Fe25  1  0.83780090  0.83677946  0.17085841  1
  Ni  Ni26  1  0.67098812  0.66903675  0.33724185  1
  Ni  Ni27  1  0.17054679  0.16908529  0.50381842  1
  Ni  Ni28  1  1.00387820  1.00296365  0.67093819  1
  Ni  Ni29  1  0.17013055  0.17047818  0.83788347  1
  Fe  Fe30  1  0.17048711  0.50586674  0.50409492  1
  Fe  Fe31  1  0.00428321  0.33630705  0.67084500  1
  Ni  Ni32  1  0.17206523  0.50305196  0.83702921  1
  Ni  Ni33  1  0.17021959  0.83915718  0.50459957  1
  Ni  Ni34  1  0.00533481  0.67062806  0.67006142  1
  Fe  Fe35  1  0.17025633  0.83678576  0.83700220  1
  Fe  Fe36  1  0.50449560  0.16964155  0.50340877  1
  Ni  Ni37  1  0.33694814  1.00329974  0.67079305  1
  Fe  Fe38  1  0.50438821  0.17078252  0.83805826  1
  Ni  Ni39  1  0.50528661  0.50453041  0.50339216  1
  Fe  Fe40  1  0.33683648  0.33696181  0.67138801  1
  Ni  Ni41  1  0.50349882  0.50415640  0.83764828  1
  Ni  Ni42  1  0.50445194  0.83654046  0.50371780  1
  Ni  Ni43  1  0.33518978  0.67059832  0.67062944  1
  Fe  Fe44  1  0.50340961  0.83783657  0.83674353  1
  Fe  Fe45  1  0.83661481  0.16977782  0.50450363  1
  Ni  Ni46  1  0.67083668  0.00621645  0.66998561  1
  Ni  Ni47  1  0.83787623  0.16887434  0.83720935  1
  Ni  Ni48  1  0.83548965  0.50485998  0.50492063  1
  Ni  Ni49  1  0.67080548  0.33631138  0.67082398  1
  Fe  Fe50  1  0.83784158  0.50327129  0.83722124  1
  Ni  Ni51  1  0.83699105  0.83688108  0.50351269  1
  Fe  Fe52  1  0.67047924  0.67151777  0.66957252  1
  Ni  Ni53  1  0.83677385  0.83828819  0.83700105  1
" 