3207,Ni34Fe33Cr32_17,-226.748089616424, 185.400225029286,Ni34Fe33Cr32,"# generated using pymatgen
 data_CrFeNi
_symmetry_space_group_name_H-M   'P 1'
_cell_length_a   7.46686975
_cell_length_b   7.46686975
_cell_length_c   10.55974847
_cell_angle_alpha   90.00000000
_cell_angle_beta   90.00000000
_cell_angle_gamma   90.00000000
_symmetry_Int_Tables_number   1
_chemical_formula_structural   CrFeNi
_chemical_formula_sum   'Cr18 Fe18 Ni18'
_cell_volume   588.74973588
_cell_formula_units_Z   18
loop_
 _symmetry_equiv_pos_site_id
 _symmetry_equiv_pos_as_xyz
  1  'x, y, z'
loop_
 _atom_site_type_symbol
 _atom_site_label
 _atom_site_symmetry_multiplicity
 _atom_site_fract_x
 _atom_site_fract_y
 _atom_site_fract_z
 _atom_site_occupancy
  Cr  Cr0  1  0.99932490  0.99750324  0.99680566  1
  Fe  Fe1  1  0.17215340  0.16490352  0.16450442  1
  Cr  Cr2  1  0.00212225  0.99731652  0.33222172  1
  Cr  Cr3  1  0.00047157  0.33255977  0.99871593  1
  Cr  Cr4  1  0.16757286  0.50155588  0.16512538  1
  Cr  Cr5  1  0.00108711  0.33141785  0.33251891  1
  Ni  Ni6  1  0.99888935  0.66722577  0.99661017  1
  Cr  Cr7  1  0.16808439  0.83158104  0.16477428  1
  Ni  Ni8  1  0.99684856  0.67152305  0.33540942  1
  Ni  Ni9  1  0.33490172  0.99954496  0.99868047  1
  Fe  Fe10  1  0.49776423  0.16652882  0.16290050  1
  Ni  Ni11  1  0.33642610  0.00042042  0.33549165  1
  Ni  Ni12  1  0.33715955  0.33456345  0.99844530  1
  Ni  Ni13  1  0.49974304  0.49985560  0.16129585  1
  Cr  Cr14  1  0.33663026  0.33209076  0.33408016  1
  Ni  Ni15  1  0.33503014  0.66543122  0.99644115  1
  Cr  Cr16  1  0.50085326  0.83510665  0.16366935  1
  Cr  Cr17  1  0.33645694  0.66770560  0.33520170  1
  Ni  Ni18  1  0.66662225  0.99887609  0.99756708  1
  Cr  Cr19  1  0.82884057  0.16459720  0.16418330  1
  Fe  Fe20  1  0.66499132  0.99759003  0.33377434  1
  Fe  Fe21  1  0.66537405  0.33508867  0.99710352  1
  Cr  Cr22  1  0.83309976  0.50474150  0.16779179  1
  Cr  Cr23  1  0.66202254  0.33657125  0.33219687  1
  Fe  Fe24  1  0.66663933  0.66732268  0.99704879  1
  Ni  Ni25  1  0.83185361  0.83307735  0.16531792  1
  Fe  Fe26  1  0.66528185  0.67118818  0.33465983  1
  Fe  Fe27  1  0.16950917  0.16379084  0.50312283  1
  Cr  Cr28  1  0.99920286  0.99856437  0.67126301  1
  Fe  Fe29  1  0.16878807  0.16721692  0.83271973  1
  Cr  Cr30  1  0.16529513  0.49959503  0.50334186  1
  Ni  Ni31  1  0.99961437  0.33268168  0.66990922  1
  Fe  Fe32  1  0.16853747  0.50051419  0.83261178  1
  Fe  Fe33  1  0.16680114  0.83280219  0.50177443  1
  Fe  Fe34  1  0.00042400  0.66689276  0.66905530  1
  Fe  Fe35  1  0.16944465  0.83092131  0.83394775  1
  Fe  Fe36  1  0.49860373  0.16513666  0.50282681  1
  Ni  Ni37  1  0.33273353  0.99553887  0.66585967  1
  Cr  Cr38  1  0.49960427  0.16155582  0.83358077  1
  Ni  Ni39  1  0.49799827  0.50332543  0.50415804  1
  Fe  Fe40  1  0.33131283  0.33239258  0.66827696  1
  Fe  Fe41  1  0.50152674  0.50163122  0.83367795  1
  Ni  Ni42  1  0.49938349  0.83621728  0.50237054  1
  Ni  Ni43  1  0.33573177  0.66764005  0.66834688  1
  Ni  Ni44  1  0.49685951  0.83205062  0.83343314  1
  Cr  Cr45  1  0.83258368  0.16529795  0.50232531  1
  Fe  Fe46  1  0.66463946  0.99687523  0.66889574  1
  Ni  Ni47  1  0.83315508  0.16842618  0.83342892  1
  Cr  Cr48  1  0.83451706  0.50268365  0.49933356  1
  Cr  Cr49  1  0.66641143  0.33638890  0.66842200  1
  Ni  Ni50  1  0.83749846  0.50046750  0.83272927  1
  Ni  Ni51  1  0.82985568  0.83433126  0.50104705  1
  Fe  Fe52  1  0.66587744  0.67019207  0.66775971  1
  Fe  Fe53  1  0.82848891  0.83162548  0.83388944  1
" 