4757,Ni34Fe26Cr38_13,-223.571012154651, 174.363921028829,Ni34Fe26Cr38,"# generated using pymatgen
 data_Cr11Fe7Ni9
_symmetry_space_group_name_H-M   'P 1'
_cell_length_a   7.48172674
_cell_length_b   7.48172674
_cell_length_c   10.58075943
_cell_angle_alpha   90.00000000
_cell_angle_beta   90.00000000
_cell_angle_gamma   90.00000000
_symmetry_Int_Tables_number   1
_chemical_formula_structural   Cr11Fe7Ni9
_chemical_formula_sum   'Cr22 Fe14 Ni18'
_cell_volume   592.27107718
_cell_formula_units_Z   2
loop_
 _symmetry_equiv_pos_site_id
 _symmetry_equiv_pos_as_xyz
  1  'x, y, z'
loop_
 _atom_site_type_symbol
 _atom_site_label
 _atom_site_symmetry_multiplicity
 _atom_site_fract_x
 _atom_site_fract_y
 _atom_site_fract_z
 _atom_site_occupancy
  Cr  Cr0  1  0.00041864  0.99718349  -0.00052145  1
  Cr  Cr1  1  0.16858662  0.16769163  0.16298703  1
  Cr  Cr2  1  0.00345256  0.99861635  0.33608674  1
  Ni  Ni3  1  0.99737525  0.33478313  0.99836231  1
  Cr  Cr4  1  0.16509784  0.49630730  0.16493981  1
  Cr  Cr5  1  0.99898804  0.33173250  0.33329243  1
  Ni  Ni6  1  0.99687065  0.66395462  0.00040157  1
  Ni  Ni7  1  0.16916275  0.83170030  0.16591735  1
  Cr  Cr8  1  0.00203470  0.66695914  0.33106611  1
  Fe  Fe9  1  0.33513723  0.99855197  -0.00038068  1
  Cr  Cr10  1  0.49601902  0.16382852  0.16510662  1
  Ni  Ni11  1  0.33129350  0.99707834  0.33202524  1
  Ni  Ni12  1  0.33378372  0.33104283  0.99747374  1
  Cr  Cr13  1  0.49910361  0.50012047  0.16838481  1
  Fe  Fe14  1  0.33236692  0.33118998  0.33673267  1
  Cr  Cr15  1  0.33282395  0.66727319  -0.00091467  1
  Ni  Ni16  1  0.49847024  0.83143991  0.16547969  1
  Fe  Fe17  1  0.33283733  0.66913145  0.33366550  1
  Fe  Fe18  1  0.66368270  0.99810152  0.99716813  1
  Cr  Cr19  1  0.83278455  0.16772663  0.16469607  1
  Cr  Cr20  1  0.66321241  -0.00038242  0.33238785  1
  Cr  Cr21  1  0.66520365  0.33328021  0.99472584  1
  Fe  Fe22  1  0.83142735  0.50105693  0.16391051  1
  Cr  Cr23  1  0.66435147  0.33294409  0.33628743  1
  Ni  Ni24  1  0.66657873  0.66517329  -0.00051774  1
  Cr  Cr25  1  0.82839107  0.82916978  0.16559825  1
  Ni  Ni26  1  0.66144587  0.66450561  0.33062731  1
  Ni  Ni27  1  0.16900105  0.16791219  0.50065173  1
  Fe  Fe28  1  -0.00010226  0.00154174  0.66334131  1
  Cr  Cr29  1  0.16893799  0.16935031  0.83386004  1
  Fe  Fe30  1  0.16743244  0.49980228  0.50251590  1
  Ni  Ni31  1  0.99837249  0.33074770  0.66500028  1
  Cr  Cr32  1  0.16384951  0.49664958  0.83078840  1
  Ni  Ni33  1  0.16824050  0.83435702  0.50216256  1
  Ni  Ni34  1  0.00147801  0.66499384  0.66487681  1
  Cr  Cr35  1  0.16513480  0.83181714  0.82850709  1
  Fe  Fe36  1  0.49627425  0.16529338  0.50204654  1
  Fe  Fe37  1  0.33355398  0.00141182  0.66341334  1
  Ni  Ni38  1  0.49943232  0.16760889  0.83089509  1
  Fe  Fe39  1  0.49593767  0.49900008  0.50119353  1
  Ni  Ni40  1  0.33426329  0.33257698  0.66362388  1
  Fe  Fe41  1  0.49861783  0.49791083  0.82937810  1
  Cr  Cr42  1  0.50028572  0.83072595  0.49955344  1
  Ni  Ni43  1  0.33185168  0.66465777  0.66307200  1
  Cr  Cr44  1  0.50131742  0.83399738  0.83123175  1
  Fe  Fe45  1  0.83367593  0.16490076  0.50352331  1
  Ni  Ni46  1  0.66528165  0.00336916  0.66641183  1
  Fe  Fe47  1  0.83199363  0.16665708  0.82990729  1
  Cr  Cr48  1  0.83032413  0.50058924  0.50090161  1
  Ni  Ni49  1  0.66421602  0.32997846  0.66656804  1
  Fe  Fe50  1  0.83182906  0.49820709  0.82989067  1
  Cr  Cr51  1  0.83085217  0.83090172  0.50311450  1
  Ni  Ni52  1  0.66321669  0.66311971  0.66723859  1
  Cr  Cr53  1  0.83085771  0.82878721  0.82836997  1
" 