1719,Ni34Fe46Cr18_0,-231.63476893924, 198.662026107785,Ni34Fe46Cr18,"# generated using pymatgen
 data_Cr11Fe25Ni18
_symmetry_space_group_name_H-M   'P 1'
_cell_length_a   7.44098103
_cell_length_b   7.44098103
_cell_length_c   10.52313629
_cell_angle_alpha   90.00000000
_cell_angle_beta   90.00000000
_cell_angle_gamma   90.00000000
_symmetry_Int_Tables_number   1
_chemical_formula_structural   Cr11Fe25Ni18
_chemical_formula_sum   'Cr11 Fe25 Ni18'
_cell_volume   582.64710122
_cell_formula_units_Z   1
loop_
 _symmetry_equiv_pos_site_id
 _symmetry_equiv_pos_as_xyz
  1  'x, y, z'
loop_
 _atom_site_type_symbol
 _atom_site_label
 _atom_site_symmetry_multiplicity
 _atom_site_fract_x
 _atom_site_fract_y
 _atom_site_fract_z
 _atom_site_occupancy
  Ni  Ni0  1  0.00336758  0.00184688  0.00280066  1
  Ni  Ni1  1  0.16694183  0.16974050  0.16675856  1
  Ni  Ni2  1  1.00118049  1.00021782  0.33466764  1
  Fe  Fe3  1  0.00362494  0.33288873  0.00368765  1
  Fe  Fe4  1  0.16924345  0.50111759  0.16862456  1
  Cr  Cr5  1  0.00313869  0.33427619  0.33489496  1
  Cr  Cr6  1  1.00068493  0.67035949  0.00216898  1
  Fe  Fe7  1  0.16596746  0.83682030  0.16808024  1
  Fe  Fe8  1  1.00091750  0.67051194  0.33536470  1
  Ni  Ni9  1  0.33297547  0.00512704  1.00039640  1
  Fe  Fe10  1  0.50186657  0.16911208  0.16675408  1
  Cr  Cr11  1  0.33358165  0.00346250  0.33651349  1
  Ni  Ni12  1  0.33522458  0.33296964  0.00292642  1
  Fe  Fe13  1  0.50187121  0.50090079  0.16727084  1
  Fe  Fe14  1  0.33470601  0.33577794  0.33481001  1
  Fe  Fe15  1  0.33449218  0.66814345  0.00237799  1
  Cr  Cr16  1  0.50331456  0.83338990  0.16703781  1
  Fe  Fe17  1  0.33499144  0.66707699  0.33627062  1
  Fe  Fe18  1  0.66943443  0.00193220  0.00283916  1
  Ni  Ni19  1  0.83688984  0.16666498  0.16678796  1
  Ni  Ni20  1  0.67052195  1.00044443  0.33564370  1
  Fe  Fe21  1  0.66759406  0.33396796  0.00348337  1
  Fe  Fe22  1  0.83414140  0.50260333  0.16755796  1
  Cr  Cr23  1  0.66665976  0.33517683  0.33498401  1
  Ni  Ni24  1  0.66931072  0.66779270  0.00249274  1
  Ni  Ni25  1  0.83436363  0.83657137  0.16940086  1
  Ni  Ni26  1  0.66912700  0.66897438  0.33636149  1
  Ni  Ni27  1  0.16775316  0.17047667  0.50272483  1
  Cr  Cr28  1  0.00408654  0.99985657  0.66773437  1
  Fe  Fe29  1  0.17038105  0.16840333  0.83658449  1
  Ni  Ni30  1  0.16946061  0.50127596  0.50282270  1
  Fe  Fe31  1  0.00212027  0.33697915  0.66619027  1
  Fe  Fe32  1  0.16857931  0.50162480  0.83395542  1
  Fe  Fe33  1  0.16809841  0.83431106  0.50184165  1
  Ni  Ni34  1  0.00224943  0.66754034  0.66774528  1
  Fe  Fe35  1  0.16749362  0.83522558  0.83533242  1
  Fe  Fe36  1  0.50107851  0.16902040  0.50254388  1
  Fe  Fe37  1  0.33502859  0.00188920  0.66767338  1
  Fe  Fe38  1  0.50015572  0.16907526  0.83595337  1
  Fe  Fe39  1  0.50133585  0.50217994  0.50277306  1
  Fe  Fe40  1  0.33442487  0.33510169  0.66780918  1
  Cr  Cr41  1  0.50076928  0.50276745  0.83491757  1
  Ni  Ni42  1  0.50248944  0.83276275  0.50207224  1
  Fe  Fe43  1  0.33422130  0.66826461  0.66660798  1
  Cr  Cr44  1  0.50188877  0.83445013  0.83631483  1
  Ni  Ni45  1  0.83609309  0.16843022  0.50136913  1
  Cr  Cr46  1  0.66702152  0.00187227  0.66706493  1
  Cr  Cr47  1  0.83644214  0.16846899  0.83721082  1
  Fe  Fe48  1  0.83508481  0.50291193  0.50385206  1
  Ni  Ni49  1  0.66659671  0.33676368  0.66649323  1
  Cr  Cr50  1  0.83555504  0.50198569  0.83357822  1
  Fe  Fe51  1  0.83526630  0.83405478  0.50024274  1
  Ni  Ni52  1  0.66976881  0.66638246  0.66640206  1
  Ni  Ni53  1  0.83500749  0.83464112  0.83581701  1
" 