4290,Ni34Cr66_12,-226.162747096954, 142.530636863477,Ni34Cr66,"# generated using pymatgen
 data_CrNi2
_symmetry_space_group_name_H-M   'P 1'
_cell_length_a   7.49134404
_cell_length_b   7.49134404
_cell_length_c   10.59436034
_cell_angle_alpha   90.00000000
_cell_angle_beta   90.00000000
_cell_angle_gamma   90.00000000
_symmetry_Int_Tables_number   1
_chemical_formula_structural   CrNi2
_chemical_formula_sum   'Cr18 Ni36'
_cell_volume   594.55799713
_cell_formula_units_Z   18
loop_
 _symmetry_equiv_pos_site_id
 _symmetry_equiv_pos_as_xyz
  1  'x, y, z'
loop_
 _atom_site_type_symbol
 _atom_site_label
 _atom_site_symmetry_multiplicity
 _atom_site_fract_x
 _atom_site_fract_y
 _atom_site_fract_z
 _atom_site_occupancy
  Ni  Ni0  1  0.99602767  0.99626926  -0.00078977  1
  Cr  Cr1  1  0.16192434  0.16564589  0.16356166  1
  Ni  Ni2  1  0.99530246  0.99714092  0.33153839  1
  Cr  Cr3  1  0.99800494  0.33633143  0.99738124  1
  Ni  Ni4  1  0.16157274  0.50068578  0.16562083  1
  Ni  Ni5  1  0.99500963  0.33263581  0.33149667  1
  Ni  Ni6  1  0.99735940  0.66692981  -0.00122891  1
  Ni  Ni7  1  0.16014971  0.82945984  0.16767274  1
  Ni  Ni8  1  0.99773805  0.66531849  0.32999033  1
  Cr  Cr9  1  0.33265684  -0.00059280  0.99606284  1
  Ni  Ni10  1  0.50113795  0.16340878  0.16316432  1
  Cr  Cr11  1  0.33085276  0.99633812  0.33428729  1
  Ni  Ni12  1  0.33035345  0.33056208  0.99675442  1
  Cr  Cr13  1  0.49708093  0.49819094  0.16643316  1
  Cr  Cr14  1  0.33179682  0.33080154  0.33202670  1
  Cr  Cr15  1  0.32651914  0.66481972  0.99786692  1
  Cr  Cr16  1  0.50200291  0.83132812  0.16616290  1
  Ni  Ni17  1  0.32913262  0.66491265  0.33256465  1
  Ni  Ni18  1  0.66767582  0.99833518  0.99787024  1
  Ni  Ni19  1  0.83127867  0.16228685  0.16671854  1
  Ni  Ni20  1  0.66778287  -0.00087989  0.33057351  1
  Cr  Cr21  1  0.66587042  0.33002670  -0.00079659  1
  Ni  Ni22  1  0.83530622  0.50059871  0.16763187  1
  Cr  Cr23  1  0.66760212  0.33064428  0.33441457  1
  Cr  Cr24  1  0.67138522  0.66647960  0.99518962  1
  Ni  Ni25  1  0.83479924  0.83276964  0.16499321  1
  Ni  Ni26  1  0.66821642  0.66476289  0.33268737  1
  Cr  Cr27  1  0.15993031  0.16352513  0.50227387  1
  Ni  Ni28  1  0.99817904  0.99792674  0.66470130  1
  Ni  Ni29  1  0.16634810  0.16731696  0.82952830  1
  Cr  Cr30  1  0.16364089  0.49983828  0.49912391  1
  Ni  Ni31  1  0.99681162  0.33291433  0.66546095  1
  Ni  Ni32  1  0.16343557  0.49697805  0.82997819  1
  Ni  Ni33  1  0.16383525  0.83029488  0.49919116  1
  Ni  Ni34  1  0.99743549  0.66415977  0.66649214  1
  Cr  Cr35  1  0.16158777  0.83304328  0.82858126  1
  Ni  Ni36  1  0.50092113  0.16520807  0.50239635  1
  Ni  Ni37  1  0.33236526  -0.00104854  0.66555098  1
  Ni  Ni38  1  0.49787522  0.16389299  0.83015022  1
  Ni  Ni39  1  0.49971051  0.49826816  0.50042885  1
  Ni  Ni40  1  0.33251032  0.33062132  0.66682241  1
  Cr  Cr41  1  0.49818347  0.49837807  0.82887666  1
  Cr  Cr42  1  0.49965483  0.82896463  0.49976929  1
  Ni  Ni43  1  0.33119684  0.66551606  0.66438419  1
  Ni  Ni44  1  0.50140635  0.83431511  0.82806235  1
  Ni  Ni45  1  0.83042502  0.16563429  0.49905604  1
  Ni  Ni46  1  0.66468566  -0.00059944  0.66633603  1
  Cr  Cr47  1  0.83362069  0.16276069  0.82931123  1
  Ni  Ni48  1  0.83103108  0.49791080  0.49995133  1
  Ni  Ni49  1  0.66589360  0.33207181  0.66261433  1
  Ni  Ni50  1  0.83521453  0.50113212  0.82741766  1
  Cr  Cr51  1  0.83391772  0.83260455  0.49916592  1
  Ni  Ni52  1  0.66703608  0.66420197  0.66602647  1
  Ni  Ni53  1  0.83104006  0.83139132  0.83093167  1
" 