2884,Ni34Cr66_10,-226.111340957882, 142.12346268395,Ni34Cr66,"# generated using pymatgen
 data_CrNi2
_symmetry_space_group_name_H-M   'P 1'
_cell_length_a   7.49346731
_cell_length_b   7.49346731
_cell_length_c   10.59736310
_cell_angle_alpha   90.00000000
_cell_angle_beta   90.00000000
_cell_angle_gamma   90.00000000
_symmetry_Int_Tables_number   1
_chemical_formula_structural   CrNi2
_chemical_formula_sum   'Cr18 Ni36'
_cell_volume   595.06368690
_cell_formula_units_Z   18
loop_
 _symmetry_equiv_pos_site_id
 _symmetry_equiv_pos_as_xyz
  1  'x, y, z'
loop_
 _atom_site_type_symbol
 _atom_site_label
 _atom_site_symmetry_multiplicity
 _atom_site_fract_x
 _atom_site_fract_y
 _atom_site_fract_z
 _atom_site_occupancy
  Ni  Ni0  1  0.99693915  -0.00154868  0.99728549  1
  Cr  Cr1  1  0.16515302  0.16360692  0.16346645  1
  Ni  Ni2  1  -0.00069678  0.99562508  0.33171216  1
  Ni  Ni3  1  0.99675311  0.33139407  0.99713900  1
  Ni  Ni4  1  0.16475096  0.50216085  0.16494162  1
  Cr  Cr5  1  -0.00103963  0.33266107  0.33116164  1
  Ni  Ni6  1  -0.00175949  0.66486070  0.00047216  1
  Ni  Ni7  1  0.16487092  0.82921327  0.16534538  1
  Ni  Ni8  1  0.00172509  0.66670306  0.32991101  1
  Ni  Ni9  1  0.33191987  0.99568038  -0.00118749  1
  Ni  Ni10  1  0.50063848  0.16311664  0.16748733  1
  Ni  Ni11  1  0.33157893  -0.00135790  0.33186994  1
  Cr  Cr12  1  0.33086805  0.33177383  -0.00158963  1
  Ni  Ni13  1  0.49655423  0.49824610  0.16695567  1
  Ni  Ni14  1  0.33448368  0.33215717  0.33350518  1
  Ni  Ni15  1  0.33142058  0.66680340  -0.00043769  1
  Ni  Ni16  1  0.49661131  0.83336629  0.16411044  1
  Ni  Ni17  1  0.32893985  0.66391692  0.33121035  1
  Ni  Ni18  1  0.66584979  0.99726067  -0.00119033  1
  Ni  Ni19  1  0.82924905  0.16327114  0.16468981  1
  Ni  Ni20  1  0.66385774  0.00121289  0.32899478  1
  Cr  Cr21  1  0.66724971  0.33142239  -0.00040683  1
  Ni  Ni22  1  0.83339836  0.49817474  0.16468882  1
  Ni  Ni23  1  0.66105084  0.32979695  0.33009794  1
  Cr  Cr24  1  0.66489137  0.66649347  0.99749506  1
  Ni  Ni25  1  0.83323500  0.83327741  0.16506718  1
  Cr  Cr26  1  0.66493186  0.66411272  0.32891013  1
  Ni  Ni27  1  0.16681590  0.16344475  0.49769436  1
  Ni  Ni28  1  0.99718681  -0.00106851  0.66564294  1
  Ni  Ni29  1  0.16076510  0.16341016  0.83260561  1
  Ni  Ni30  1  0.16896820  0.49984171  0.49656299  1
  Cr  Cr31  1  -0.00035654  0.32867507  0.66653134  1
  Cr  Cr32  1  0.16520440  0.49812337  0.83402086  1
  Ni  Ni33  1  0.16514652  0.83141414  0.49634240  1
  Cr  Cr34  1  0.99768878  0.66667135  0.66372482  1
  Cr  Cr35  1  0.16565250  0.83275576  0.83352269  1
  Ni  Ni36  1  0.49689732  0.16621017  0.49511724  1
  Cr  Cr37  1  0.32987448  0.99803745  0.66406104  1
  Cr  Cr38  1  0.49885636  0.16220852  0.83268816  1
  Ni  Ni39  1  0.49469112  0.49695229  0.49822120  1
  Cr  Cr40  1  0.33106961  0.33235649  0.66271481  1
  Ni  Ni41  1  0.49935533  0.50275548  0.82954289  1
  Cr  Cr42  1  0.49734448  0.83154934  0.49943376  1
  Ni  Ni43  1  0.33487821  0.66409305  0.66404671  1
  Ni  Ni44  1  0.50046824  0.82970209  0.83126813  1
  Cr  Cr45  1  0.83007663  0.16226316  0.49736010  1
  Ni  Ni46  1  0.66672269  0.99599165  0.66691221  1
  Ni  Ni47  1  0.83408279  0.16236152  0.83215888  1
  Cr  Cr48  1  0.83055214  0.49914657  0.49759159  1
  Cr  Cr49  1  0.66400298  0.33307047  0.66552996  1
  Ni  Ni50  1  0.83066037  0.49876917  0.83221004  1
  Cr  Cr51  1  0.83298778  0.83332155  0.49868349  1
  Ni  Ni52  1  0.66232052  0.66576884  0.66821296  1
  Ni  Ni53  1  0.82946839  0.83357899  0.83069943  1
" 