1930,Ni34Fe26Cr38_15,-224.170121901492, 171.672504180584,Ni34Fe26Cr38,"# generated using pymatgen
 data_Cr11Fe7Ni9
_symmetry_space_group_name_H-M   'P 1'
_cell_length_a   7.48975212
_cell_length_b   7.48975212
_cell_length_c   10.59210902
_cell_angle_alpha   90.00000000
_cell_angle_beta   90.00000000
_cell_angle_gamma   90.00000000
_symmetry_Int_Tables_number   1
_chemical_formula_structural   Cr11Fe7Ni9
_chemical_formula_sum   'Cr22 Fe14 Ni18'
_cell_volume   594.17904473
_cell_formula_units_Z   2
loop_
 _symmetry_equiv_pos_site_id
 _symmetry_equiv_pos_as_xyz
  1  'x, y, z'
loop_
 _atom_site_type_symbol
 _atom_site_label
 _atom_site_symmetry_multiplicity
 _atom_site_fract_x
 _atom_site_fract_y
 _atom_site_fract_z
 _atom_site_occupancy
  Cr  Cr0  1  0.99576594  0.99460698  0.00049508  1
  Ni  Ni1  1  0.16650890  0.16249566  0.16587367  1
  Cr  Cr2  1  -0.00151328  0.99769005  0.33306717  1
  Cr  Cr3  1  0.00062134  0.33661955  -0.00024767  1
  Fe  Fe4  1  0.16662250  0.50110323  0.16459675  1
  Cr  Cr5  1  0.00177931  0.33260751  0.33084753  1
  Ni  Ni6  1  0.99595883  0.66392111  0.99815104  1
  Ni  Ni7  1  0.16685772  0.82868857  0.16551237  1
  Cr  Cr8  1  0.99726772  0.66566424  0.32868706  1
  Cr  Cr9  1  0.33423857  0.00008660  0.00052796  1
  Ni  Ni10  1  0.49947458  0.16626888  0.16419891  1
  Cr  Cr11  1  0.33137129  0.99825770  0.33172463  1
  Cr  Cr12  1  0.33348615  0.33305416  -0.00074834  1
  Ni  Ni13  1  0.50194379  0.50003256  0.16805598  1
  Cr  Cr14  1  0.33069440  0.33393122  0.32938664  1
  Cr  Cr15  1  0.33162789  0.66173575  -0.00066696  1
  Ni  Ni16  1  0.49627507  0.82934479  0.16739379  1
  Ni  Ni17  1  0.33397122  0.66449935  0.33311298  1
  Fe  Fe18  1  0.66451459  0.99833090  -0.00088871  1
  Cr  Cr19  1  0.82956692  0.16961946  0.16636299  1
  Cr  Cr20  1  0.66557913  0.99379847  0.33007323  1
  Fe  Fe21  1  0.66467484  0.33477810  -0.00041076  1
  Ni  Ni22  1  0.82931027  0.50093773  0.16586235  1
  Ni  Ni23  1  0.66282117  0.33535726  0.33043475  1
  Cr  Cr24  1  0.66733019  0.66640932  0.99847084  1
  Fe  Fe25  1  0.83003014  0.82959734  0.16472783  1
  Ni  Ni26  1  0.66324299  0.66475654  0.33208821  1
  Ni  Ni27  1  0.16589946  0.16378237  0.50151616  1
  Fe  Fe28  1  0.99795104  0.99624706  0.66315503  1
  Cr  Cr29  1  0.16563207  0.16354496  0.83061439  1
  Fe  Fe30  1  0.16495977  0.49974087  0.50007822  1
  Ni  Ni31  1  0.00072458  0.33356581  0.66515714  1
  Ni  Ni32  1  0.16203343  0.50096046  0.83062138  1
  Fe  Fe33  1  0.16519855  0.83024059  0.49933387  1
  Fe  Fe34  1  0.99558213  0.66360614  0.66563417  1
  Cr  Cr35  1  0.16438560  0.82869225  0.82980411  1
  Cr  Cr36  1  0.49923119  0.16703537  0.49721526  1
  Fe  Fe37  1  0.33201504  0.99792091  0.66322143  1
  Ni  Ni38  1  0.50083057  0.16720396  0.83284310  1
  Fe  Fe39  1  0.49831079  0.50142929  0.49731645  1
  Cr  Cr40  1  0.33154688  0.33329486  0.66698276  1
  Fe  Fe41  1  0.50104936  0.49844535  0.83089829  1
  Fe  Fe42  1  0.49907003  0.82809804  0.49842134  1
  Fe  Fe43  1  0.33246448  0.66373277  0.66291690  1
  Cr  Cr44  1  0.49642696  0.83224277  0.83115440  1
  Cr  Cr45  1  0.83251271  0.16786813  0.49876016  1
  Cr  Cr46  1  0.66628601  0.99425617  0.66591444  1
  Cr  Cr47  1  0.83018843  0.16792199  0.83099554  1
  Cr  Cr48  1  0.82912504  0.49861101  0.49772307  1
  Fe  Fe49  1  0.66499462  0.33517838  0.66611703  1
  Ni  Ni50  1  0.83219301  0.50007054  0.82950570  1
  Ni  Ni51  1  0.83227942  0.82757009  0.49926035  1
  Ni  Ni52  1  0.66517115  0.66517223  0.66481026  1
  Ni  Ni53  1  0.83206742  0.82752653  0.83149168  1
" 