2801,Ni34Fe33Cr32_16,-226.913510146071, 181.444021262216,Ni34Fe33Cr32,"# generated using pymatgen
 data_CrFeNi
_symmetry_space_group_name_H-M   'P 1'
_cell_length_a   7.47393231
_cell_length_b   7.47393231
_cell_length_c   10.56973644
_cell_angle_alpha   90.00000000
_cell_angle_beta   90.00000000
_cell_angle_gamma   90.00000000
_symmetry_Int_Tables_number   1
_chemical_formula_structural   CrFeNi
_chemical_formula_sum   'Cr18 Fe18 Ni18'
_cell_volume   590.42192826
_cell_formula_units_Z   18
loop_
 _symmetry_equiv_pos_site_id
 _symmetry_equiv_pos_as_xyz
  1  'x, y, z'
loop_
 _atom_site_type_symbol
 _atom_site_label
 _atom_site_symmetry_multiplicity
 _atom_site_fract_x
 _atom_site_fract_y
 _atom_site_fract_z
 _atom_site_occupancy
  Fe  Fe0  1  0.99852443  0.00288939  0.99914573  1
  Cr  Cr1  1  0.16758142  0.16524161  0.16703886  1
  Ni  Ni2  1  0.00134071  0.00123834  0.33146400  1
  Ni  Ni3  1  0.99730853  0.33538413  0.99844606  1
  Cr  Cr4  1  0.16528132  0.49789484  0.16284512  1
  Fe  Fe5  1  0.99771643  0.33206824  0.33195594  1
  Fe  Fe6  1  0.99756978  0.66531951  0.99934112  1
  Ni  Ni7  1  0.16694669  0.83327899  0.16543345  1
  Cr  Cr8  1  0.00058718  0.66411950  0.33398734  1
  Ni  Ni9  1  0.33234088  0.99666977  0.00142905  1
  Cr  Cr10  1  0.49978781  0.16786706  0.16798192  1
  Ni  Ni11  1  0.33232914  0.00021255  0.33393210  1
  Fe  Fe12  1  0.33332786  0.33030257  0.99789497  1
  Fe  Fe13  1  0.50000837  0.49985366  0.16280846  1
  Fe  Fe14  1  0.33260686  0.33240400  0.33593900  1
  Fe  Fe15  1  0.33364180  0.66566046  0.00063960  1
  Fe  Fe16  1  0.49832098  0.83403756  0.16461706  1
  Cr  Cr17  1  0.33324167  0.66677239  0.33172967  1
  Ni  Ni18  1  0.66489945  0.00121717  0.00080047  1
  Fe  Fe19  1  0.83443795  0.16802441  0.16621200  1
  Ni  Ni20  1  0.66462891  0.00189043  0.33107860  1
  Ni  Ni21  1  0.67052901  0.33389802  0.00101445  1
  Ni  Ni22  1  0.83173315  0.49808687  0.16551364  1
  Fe  Fe23  1  0.66619753  0.33292802  0.33289462  1
  Fe  Fe24  1  0.66808398  0.66446231  0.00001395  1
  Cr  Cr25  1  0.83444556  0.83380922  0.16565711  1
  Cr  Cr26  1  0.66581860  0.66386941  0.33133238  1
  Fe  Fe27  1  0.16476643  0.16697918  0.49741835  1
  Ni  Ni28  1  0.00224225  0.00006896  0.66747449  1
  Fe  Fe29  1  0.16468789  0.16786145  0.83590305  1
  Fe  Fe30  1  0.16703288  0.49769663  0.50064913  1
  Cr  Cr31  1  0.99854531  0.33134314  0.66882426  1
  Fe  Fe32  1  0.16619336  0.49898887  0.83398243  1
  Fe  Fe33  1  0.16550209  0.83449670  0.49966667  1
  Ni  Ni34  1  0.00195144  0.66263603  0.66546923  1
  Cr  Cr35  1  0.16479622  0.83182087  0.83298779  1
  Ni  Ni36  1  0.49562589  0.17118483  0.49838673  1
  Cr  Cr37  1  0.33037872  0.00208166  0.66478618  1
  Cr  Cr38  1  0.49770657  0.16909736  0.83244551  1
  Fe  Fe39  1  0.50126917  0.49803735  0.50198929  1
  Ni  Ni40  1  0.33136765  0.33546114  0.66509606  1
  Cr  Cr41  1  0.50025888  0.49749388  0.83163685  1
  Cr  Cr42  1  0.50100554  0.83489310  0.50218014  1
  Ni  Ni43  1  0.33081261  0.66360714  0.66470994  1
  Cr  Cr44  1  0.49985369  0.83174530  0.83348242  1
  Cr  Cr45  1  0.83061396  0.16552092  0.49592907  1
  Cr  Cr46  1  0.66706455  0.00414750  0.66784319  1
  Fe  Fe47  1  0.83223792  0.16759292  0.83556876  1
  Ni  Ni48  1  0.83441515  0.49761737  0.50069267  1
  Ni  Ni49  1  0.66616654  0.33623147  0.66485939  1
  Ni  Ni50  1  0.83451612  0.49812749  0.83296007  1
  Cr  Cr51  1  0.83588935  0.83051386  0.50392871  1
  Ni  Ni52  1  0.66715890  0.66049862  0.66619306  1
  Cr  Cr53  1  0.83383353  0.82998445  0.82891852  1
" 