3177,Ni34Fe26Cr38_9,-224.291372554237, 184.6514036223,Ni34Fe26Cr38,"# generated using pymatgen
 data_Cr11Fe7Ni9
_symmetry_space_group_name_H-M   'P 1'
_cell_length_a   7.48256363
_cell_length_b   7.48256363
_cell_length_c   10.58194296
_cell_angle_alpha   90.00000000
_cell_angle_beta   90.00000000
_cell_angle_gamma   90.00000000
_symmetry_Int_Tables_number   1
_chemical_formula_structural   Cr11Fe7Ni9
_chemical_formula_sum   'Cr22 Fe14 Ni18'
_cell_volume   592.46984792
_cell_formula_units_Z   2
loop_
 _symmetry_equiv_pos_site_id
 _symmetry_equiv_pos_as_xyz
  1  'x, y, z'
loop_
 _atom_site_type_symbol
 _atom_site_label
 _atom_site_symmetry_multiplicity
 _atom_site_fract_x
 _atom_site_fract_y
 _atom_site_fract_z
 _atom_site_occupancy
  Ni  Ni0  1  0.00071296  -0.00101545  -0.00040563  1
  Fe  Fe1  1  0.16223134  0.16795532  0.16551616  1
  Cr  Cr2  1  0.00167446  0.99598650  0.33290755  1
  Fe  Fe3  1  0.99462768  0.33143700  0.00228264  1
  Ni  Ni4  1  0.16223296  0.49644676  0.16475650  1
  Ni  Ni5  1  0.99790098  0.33252461  0.33019270  1
  Ni  Ni6  1  -0.00061687  0.66539447  0.00388055  1
  Fe  Fe7  1  0.16253146  0.82974778  0.16360751  1
  Ni  Ni8  1  0.99728180  0.66328103  0.32952362  1
  Cr  Cr9  1  0.33191187  0.00164732  -0.00003576  1
  Fe  Fe10  1  0.50373058  0.16702052  0.16408024  1
  Cr  Cr11  1  0.33196683  0.00269311  0.33038369  1
  Fe  Fe12  1  0.33147747  0.33249440  0.00061862  1
  Cr  Cr13  1  0.49495026  0.49943803  0.16655616  1
  Fe  Fe14  1  0.32801227  0.33389392  0.33113682  1
  Fe  Fe15  1  0.33100021  0.66650917  0.00332651  1
  Ni  Ni16  1  0.50181329  0.83560466  0.16419248  1
  Cr  Cr17  1  0.32979440  0.66935789  0.33193698  1
  Fe  Fe18  1  0.66981431  0.00088444  0.00071174  1
  Ni  Ni19  1  0.83380524  0.16361247  0.16392799  1
  Fe  Fe20  1  0.66934535  0.99749349  0.32878536  1
  Ni  Ni21  1  0.66652720  0.33031370  0.99734108  1
  Ni  Ni22  1  0.83658084  0.49675144  0.16466641  1
  Cr  Cr23  1  0.66823186  0.33486898  0.33224233  1
  Cr  Cr24  1  0.67088225  0.65993989  0.00084500  1
  Ni  Ni25  1  0.83302357  0.83463188  0.16516680  1
  Cr  Cr26  1  0.67190372  0.66383517  0.33269634  1
  Ni  Ni27  1  0.16220215  0.16676228  0.49797691  1
  Fe  Fe28  1  0.99518915  0.00063562  0.66490691  1
  Cr  Cr29  1  0.15861695  0.16832003  0.83216697  1
  Cr  Cr30  1  0.16481292  0.49606588  0.49605902  1
  Fe  Fe31  1  0.99550630  0.33226761  0.66474057  1
  Cr  Cr32  1  0.16352252  0.49911614  0.83716127  1
  Fe  Fe33  1  0.16291923  0.83167749  0.49927357  1
  Cr  Cr34  1  0.99616723  0.66516914  0.66365671  1
  Cr  Cr35  1  0.16466026  0.82907374  0.83244024  1
  Cr  Cr36  1  0.49993335  0.16799147  0.49423422  1
  Cr  Cr37  1  0.32656527  -0.00074992  0.66479298  1
  Ni  Ni38  1  0.50153071  0.16811989  0.83621072  1
  Ni  Ni39  1  0.49972339  0.49972832  0.50078002  1
  Cr  Cr40  1  0.33474866  0.32798624  0.66429690  1
  Cr  Cr41  1  0.49658563  0.49978737  0.83105541  1
  Cr  Cr42  1  0.50383708  0.83026443  0.49994885  1
  Fe  Fe43  1  0.33381331  0.66329357  0.66344022  1
  Cr  Cr44  1  0.50023188  0.82990597  0.83296390  1
  Cr  Cr45  1  0.83418676  0.16488753  0.49903956  1
  Cr  Cr46  1  0.66371094  0.00272617  0.66825291  1
  Ni  Ni47  1  0.83134742  0.16880985  0.83375038  1
  Ni  Ni48  1  0.83341828  0.49901637  0.49919230  1
  Ni  Ni49  1  0.66805055  0.33621124  0.66739734  1
  Fe  Fe50  1  0.83271206  0.49649936  0.83314304  1
  Ni  Ni51  1  0.83417914  0.83097170  0.49793019  1
  Ni  Ni52  1  0.66965800  0.66090698  0.66373966  1
  Cr  Cr53  1  0.83283473  0.83581921  0.83462104  1
" 