2897,Ni34Cr66_19,-226.130780924008, 144.891807204206,Ni34Cr66,"# generated using pymatgen
 data_CrNi2
_symmetry_space_group_name_H-M   'P 1'
_cell_length_a   7.49123585
_cell_length_b   7.49123585
_cell_length_c   10.59420734
_cell_angle_alpha   90.00000000
_cell_angle_beta   90.00000000
_cell_angle_gamma   90.00000000
_symmetry_Int_Tables_number   1
_chemical_formula_structural   CrNi2
_chemical_formula_sum   'Cr18 Ni36'
_cell_volume   594.53223864
_cell_formula_units_Z   18
loop_
 _symmetry_equiv_pos_site_id
 _symmetry_equiv_pos_as_xyz
  1  'x, y, z'
loop_
 _atom_site_type_symbol
 _atom_site_label
 _atom_site_symmetry_multiplicity
 _atom_site_fract_x
 _atom_site_fract_y
 _atom_site_fract_z
 _atom_site_occupancy
  Ni  Ni0  1  0.00093325  0.99742053  0.99705211  1
  Ni  Ni1  1  0.16530800  0.16350256  0.16593618  1
  Ni  Ni2  1  -0.00145563  0.00007080  0.33262192  1
  Cr  Cr3  1  -0.00132632  0.33220571  -0.00088924  1
  Ni  Ni4  1  0.16450613  0.50117115  0.16632669  1
  Ni  Ni5  1  0.99832606  0.33163935  0.33245993  1
  Ni  Ni6  1  0.00059203  0.66618318  -0.00071692  1
  Ni  Ni7  1  0.16616357  0.83049300  0.16425778  1
  Ni  Ni8  1  0.99791522  0.66345110  0.33009159  1
  Ni  Ni9  1  0.33209440  0.99660084  -0.00160374  1
  Ni  Ni10  1  0.49823676  0.16340568  0.16319313  1
  Cr  Cr11  1  0.33080354  0.99817678  0.32934542  1
  Cr  Cr12  1  0.33266789  0.33132016  -0.00088829  1
  Ni  Ni13  1  0.49878059  0.50095386  0.16466612  1
  Cr  Cr14  1  0.32971127  0.33256975  0.32973458  1
  Ni  Ni15  1  0.33214083  0.66721492  0.99793920  1
  Ni  Ni16  1  0.49727286  0.83079143  0.16470156  1
  Ni  Ni17  1  0.33286370  0.66451328  0.32975789  1
  Ni  Ni18  1  0.66211522  -0.00100474  0.99743404  1
  Cr  Cr19  1  0.83122793  0.16482302  0.16459029  1
  Ni  Ni20  1  0.66598622  0.99703524  0.33124374  1
  Ni  Ni21  1  0.66319059  0.33169417  0.99776353  1
  Ni  Ni22  1  0.83185277  0.50015910  0.16559331  1
  Cr  Cr23  1  0.66659623  0.33389239  0.33216791  1
  Ni  Ni24  1  0.66242474  0.66446605  -0.00033399  1
  Cr  Cr25  1  0.83172022  0.83051530  0.16505694  1
  Ni  Ni26  1  0.66441807  0.66436146  0.33133219  1
  Ni  Ni27  1  0.15927942  0.16534103  0.49820881  1
  Ni  Ni28  1  -0.00048863  0.00132548  0.66544458  1
  Ni  Ni29  1  0.16354354  0.16301985  0.83102279  1
  Cr  Cr30  1  0.16435305  0.49860577  0.49883930  1
  Ni  Ni31  1  0.99673102  0.32988926  0.66419117  1
  Ni  Ni32  1  0.16634331  0.50127399  0.83031382  1
  Cr  Cr33  1  0.16382952  0.83126090  0.49888106  1
  Ni  Ni34  1  0.00098430  0.66394144  0.66584162  1
  Ni  Ni35  1  0.16618066  0.83085835  0.83208065  1
  Cr  Cr36  1  0.49983427  0.16659578  0.49813002  1
  Cr  Cr37  1  0.32936706  0.99744248  0.66742962  1
  Ni  Ni38  1  0.50022858  0.16502587  0.83353360  1
  Ni  Ni39  1  0.50033549  0.49985930  0.49876818  1
  Cr  Cr40  1  0.33177206  0.33289603  0.66629361  1
  Ni  Ni41  1  0.49714970  0.49897324  0.83171209  1
  Cr  Cr42  1  0.49800727  0.82871374  0.49637109  1
  Ni  Ni43  1  0.33085134  0.66392068  0.66749365  1
  Ni  Ni44  1  0.49530958  0.83114709  0.83407997  1
  Ni  Ni45  1  0.83495302  0.16688590  0.49898721  1
  Cr  Cr46  1  0.66658631  0.00064422  0.66605755  1
  Ni  Ni47  1  0.83136676  0.16483764  0.83073773  1
  Ni  Ni48  1  0.83167881  0.49617137  0.49820496  1
  Ni  Ni49  1  0.66705363  0.33205604  0.66497569  1
  Cr  Cr50  1  0.83196994  0.49663980  0.83218490  1
  Cr  Cr51  1  0.83328349  0.83217203  0.49637628  1
  Cr  Cr52  1  0.66357649  0.66229306  0.66412975  1
  Cr  Cr53  1  0.83367429  0.83340402  0.83369693  1
" 