8570,Ni34Fe33Cr32_13,-226.955491049384, 181.485623785978,Ni34Fe33Cr32,"# generated using pymatgen
 data_CrFeNi
_symmetry_space_group_name_H-M   'P 1'
_cell_length_a   7.47138079
_cell_length_b   7.47138079
_cell_length_c   10.56612804
_cell_angle_alpha   90.00000000
_cell_angle_beta   90.00000000
_cell_angle_gamma   90.00000000
_symmetry_Int_Tables_number   1
_chemical_formula_structural   CrFeNi
_chemical_formula_sum   'Cr18 Fe18 Ni18'
_cell_volume   589.81744331
_cell_formula_units_Z   18
loop_
 _symmetry_equiv_pos_site_id
 _symmetry_equiv_pos_as_xyz
  1  'x, y, z'
loop_
 _atom_site_type_symbol
 _atom_site_label
 _atom_site_symmetry_multiplicity
 _atom_site_fract_x
 _atom_site_fract_y
 _atom_site_fract_z
 _atom_site_occupancy
  Ni  Ni0  1  0.99956266  0.99903391  0.99825336  1
  Cr  Cr1  1  0.16717899  0.16515454  0.16580544  1
  Cr  Cr2  1  0.99470634  0.00173669  0.33369586  1
  Cr  Cr3  1  0.99949488  0.32866269  0.99769701  1
  Fe  Fe4  1  0.16865879  0.50153124  0.16641348  1
  Fe  Fe5  1  0.99806281  0.33475101  0.33422236  1
  Fe  Fe6  1  0.00103415  0.66866957  0.00007613  1
  Fe  Fe7  1  0.16544213  0.83070154  0.16492409  1
  Fe  Fe8  1  0.00070673  0.66558923  0.33314579  1
  Fe  Fe9  1  0.33273829  0.99879285  0.99925729  1
  Fe  Fe10  1  0.50220651  0.16756428  0.16645129  1
  Cr  Cr11  1  0.33747014  0.99704720  0.33175869  1
  Ni  Ni12  1  0.33354593  0.33474909  0.00154703  1
  Fe  Fe13  1  0.49742043  0.49859213  0.16652382  1
  Fe  Fe14  1  0.33478837  0.33566718  0.33310747  1
  Ni  Ni15  1  0.33289289  0.66738002  0.00155562  1
  Ni  Ni16  1  0.49748203  0.83217448  0.16698581  1
  Ni  Ni17  1  0.33320848  0.66194035  0.33260847  1
  Cr  Cr18  1  0.66893430  0.00045532  0.00184182  1
  Ni  Ni19  1  0.83223633  0.16751091  0.16678969  1
  Ni  Ni20  1  0.66811669  0.00051934  0.33174799  1
  Ni  Ni21  1  0.66506057  0.33180963  0.00188088  1
  Cr  Cr22  1  0.83330592  0.49996892  0.16556639  1
  Fe  Fe23  1  0.66636938  0.33156691  0.33235271  1
  Cr  Cr24  1  0.66396549  0.66830660  0.99856695  1
  Fe  Fe25  1  0.83353735  0.83507843  0.16638852  1
  Cr  Cr26  1  0.66439160  0.66878020  0.33485320  1
  Cr  Cr27  1  0.16420711  0.16658851  0.50206644  1
  Ni  Ni28  1  0.99472303  0.00196711  0.66854644  1
  Ni  Ni29  1  0.16462409  0.16418760  0.83182825  1
  Fe  Fe30  1  0.16783817  0.49805936  0.49838403  1
  Ni  Ni31  1  0.99866380  0.33101196  0.66530421  1
  Cr  Cr32  1  0.16651505  0.49882090  0.83405586  1
  Cr  Cr33  1  0.16664163  0.83344735  0.49811949  1
  Cr  Cr34  1  0.99938809  0.66688910  0.66559327  1
  Ni  Ni35  1  0.16571473  0.83621160  0.83711971  1
  Cr  Cr36  1  0.50216793  0.16526373  0.49861453  1
  Cr  Cr37  1  0.33293484  0.99871901  0.66875768  1
  Cr  Cr38  1  0.49920962  0.16712593  0.83390878  1
  Ni  Ni39  1  0.50186539  0.50000017  0.49968904  1
  Ni  Ni40  1  0.33167890  0.33500461  0.66522032  1
  Cr  Cr41  1  0.50152616  0.49940102  0.83349374  1
  Ni  Ni42  1  0.50255001  0.83089618  0.50009426  1
  Cr  Cr43  1  0.33557052  0.66515376  0.66543950  1
  Ni  Ni44  1  0.49959805  0.83349830  0.83201647  1
  Ni  Ni45  1  0.83219930  0.16862523  0.50025546  1
  Ni  Ni46  1  0.66992201  0.99778489  0.66484510  1
  Fe  Fe47  1  0.83311803  0.16403105  0.83176671  1
  Fe  Fe48  1  0.83198979  0.49757811  0.49994215  1
  Fe  Fe49  1  0.66749278  0.33149451  0.66490619  1
  Cr  Cr50  1  0.83111146  0.49830379  0.83234371  1
  Fe  Fe51  1  0.83006213  0.83641307  0.50100998  1
  Fe  Fe52  1  0.66690217  0.66812502  0.66479500  1
  Fe  Fe53  1  0.83360778  0.83600465  0.83220731  1
" 