6248,Ni34Fe66_12,-243.057967540747, 223.781653865885,Ni34Fe66,"# generated using pymatgen
 data_FeNi2
_symmetry_space_group_name_H-M   'P 1'
_cell_length_a   7.41337420
_cell_length_b   7.41337420
_cell_length_c   10.48409433
_cell_angle_alpha   90.00000000
_cell_angle_beta   90.00000000
_cell_angle_gamma   90.00000000
_symmetry_Int_Tables_number   1
_chemical_formula_structural   FeNi2
_chemical_formula_sum   'Fe18 Ni36'
_cell_volume   576.18608274
_cell_formula_units_Z   18
loop_
 _symmetry_equiv_pos_site_id
 _symmetry_equiv_pos_as_xyz
  1  'x, y, z'
loop_
 _atom_site_type_symbol
 _atom_site_label
 _atom_site_symmetry_multiplicity
 _atom_site_fract_x
 _atom_site_fract_y
 _atom_site_fract_z
 _atom_site_occupancy
  Fe  Fe0  1  1.00266174  1.00349527  1.00316953  1
  Ni  Ni1  1  0.17082955  0.16888305  0.16985572  1
  Fe  Fe2  1  1.00331403  1.00301940  0.33733265  1
  Fe  Fe3  1  1.00231305  0.33713428  1.00344327  1
  Fe  Fe4  1  0.16925391  0.50302058  0.16982960  1
  Ni  Ni5  1  0.00447040  0.33754985  0.33644007  1
  Ni  Ni6  1  1.00320003  0.67065073  0.00410545  1
  Ni  Ni7  1  0.16953837  0.83776401  0.16994234  1
  Ni  Ni8  1  1.00286739  0.66993465  0.33733695  1
  Fe  Fe9  1  0.33715601  0.00377378  0.00364031  1
  Ni  Ni10  1  0.50309833  0.17206199  0.16991949  1
  Fe  Fe11  1  0.33595817  1.00320247  0.33765734  1
  Ni  Ni12  1  0.33696229  0.33637778  0.00397129  1
  Ni  Ni13  1  0.50471988  0.50296462  0.17016451  1
  Fe  Fe14  1  0.33695692  0.33757435  0.33673301  1
  Fe  Fe15  1  0.33783291  0.66953054  1.00329787  1
  Fe  Fe16  1  0.50490414  0.83745023  0.17063758  1
  Fe  Fe17  1  0.33667758  0.67008348  0.33727713  1
  Ni  Ni18  1  0.67003601  1.00317062  0.00408096  1
  Ni  Ni19  1  0.83693048  0.17046268  0.17018686  1
  Fe  Fe20  1  0.67158936  1.00329996  0.33713256  1
  Ni  Ni21  1  0.66909030  0.33675330  0.00434443  1
  Ni  Ni22  1  0.83500027  0.50425401  0.16950372  1
  Fe  Fe23  1  0.67131670  0.33820564  0.33687984  1
  Ni  Ni24  1  0.67161486  0.67093826  0.00386317  1
  Ni  Ni25  1  0.83818287  0.83614506  0.17027334  1
  Ni  Ni26  1  0.67098300  0.67112079  0.33665583  1
  Ni  Ni27  1  0.17057585  0.16900987  0.50400396  1
  Ni  Ni28  1  0.00401273  1.00329321  0.66965907  1
  Ni  Ni29  1  0.17034291  0.16945443  0.83699792  1
  Fe  Fe30  1  0.16978018  0.50311692  0.50400109  1
  Ni  Ni31  1  0.00434522  0.33706560  0.67070091  1
  Ni  Ni32  1  0.17156796  0.50361654  0.83715323  1
  Ni  Ni33  1  0.17023165  0.83815295  0.50414333  1
  Fe  Fe34  1  1.00351310  0.67068359  0.67068589  1
  Ni  Ni35  1  0.16994411  0.83778926  0.83677752  1
  Ni  Ni36  1  0.50291845  0.17128636  0.50425039  1
  Ni  Ni37  1  0.33691221  0.00399084  0.67031846  1
  Fe  Fe38  1  0.50379838  0.17097154  0.83684775  1
  Ni  Ni39  1  0.50453900  0.50337129  0.50378625  1
  Ni  Ni40  1  0.33659851  0.33638599  0.66943047  1
  Ni  Ni41  1  0.50395018  0.50323695  0.83690692  1
  Ni  Ni42  1  0.50293918  0.83620296  0.50352147  1
  Fe  Fe43  1  0.33702785  0.67035859  0.67028509  1
  Fe  Fe44  1  0.50412722  0.83695117  0.83642643  1
  Ni  Ni45  1  0.83736759  0.17061421  0.50356858  1
  Ni  Ni46  1  0.66993650  1.00328514  0.66964756  1
  Ni  Ni47  1  0.83726859  0.17013367  0.83710263  1
  Ni  Ni48  1  0.83541102  0.50371448  0.50409777  1
  Ni  Ni49  1  0.66991553  0.33675536  0.66975969  1
  Ni  Ni50  1  0.83534176  0.50363776  0.83726042  1
  Ni  Ni51  1  0.83768866  0.83653202  0.50376865  1
  Fe  Fe52  1  0.67031896  0.66996121  0.66988724  1
  Ni  Ni53  1  0.83765028  0.83708880  0.83681860  1
" 