6205,Ni34Fe26Cr38_19,-224.327557335905, 182.505353652999,Ni34Fe26Cr38,"# generated using pymatgen
 data_Cr11Fe7Ni9
_symmetry_space_group_name_H-M   'P 1'
_cell_length_a   7.48300569
_cell_length_b   7.48300569
_cell_length_c   10.58256813
_cell_angle_alpha   90.00000000
_cell_angle_beta   90.00000000
_cell_angle_gamma   90.00000000
_symmetry_Int_Tables_number   1
_chemical_formula_structural   Cr11Fe7Ni9
_chemical_formula_sum   'Cr22 Fe14 Ni18'
_cell_volume   592.57486158
_cell_formula_units_Z   2
loop_
 _symmetry_equiv_pos_site_id
 _symmetry_equiv_pos_as_xyz
  1  'x, y, z'
loop_
 _atom_site_type_symbol
 _atom_site_label
 _atom_site_symmetry_multiplicity
 _atom_site_fract_x
 _atom_site_fract_y
 _atom_site_fract_z
 _atom_site_occupancy
  Cr  Cr0  1  0.00213777  0.99837668  -0.00033054  1
  Fe  Fe1  1  0.16679636  0.16504575  0.16429288  1
  Ni  Ni2  1  -0.00069392  0.99807049  0.33421889  1
  Ni  Ni3  1  0.00089861  0.33508878  -0.00046945  1
  Cr  Cr4  1  0.16769350  0.49594759  0.16420359  1
  Fe  Fe5  1  0.99805295  0.33275638  0.33181246  1
  Ni  Ni6  1  0.00205379  0.66327540  0.99881172  1
  Fe  Fe7  1  0.16586518  0.83156092  0.16479294  1
  Cr  Cr8  1  0.00090558  0.66573696  0.33323671  1
  Ni  Ni9  1  0.33381659  0.99889489  0.99859951  1
  Ni  Ni10  1  0.49584865  0.16667725  0.16435394  1
  Cr  Cr11  1  0.33143845  0.99726806  0.32975118  1
  Ni  Ni12  1  0.33173787  0.33143670  -0.00083323  1
  Fe  Fe13  1  0.49977976  0.49768196  0.16652309  1
  Fe  Fe14  1  0.33361069  0.33166357  0.33110114  1
  Ni  Ni15  1  0.32925368  0.66642141  0.99853683  1
  Cr  Cr16  1  0.49875762  0.82967952  0.16387976  1
  Ni  Ni17  1  0.32997320  0.66358180  0.33221185  1
  Ni  Ni18  1  0.66116517  0.00016828  0.99798383  1
  Cr  Cr19  1  0.83531098  0.16552524  0.16608366  1
  Cr  Cr20  1  0.66492156  0.00369986  0.33282820  1
  Cr  Cr21  1  0.66548597  0.33056611  0.00008080  1
  Ni  Ni22  1  0.83303771  0.49955788  0.16546028  1
  Ni  Ni23  1  0.66553693  0.33354920  0.33207965  1
  Fe  Fe24  1  0.66391439  0.66470682  -0.00078598  1
  Cr  Cr25  1  0.83146572  0.83117186  0.16346114  1
  Fe  Fe26  1  0.66691947  0.66455850  0.33221474  1
  Cr  Cr27  1  0.16562215  0.16828865  0.49743986  1
  Fe  Fe28  1  0.00029963  0.99857756  0.66447141  1
  Ni  Ni29  1  0.16873780  0.16778462  0.83466603  1
  Ni  Ni30  1  0.16602542  0.49667089  0.49862262  1
  Cr  Cr31  1  -0.00064494  0.33467121  0.66623329  1
  Ni  Ni32  1  0.16803514  0.49580848  0.83399956  1
  Fe  Fe33  1  0.16620497  0.83260564  0.49781418  1
  Cr  Cr34  1  0.00058834  0.66592338  0.66468074  1
  Fe  Fe35  1  0.16581670  0.83134185  0.83494696  1
  Ni  Ni36  1  0.49708067  0.16751281  0.49908510  1
  Cr  Cr37  1  0.33171285  -0.00027565  0.66813941  1
  Fe  Fe38  1  0.49612718  0.16648016  0.83427531  1
  Cr  Cr39  1  0.49542187  0.49853070  0.49685689  1
  Ni  Ni40  1  0.33119456  0.33128440  0.66608473  1
  Cr  Cr41  1  0.49554965  0.50129714  0.83242078  1
  Cr  Cr42  1  0.50122063  0.83053273  0.49872599  1
  Cr  Cr43  1  0.32863053  0.66539333  0.66575381  1
  Fe  Fe44  1  0.49690102  0.83227268  0.83452822  1
  Fe  Fe45  1  0.83258391  0.16672411  0.49711557  1
  Cr  Cr46  1  0.66404594  0.00108648  0.66539728  1
  Cr  Cr47  1  0.83651809  0.16356164  0.83287468  1
  Fe  Fe48  1  0.83119287  0.49893177  0.49685789  1
  Cr  Cr49  1  0.66382925  0.33214024  0.66478098  1
  Cr  Cr50  1  0.83401469  0.50096013  0.83477325  1
  Ni  Ni51  1  0.83376241  0.83349990  0.49948401  1
  Ni  Ni52  1  0.66725647  0.66608085  0.66413745  1
  Cr  Cr53  1  0.82900843  0.83206689  0.83415486  1
" 