8223,Ni34Fe33Cr32_15,-226.992836049503, 186.515784249382,Ni34Fe33Cr32,"# generated using pymatgen
 data_CrFeNi
_symmetry_space_group_name_H-M   'P 1'
_cell_length_a   7.46321746
_cell_length_b   7.46321746
_cell_length_c   10.55458335
_cell_angle_alpha   90.00000000
_cell_angle_beta   90.00000000
_cell_angle_gamma   90.00000000
_symmetry_Int_Tables_number   1
_chemical_formula_structural   CrFeNi
_chemical_formula_sum   'Cr18 Fe18 Ni18'
_cell_volume   587.88622728
_cell_formula_units_Z   18
loop_
 _symmetry_equiv_pos_site_id
 _symmetry_equiv_pos_as_xyz
  1  'x, y, z'
loop_
 _atom_site_type_symbol
 _atom_site_label
 _atom_site_symmetry_multiplicity
 _atom_site_fract_x
 _atom_site_fract_y
 _atom_site_fract_z
 _atom_site_occupancy
  Ni  Ni0  1  0.99987167  0.00082173  0.99922433  1
  Cr  Cr1  1  0.16516496  0.16746082  0.16658576  1
  Cr  Cr2  1  0.00259188  1.00019285  0.33440823  1
  Fe  Fe3  1  0.00091321  0.33313149  0.99922279  1
  Ni  Ni4  1  0.16630806  0.50343248  0.16731167  1
  Fe  Fe5  1  0.99933598  0.33584141  0.33536370  1
  Cr  Cr6  1  0.00276556  0.66775100  0.99873064  1
  Ni  Ni7  1  0.16975412  0.83057855  0.16754452  1
  Ni  Ni8  1  0.00360847  0.66463579  0.33479917  1
  Cr  Cr9  1  0.33299035  0.99767609  0.00388036  1
  Ni  Ni10  1  0.50339748  0.16376162  0.16730893  1
  Fe  Fe11  1  0.33309615  0.99570852  0.33332976  1
  Cr  Cr12  1  0.33248909  0.33575841  0.99756730  1
  Cr  Cr13  1  0.49753943  0.50191303  0.16723596  1
  Cr  Cr14  1  0.33344920  0.33429542  0.33519429  1
  Fe  Fe15  1  0.33222426  0.66840806  0.99988977  1
  Ni  Ni16  1  0.49715795  0.83528666  0.16865576  1
  Ni  Ni17  1  0.33190092  0.66818329  0.33256328  1
  Fe  Fe18  1  0.66734600  0.99952859  0.00185353  1
  Ni  Ni19  1  0.83209658  0.16725171  0.16529754  1
  Cr  Cr20  1  0.66487095  0.00160700  0.33089693  1
  Cr  Cr21  1  0.66748026  0.33300408  0.00148819  1
  Cr  Cr22  1  0.83729549  0.49786242  0.17110813  1
  Fe  Fe23  1  0.66903605  0.33442479  0.33440872  1
  Cr  Cr24  1  0.66496513  0.66818858  0.99791792  1
  Cr  Cr25  1  0.83422990  0.83528720  0.16528514  1
  Fe  Fe26  1  0.66495957  0.66575533  0.33543502  1
  Fe  Fe27  1  0.16630099  0.16620796  0.50135564  1
  Fe  Fe28  1  0.00205154  0.99814920  0.66660529  1
  Fe  Fe29  1  0.16636474  0.16613904  0.83300878  1
  Ni  Ni30  1  0.16778160  0.50321358  0.49968674  1
  Cr  Cr31  1  0.00184956  0.33384243  0.66548028  1
  Ni  Ni32  1  0.16718047  0.50191600  0.83363154  1
  Ni  Ni33  1  0.16858249  0.83126110  0.50101119  1
  Fe  Fe34  1  0.00211701  0.66716375  0.66730867  1
  Fe  Fe35  1  0.16740276  0.83341485  0.83188124  1
  Cr  Cr36  1  0.49995941  0.16645172  0.50154954  1
  Ni  Ni37  1  0.33130646  0.99790611  0.66519988  1
  Cr  Cr38  1  0.49930688  0.16486312  0.83208859  1
  Ni  Ni39  1  0.49891200  0.50252488  0.50174848  1
  Fe  Fe40  1  0.33240996  0.33654274  0.66667809  1
  Fe  Fe41  1  0.49930253  0.50399342  0.83108868  1
  Fe  Fe42  1  0.49704484  0.83023291  0.50164945  1
  Ni  Ni43  1  0.33469952  0.66840624  0.66792224  1
  Ni  Ni44  1  0.50015998  0.83250360  0.83132682  1
  Ni  Ni45  1  0.83416529  0.16788284  0.49965348  1
  Fe  Fe46  1  0.66581927  0.99674138  0.66675122  1
  Cr  Cr47  1  0.83470964  0.16414312  0.83613346  1
  Fe  Fe48  1  0.83385917  0.50070635  0.49924284  1
  Cr  Cr49  1  0.66663402  0.33736267  0.66533794  1
  Ni  Ni50  1  0.83603810  0.50258660  0.83190270  1
  Cr  Cr51  1  0.83447839  0.83237149  0.50356420  1
  Ni  Ni52  1  0.66534306  0.66717085  0.66739544  1
  Fe  Fe53  1  0.83323817  0.83241165  0.83214674  1
" 