8130,Ni34Cr66_15,-226.148640491446, 142.98891304161,Ni34Cr66,"# generated using pymatgen
 data_CrNi2
_symmetry_space_group_name_H-M   'P 1'
_cell_length_a   7.49225938
_cell_length_b   7.49225938
_cell_length_c   10.59565483
_cell_angle_alpha   90.00000000
_cell_angle_beta   90.00000000
_cell_angle_gamma   90.00000000
_symmetry_Int_Tables_number   1
_chemical_formula_structural   CrNi2
_chemical_formula_sum   'Cr18 Ni36'
_cell_volume   594.77596493
_cell_formula_units_Z   18
loop_
 _symmetry_equiv_pos_site_id
 _symmetry_equiv_pos_as_xyz
  1  'x, y, z'
loop_
 _atom_site_type_symbol
 _atom_site_label
 _atom_site_symmetry_multiplicity
 _atom_site_fract_x
 _atom_site_fract_y
 _atom_site_fract_z
 _atom_site_occupancy
  Ni  Ni0  1  0.99776346  0.99692533  -0.00149649  1
  Cr  Cr1  1  0.16491860  0.16443366  0.16605662  1
  Ni  Ni2  1  0.99712972  0.00080404  0.33008351  1
  Cr  Cr3  1  0.99446913  0.33115476  -0.00135580  1
  Cr  Cr4  1  0.16597231  0.49828922  0.16923500  1
  Ni  Ni5  1  0.99562752  0.33019489  0.33426643  1
  Cr  Cr6  1  0.99544651  0.66776453  -0.00058301  1
  Ni  Ni7  1  0.16426797  0.83474330  0.16570134  1
  Cr  Cr8  1  0.99568396  0.66479967  0.32974012  1
  Ni  Ni9  1  0.33025275  0.99816450  -0.00167239  1
  Ni  Ni10  1  0.50107985  0.16542209  0.16524378  1
  Ni  Ni11  1  0.33196233  -0.00121957  0.33130509  1
  Cr  Cr12  1  0.33606020  0.33096771  0.99802067  1
  Ni  Ni13  1  0.50227155  0.49689857  0.16666117  1
  Ni  Ni14  1  0.33376154  0.33221810  0.33304248  1
  Cr  Cr15  1  0.33312220  0.66600150  -0.00067873  1
  Cr  Cr16  1  0.49927803  0.83248100  0.16725581  1
  Ni  Ni17  1  0.33453930  0.66410112  0.33266850  1
  Ni  Ni18  1  0.66682138  0.99808654  -0.00013542  1
  Ni  Ni19  1  0.82908382  0.16408454  0.16623360  1
  Ni  Ni20  1  0.66587000  -0.00074357  0.33149455  1
  Ni  Ni21  1  0.66518248  0.33353917  0.00049665  1
  Ni  Ni22  1  0.82710653  0.49740305  0.16584986  1
  Ni  Ni23  1  0.66556265  0.33247955  0.33018194  1
  Ni  Ni24  1  0.66650572  0.66331132  0.99826195  1
  Ni  Ni25  1  0.83043579  0.83351780  0.16441918  1
  Ni  Ni26  1  0.66347790  0.66297372  0.33181958  1
  Ni  Ni27  1  0.16373126  0.16883708  0.49682015  1
  Cr  Cr28  1  0.99775298  -0.00075492  0.66500359  1
  Ni  Ni29  1  0.16434977  0.16378673  0.83133389  1
  Ni  Ni30  1  0.16550183  0.49588626  0.49904247  1
  Ni  Ni31  1  -0.00100576  0.33309289  0.66265699  1
  Cr  Cr32  1  0.16429768  0.49754970  0.82800903  1
  Cr  Cr33  1  0.16677246  0.82923299  0.49609651  1
  Ni  Ni34  1  0.99702582  0.66303146  0.66627991  1
  Ni  Ni35  1  0.16356326  0.83245971  0.83243356  1
  Cr  Cr36  1  0.49967473  0.16365884  0.49640664  1
  Cr  Cr37  1  0.33168072  -0.00107737  0.66485396  1
  Cr  Cr38  1  0.49895257  0.16552849  0.83374324  1
  Ni  Ni39  1  0.49762505  0.50030996  0.49752186  1
  Ni  Ni40  1  0.33030284  0.33394739  0.66425378  1
  Ni  Ni41  1  0.50113054  0.49949903  0.83103844  1
  Ni  Ni42  1  0.49946943  0.82863246  0.49756416  1
  Ni  Ni43  1  0.33291226  0.66290852  0.66375930  1
  Cr  Cr44  1  0.50134436  0.83058244  0.82998310  1
  Ni  Ni45  1  0.83319568  0.16667935  0.49601614  1
  Ni  Ni46  1  0.66604463  0.99586173  0.66364577  1
  Cr  Cr47  1  0.83116355  0.16469657  0.83199011  1
  Ni  Ni48  1  0.83178857  0.49708744  0.49846374  1
  Cr  Cr49  1  0.66516034  0.33294645  0.66385382  1
  Ni  Ni50  1  0.82904789  0.50067565  0.83081726  1
  Cr  Cr51  1  0.82758510  0.83157170  0.49859622  1
  Ni  Ni52  1  0.66500718  0.66375894  0.66492331  1
  Ni  Ni53  1  0.83141590  0.82995782  0.83192093  1
" 