4251,Ni34Fe46Cr18_15,-231.378706762529, 198.785996122122,Ni34Fe46Cr18,"# generated using pymatgen
 data_Cr11Fe25Ni18
_symmetry_space_group_name_H-M   'P 1'
_cell_length_a   7.43972936
_cell_length_b   7.43972936
_cell_length_c   10.52136616
_cell_angle_alpha   90.00000000
_cell_angle_beta   90.00000000
_cell_angle_gamma   90.00000000
_symmetry_Int_Tables_number   1
_chemical_formula_structural   Cr11Fe25Ni18
_chemical_formula_sum   'Cr11 Fe25 Ni18'
_cell_volume   582.35312298
_cell_formula_units_Z   1
loop_
 _symmetry_equiv_pos_site_id
 _symmetry_equiv_pos_as_xyz
  1  'x, y, z'
loop_
 _atom_site_type_symbol
 _atom_site_label
 _atom_site_symmetry_multiplicity
 _atom_site_fract_x
 _atom_site_fract_y
 _atom_site_fract_z
 _atom_site_occupancy
  Ni  Ni0  1  0.00508273  1.00169990  1.00006023  1
  Ni  Ni1  1  0.16872832  0.16719399  0.16655236  1
  Ni  Ni2  1  0.00240023  1.00135644  0.33578538  1
  Ni  Ni3  1  1.00168706  0.33690610  1.00101575  1
  Fe  Fe4  1  0.16646069  0.50248490  0.16895232  1
  Fe  Fe5  1  1.00165318  0.33603507  0.33594673  1
  Ni  Ni6  1  1.00145027  0.66690240  1.00004855  1
  Ni  Ni7  1  0.16920637  0.83623966  0.16839967  1
  Ni  Ni8  1  0.00254025  0.66713555  0.33511896  1
  Ni  Ni9  1  0.33370579  0.00387021  0.00341345  1
  Fe  Fe10  1  0.49975448  0.16931861  0.16650414  1
  Cr  Cr11  1  0.33398276  1.00049907  0.33317950  1
  Fe  Fe12  1  0.33314907  0.33176613  0.00263472  1
  Fe  Fe13  1  0.50260458  0.50179885  0.16889732  1
  Cr  Cr14  1  0.33541976  0.33670389  0.33586833  1
  Cr  Cr15  1  0.33265790  0.66947287  0.00365994  1
  Fe  Fe16  1  0.49904899  0.83439741  0.16882190  1
  Ni  Ni17  1  0.33475580  0.66768536  0.33522729  1
  Cr  Cr18  1  0.66701117  0.00341542  0.99984527  1
  Cr  Cr19  1  0.83815396  0.17145996  0.16913552  1
  Cr  Cr20  1  0.66859093  0.00307261  0.33853295  1
  Fe  Fe21  1  0.66931389  0.33627340  1.00129548  1
  Fe  Fe22  1  0.83644149  0.50177803  0.16836986  1
  Ni  Ni23  1  0.66931580  0.33743302  0.33546281  1
  Fe  Fe24  1  0.67186849  0.66675277  0.00217518  1
  Cr  Cr25  1  0.83765025  0.83247692  0.16888095  1
  Fe  Fe26  1  0.66789891  0.66651526  0.33633152  1
  Ni  Ni27  1  0.16584868  0.17054867  0.50194551  1
  Ni  Ni28  1  0.99981814  0.00187547  0.66966315  1
  Fe  Fe29  1  0.16776406  0.16904265  0.83640825  1
  Ni  Ni30  1  0.16738278  0.50050716  0.50261041  1
  Fe  Fe31  1  1.00156803  0.33507564  0.66844220  1
  Fe  Fe32  1  0.16622974  0.50099217  0.83449670  1
  Cr  Cr33  1  0.16818882  0.83473591  0.50029416  1
  Fe  Fe34  1  1.00050549  0.66715053  0.66907934  1
  Fe  Fe35  1  0.16544020  0.83547498  0.83608441  1
  Fe  Fe36  1  0.50312218  0.17075947  0.50380536  1
  Cr  Cr37  1  0.33532113  0.00288452  0.66823875  1
  Ni  Ni38  1  0.50152583  0.16961833  0.83599682  1
  Fe  Fe39  1  0.50203856  0.50248241  0.50238283  1
  Fe  Fe40  1  0.33422609  0.33499094  0.66743785  1
  Cr  Cr41  1  0.50339112  0.49960640  0.83378742  1
  Ni  Ni42  1  0.50395889  0.83285563  0.50175717  1
  Fe  Fe43  1  0.33459028  0.66653237  0.66690351  1
  Cr  Cr44  1  0.50206924  0.83624043  0.83517916  1
  Fe  Fe45  1  0.83649531  0.16944561  0.50229892  1
  Fe  Fe46  1  0.67032569  0.00291899  0.66785737  1
  Fe  Fe47  1  0.83531991  0.16968219  0.83461873  1
  Ni  Ni48  1  0.83455432  0.50095054  0.50038493  1
  Ni  Ni49  1  0.66876370  0.33494125  0.66821755  1
  Ni  Ni50  1  0.83661676  0.50174124  0.83707098  1
  Fe  Fe51  1  0.83577902  0.83437896  0.50212921  1
  Fe  Fe52  1  0.67041648  0.66852751  0.66700035  1
  Fe  Fe53  1  0.83734880  0.83453867  0.83493530  1
" 