4496,Ni34Fe33Cr32_7,-226.867609246569, 184.084456751483,Ni34Fe33Cr32,"# generated using pymatgen
 data_CrFeNi
_symmetry_space_group_name_H-M   'P 1'
_cell_length_a   7.47020927
_cell_length_b   7.47020927
_cell_length_c   10.56447126
_cell_angle_alpha   90.00000000
_cell_angle_beta   90.00000000
_cell_angle_gamma   90.00000000
_symmetry_Int_Tables_number   1
_chemical_formula_structural   CrFeNi
_chemical_formula_sum   'Cr18 Fe18 Ni18'
_cell_volume   589.54003469
_cell_formula_units_Z   18
loop_
 _symmetry_equiv_pos_site_id
 _symmetry_equiv_pos_as_xyz
  1  'x, y, z'
loop_
 _atom_site_type_symbol
 _atom_site_label
 _atom_site_symmetry_multiplicity
 _atom_site_fract_x
 _atom_site_fract_y
 _atom_site_fract_z
 _atom_site_occupancy
  Fe  Fe0  1  0.99652572  0.99932431  0.99958363  1
  Cr  Cr1  1  0.16491034  0.16560299  0.16543241  1
  Ni  Ni2  1  0.99774152  0.99743830  0.33322263  1
  Ni  Ni3  1  0.00049971  0.33437523  0.99787184  1
  Fe  Fe4  1  0.16407389  0.50368356  0.16453394  1
  Cr  Cr5  1  0.99832448  0.32955743  0.33301980  1
  Fe  Fe6  1  0.99887463  0.66776732  0.99867997  1
  Ni  Ni7  1  0.16423165  0.83294169  0.16567432  1
  Ni  Ni8  1  0.99956573  0.67282759  0.33207693  1
  Cr  Cr9  1  0.33236155  0.99746968  0.00043039  1
  Fe  Fe10  1  0.50279759  0.16197794  0.16466995  1
  Cr  Cr11  1  0.33256232  0.99952493  0.33468196  1
  Ni  Ni12  1  0.33031461  0.33520411  0.00072156  1
  Cr  Cr13  1  0.49922715  0.50108953  0.16465834  1
  Cr  Cr14  1  0.33413732  0.33151289  0.33249039  1
  Fe  Fe15  1  0.33346954  0.66607257  0.99874050  1
  Ni  Ni16  1  0.50074089  0.83344084  0.16472464  1
  Cr  Cr17  1  0.33256661  0.66903134  0.33356752  1
  Ni  Ni18  1  0.66907964  0.99517629  0.00126047  1
  Ni  Ni19  1  0.83493811  0.16179022  0.16387178  1
  Fe  Fe20  1  0.66962369  0.00000615  0.33157084  1
  Cr  Cr21  1  0.66913200  0.33246426  0.99939175  1
  Cr  Cr22  1  0.83467724  0.50275436  0.16735838  1
  Cr  Cr23  1  0.66665475  0.32927507  0.33342395  1
  Ni  Ni24  1  0.66800757  0.66918895  0.99799928  1
  Ni  Ni25  1  0.83438783  0.83560024  0.16609350  1
  Cr  Cr26  1  0.66740164  0.67059106  0.33445997  1
  Fe  Fe27  1  0.16382895  0.16433406  0.50178879  1
  Ni  Ni28  1  0.99860038  0.99865116  0.66699513  1
  Cr  Cr29  1  0.16470372  0.16321261  0.83104093  1
  Cr  Cr30  1  0.16397079  0.50357829  0.49898492  1
  Fe  Fe31  1  0.99749919  0.33305908  0.66790128  1
  Fe  Fe32  1  0.16565718  0.50013735  0.83411687  1
  Fe  Fe33  1  0.16220102  0.83626023  0.50087999  1
  Ni  Ni34  1  0.99819961  0.66995305  0.66817444  1
  Fe  Fe35  1  0.16448638  0.83130878  0.83268456  1
  Ni  Ni36  1  0.50227051  0.16246767  0.50071861  1
  Ni  Ni37  1  0.33202884  0.99863995  0.66398693  1
  Cr  Cr38  1  0.49984593  0.16448534  0.83414197  1
  Ni  Ni39  1  0.50027003  0.49819397  0.50102354  1
  Cr  Cr40  1  0.33474204  0.33242528  0.66456511  1
  Ni  Ni41  1  0.50149274  0.50116125  0.83446475  1
  Fe  Fe42  1  0.50196522  0.83541604  0.50082131  1
  Cr  Cr43  1  0.33358611  0.66927011  0.66789586  1
  Fe  Fe44  1  0.50156336  0.83274050  0.83486787  1
  Ni  Ni45  1  0.83259048  0.16158520  0.50322866  1
  Fe  Fe46  1  0.66703989  0.99906687  0.66705647  1
  Fe  Fe47  1  0.83293232  0.16643165  0.83298459  1
  Cr  Cr48  1  0.83373576  0.50128509  0.50012133  1
  Fe  Fe49  1  0.66854414  0.33085260  0.66671044  1
  Ni  Ni50  1  0.83425124  0.50209511  0.83183063  1
  Fe  Fe51  1  0.83502372  0.83609593  0.50009090  1
  Cr  Cr52  1  0.66728569  0.66599046  0.66701973  1
  Fe  Fe53  1  0.83342967  0.83418615  0.83426639  1
" 