5197,Ni34Fe33Cr32_11,-226.989846880934, 187.092948399912,Ni34Fe33Cr32,"# generated using pymatgen
 data_CrFeNi
_symmetry_space_group_name_H-M   'P 1'
_cell_length_a   7.46581143
_cell_length_b   7.46581143
_cell_length_c   10.55825178
_cell_angle_alpha   90.00000000
_cell_angle_beta   90.00000000
_cell_angle_gamma   90.00000000
_symmetry_Int_Tables_number   1
_chemical_formula_structural   CrFeNi
_chemical_formula_sum   'Cr18 Fe18 Ni18'
_cell_volume   588.49943045
_cell_formula_units_Z   18
loop_
 _symmetry_equiv_pos_site_id
 _symmetry_equiv_pos_as_xyz
  1  'x, y, z'
loop_
 _atom_site_type_symbol
 _atom_site_label
 _atom_site_symmetry_multiplicity
 _atom_site_fract_x
 _atom_site_fract_y
 _atom_site_fract_z
 _atom_site_occupancy
  Fe  Fe0  1  0.99863880  0.00073882  0.99893734  1
  Fe  Fe1  1  0.16720068  0.16427161  0.16693191  1
  Ni  Ni2  1  0.00110992  0.99878389  0.33275680  1
  Fe  Fe3  1  0.99873481  0.33180910  0.99871762  1
  Cr  Cr4  1  0.16538158  0.49780473  0.16885661  1
  Fe  Fe5  1  0.99815351  0.33464806  0.33402516  1
  Cr  Cr6  1  0.99652007  0.66829107  0.99934674  1
  Cr  Cr7  1  0.16680221  0.83676114  0.16649154  1
  Fe  Fe8  1  0.99566565  0.66686052  0.33457782  1
  Fe  Fe9  1  0.33509250  0.00127264  1.00004495  1
  Fe  Fe10  1  0.49943324  0.16457126  0.16707093  1
  Ni  Ni11  1  0.33267860  0.00108724  0.33199263  1
  Cr  Cr12  1  0.33431797  0.33125175  0.99916664  1
  Ni  Ni13  1  0.50335316  0.50165144  0.16610502  1
  Cr  Cr14  1  0.33501313  0.33123816  0.33406993  1
  Cr  Cr15  1  0.33569756  0.66755925  0.99958423  1
  Ni  Ni16  1  0.50278062  0.83336288  0.16648034  1
  Cr  Cr17  1  0.33445489  0.66826569  0.33388646  1
  Ni  Ni18  1  0.66773717  0.99868409  0.99927854  1
  Cr  Cr19  1  0.83482481  0.16638650  0.16654358  1
  Cr  Cr20  1  0.66575074  0.99907153  0.33542597  1
  Cr  Cr21  1  0.66703669  0.33419056  0.99994052  1
  Fe  Fe22  1  0.83013333  0.50296641  0.16828428  1
  Ni  Ni23  1  0.66783965  0.33619226  0.33255429  1
  Ni  Ni24  1  0.66846704  0.66810945  0.00077259  1
  Ni  Ni25  1  0.83061369  0.83292557  0.16663200  1
  Ni  Ni26  1  0.67010834  0.66538410  0.33223146  1
  Cr  Cr27  1  0.16732744  0.16849148  0.49807976  1
  Fe  Fe28  1  0.99751050  0.99937923  0.66848456  1
  Ni  Ni29  1  0.16596734  0.16619276  0.83484447  1
  Ni  Ni30  1  0.16335531  0.49968071  0.50087812  1
  Fe  Fe31  1  0.99922157  0.33480699  0.66743717  1
  Cr  Cr32  1  0.16599318  0.49815044  0.83109234  1
  Cr  Cr33  1  0.16466924  0.83250914  0.49880467  1
  Fe  Fe34  1  0.99600591  0.66604354  0.66658392  1
  Fe  Fe35  1  0.16362790  0.83674875  0.83331104  1
  Ni  Ni36  1  0.50075196  0.16636672  0.50015702  1
  Cr  Cr37  1  0.33370253  0.00185203  0.66617021  1
  Ni  Ni38  1  0.49986369  0.16689782  0.83290572  1
  Cr  Cr39  1  0.50178277  0.49867667  0.50207909  1
  Fe  Fe40  1  0.33472857  0.33192922  0.66750000  1
  Fe  Fe41  1  0.50400695  0.49822645  0.83249356  1
  Fe  Fe42  1  0.50306478  0.83447058  0.49916870  1
  Cr  Cr43  1  0.33175472  0.66542237  0.66680874  1
  Cr  Cr44  1  0.50334765  0.83369602  0.83516834  1
  Cr  Cr45  1  0.83163562  0.16698175  0.50153346  1
  Fe  Fe46  1  0.66774650  0.00052629  0.66721862  1
  Fe  Fe47  1  0.83346812  0.16615775  0.83280166  1
  Ni  Ni48  1  0.83464266  0.50216550  0.49837182  1
  Ni  Ni49  1  0.66758828  0.33309157  0.66851491  1
  Ni  Ni50  1  0.83253100  0.50076969  0.83286945  1
  Ni  Ni51  1  0.83277391  0.83091972  0.50043498  1
  Fe  Fe52  1  0.67061703  0.66633877  0.66682357  1
  Ni  Ni53  1  0.83324511  0.83383897  0.83322888  1
" 