8432,Ni34Fe33Cr32_4,-226.904003199334, 187.046259967105,Ni34Fe33Cr32,"# generated using pymatgen
 data_CrFeNi
_symmetry_space_group_name_H-M   'P 1'
_cell_length_a   7.46380295
_cell_length_b   7.46380295
_cell_length_c   10.55541136
_cell_angle_alpha   90.00000000
_cell_angle_beta   90.00000000
_cell_angle_gamma   90.00000000
_symmetry_Int_Tables_number   1
_chemical_formula_structural   CrFeNi
_chemical_formula_sum   'Cr18 Fe18 Ni18'
_cell_volume   588.02459720
_cell_formula_units_Z   18
loop_
 _symmetry_equiv_pos_site_id
 _symmetry_equiv_pos_as_xyz
  1  'x, y, z'
loop_
 _atom_site_type_symbol
 _atom_site_label
 _atom_site_symmetry_multiplicity
 _atom_site_fract_x
 _atom_site_fract_y
 _atom_site_fract_z
 _atom_site_occupancy
  Cr  Cr0  1  0.00134685  0.00095339  0.99716496  1
  Ni  Ni1  1  0.17107572  0.16762620  0.16636277  1
  Cr  Cr2  1  0.00211771  0.00055739  0.33407739  1
  Fe  Fe3  1  0.00342890  0.33674749  1.00014102  1
  Fe  Fe4  1  0.16811348  0.49834347  0.16697007  1
  Ni  Ni5  1  0.00239551  0.33690664  0.33112710  1
  Ni  Ni6  1  0.00129887  0.66788540  0.99875119  1
  Fe  Fe7  1  0.16772123  0.83393648  0.16784673  1
  Ni  Ni8  1  0.00365643  0.66483255  0.33393240  1
  Fe  Fe9  1  0.33373654  1.00017902  0.99818661  1
  Cr  Cr10  1  0.49623456  0.16718243  0.16588635  1
  Ni  Ni11  1  0.33402804  0.99747280  0.33325374  1
  Ni  Ni12  1  0.33330135  0.33294890  0.99871929  1
  Fe  Fe13  1  0.49891665  0.49951485  0.16645056  1
  Ni  Ni14  1  0.33361211  0.33518921  0.33413740  1
  Cr  Cr15  1  0.33105933  0.66662299  0.00112944  1
  Fe  Fe16  1  0.49791641  0.83203772  0.16662611  1
  Ni  Ni17  1  0.33366219  0.66713946  0.33212519  1
  Fe  Fe18  1  0.66397650  0.99895038  0.99749060  1
  Cr  Cr19  1  0.83485538  0.16835099  0.16463696  1
  Cr  Cr20  1  0.66374938  0.99930635  0.33362990  1
  Ni  Ni21  1  0.66568058  0.33200046  0.99819182  1
  Cr  Cr22  1  0.83316396  0.50219606  0.16633286  1
  Cr  Cr23  1  0.66656444  0.33394919  0.33693400  1
  Ni  Ni24  1  0.66529979  0.66751186  0.99994961  1
  Cr  Cr25  1  0.83283284  0.83031431  0.16620725  1
  Fe  Fe26  1  0.66348204  0.66546583  0.33400838  1
  Cr  Cr27  1  0.17134823  0.16371903  0.50036606  1
  Fe  Fe28  1  0.00408470  0.99758403  0.66898082  1
  Fe  Fe29  1  0.17131066  0.16848131  0.83367727  1
  Cr  Cr30  1  0.16701489  0.50147214  0.49923644  1
  Cr  Cr31  1  0.99952594  0.33509043  0.66895603  1
  Ni  Ni32  1  0.16604759  0.50160240  0.83562929  1
  Ni  Ni33  1  0.16954717  0.83335473  0.49987915  1
  Ni  Ni34  1  0.00089196  0.66773337  0.66855747  1
  Ni  Ni35  1  0.16557872  0.83494438  0.83238279  1
  Fe  Fe36  1  0.49721545  0.16767233  0.50190863  1
  Ni  Ni37  1  0.33481299  0.99910689  0.66846286  1
  Ni  Ni38  1  0.49889237  0.16516431  0.83376621  1
  Ni  Ni39  1  0.50083633  0.50063768  0.50042089  1
  Fe  Fe40  1  0.33469818  0.33235945  0.66809501  1
  Cr  Cr41  1  0.49959397  0.49772280  0.83404776  1
  Fe  Fe42  1  0.49716814  0.83164971  0.49966009  1
  Cr  Cr43  1  0.33153045  0.66716742  0.66811591  1
  Fe  Fe44  1  0.49850835  0.83392997  0.83482492  1
  Cr  Cr45  1  0.83592805  0.16860342  0.49974885  1
  Cr  Cr46  1  0.66650124  0.00163104  0.66804163  1
  Fe  Fe47  1  0.83233533  0.16808690  0.83475524  1
  Ni  Ni48  1  0.83133919  0.50312736  0.50010487  1
  Fe  Fe49  1  0.66400450  0.33522407  0.66593693  1
  Cr  Cr50  1  0.83295597  0.50351430  0.83460733  1
  Cr  Cr51  1  0.83737007  0.82910548  0.50104688  1
  Fe  Fe52  1  0.66634412  0.66632175  0.66646602  1
  Fe  Fe53  1  0.83312602  0.83260890  0.83379236  1
" 