5379,Ni34Fe66_1,-243.056855518106, 218.926583574224,Ni34Fe66,"# generated using pymatgen
 data_FeNi2
_symmetry_space_group_name_H-M   'P 1'
_cell_length_a   7.41147881
_cell_length_b   7.41147881
_cell_length_c   10.48141385
_cell_angle_alpha   90.00000000
_cell_angle_beta   90.00000000
_cell_angle_gamma   90.00000000
_symmetry_Int_Tables_number   1
_chemical_formula_structural   FeNi2
_chemical_formula_sum   'Fe18 Ni36'
_cell_volume   575.74425240
_cell_formula_units_Z   18
loop_
 _symmetry_equiv_pos_site_id
 _symmetry_equiv_pos_as_xyz
  1  'x, y, z'
loop_
 _atom_site_type_symbol
 _atom_site_label
 _atom_site_symmetry_multiplicity
 _atom_site_fract_x
 _atom_site_fract_y
 _atom_site_fract_z
 _atom_site_occupancy
  Ni  Ni0  1  1.00225262  0.00502215  1.00345298  1
  Fe  Fe1  1  0.17058946  0.16983430  0.16958357  1
  Ni  Ni2  1  1.00212629  1.00342475  0.33737690  1
  Ni  Ni3  1  0.00381833  0.33642101  1.00366739  1
  Fe  Fe4  1  0.17089947  0.50408176  0.17071677  1
  Fe  Fe5  1  0.00445405  0.33695107  0.33691983  1
  Fe  Fe6  1  0.00395870  0.67110346  1.00365439  1
  Ni  Ni7  1  0.17051789  0.83718856  0.17073617  1
  Ni  Ni8  1  1.00372850  0.67058336  0.33707474  1
  Ni  Ni9  1  0.33790273  1.00373284  1.00359730  1
  Ni  Ni10  1  0.50399134  0.17090474  0.16967953  1
  Ni  Ni11  1  0.33813317  0.00399705  0.33725413  1
  Ni  Ni12  1  0.33667576  0.33803922  1.00286751  1
  Ni  Ni13  1  0.50362450  0.50279245  0.17128722  1
  Ni  Ni14  1  0.33779644  0.33791619  0.33753074  1
  Ni  Ni15  1  0.33882402  0.66947449  0.00382063  1
  Ni  Ni16  1  0.50277858  0.83754909  0.17174118  1
  Ni  Ni17  1  0.33721492  0.66933563  0.33702553  1
  Ni  Ni18  1  0.67109128  1.00287176  1.00335665  1
  Ni  Ni19  1  0.83636360  0.17052947  0.17129165  1
  Ni  Ni20  1  0.67098575  0.00400617  0.33705452  1
  Fe  Fe21  1  0.67014115  0.33688237  0.00405894  1
  Ni  Ni22  1  0.83673100  0.50316259  0.17092623  1
  Fe  Fe23  1  0.66953852  0.33627754  0.33659684  1
  Ni  Ni24  1  0.66947079  0.67104270  1.00357145  1
  Ni  Ni25  1  0.83795344  0.83755563  0.17035538  1
  Fe  Fe26  1  0.67029673  0.67152416  0.33583730  1
  Fe  Fe27  1  0.17021889  0.16979495  0.50409580  1
  Ni  Ni28  1  1.00250693  0.00431723  0.67041277  1
  Ni  Ni29  1  0.16990296  0.17052999  0.83643511  1
  Ni  Ni30  1  0.17059394  0.50450625  0.50353096  1
  Ni  Ni31  1  1.00325554  0.33688411  0.66983547  1
  Ni  Ni32  1  0.17081590  0.50350133  0.83735445  1
  Ni  Ni33  1  0.16934210  0.83608589  0.50400803  1
  Ni  Ni34  1  0.00414489  0.67004209  0.67152968  1
  Ni  Ni35  1  0.17047113  0.83721795  0.83651132  1
  Ni  Ni36  1  0.50380406  0.17101828  0.50386180  1
  Fe  Fe37  1  0.33538113  1.00309193  0.67049938  1
  Fe  Fe38  1  0.50351073  0.17016919  0.83749745  1
  Fe  Fe39  1  0.50247439  0.50440834  0.50358645  1
  Fe  Fe40  1  0.33545417  0.33780626  0.67035127  1
  Ni  Ni41  1  0.50329140  0.50368869  0.83665724  1
  Fe  Fe42  1  0.50282232  0.83712570  0.50341629  1
  Ni  Ni43  1  0.33740511  0.66966291  0.67040867  1
  Ni  Ni44  1  0.50329446  0.83667456  0.83667053  1
  Fe  Fe45  1  0.83796662  0.16944966  0.50389407  1
  Fe  Fe46  1  0.67165299  1.00312988  0.67035186  1
  Ni  Ni47  1  0.83767033  0.17052604  0.83664819  1
  Fe  Fe48  1  0.83829493  0.50441183  0.50406106  1
  Fe  Fe49  1  0.67141187  0.33760169  0.67059128  1
  Ni  Ni50  1  0.83714297  0.50313249  0.83656165  1
  Ni  Ni51  1  0.83847688  0.83734808  0.50338547  1
  Fe  Fe52  1  0.67178632  0.67051719  0.67173795  1
  Ni  Ni53  1  0.83748501  0.83759002  0.83750732  1
" 