1884,Ni34Fe46Cr18_12,-231.431606600816, 199.195138186822,Ni34Fe46Cr18,"# generated using pymatgen
 data_Cr11Fe25Ni18
_symmetry_space_group_name_H-M   'P 1'
_cell_length_a   7.43853715
_cell_length_b   7.43853715
_cell_length_c   10.51968013
_cell_angle_alpha   90.00000000
_cell_angle_beta   90.00000000
_cell_angle_gamma   90.00000000
_symmetry_Int_Tables_number   1
_chemical_formula_structural   Cr11Fe25Ni18
_chemical_formula_sum   'Cr11 Fe25 Ni18'
_cell_volume   582.07320488
_cell_formula_units_Z   1
loop_
 _symmetry_equiv_pos_site_id
 _symmetry_equiv_pos_as_xyz
  1  'x, y, z'
loop_
 _atom_site_type_symbol
 _atom_site_label
 _atom_site_symmetry_multiplicity
 _atom_site_fract_x
 _atom_site_fract_y
 _atom_site_fract_z
 _atom_site_occupancy
  Fe  Fe0  1  1.00153024  1.00040851  0.00202209  1
  Cr  Cr1  1  0.16812813  0.17073722  0.16650787  1
  Cr  Cr2  1  1.00009852  1.00151548  0.33644982  1
  Fe  Fe3  1  0.00378259  0.33722583  0.00195715  1
  Ni  Ni4  1  0.16809773  0.50242340  0.16985990  1
  Ni  Ni5  1  1.00093686  0.33790580  0.33507830  1
  Ni  Ni6  1  0.99949609  0.66823397  0.00198385  1
  Fe  Fe7  1  0.16823271  0.83205169  0.16750331  1
  Ni  Ni8  1  0.99944629  0.66633380  0.33398113  1
  Ni  Ni9  1  0.33608345  0.00402214  0.00202534  1
  Fe  Fe10  1  0.50250979  0.16918883  0.16818822  1
  Cr  Cr11  1  0.33674209  0.00319333  0.33507045  1
  Fe  Fe12  1  0.33451051  0.33479271  1.00158277  1
  Ni  Ni13  1  0.50152007  0.50288045  0.17093978  1
  Ni  Ni14  1  0.33677983  0.33681620  0.33480932  1
  Cr  Cr15  1  0.33481303  0.66768798  0.00365116  1
  Fe  Fe16  1  0.50280955  0.83478401  0.16888104  1
  Fe  Fe17  1  0.33581125  0.66583323  0.33252886  1
  Fe  Fe18  1  0.66838236  1.00006772  0.00325287  1
  Fe  Fe19  1  0.83390752  0.16943289  0.16891436  1
  Ni  Ni20  1  0.66878509  1.00186057  0.33427237  1
  Cr  Cr21  1  0.66760672  0.33647129  0.00237269  1
  Fe  Fe22  1  0.83664561  0.50287373  0.16966022  1
  Fe  Fe23  1  0.66902384  0.33585685  0.33499393  1
  Fe  Fe24  1  0.67080990  0.66944450  0.00262431  1
  Fe  Fe25  1  0.83470339  0.83344167  0.16793473  1
  Ni  Ni26  1  0.66987801  0.66751795  0.33379975  1
  Ni  Ni27  1  0.16822034  0.17000936  0.50420164  1
  Ni  Ni28  1  1.00187691  0.00224569  0.66794857  1
  Fe  Fe29  1  0.16992332  0.16942133  0.83412707  1
  Cr  Cr30  1  0.16750983  0.50002686  0.50042654  1
  Ni  Ni31  1  0.00218471  0.33512608  0.66918525  1
  Fe  Fe32  1  0.16714207  0.49977803  0.83477211  1
  Cr  Cr33  1  0.16833833  0.83575766  0.50226780  1
  Fe  Fe34  1  1.00015090  0.66777980  0.66964708  1
  Cr  Cr35  1  0.16720201  0.83636239  0.83394600  1
  Fe  Fe36  1  0.50163809  0.17083705  0.50307263  1
  Ni  Ni37  1  0.33480030  0.00542049  0.66894329  1
  Ni  Ni38  1  0.49926467  0.16873491  0.83499966  1
  Fe  Fe39  1  0.50279797  0.50022672  0.50121118  1
  Ni  Ni40  1  0.33619381  0.33365241  0.67091467  1
  Fe  Fe41  1  0.50271358  0.50037203  0.83413970  1
  Cr  Cr42  1  0.50302632  0.83508507  0.50240481  1
  Fe  Fe43  1  0.33503523  0.66670812  0.66938752  1
  Cr  Cr44  1  0.50369215  0.83692405  0.83497418  1
  Fe  Fe45  1  0.83583332  0.16948925  0.50259152  1
  Fe  Fe46  1  0.66917986  0.00346055  0.66801334  1
  Cr  Cr47  1  0.83610565  0.16834510  0.83484599  1
  Ni  Ni48  1  0.83424770  0.50096998  0.50087984  1
  Fe  Fe49  1  0.66810784  0.33530151  0.66855612  1
  Ni  Ni50  1  0.83650944  0.50396132  0.83535626  1
  Fe  Fe51  1  0.83510886  0.83441509  0.50245820  1
  Fe  Fe52  1  0.67056407  0.66698881  0.66841239  1
  Ni  Ni53  1  0.83504727  0.83308429  0.83495673  1
" 