2883,Ni34Fe26Cr38_14,-224.263844719758, 177.875506649534,Ni34Fe26Cr38,"# generated using pymatgen
 data_Cr11Fe7Ni9
_symmetry_space_group_name_H-M   'P 1'
_cell_length_a   7.48718490
_cell_length_b   7.48718490
_cell_length_c   10.58847843
_cell_angle_alpha   90.00000000
_cell_angle_beta   90.00000000
_cell_angle_gamma   90.00000000
_symmetry_Int_Tables_number   1
_chemical_formula_structural   Cr11Fe7Ni9
_chemical_formula_sum   'Cr22 Fe14 Ni18'
_cell_volume   593.56826511
_cell_formula_units_Z   2
loop_
 _symmetry_equiv_pos_site_id
 _symmetry_equiv_pos_as_xyz
  1  'x, y, z'
loop_
 _atom_site_type_symbol
 _atom_site_label
 _atom_site_symmetry_multiplicity
 _atom_site_fract_x
 _atom_site_fract_y
 _atom_site_fract_z
 _atom_site_occupancy
  Cr  Cr0  1  0.00041413  0.00052583  0.00126222  1
  Fe  Fe1  1  0.16382066  0.16675045  0.16491143  1
  Ni  Ni2  1  -0.00066148  -0.00094613  0.33064015  1
  Ni  Ni3  1  0.00089903  0.33081701  0.99580024  1
  Ni  Ni4  1  0.16575155  0.49741517  0.16239195  1
  Cr  Cr5  1  0.99856984  0.33021852  0.33124396  1
  Cr  Cr6  1  -0.00002985  0.66601465  -0.00018215  1
  Ni  Ni7  1  0.16326273  0.83005404  0.16529101  1
  Cr  Cr8  1  -0.00069718  0.66887759  0.33237959  1
  Cr  Cr9  1  0.32849876  0.99657199  0.99658502  1
  Cr  Cr10  1  0.49988704  0.16678270  0.16725424  1
  Cr  Cr11  1  0.32704091  0.99692482  0.33245063  1
  Ni  Ni12  1  0.32747997  0.33284755  0.00016389  1
  Cr  Cr13  1  0.49503050  0.49722784  0.16464467  1
  Fe  Fe14  1  0.33038674  0.33280092  0.33236028  1
  Ni  Ni15  1  0.33088189  0.66542668  0.99776379  1
  Cr  Cr16  1  0.49956692  0.83146862  0.16137302  1
  Cr  Cr17  1  0.33198724  0.66637424  0.33190702  1
  Cr  Cr18  1  0.66686140  0.99780058  0.99772867  1
  Ni  Ni19  1  0.83348120  0.16436838  0.16591722  1
  Fe  Fe20  1  0.66757429  0.99731718  0.33157447  1
  Cr  Cr21  1  0.66804433  0.33289898  0.99775683  1
  Cr  Cr22  1  0.83393461  0.49865365  0.16386050  1
  Ni  Ni23  1  0.66547340  0.33221564  0.33290294  1
  Ni  Ni24  1  0.66443202  0.66559472  0.99803672  1
  Ni  Ni25  1  0.83409354  0.83552784  0.16766959  1
  Cr  Cr26  1  0.66448606  0.66357362  0.33371460  1
  Fe  Fe27  1  0.16608377  0.16294960  0.49961701  1
  Cr  Cr28  1  0.00187225  -0.00080377  0.66530343  1
  Fe  Fe29  1  0.16654437  0.16661355  0.83100985  1
  Cr  Cr30  1  0.16538435  0.49915595  0.50084737  1
  Fe  Fe31  1  0.00099398  0.33386932  0.66762838  1
  Fe  Fe32  1  0.16648541  0.49921313  0.83176209  1
  Ni  Ni33  1  0.16506599  0.83113263  0.50050266  1
  Fe  Fe34  1  0.00041983  0.66464566  0.66557997  1
  Ni  Ni35  1  0.16689985  0.82879066  0.83024933  1
  Cr  Cr36  1  0.49831183  0.16493583  0.49789976  1
  Ni  Ni37  1  0.33011079  0.99658270  0.66555476  1
  Cr  Cr38  1  0.49746559  0.16356529  0.83045334  1
  Fe  Fe39  1  0.49790441  0.50019813  0.50049241  1
  Ni  Ni40  1  0.33067207  0.33139727  0.66402397  1
  Cr  Cr41  1  0.49516914  0.50068158  0.83376202  1
  Ni  Ni42  1  0.49827058  0.83242370  0.50312754  1
  Ni  Ni43  1  0.33358855  0.66741840  0.66560471  1
  Ni  Ni44  1  0.49648386  0.82978067  0.82991137  1
  Cr  Cr45  1  0.83210777  0.16376288  0.49834997  1
  Fe  Fe46  1  0.66195096  0.99576255  0.66539041  1
  Fe  Fe47  1  0.83498872  0.16575843  0.83171940  1
  Fe  Fe48  1  0.83128792  0.50074256  0.49962502  1
  Cr  Cr49  1  0.66699369  0.33538271  0.66613398  1
  Fe  Fe50  1  0.83360324  0.50088594  0.83163794  1
  Fe  Fe51  1  0.83213023  0.83216959  0.49946334  1
  Ni  Ni52  1  0.66481447  0.66531123  0.66371608  1
  Cr  Cr53  1  0.83130779  0.83095243  0.83061303  1
" 