1097,Ni34Cr66_2,-225.098412214034, 126.258133565,Ni34Cr66,"# generated using pymatgen
 data_CrNi2
_symmetry_space_group_name_H-M   'P 1'
_cell_length_a   7.50606865
_cell_length_b   7.50606865
_cell_length_c   10.61518408
_cell_angle_alpha   90.00000000
_cell_angle_beta   90.00000000
_cell_angle_gamma   90.00000000
_symmetry_Int_Tables_number   1
_chemical_formula_structural   CrNi2
_chemical_formula_sum   'Cr18 Ni36'
_cell_volume   598.07079251
_cell_formula_units_Z   18
loop_
 _symmetry_equiv_pos_site_id
 _symmetry_equiv_pos_as_xyz
  1  'x, y, z'
loop_
 _atom_site_type_symbol
 _atom_site_label
 _atom_site_symmetry_multiplicity
 _atom_site_fract_x
 _atom_site_fract_y
 _atom_site_fract_z
 _atom_site_occupancy
  Ni  Ni0  1  0.99613612  0.00040692  0.99604293  1
  Cr  Cr1  1  0.16356416  0.16496922  0.16446571  1
  Ni  Ni2  1  0.99382089  0.99619512  0.33133840  1
  Ni  Ni3  1  -0.00135070  0.32770864  0.99597834  1
  Ni  Ni4  1  0.16680377  0.49661396  0.16542031  1
  Ni  Ni5  1  -0.00246490  0.33310610  0.33261601  1
  Cr  Cr6  1  0.99713768  0.66355382  0.00003829  1
  Cr  Cr7  1  0.16299178  0.83144892  0.16537630  1
  Ni  Ni8  1  0.99636960  0.66291307  0.33176709  1
  Ni  Ni9  1  0.33001544  -0.00123317  0.99618563  1
  Cr  Cr10  1  0.49776919  0.16614778  0.16530863  1
  Ni  Ni11  1  0.33320881  -0.00257458  0.33272938  1
  Ni  Ni12  1  0.32976547  0.33166211  -0.00159468  1
  Ni  Ni13  1  0.49575304  0.49770518  0.16309580  1
  Ni  Ni14  1  0.33079489  0.33295872  0.33048887  1
  Ni  Ni15  1  0.33267003  0.66185070  -0.00073484  1
  Cr  Cr16  1  0.49895459  0.82964947  0.16372831  1
  Ni  Ni17  1  0.33070425  0.66183780  0.33042986  1
  Ni  Ni18  1  0.66601042  -0.00246355  0.99717983  1
  Cr  Cr19  1  0.83093450  0.16261624  0.16403542  1
  Ni  Ni20  1  0.66514355  0.99630232  0.33401041  1
  Ni  Ni21  1  0.66379613  0.33044975  0.99724989  1
  Cr  Cr22  1  0.82884523  0.49711495  0.16502025  1
  Ni  Ni23  1  0.66395056  0.33068795  0.33271211  1
  Ni  Ni24  1  0.66192925  0.66421610  -0.00044357  1
  Ni  Ni25  1  0.82975422  0.83135061  0.16494231  1
  Ni  Ni26  1  0.66514082  0.66523563  0.33113662  1
  Cr  Cr27  1  0.16297250  0.16635056  0.49559277  1
  Ni  Ni28  1  0.99324503  -0.00049712  0.66495276  1
  Ni  Ni29  1  0.16104620  0.16499372  0.83226291  1
  Ni  Ni30  1  0.16215979  0.49740946  0.49733381  1
  Ni  Ni31  1  0.99632563  0.32987979  0.66344727  1
  Cr  Cr32  1  0.16479391  0.49557350  0.82841606  1
  Cr  Cr33  1  0.16309391  0.82833479  0.49660012  1
  Ni  Ni34  1  0.99607599  0.66279911  0.66053291  1
  Cr  Cr35  1  0.16410784  0.83249258  0.83022559  1
  Ni  Ni36  1  0.50052118  0.16336453  0.49615396  1
  Cr  Cr37  1  0.33259822  -0.00114252  0.66304251  1
  Cr  Cr38  1  0.49895061  0.16568759  0.83156312  1
  Cr  Cr39  1  0.49784300  0.49699014  0.49827025  1
  Ni  Ni40  1  0.32957284  0.33168929  0.66338085  1
  Cr  Cr41  1  0.49854402  0.49793912  0.83123393  1
  Ni  Ni42  1  0.50036829  0.83132135  0.49677009  1
  Ni  Ni43  1  0.33080249  0.66201998  0.66230410  1
  Cr  Cr44  1  0.49823984  0.82863941  0.83125161  1
  Ni  Ni45  1  0.82886991  0.16420364  0.49782030  1
  Ni  Ni46  1  0.66718968  -0.00167364  0.66118072  1
  Ni  Ni47  1  0.83282027  0.16407694  0.83086010  1
  Ni  Ni48  1  0.83219457  0.49730886  0.49774902  1
  Ni  Ni49  1  0.66632190  0.32862571  0.66241759  1
  Cr  Cr50  1  0.82869311  0.49457376  0.82889714  1
  Ni  Ni51  1  0.82894253  0.83070776  0.49713199  1
  Ni  Ni52  1  0.66533984  0.66517600  0.66137511  1
  Cr  Cr53  1  0.82985594  0.83236380  0.83034764  1
" 