4409,Ni34Fe26Cr38_6,-224.352197995296, 178.497365642871,Ni34Fe26Cr38,"# generated using pymatgen
 data_Cr11Fe7Ni9
_symmetry_space_group_name_H-M   'P 1'
_cell_length_a   7.48545810
_cell_length_b   7.48545810
_cell_length_c   10.58603636
_cell_angle_alpha   90.00000000
_cell_angle_beta   90.00000000
_cell_angle_gamma   90.00000000
_symmetry_Int_Tables_number   1
_chemical_formula_structural   Cr11Fe7Ni9
_chemical_formula_sum   'Cr22 Fe14 Ni18'
_cell_volume   593.15766699
_cell_formula_units_Z   2
loop_
 _symmetry_equiv_pos_site_id
 _symmetry_equiv_pos_as_xyz
  1  'x, y, z'
loop_
 _atom_site_type_symbol
 _atom_site_label
 _atom_site_symmetry_multiplicity
 _atom_site_fract_x
 _atom_site_fract_y
 _atom_site_fract_z
 _atom_site_occupancy
  Ni  Ni0  1  -0.00060585  0.99818439  0.99851138  1
  Cr  Cr1  1  0.16738682  0.16492491  0.16333474  1
  Cr  Cr2  1  -0.00107753  0.99646152  0.33207699  1
  Fe  Fe3  1  0.99747194  0.33334235  -0.00099742  1
  Ni  Ni4  1  0.16395003  0.50200466  0.16314888  1
  Cr  Cr5  1  0.00175176  0.33137499  0.33125999  1
  Ni  Ni6  1  -0.00009035  0.66701713  0.00083734  1
  Fe  Fe7  1  0.16578847  0.83063446  0.16324944  1
  Fe  Fe8  1  0.99757727  0.66529460  0.32867152  1
  Fe  Fe9  1  0.33244169  0.00015985  0.99835424  1
  Ni  Ni10  1  0.50113055  0.16759099  0.16661502  1
  Cr  Cr11  1  0.33187959  -0.00010370  0.33460267  1
  Cr  Cr12  1  0.33447654  0.33278666  0.00100323  1
  Ni  Ni13  1  0.49776892  0.49775954  0.16690687  1
  Fe  Fe14  1  0.33488492  0.33113005  0.33155332  1
  Ni  Ni15  1  0.32856169  0.66252641  0.00003690  1
  Cr  Cr16  1  0.49742884  0.83468449  0.16291602  1
  Cr  Cr17  1  0.33206218  0.66268573  0.33339086  1
  Cr  Cr18  1  0.66936700  0.00119075  0.99564135  1
  Cr  Cr19  1  0.82985895  0.16554330  0.16538227  1
  Ni  Ni20  1  0.66406555  -0.00030050  0.33362130  1
  Ni  Ni21  1  0.66509233  0.33066790  -0.00101511  1
  Fe  Fe22  1  0.83045564  0.49777433  0.16565296  1
  Ni  Ni23  1  0.66220112  0.33363687  0.33149824  1
  Cr  Cr24  1  0.66561424  0.66263116  0.00052706  1
  Fe  Fe25  1  0.83303280  0.83105144  0.16517590  1
  Fe  Fe26  1  0.66424796  0.66619615  0.33108425  1
  Ni  Ni27  1  0.16762848  0.16438696  0.49941617  1
  Cr  Cr28  1  0.99822970  -0.00022806  0.66432775  1
  Fe  Fe29  1  0.16536724  0.16467998  0.83269168  1
  Cr  Cr30  1  0.16354521  0.49877790  0.49985239  1
  Fe  Fe31  1  0.00043809  0.33058857  0.66658193  1
  Fe  Fe32  1  0.16426566  0.49693540  0.83426445  1
  Ni  Ni33  1  0.16651193  0.83214216  0.49862520  1
  Fe  Fe34  1  0.00069699  0.66731968  0.66711845  1
  Cr  Cr35  1  0.16726539  0.83059998  0.83535208  1
  Ni  Ni36  1  0.49857205  0.16494441  0.49735299  1
  Ni  Ni37  1  0.33110651  0.00119177  0.66376482  1
  Ni  Ni38  1  0.49926036  0.16551358  0.83218795  1
  Ni  Ni39  1  0.50006888  0.49704589  0.49588872  1
  Cr  Cr40  1  0.33273623  0.33041863  0.66274740  1
  Cr  Cr41  1  0.49753209  0.49805839  0.83376004  1
  Ni  Ni42  1  0.49761226  0.83427029  0.50010718  1
  Cr  Cr43  1  0.33308438  0.66549296  0.66414468  1
  Cr  Cr44  1  0.49685330  0.83507151  0.83284372  1
  Cr  Cr45  1  0.82974687  0.16725687  0.49923347  1
  Fe  Fe46  1  0.66183966  0.00119958  0.66653526  1
  Ni  Ni47  1  0.83319336  0.16678660  0.83188794  1
  Cr  Cr48  1  0.83136139  0.49767401  0.49882647  1
  Fe  Fe49  1  0.66285304  0.32861866  0.66617724  1
  Cr  Cr50  1  0.83514268  0.49708208  0.83136774  1
  Cr  Cr51  1  0.83116403  0.83092409  0.49757643  1
  Cr  Cr52  1  0.66516760  0.66635226  0.66509122  1
  Ni  Ni53  1  0.83562701  0.83363891  0.83282989  1
" 