2702,Ni34Cr66_6,-225.862902513524, 141.163050319199,Ni34Cr66,"# generated using pymatgen
 data_CrNi2
_symmetry_space_group_name_H-M   'P 1'
_cell_length_a   7.49451548
_cell_length_b   7.49451548
_cell_length_c   10.59884544
_cell_angle_alpha   90.00000000
_cell_angle_beta   90.00000000
_cell_angle_gamma   90.00000000
_symmetry_Int_Tables_number   1
_chemical_formula_structural   CrNi2
_chemical_formula_sum   'Cr18 Ni36'
_cell_volume   595.31343160
_cell_formula_units_Z   18
loop_
 _symmetry_equiv_pos_site_id
 _symmetry_equiv_pos_as_xyz
  1  'x, y, z'
loop_
 _atom_site_type_symbol
 _atom_site_label
 _atom_site_symmetry_multiplicity
 _atom_site_fract_x
 _atom_site_fract_y
 _atom_site_fract_z
 _atom_site_occupancy
  Cr  Cr0  1  0.99695460  0.99815999  0.00005602  1
  Ni  Ni1  1  0.16771556  0.16439443  0.16456177  1
  Cr  Cr2  1  -0.00111827  0.99792544  0.33048424  1
  Cr  Cr3  1  -0.00171748  0.33157418  -0.00109549  1
  Ni  Ni4  1  0.16612567  0.49956193  0.16412984  1
  Cr  Cr5  1  -0.00067185  0.33022586  0.32958271  1
  Ni  Ni6  1  0.99624090  0.66482028  0.00078651  1
  Ni  Ni7  1  0.16793126  0.83051700  0.16413536  1
  Cr  Cr8  1  0.00120359  0.66634468  0.32857634  1
  Ni  Ni9  1  0.33234020  0.99692345  -0.00095894  1
  Cr  Cr10  1  0.49768288  0.16400820  0.16432582  1
  Ni  Ni11  1  0.33071190  0.99715864  0.33254050  1
  Ni  Ni12  1  0.33132519  0.33192663  0.99807020  1
  Cr  Cr13  1  0.49821398  0.49777033  0.16466185  1
  Ni  Ni14  1  0.33096224  0.33166166  0.33357034  1
  Ni  Ni15  1  0.33307031  0.66560227  -0.00049058  1
  Ni  Ni16  1  0.49590588  0.83153098  0.16267670  1
  Ni  Ni17  1  0.33093229  0.66561383  0.33251064  1
  Ni  Ni18  1  0.66494501  0.99591764  -0.00151551  1
  Ni  Ni19  1  0.82979783  0.16602612  0.16395901  1
  Cr  Cr20  1  0.66460635  -0.00182604  0.33178103  1
  Ni  Ni21  1  0.66604997  0.33247973  0.99748673  1
  Ni  Ni22  1  0.83115190  0.49841066  0.16243956  1
  Ni  Ni23  1  0.66373195  0.33043711  0.33253846  1
  Ni  Ni24  1  0.66513339  0.66604059  0.99628406  1
  Ni  Ni25  1  0.83058977  0.83008400  0.16148825  1
  Cr  Cr26  1  0.66271289  0.66654244  0.33257789  1
  Ni  Ni27  1  0.16590782  0.16332749  0.49974943  1
  Ni  Ni28  1  -0.00153015  0.00113168  0.66363760  1
  Ni  Ni29  1  0.16391071  0.16337906  0.83015689  1
  Ni  Ni30  1  0.16735266  0.49724365  0.49660218  1
  Ni  Ni31  1  -0.00170792  0.32733388  0.66501750  1
  Cr  Cr32  1  0.16410766  0.49769967  0.83329838  1
  Ni  Ni33  1  0.16661587  0.83380430  0.49780124  1
  Cr  Cr34  1  0.99650764  0.66546765  0.66403927  1
  Cr  Cr35  1  0.16555749  0.83461468  0.83198236  1
  Ni  Ni36  1  0.49590020  0.16457678  0.49555996  1
  Ni  Ni37  1  0.32990160  -0.00180260  0.66296627  1
  Cr  Cr38  1  0.49624936  0.16296516  0.83577154  1
  Ni  Ni39  1  0.49671296  0.49811863  0.49629760  1
  Cr  Cr40  1  0.33040776  0.33088426  0.66411499  1
  Ni  Ni41  1  0.50165698  0.50095839  0.83449138  1
  Ni  Ni42  1  0.49574156  0.83196553  0.49834317  1
  Cr  Cr43  1  0.33722162  0.66554240  0.66266639  1
  Ni  Ni44  1  0.49992392  0.82989241  0.83358121  1
  Ni  Ni45  1  0.83240045  0.16407066  0.49902300  1
  Cr  Cr46  1  0.66410849  0.99525576  0.66419259  1
  Ni  Ni47  1  0.83280845  0.16473820  0.83119353  1
  Cr  Cr48  1  0.83121124  0.49750085  0.49868021  1
  Cr  Cr49  1  0.66416350  0.33329205  0.66516581  1
  Ni  Ni50  1  0.82864063  0.49927288  0.83262983  1
  Ni  Ni51  1  0.83197448  0.83339063  0.50064764  1
  Ni  Ni52  1  0.66364589  0.66611523  0.66612049  1
  Ni  Ni53  1  0.82912457  0.83047199  0.83214953  1
" 