2204,Ni34Fe26Cr38_5,-224.113023577852, 176.392394616573,Ni34Fe26Cr38,"# generated using pymatgen
 data_Cr11Fe7Ni9
_symmetry_space_group_name_H-M   'P 1'
_cell_length_a   7.48487287
_cell_length_b   7.48487287
_cell_length_c   10.58520872
_cell_angle_alpha   90.00000000
_cell_angle_beta   90.00000000
_cell_angle_gamma   90.00000000
_symmetry_Int_Tables_number   1
_chemical_formula_structural   Cr11Fe7Ni9
_chemical_formula_sum   'Cr22 Fe14 Ni18'
_cell_volume   593.01855479
_cell_formula_units_Z   2
loop_
 _symmetry_equiv_pos_site_id
 _symmetry_equiv_pos_as_xyz
  1  'x, y, z'
loop_
 _atom_site_type_symbol
 _atom_site_label
 _atom_site_symmetry_multiplicity
 _atom_site_fract_x
 _atom_site_fract_y
 _atom_site_fract_z
 _atom_site_occupancy
  Cr  Cr0  1  0.99679416  0.99873036  0.99825266  1
  Cr  Cr1  1  0.16551195  0.16407782  0.16831383  1
  Ni  Ni2  1  -0.00083172  0.00290458  0.33295084  1
  Cr  Cr3  1  0.99867148  0.33141009  0.99760100  1
  Cr  Cr4  1  0.16843492  0.49835449  0.16521933  1
  Fe  Fe5  1  -0.00061918  0.32908524  0.33419649  1
  Cr  Cr6  1  0.00120045  0.66617887  0.99377753  1
  Cr  Cr7  1  0.16898896  0.83402408  0.16519071  1
  Cr  Cr8  1  0.00123066  0.66740188  0.33389957  1
  Ni  Ni9  1  0.33526635  0.99740842  0.99683859  1
  Cr  Cr10  1  0.49760831  0.16488728  0.16276605  1
  Fe  Fe11  1  0.33270800  0.99723042  0.33345387  1
  Ni  Ni12  1  0.33326116  0.33276870  0.99860240  1
  Ni  Ni13  1  0.49558783  0.49964312  0.16660965  1
  Fe  Fe14  1  0.33170443  0.33341320  0.33402346  1
  Fe  Fe15  1  0.33377698  0.66698159  0.99818074  1
  Fe  Fe16  1  0.49696792  0.83199537  0.16466155  1
  Ni  Ni17  1  0.33377238  0.66379774  0.33096735  1
  Ni  Ni18  1  0.66323364  0.99863303  0.99694878  1
  Ni  Ni19  1  0.83233868  0.16462993  0.16588629  1
  Cr  Cr20  1  0.66736161  -0.00040920  0.33305601  1
  Cr  Cr21  1  0.66476748  0.32919645  0.99844763  1
  Cr  Cr22  1  0.83050808  0.49674950  0.16620324  1
  Cr  Cr23  1  0.66389478  0.33102473  0.33124022  1
  Cr  Cr24  1  0.66308043  0.66744159  0.00015236  1
  Cr  Cr25  1  0.83163636  0.83458062  0.16726678  1
  Cr  Cr26  1  0.66005837  0.66595298  0.33269388  1
  Fe  Fe27  1  0.16539022  0.16738544  0.49859336  1
  Cr  Cr28  1  0.99701688  0.99867173  0.66625133  1
  Cr  Cr29  1  0.17014926  0.16556638  0.83157793  1
  Fe  Fe30  1  0.16745609  0.49608475  0.49887569  1
  Ni  Ni31  1  0.00108665  0.33293259  0.66512109  1
  Fe  Fe32  1  0.16568428  0.49911216  0.83087078  1
  Cr  Cr33  1  0.16669003  0.83387199  0.49804693  1
  Fe  Fe34  1  0.99703938  0.66385719  0.66803697  1
  Ni  Ni35  1  0.16680979  0.83181171  0.83284309  1
  Fe  Fe36  1  0.49776750  0.16374880  0.50096998  1
  Fe  Fe37  1  0.33626795  -0.00004964  0.66670342  1
  Ni  Ni38  1  0.49740217  0.16211325  0.83129335  1
  Fe  Fe39  1  0.49618578  0.49958372  0.49883513  1
  Ni  Ni40  1  0.32987921  0.33185061  0.66302811  1
  Cr  Cr41  1  0.49972141  0.49718699  0.83244733  1
  Ni  Ni42  1  0.49799344  0.83314319  0.49910073  1
  Cr  Cr43  1  0.33230374  0.66535233  0.66705992  1
  Ni  Ni44  1  0.49916787  0.83605892  0.83309055  1
  Ni  Ni45  1  0.83400264  0.16570488  0.49847068  1
  Ni  Ni46  1  0.66472348  0.99650993  0.66569300  1
  Fe  Fe47  1  0.82909388  0.16322923  0.83091647  1
  Cr  Cr48  1  0.83246419  0.49936333  0.50096671  1
  Cr  Cr49  1  0.66439151  0.32963140  0.66668234  1
  Ni  Ni50  1  0.83435634  0.50054685  0.82920444  1
  Fe  Fe51  1  0.82973697  0.83478416  0.50069017  1
  Ni  Ni52  1  0.66554040  0.66950239  0.66437526  1
  Ni  Ni53  1  0.83046389  0.83005222  0.82855377  1
" 