2196,Ni34Fe33Cr32_0,-227.197769140691, 187.991854486374,Ni34Fe33Cr32,"# generated using pymatgen
 data_CrFeNi
_symmetry_space_group_name_H-M   'P 1'
_cell_length_a   7.46514990
_cell_length_b   7.46514990
_cell_length_c   10.55731624
_cell_angle_alpha   90.00000000
_cell_angle_beta   90.00000000
_cell_angle_gamma   90.00000000
_symmetry_Int_Tables_number   1
_chemical_formula_structural   CrFeNi
_chemical_formula_sum   'Cr18 Fe18 Ni18'
_cell_volume   588.34300793
_cell_formula_units_Z   18
loop_
 _symmetry_equiv_pos_site_id
 _symmetry_equiv_pos_as_xyz
  1  'x, y, z'
loop_
 _atom_site_type_symbol
 _atom_site_label
 _atom_site_symmetry_multiplicity
 _atom_site_fract_x
 _atom_site_fract_y
 _atom_site_fract_z
 _atom_site_occupancy
  Ni  Ni0  1  0.99960253  0.00136928  0.00048565  1
  Fe  Fe1  1  0.16694596  0.16659478  0.16675873  1
  Fe  Fe2  1  0.00206560  0.00140184  0.33331192  1
  Fe  Fe3  1  0.00109730  0.33260672  0.00093268  1
  Ni  Ni4  1  0.16685852  0.49877244  0.16735589  1
  Fe  Fe5  1  0.00040725  0.33278586  0.33299981  1
  Cr  Cr6  1  0.99971231  0.66747104  1.00006742  1
  Fe  Fe7  1  0.16927976  0.83416865  0.16740017  1
  Cr  Cr8  1  0.00162821  0.66614461  0.33287307  1
  Fe  Fe9  1  0.33405683  0.00211383  0.00162514  1
  Ni  Ni10  1  0.49994445  0.16496223  0.16629572  1
  Ni  Ni11  1  0.33367646  0.99924680  0.33347175  1
  Fe  Fe12  1  0.33357406  0.33200936  0.00021924  1
  Ni  Ni13  1  0.49933515  0.50031555  0.16507527  1
  Cr  Cr14  1  0.33364174  0.33229048  0.33230392  1
  Cr  Cr15  1  0.33370365  0.66500286  0.00165426  1
  Ni  Ni16  1  0.49919057  0.83509727  0.16780833  1
  Ni  Ni17  1  0.33254896  0.66927431  0.33260483  1
  Ni  Ni18  1  0.66673629  0.00163920  0.00013818  1
  Fe  Fe19  1  0.83282617  0.16745135  0.16606735  1
  Ni  Ni20  1  0.66448105  0.00132855  0.33334117  1
  Fe  Fe21  1  0.66572223  0.33278809  0.00155819  1
  Ni  Ni22  1  0.83421389  0.49802216  0.16657859  1
  Cr  Cr23  1  0.66732324  0.33229675  0.33287970  1
  Fe  Fe24  1  0.66683806  0.66725808  0.00072689  1
  Cr  Cr25  1  0.83206363  0.83541432  0.16524029  1
  Cr  Cr26  1  0.66607360  0.66650103  0.33221931  1
  Ni  Ni27  1  0.16642942  0.16466916  0.50079756  1
  Ni  Ni28  1  0.00143398  0.00054511  0.66706745  1
  Fe  Fe29  1  0.16655844  0.16706984  0.83322178  1
  Cr  Cr30  1  0.16586247  0.49947037  0.50005354  1
  Ni  Ni31  1  0.00167083  0.33241039  0.66650227  1
  Ni  Ni32  1  0.16781890  0.49770751  0.83286627  1
  Fe  Fe33  1  0.16853232  0.83568149  0.49998667  1
  Cr  Cr34  1  0.99928414  0.66738015  0.66741113  1
  Cr  Cr35  1  0.16592255  0.83449556  0.83258535  1
  Fe  Fe36  1  0.49910522  0.16392312  0.49967247  1
  Fe  Fe37  1  0.33303386  0.00064917  0.66536831  1
  Ni  Ni38  1  0.49902700  0.16623336  0.83406937  1
  Cr  Cr39  1  0.50019828  0.50248914  0.50064942  1
  Cr  Cr40  1  0.33299967  0.33181157  0.66881689  1
  Fe  Fe41  1  0.49975841  0.49988550  0.83387099  1
  Fe  Fe42  1  0.49866367  0.83481068  0.49982001  1
  Fe  Fe43  1  0.33394171  0.66732115  0.66680995  1
  Cr  Cr44  1  0.50237840  0.83427196  0.83262260  1
  Cr  Cr45  1  0.83501593  0.16703601  0.49945410  1
  Fe  Fe46  1  0.66668230  0.99915911  0.66731447  1
  Cr  Cr47  1  0.83412905  0.16451817  0.83382285  1
  Ni  Ni48  1  0.83421352  0.49948687  0.50066296  1
  Cr  Cr49  1  0.66606930  0.33360741  0.66599007  1
  Cr  Cr50  1  0.83393245  0.50085547  0.83309629  1
  Cr  Cr51  1  0.83202886  0.83426695  0.50171603  1
  Ni  Ni52  1  0.66649403  0.66775528  0.66742917  1
  Ni  Ni53  1  0.83213148  0.83502568  0.83319221  1
" 