2530,Ni34Fe46Cr18_1,-231.729441038068, 195.615594358717,Ni34Fe46Cr18,"# generated using pymatgen
 data_Cr11Fe25Ni18
_symmetry_space_group_name_H-M   'P 1'
_cell_length_a   7.43810781
_cell_length_b   7.43810781
_cell_length_c   10.51907295
_cell_angle_alpha   90.00000000
_cell_angle_beta   90.00000000
_cell_angle_gamma   90.00000000
_symmetry_Int_Tables_number   1
_chemical_formula_structural   Cr11Fe25Ni18
_chemical_formula_sum   'Cr11 Fe25 Ni18'
_cell_volume   581.97242132
_cell_formula_units_Z   1
loop_
 _symmetry_equiv_pos_site_id
 _symmetry_equiv_pos_as_xyz
  1  'x, y, z'
loop_
 _atom_site_type_symbol
 _atom_site_label
 _atom_site_symmetry_multiplicity
 _atom_site_fract_x
 _atom_site_fract_y
 _atom_site_fract_z
 _atom_site_occupancy
  Fe  Fe0  1  1.00008116  1.00078589  1.00025877  1
  Ni  Ni1  1  0.16872091  0.16653263  0.16851124  1
  Fe  Fe2  1  1.00056953  0.00519310  0.33496335  1
  Cr  Cr3  1  1.00157307  0.33382614  0.00319161  1
  Cr  Cr4  1  0.16786851  0.50271543  0.16954825  1
  Ni  Ni5  1  1.00027510  0.33427162  0.33677368  1
  Fe  Fe6  1  0.99924159  0.67077212  1.00140128  1
  Cr  Cr7  1  0.16596517  0.83751934  0.16833149  1
  Fe  Fe8  1  0.99894763  0.66783091  0.33502213  1
  Fe  Fe9  1  0.33806433  0.00318238  1.00168683  1
  Ni  Ni10  1  0.50318118  0.16785542  0.16659614  1
  Ni  Ni11  1  0.33685001  0.00206455  0.33417141  1
  Fe  Fe12  1  0.33909586  0.33277435  0.00238394  1
  Ni  Ni13  1  0.50507451  0.49948475  0.16900859  1
  Cr  Cr14  1  0.33225459  0.33353510  0.33347726  1
  Cr  Cr15  1  0.33927184  0.66984666  0.00361058  1
  Ni  Ni16  1  0.50369903  0.83791152  0.17252304  1
  Fe  Fe17  1  0.33829030  0.67015405  0.33497358  1
  Ni  Ni18  1  0.66844109  1.00143383  1.00188762  1
  Fe  Fe19  1  0.83392796  0.16753966  0.16980926  1
  Ni  Ni20  1  0.66830584  1.00007174  0.33405052  1
  Fe  Fe21  1  0.66707431  0.33435691  0.00195940  1
  Ni  Ni22  1  0.83388213  0.50240692  0.17018846  1
  Fe  Fe23  1  0.66985161  0.33376765  0.33353637  1
  Cr  Cr24  1  0.66735545  0.67078934  0.00230224  1
  Ni  Ni25  1  0.83520713  0.83645326  0.16826395  1
  Ni  Ni26  1  0.66839371  0.66976888  0.33325576  1
  Fe  Fe27  1  0.16714886  0.16810217  0.50221979  1
  Ni  Ni28  1  0.00197546  0.00591579  0.67040740  1
  Fe  Fe29  1  0.17068763  0.16678890  0.83543216  1
  Fe  Fe30  1  0.16631332  0.50136308  0.50326170  1
  Fe  Fe31  1  1.00090257  0.33435068  0.66740418  1
  Cr  Cr32  1  0.16958395  0.50304435  0.83402285  1
  Cr  Cr33  1  0.16906605  0.83597667  0.50156038  1
  Fe  Fe34  1  1.00073812  0.67107389  0.66932000  1
  Fe  Fe35  1  0.16999495  0.83670810  0.83377611  1
  Cr  Cr36  1  0.50399673  0.16613334  0.50385784  1
  Ni  Ni37  1  0.33474811  1.00137670  0.66997996  1
  Fe  Fe38  1  0.50252340  0.16775441  0.83536256  1
  Cr  Cr39  1  0.50327845  0.50229553  0.50214581  1
  Fe  Fe40  1  0.33544231  0.33348951  0.66935633  1
  Ni  Ni41  1  0.50245500  0.49980988  0.83400437  1
  Fe  Fe42  1  0.50265824  0.83575992  0.50245231  1
  Ni  Ni43  1  0.33736943  0.66884077  0.66761998  1
  Ni  Ni44  1  0.50253156  0.83671213  0.83130135  1
  Fe  Fe45  1  0.83605281  0.16909271  0.50246168  1
  Ni  Ni46  1  0.66912919  1.00061232  0.66951747  1
  Fe  Fe47  1  0.83275408  0.16765971  0.83457121  1
  Fe  Fe48  1  0.83571500  0.50150979  0.50115543  1
  Fe  Fe49  1  0.66978210  0.33450145  0.67061109  1
  Fe  Fe50  1  0.83294977  0.50216109  0.83446798  1
  Cr  Cr51  1  0.83375014  0.83668130  0.50251418  1
  Ni  Ni52  1  0.66749217  0.66827805  0.67024482  1
  Fe  Fe53  1  0.83454719  0.83621380  0.83433448  1
" 