1126,Ni34Cr66_9,-226.051662061132, 141.241270248104,Ni34Cr66,"# generated using pymatgen
 data_CrNi2
_symmetry_space_group_name_H-M   'P 1'
_cell_length_a   7.49413859
_cell_length_b   7.49413859
_cell_length_c   10.59831243
_cell_angle_alpha   90.00000000
_cell_angle_beta   90.00000000
_cell_angle_gamma   90.00000000
_symmetry_Int_Tables_number   1
_chemical_formula_structural   CrNi2
_chemical_formula_sum   'Cr18 Ni36'
_cell_volume   595.22362205
_cell_formula_units_Z   18
loop_
 _symmetry_equiv_pos_site_id
 _symmetry_equiv_pos_as_xyz
  1  'x, y, z'
loop_
 _atom_site_type_symbol
 _atom_site_label
 _atom_site_symmetry_multiplicity
 _atom_site_fract_x
 _atom_site_fract_y
 _atom_site_fract_z
 _atom_site_occupancy
  Cr  Cr0  1  0.99612703  0.99802579  0.99482321  1
  Cr  Cr1  1  0.16685756  0.16627935  0.16502460  1
  Ni  Ni2  1  -0.00153038  0.99676039  0.33405886  1
  Ni  Ni3  1  0.99447055  0.33263069  0.99690092  1
  Cr  Cr4  1  0.16548316  0.49766991  0.16480322  1
  Cr  Cr5  1  0.99816857  0.33354472  0.33376806  1
  Cr  Cr6  1  0.99592380  0.66336153  0.99696290  1
  Cr  Cr7  1  0.16602482  0.83047060  0.16905350  1
  Ni  Ni8  1  0.99595957  0.66395483  0.33355693  1
  Cr  Cr9  1  0.33519370  0.99664155  0.99796897  1
  Ni  Ni10  1  0.49963336  0.16610436  0.16599799  1
  Ni  Ni11  1  0.33395266  0.00050018  0.33121785  1
  Ni  Ni12  1  0.33541056  0.33231662  -0.00010571  1
  Ni  Ni13  1  0.50015287  0.49621915  0.16645721  1
  Ni  Ni14  1  0.33544255  0.33147583  0.33316739  1
  Cr  Cr15  1  0.33487626  0.66495353  0.99708004  1
  Ni  Ni16  1  0.49966121  0.83227932  0.16733954  1
  Ni  Ni17  1  0.33408619  0.66256209  0.33078898  1
  Ni  Ni18  1  0.66361678  -0.00068468  0.99754959  1
  Cr  Cr19  1  0.82744072  0.16642311  0.16313175  1
  Ni  Ni20  1  0.66213542  -0.00165255  0.33065827  1
  Ni  Ni21  1  0.66473501  0.33207516  -0.00176020  1
  Ni  Ni22  1  0.82779600  0.49713998  0.16563710  1
  Ni  Ni23  1  0.66086890  0.33378088  0.33117850  1
  Cr  Cr24  1  0.66373732  0.66461708  0.99689778  1
  Cr  Cr25  1  0.82883112  0.83090170  0.16990581  1
  Ni  Ni26  1  0.66461853  0.66240499  0.33158155  1
  Ni  Ni27  1  0.16761738  0.16571275  0.49935563  1
  Ni  Ni28  1  -0.00081811  0.99743044  0.66599158  1
  Cr  Cr29  1  0.16377395  0.16676023  0.82993496  1
  Ni  Ni30  1  0.16613093  0.49766897  0.49900649  1
  Ni  Ni31  1  0.99712379  0.33263817  0.66448391  1
  Cr  Cr32  1  0.16610262  0.49756553  0.83039786  1
  Cr  Cr33  1  0.16378668  0.83043692  0.49795036  1
  Ni  Ni34  1  0.99610874  0.66443704  0.66483828  1
  Ni  Ni35  1  0.16484109  0.83099399  0.82731638  1
  Ni  Ni36  1  0.49544662  0.16798442  0.49654749  1
  Ni  Ni37  1  0.32947032  -0.00159644  0.66500991  1
  Cr  Cr38  1  0.50042781  0.16833315  0.83114216  1
  Ni  Ni39  1  0.49829640  0.49647990  0.49850696  1
  Ni  Ni40  1  0.33246989  0.33277737  0.66120345  1
  Ni  Ni41  1  0.50041167  0.49835236  0.82966091  1
  Cr  Cr42  1  0.50002654  0.82976464  0.49745424  1
  Ni  Ni43  1  0.33266265  0.66346542  0.66668430  1
  Ni  Ni44  1  0.49870279  0.82972005  0.82989734  1
  Cr  Cr45  1  0.82968951  0.16405267  0.49872500  1
  Cr  Cr46  1  0.66518801  0.99728193  0.66633029  1
  Ni  Ni47  1  0.83109218  0.16700798  0.83230751  1
  Ni  Ni48  1  0.83012691  0.50102156  0.49902015  1
  Ni  Ni49  1  0.66495706  0.33584221  0.66489715  1
  Ni  Ni50  1  0.82961577  0.49615940  0.83007469  1
  Ni  Ni51  1  0.83245803  0.82829267  0.49687226  1
  Ni  Ni52  1  0.66601165  0.66164042  0.66602300  1
  Ni  Ni53  1  0.83100150  0.83141636  0.82911931  1
" 