5930,Ni34Cr66_13,-226.22567251397, 146.067635331067,Ni34Cr66,"# generated using pymatgen
 data_CrNi2
_symmetry_space_group_name_H-M   'P 1'
_cell_length_a   7.49206750
_cell_length_b   7.49206750
_cell_length_c   10.59538347
_cell_angle_alpha   90.00000000
_cell_angle_beta   90.00000000
_cell_angle_gamma   90.00000000
_symmetry_Int_Tables_number   1
_chemical_formula_structural   CrNi2
_chemical_formula_sum   'Cr18 Ni36'
_cell_volume   594.73026891
_cell_formula_units_Z   18
loop_
 _symmetry_equiv_pos_site_id
 _symmetry_equiv_pos_as_xyz
  1  'x, y, z'
loop_
 _atom_site_type_symbol
 _atom_site_label
 _atom_site_symmetry_multiplicity
 _atom_site_fract_x
 _atom_site_fract_y
 _atom_site_fract_z
 _atom_site_occupancy
  Ni  Ni0  1  -0.00103075  0.99719495  0.99708436  1
  Ni  Ni1  1  0.16640798  0.16477292  0.16238303  1
  Cr  Cr2  1  0.99565309  0.99769345  0.33312608  1
  Cr  Cr3  1  0.99694614  0.33342033  0.00006021  1
  Ni  Ni4  1  0.16554693  0.49884904  0.16777689  1
  Cr  Cr5  1  0.99680174  0.33346292  0.33193971  1
  Cr  Cr6  1  0.99562698  0.66551872  0.99702993  1
  Cr  Cr7  1  0.16638054  0.83121265  0.16519462  1
  Ni  Ni8  1  0.99679319  0.66219085  0.33233790  1
  Ni  Ni9  1  0.33426499  0.99827901  -0.00164243  1
  Ni  Ni10  1  0.50026892  0.16430558  0.16383580  1
  Cr  Cr11  1  0.33656364  0.99828637  0.33008820  1
  Cr  Cr12  1  0.33546176  0.33056697  0.00039580  1
  Ni  Ni13  1  0.50149110  0.49949618  0.16578252  1
  Cr  Cr14  1  0.33456968  0.33216804  0.33045417  1
  Cr  Cr15  1  0.33492501  0.66649827  0.99784477  1
  Ni  Ni16  1  0.50015706  0.83099696  0.16517206  1
  Ni  Ni17  1  0.33423023  0.66319746  0.33175788  1
  Ni  Ni18  1  0.66169211  0.99712611  0.99758847  1
  Cr  Cr19  1  0.82826860  0.16503264  0.16415864  1
  Ni  Ni20  1  0.66281652  0.99815989  0.33380744  1
  Ni  Ni21  1  0.66289203  0.33337054  -0.00126346  1
  Ni  Ni22  1  0.82789444  0.49904751  0.16565420  1
  Ni  Ni23  1  0.66399204  0.33246763  0.33193440  1
  Ni  Ni24  1  0.66406013  0.66461717  0.99714344  1
  Cr  Cr25  1  0.82752319  0.83012304  0.16549875  1
  Ni  Ni26  1  0.66401748  0.66430110  0.33251618  1
  Cr  Cr27  1  0.16564061  0.16612957  0.50273495  1
  Ni  Ni28  1  0.99602734  0.99750728  0.66540295  1
  Cr  Cr29  1  0.16641712  0.16319459  0.82969032  1
  Ni  Ni30  1  0.16631702  0.49929372  0.49892758  1
  Ni  Ni31  1  0.99727025  0.33236715  0.66281042  1
  Cr  Cr32  1  0.16743034  0.49836953  0.82762017  1
  Cr  Cr33  1  0.16729849  0.82888238  0.49896832  1
  Cr  Cr34  1  0.99418661  0.66552577  0.66566097  1
  Ni  Ni35  1  0.16637044  0.83427081  0.83083977  1
  Ni  Ni36  1  0.50134425  0.16445424  0.49921802  1
  Ni  Ni37  1  0.33521579  0.99719037  0.66644802  1
  Ni  Ni38  1  0.49864585  0.16350487  0.83187598  1
  Ni  Ni39  1  0.49857567  0.50020504  0.49842136  1
  Ni  Ni40  1  0.33399569  0.33237869  0.66392012  1
  Ni  Ni41  1  0.50131519  0.49945373  0.83083455  1
  Ni  Ni42  1  0.50124319  0.83011409  0.49876502  1
  Ni  Ni43  1  0.33507250  0.66557569  0.66467509  1
  Ni  Ni44  1  0.49957437  0.83212961  0.83092502  1
  Ni  Ni45  1  0.82853886  0.16432365  0.49918980  1
  Ni  Ni46  1  0.66383039  0.99595783  0.66370579  1
  Cr  Cr47  1  0.82978803  0.16427317  0.83199365  1
  Ni  Ni48  1  0.82999120  0.49928064  0.49721993  1
  Cr  Cr49  1  0.66426682  0.33274934  0.66439095  1
  Ni  Ni50  1  0.82728759  0.49995474  0.83227211  1
  Ni  Ni51  1  0.82784638  0.83121284  0.49831049  1
  Ni  Ni52  1  0.66318464  0.66687703  0.66553741  1
  Ni  Ni53  1  0.82894363  0.83230036  0.83181472  1
" 