8934,Ni34Cr66_3,-226.100817582259, 144.308531137183,Ni34Cr66,"# generated using pymatgen
 data_CrNi2
_symmetry_space_group_name_H-M   'P 1'
_cell_length_a   7.49071541
_cell_length_b   7.49071541
_cell_length_c   10.59347133
_cell_angle_alpha   90.00000000
_cell_angle_beta   90.00000000
_cell_angle_gamma   90.00000000
_symmetry_Int_Tables_number   1
_chemical_formula_structural   CrNi2
_chemical_formula_sum   'Cr18 Ni36'
_cell_volume   594.40833511
_cell_formula_units_Z   18
loop_
 _symmetry_equiv_pos_site_id
 _symmetry_equiv_pos_as_xyz
  1  'x, y, z'
loop_
 _atom_site_type_symbol
 _atom_site_label
 _atom_site_symmetry_multiplicity
 _atom_site_fract_x
 _atom_site_fract_y
 _atom_site_fract_z
 _atom_site_occupancy
  Cr  Cr0  1  -0.00145731  0.99671555  -0.00032351  1
  Ni  Ni1  1  0.16886626  0.16551371  0.16507755  1
  Cr  Cr2  1  0.00134530  0.99640424  0.32883373  1
  Cr  Cr3  1  -0.00111560  0.33179094  0.99735437  1
  Ni  Ni4  1  0.16511082  0.49964596  0.16464373  1
  Cr  Cr5  1  0.00077294  0.33308734  0.33199659  1
  Ni  Ni6  1  -0.00064276  0.66435699  0.00010563  1
  Ni  Ni7  1  0.16567755  0.82976684  0.16555761  1
  Ni  Ni8  1  0.00144935  0.66423931  0.33008944  1
  Ni  Ni9  1  0.33305159  0.00016823  0.99816124  1
  Ni  Ni10  1  0.49702373  0.16407151  0.16427048  1
  Ni  Ni11  1  0.33137014  0.00017266  0.33192537  1
  Ni  Ni12  1  0.33141344  0.32925408  -0.00108306  1
  Cr  Cr13  1  0.49414873  0.49553406  0.16341362  1
  Ni  Ni14  1  0.33074402  0.33073038  0.33231103  1
  Ni  Ni15  1  0.32837086  0.66557083  0.99818620  1
  Cr  Cr16  1  0.49565454  0.83412017  0.16450427  1
  Ni  Ni17  1  0.32751014  0.66418488  0.33306472  1
  Ni  Ni18  1  0.66399999  0.00057546  0.99765352  1
  Ni  Ni19  1  0.82935403  0.16442006  0.16400990  1
  Ni  Ni20  1  0.66274888  0.00000571  0.32919284  1
  Ni  Ni21  1  0.66491794  0.32851735  -0.00116787  1
  Ni  Ni22  1  0.83472991  0.49858900  0.16414080  1
  Cr  Cr23  1  0.66174005  0.33156976  0.33103134  1
  Cr  Cr24  1  0.66778193  0.66662706  0.99719646  1
  Ni  Ni25  1  0.83315291  0.83194675  0.16510703  1
  Cr  Cr26  1  0.66619617  0.66406546  0.33215893  1
  Ni  Ni27  1  0.16849745  0.16530125  0.49877913  1
  Cr  Cr28  1  0.00204816  0.00117822  0.66688063  1
  Ni  Ni29  1  0.16706703  0.16696876  0.83138069  1
  Ni  Ni30  1  0.16592128  0.49911561  0.49768713  1
  Ni  Ni31  1  -0.00015965  0.33298329  0.66610354  1
  Ni  Ni32  1  0.16411670  0.49743215  0.83304367  1
  Ni  Ni33  1  0.16803260  0.83088841  0.49686745  1
  Cr  Cr34  1  -0.00079650  0.66311967  0.66540954  1
  Cr  Cr35  1  0.16887943  0.83035298  0.83284396  1
  Ni  Ni36  1  0.49584163  0.16390347  0.49674403  1
  Ni  Ni37  1  0.33384481  -0.00124896  0.66501153  1
  Ni  Ni38  1  0.49822609  0.16203282  0.83410237  1
  Ni  Ni39  1  0.49567058  0.49866991  0.49811745  1
  Cr  Cr40  1  0.32956687  0.33072132  0.66393000  1
  Cr  Cr41  1  0.49549170  0.49952940  0.83404860  1
  Cr  Cr42  1  0.49722859  0.83295614  0.49978886  1
  Ni  Ni43  1  0.33279698  0.66568916  0.66422719  1
  Ni  Ni44  1  0.49871521  0.83445565  0.83055536  1
  Cr  Cr45  1  0.83154803  0.16490830  0.49963522  1
  Ni  Ni46  1  0.66194469  0.99804062  0.66832114  1
  Ni  Ni47  1  0.83006035  0.16540771  0.83146556  1
  Ni  Ni48  1  0.83359735  0.49920249  0.49960058  1
  Cr  Cr49  1  0.66409323  0.33321116  0.66497158  1
  Ni  Ni50  1  0.83332878  0.49782186  0.83156369  1
  Cr  Cr51  1  0.83245145  0.83243964  0.49832710  1
  Ni  Ni52  1  0.66382648  0.66577474  0.66599888  1
  Ni  Ni53  1  0.82893541  0.83219025  0.83187345  1
" 