5576,Ni34Fe26Cr38_16,-224.108879922091, 176.999774161328,Ni34Fe26Cr38,"# generated using pymatgen
 data_Cr11Fe7Ni9
_symmetry_space_group_name_H-M   'P 1'
_cell_length_a   7.48655047
_cell_length_b   7.48655047
_cell_length_c   10.58758121
_cell_angle_alpha   90.00000000
_cell_angle_beta   90.00000000
_cell_angle_gamma   90.00000000
_symmetry_Int_Tables_number   1
_chemical_formula_structural   Cr11Fe7Ni9
_chemical_formula_sum   'Cr22 Fe14 Ni18'
_cell_volume   593.41738859
_cell_formula_units_Z   2
loop_
 _symmetry_equiv_pos_site_id
 _symmetry_equiv_pos_as_xyz
  1  'x, y, z'
loop_
 _atom_site_type_symbol
 _atom_site_label
 _atom_site_symmetry_multiplicity
 _atom_site_fract_x
 _atom_site_fract_y
 _atom_site_fract_z
 _atom_site_occupancy
  Cr  Cr0  1  -0.00066899  0.99834402  0.99853945  1
  Fe  Fe1  1  0.16278060  0.16613968  0.16559005  1
  Ni  Ni2  1  -0.00059601  0.00071957  0.33362815  1
  Ni  Ni3  1  0.00156120  0.33413982  0.99855029  1
  Fe  Fe4  1  0.16329525  0.49971000  0.16590856  1
  Ni  Ni5  1  0.00013606  0.33101902  0.33354971  1
  Ni  Ni6  1  0.99637382  0.66193381  -0.00092351  1
  Ni  Ni7  1  0.16377336  0.82990488  0.16648619  1
  Fe  Fe8  1  0.00033818  0.66492123  0.33174780  1
  Cr  Cr9  1  0.33263010  0.00095161  -0.00093984  1
  Cr  Cr10  1  0.49996178  0.16893074  0.16404858  1
  Cr  Cr11  1  0.33144224  -0.00114548  0.33163400  1
  Fe  Fe12  1  0.33041269  0.33220330  0.99744933  1
  Cr  Cr13  1  0.50001729  0.49841192  0.16608827  1
  Cr  Cr14  1  0.32865868  0.33273998  0.33229581  1
  Cr  Cr15  1  0.33281405  0.66502395  -0.00110911  1
  Cr  Cr16  1  0.49683318  0.82904807  0.16763042  1
  Ni  Ni17  1  0.33072863  0.66485723  0.33298239  1
  Cr  Cr18  1  0.66401744  0.99497676  0.99815107  1
  Cr  Cr19  1  0.83310268  0.16844871  0.16740434  1
  Cr  Cr20  1  0.66670662  0.99789926  0.33437712  1
  Fe  Fe21  1  0.66625763  0.33484615  0.99704219  1
  Cr  Cr22  1  0.83173950  0.49750064  0.16510952  1
  Ni  Ni23  1  0.66740234  0.33227609  0.33466094  1
  Ni  Ni24  1  0.66706303  0.66395355  0.99437980  1
  Cr  Cr25  1  0.83532744  0.83015204  0.16622090  1
  Ni  Ni26  1  0.66489899  0.66589533  0.33364925  1
  Ni  Ni27  1  0.16326698  0.16398854  0.49839895  1
  Fe  Fe28  1  0.99604974  -0.00039518  0.66432993  1
  Ni  Ni29  1  0.16643856  0.16589127  0.83269783  1
  Ni  Ni30  1  0.16568995  0.49973447  0.49564322  1
  Cr  Cr31  1  0.00036208  0.33105368  0.66279038  1
  Cr  Cr32  1  0.16546562  0.49879883  0.83305317  1
  Cr  Cr33  1  0.16626668  0.83151945  0.50026395  1
  Cr  Cr34  1  0.99555121  0.66421981  0.66610588  1
  Cr  Cr35  1  0.16519123  0.83381931  0.82999112  1
  Ni  Ni36  1  0.50130908  0.16446979  0.50079226  1
  Fe  Fe37  1  0.33445356  -0.00084011  0.66542328  1
  Fe  Fe38  1  0.49802860  0.16378586  0.83021320  1
  Cr  Cr39  1  0.49897856  0.50025909  0.49793313  1
  Cr  Cr40  1  0.33041692  0.33077797  0.66457415  1
  Fe  Fe41  1  0.50198481  0.49970589  0.83156908  1
  Fe  Fe42  1  0.49995703  0.83238901  0.50049820  1
  Fe  Fe43  1  0.33540610  0.66637411  0.66473031  1
  Ni  Ni44  1  0.50105227  0.83044500  0.82921842  1
  Ni  Ni45  1  0.83156624  0.16400711  0.49784552  1
  Ni  Ni46  1  0.66364971  0.99619164  0.66422250  1
  Cr  Cr47  1  0.83191597  0.16649400  0.83136515  1
  Cr  Cr48  1  0.83101469  0.49714966  0.49649755  1
  Fe  Fe49  1  0.66512212  0.33107879  0.66433275  1
  Fe  Fe50  1  0.83002384  0.50095010  0.83384935  1
  Fe  Fe51  1  0.83073607  0.83398041  0.49963889  1
  Ni  Ni52  1  0.66391238  0.66976629  0.66794186  1
  Ni  Ni53  1  0.82884581  0.83024693  0.83159189  1
" 