5721,Ni34Fe46Cr18_9,-231.588676763095, 201.87471807915,Ni34Fe46Cr18,"# generated using pymatgen
 data_Cr11Fe25Ni18
_symmetry_space_group_name_H-M   'P 1'
_cell_length_a   7.44102042
_cell_length_b   7.44102042
_cell_length_c   10.52319200
_cell_angle_alpha   90.00000000
_cell_angle_beta   90.00000000
_cell_angle_gamma   90.00000000
_symmetry_Int_Tables_number   1
_chemical_formula_structural   Cr11Fe25Ni18
_chemical_formula_sum   'Cr11 Fe25 Ni18'
_cell_volume   582.65635439
_cell_formula_units_Z   1
loop_
 _symmetry_equiv_pos_site_id
 _symmetry_equiv_pos_as_xyz
  1  'x, y, z'
loop_
 _atom_site_type_symbol
 _atom_site_label
 _atom_site_symmetry_multiplicity
 _atom_site_fract_x
 _atom_site_fract_y
 _atom_site_fract_z
 _atom_site_occupancy
  Ni  Ni0  1  1.00130453  0.00238259  0.00239404  1
  Fe  Fe1  1  0.16699465  0.17036465  0.16836399  1
  Ni  Ni2  1  1.00102623  0.00280470  0.33675977  1
  Ni  Ni3  1  1.00086451  0.33560918  1.00167874  1
  Fe  Fe4  1  0.16868801  0.50041055  0.16876684  1
  Fe  Fe5  1  0.99942989  0.33380096  0.33397723  1
  Ni  Ni6  1  0.00176668  0.66726207  0.00299407  1
  Fe  Fe7  1  0.16603585  0.83422715  0.16932151  1
  Fe  Fe8  1  0.99928321  0.67004333  0.33392561  1
  Cr  Cr9  1  0.33643328  1.00164970  0.00266494  1
  Ni  Ni10  1  0.50195612  0.16933088  0.16836675  1
  Cr  Cr11  1  0.33419287  1.00002177  0.33483897  1
  Ni  Ni12  1  0.33506363  0.33566261  0.00267373  1
  Ni  Ni13  1  0.50213622  0.50161700  0.17058645  1
  Fe  Fe14  1  0.33645783  0.33466784  0.33222857  1
  Cr  Cr15  1  0.33563587  0.66767833  1.00168012  1
  Fe  Fe16  1  0.50542492  0.83290645  0.16993893  1
  Ni  Ni17  1  0.33507254  0.66788072  0.33473954  1
  Fe  Fe18  1  0.66898525  1.00161157  0.00324095  1
  Fe  Fe19  1  0.83515993  0.16811097  0.16938363  1
  Ni  Ni20  1  0.67044826  0.00279806  0.33330610  1
  Cr  Cr21  1  0.66800013  0.33405206  1.00140218  1
  Fe  Fe22  1  0.83352987  0.50260175  0.16935483  1
  Ni  Ni23  1  0.67007051  0.33542429  0.33562886  1
  Ni  Ni24  1  0.66849056  0.66663819  1.00148893  1
  Fe  Fe25  1  0.83369005  0.83473872  0.16821624  1
  Ni  Ni26  1  0.66754080  0.66706411  0.33764187  1
  Ni  Ni27  1  0.16656906  0.16868918  0.50218517  1
  Fe  Fe28  1  0.00244531  0.00346131  0.66688371  1
  Cr  Cr29  1  0.16832377  0.17055946  0.83456385  1
  Cr  Cr30  1  0.16820870  0.49832019  0.49826097  1
  Fe  Fe31  1  0.99882529  0.33442237  0.66787508  1
  Fe  Fe32  1  0.16804871  0.50150906  0.83653864  1
  Fe  Fe33  1  0.16833535  0.83606148  0.50065995  1
  Cr  Cr34  1  0.00242638  0.66923168  0.66805292  1
  Fe  Fe35  1  0.16845275  0.83673149  0.83601860  1
  Cr  Cr36  1  0.49965044  0.16921562  0.50031246  1
  Fe  Fe37  1  0.33508451  0.00181598  0.66826764  1
  Ni  Ni38  1  0.50071934  0.16846013  0.83539578  1
  Fe  Fe39  1  0.50332568  0.50177957  0.50035296  1
  Fe  Fe40  1  0.33663834  0.33498823  0.66929383  1
  Fe  Fe41  1  0.50282659  0.50055270  0.83518809  1
  Ni  Ni42  1  0.50449896  0.83391532  0.50035023  1
  Cr  Cr43  1  0.33640672  0.67048306  0.66923264  1
  Ni  Ni44  1  0.50432860  0.83556205  0.83624009  1
  Fe  Fe45  1  0.83597784  0.17040950  0.50030134  1
  Cr  Cr46  1  0.66899150  0.00398964  0.66798955  1
  Fe  Fe47  1  0.83440477  0.16862012  0.83540136  1
  Ni  Ni48  1  0.83448276  0.50283140  0.50131370  1
  Ni  Ni49  1  0.66955635  0.33604421  0.66858759  1
  Fe  Fe50  1  0.83460892  0.49992922  0.83471929  1
  Fe  Fe51  1  0.83483077  0.83576699  0.49961444  1
  Fe  Fe52  1  0.66804211  0.66659099  0.66765552  1
  Cr  Cr53  1  0.83474883  0.83313942  0.83762177  1
" 