2129,Ni34Fe66_14,-243.070873080787, 223.096079357111,Ni34Fe66,"# generated using pymatgen
 data_FeNi2
_symmetry_space_group_name_H-M   'P 1'
_cell_length_a   7.41037023
_cell_length_b   7.41037023
_cell_length_c   10.47984608
_cell_angle_alpha   90.00000000
_cell_angle_beta   90.00000000
_cell_angle_gamma   90.00000000
_symmetry_Int_Tables_number   1
_chemical_formula_structural   FeNi2
_chemical_formula_sum   'Fe18 Ni36'
_cell_volume   575.48593873
_cell_formula_units_Z   18
loop_
 _symmetry_equiv_pos_site_id
 _symmetry_equiv_pos_as_xyz
  1  'x, y, z'
loop_
 _atom_site_type_symbol
 _atom_site_label
 _atom_site_symmetry_multiplicity
 _atom_site_fract_x
 _atom_site_fract_y
 _atom_site_fract_z
 _atom_site_occupancy
  Fe  Fe0  1  1.00364468  1.00283944  1.00341378  1
  Ni  Ni1  1  0.17032025  0.17146286  0.17038957  1
  Fe  Fe2  1  1.00267814  1.00308405  0.33751279  1
  Fe  Fe3  1  0.00418492  0.33765642  1.00322810  1
  Fe  Fe4  1  0.17091537  0.50645611  0.17065157  1
  Fe  Fe5  1  0.00400442  0.33673369  0.33795887  1
  Ni  Ni6  1  0.00448224  0.67095388  1.00342401  1
  Ni  Ni7  1  0.17053585  0.83944076  0.17094679  1
  Fe  Fe8  1  1.00281937  0.67176594  0.33751399  1
  Ni  Ni9  1  0.33676654  1.00379293  1.00370419  1
  Fe  Fe10  1  0.50385848  0.16769377  0.16993824  1
  Ni  Ni11  1  0.33669369  1.00352708  0.33734437  1
  Ni  Ni12  1  0.33705072  0.33668764  0.00413609  1
  Fe  Fe13  1  0.50314180  0.50500541  0.17006938  1
  Fe  Fe14  1  0.33929313  0.33705076  0.33652384  1
  Ni  Ni15  1  0.33570860  0.67128508  1.00309493  1
  Ni  Ni16  1  0.50442070  0.83622270  0.17001778  1
  Ni  Ni17  1  0.33598234  0.67187252  0.33777009  1
  Ni  Ni18  1  0.66982792  0.00428801  1.00247594  1
  Fe  Fe19  1  0.83658056  0.16800394  0.17009104  1
  Ni  Ni20  1  0.66957240  0.00426379  0.33854485  1
  Ni  Ni21  1  0.67040076  0.33653655  0.00429855  1
  Fe  Fe22  1  0.83746552  0.50472352  0.17019798  1
  Ni  Ni23  1  0.67192668  0.33664415  0.33688795  1
  Ni  Ni24  1  0.67120620  0.67019273  0.00398100  1
  Ni  Ni25  1  0.83590002  0.83667637  0.17023057  1
  Ni  Ni26  1  0.66985045  0.67008495  0.33680695  1
  Ni  Ni27  1  0.17077860  0.17098768  0.50331059  1
  Ni  Ni28  1  0.00568930  1.00362841  0.67045055  1
  Ni  Ni29  1  0.17047124  0.17064275  0.83802793  1
  Ni  Ni30  1  0.17037914  0.50224223  0.50320161  1
  Ni  Ni31  1  1.00313213  0.33713206  0.67103076  1
  Fe  Fe32  1  0.17013139  0.50461866  0.83670159  1
  Ni  Ni33  1  0.17044873  0.83823569  0.50249684  1
  Ni  Ni34  1  0.00394921  0.67084314  0.66921173  1
  Ni  Ni35  1  0.17039953  0.83869871  0.83755687  1
  Fe  Fe36  1  0.50359264  0.17035164  0.50421965  1
  Fe  Fe37  1  0.33693157  1.00346054  0.67077302  1
  Ni  Ni38  1  0.50321518  0.17154226  0.83733820  1
  Ni  Ni39  1  0.50471370  0.50370222  0.50281901  1
  Fe  Fe40  1  0.33652053  0.33809373  0.67127317  1
  Ni  Ni41  1  0.50521339  0.50370336  0.83822095  1
  Ni  Ni42  1  0.50473692  0.83609288  0.50373995  1
  Fe  Fe43  1  0.33687925  0.67009198  0.66971211  1
  Ni  Ni44  1  0.50400039  0.83609472  0.83787209  1
  Fe  Fe45  1  0.83763554  0.17046991  0.50514885  1
  Fe  Fe46  1  0.67302898  1.00294247  0.67178528  1
  Ni  Ni47  1  0.83792833  0.17151733  0.83768271  1
  Ni  Ni48  1  0.83642643  0.50382009  0.50316497  1
  Ni  Ni49  1  0.67056266  0.33750906  0.67038119  1
  Ni  Ni50  1  0.83601157  0.50378526  0.83762589  1
  Ni  Ni51  1  0.83620705  0.83615376  0.50349222  1
  Ni  Ni52  1  0.67093687  0.66915787  0.67051059  1
  Ni  Ni53  1  0.83735441  0.83604296  0.83760494  1
" 