5540,Ni34Fe46Cr18_13,-231.235176790281, 196.663206656989,Ni34Fe46Cr18,"# generated using pymatgen
 data_Cr11Fe25Ni18
_symmetry_space_group_name_H-M   'P 1'
_cell_length_a   7.44181706
_cell_length_b   7.44181706
_cell_length_c   10.52431861
_cell_angle_alpha   90.00000000
_cell_angle_beta   90.00000000
_cell_angle_gamma   90.00000000
_symmetry_Int_Tables_number   1
_chemical_formula_structural   Cr11Fe25Ni18
_chemical_formula_sum   'Cr11 Fe25 Ni18'
_cell_volume   582.84351159
_cell_formula_units_Z   1
loop_
 _symmetry_equiv_pos_site_id
 _symmetry_equiv_pos_as_xyz
  1  'x, y, z'
loop_
 _atom_site_type_symbol
 _atom_site_label
 _atom_site_symmetry_multiplicity
 _atom_site_fract_x
 _atom_site_fract_y
 _atom_site_fract_z
 _atom_site_occupancy
  Ni  Ni0  1  0.00190017  0.00286439  1.00118268  1
  Fe  Fe1  1  0.16735061  0.17109872  0.16798734  1
  Fe  Fe2  1  0.99932805  0.00271497  0.33486034  1
  Ni  Ni3  1  0.00294744  0.33434615  1.00164703  1
  Ni  Ni4  1  0.16834884  0.50072404  0.16984986  1
  Fe  Fe5  1  0.00310373  0.33336171  0.33452805  1
  Ni  Ni6  1  0.00176094  0.66788009  0.99971709  1
  Cr  Cr7  1  0.16716973  0.83343927  0.16835089  1
  Fe  Fe8  1  1.00142165  0.66900545  0.33362103  1
  Fe  Fe9  1  0.33444677  0.00299527  1.00109384  1
  Fe  Fe10  1  0.50218804  0.16963770  0.16792609  1
  Cr  Cr11  1  0.33551857  0.00235029  0.33493647  1
  Fe  Fe12  1  0.33339475  0.33525528  0.00270638  1
  Fe  Fe13  1  0.49972756  0.50053064  0.17035938  1
  Ni  Ni14  1  0.33354255  0.33765272  0.33381611  1
  Cr  Cr15  1  0.33508163  0.66725941  1.00103035  1
  Fe  Fe16  1  0.50352021  0.83491567  0.16939012  1
  Ni  Ni17  1  0.33803857  0.66506503  0.33512193  1
  Fe  Fe18  1  0.66939925  0.00180274  0.00284852  1
  Fe  Fe19  1  0.83554846  0.16729777  0.16765781  1
  Ni  Ni20  1  0.67104035  0.99956268  0.33403962  1
  Ni  Ni21  1  0.66853222  0.33448902  0.00205089  1
  Cr  Cr22  1  0.83663401  0.50115977  0.16819569  1
  Fe  Fe23  1  0.66626654  0.33501614  0.33414995  1
  Cr  Cr24  1  0.66860956  0.66843218  0.99993468  1
  Fe  Fe25  1  0.83492587  0.83653879  0.16914978  1
  Ni  Ni26  1  0.66627710  0.67041246  0.33586885  1
  Ni  Ni27  1  0.16678350  0.16753221  0.50225480  1
  Fe  Fe28  1  0.00200168  0.00253424  0.66831819  1
  Fe  Fe29  1  0.16840358  0.16925397  0.83445774  1
  Cr  Cr30  1  0.16968526  0.50150225  0.49993244  1
  Ni  Ni31  1  0.00281637  0.33439639  0.66899694  1
  Ni  Ni32  1  0.16626988  0.50250298  0.83495088  1
  Cr  Cr33  1  0.16831743  0.83575848  0.50191526  1
  Fe  Fe34  1  1.00099956  0.66894022  0.67123827  1
  Fe  Fe35  1  0.16808620  0.83475406  0.83470430  1
  Cr  Cr36  1  0.50246504  0.16884736  0.50321628  1
  Ni  Ni37  1  0.33495198  1.00073750  0.66926031  1
  Cr  Cr38  1  0.50147578  0.16762973  0.83583470  1
  Ni  Ni39  1  0.50257865  0.50245003  0.50086634  1
  Fe  Fe40  1  0.33429144  0.33510017  0.66836591  1
  Ni  Ni41  1  0.50202844  0.50198599  0.83378191  1
  Fe  Fe42  1  0.50339600  0.83309674  0.50252522  1
  Fe  Fe43  1  0.33687629  0.66844975  0.66985691  1
  Ni  Ni44  1  0.50088554  0.83598121  0.83340407  1
  Fe  Fe45  1  0.83643254  0.16727310  0.50209569  1
  Ni  Ni46  1  0.66810947  0.99871234  0.66748070  1
  Cr  Cr47  1  0.83477891  0.16953834  0.83529096  1
  Cr  Cr48  1  0.83339968  0.50138131  0.50168537  1
  Fe  Fe49  1  0.66821307  0.33610445  0.66912097  1
  Ni  Ni50  1  0.83678546  0.50232632  0.83488882  1
  Fe  Fe51  1  0.83305505  0.83658541  0.50125504  1
  Fe  Fe52  1  0.66720971  0.66902567  0.66915248  1
  Fe  Fe53  1  0.83522043  0.83333153  0.83466886  1
" 