3037,Ni34Fe46Cr18_11,-231.491279698387, 194.8862779552,Ni34Fe46Cr18,"# generated using pymatgen
 data_Cr11Fe25Ni18
_symmetry_space_group_name_H-M   'P 1'
_cell_length_a   7.44257388
_cell_length_b   7.44257388
_cell_length_c   10.52538892
_cell_angle_alpha   90.00000000
_cell_angle_beta   90.00000000
_cell_angle_gamma   90.00000000
_symmetry_Int_Tables_number   1
_chemical_formula_structural   Cr11Fe25Ni18
_chemical_formula_sum   'Cr11 Fe25 Ni18'
_cell_volume   583.02135398
_cell_formula_units_Z   1
loop_
 _symmetry_equiv_pos_site_id
 _symmetry_equiv_pos_as_xyz
  1  'x, y, z'
loop_
 _atom_site_type_symbol
 _atom_site_label
 _atom_site_symmetry_multiplicity
 _atom_site_fract_x
 _atom_site_fract_y
 _atom_site_fract_z
 _atom_site_occupancy
  Ni  Ni0  1  0.00444889  0.00191530  1.00132696  1
  Fe  Fe1  1  0.16778415  0.16683210  0.17045852  1
  Fe  Fe2  1  0.00217280  0.00199621  0.33673248  1
  Cr  Cr3  1  0.99900869  0.33281647  0.00181062  1
  Fe  Fe4  1  0.16716245  0.50293987  0.16943522  1
  Ni  Ni5  1  1.00037384  0.33129625  0.33363253  1
  Ni  Ni6  1  0.00237224  0.67011316  1.00083069  1
  Fe  Fe7  1  0.16861373  0.83501176  0.16814142  1
  Fe  Fe8  1  0.00181284  0.66882118  0.33367822  1
  Fe  Fe9  1  0.33310480  0.00191772  0.00439387  1
  Fe  Fe10  1  0.50192933  0.16736149  0.16949131  1
  Ni  Ni11  1  0.33362349  1.00033949  0.33617126  1
  Fe  Fe12  1  0.33384895  0.33507883  0.00348956  1
  Fe  Fe13  1  0.50176363  0.50192589  0.17103429  1
  Fe  Fe14  1  0.33547734  0.33321367  0.33335931  1
  Fe  Fe15  1  0.33236222  0.66829478  0.00363889  1
  Fe  Fe16  1  0.50051776  0.83544697  0.16917885  1
  Ni  Ni17  1  0.33576305  0.67197806  0.33311865  1
  Fe  Fe18  1  0.67239680  0.00258753  0.00208620  1
  Fe  Fe19  1  0.83534052  0.16791082  0.16977885  1
  Fe  Fe20  1  0.66688927  0.00215463  0.33607311  1
  Cr  Cr21  1  0.66966618  0.33615247  0.00181594  1
  Ni  Ni22  1  0.83655226  0.50297656  0.17101538  1
  Ni  Ni23  1  0.67062942  0.33458566  0.33371949  1
  Cr  Cr24  1  0.66798167  0.66553544  1.00048602  1
  Cr  Cr25  1  0.83492656  0.83586752  0.16860962  1
  Ni  Ni26  1  0.66607557  0.66825300  0.33546223  1
  Ni  Ni27  1  0.16917827  0.16786932  0.50172829  1
  Ni  Ni28  1  0.00297564  0.00309002  0.66809625  1
  Fe  Fe29  1  0.16597421  0.16518779  0.83346924  1
  Cr  Cr30  1  0.16677688  0.49952225  0.49918696  1
  Ni  Ni31  1  0.99910618  0.32944449  0.66923424  1
  Cr  Cr32  1  0.16794468  0.50026642  0.83402562  1
  Fe  Fe33  1  0.16579404  0.83687437  0.50036708  1
  Fe  Fe34  1  0.99861352  0.67037980  0.66918019  1
  Fe  Fe35  1  0.16544019  0.83770507  0.83563330  1
  Fe  Fe36  1  0.50356965  0.16739182  0.50130546  1
  Fe  Fe37  1  0.33412036  0.00387310  0.66552738  1
  Cr  Cr38  1  0.50009065  0.16786813  0.83358658  1
  Cr  Cr39  1  0.50165635  0.49994007  0.50178997  1
  Fe  Fe40  1  0.33394652  0.33246933  0.66765659  1
  Fe  Fe41  1  0.50393404  0.50070699  0.83269397  1
  Fe  Fe42  1  0.50349146  0.83706127  0.50030323  1
  Cr  Cr43  1  0.33574245  0.67277675  0.66783631  1
  Cr  Cr44  1  0.50265910  0.83799344  0.83655125  1
  Ni  Ni45  1  0.83565658  0.16638173  0.50040352  1
  Fe  Fe46  1  0.67254466  1.00160133  0.66697523  1
  Ni  Ni47  1  0.83459249  0.16548883  0.83496654  1
  Cr  Cr48  1  0.83614624  0.50252346  0.50175546  1
  Ni  Ni49  1  0.67127399  0.33460520  0.66936209  1
  Ni  Ni50  1  0.83692611  0.50292413  0.83216706  1
  Ni  Ni51  1  0.83379947  0.83654899  0.50189773  1
  Ni  Ni52  1  0.66816960  0.66869351  0.66943549  1
  Ni  Ni53  1  0.83606343  0.83627480  0.83468070  1
" 