6541,Ni34Fe46Cr18_18,-231.642877582759, 200.631447928623,Ni34Fe46Cr18,"# generated using pymatgen
 data_Cr11Fe25Ni18
_symmetry_space_group_name_H-M   'P 1'
_cell_length_a   7.44353425
_cell_length_b   7.44353425
_cell_length_c   10.52674709
_cell_angle_alpha   90.00000000
_cell_angle_beta   90.00000000
_cell_angle_gamma   90.00000000
_symmetry_Int_Tables_number   1
_chemical_formula_structural   Cr11Fe25Ni18
_chemical_formula_sum   'Cr11 Fe25 Ni18'
_cell_volume   583.24707757
_cell_formula_units_Z   1
loop_
 _symmetry_equiv_pos_site_id
 _symmetry_equiv_pos_as_xyz
  1  'x, y, z'
loop_
 _atom_site_type_symbol
 _atom_site_label
 _atom_site_symmetry_multiplicity
 _atom_site_fract_x
 _atom_site_fract_y
 _atom_site_fract_z
 _atom_site_occupancy
  Fe  Fe0  1  1.00047080  0.00188377  0.00166438  1
  Cr  Cr1  1  0.16976805  0.16838938  0.16703996  1
  Fe  Fe2  1  0.00219191  1.00016052  0.33265610  1
  Fe  Fe3  1  1.00124294  0.33537923  1.00008433  1
  Ni  Ni4  1  0.16840816  0.50163716  0.16829106  1
  Ni  Ni5  1  0.00388925  0.33591332  0.33284973  1
  Fe  Fe6  1  0.00169267  0.66718470  1.00139483  1
  Fe  Fe7  1  0.16582965  0.83344501  0.16566917  1
  Fe  Fe8  1  1.00085387  0.66922463  0.33335915  1
  Fe  Fe9  1  0.33871632  0.00300376  0.00231661  1
  Fe  Fe10  1  0.50353427  0.17044353  0.16553884  1
  Fe  Fe11  1  0.33700954  0.00328380  0.33377725  1
  Ni  Ni12  1  0.33307142  0.33827199  0.99976580  1
  Fe  Fe13  1  0.50019092  0.49927054  0.16556420  1
  Ni  Ni14  1  0.33442973  0.33676504  0.33556852  1
  Ni  Ni15  1  0.33363449  0.66498087  0.00290374  1
  Fe  Fe16  1  0.50215022  0.83439818  0.16502178  1
  Cr  Cr17  1  0.33587908  0.66685581  0.33348458  1
  Ni  Ni18  1  0.67175707  1.00117739  0.00178720  1
  Ni  Ni19  1  0.83477957  0.16748239  0.16841673  1
  Cr  Cr20  1  0.66897843  0.99865278  0.33472684  1
  Fe  Fe21  1  0.66547831  0.33282539  0.99949236  1
  Cr  Cr22  1  0.83295648  0.49957897  0.16785868  1
  Fe  Fe23  1  0.66368996  0.33441021  0.33308110  1
  Fe  Fe24  1  0.66657248  0.66728591  1.00073657  1
  Ni  Ni25  1  0.83362050  0.83378836  0.16701719  1
  Fe  Fe26  1  0.66741512  0.66721248  0.33565744  1
  Cr  Cr27  1  0.16987237  0.16835923  0.50122005  1
  Fe  Fe28  1  0.99866200  1.00139266  0.67035315  1
  Fe  Fe29  1  0.17119326  0.17097335  0.83680652  1
  Fe  Fe30  1  0.16822986  0.50225012  0.50148636  1
  Cr  Cr31  1  0.00450938  0.33604687  0.67322816  1
  Ni  Ni32  1  0.16861416  0.50338353  0.83557329  1
  Cr  Cr33  1  0.16873554  0.83566655  0.50301939  1
  Fe  Fe34  1  0.99909679  0.66836634  0.67021147  1
  Cr  Cr35  1  0.16983858  0.83657582  0.83495147  1
  Fe  Fe36  1  0.50226411  0.16804921  0.50385731  1
  Fe  Fe37  1  0.33898182  0.00466136  0.66842923  1
  Ni  Ni38  1  0.50227586  0.16922814  0.83445468  1
  Fe  Fe39  1  0.50082524  0.50133231  0.50419134  1
  Ni  Ni40  1  0.33505916  0.33736220  0.66929018  1
  Ni  Ni41  1  0.50161638  0.50040636  0.83487433  1
  Ni  Ni42  1  0.50127212  0.83402568  0.50338288  1
  Fe  Fe43  1  0.33681702  0.66550126  0.66856197  1
  Cr  Cr44  1  0.50086392  0.83431838  0.83574638  1
  Cr  Cr45  1  0.83519336  0.17001752  0.49972380  1
  Ni  Ni46  1  0.67016502  0.99988713  0.66853977  1
  Ni  Ni47  1  0.83399138  0.16857521  0.83678801  1
  Cr  Cr48  1  0.83307317  0.50127225  0.49935983  1
  Fe  Fe49  1  0.66672096  0.33533956  0.67145553  1
  Ni  Ni50  1  0.83330927  0.50101884  0.83686989  1
  Ni  Ni51  1  0.83391288  0.83316234  0.50300981  1
  Ni  Ni52  1  0.66833871  0.67134695  0.66856571  1
  Fe  Fe53  1  0.83364664  0.83386593  0.83561560  1
" 