3831,Ni34Cr66_7,-225.775862843579, 138.679896762111,Ni34Cr66,"# generated using pymatgen
 data_CrNi2
_symmetry_space_group_name_H-M   'P 1'
_cell_length_a   7.49485154
_cell_length_b   7.49485154
_cell_length_c   10.59932070
_cell_angle_alpha   90.00000000
_cell_angle_beta   90.00000000
_cell_angle_gamma   90.00000000
_symmetry_Int_Tables_number   1
_chemical_formula_structural   CrNi2
_chemical_formula_sum   'Cr18 Ni36'
_cell_volume   595.39351809
_cell_formula_units_Z   18
loop_
 _symmetry_equiv_pos_site_id
 _symmetry_equiv_pos_as_xyz
  1  'x, y, z'
loop_
 _atom_site_type_symbol
 _atom_site_label
 _atom_site_symmetry_multiplicity
 _atom_site_fract_x
 _atom_site_fract_y
 _atom_site_fract_z
 _atom_site_occupancy
  Cr  Cr0  1  0.99779639  -0.00131704  -0.00069367  1
  Ni  Ni1  1  0.16455104  0.16491435  0.16700940  1
  Cr  Cr2  1  -0.00123602  0.99617644  0.33061286  1
  Cr  Cr3  1  0.99663863  0.33056766  0.00006901  1
  Ni  Ni4  1  0.16388043  0.49892656  0.16847457  1
  Ni  Ni5  1  0.99722239  0.33379614  0.33067560  1
  Cr  Cr6  1  0.99757851  0.66502436  0.00131863  1
  Ni  Ni7  1  0.16451778  0.83074539  0.16785115  1
  Ni  Ni8  1  0.99782339  0.66372624  0.33138671  1
  Cr  Cr9  1  0.33133723  -0.00064825  0.99783010  1
  Ni  Ni10  1  0.50033179  0.16396338  0.16716542  1
  Ni  Ni11  1  0.33193590  0.99732315  0.33291310  1
  Cr  Cr12  1  0.33348289  0.33066483  -0.00032143  1
  Ni  Ni13  1  0.50047781  0.49924437  0.16612436  1
  Cr  Cr14  1  0.33174064  0.33007606  0.33002286  1
  Cr  Cr15  1  0.33206366  0.66441125  -0.00162665  1
  Cr  Cr16  1  0.50016369  0.83135998  0.16649549  1
  Ni  Ni17  1  0.32953794  0.66642286  0.33119951  1
  Ni  Ni18  1  0.66460815  -0.00116689  -0.00135907  1
  Ni  Ni19  1  0.82953275  0.16452017  0.16632223  1
  Ni  Ni20  1  0.66354556  0.99814192  0.33119053  1
  Cr  Cr21  1  0.66430952  0.33086004  -0.00147911  1
  Ni  Ni22  1  0.83005247  0.49937283  0.16777476  1
  Ni  Ni23  1  0.66644562  0.33151178  0.32939819  1
  Ni  Ni24  1  0.66500122  0.66405362  0.99733692  1
  Ni  Ni25  1  0.82955374  0.83046524  0.16573048  1
  Ni  Ni26  1  0.66690273  0.66482011  0.33209689  1
  Ni  Ni27  1  0.16631708  0.16513882  0.50051868  1
  Ni  Ni28  1  0.00125776  -0.00066999  0.66524520  1
  Ni  Ni29  1  0.16478136  0.16317515  0.82760515  1
  Ni  Ni30  1  0.16239066  0.49652480  0.49672645  1
  Ni  Ni31  1  -0.00114305  0.33024763  0.66452706  1
  Cr  Cr32  1  0.16425111  0.49558902  0.82928195  1
  Ni  Ni33  1  0.16602712  0.83282279  0.49710977  1
  Cr  Cr34  1  0.99580466  0.66644249  0.66180209  1
  Ni  Ni35  1  0.16695190  0.83567744  0.82960607  1
  Ni  Ni36  1  0.49500400  0.16185072  0.49651643  1
  Ni  Ni37  1  0.33054242  -0.00060859  0.66436683  1
  Ni  Ni38  1  0.49702237  0.16322754  0.83049700  1
  Cr  Cr39  1  0.49857479  0.49852119  0.49662861  1
  Ni  Ni40  1  0.33078024  0.32809517  0.66513881  1
  Ni  Ni41  1  0.50057049  0.49915918  0.83099259  1
  Ni  Ni42  1  0.49808423  0.83275797  0.49634438  1
  Cr  Cr43  1  0.33382333  0.66756062  0.66436980  1
  Ni  Ni44  1  0.49871165  0.83200281  0.83132587  1
  Cr  Cr45  1  0.83312796  0.16635949  0.49705043  1
  Cr  Cr46  1  0.66285524  0.99635098  0.66336951  1
  Ni  Ni47  1  0.83272169  0.16531165  0.83095046  1
  Ni  Ni48  1  0.83328319  0.49957923  0.49645730  1
  Cr  Cr49  1  0.66384611  0.33306923  0.66581197  1
  Ni  Ni50  1  0.82903295  0.49729039  0.83018449  1
  Ni  Ni51  1  0.83023547  0.82925542  0.49656861  1
  Ni  Ni52  1  0.66479851  0.66492353  0.66498300  1
  Cr  Cr53  1  0.83038796  0.83222586  0.83233971  1
" 