4949,Ni34Fe66_10,-243.282121901243, 224.656748477,Ni34Fe66,"# generated using pymatgen
 data_FeNi2
_symmetry_space_group_name_H-M   'P 1'
_cell_length_a   7.41090348
_cell_length_b   7.41090348
_cell_length_c   10.48060022
_cell_angle_alpha   90.00000000
_cell_angle_beta   90.00000000
_cell_angle_gamma   90.00000000
_symmetry_Int_Tables_number   1
_chemical_formula_structural   FeNi2
_chemical_formula_sum   'Fe18 Ni36'
_cell_volume   575.61018453
_cell_formula_units_Z   18
loop_
 _symmetry_equiv_pos_site_id
 _symmetry_equiv_pos_as_xyz
  1  'x, y, z'
loop_
 _atom_site_type_symbol
 _atom_site_label
 _atom_site_symmetry_multiplicity
 _atom_site_fract_x
 _atom_site_fract_y
 _atom_site_fract_z
 _atom_site_occupancy
  Fe  Fe0  1  1.00259175  0.00422988  1.00266029  1
  Fe  Fe1  1  0.17012164  0.16905623  0.16964823  1
  Fe  Fe2  1  1.00212985  1.00273139  0.33754056  1
  Ni  Ni3  1  0.00399687  0.33877563  1.00280668  1
  Fe  Fe4  1  0.16983938  0.50374607  0.17128557  1
  Ni  Ni5  1  1.00328373  0.33745821  0.33726431  1
  Ni  Ni6  1  1.00356088  0.66959193  1.00373014  1
  Fe  Fe7  1  0.17061649  0.83842554  0.16989713  1
  Ni  Ni8  1  0.00406640  0.66940627  0.33766562  1
  Ni  Ni9  1  0.33843958  1.00363556  1.00309241  1
  Ni  Ni10  1  0.50345531  0.17038744  0.17067526  1
  Ni  Ni11  1  0.33788642  1.00348629  0.33814226  1
  Ni  Ni12  1  0.33697130  0.33572549  0.00444479  1
  Fe  Fe13  1  0.50589464  0.50391554  0.17101466  1
  Fe  Fe14  1  0.33789085  0.33815713  0.33745700  1
  Fe  Fe15  1  0.33827877  0.67001158  0.00383678  1
  Ni  Ni16  1  0.50453894  0.83816556  0.17032352  1
  Ni  Ni17  1  0.33703010  0.67258482  0.33711578  1
  Ni  Ni18  1  0.66856362  1.00346217  1.00334297  1
  Ni  Ni19  1  0.83681217  0.17029487  0.16956011  1
  Ni  Ni20  1  0.66883592  0.00394241  0.33713185  1
  Ni  Ni21  1  0.67045276  0.33658604  1.00308854  1
  Fe  Fe22  1  0.83582942  0.50357215  0.17021062  1
  Ni  Ni23  1  0.67174280  0.33647219  0.33698118  1
  Ni  Ni24  1  0.67148493  0.67129145  0.00387890  1
  Ni  Ni25  1  0.83702990  0.83680081  0.17030942  1
  Ni  Ni26  1  0.67052833  0.67102027  0.33752778  1
  Fe  Fe27  1  0.17023272  0.17065470  0.50514340  1
  Ni  Ni28  1  0.00380690  1.00361243  0.67068917  1
  Ni  Ni29  1  0.17177385  0.17129521  0.83739537  1
  Ni  Ni30  1  0.17000585  0.50282164  0.50461965  1
  Ni  Ni31  1  1.00279256  0.33741512  0.67127962  1
  Fe  Fe32  1  0.17093894  0.50433790  0.83612311  1
  Fe  Fe33  1  0.17169279  0.83525355  0.50501714  1
  Ni  Ni34  1  1.00342458  0.67016797  0.67001930  1
  Ni  Ni35  1  0.17006256  0.83781906  0.83755831  1
  Ni  Ni36  1  0.50227480  0.17037754  0.50312674  1
  Ni  Ni37  1  0.33795347  1.00361491  0.67060944  1
  Ni  Ni38  1  0.50194116  0.17088832  0.83732413  1
  Ni  Ni39  1  0.50294986  0.50360811  0.50320332  1
  Ni  Ni40  1  0.33707551  0.33651024  0.66990459  1
  Fe  Fe41  1  0.50385719  0.50422744  0.83698653  1
  Ni  Ni42  1  0.50466252  0.83755111  0.50387632  1
  Ni  Ni43  1  0.33734723  0.67136317  0.67126947  1
  Ni  Ni44  1  0.50379693  0.83839851  0.83738309  1
  Fe  Fe45  1  0.83588176  0.17132192  0.50292838  1
  Fe  Fe46  1  0.67041591  1.00334902  0.67049215  1
  Fe  Fe47  1  0.83724477  0.16901149  0.83791969  1
  Ni  Ni48  1  0.83843641  0.50474203  0.50267082  1
  Fe  Fe49  1  0.67016704  0.33752495  0.67000392  1
  Ni  Ni50  1  0.83824471  0.50415551  0.83738219  1
  Ni  Ni51  1  0.83743699  0.83626353  0.50340735  1
  Fe  Fe52  1  0.67072769  0.67047511  0.67001046  1
  Ni  Ni53  1  0.83753137  0.83485536  0.83757276  1
" 