4187,Ni34Fe66_6,-242.653956150626, 222.922115309551,Ni34Fe66,"# generated using pymatgen
 data_FeNi2
_symmetry_space_group_name_H-M   'P 1'
_cell_length_a   7.40491395
_cell_length_b   7.40491395
_cell_length_c   10.47212974
_cell_angle_alpha   90.00000000
_cell_angle_beta   90.00000000
_cell_angle_gamma   90.00000000
_symmetry_Int_Tables_number   1
_chemical_formula_structural   FeNi2
_chemical_formula_sum   'Fe18 Ni36'
_cell_volume   574.21567797
_cell_formula_units_Z   18
loop_
 _symmetry_equiv_pos_site_id
 _symmetry_equiv_pos_as_xyz
  1  'x, y, z'
loop_
 _atom_site_type_symbol
 _atom_site_label
 _atom_site_symmetry_multiplicity
 _atom_site_fract_x
 _atom_site_fract_y
 _atom_site_fract_z
 _atom_site_occupancy
  Ni  Ni0  1  0.00443786  0.00533500  0.00454605  1
  Fe  Fe1  1  0.17129764  0.17075019  0.17071368  1
  Ni  Ni2  1  1.00418854  1.00385935  0.33770319  1
  Ni  Ni3  1  0.00444254  0.33639066  1.00378613  1
  Ni  Ni4  1  0.17037446  0.50430448  0.17036082  1
  Ni  Ni5  1  0.00421193  0.33788637  0.33837178  1
  Fe  Fe6  1  0.00506071  0.67055549  1.00411826  1
  Fe  Fe7  1  0.17140695  0.83847179  0.17070785  1
  Ni  Ni8  1  0.00420918  0.67084170  0.33722459  1
  Ni  Ni9  1  0.33697529  0.00446480  1.00362501  1
  Ni  Ni10  1  0.50430859  0.16945090  0.17059650  1
  Ni  Ni11  1  0.33786128  0.00471647  0.33791954  1
  Ni  Ni12  1  0.33733038  0.33762090  1.00397982  1
  Fe  Fe13  1  0.50400395  0.50360257  0.17032470  1
  Ni  Ni14  1  0.33817955  0.33737180  0.33756334  1
  Ni  Ni15  1  0.33905733  0.67049994  0.00433464  1
  Ni  Ni16  1  0.50418326  0.83844963  0.17044967  1
  Fe  Fe17  1  0.33714241  0.67063052  0.33760707  1
  Fe  Fe18  1  0.67028142  0.00455093  0.00441930  1
  Ni  Ni19  1  0.83753636  0.17032275  0.17100981  1
  Ni  Ni20  1  0.67053698  0.00471433  0.33757121  1
  Fe  Fe21  1  0.67035646  0.33709178  1.00365165  1
  Fe  Fe22  1  0.83720761  0.50349521  0.17109153  1
  Ni  Ni23  1  0.67019149  0.33735279  0.33722001  1
  Ni  Ni24  1  0.66994339  0.67050359  1.00368877  1
  Fe  Fe25  1  0.83729383  0.83822281  0.17109199  1
  Fe  Fe26  1  0.67124346  0.67125199  0.33806762  1
  Ni  Ni27  1  0.17141524  0.17159240  0.50286129  1
  Ni  Ni28  1  1.00358448  1.00393788  0.67033564  1
  Ni  Ni29  1  0.17115008  0.17072573  0.83894972  1
  Ni  Ni30  1  0.17018807  0.50344421  0.50484855  1
  Fe  Fe31  1  1.00329760  0.33811043  0.67101756  1
  Fe  Fe32  1  0.17066560  0.50345034  0.83799413  1
  Fe  Fe33  1  0.17090540  0.83694088  0.50427033  1
  Ni  Ni34  1  0.00441030  0.67142769  0.67198054  1
  Fe  Fe35  1  0.17032446  0.83814747  0.83760942  1
  Ni  Ni36  1  0.50298642  0.17001882  0.50390187  1
  Fe  Fe37  1  0.33826537  1.00392244  0.67063197  1
  Ni  Ni38  1  0.50321956  0.17088282  0.83808667  1
  Ni  Ni39  1  0.50383583  0.50463594  0.50298909  1
  Fe  Fe40  1  0.33822374  0.33775620  0.67063160  1
  Ni  Ni41  1  0.50408547  0.50441838  0.83820831  1
  Ni  Ni42  1  0.50542580  0.83793189  0.50460235  1
  Ni  Ni43  1  0.33778371  0.67017888  0.67072082  1
  Fe  Fe44  1  0.50509805  0.83741849  0.83775600  1
  Fe  Fe45  1  0.83678051  0.17114118  0.50380831  1
  Ni  Ni46  1  0.67160963  0.00478437  0.67136478  1
  Ni  Ni47  1  0.83821498  0.17000547  0.83704587  1
  Ni  Ni48  1  0.83856042  0.50588404  0.50379983  1
  Ni  Ni49  1  0.67036141  0.33761503  0.67127589  1
  Ni  Ni50  1  0.83767839  0.50562745  0.83810586  1
  Ni  Ni51  1  0.83698880  0.83670334  0.50344938  1
  Ni  Ni52  1  0.67039475  0.67018885  0.67010542  1
  Ni  Ni53  1  0.83783657  0.83695409  0.83845770  1
" 