285,Ni34Cr66_18,-226.24230041002, 144.778042204927,Ni34Cr66,"# generated using pymatgen
 data_CrNi2
_symmetry_space_group_name_H-M   'P 1'
_cell_length_a   7.48834700
_cell_length_b   7.48834700
_cell_length_c   10.59012188
_cell_angle_alpha   90.00000000
_cell_angle_beta   90.00000000
_cell_angle_gamma   90.00000000
_symmetry_Int_Tables_number   1
_chemical_formula_structural   CrNi2
_chemical_formula_sum   'Cr18 Ni36'
_cell_volume   593.84469317
_cell_formula_units_Z   18
loop_
 _symmetry_equiv_pos_site_id
 _symmetry_equiv_pos_as_xyz
  1  'x, y, z'
loop_
 _atom_site_type_symbol
 _atom_site_label
 _atom_site_symmetry_multiplicity
 _atom_site_fract_x
 _atom_site_fract_y
 _atom_site_fract_z
 _atom_site_occupancy
  Cr  Cr0  1  0.00118335  0.99700531  0.99650942  1
  Cr  Cr1  1  0.16564331  0.16796482  0.16437591  1
  Cr  Cr2  1  0.99812255  -0.00020848  0.33535714  1
  Ni  Ni3  1  -0.00084063  0.33614106  -0.00119858  1
  Ni  Ni4  1  0.16359176  0.49898158  0.16584607  1
  Ni  Ni5  1  0.99841505  0.33339599  0.33330867  1
  Ni  Ni6  1  0.99738013  0.66262788  0.99770332  1
  Ni  Ni7  1  0.16803556  0.82881723  0.16437132  1
  Cr  Cr8  1  0.00057936  0.66270812  0.33201231  1
  Ni  Ni9  1  0.33277650  -0.00035986  0.99816248  1
  Cr  Cr10  1  0.49966624  0.16443194  0.16413128  1
  Cr  Cr11  1  0.33255882  0.99539329  0.33181372  1
  Ni  Ni12  1  0.33112704  0.33040216  0.99559534  1
  Cr  Cr13  1  0.49810015  0.49839101  0.16595644  1
  Ni  Ni14  1  0.32908703  0.33418886  0.33282574  1
  Cr  Cr15  1  0.33094079  0.66559328  -0.00001135  1
  Ni  Ni16  1  0.49768085  0.83273679  0.16513599  1
  Ni  Ni17  1  0.33035162  0.66539675  0.33193889  1
  Ni  Ni18  1  0.66242804  0.99782344  0.99831161  1
  Cr  Cr19  1  0.83048215  0.16806819  0.16622307  1
  Ni  Ni20  1  0.66484201  -0.00106436  0.33371074  1
  Ni  Ni21  1  0.66547584  0.33364565  0.99710196  1
  Ni  Ni22  1  0.83394477  0.49707646  0.16320270  1
  Ni  Ni23  1  0.66819456  0.33092091  0.33261279  1
  Ni  Ni24  1  0.66816460  0.66422473  0.99791718  1
  Cr  Cr25  1  0.83048792  0.83090957  0.16246300  1
  Cr  Cr26  1  0.66392804  0.66568344  0.33184870  1
  Ni  Ni27  1  0.16387157  0.16783457  0.49735322  1
  Cr  Cr28  1  0.99841124  0.99671299  0.66383426  1
  Ni  Ni29  1  0.16912446  0.16730034  0.83406333  1
  Ni  Ni30  1  0.16510608  0.49874234  0.49786462  1
  Cr  Cr31  1  -0.00080750  0.33364298  0.66392237  1
  Ni  Ni32  1  0.16543336  0.49838488  0.83202310  1
  Ni  Ni33  1  0.16565165  0.82919064  0.49918792  1
  Ni  Ni34  1  0.99825049  0.66544724  0.66560037  1
  Ni  Ni35  1  0.16331752  0.83006661  0.83221044  1
  Cr  Cr36  1  0.50042141  0.16584128  0.49859738  1
  Cr  Cr37  1  0.33120302  -0.00079406  0.66598297  1
  Ni  Ni38  1  0.49751668  0.16807973  0.83330772  1
  Cr  Cr39  1  0.49672890  0.49948817  0.49993045  1
  Ni  Ni40  1  0.33219714  0.33374612  0.66737199  1
  Ni  Ni41  1  0.49911830  0.49543178  0.83073086  1
  Ni  Ni42  1  0.49967109  0.83136719  0.49835140  1
  Ni  Ni43  1  0.33054038  0.66371779  0.66416458  1
  Cr  Cr44  1  0.50060040  0.83179700  0.83165229  1
  Ni  Ni45  1  0.83109533  0.16544626  0.49658798  1
  Ni  Ni46  1  0.66592299  0.99732541  0.66366646  1
  Cr  Cr47  1  0.82948690  0.16514532  0.83304257  1
  Ni  Ni48  1  0.83317067  0.49763722  0.49896271  1
  Ni  Ni49  1  0.66422617  0.33325439  0.66610038  1
  Ni  Ni50  1  0.83120368  0.50125170  0.83351636  1
  Ni  Ni51  1  0.83037110  0.83264595  0.50083452  1
  Ni  Ni52  1  0.66693063  0.66510786  0.66534090  1
  Ni  Ni53  1  0.83209184  0.82849539  0.83177586  1
" 