1129,Ni34Fe26Cr38_8,-224.085487709509, 182.190803476317,Ni34Fe26Cr38,"# generated using pymatgen
 data_Cr11Fe7Ni9
_symmetry_space_group_name_H-M   'P 1'
_cell_length_a   7.48010215
_cell_length_b   7.48010215
_cell_length_c   10.57846191
_cell_angle_alpha   90.00000000
_cell_angle_beta   90.00000000
_cell_angle_gamma   90.00000000
_symmetry_Int_Tables_number   1
_chemical_formula_structural   Cr11Fe7Ni9
_chemical_formula_sum   'Cr22 Fe14 Ni18'
_cell_volume   591.88534073
_cell_formula_units_Z   2
loop_
 _symmetry_equiv_pos_site_id
 _symmetry_equiv_pos_as_xyz
  1  'x, y, z'
loop_
 _atom_site_type_symbol
 _atom_site_label
 _atom_site_symmetry_multiplicity
 _atom_site_fract_x
 _atom_site_fract_y
 _atom_site_fract_z
 _atom_site_occupancy
  Ni  Ni0  1  0.99759269  0.99869515  0.99872891  1
  Cr  Cr1  1  0.15965445  0.16609105  0.16646193  1
  Ni  Ni2  1  0.99766737  -0.00066384  0.33290436  1
  Cr  Cr3  1  0.99817823  0.33415762  0.99903461  1
  Fe  Fe4  1  0.16787757  0.49863946  0.16651795  1
  Ni  Ni5  1  0.99595623  0.33426303  0.33355133  1
  Cr  Cr6  1  0.99777629  0.66490517  -0.00048631  1
  Cr  Cr7  1  0.16531937  0.83355335  0.16603082  1
  Cr  Cr8  1  0.99897467  0.66419672  0.33135712  1
  Cr  Cr9  1  0.33281691  0.99893696  0.99488998  1
  Cr  Cr10  1  0.50121793  0.16740909  0.16547802  1
  Cr  Cr11  1  0.33122339  0.99596691  0.33890185  1
  Fe  Fe12  1  0.33270893  0.33322820  0.00011899  1
  Ni  Ni13  1  0.49947840  0.50324731  0.16611925  1
  Cr  Cr14  1  0.33227131  0.33292381  0.33296042  1
  Fe  Fe15  1  0.33397044  0.66679251  -0.00035573  1
  Ni  Ni16  1  0.50036001  0.82665046  0.16454582  1
  Fe  Fe17  1  0.33190379  0.66422514  0.33256420  1
  Ni  Ni18  1  0.66570796  0.99711776  -0.00084802  1
  Ni  Ni19  1  0.83348518  0.16514711  0.16639450  1
  Cr  Cr20  1  0.66507087  -0.00012593  0.33052139  1
  Cr  Cr21  1  0.66727499  0.33344589  0.99822805  1
  Fe  Fe22  1  0.82922187  0.49793301  0.16641257  1
  Ni  Ni23  1  0.66914608  0.33553269  0.33265807  1
  Ni  Ni24  1  0.66496914  0.66630721  0.00048713  1
  Fe  Fe25  1  0.82993306  0.83463534  0.16406790  1
  Fe  Fe26  1  0.66683155  0.66403316  0.32890887  1
  Fe  Fe27  1  0.16075983  0.16746848  0.49835931  1
  Cr  Cr28  1  0.00040106  0.00050505  0.66580935  1
  Ni  Ni29  1  0.16234366  0.16486971  0.83305525  1
  Ni  Ni30  1  0.16624941  0.49941185  0.49977027  1
  Ni  Ni31  1  0.99800665  0.33569577  0.66470316  1
  Cr  Cr32  1  0.16696635  0.49904198  0.83276171  1
  Ni  Ni33  1  0.16499691  0.82914512  0.49975540  1
  Fe  Fe34  1  0.00125499  0.66420176  0.66545682  1
  Ni  Ni35  1  0.16691454  0.83324014  0.83118315  1
  Fe  Fe36  1  0.50166200  0.16658088  0.49781158  1
  Cr  Cr37  1  0.33243705  0.99749879  0.66415586  1
  Fe  Fe38  1  0.49944705  0.16604686  0.83438197  1
  Cr  Cr39  1  0.50072999  0.49917933  0.49879765  1
  Cr  Cr40  1  0.33071580  0.32980361  0.66601726  1
  Cr  Cr41  1  0.49959151  0.50139876  0.83295716  1
  Cr  Cr42  1  0.50032657  0.82724977  0.49965725  1
  Ni  Ni43  1  0.32992838  0.66694602  0.66564842  1
  Fe  Fe44  1  0.49899444  0.83093048  0.83350358  1
  Ni  Ni45  1  0.83500755  0.16837932  0.49618951  1
  Cr  Cr46  1  0.66381560  0.00132392  0.66849232  1
  Ni  Ni47  1  0.83476081  0.16564830  0.83439271  1
  Fe  Fe48  1  0.83572052  0.49914892  0.49987022  1
  Cr  Cr49  1  0.67042476  0.33139370  0.66529141  1
  Ni  Ni50  1  0.83167884  0.49868406  0.82844451  1
  Cr  Cr51  1  0.83358718  0.83404856  0.49916877  1
  Fe  Fe52  1  0.66670859  0.66522570  0.66748402  1
  Cr  Cr53  1  0.83285993  0.83256747  0.83360604  1
" 