7986,Ni34Fe33Cr32_8,-226.791492421149, 183.440476578077,Ni34Fe33Cr32,"# generated using pymatgen
 data_CrFeNi
_symmetry_space_group_name_H-M   'P 1'
_cell_length_a   7.47144220
_cell_length_b   7.47144220
_cell_length_c   10.56621489
_cell_angle_alpha   90.00000000
_cell_angle_beta   90.00000000
_cell_angle_gamma   90.00000000
_symmetry_Int_Tables_number   1
_chemical_formula_structural   CrFeNi
_chemical_formula_sum   'Cr18 Fe18 Ni18'
_cell_volume   589.83198642
_cell_formula_units_Z   18
loop_
 _symmetry_equiv_pos_site_id
 _symmetry_equiv_pos_as_xyz
  1  'x, y, z'
loop_
 _atom_site_type_symbol
 _atom_site_label
 _atom_site_symmetry_multiplicity
 _atom_site_fract_x
 _atom_site_fract_y
 _atom_site_fract_z
 _atom_site_occupancy
  Fe  Fe0  1  0.00020937  0.99831977  0.99899434  1
  Cr  Cr1  1  0.16587457  0.16687440  0.16463679  1
  Fe  Fe2  1  0.99829870  0.99854515  0.33378232  1
  Fe  Fe3  1  0.00086239  0.33334565  0.99880718  1
  Ni  Ni4  1  0.16946449  0.49885469  0.16735152  1
  Cr  Cr5  1  0.99756893  0.33475900  0.33423931  1
  Cr  Cr6  1  0.00254777  0.66430199  0.99897184  1
  Ni  Ni7  1  0.16576045  0.83352796  0.16844013  1
  Fe  Fe8  1  0.00126518  0.66629340  0.33370793  1
  Cr  Cr9  1  0.33400387  0.99844626  0.99783716  1
  Fe  Fe10  1  0.50170888  0.16834346  0.16610277  1
  Cr  Cr11  1  0.33506374  0.99851495  0.33208318  1
  Fe  Fe12  1  0.33467571  0.33429621  0.99870618  1
  Ni  Ni13  1  0.49954052  0.49832425  0.16737054  1
  Fe  Fe14  1  0.33440782  0.33564466  0.33316681  1
  Cr  Cr15  1  0.33242880  0.66627964  0.00028223  1
  Fe  Fe16  1  0.49973583  0.82990155  0.16598221  1
  Ni  Ni17  1  0.33278139  0.66454208  0.33036863  1
  Ni  Ni18  1  0.66485132  0.00153412  0.00212782  1
  Fe  Fe19  1  0.83142818  0.16726452  0.16515456  1
  Fe  Fe20  1  0.66814873  0.00086517  0.33303976  1
  Fe  Fe21  1  0.66370044  0.33429911  0.99929992  1
  Cr  Cr22  1  0.82950731  0.49994061  0.16426974  1
  Fe  Fe23  1  0.66385900  0.33335223  0.33402544  1
  Ni  Ni24  1  0.66418350  0.66645757  0.99902826  1
  Cr  Cr25  1  0.83225048  0.83393960  0.16625816  1
  Fe  Fe26  1  0.66569229  0.66478855  0.33344584  1
  Cr  Cr27  1  0.16700153  0.16650727  0.50228994  1
  Ni  Ni28  1  0.99927117  0.00029910  0.66624070  1
  Ni  Ni29  1  0.16669337  0.16646508  0.83269525  1
  Ni  Ni30  1  0.16648878  0.49906815  0.49884251  1
  Ni  Ni31  1  0.99968497  0.33478860  0.66713854  1
  Fe  Fe32  1  0.16433782  0.49888403  0.83243836  1
  Cr  Cr33  1  0.16468596  0.83286180  0.50084130  1
  Ni  Ni34  1  0.00009667  0.66417427  0.66491812  1
  Ni  Ni35  1  0.16621863  0.83715806  0.83034359  1
  Fe  Fe36  1  0.50109786  0.16827694  0.49745966  1
  Fe  Fe37  1  0.33162063  -0.00003256  0.66959642  1
  Fe  Fe38  1  0.49974131  0.16655487  0.83424494  1
  Ni  Ni39  1  0.50020451  0.49847552  0.49619169  1
  Cr  Cr40  1  0.33384367  0.33370059  0.66642563  1
  Ni  Ni41  1  0.50147894  0.49917135  0.83559250  1
  Cr  Cr42  1  0.49995027  0.83082419  0.49984489  1
  Cr  Cr43  1  0.33222948  0.66596270  0.66920449  1
  Ni  Ni44  1  0.49938923  0.83265906  0.83469683  1
  Fe  Fe45  1  0.83374150  0.16639245  0.49959621  1
  Cr  Cr46  1  0.66473593  0.00104120  0.66537691  1
  Cr  Cr47  1  0.83570325  0.16773572  0.83537893  1
  Ni  Ni48  1  0.83253662  0.50105375  0.49998592  1
  Cr  Cr49  1  0.66809060  0.33343920  0.66468344  1
  Ni  Ni50  1  0.83162722  0.49837252  0.83348701  1
  Ni  Ni51  1  0.83353891  0.83268589  0.49856200  1
  Cr  Cr52  1  0.66750354  0.66477369  0.66756774  1
  Cr  Cr53  1  0.83278698  0.83126903  0.83299489  1
" 