582,Ni34Fe46Cr18_19,-231.452972686868, 192.264163488327,Ni34Fe46Cr18,"# generated using pymatgen
 data_Cr11Fe25Ni18
_symmetry_space_group_name_H-M   'P 1'
_cell_length_a   7.44401490
_cell_length_b   7.44401490
_cell_length_c   10.52742683
_cell_angle_alpha   90.00000000
_cell_angle_beta   90.00000000
_cell_angle_gamma   90.00000000
_symmetry_Int_Tables_number   1
_chemical_formula_structural   Cr11Fe25Ni18
_chemical_formula_sum   'Cr11 Fe25 Ni18'
_cell_volume   583.36007070
_cell_formula_units_Z   1
loop_
 _symmetry_equiv_pos_site_id
 _symmetry_equiv_pos_as_xyz
  1  'x, y, z'
loop_
 _atom_site_type_symbol
 _atom_site_label
 _atom_site_symmetry_multiplicity
 _atom_site_fract_x
 _atom_site_fract_y
 _atom_site_fract_z
 _atom_site_occupancy
  Ni  Ni0  1  1.00153968  1.00144822  1.00140771  1
  Fe  Fe1  1  0.16492386  0.16678672  0.17000388  1
  Ni  Ni2  1  1.00140932  0.00237286  0.33540256  1
  Ni  Ni3  1  0.99939763  0.33551997  0.00217286  1
  Fe  Fe4  1  0.16622292  0.50141630  0.16714996  1
  Fe  Fe5  1  0.00326113  0.33223799  0.33487916  1
  Fe  Fe6  1  1.00021105  0.66791448  1.00113946  1
  Fe  Fe7  1  0.16766029  0.83651525  0.16824070  1
  Cr  Cr8  1  0.00176477  0.66874999  0.33500744  1
  Cr  Cr9  1  0.33345020  0.99856644  1.00104232  1
  Cr  Cr10  1  0.50046570  0.16643675  0.16988668  1
  Ni  Ni11  1  0.33476285  1.00131913  0.33653142  1
  Cr  Cr12  1  0.33459716  0.33650266  1.00004505  1
  Cr  Cr13  1  0.50306601  0.50306983  0.16670891  1
  Fe  Fe14  1  0.33182209  0.33175523  0.33657133  1
  Fe  Fe15  1  0.33456508  0.66886245  1.00116613  1
  Ni  Ni16  1  0.50300930  0.83428741  0.16869207  1
  Cr  Cr17  1  0.33423752  0.66982999  0.33510975  1
  Cr  Cr18  1  0.67008596  0.00236206  1.00144296  1
  Fe  Fe19  1  0.83731561  0.16696866  0.16782035  1
  Ni  Ni20  1  0.66843545  1.00084566  0.33547840  1
  Ni  Ni21  1  0.67155172  0.33694659  0.99920516  1
  Fe  Fe22  1  0.83524433  0.50211959  0.16591539  1
  Cr  Cr23  1  0.66991539  0.33351115  0.33606393  1
  Ni  Ni24  1  0.66871365  0.66677226  1.00060347  1
  Ni  Ni25  1  0.83547446  0.83426587  0.16777799  1
  Fe  Fe26  1  0.66924672  0.67269710  0.33519598  1
  Ni  Ni27  1  0.16988153  0.16818552  0.50160045  1
  Fe  Fe28  1  0.00324861  1.00059074  0.66749549  1
  Fe  Fe29  1  0.16608117  0.16871891  0.83363090  1
  Fe  Fe30  1  0.16718916  0.50031860  0.50258788  1
  Fe  Fe31  1  0.00258551  0.33606236  0.66848057  1
  Fe  Fe32  1  0.16622582  0.50103498  0.83487475  1
  Ni  Ni33  1  0.16694090  0.83829094  0.50231539  1
  Ni  Ni34  1  0.00198515  0.66800267  0.66823401  1
  Fe  Fe35  1  0.16614460  0.83491518  0.83422644  1
  Ni  Ni36  1  0.49708347  0.16733340  0.50036938  1
  Fe  Fe37  1  0.33357557  0.00291079  0.66720240  1
  Ni  Ni38  1  0.49947721  0.16920202  0.83466340  1
  Fe  Fe39  1  0.50160763  0.50206874  0.50133801  1
  Fe  Fe40  1  0.33343255  0.33296377  0.66821190  1
  Fe  Fe41  1  0.50336378  0.50179577  0.83635240  1
  Ni  Ni42  1  0.50275103  0.83652865  0.49997006  1
  Cr  Cr43  1  0.33324122  0.66843127  0.66782044  1
  Fe  Fe44  1  0.50233581  0.83312815  0.83517004  1
  Fe  Fe45  1  0.83698023  0.16591834  0.50030260  1
  Cr  Cr46  1  0.66827148  0.00209398  0.66783355  1
  Fe  Fe47  1  0.83677925  0.16983898  0.83656162  1
  Ni  Ni48  1  0.83587213  0.50380960  0.50198171  1
  Cr  Cr49  1  0.66821532  0.33450848  0.66912027  1
  Ni  Ni50  1  0.83585155  0.50293334  0.83711396  1
  Ni  Ni51  1  0.83506018  0.83245736  0.50209496  1
  Fe  Fe52  1  0.67084654  0.66814462  0.66823605  1
  Fe  Fe53  1  0.83616409  0.83327360  0.83509171  1
" 