4895,Ni34Fe66_19,-242.895900194518, 222.920894475043,Ni34Fe66,"# generated using pymatgen
 data_FeNi2
_symmetry_space_group_name_H-M   'P 1'
_cell_length_a   7.41051241
_cell_length_b   7.41051241
_cell_length_c   10.48004716
_cell_angle_alpha   90.00000000
_cell_angle_beta   90.00000000
_cell_angle_gamma   90.00000000
_symmetry_Int_Tables_number   1
_chemical_formula_structural   FeNi2
_chemical_formula_sum   'Fe18 Ni36'
_cell_volume   575.51906535
_cell_formula_units_Z   18
loop_
 _symmetry_equiv_pos_site_id
 _symmetry_equiv_pos_as_xyz
  1  'x, y, z'
loop_
 _atom_site_type_symbol
 _atom_site_label
 _atom_site_symmetry_multiplicity
 _atom_site_fract_x
 _atom_site_fract_y
 _atom_site_fract_z
 _atom_site_occupancy
  Ni  Ni0  1  1.00378319  0.00449060  1.00364542  1
  Ni  Ni1  1  0.17028228  0.17164295  0.17124195  1
  Fe  Fe2  1  1.00373310  0.00382449  0.33655512  1
  Ni  Ni3  1  0.00430561  0.33688411  1.00363762  1
  Ni  Ni4  1  0.17030083  0.50185075  0.17047091  1
  Ni  Ni5  1  1.00298189  0.33763704  0.33670244  1
  Ni  Ni6  1  1.00375453  0.67006823  1.00374299  1
  Fe  Fe7  1  0.17079349  0.83594836  0.17088960  1
  Fe  Fe8  1  1.00377738  0.67058839  0.33685837  1
  Fe  Fe9  1  0.33624661  1.00368662  1.00358421  1
  Fe  Fe10  1  0.50392643  0.17092190  0.17124538  1
  Ni  Ni11  1  0.33796762  1.00184281  0.33659726  1
  Ni  Ni12  1  0.33615399  0.33774315  0.00399483  1
  Ni  Ni13  1  0.50335505  0.50429905  0.17066898  1
  Fe  Fe14  1  0.33766695  0.33703378  0.33656297  1
  Ni  Ni15  1  0.33777857  0.67026952  1.00316953  1
  Ni  Ni16  1  0.50528474  0.83708024  0.17129586  1
  Ni  Ni17  1  0.33710339  0.67194651  0.33730668  1
  Fe  Fe18  1  0.67109716  1.00264923  1.00341993  1
  Fe  Fe19  1  0.83741800  0.17130432  0.17049658  1
  Ni  Ni20  1  0.66931223  0.00391536  0.33756623  1
  Fe  Fe21  1  0.67084607  0.33869465  1.00341188  1
  Ni  Ni22  1  0.83778966  0.50462951  0.17069643  1
  Ni  Ni23  1  0.67208572  0.33677802  0.33710737  1
  Ni  Ni24  1  0.66991765  0.67080257  0.00422106  1
  Ni  Ni25  1  0.83621090  0.83710781  0.17065136  1
  Fe  Fe26  1  0.66983811  0.67078572  0.33677353  1
  Fe  Fe27  1  0.17139566  0.16981706  0.50373852  1
  Fe  Fe28  1  1.00247592  0.00397812  0.67122853  1
  Ni  Ni29  1  0.17020106  0.17165654  0.83631581  1
  Ni  Ni30  1  0.17078211  0.50316473  0.50325758  1
  Ni  Ni31  1  1.00332699  0.33745992  0.67111103  1
  Ni  Ni32  1  0.17019722  0.50226454  0.83771016  1
  Ni  Ni33  1  0.16963762  0.83713473  0.50326633  1
  Fe  Fe34  1  1.00276066  0.67059217  0.67069274  1
  Fe  Fe35  1  0.17055677  0.83728693  0.83703519  1
  Ni  Ni36  1  0.50387000  0.17039270  0.50340596  1
  Ni  Ni37  1  0.33784434  1.00288039  0.67084897  1
  Ni  Ni38  1  0.50332941  0.17008038  0.83770119  1
  Ni  Ni39  1  0.50300785  0.50302202  0.50361251  1
  Fe  Fe40  1  0.33841767  0.33682671  0.67130079  1
  Ni  Ni41  1  0.50335284  0.50386617  0.83715313  1
  Ni  Ni42  1  0.50488631  0.83801923  0.50362142  1
  Fe  Fe43  1  0.33828683  0.67012522  0.66993887  1
  Ni  Ni44  1  0.50527302  0.83749414  0.83651236  1
  Fe  Fe45  1  0.83620218  0.17063140  0.50418345  1
  Ni  Ni46  1  0.66907851  1.00325616  0.67060870  1
  Ni  Ni47  1  0.83791175  0.16973734  0.83748493  1
  Fe  Fe48  1  0.83654911  0.50394988  0.50404966  1
  Ni  Ni49  1  0.67186401  0.33742749  0.67107972  1
  Ni  Ni50  1  0.83789844  0.50421823  0.83710763  1
  Ni  Ni51  1  0.83690147  0.83801864  0.50363180  1
  Ni  Ni52  1  0.66994753  0.67076537  0.66971781  1
  Ni  Ni53  1  0.83631800  0.83749255  0.83715519  1
" 