6772,Ni34Cr66_16,-226.325645426943, 149.22574179415,Ni34Cr66,"# generated using pymatgen
 data_CrNi2
_symmetry_space_group_name_H-M   'P 1'
_cell_length_a   7.48728634
_cell_length_b   7.48728634
_cell_length_c   10.58862188
_cell_angle_alpha   90.00000000
_cell_angle_beta   90.00000000
_cell_angle_gamma   90.00000000
_symmetry_Int_Tables_number   1
_chemical_formula_structural   CrNi2
_chemical_formula_sum   'Cr18 Ni36'
_cell_volume   593.59238978
_cell_formula_units_Z   18
loop_
 _symmetry_equiv_pos_site_id
 _symmetry_equiv_pos_as_xyz
  1  'x, y, z'
loop_
 _atom_site_type_symbol
 _atom_site_label
 _atom_site_symmetry_multiplicity
 _atom_site_fract_x
 _atom_site_fract_y
 _atom_site_fract_z
 _atom_site_occupancy
  Ni  Ni0  1  0.99711667  -0.00113993  -0.00082772  1
  Ni  Ni1  1  0.16597879  0.16533247  0.16331212  1
  Ni  Ni2  1  0.99663644  0.99710597  0.33209070  1
  Ni  Ni3  1  -0.00043858  0.33354927  0.99860072  1
  Ni  Ni4  1  0.16291240  0.49784834  0.16429421  1
  Cr  Cr5  1  0.99733146  0.33285462  0.33223375  1
  Ni  Ni6  1  0.99716684  0.66353693  -0.00082650  1
  Cr  Cr7  1  0.16236159  0.83261300  0.16468074  1
  Ni  Ni8  1  0.99858362  0.66524279  0.33167649  1
  Ni  Ni9  1  0.33443800  -0.00023841  -0.00026228  1
  Ni  Ni10  1  0.49831544  0.16376737  0.16537754  1
  Cr  Cr11  1  0.33240376  0.99771120  0.33154640  1
  Cr  Cr12  1  0.33066617  0.33133192  0.00008686  1
  Ni  Ni13  1  0.49929291  0.49729471  0.16692557  1
  Cr  Cr14  1  0.33303239  0.33376493  0.32963464  1
  Cr  Cr15  1  0.33277119  0.66485296  -0.00134150  1
  Ni  Ni16  1  0.50095768  0.83490342  0.16441996  1
  Cr  Cr17  1  0.33150137  0.66445021  0.33362738  1
  Ni  Ni18  1  0.66441952  0.99740105  0.99806934  1
  Cr  Cr19  1  0.83151103  0.16377566  0.16628166  1
  Ni  Ni20  1  0.66628803  -0.00052537  0.33062144  1
  Cr  Cr21  1  0.66628772  0.33129925  0.99777887  1
  Ni  Ni22  1  0.83375905  0.50049496  0.16555851  1
  Ni  Ni23  1  0.66537048  0.33200028  0.33238644  1
  Cr  Cr24  1  0.66691175  0.66760348  0.99846119  1
  Ni  Ni25  1  0.83213536  0.83180075  0.16518533  1
  Cr  Cr26  1  0.66576485  0.66490661  0.33054974  1
  Cr  Cr27  1  0.16237622  0.16302846  0.50023778  1
  Ni  Ni28  1  0.99671985  -0.00098583  0.66467461  1
  Cr  Cr29  1  0.16422564  0.16506263  0.83269411  1
  Ni  Ni30  1  0.16268651  0.50187918  0.49927956  1
  Ni  Ni31  1  0.99499562  0.33354592  0.66543919  1
  Ni  Ni32  1  0.16158510  0.49863029  0.83237908  1
  Ni  Ni33  1  0.16443955  0.83080835  0.49929130  1
  Ni  Ni34  1  0.99708791  0.66337875  0.66507337  1
  Cr  Cr35  1  0.16374646  0.83192365  0.83173347  1
  Cr  Cr36  1  0.50302086  0.16513847  0.49907081  1
  Ni  Ni37  1  0.33390405  0.99660538  0.66525321  1
  Ni  Ni38  1  0.50140749  0.16264204  0.83147748  1
  Ni  Ni39  1  0.50112512  0.49943511  0.49909420  1
  Cr  Cr40  1  0.33213088  0.33310557  0.66621910  1
  Ni  Ni41  1  0.50079819  0.49840236  0.82989840  1
  Ni  Ni42  1  0.49793575  0.83185896  0.50048132  1
  Cr  Cr43  1  0.33310711  0.66620276  0.66367154  1
  Ni  Ni44  1  0.50138121  0.83489452  0.83105069  1
  Ni  Ni45  1  0.83112757  0.16642778  0.49949080  1
  Ni  Ni46  1  0.66533011  -0.00132311  0.66726868  1
  Ni  Ni47  1  0.83066880  0.16472970  0.83048908  1
  Ni  Ni48  1  0.83209396  0.49693890  0.50025008  1
  Ni  Ni49  1  0.66818035  0.33275512  0.66551034  1
  Ni  Ni50  1  0.83356220  0.49862925  0.83011992  1
  Cr  Cr51  1  0.83327624  0.83265908  0.49855973  1
  Ni  Ni52  1  0.66576744  0.66451797  0.66632318  1
  Ni  Ni53  1  0.83086074  0.83258719  0.83184420  1
" 