4676,Ni34Fe26Cr38_17,-224.258461493753, 179.258741100106,Ni34Fe26Cr38,"# generated using pymatgen
 data_Cr11Fe7Ni9
_symmetry_space_group_name_H-M   'P 1'
_cell_length_a   7.48465730
_cell_length_b   7.48465730
_cell_length_c   10.58490386
_cell_angle_alpha   90.00000000
_cell_angle_beta   90.00000000
_cell_angle_gamma   90.00000000
_symmetry_Int_Tables_number   1
_chemical_formula_structural   Cr11Fe7Ni9
_chemical_formula_sum   'Cr22 Fe14 Ni18'
_cell_volume   592.96731907
_cell_formula_units_Z   2
loop_
 _symmetry_equiv_pos_site_id
 _symmetry_equiv_pos_as_xyz
  1  'x, y, z'
loop_
 _atom_site_type_symbol
 _atom_site_label
 _atom_site_symmetry_multiplicity
 _atom_site_fract_x
 _atom_site_fract_y
 _atom_site_fract_z
 _atom_site_occupancy
  Cr  Cr0  1  -0.00079402  0.99870220  0.00181893  1
  Ni  Ni1  1  0.16096352  0.16561659  0.16889287  1
  Fe  Fe2  1  -0.00113417  0.00134046  0.33203987  1
  Cr  Cr3  1  0.99619651  0.33107343  0.99664550  1
  Cr  Cr4  1  0.16343354  0.49722455  0.16547917  1
  Ni  Ni5  1  0.99794662  0.33226782  0.33366095  1
  Fe  Fe6  1  0.00057251  0.66440930  -0.00102529  1
  Fe  Fe7  1  0.16219266  0.83103858  0.16634402  1
  Ni  Ni8  1  0.99740411  0.66476531  0.33143036  1
  Cr  Cr9  1  0.32862395  0.99801553  0.99779764  1
  Cr  Cr10  1  0.49837602  0.16680133  0.16403600  1
  Cr  Cr11  1  0.32753810  -0.00009848  0.33331227  1
  Cr  Cr12  1  0.33063057  0.33119104  0.99878749  1
  Cr  Cr13  1  0.49749845  0.49791685  0.16686279  1
  Ni  Ni14  1  0.32632384  0.33130018  0.33255652  1
  Ni  Ni15  1  0.32915501  0.66757696  0.99733784  1
  Cr  Cr16  1  0.50013147  0.83202309  0.16448254  1
  Cr  Cr17  1  0.33016041  0.66641712  0.33401265  1
  Fe  Fe18  1  0.66673260  0.00234119  0.99791407  1
  Ni  Ni19  1  0.83515792  0.16559803  0.16483220  1
  Cr  Cr20  1  0.66883435  0.99872874  0.33046119  1
  Ni  Ni21  1  0.66935797  0.33102095  0.99798510  1
  Ni  Ni22  1  0.83582192  0.49856162  0.16585073  1
  Cr  Cr23  1  0.67015637  0.33322213  0.33284826  1
  Cr  Cr24  1  0.66842087  0.66304718  0.00175134  1
  Fe  Fe25  1  0.83630091  0.83105226  0.16691537  1
  Fe  Fe26  1  0.67026499  0.66361256  0.33213547  1
  Fe  Fe27  1  0.16185837  0.16708987  0.49855060  1
  Ni  Ni28  1  0.00070488  0.00035984  0.66408833  1
  Fe  Fe29  1  0.16522952  0.16479839  0.83031579  1
  Ni  Ni30  1  0.16150525  0.49876185  0.49831564  1
  Fe  Fe31  1  0.99878665  0.33212192  0.66505648  1
  Ni  Ni32  1  0.16133305  0.50115310  0.83161495  1
  Fe  Fe33  1  0.16264110  0.83105329  0.50084469  1
  Fe  Fe34  1  0.00101588  0.66472637  0.66438773  1
  Fe  Fe35  1  0.16514786  0.83121956  0.83003582  1
  Cr  Cr36  1  0.49956290  0.16453373  0.50069329  1
  Ni  Ni37  1  0.32780536  0.99822522  0.66640506  1
  Ni  Ni38  1  0.50120255  0.16461082  0.83165525  1
  Cr  Cr39  1  0.49663583  0.49754027  0.49655103  1
  Cr  Cr40  1  0.33033921  0.33250026  0.66502080  1
  Cr  Cr41  1  0.49595183  0.49730612  0.83315067  1
  Cr  Cr42  1  0.49902279  0.83449878  0.50274811  1
  Ni  Ni43  1  0.32674068  0.66672172  0.66538414  1
  Cr  Cr44  1  0.49963446  0.83479058  0.82964604  1
  Ni  Ni45  1  0.83634304  0.16592000  0.50147776  1
  Ni  Ni46  1  0.66785059  0.00274241  0.66746448  1
  Fe  Fe47  1  0.83186969  0.16686638  0.83032677  1
  Ni  Ni48  1  0.83917515  0.49709456  0.49944714  1
  Ni  Ni49  1  0.67003890  0.33022237  0.66638564  1
  Fe  Fe50  1  0.83226333  0.49718010  0.83083640  1
  Cr  Cr51  1  0.83480935  0.83436796  0.49771286  1
  Cr  Cr52  1  0.66719489  0.66106634  0.66164474  1
  Cr  Cr53  1  0.83554502  0.83423684  0.83154908  1
" 