2411,Ni34Fe66_9,-243.007959651144, 222.883233713288,Ni34Fe66,"# generated using pymatgen
 data_FeNi2
_symmetry_space_group_name_H-M   'P 1'
_cell_length_a   7.40729987
_cell_length_b   7.40729987
_cell_length_c   10.47550394
_cell_angle_alpha   90.00000000
_cell_angle_beta   90.00000000
_cell_angle_gamma   90.00000000
_symmetry_Int_Tables_number   1
_chemical_formula_structural   FeNi2
_chemical_formula_sum   'Fe18 Ni36'
_cell_volume   574.77090788
_cell_formula_units_Z   18
loop_
 _symmetry_equiv_pos_site_id
 _symmetry_equiv_pos_as_xyz
  1  'x, y, z'
loop_
 _atom_site_type_symbol
 _atom_site_label
 _atom_site_symmetry_multiplicity
 _atom_site_fract_x
 _atom_site_fract_y
 _atom_site_fract_z
 _atom_site_occupancy
  Ni  Ni0  1  1.00316948  0.00496330  1.00349154  1
  Fe  Fe1  1  0.17111489  0.17023908  0.16980701  1
  Ni  Ni2  1  0.00412854  0.00445496  0.33765012  1
  Ni  Ni3  1  0.00536531  0.33780269  0.00450424  1
  Ni  Ni4  1  0.16982463  0.50454036  0.17141516  1
  Fe  Fe5  1  1.00193184  0.33885377  0.33798332  1
  Fe  Fe6  1  1.00370857  0.67211087  0.00425107  1
  Ni  Ni7  1  0.16992493  0.83751317  0.16995041  1
  Ni  Ni8  1  0.00441456  0.67098268  0.33673848  1
  Ni  Ni9  1  0.33800266  0.00533127  1.00396333  1
  Ni  Ni10  1  0.50476823  0.17028666  0.17116353  1
  Fe  Fe11  1  0.33783739  1.00144176  0.33698776  1
  Ni  Ni12  1  0.33661713  0.33832209  0.00443170  1
  Ni  Ni13  1  0.50409653  0.50275644  0.17075902  1
  Fe  Fe14  1  0.33744541  0.33781707  0.33688390  1
  Fe  Fe15  1  0.33745725  0.67143385  1.00402835  1
  Ni  Ni16  1  0.50408479  0.83859526  0.17068093  1
  Ni  Ni17  1  0.33746227  0.66931523  0.33574745  1
  Ni  Ni18  1  0.67133340  1.00190350  0.00499310  1
  Fe  Fe19  1  0.83769579  0.17023848  0.17140599  1
  Ni  Ni20  1  0.67157454  0.00417089  0.33674856  1
  Fe  Fe21  1  0.67009881  0.33567324  0.00515083  1
  Ni  Ni22  1  0.83779402  0.50405911  0.17046953  1
  Ni  Ni23  1  0.67005465  0.33773004  0.33633165  1
  Ni  Ni24  1  0.66980747  0.67123695  0.00473462  1
  Ni  Ni25  1  0.83806512  0.83733394  0.17249251  1
  Ni  Ni26  1  0.67046200  0.67000184  0.33795607  1
  Fe  Fe27  1  0.16827528  0.17090068  0.50489106  1
  Ni  Ni28  1  1.00354392  0.00445417  0.67089706  1
  Fe  Fe29  1  0.17257103  0.17030670  0.83738391  1
  Ni  Ni30  1  0.17014693  0.50589262  0.50352536  1
  Ni  Ni31  1  0.00504617  0.33797699  0.67066069  1
  Ni  Ni32  1  0.17023916  0.50411314  0.83709172  1
  Ni  Ni33  1  0.17140549  0.83655064  0.50486260  1
  Ni  Ni34  1  0.00457641  0.66986495  0.67108095  1
  Ni  Ni35  1  0.17006979  0.83710311  0.83713560  1
  Fe  Fe36  1  0.50378842  0.17104491  0.50389805  1
  Ni  Ni37  1  0.33798512  0.00409533  0.67052953  1
  Ni  Ni38  1  0.50557856  0.17101919  0.83655290  1
  Fe  Fe39  1  0.50363883  0.50438936  0.50361652  1
  Ni  Ni40  1  0.33645360  0.33843642  0.66993473  1
  Ni  Ni41  1  0.50303617  0.50164837  0.83721206  1
  Fe  Fe42  1  0.50425578  0.83626766  0.50400606  1
  Ni  Ni43  1  0.33757548  0.66975122  0.67206603  1
  Ni  Ni44  1  0.50390807  0.83904289  0.83748062  1
  Ni  Ni45  1  0.83527257  0.17069301  0.50375242  1
  Ni  Ni46  1  0.67077971  1.00343130  0.67015740  1
  Fe  Fe47  1  0.83770543  0.17037839  0.83667281  1
  Ni  Ni48  1  0.83803916  0.50261174  0.50481339  1
  Fe  Fe49  1  0.67064639  0.33665446  0.66941903  1
  Fe  Fe50  1  0.83680384  0.50545911  0.83791879  1
  Fe  Fe51  1  0.83938044  0.83669438  0.50372786  1
  Fe  Fe52  1  0.67066124  0.67095491  0.67175170  1
  Ni  Ni53  1  0.83816048  0.83893950  0.83602463  1
" 