6126,Ni34Fe66_5,-243.167740506423, 222.892713239005,Ni34Fe66,"# generated using pymatgen
 data_FeNi2
_symmetry_space_group_name_H-M   'P 1'
_cell_length_a   7.41057600
_cell_length_b   7.41057600
_cell_length_c   10.48013708
_cell_angle_alpha   90.00000000
_cell_angle_beta   90.00000000
_cell_angle_gamma   90.00000000
_symmetry_Int_Tables_number   1
_chemical_formula_structural   FeNi2
_chemical_formula_sum   'Fe18 Ni36'
_cell_volume   575.53388015
_cell_formula_units_Z   18
loop_
 _symmetry_equiv_pos_site_id
 _symmetry_equiv_pos_as_xyz
  1  'x, y, z'
loop_
 _atom_site_type_symbol
 _atom_site_label
 _atom_site_symmetry_multiplicity
 _atom_site_fract_x
 _atom_site_fract_y
 _atom_site_fract_z
 _atom_site_occupancy
  Ni  Ni0  1  0.00438820  0.00423127  0.00495722  1
  Ni  Ni1  1  0.17189449  0.17097488  0.16961636  1
  Ni  Ni2  1  0.00399328  0.00496637  0.33755660  1
  Ni  Ni3  1  0.00415428  0.33544490  1.00373720  1
  Ni  Ni4  1  0.16903281  0.50328756  0.17013622  1
  Ni  Ni5  1  0.00492084  0.33686423  0.33673174  1
  Fe  Fe6  1  0.00383035  0.66880856  1.00294596  1
  Fe  Fe7  1  0.17090070  0.83696042  0.17003555  1
  Fe  Fe8  1  1.00240595  0.67181084  0.33803556  1
  Fe  Fe9  1  0.33766842  0.00475064  1.00354375  1
  Ni  Ni10  1  0.50304987  0.16989957  0.17055406  1
  Ni  Ni11  1  0.33691325  1.00335392  0.33593034  1
  Ni  Ni12  1  0.33665497  0.33853210  0.00443536  1
  Ni  Ni13  1  0.50396032  0.50315456  0.17058154  1
  Fe  Fe14  1  0.33777375  0.33573841  0.33622733  1
  Ni  Ni15  1  0.33859652  0.67008520  0.00465016  1
  Ni  Ni16  1  0.50465394  0.83838575  0.16937319  1
  Fe  Fe17  1  0.33714017  0.67198634  0.33565455  1
  Fe  Fe18  1  0.67040683  0.00523172  0.00415299  1
  Fe  Fe19  1  0.83739859  0.17089390  0.17133064  1
  Ni  Ni20  1  0.67047915  1.00086184  0.33689579  1
  Ni  Ni21  1  0.67065529  0.33890016  0.00518676  1
  Ni  Ni22  1  0.83835361  0.50502701  0.17031221  1
  Fe  Fe23  1  0.67144088  0.33562239  0.33694626  1
  Ni  Ni24  1  0.66931651  0.67045865  0.00393945  1
  Ni  Ni25  1  0.83743757  0.83593031  0.16993814  1
  Ni  Ni26  1  0.66910816  0.67064547  0.33716185  1
  Fe  Fe27  1  0.16966070  0.16899832  0.50299584  1
  Ni  Ni28  1  0.00497025  1.00367258  0.66915481  1
  Fe  Fe29  1  0.17040964  0.17119368  0.83772058  1
  Fe  Fe30  1  0.16995254  0.50357650  0.50420471  1
  Ni  Ni31  1  0.00478354  0.33689826  0.67063061  1
  Ni  Ni32  1  0.16892737  0.50464911  0.83688393  1
  Ni  Ni33  1  0.17109619  0.83657500  0.50331157  1
  Ni  Ni34  1  1.00283870  0.67076294  0.67033776  1
  Ni  Ni35  1  0.17026288  0.83683949  0.83819937  1
  Ni  Ni36  1  0.50348274  0.16950788  0.50343601  1
  Ni  Ni37  1  0.33613656  0.00451937  0.67116020  1
  Ni  Ni38  1  0.50430962  0.17033103  0.83726991  1
  Fe  Fe39  1  0.50545558  0.50511440  0.50335804  1
  Ni  Ni40  1  0.33678400  0.33669857  0.66995708  1
  Fe  Fe41  1  0.50317714  0.50288766  0.83799129  1
  Ni  Ni42  1  0.50257624  0.83931970  0.50510913  1
  Fe  Fe43  1  0.33596020  0.67101673  0.67133542  1
  Fe  Fe44  1  0.50339611  0.83583556  0.83693168  1
  Ni  Ni45  1  0.83533861  0.17105867  0.50440807  1
  Ni  Ni46  1  0.67022779  1.00276511  0.67061916  1
  Fe  Fe47  1  0.83793728  0.17123702  0.83603096  1
  Ni  Ni48  1  0.83852734  0.50347713  0.50395991  1
  Ni  Ni49  1  0.66983508  0.33845994  0.66997391  1
  Ni  Ni50  1  0.83773511  0.50348375  0.83724065  1
  Ni  Ni51  1  0.83731641  0.83675887  0.50512801  1
  Ni  Ni52  1  0.67021503  0.67021832  0.67073642  1
  Fe  Fe53  1  0.83790965  0.83708843  0.83709920  1
" 