5254,Ni34Fe46Cr18_16,-231.060225070995, 193.328709238673,Ni34Fe46Cr18,"# generated using pymatgen
 data_Cr11Fe25Ni18
_symmetry_space_group_name_H-M   'P 1'
_cell_length_a   7.44266839
_cell_length_b   7.44266839
_cell_length_c   10.52552258
_cell_angle_alpha   90.00000000
_cell_angle_beta   90.00000000
_cell_angle_gamma   90.00000000
_symmetry_Int_Tables_number   1
_chemical_formula_structural   Cr11Fe25Ni18
_chemical_formula_sum   'Cr11 Fe25 Ni18'
_cell_volume   583.04356407
_cell_formula_units_Z   1
loop_
 _symmetry_equiv_pos_site_id
 _symmetry_equiv_pos_as_xyz
  1  'x, y, z'
loop_
 _atom_site_type_symbol
 _atom_site_label
 _atom_site_symmetry_multiplicity
 _atom_site_fract_x
 _atom_site_fract_y
 _atom_site_fract_z
 _atom_site_occupancy
  Fe  Fe0  1  0.00242290  0.00302001  1.00117654  1
  Fe  Fe1  1  0.16793744  0.16973007  0.16816395  1
  Ni  Ni2  1  0.00214386  0.00283683  0.33390851  1
  Ni  Ni3  1  1.00074547  0.33459428  0.00172423  1
  Ni  Ni4  1  0.16805826  0.50135834  0.16911180  1
  Ni  Ni5  1  0.00171546  0.33505600  0.33549290  1
  Ni  Ni6  1  1.00144810  0.66828489  1.00152578  1
  Fe  Fe7  1  0.16876093  0.83547809  0.16905942  1
  Fe  Fe8  1  0.00196098  0.66630462  0.33435214  1
  Ni  Ni9  1  0.33507576  1.00132811  0.00231075  1
  Ni  Ni10  1  0.50185364  0.16910175  0.16825552  1
  Fe  Fe11  1  0.33426434  0.00220519  0.33297933  1
  Ni  Ni12  1  0.33456916  0.33359975  0.00320141  1
  Ni  Ni13  1  0.50130883  0.49905267  0.16832166  1
  Fe  Fe14  1  0.33263820  0.33508200  0.33333041  1
  Cr  Cr15  1  0.33475075  0.66913574  0.00240302  1
  Fe  Fe16  1  0.50112671  0.83542447  0.16840865  1
  Fe  Fe17  1  0.33373953  0.66762224  0.33337662  1
  Fe  Fe18  1  0.66804627  0.00249323  1.00141008  1
  Ni  Ni19  1  0.83387015  0.16925033  0.16731022  1
  Fe  Fe20  1  0.66871345  0.00192447  0.33403251  1
  Ni  Ni21  1  0.66959569  0.33410533  0.00504714  1
  Ni  Ni22  1  0.83554627  0.50003433  0.16871986  1
  Fe  Fe23  1  0.67002663  0.33505300  0.33152808  1
  Fe  Fe24  1  0.66901043  0.66805514  0.00218924  1
  Cr  Cr25  1  0.83706797  0.83539007  0.16788265  1
  Fe  Fe26  1  0.66921165  0.66792822  0.33469965  1
  Fe  Fe27  1  0.16864412  0.17148516  0.50109706  1
  Cr  Cr28  1  1.00132684  0.00253267  0.67061116  1
  Fe  Fe29  1  0.16797027  0.16954912  0.83565641  1
  Ni  Ni30  1  0.16669564  0.50106917  0.50283339  1
  Ni  Ni31  1  0.00505654  0.33637834  0.66769360  1
  Ni  Ni32  1  0.16707145  0.50087301  0.83296523  1
  Cr  Cr33  1  0.16756584  0.83338902  0.50069669  1
  Fe  Fe34  1  0.00221577  0.66545423  0.66905245  1
  Fe  Fe35  1  0.16847278  0.83435304  0.83535463  1
  Cr  Cr36  1  0.50008556  0.16688055  0.50158043  1
  Fe  Fe37  1  0.33579201  0.00188353  0.66967799  1
  Cr  Cr38  1  0.50074670  0.16714450  0.83540332  1
  Cr  Cr39  1  0.49954577  0.50163330  0.50214437  1
  Ni  Ni40  1  0.33062282  0.33600694  0.66794945  1
  Cr  Cr41  1  0.49873631  0.50118754  0.83578399  1
  Fe  Fe42  1  0.50271498  0.83461984  0.50223975  1
  Fe  Fe43  1  0.33361145  0.66764160  0.66922376  1
  Ni  Ni44  1  0.50291884  0.83743472  0.83294945  1
  Cr  Cr45  1  0.83563664  0.16772834  0.50043000  1
  Fe  Fe46  1  0.66761590  0.99859713  0.66945776  1
  Fe  Fe47  1  0.83639753  0.16727022  0.83670802  1
  Fe  Fe48  1  0.83797565  0.50323109  0.50070796  1
  Cr  Cr49  1  0.66989364  0.33550112  0.66821335  1
  Cr  Cr50  1  0.83841236  0.50256776  0.83629776  1
  Fe  Fe51  1  0.83326378  0.83269036  0.50108731  1
  Fe  Fe52  1  0.66908141  0.67164495  0.66802442  1
  Ni  Ni53  1  0.83476176  0.83624478  0.83467946  1
" 