6676,Ni34Fe26Cr38_3,-224.183523852237, 183.016286656335,Ni34Fe26Cr38,"# generated using pymatgen
 data_Cr11Fe7Ni9
_symmetry_space_group_name_H-M   'P 1'
_cell_length_a   7.48030249
_cell_length_b   7.48030249
_cell_length_c   10.57874523
_cell_angle_alpha   90.00000000
_cell_angle_beta   90.00000000
_cell_angle_gamma   90.00000000
_symmetry_Int_Tables_number   1
_chemical_formula_structural   Cr11Fe7Ni9
_chemical_formula_sum   'Cr22 Fe14 Ni18'
_cell_volume   591.93290010
_cell_formula_units_Z   2
loop_
 _symmetry_equiv_pos_site_id
 _symmetry_equiv_pos_as_xyz
  1  'x, y, z'
loop_
 _atom_site_type_symbol
 _atom_site_label
 _atom_site_symmetry_multiplicity
 _atom_site_fract_x
 _atom_site_fract_y
 _atom_site_fract_z
 _atom_site_occupancy
  Ni  Ni0  1  -0.00025808  -0.00073165  0.99906158  1
  Cr  Cr1  1  0.16507803  0.16410237  0.16832054  1
  Fe  Fe2  1  0.00020009  0.99858177  0.33199003  1
  Ni  Ni3  1  0.99726092  0.32975679  0.99836115  1
  Cr  Cr4  1  0.16284185  0.49926993  0.16590231  1
  Ni  Ni5  1  0.99806611  0.33069582  0.33113937  1
  Fe  Fe6  1  -0.00002182  0.66682877  0.99615924  1
  Fe  Fe7  1  0.16520559  0.83485609  0.16567357  1
  Fe  Fe8  1  -0.00014457  0.66744672  0.33412917  1
  Fe  Fe9  1  0.33032724  0.99867204  -0.00070303  1
  Cr  Cr10  1  0.49915022  0.16503790  0.16598521  1
  Ni  Ni11  1  0.32995605  0.99593837  0.33117604  1
  Cr  Cr12  1  0.33334060  0.33487828  0.99703228  1
  Fe  Fe13  1  0.50076800  0.49698789  0.16575334  1
  Fe  Fe14  1  0.33433081  0.33214569  0.33226365  1
  Cr  Cr15  1  0.33135662  0.66648193  0.99898760  1
  Fe  Fe16  1  0.49671578  0.83348934  0.16651453  1
  Cr  Cr17  1  0.33331638  0.66718627  0.33255605  1
  Cr  Cr18  1  0.66843688  0.00151848  0.99715962  1
  Ni  Ni19  1  0.83300842  0.16778928  0.16515574  1
  Cr  Cr20  1  0.66655257  -0.00082981  0.33390898  1
  Ni  Ni21  1  0.66736968  0.33138473  -0.00086796  1
  Cr  Cr22  1  0.83308163  0.49674032  0.16515738  1
  Ni  Ni23  1  0.66685142  0.33314494  0.33025169  1
  Cr  Cr24  1  0.66372452  0.66380674  0.00064338  1
  Cr  Cr25  1  0.83428821  0.83200903  0.16586063  1
  Cr  Cr26  1  0.66343994  0.66455567  0.33311128  1
  Cr  Cr27  1  0.16701212  0.16633429  0.49574619  1
  Cr  Cr28  1  0.99704785  0.99771549  0.66515239  1
  Cr  Cr29  1  0.16608384  0.16683066  0.83309246  1
  Cr  Cr30  1  0.16431875  0.49882291  0.50142614  1
  Ni  Ni31  1  -0.00084317  0.33464478  0.66783329  1
  Ni  Ni32  1  0.16515593  0.50000506  0.83043899  1
  Ni  Ni33  1  0.16667202  0.83133932  0.49717184  1
  Ni  Ni34  1  0.00059131  0.66628386  0.66696485  1
  Ni  Ni35  1  0.16330249  0.83055221  0.83484987  1
  Cr  Cr36  1  0.49855812  0.16542723  0.50005570  1
  Cr  Cr37  1  0.33259552  0.99696679  0.66641851  1
  Fe  Fe38  1  0.50171104  0.16835368  0.83130480  1
  Fe  Fe39  1  0.49956307  0.49950390  0.50134644  1
  Fe  Fe40  1  0.33398427  0.33586412  0.66799890  1
  Ni  Ni41  1  0.49924632  0.49675906  0.82986819  1
  Ni  Ni42  1  0.49887511  0.83210892  0.50015626  1
  Fe  Fe43  1  0.33238017  0.66451151  0.66626418  1
  Cr  Cr44  1  0.50033806  0.83362204  0.83150680  1
  Cr  Cr45  1  0.83185958  0.16724693  0.49872584  1
  Ni  Ni46  1  0.66607809  0.99790739  0.66640906  1
  Fe  Fe47  1  0.83173486  0.16621722  0.83271087  1
  Cr  Cr48  1  0.83254238  0.50018647  0.49937002  1
  Ni  Ni49  1  0.66437650  0.33326701  0.66789691  1
  Cr  Cr50  1  0.83359755  0.49969632  0.83294848  1
  Fe  Fe51  1  0.83279541  0.83144562  0.50140622  1
  Ni  Ni52  1  0.66431985  0.66625175  0.66410157  1
  Ni  Ni53  1  0.83401665  0.83254855  0.83030862  1
" 