8699,Ni34Fe46Cr18_17,-230.860605895324, 193.80908382736,Ni34Fe46Cr18,"# generated using pymatgen
 data_Cr11Fe25Ni18
_symmetry_space_group_name_H-M   'P 1'
_cell_length_a   7.44132577
_cell_length_b   7.44132577
_cell_length_c   10.52362383
_cell_angle_alpha   90.00000000
_cell_angle_beta   90.00000000
_cell_angle_gamma   90.00000000
_symmetry_Int_Tables_number   1
_chemical_formula_structural   Cr11Fe25Ni18
_chemical_formula_sum   'Cr11 Fe25 Ni18'
_cell_volume   582.72808740
_cell_formula_units_Z   1
loop_
 _symmetry_equiv_pos_site_id
 _symmetry_equiv_pos_as_xyz
  1  'x, y, z'
loop_
 _atom_site_type_symbol
 _atom_site_label
 _atom_site_symmetry_multiplicity
 _atom_site_fract_x
 _atom_site_fract_y
 _atom_site_fract_z
 _atom_site_occupancy
  Fe  Fe0  1  0.00323294  1.00152221  1.00111440  1
  Ni  Ni1  1  0.16945840  0.16883755  0.16659688  1
  Cr  Cr2  1  0.00475105  0.00182891  0.33545705  1
  Ni  Ni3  1  1.00142122  0.33533522  1.00011836  1
  Cr  Cr4  1  0.16927403  0.50082614  0.16930433  1
  Ni  Ni5  1  1.00054407  0.33638924  0.33620301  1
  Fe  Fe6  1  0.00198721  0.66951405  1.00123413  1
  Ni  Ni7  1  0.16816914  0.83484562  0.16713134  1
  Fe  Fe8  1  0.99910239  0.66850994  0.33479578  1
  Ni  Ni9  1  0.33209660  0.00191340  0.00320914  1
  Fe  Fe10  1  0.49934782  0.17024315  0.16692646  1
  Cr  Cr11  1  0.33371605  1.00079281  0.33424232  1
  Fe  Fe12  1  0.33636425  0.33374854  1.00126928  1
  Ni  Ni13  1  0.50176948  0.50126099  0.16945419  1
  Fe  Fe14  1  0.33655340  0.33500495  0.33493162  1
  Fe  Fe15  1  0.33390748  0.66801041  0.00224701  1
  Fe  Fe16  1  0.49977448  0.83368991  0.16875048  1
  Fe  Fe17  1  0.33721379  0.66786636  0.33479116  1
  Cr  Cr18  1  0.66707649  0.00274748  0.00238168  1
  Cr  Cr19  1  0.83571486  0.16926382  0.16783632  1
  Cr  Cr20  1  0.66671448  1.00024319  0.33552090  1
  Ni  Ni21  1  0.66875326  0.33689836  1.00125432  1
  Fe  Fe22  1  0.83460975  0.50206515  0.16937528  1
  Ni  Ni23  1  0.66878311  0.33985313  0.33506499  1
  Cr  Cr24  1  0.66914788  0.66565313  0.00297518  1
  Ni  Ni25  1  0.83597251  0.83306398  0.16828225  1
  Ni  Ni26  1  0.66808084  0.66533804  0.33507970  1
  Ni  Ni27  1  0.16878774  0.16946354  0.50245245  1
  Ni  Ni28  1  0.00358435  0.99982866  0.66874047  1
  Fe  Fe29  1  0.16873043  0.16665587  0.83561085  1
  Cr  Cr30  1  0.16942823  0.50059242  0.49971371  1
  Cr  Cr31  1  1.00123275  0.33364678  0.66884305  1
  Fe  Fe32  1  0.16839711  0.50193736  0.83584490  1
  Fe  Fe33  1  0.16855551  0.83604755  0.50321124  1
  Fe  Fe34  1  1.00091443  0.67166820  0.66915128  1
  Fe  Fe35  1  0.16696613  0.83658947  0.83528821  1
  Fe  Fe36  1  0.50084156  0.16817896  0.50293860  1
  Ni  Ni37  1  0.33344103  1.00089955  0.66721783  1
  Ni  Ni38  1  0.50100888  0.17043444  0.83521371  1
  Fe  Fe39  1  0.50289656  0.50297322  0.50006291  1
  Fe  Fe40  1  0.33520545  0.33304737  0.66898296  1
  Fe  Fe41  1  0.50169538  0.49969553  0.83576709  1
  Ni  Ni42  1  0.50368330  0.83363144  0.50291303  1
  Fe  Fe43  1  0.33481922  0.66911559  0.66814357  1
  Cr  Cr44  1  0.50198847  0.83580059  0.83372235  1
  Fe  Fe45  1  0.83557459  0.16799692  0.50175747  1
  Fe  Fe46  1  0.66950682  1.00090484  0.66803839  1
  Ni  Ni47  1  0.83547283  0.16743477  0.83537887  1
  Fe  Fe48  1  0.83356021  0.50318909  0.49957946  1
  Cr  Cr49  1  0.66812964  0.33605917  0.66896614  1
  Fe  Fe50  1  0.83509275  0.50146109  0.83623372  1
  Ni  Ni51  1  0.83326929  0.83435035  0.50380226  1
  Fe  Fe52  1  0.66945690  0.67064067  0.66710142  1
  Ni  Ni53  1  0.83755218  0.83581960  0.83310528  1
" 