3276,Ni34Fe46Cr18_2,-231.510000964251, 200.11845430585,Ni34Fe46Cr18,"# generated using pymatgen
 data_Cr11Fe25Ni18
_symmetry_space_group_name_H-M   'P 1'
_cell_length_a   7.43914352
_cell_length_b   7.43914352
_cell_length_c   10.52053766
_cell_angle_alpha   90.00000000
_cell_angle_beta   90.00000000
_cell_angle_gamma   90.00000000
_symmetry_Int_Tables_number   1
_chemical_formula_structural   Cr11Fe25Ni18
_chemical_formula_sum   'Cr11 Fe25 Ni18'
_cell_volume   582.21556307
_cell_formula_units_Z   1
loop_
 _symmetry_equiv_pos_site_id
 _symmetry_equiv_pos_as_xyz
  1  'x, y, z'
loop_
 _atom_site_type_symbol
 _atom_site_label
 _atom_site_symmetry_multiplicity
 _atom_site_fract_x
 _atom_site_fract_y
 _atom_site_fract_z
 _atom_site_occupancy
  Fe  Fe0  1  1.00154922  0.99869380  1.00032536  1
  Cr  Cr1  1  0.17010050  0.16831991  0.16819912  1
  Cr  Cr2  1  0.00340035  0.00216872  0.33502138  1
  Cr  Cr3  1  0.99908834  0.33500628  1.00121164  1
  Fe  Fe4  1  0.16842829  0.50433900  0.16986803  1
  Ni  Ni5  1  1.00044455  0.33628127  0.33574348  1
  Ni  Ni6  1  1.00083824  0.67021363  0.00300459  1
  Fe  Fe7  1  0.16970669  0.83278809  0.16737613  1
  Fe  Fe8  1  1.00137799  0.66629799  0.33350329  1
  Ni  Ni9  1  0.33557559  0.99887619  1.00168555  1
  Ni  Ni10  1  0.50399596  0.16717401  0.17031723  1
  Fe  Fe11  1  0.33666299  0.00214531  0.33526666  1
  Cr  Cr12  1  0.33670225  0.33592755  0.00200727  1
  Fe  Fe13  1  0.50298400  0.50256641  0.16909590  1
  Fe  Fe14  1  0.33679824  0.33540983  0.33518746  1
  Ni  Ni15  1  0.33648573  0.67129979  1.00139634  1
  Fe  Fe16  1  0.50221227  0.83506248  0.16827259  1
  Ni  Ni17  1  0.33613935  0.66894616  0.33433407  1
  Ni  Ni18  1  0.66871430  1.00075497  0.00239421  1
  Fe  Fe19  1  0.83194130  0.16927329  0.16858659  1
  Fe  Fe20  1  0.66634952  0.00281236  0.33264203  1
  Fe  Fe21  1  0.66892326  0.33648553  0.00261047  1
  Ni  Ni22  1  0.83475991  0.50316255  0.16999266  1
  Ni  Ni23  1  0.66848974  0.33675660  0.33456131  1
  Ni  Ni24  1  0.66830501  0.66891932  1.00083762  1
  Fe  Fe25  1  0.83370818  0.83428926  0.16766464  1
  Ni  Ni26  1  0.66748107  0.66586165  0.33476202  1
  Ni  Ni27  1  0.16997112  0.16899993  0.50273216  1
  Ni  Ni28  1  0.00295090  0.00264256  0.67092379  1
  Fe  Fe29  1  0.16610886  0.16671006  0.83411741  1
  Cr  Cr30  1  0.16800570  0.50212089  0.50082391  1
  Fe  Fe31  1  1.00112358  0.33355834  0.66908214  1
  Cr  Cr32  1  0.16892481  0.50429823  0.83523971  1
  Ni  Ni33  1  0.16909534  0.83494347  0.50100279  1
  Fe  Fe34  1  1.00164827  0.67017525  0.66981957  1
  Ni  Ni35  1  0.16789127  0.83533337  0.83628304  1
  Fe  Fe36  1  0.50050061  0.17015289  0.50068302  1
  Cr  Cr37  1  0.33212119  1.00174229  0.66780052  1
  Cr  Cr38  1  0.50381728  0.16843449  0.83590823  1
  Fe  Fe39  1  0.50267188  0.50094741  0.50175408  1
  Fe  Fe40  1  0.33549155  0.33533307  0.66801386  1
  Ni  Ni41  1  0.50398942  0.50398954  0.83489772  1
  Cr  Cr42  1  0.50158584  0.83516635  0.50094674  1
  Fe  Fe43  1  0.33516565  0.66859981  0.66932361  1
  Fe  Fe44  1  0.50279390  0.83262657  0.83663940  1
  Cr  Cr45  1  0.83438543  0.16998734  0.50142947  1
  Fe  Fe46  1  0.67058656  0.00221932  0.67041414  1
  Ni  Ni47  1  0.83510689  0.16766417  0.83573978  1
  Fe  Fe48  1  0.83447802  0.50179840  0.50104819  1
  Fe  Fe49  1  0.66901481  0.33612910  0.66887039  1
  Ni  Ni50  1  0.83302714  0.50223370  0.83394624  1
  Cr  Cr51  1  0.83565245  0.83351812  0.50239786  1
  Fe  Fe52  1  0.66881429  0.66727768  0.67017654  1
  Fe  Fe53  1  0.83519085  0.83484220  0.83539452  1
" 