4382,Ni34Fe33Cr32_1,-226.62151395714, 186.736330408923,Ni34Fe33Cr32,"# generated using pymatgen
 data_CrFeNi
_symmetry_space_group_name_H-M   'P 1'
_cell_length_a   7.46468547
_cell_length_b   7.46468547
_cell_length_c   10.55665943
_cell_angle_alpha   90.00000000
_cell_angle_beta   90.00000000
_cell_angle_gamma   90.00000000
_symmetry_Int_Tables_number   1
_chemical_formula_structural   CrFeNi
_chemical_formula_sum   'Cr18 Fe18 Ni18'
_cell_volume   588.23320570
_cell_formula_units_Z   18
loop_
 _symmetry_equiv_pos_site_id
 _symmetry_equiv_pos_as_xyz
  1  'x, y, z'
loop_
 _atom_site_type_symbol
 _atom_site_label
 _atom_site_symmetry_multiplicity
 _atom_site_fract_x
 _atom_site_fract_y
 _atom_site_fract_z
 _atom_site_occupancy
  Fe  Fe0  1  0.99794402  0.99930308  0.99845381  1
  Cr  Cr1  1  0.16810631  0.16851080  0.16753741  1
  Cr  Cr2  1  0.00227843  0.99804575  0.33468172  1
  Ni  Ni3  1  0.00064846  0.33244183  0.99739205  1
  Ni  Ni4  1  0.16639373  0.50045207  0.16521969  1
  Fe  Fe5  1  0.00280112  0.33354090  0.33476885  1
  Fe  Fe6  1  0.00024956  0.66684280  0.00039532  1
  Fe  Fe7  1  0.16449000  0.82959112  0.16839533  1
  Fe  Fe8  1  0.00188649  0.66568494  0.33327784  1
  Cr  Cr9  1  0.33293464  0.00078325  0.00401668  1
  Fe  Fe10  1  0.50072438  0.16903358  0.16872903  1
  Ni  Ni11  1  0.33093332  0.99833531  0.33418360  1
  Fe  Fe12  1  0.33183931  0.33499710  0.99990098  1
  Cr  Cr13  1  0.49925369  0.49965348  0.16834362  1
  Ni  Ni14  1  0.33402839  0.33475335  0.33141773  1
  Cr  Cr15  1  0.33352753  0.66650949  0.99817908  1
  Cr  Cr16  1  0.50128708  0.83453823  0.16872162  1
  Ni  Ni17  1  0.33048311  0.66710311  0.33572260  1
  Fe  Fe18  1  0.66938141  0.99837444  0.99913536  1
  Cr  Cr19  1  0.83308337  0.16692395  0.16614935  1
  Cr  Cr20  1  0.66740571  0.00228613  0.33405439  1
  Fe  Fe21  1  0.66757362  0.33325231  0.00025579  1
  Cr  Cr22  1  0.83559831  0.50202683  0.16901074  1
  Ni  Ni23  1  0.66785533  0.33639089  0.33486325  1
  Ni  Ni24  1  0.66893027  0.66880237  0.99903038  1
  Ni  Ni25  1  0.83500072  0.83195565  0.16302091  1
  Fe  Fe26  1  0.66437805  0.66755435  0.33571672  1
  Ni  Ni27  1  0.16655916  0.16734441  0.50254948  1
  Ni  Ni28  1  0.00081829  0.00295443  0.66785979  1
  Fe  Fe29  1  0.16602566  0.16744732  0.83207778  1
  Cr  Cr30  1  0.16748350  0.49756509  0.50134167  1
  Fe  Fe31  1  0.00105123  0.33065678  0.66734566  1
  Fe  Fe32  1  0.16699463  0.49650101  0.83362683  1
  Fe  Fe33  1  0.16757242  0.83597307  0.50178106  1
  Cr  Cr34  1  0.99810830  0.66632660  0.66810340  1
  Cr  Cr35  1  0.16779278  0.83416489  0.83124222  1
  Cr  Cr36  1  0.49682719  0.16443023  0.49754667  1
  Ni  Ni37  1  0.33113460  0.00053818  0.66468642  1
  Cr  Cr38  1  0.50022390  0.16429424  0.83586491  1
  Fe  Fe39  1  0.50073548  0.49992461  0.49883271  1
  Ni  Ni40  1  0.33206607  0.33165643  0.66928584  1
  Cr  Cr41  1  0.49923716  0.50296171  0.83147643  1
  Ni  Ni42  1  0.49658733  0.83107546  0.50276157  1
  Fe  Fe43  1  0.33509425  0.66771185  0.66533047  1
  Ni  Ni44  1  0.50143205  0.83424904  0.82978894  1
  Ni  Ni45  1  0.83769341  0.17000159  0.50124843  1
  Fe  Fe46  1  0.66651244  0.99996863  0.66664570  1
  Ni  Ni47  1  0.83634507  0.16508330  0.83309582  1
  Ni  Ni48  1  0.83418649  0.49932849  0.49635605  1
  Cr  Cr49  1  0.66833264  0.33464789  0.66312455  1
  Cr  Cr50  1  0.83470510  0.49975531  0.83534476  1
  Cr  Cr51  1  0.83107877  0.83322343  0.50243040  1
  Ni  Ni52  1  0.66527777  0.66743311  0.66487904  1
  Fe  Fe53  1  0.82965188  0.83563974  0.83334351  1
" 