1287,Ni34Fe33Cr32_5,-226.878189102545, 192.209056663044,Ni34Fe33Cr32,"# generated using pymatgen
 data_CrFeNi
_symmetry_space_group_name_H-M   'P 1'
_cell_length_a   7.46114225
_cell_length_b   7.46114225
_cell_length_c   10.55164856
_cell_angle_alpha   90.00000000
_cell_angle_beta   90.00000000
_cell_angle_gamma   90.00000000
_symmetry_Int_Tables_number   1
_chemical_formula_structural   CrFeNi
_chemical_formula_sum   'Cr18 Fe18 Ni18'
_cell_volume   587.39596332
_cell_formula_units_Z   18
loop_
 _symmetry_equiv_pos_site_id
 _symmetry_equiv_pos_as_xyz
  1  'x, y, z'
loop_
 _atom_site_type_symbol
 _atom_site_label
 _atom_site_symmetry_multiplicity
 _atom_site_fract_x
 _atom_site_fract_y
 _atom_site_fract_z
 _atom_site_occupancy
  Cr  Cr0  1  1.00036278  0.00142404  0.99724756  1
  Fe  Fe1  1  0.16955462  0.16561476  0.16960163  1
  Ni  Ni2  1  0.00254343  0.00107233  0.33652601  1
  Cr  Cr3  1  0.99948848  0.33214922  0.00047076  1
  Cr  Cr4  1  0.16694296  0.50009905  0.16566984  1
  Cr  Cr5  1  0.00137179  0.33274889  0.33541722  1
  Fe  Fe6  1  0.99954929  0.66724354  0.99897751  1
  Cr  Cr7  1  0.16721593  0.83164683  0.16987877  1
  Fe  Fe8  1  0.00047824  0.66592920  0.33602387  1
  Cr  Cr9  1  0.33486684  0.99907503  0.00119968  1
  Fe  Fe10  1  0.49809587  0.16523436  0.16871712  1
  Fe  Fe11  1  0.33468933  0.00250607  0.33416408  1
  Fe  Fe12  1  0.33506512  0.33232119  1.00010939  1
  Cr  Cr13  1  0.49813670  0.50037262  0.16784610  1
  Ni  Ni14  1  0.33306772  0.33398293  0.33395055  1
  Ni  Ni15  1  0.33606223  0.66831197  0.99950480  1
  Ni  Ni16  1  0.50073101  0.83464116  0.16848075  1
  Ni  Ni17  1  0.33451903  0.66749803  0.33515337  1
  Fe  Fe18  1  0.66508626  0.99993928  0.99903208  1
  Cr  Cr19  1  0.83189772  0.16512234  0.16888782  1
  Ni  Ni20  1  0.66561487  0.99997888  0.33171420  1
  Cr  Cr21  1  0.66714868  0.33296711  1.00034087  1
  Fe  Fe22  1  0.83291275  0.50329398  0.16828247  1
  Cr  Cr23  1  0.66615993  0.33428462  0.33556745  1
  Cr  Cr24  1  0.66473197  0.66780929  0.99782048  1
  Cr  Cr25  1  0.83217503  0.83326922  0.16800440  1
  Ni  Ni26  1  0.66443432  0.66702303  0.33439408  1
  Ni  Ni27  1  0.16861146  0.16779654  0.50115970  1
  Ni  Ni28  1  0.00179823  0.00361714  0.66706092  1
  Fe  Fe29  1  0.16808340  0.16722689  0.83025194  1
  Fe  Fe30  1  0.16990486  0.49964590  0.50090615  1
  Ni  Ni31  1  0.99828231  0.33156443  0.66627968  1
  Cr  Cr32  1  0.16885239  0.49755190  0.83453849  1
  Fe  Fe33  1  0.16819560  0.83558618  0.50032970  1
  Cr  Cr34  1  0.00129959  0.66705586  0.66599117  1
  Cr  Cr35  1  0.16769022  0.83280652  0.83137218  1
  Ni  Ni36  1  0.49830393  0.16829692  0.49847899  1
  Fe  Fe37  1  0.33359105  0.00294982  0.66716973  1
  Ni  Ni38  1  0.49946253  0.16862731  0.83442703  1
  Fe  Fe39  1  0.49944359  0.49933362  0.50073462  1
  Fe  Fe40  1  0.33432526  0.33212178  0.66533612  1
  Fe  Fe41  1  0.50078174  0.50107741  0.83138772  1
  Cr  Cr42  1  0.50054897  0.83510011  0.49996194  1
  Ni  Ni43  1  0.33732758  0.66702390  0.66687332  1
  Ni  Ni44  1  0.50088493  0.83505241  0.83299427  1
  Fe  Fe45  1  0.83299793  0.16641468  0.50131761  1
  Cr  Cr46  1  0.66693400  0.00190362  0.66980558  1
  Fe  Fe47  1  0.83296229  0.16790347  0.83183437  1
  Ni  Ni48  1  0.83396568  0.49967053  0.49993684  1
  Ni  Ni49  1  0.66702195  0.33490634  0.66633594  1
  Ni  Ni50  1  0.83408560  0.49951614  0.83307225  1
  Cr  Cr51  1  0.83311600  0.83472602  0.49865911  1
  Fe  Fe52  1  0.66783733  0.66465056  0.66814598  1
  Ni  Ni53  1  0.83215872  0.83368503  0.83402580  1
" 