2800,Ni34Fe66_4,-243.143623729302, 225.430863326622,Ni34Fe66,"# generated using pymatgen
 data_FeNi2
_symmetry_space_group_name_H-M   'P 1'
_cell_length_a   7.41044349
_cell_length_b   7.41044349
_cell_length_c   10.47994969
_cell_angle_alpha   90.00000000
_cell_angle_beta   90.00000000
_cell_angle_gamma   90.00000000
_symmetry_Int_Tables_number   1
_chemical_formula_structural   FeNi2
_chemical_formula_sum   'Fe18 Ni36'
_cell_volume   575.50300696
_cell_formula_units_Z   18
loop_
 _symmetry_equiv_pos_site_id
 _symmetry_equiv_pos_as_xyz
  1  'x, y, z'
loop_
 _atom_site_type_symbol
 _atom_site_label
 _atom_site_symmetry_multiplicity
 _atom_site_fract_x
 _atom_site_fract_y
 _atom_site_fract_z
 _atom_site_occupancy
  Ni  Ni0  1  1.00321222  1.00282639  0.00437457  1
  Fe  Fe1  1  0.17055081  0.17049236  0.17087996  1
  Ni  Ni2  1  1.00358157  1.00267695  0.33708733  1
  Ni  Ni3  1  1.00289723  0.33678733  0.00458380  1
  Ni  Ni4  1  0.17105831  0.50410598  0.17010347  1
  Fe  Fe5  1  0.00497449  0.33737842  0.33750832  1
  Ni  Ni6  1  1.00368455  0.67184984  1.00378485  1
  Ni  Ni7  1  0.17040364  0.83686966  0.17009040  1
  Ni  Ni8  1  1.00328531  0.67178706  0.33737140  1
  Fe  Fe9  1  0.33652311  1.00365005  0.00382788  1
  Ni  Ni10  1  0.50416851  0.17113834  0.16998586  1
  Ni  Ni11  1  0.33668147  1.00376042  0.33654314  1
  Ni  Ni12  1  0.33866848  0.33789510  0.00406178  1
  Ni  Ni13  1  0.50306111  0.50298498  0.16998964  1
  Ni  Ni14  1  0.33845634  0.33732481  0.33707288  1
  Ni  Ni15  1  0.33758249  0.67044187  0.00408664  1
  Ni  Ni16  1  0.50304943  0.83733785  0.16995838  1
  Ni  Ni17  1  0.33730819  0.67037030  0.33758691  1
  Fe  Fe18  1  0.67096838  0.00394742  0.00431129  1
  Ni  Ni19  1  0.83688326  0.17048062  0.17010544  1
  Fe  Fe20  1  0.67038345  1.00335718  0.33651526  1
  Ni  Ni21  1  0.66989028  0.33742501  0.00394651  1
  Ni  Ni22  1  0.83734819  0.50299261  0.17001592  1
  Fe  Fe23  1  0.67023506  0.33723295  0.33687046  1
  Fe  Fe24  1  0.67073792  0.66981172  1.00330455  1
  Ni  Ni25  1  0.83799416  0.83798320  0.16999323  1
  Fe  Fe26  1  0.67017469  0.67086563  0.33759325  1
  Ni  Ni27  1  0.17011552  0.17019398  0.50383653  1
  Ni  Ni28  1  0.00426315  1.00347692  0.66999681  1
  Fe  Fe29  1  0.17078833  0.16969545  0.83628780  1
  Ni  Ni30  1  0.17152568  0.50339368  0.50474896  1
  Ni  Ni31  1  1.00317482  0.33637967  0.67002512  1
  Fe  Fe32  1  0.17096958  0.50473112  0.83779058  1
  Ni  Ni33  1  0.17011036  0.83786188  0.50444905  1
  Fe  Fe34  1  1.00371601  0.67044374  0.67006107  1
  Ni  Ni35  1  0.17012890  0.83777983  0.83691690  1
  Fe  Fe36  1  0.50311505  0.17117778  0.50356702  1
  Ni  Ni37  1  0.33629960  1.00379279  0.67028718  1
  Fe  Fe38  1  0.50354206  0.17012502  0.83739767  1
  Ni  Ni39  1  0.50335213  0.50308032  0.50393183  1
  Ni  Ni40  1  0.33804908  0.33671888  0.67032611  1
  Ni  Ni41  1  0.50350766  0.50309868  0.83754123  1
  Fe  Fe42  1  0.50345853  0.83672452  0.50389612  1
  Fe  Fe43  1  0.33732725  0.67001545  0.67069738  1
  Ni  Ni44  1  0.50350044  0.83663475  0.83701166  1
  Ni  Ni45  1  0.83769743  0.17020639  0.50452852  1
  Fe  Fe46  1  0.67090218  0.00432399  0.67062442  1
  Fe  Fe47  1  0.83711962  0.16997394  0.83721924  1
  Ni  Ni48  1  0.83658726  0.50309970  0.50444919  1
  Ni  Ni49  1  0.67022884  0.33861768  0.67012663  1
  Fe  Fe50  1  0.83659842  0.50481490  0.83708781  1
  Ni  Ni51  1  0.83801436  0.83815574  0.50425046  1
  Ni  Ni52  1  0.67055408  0.66984713  0.67041869  1
  Ni  Ni53  1  0.83782849  0.83809953  0.83721041  1
" 