6664,Ni34Fe26Cr38_0,-223.927521005805, 177.329873204188,Ni34Fe26Cr38,"# generated using pymatgen
 data_Cr11Fe7Ni9
_symmetry_space_group_name_H-M   'P 1'
_cell_length_a   7.48632398
_cell_length_b   7.48632398
_cell_length_c   10.58726091
_cell_angle_alpha   90.00000000
_cell_angle_beta   90.00000000
_cell_angle_gamma   90.00000000
_symmetry_Int_Tables_number   1
_chemical_formula_structural   Cr11Fe7Ni9
_chemical_formula_sum   'Cr22 Fe14 Ni18'
_cell_volume   593.36353302
_cell_formula_units_Z   2
loop_
 _symmetry_equiv_pos_site_id
 _symmetry_equiv_pos_as_xyz
  1  'x, y, z'
loop_
 _atom_site_type_symbol
 _atom_site_label
 _atom_site_symmetry_multiplicity
 _atom_site_fract_x
 _atom_site_fract_y
 _atom_site_fract_z
 _atom_site_occupancy
  Cr  Cr0  1  0.99643892  0.00043543  0.00321142  1
  Ni  Ni1  1  0.16621897  0.16777755  0.16441818  1
  Cr  Cr2  1  0.00044650  0.00228123  0.33237060  1
  Fe  Fe3  1  -0.00045385  0.33265105  -0.00000384  1
  Cr  Cr4  1  0.16669571  0.49800599  0.16208722  1
  Cr  Cr5  1  0.99632242  0.32933261  0.33012637  1
  Fe  Fe6  1  0.99827636  0.66612330  0.99869746  1
  Cr  Cr7  1  0.16630632  0.83064949  0.16765347  1
  Cr  Cr8  1  0.99629725  0.66476500  0.33474943  1
  Cr  Cr9  1  0.33382927  0.99789435  -0.00017667  1
  Cr  Cr10  1  0.49890141  0.16483384  0.16679727  1
  Ni  Ni11  1  0.33312412  0.00019653  0.33296761  1
  Ni  Ni12  1  0.33051242  0.33570320  0.99694099  1
  Cr  Cr13  1  0.49729533  0.49984900  0.16911408  1
  Fe  Fe14  1  0.32984890  0.32618609  0.33223994  1
  Ni  Ni15  1  0.33308336  0.66330658  0.99686816  1
  Fe  Fe16  1  0.50003938  0.83390446  0.16672223  1
  Fe  Fe17  1  0.33223982  0.66816934  0.33179094  1
  Ni  Ni18  1  0.66724580  0.99606206  0.99845859  1
  Ni  Ni19  1  0.83025588  0.16280664  0.16475986  1
  Ni  Ni20  1  0.66494584  -0.00011452  0.33088074  1
  Cr  Cr21  1  0.66633323  0.33144820  -0.00057576  1
  Fe  Fe22  1  0.83212329  0.49831725  0.16600050  1
  Fe  Fe23  1  0.66742964  0.32757630  0.33360213  1
  Cr  Cr24  1  0.66366144  0.66732949  0.99850191  1
  Ni  Ni25  1  0.82815790  0.83307503  0.16523679  1
  Fe  Fe26  1  0.66699524  0.66771067  0.33089520  1
  Ni  Ni27  1  0.16712670  0.16551093  0.49992131  1
  Ni  Ni28  1  0.00079753  0.00188654  0.66223779  1
  Cr  Cr29  1  0.16463680  0.16918635  0.83306694  1
  Cr  Cr30  1  0.16503017  0.49812010  0.50026285  1
  Ni  Ni31  1  0.99733000  0.33074495  0.66388450  1
  Ni  Ni32  1  0.16677779  0.49870386  0.83360461  1
  Fe  Fe33  1  0.16544985  0.83550355  0.49969141  1
  Fe  Fe34  1  0.99836314  0.66409769  0.66495869  1
  Cr  Cr35  1  0.16173143  0.83065804  0.83000552  1
  Fe  Fe36  1  0.49997188  0.16499645  0.49874473  1
  Ni  Ni37  1  0.33053011  -0.00071407  0.66273960  1
  Cr  Cr38  1  0.49981399  0.16479840  0.82832930  1
  Cr  Cr39  1  0.49931054  0.49572583  0.49522550  1
  Fe  Fe40  1  0.33088071  0.33042345  0.66564159  1
  Fe  Fe41  1  0.49693683  0.49767721  0.83260453  1
  Cr  Cr42  1  0.49868861  0.83459594  0.49480492  1
  Cr  Cr43  1  0.33403694  0.66694912  0.66785127  1
  Ni  Ni44  1  0.49998263  0.83366654  0.83428776  1
  Ni  Ni45  1  0.83129518  0.16591830  0.50055393  1
  Fe  Fe46  1  0.66480336  -0.00061770  0.66508797  1
  Cr  Cr47  1  0.83166602  0.16174131  0.83029080  1
  Ni  Ni48  1  0.83110591  0.49561100  0.49801234  1
  Ni  Ni49  1  0.66770387  0.33199670  0.66151963  1
  Cr  Cr50  1  0.83776369  0.49797537  0.83132700  1
  Cr  Cr51  1  0.83200560  0.83379976  0.50275576  1
  Cr  Cr52  1  0.66397678  0.66242985  0.66820842  1
  Ni  Ni53  1  0.83019136  0.83281667  0.83052481  1
" 