773,Ni34Fe46Cr18_8,-231.136339928123, 194.484815961232,Ni34Fe46Cr18,"# generated using pymatgen
 data_Cr11Fe25Ni18
_symmetry_space_group_name_H-M   'P 1'
_cell_length_a   7.43769269
_cell_length_b   7.43769269
_cell_length_c   10.51848587
_cell_angle_alpha   90.00000000
_cell_angle_beta   90.00000000
_cell_angle_gamma   90.00000000
_symmetry_Int_Tables_number   1
_chemical_formula_structural   Cr11Fe25Ni18
_chemical_formula_sum   'Cr11 Fe25 Ni18'
_cell_volume   581.87498632
_cell_formula_units_Z   1
loop_
 _symmetry_equiv_pos_site_id
 _symmetry_equiv_pos_as_xyz
  1  'x, y, z'
loop_
 _atom_site_type_symbol
 _atom_site_label
 _atom_site_symmetry_multiplicity
 _atom_site_fract_x
 _atom_site_fract_y
 _atom_site_fract_z
 _atom_site_occupancy
  Fe  Fe0  1  0.00214687  1.00175596  1.00122129  1
  Fe  Fe1  1  0.16907576  0.16902109  0.16970580  1
  Ni  Ni2  1  0.00405139  0.00381312  0.33719043  1
  Cr  Cr3  1  1.00126809  0.33591394  0.00306711  1
  Fe  Fe4  1  0.16885140  0.50135370  0.16983212  1
  Ni  Ni5  1  0.00381532  0.33455919  0.33519111  1
  Fe  Fe6  1  1.00085716  0.66930407  1.00143114  1
  Cr  Cr7  1  0.16885836  0.83548062  0.16937632  1
  Ni  Ni8  1  0.00298445  0.66754641  0.33552091  1
  Ni  Ni9  1  0.33628180  0.00225903  1.00015217  1
  Fe  Fe10  1  0.50101289  0.16862610  0.16705205  1
  Ni  Ni11  1  0.33364294  1.00079989  0.33585798  1
  Fe  Fe12  1  0.33758065  0.33405136  0.00264994  1
  Ni  Ni13  1  0.50128600  0.50204781  0.16882124  1
  Fe  Fe14  1  0.33259196  0.33632745  0.33515293  1
  Fe  Fe15  1  0.33695668  0.66891271  0.00322939  1
  Fe  Fe16  1  0.50145029  0.83440332  0.16860501  1
  Ni  Ni17  1  0.33631290  0.66895712  0.33655628  1
  Fe  Fe18  1  0.66729914  0.00238466  0.00229079  1
  Ni  Ni19  1  0.83594322  0.16926554  0.16931121  1
  Cr  Cr20  1  0.66811780  1.00022228  0.33472627  1
  Ni  Ni21  1  0.66793515  0.33636980  0.00276326  1
  Fe  Fe22  1  0.83469377  0.50179702  0.16885172  1
  Cr  Cr23  1  0.66979813  0.33664807  0.33370525  1
  Ni  Ni24  1  0.66861111  0.66806456  1.00175884  1
  Cr  Cr25  1  0.83531428  0.83544471  0.16881697  1
  Ni  Ni26  1  0.66662112  0.66871636  0.33574489  1
  Ni  Ni27  1  0.16711506  0.16872892  0.50165797  1
  Ni  Ni28  1  0.00272590  0.00339763  0.66803938  1
  Ni  Ni29  1  0.16993524  0.16632173  0.83486458  1
  Fe  Fe30  1  0.17047320  0.50134756  0.50135887  1
  Ni  Ni31  1  0.00302886  0.33273011  0.66784934  1
  Cr  Cr32  1  0.16944445  0.50120538  0.83556705  1
  Fe  Fe33  1  0.16906040  0.83664615  0.50039708  1
  Cr  Cr34  1  1.00181181  0.66958069  0.66954393  1
  Fe  Fe35  1  0.16922774  0.83813609  0.83634728  1
  Cr  Cr36  1  0.49994574  0.16896033  0.50371476  1
  Fe  Fe37  1  0.33342346  0.00244443  0.66921737  1
  Fe  Fe38  1  0.49980013  0.16782215  0.83544627  1
  Fe  Fe39  1  0.49990218  0.50462973  0.50221434  1
  Ni  Ni40  1  0.33466324  0.33402642  0.66846307  1
  Cr  Cr41  1  0.50288232  0.50141607  0.83373929  1
  Ni  Ni42  1  0.50191344  0.83258663  0.50176577  1
  Fe  Fe43  1  0.33598630  0.66948307  0.66677304  1
  Fe  Fe44  1  0.50148323  0.83698987  0.83539065  1
  Fe  Fe45  1  0.83875902  0.16645318  0.50300302  1
  Fe  Fe46  1  0.66933560  1.00092431  0.66797913  1
  Cr  Cr47  1  0.83552428  0.16785481  0.83291542  1
  Cr  Cr48  1  0.83518575  0.50247831  0.50176026  1
  Fe  Fe49  1  0.66921766  0.33503576  0.66909009  1
  Fe  Fe50  1  0.83424620  0.50260784  0.83544642  1
  Ni  Ni51  1  0.83508235  0.83607834  0.50160406  1
  Fe  Fe52  1  0.66782225  0.66995811  0.66820133  1
  Fe  Fe53  1  0.83520858  0.83467350  0.83563081  1
" 