4394,Ni34Fe26Cr38_1,-224.615154264198, 180.129012485412,Ni34Fe26Cr38,"# generated using pymatgen
 data_Cr11Fe7Ni9
_symmetry_space_group_name_H-M   'P 1'
_cell_length_a   7.48521073
_cell_length_b   7.48521073
_cell_length_c   10.58568653
_cell_angle_alpha   90.00000000
_cell_angle_beta   90.00000000
_cell_angle_gamma   90.00000000
_symmetry_Int_Tables_number   1
_chemical_formula_structural   Cr11Fe7Ni9
_chemical_formula_sum   'Cr22 Fe14 Ni18'
_cell_volume   593.09886313
_cell_formula_units_Z   2
loop_
 _symmetry_equiv_pos_site_id
 _symmetry_equiv_pos_as_xyz
  1  'x, y, z'
loop_
 _atom_site_type_symbol
 _atom_site_label
 _atom_site_symmetry_multiplicity
 _atom_site_fract_x
 _atom_site_fract_y
 _atom_site_fract_z
 _atom_site_occupancy
  Fe  Fe0  1  0.00090096  0.00275609  0.99770301  1
  Ni  Ni1  1  0.16493476  0.16905427  0.16560637  1
  Fe  Fe2  1  0.99694197  0.00000892  0.33146789  1
  Ni  Ni3  1  0.00139883  0.33038523  0.99710566  1
  Ni  Ni4  1  0.16778856  0.49560552  0.16472518  1
  Ni  Ni5  1  0.99767219  0.33186964  0.33018632  1
  Cr  Cr6  1  0.99851300  0.66204487  0.00122112  1
  Cr  Cr7  1  0.16586250  0.83370364  0.16508772  1
  Cr  Cr8  1  0.99707170  0.66507905  0.33408888  1
  Cr  Cr9  1  0.33461141  0.00402074  0.99818475  1
  Ni  Ni10  1  0.49971148  0.16619861  0.16933230  1
  Cr  Cr11  1  0.33377578  0.00251588  0.33186939  1
  Ni  Ni12  1  0.33130439  0.33142376  0.00092238  1
  Ni  Ni13  1  0.49662524  0.49850953  0.16440365  1
  Fe  Fe14  1  0.33244461  0.33339567  0.32847580  1
  Ni  Ni15  1  0.33378459  0.66453857  0.99816742  1
  Ni  Ni16  1  0.50155589  0.83242466  0.16228943  1
  Cr  Cr17  1  0.33176828  0.66734809  0.33035833  1
  Fe  Fe18  1  0.66335636  0.00058755  0.99828006  1
  Cr  Cr19  1  0.83359482  0.16407778  0.16356616  1
  Fe  Fe20  1  0.66642344  -0.00086504  0.33172683  1
  Cr  Cr21  1  0.66320648  0.32945716  0.99647774  1
  Cr  Cr22  1  0.83143737  0.49537226  0.16580063  1
  Ni  Ni23  1  0.66520638  0.32955447  0.33320714  1
  Fe  Fe24  1  0.66174094  0.66453932  -0.00029606  1
  Fe  Fe25  1  0.82997494  0.83399772  0.16343823  1
  Cr  Cr26  1  0.66725814  0.66473204  0.32966985  1
  Cr  Cr27  1  0.16281877  0.16658958  0.49743459  1
  Fe  Fe28  1  0.99707599  0.00134706  0.66690771  1
  Ni  Ni29  1  0.16327840  0.16874409  0.83348088  1
  Cr  Cr30  1  0.16741442  0.49694742  0.49848868  1
  Ni  Ni31  1  0.99732028  0.33129773  0.66813215  1
  Ni  Ni32  1  0.16826038  0.49716413  0.83340479  1
  Fe  Fe33  1  0.16484327  0.83391313  0.49957388  1
  Cr  Cr34  1  -0.00100819  0.66355799  0.66125826  1
  Cr  Cr35  1  0.16654236  0.83098390  0.82988109  1
  Fe  Fe36  1  0.50026091  0.16665147  0.49885049  1
  Cr  Cr37  1  0.33270882  0.00052812  0.66615781  1
  Ni  Ni38  1  0.50112751  0.16531696  0.82977557  1
  Cr  Cr39  1  0.49921900  0.49659985  0.49935064  1
  Cr  Cr40  1  0.33256628  0.32996849  0.66887057  1
  Fe  Fe41  1  0.49594922  0.49724451  0.83320010  1
  Cr  Cr42  1  0.49889244  0.83259026  0.50130557  1
  Ni  Ni43  1  0.33171292  0.66617427  0.66782079  1
  Fe  Fe44  1  0.49896070  0.83242473  0.83299548  1
  Cr  Cr45  1  0.83102696  0.16587114  0.50051016  1
  Ni  Ni46  1  0.66486641  0.00119230  0.66653816  1
  Ni  Ni47  1  0.83205108  0.16475620  0.83068732  1
  Fe  Fe48  1  0.83166663  0.49405102  0.49847333  1
  Ni  Ni49  1  0.66720569  0.32827263  0.66557588  1
  Cr  Cr50  1  0.83252286  0.49523845  0.83075999  1
  Fe  Fe51  1  0.83211122  0.83485736  0.49959113  1
  Cr  Cr52  1  0.66626372  0.66362651  0.66709252  1
  Cr  Cr53  1  0.82996053  0.83623830  0.83529989  1
" 