1268,Ni34Fe33Cr32_18,-226.751156304107, 181.650701308761,Ni34Fe33Cr32,"# generated using pymatgen
 data_CrFeNi
_symmetry_space_group_name_H-M   'P 1'
_cell_length_a   7.47085461
_cell_length_b   7.47085461
_cell_length_c   10.56538391
_cell_angle_alpha   90.00000000
_cell_angle_beta   90.00000000
_cell_angle_gamma   90.00000000
_symmetry_Int_Tables_number   1
_chemical_formula_structural   CrFeNi
_chemical_formula_sum   'Cr18 Fe18 Ni18'
_cell_volume   589.69283594
_cell_formula_units_Z   18
loop_
 _symmetry_equiv_pos_site_id
 _symmetry_equiv_pos_as_xyz
  1  'x, y, z'
loop_
 _atom_site_type_symbol
 _atom_site_label
 _atom_site_symmetry_multiplicity
 _atom_site_fract_x
 _atom_site_fract_y
 _atom_site_fract_z
 _atom_site_occupancy
  Ni  Ni0  1  0.99539620  0.99740248  -0.00009665  1
  Cr  Cr1  1  0.16480047  0.16544718  0.16876019  1
  Ni  Ni2  1  0.99869818  0.99754792  0.33297989  1
  Cr  Cr3  1  0.99703278  0.33303341  0.00170667  1
  Ni  Ni4  1  0.16549263  0.50087162  0.16472961  1
  Fe  Fe5  1  0.99942408  0.33312541  0.33206570  1
  Ni  Ni6  1  0.99938188  0.66781497  0.00058724  1
  Fe  Fe7  1  0.16366101  0.83196112  0.16595806  1
  Fe  Fe8  1  0.99959520  0.66626590  0.33086203  1
  Cr  Cr9  1  0.33488454  0.99892240  0.00355088  1
  Ni  Ni10  1  0.50118644  0.16540743  0.16992004  1
  Ni  Ni11  1  0.33222101  0.99899045  0.33280651  1
  Cr  Cr12  1  0.33454998  0.33420694  -0.00017327  1
  Ni  Ni13  1  0.50147330  0.50007190  0.16618346  1
  Ni  Ni14  1  0.33664060  0.33316821  0.33192540  1
  Ni  Ni15  1  0.33207434  0.66682275  0.00193431  1
  Fe  Fe16  1  0.50197398  0.83258947  0.16622234  1
  Cr  Cr17  1  0.33238983  0.66800161  0.33042942  1
  Ni  Ni18  1  0.66887552  -0.00023828  0.00053863  1
  Fe  Fe19  1  0.83132224  0.16655113  0.16903094  1
  Fe  Fe20  1  0.66593242  0.00224740  0.33145123  1
  Cr  Cr21  1  0.66660856  0.33071184  0.00045697  1
  Ni  Ni22  1  0.83281083  0.50300834  0.16964649  1
  Ni  Ni23  1  0.66882561  0.33310999  0.33372619  1
  Ni  Ni24  1  0.66782978  0.66780625  0.00355163  1
  Fe  Fe25  1  0.83342565  0.83371853  0.16620279  1
  Fe  Fe26  1  0.66703062  0.66650745  0.33101063  1
  Cr  Cr27  1  0.16737825  0.16540846  0.49723838  1
  Fe  Fe28  1  0.99813464  0.99917355  0.66553567  1
  Cr  Cr29  1  0.16633666  0.16548747  0.83363181  1
  Cr  Cr30  1  0.16608475  0.49931237  0.50044142  1
  Cr  Cr31  1  0.99579963  0.33244900  0.66689418  1
  Fe  Fe32  1  0.16713940  0.50187030  0.83333040  1
  Fe  Fe33  1  0.16559030  0.83409300  0.50001313  1
  Fe  Fe34  1  0.00078751  0.66767175  0.66661451  1
  Cr  Cr35  1  0.16454159  0.83377411  0.83273787  1
  Fe  Fe36  1  0.50204196  0.16629733  0.49858351  1
  Ni  Ni37  1  0.33297408  0.99900245  0.66357939  1
  Ni  Ni38  1  0.50115432  0.16454450  0.82893616  1
  Cr  Cr39  1  0.50087447  0.49839240  0.49976738  1
  Fe  Fe40  1  0.33531667  0.33176158  0.66647193  1
  Cr  Cr41  1  0.49970013  0.50075306  0.83334540  1
  Cr  Cr42  1  0.50012653  0.83535179  0.49869691  1
  Ni  Ni43  1  0.33079061  0.66930893  0.66664150  1
  Cr  Cr44  1  0.50222222  0.83321235  0.83533819  1
  Ni  Ni45  1  0.83274354  0.16475891  0.49829356  1
  Fe  Fe46  1  0.66626232  0.00236039  0.66676523  1
  Fe  Fe47  1  0.83025665  0.16277297  0.83209872  1
  Fe  Fe48  1  0.83277605  0.49677112  0.49709356  1
  Ni  Ni49  1  0.66771393  0.32939055  0.66478008  1
  Cr  Cr50  1  0.83290190  0.50376354  0.83396425  1
  Cr  Cr51  1  0.83358622  0.83284656  0.49937525  1
  Cr  Cr52  1  0.66728420  0.66527177  0.66530467  1
  Fe  Fe53  1  0.83218510  0.83536732  0.83480095  1
" 