1805,Ni34Fe33Cr32_2,-226.643539435963, 182.383631015811,Ni34Fe33Cr32,"# generated using pymatgen
 data_CrFeNi
_symmetry_space_group_name_H-M   'P 1'
_cell_length_a   7.47215642
_cell_length_b   7.47215642
_cell_length_c   10.56722495
_cell_angle_alpha   90.00000000
_cell_angle_beta   90.00000000
_cell_angle_gamma   90.00000000
_symmetry_Int_Tables_number   1
_chemical_formula_structural   CrFeNi
_chemical_formula_sum   'Cr18 Fe18 Ni18'
_cell_volume   590.00115451
_cell_formula_units_Z   18
loop_
 _symmetry_equiv_pos_site_id
 _symmetry_equiv_pos_as_xyz
  1  'x, y, z'
loop_
 _atom_site_type_symbol
 _atom_site_label
 _atom_site_symmetry_multiplicity
 _atom_site_fract_x
 _atom_site_fract_y
 _atom_site_fract_z
 _atom_site_occupancy
  Fe  Fe0  1  0.99951221  0.99856549  0.99778867  1
  Cr  Cr1  1  0.16694504  0.16328313  0.16673067  1
  Fe  Fe2  1  0.00091144  0.99747929  0.33488964  1
  Cr  Cr3  1  0.99793196  0.33679570  0.99876628  1
  Fe  Fe4  1  0.16707914  0.50241810  0.16588790  1
  Cr  Cr5  1  0.00087923  0.33618969  0.33201354  1
  Ni  Ni6  1  -0.00017250  0.66544506  0.00030530  1
  Fe  Fe7  1  0.16827041  0.83113621  0.16486475  1
  Cr  Cr8  1  0.00112601  0.66508462  0.33375334  1
  Fe  Fe9  1  0.33295404  0.99837533  0.00083062  1
  Ni  Ni10  1  0.49832464  0.16679105  0.16765788  1
  Fe  Fe11  1  0.33199071  0.99909523  0.33440350  1
  Cr  Cr12  1  0.33264676  0.33374430  0.99867724  1
  Fe  Fe13  1  0.50126385  0.49999197  0.16669620  1
  Fe  Fe14  1  0.33471522  0.33341387  0.33296196  1
  Ni  Ni15  1  0.33276971  0.66706878  0.00329884  1
  Fe  Fe16  1  0.49927799  0.83329559  0.16514553  1
  Fe  Fe17  1  0.33470085  0.66620117  0.33226344  1
  Ni  Ni18  1  0.66450187  0.00027319  0.99892876  1
  Cr  Cr19  1  0.83078665  0.16602780  0.16581581  1
  Cr  Cr20  1  0.66213327  0.99806705  0.33602215  1
  Fe  Fe21  1  0.66620505  0.33594560  0.00002903  1
  Ni  Ni22  1  0.82907065  0.50238361  0.16745034  1
  Ni  Ni23  1  0.66406708  0.33409702  0.33035085  1
  Fe  Fe24  1  0.66759175  0.66370506  0.99960329  1
  Cr  Cr25  1  0.83382315  0.83242366  0.16429994  1
  Ni  Ni26  1  0.66534397  0.66642693  0.33300771  1
  Ni  Ni27  1  0.16781561  0.16728837  0.49988701  1
  Fe  Fe28  1  0.99911461  0.99880182  0.66634160  1
  Ni  Ni29  1  0.16275243  0.16570902  0.83082368  1
  Ni  Ni30  1  0.16929711  0.49893099  0.50087661  1
  Ni  Ni31  1  0.00178928  0.33361418  0.66652735  1
  Cr  Cr32  1  0.16913211  0.50121526  0.82961517  1
  Fe  Fe33  1  0.16528891  0.83198679  0.50047990  1
  Ni  Ni34  1  0.00027473  0.66396953  0.66438473  1
  Cr  Cr35  1  0.16414499  0.83234630  0.83383887  1
  Fe  Fe36  1  0.49676309  0.16845632  0.49734419  1
  Cr  Cr37  1  0.33362135  0.00014422  0.66528590  1
  Cr  Cr38  1  0.49858313  0.16875985  0.83345247  1
  Cr  Cr39  1  0.49929449  0.49978650  0.50014471  1
  Fe  Fe40  1  0.33077963  0.33466910  0.66581410  1
  Ni  Ni41  1  0.49994909  0.50164782  0.83433383  1
  Fe  Fe42  1  0.49682460  0.83110232  0.49863872  1
  Ni  Ni43  1  0.33045493  0.66668464  0.66462306  1
  Cr  Cr44  1  0.49930523  0.82820662  0.83553621  1
  Cr  Cr45  1  0.83519526  0.16602146  0.49800516  1
  Cr  Cr46  1  0.66614667  0.99838786  0.66520624  1
  Ni  Ni47  1  0.83557112  0.16454212  0.83503773  1
  Fe  Fe48  1  0.83499452  0.49994391  0.49960875  1
  Cr  Cr49  1  0.66933646  0.33198137  0.66888994  1
  Ni  Ni50  1  0.83262031  0.50157412  0.83286192  1
  Ni  Ni51  1  0.83449689  0.83109334  0.49985396  1
  Cr  Cr52  1  0.66857891  0.66830104  0.66696667  1
  Ni  Ni53  1  0.83476413  0.83265037  0.83471809  1
" 