6379,Ni34Fe66_3,-242.814571160714, 218.776704959002,Ni34Fe66,"# generated using pymatgen
 data_FeNi2
_symmetry_space_group_name_H-M   'P 1'
_cell_length_a   7.40875144
_cell_length_b   7.40875144
_cell_length_c   10.47755676
_cell_angle_alpha   90.00000000
_cell_angle_beta   90.00000000
_cell_angle_gamma   90.00000000
_symmetry_Int_Tables_number   1
_chemical_formula_structural   FeNi2
_chemical_formula_sum   'Fe18 Ni36'
_cell_volume   575.10887685
_cell_formula_units_Z   18
loop_
 _symmetry_equiv_pos_site_id
 _symmetry_equiv_pos_as_xyz
  1  'x, y, z'
loop_
 _atom_site_type_symbol
 _atom_site_label
 _atom_site_symmetry_multiplicity
 _atom_site_fract_x
 _atom_site_fract_y
 _atom_site_fract_z
 _atom_site_occupancy
  Ni  Ni0  1  1.00305043  0.00408207  1.00362361  1
  Ni  Ni1  1  0.17079364  0.17044138  0.17078422  1
  Ni  Ni2  1  1.00364176  1.00352199  0.33733312  1
  Ni  Ni3  1  0.00400546  0.33712551  0.00413556  1
  Ni  Ni4  1  0.17060047  0.50386977  0.17082156  1
  Fe  Fe5  1  0.00446913  0.33726596  0.33720823  1
  Fe  Fe6  1  0.00412969  0.67047725  0.00395930  1
  Ni  Ni7  1  0.17079312  0.83749195  0.17098340  1
  Ni  Ni8  1  0.00406264  0.67090668  0.33699454  1
  Fe  Fe9  1  0.33693593  0.00413596  1.00386425  1
  Fe  Fe10  1  0.50351111  0.17089691  0.17055093  1
  Ni  Ni11  1  0.33715225  1.00386548  0.33703034  1
  Ni  Ni12  1  0.33719083  0.33808038  1.00390341  1
  Fe  Fe13  1  0.50327838  0.50384164  0.17078444  1
  Ni  Ni14  1  0.33784000  0.33765799  0.33719343  1
  Ni  Ni15  1  0.33739179  0.66998483  1.00390358  1
  Fe  Fe16  1  0.50335810  0.83706443  0.17039859  1
  Ni  Ni17  1  0.33701711  0.67027980  0.33732865  1
  Ni  Ni18  1  0.67121651  1.00388130  0.00408587  1
  Fe  Fe19  1  0.83789457  0.17069449  0.17051071  1
  Fe  Fe20  1  0.67055367  1.00389023  0.33745166  1
  Fe  Fe21  1  0.67072457  0.33720296  0.00397356  1
  Ni  Ni22  1  0.83713089  0.50400441  0.17112087  1
  Ni  Ni23  1  0.67038189  0.33723715  0.33712711  1
  Fe  Fe24  1  0.67071032  0.67049209  1.00371335  1
  Fe  Fe25  1  0.83804676  0.83726779  0.17066078  1
  Fe  Fe26  1  0.67049029  0.67049410  0.33733190  1
  Ni  Ni27  1  0.17045932  0.17074237  0.50371486  1
  Ni  Ni28  1  1.00321787  1.00386582  0.67084541  1
  Ni  Ni29  1  0.17066546  0.17050508  0.83730400  1
  Ni  Ni30  1  0.17127978  0.50365212  0.50353714  1
  Ni  Ni31  1  1.00385678  0.33741720  0.67044137  1
  Ni  Ni32  1  0.17081834  0.50386011  0.83744431  1
  Fe  Fe33  1  0.17038163  0.83723780  0.50381700  1
  Ni  Ni34  1  0.00399000  0.67051907  0.67103898  1
  Ni  Ni35  1  0.17067490  0.83743818  0.83707368  1
  Fe  Fe36  1  0.50383411  0.17081966  0.50401696  1
  Ni  Ni37  1  0.33769026  1.00386632  0.67104561  1
  Ni  Ni38  1  0.50391037  0.17048849  0.83706301  1
  Ni  Ni39  1  0.50352573  0.50412283  0.50361700  1
  Ni  Ni40  1  0.33734872  0.33771457  0.67070585  1
  Ni  Ni41  1  0.50389118  0.50401037  0.83753521  1
  Fe  Fe42  1  0.50369458  0.83737593  0.50416983  1
  Ni  Ni43  1  0.33721501  0.67022233  0.67057108  1
  Ni  Ni44  1  0.50405117  0.83730439  0.83716657  1
  Ni  Ni45  1  0.83747780  0.16992279  0.50362564  1
  Ni  Ni46  1  0.67089413  0.00399980  0.67048390  1
  Ni  Ni47  1  0.83722627  0.17034520  0.83739538  1
  Fe  Fe48  1  0.83759960  0.50373314  0.50381384  1
  Fe  Fe49  1  0.67060002  0.33710918  0.67049610  1
  Ni  Ni50  1  0.83709359  0.50400080  0.83683455  1
  Ni  Ni51  1  0.83700685  0.83774766  0.50362803  1
  Fe  Fe52  1  0.67059966  0.67081875  0.67075752  1
  Ni  Ni53  1  0.83707658  0.83745653  0.83753121  1
" 