6791,Ni34Fe66_8,-243.352342719362, 223.154823101272,Ni34Fe66,"# generated using pymatgen
 data_FeNi2
_symmetry_space_group_name_H-M   'P 1'
_cell_length_a   7.41088061
_cell_length_b   7.41088061
_cell_length_c   10.48056787
_cell_angle_alpha   90.00000000
_cell_angle_beta   90.00000000
_cell_angle_gamma   90.00000000
_symmetry_Int_Tables_number   1
_chemical_formula_structural   FeNi2
_chemical_formula_sum   'Fe18 Ni36'
_cell_volume   575.60485534
_cell_formula_units_Z   18
loop_
 _symmetry_equiv_pos_site_id
 _symmetry_equiv_pos_as_xyz
  1  'x, y, z'
loop_
 _atom_site_type_symbol
 _atom_site_label
 _atom_site_symmetry_multiplicity
 _atom_site_fract_x
 _atom_site_fract_y
 _atom_site_fract_z
 _atom_site_occupancy
  Ni  Ni0  1  1.00372187  1.00354961  1.00212689  1
  Ni  Ni1  1  0.16976908  0.17226242  0.16990056  1
  Ni  Ni2  1  1.00217677  0.00381726  0.33865881  1
  Ni  Ni3  1  1.00318433  0.33684481  0.00464360  1
  Fe  Fe4  1  0.17044387  0.50434241  0.17011912  1
  Fe  Fe5  1  0.00389304  0.33708048  0.33743336  1
  Ni  Ni6  1  1.00312126  0.67092671  0.00411532  1
  Fe  Fe7  1  0.16940114  0.83798275  0.17039739  1
  Ni  Ni8  1  1.00300850  0.67144378  0.33741556  1
  Ni  Ni9  1  0.33698873  0.00398943  0.00491879  1
  Fe  Fe10  1  0.50445077  0.17049536  0.17019468  1
  Fe  Fe11  1  0.33664361  1.00230278  0.33689185  1
  Ni  Ni12  1  0.33789559  0.33675077  1.00255907  1
  Ni  Ni13  1  0.50219250  0.50534128  0.16888092  1
  Ni  Ni14  1  0.33841836  0.33725021  0.33758522  1
  Ni  Ni15  1  0.33726909  0.67060563  0.00386088  1
  Ni  Ni16  1  0.50490935  0.83516824  0.17006010  1
  Ni  Ni17  1  0.33762842  0.66824638  0.33710329  1
  Fe  Fe18  1  0.67047407  1.00330076  0.00398399  1
  Ni  Ni19  1  0.84006413  0.16922915  0.16935761  1
  Ni  Ni20  1  0.67150904  0.00464800  0.33644544  1
  Ni  Ni21  1  0.67052864  0.33715221  0.00438129  1
  Fe  Fe22  1  0.83593211  0.50483434  0.17003419  1
  Fe  Fe23  1  0.67092575  0.33857109  0.33647363  1
  Ni  Ni24  1  0.67072967  0.66946901  1.00319811  1
  Ni  Ni25  1  0.83547781  0.83802432  0.16954717  1
  Ni  Ni26  1  0.67019131  0.67094380  0.33817502  1
  Ni  Ni27  1  0.17001750  0.17099840  0.50422630  1
  Ni  Ni28  1  1.00286943  0.00383546  0.67048408  1
  Fe  Fe29  1  0.16966372  0.16895644  0.83703300  1
  Ni  Ni30  1  0.17099661  0.50150789  0.50312663  1
  Ni  Ni31  1  1.00280412  0.33774470  0.66991194  1
  Ni  Ni32  1  0.17055725  0.50089780  0.83820498  1
  Fe  Fe33  1  0.16920240  0.83550922  0.50407970  1
  Ni  Ni34  1  0.00427625  0.66924485  0.66975853  1
  Fe  Fe35  1  0.17004423  0.83508424  0.83672487  1
  Fe  Fe36  1  0.50549816  0.17121838  0.50369492  1
  Ni  Ni37  1  0.33827405  1.00296026  0.66847314  1
  Fe  Fe38  1  0.50418667  0.17019121  0.83717909  1
  Ni  Ni39  1  0.50306142  0.50572171  0.50616077  1
  Fe  Fe40  1  0.33495973  0.33644677  0.67024853  1
  Fe  Fe41  1  0.50464945  0.50560180  0.83780833  1
  Ni  Ni42  1  0.50463901  0.83669069  0.50319695  1
  Ni  Ni43  1  0.33715148  0.66993040  0.67071594  1
  Ni  Ni44  1  0.50384595  0.83797189  0.83806881  1
  Ni  Ni45  1  0.83899567  0.16982997  0.50438303  1
  Ni  Ni46  1  0.67020364  0.00502157  0.67079725  1
  Fe  Fe47  1  0.83739423  0.17112629  0.83716654  1
  Ni  Ni48  1  0.83727801  0.50393926  0.50322866  1
  Fe  Fe49  1  0.67186390  0.33777274  0.67076003  1
  Ni  Ni50  1  0.83923546  0.50411457  0.83797161  1
  Ni  Ni51  1  0.83482356  0.83799262  0.50468961  1
  Fe  Fe52  1  0.67188205  0.67235917  0.67076519  1
  Ni  Ni53  1  0.83531000  0.83739147  0.83731243  1
" 