1558,Ni34Fe66_11,-243.288568391061, 222.684127351895,Ni34Fe66,"# generated using pymatgen
 data_FeNi2
_symmetry_space_group_name_H-M   'P 1'
_cell_length_a   7.41118026
_cell_length_b   7.41118026
_cell_length_c   10.48099163
_cell_angle_alpha   90.00000000
_cell_angle_beta   90.00000000
_cell_angle_gamma   90.00000000
_symmetry_Int_Tables_number   1
_chemical_formula_structural   FeNi2
_chemical_formula_sum   'Fe18 Ni36'
_cell_volume   575.67467852
_cell_formula_units_Z   18
loop_
 _symmetry_equiv_pos_site_id
 _symmetry_equiv_pos_as_xyz
  1  'x, y, z'
loop_
 _atom_site_type_symbol
 _atom_site_label
 _atom_site_symmetry_multiplicity
 _atom_site_fract_x
 _atom_site_fract_y
 _atom_site_fract_z
 _atom_site_occupancy
  Ni  Ni0  1  0.00479218  0.00530560  1.00355084  1
  Ni  Ni1  1  0.17132434  0.17198231  0.17113833  1
  Fe  Fe2  1  1.00209812  0.00400802  0.33576846  1
  Ni  Ni3  1  0.00422509  0.33591719  0.00481950  1
  Ni  Ni4  1  0.17029724  0.50325390  0.16999082  1
  Ni  Ni5  1  0.00466751  0.33755538  0.33628535  1
  Fe  Fe6  1  0.00588281  0.67092773  1.00357158  1
  Ni  Ni7  1  0.17014024  0.83583623  0.17130926  1
  Ni  Ni8  1  1.00296501  0.66942950  0.33633082  1
  Ni  Ni9  1  0.33631845  1.00345659  0.00458526  1
  Ni  Ni10  1  0.50359312  0.17074365  0.17066431  1
  Fe  Fe11  1  0.33732929  0.00462709  0.33663317  1
  Ni  Ni12  1  0.33542975  0.33661183  1.00301940  1
  Fe  Fe13  1  0.50314875  0.50380521  0.17067604  1
  Ni  Ni14  1  0.33634843  0.33626448  0.33688670  1
  Ni  Ni15  1  0.33901493  0.67152152  0.00389798  1
  Ni  Ni16  1  0.50501081  0.83785869  0.17160088  1
  Fe  Fe17  1  0.33707653  0.66843913  0.33665279  1
  Fe  Fe18  1  0.66953233  0.00392225  0.00412266  1
  Ni  Ni19  1  0.83589091  0.17005330  0.17102083  1
  Ni  Ni20  1  0.66948000  1.00296629  0.33652871  1
  Fe  Fe21  1  0.66953931  0.33682552  0.00407616  1
  Fe  Fe22  1  0.83704456  0.50354864  0.17010459  1
  Ni  Ni23  1  0.67047272  0.33687434  0.33690562  1
  Ni  Ni24  1  0.66997562  0.67139975  0.00388769  1
  Ni  Ni25  1  0.83620557  0.83635389  0.16932453  1
  Ni  Ni26  1  0.67116218  0.67143454  0.33794728  1
  Ni  Ni27  1  0.17214923  0.17246950  0.50341232  1
  Fe  Fe28  1  0.00396668  1.00187455  0.67123296  1
  Ni  Ni29  1  0.17276097  0.17176057  0.83633614  1
  Ni  Ni30  1  0.16979121  0.50371951  0.50417953  1
  Ni  Ni31  1  0.00415033  0.33633405  0.67026331  1
  Ni  Ni32  1  0.16947683  0.50309954  0.83687947  1
  Fe  Fe33  1  0.16975795  0.83731836  0.50430174  1
  Ni  Ni34  1  1.00348787  0.66830665  0.67155594  1
  Ni  Ni35  1  0.17064423  0.83623943  0.83643216  1
  Ni  Ni36  1  0.50403907  0.17035897  0.50326469  1
  Ni  Ni37  1  0.33801672  0.00432004  0.67062760  1
  Ni  Ni38  1  0.50329975  0.17029387  0.83727223  1
  Fe  Fe39  1  0.50337744  0.50362228  0.50293667  1
  Fe  Fe40  1  0.33729846  0.33770546  0.67014548  1
  Fe  Fe41  1  0.50303312  0.50579387  0.83746815  1
  Fe  Fe42  1  0.50311458  0.83806890  0.50420549  1
  Ni  Ni43  1  0.33745701  0.67141965  0.67044566  1
  Ni  Ni44  1  0.50486827  0.83863573  0.83655193  1
  Fe  Fe45  1  0.83775814  0.16997489  0.50268979  1
  Ni  Ni46  1  0.66964012  1.00368368  0.67136839  1
  Fe  Fe47  1  0.83870078  0.17013661  0.83772249  1
  Fe  Fe48  1  0.83805496  0.50286622  0.50407150  1
  Fe  Fe49  1  0.66998092  0.33744261  0.67028741  1
  Ni  Ni50  1  0.83762694  0.50480281  0.83707413  1
  Ni  Ni51  1  0.83605911  0.83568408  0.50404817  1
  Ni  Ni52  1  0.67017093  0.67155695  0.66958753  1
  Ni  Ni53  1  0.83588542  0.83512147  0.83787238  1
" 