1754,Ni34Cr66_11,-226.199802911555, 148.142004032572,Ni34Cr66,"# generated using pymatgen
 data_CrNi2
_symmetry_space_group_name_H-M   'P 1'
_cell_length_a   7.48992266
_cell_length_b   7.48992266
_cell_length_c   10.59235021
_cell_angle_alpha   90.00000000
_cell_angle_beta   90.00000000
_cell_angle_gamma   90.00000000
_symmetry_Int_Tables_number   1
_chemical_formula_structural   CrNi2
_chemical_formula_sum   'Cr18 Ni36'
_cell_volume   594.21963392
_cell_formula_units_Z   18
loop_
 _symmetry_equiv_pos_site_id
 _symmetry_equiv_pos_as_xyz
  1  'x, y, z'
loop_
 _atom_site_type_symbol
 _atom_site_label
 _atom_site_symmetry_multiplicity
 _atom_site_fract_x
 _atom_site_fract_y
 _atom_site_fract_z
 _atom_site_occupancy
  Ni  Ni0  1  0.99609153  -0.00109019  -0.00034476  1
  Cr  Cr1  1  0.16415769  0.16479539  0.16290507  1
  Ni  Ni2  1  0.99746594  0.99672922  0.33184641  1
  Ni  Ni3  1  0.99701643  0.33222948  0.99799197  1
  Ni  Ni4  1  0.16822866  0.49883551  0.16382311  1
  Cr  Cr5  1  0.00027008  0.33108715  0.33069726  1
  Cr  Cr6  1  -0.00038087  0.66417671  -0.00030084  1
  Ni  Ni7  1  0.16460526  0.83114740  0.16428320  1
  Cr  Cr8  1  -0.00122167  0.66684683  0.32984687  1
  Ni  Ni9  1  0.33289322  0.99791405  -0.00085906  1
  Ni  Ni10  1  0.50026626  0.16663015  0.16365033  1
  Cr  Cr11  1  0.33118315  0.00024288  0.33376593  1
  Ni  Ni12  1  0.33275095  0.33387401  -0.00026117  1
  Ni  Ni13  1  0.49707728  0.49748808  0.16512256  1
  Ni  Ni14  1  0.33261186  0.33201809  0.33094378  1
  Ni  Ni15  1  0.33173499  0.66340550  0.99830199  1
  Cr  Cr16  1  0.49934017  0.83090363  0.16450602  1
  Ni  Ni17  1  0.33217346  0.66535898  0.33054739  1
  Ni  Ni18  1  0.66641788  0.00021448  -0.00152495  1
  Ni  Ni19  1  0.83036853  0.16317813  0.16284405  1
  Ni  Ni20  1  0.66575726  0.99715269  0.33167807  1
  Ni  Ni21  1  0.66573315  0.33104658  -0.00066640  1
  Ni  Ni22  1  0.83036443  0.49766668  0.16472150  1
  Cr  Cr23  1  0.66331022  0.33034703  0.32986762  1
  Cr  Cr24  1  0.66548003  0.66402612  0.99594668  1
  Ni  Ni25  1  0.83203646  0.83466499  0.16632837  1
  Ni  Ni26  1  0.66561883  0.66666640  0.33227870  1
  Ni  Ni27  1  0.16620874  0.16351589  0.50078863  1
  Ni  Ni28  1  -0.00059368  -0.00106403  0.66392774  1
  Cr  Cr29  1  0.16291919  0.16608021  0.83114405  1
  Cr  Cr30  1  0.16607482  0.49755679  0.49964407  1
  Ni  Ni31  1  -0.00045020  0.33118427  0.66646066  1
  Ni  Ni32  1  0.16713015  0.49675862  0.83204742  1
  Ni  Ni33  1  0.16573777  0.83372218  0.49902823  1
  Cr  Cr34  1  0.99771042  0.66536142  0.66602854  1
  Cr  Cr35  1  0.16694835  0.83284306  0.83278869  1
  Ni  Ni36  1  0.49546735  0.16372436  0.49808550  1
  Ni  Ni37  1  0.33089174  0.99766521  0.66248893  1
  Cr  Cr38  1  0.49786042  0.16479677  0.83414178  1
  Cr  Cr39  1  0.49815523  0.50026602  0.49717966  1
  Ni  Ni40  1  0.33036422  0.33104768  0.66464466  1
  Ni  Ni41  1  0.49561633  0.49910857  0.83274263  1
  Ni  Ni42  1  0.49785954  0.83190141  0.49812836  1
  Ni  Ni43  1  0.33212981  0.66641431  0.66646922  1
  Ni  Ni44  1  0.49750795  0.83071582  0.83232120  1
  Cr  Cr45  1  0.83398699  0.16439464  0.49880141  1
  Cr  Cr46  1  0.66334205  0.99733592  0.66545938  1
  Ni  Ni47  1  0.83355499  0.16503375  0.83400364  1
  Ni  Ni48  1  0.83182612  0.50044631  0.49856771  1
  Cr  Cr49  1  0.66530065  0.33217951  0.66666027  1
  Ni  Ni50  1  0.83271725  0.49538411  0.83216940  1
  Ni  Ni51  1  0.83157302  0.83248225  0.49644454  1
  Cr  Cr52  1  0.66508197  0.66598378  0.66678145  1
  Ni  Ni53  1  0.83126659  0.83514426  0.83265156  1
" 