8257,Ni34Fe46Cr18_3,-231.54878411965, 198.008089375834,Ni34Fe46Cr18,"# generated using pymatgen
 data_Cr11Fe25Ni18
_symmetry_space_group_name_H-M   'P 1'
_cell_length_a   7.44435530
_cell_length_b   7.44435530
_cell_length_c   10.52790823
_cell_angle_alpha   90.00000000
_cell_angle_beta   90.00000000
_cell_angle_gamma   90.00000000
_symmetry_Int_Tables_number   1
_chemical_formula_structural   Cr11Fe25Ni18
_chemical_formula_sum   'Cr11 Fe25 Ni18'
_cell_volume   583.44010192
_cell_formula_units_Z   1
loop_
 _symmetry_equiv_pos_site_id
 _symmetry_equiv_pos_as_xyz
  1  'x, y, z'
loop_
 _atom_site_type_symbol
 _atom_site_label
 _atom_site_symmetry_multiplicity
 _atom_site_fract_x
 _atom_site_fract_y
 _atom_site_fract_z
 _atom_site_occupancy
  Ni  Ni0  1  1.00030193  0.99993793  1.00083522  1
  Fe  Fe1  1  0.16759976  0.16895028  0.16837218  1
  Ni  Ni2  1  1.00133311  1.00017116  0.33574009  1
  Cr  Cr3  1  0.00416106  0.33354099  0.99827574  1
  Fe  Fe4  1  0.17115109  0.50207919  0.16792616  1
  Fe  Fe5  1  0.00386439  0.33409047  0.33429904  1
  Ni  Ni6  1  0.00371029  0.67075584  0.00185746  1
  Fe  Fe7  1  0.16519790  0.83352977  0.16787614  1
  Fe  Fe8  1  0.00384141  0.67206238  0.33534385  1
  Cr  Cr9  1  0.33452880  1.00149194  0.00197756  1
  Ni  Ni10  1  0.50020878  0.16926839  0.16622667  1
  Cr  Cr11  1  0.33352747  0.99922153  0.33293012  1
  Fe  Fe12  1  0.33672120  0.33675784  1.00034205  1
  Fe  Fe13  1  0.50043981  0.50116353  0.16843416  1
  Fe  Fe14  1  0.33466412  0.33731877  0.33329466  1
  Ni  Ni15  1  0.33510156  0.66598278  0.00184416  1
  Fe  Fe16  1  0.50380116  0.83241687  0.16622946  1
  Fe  Fe17  1  0.33302164  0.66629699  0.33501944  1
  Ni  Ni18  1  0.66832021  1.00095518  1.00036591  1
  Cr  Cr19  1  0.83397571  0.16773407  0.16686922  1
  Cr  Cr20  1  0.67003909  1.00108764  0.33571288  1
  Fe  Fe21  1  0.66439367  0.33384242  0.99917375  1
  Cr  Cr22  1  0.83549052  0.50529470  0.16672803  1
  Fe  Fe23  1  0.66589358  0.33567902  0.33508520  1
  Ni  Ni24  1  0.66572177  0.67016356  1.00060317  1
  Fe  Fe25  1  0.83541002  0.83545300  0.16661346  1
  Fe  Fe26  1  0.66732163  0.66900619  0.33396938  1
  Cr  Cr27  1  0.16832087  0.16783125  0.50326393  1
  Fe  Fe28  1  1.00049276  0.99982886  0.66927307  1
  Ni  Ni29  1  0.16944192  0.16739777  0.83494348  1
  Ni  Ni30  1  0.16878763  0.50333822  0.50036485  1
  Fe  Fe31  1  0.00323396  0.33654929  0.67107759  1
  Ni  Ni32  1  0.16970881  0.50454855  0.83530450  1
  Ni  Ni33  1  0.16581250  0.83345423  0.50245240  1
  Ni  Ni34  1  0.00508549  0.66937338  0.66739961  1
  Fe  Fe35  1  0.16706286  0.83413848  0.83413830  1
  Cr  Cr36  1  0.50074868  0.16946238  0.50409629  1
  Fe  Fe37  1  0.33335847  0.99979703  0.67164021  1
  Ni  Ni38  1  0.50160803  0.16674527  0.83500421  1
  Ni  Ni39  1  0.50049387  0.50194661  0.50087011  1
  Fe  Fe40  1  0.33415729  0.33914527  0.67054893  1
  Fe  Fe41  1  0.49939963  0.49993646  0.83346675  1
  Cr  Cr42  1  0.50009833  0.83323263  0.50425981  1
  Ni  Ni43  1  0.33258760  0.66656310  0.66729449  1
  Fe  Fe44  1  0.50122023  0.83342492  0.83447306  1
  Fe  Fe45  1  0.83664242  0.16709101  0.50366468  1
  Fe  Fe46  1  0.67053267  0.99958124  0.67072610  1
  Ni  Ni47  1  0.83346188  0.16602743  0.83391653  1
  Cr  Cr48  1  0.83549998  0.50231922  0.50142018  1
  Ni  Ni49  1  0.66751367  0.33272502  0.66822554  1
  Cr  Cr50  1  0.83524928  0.50527609  0.83608443  1
  Ni  Ni51  1  0.83746369  0.83410946  0.50185417  1
  Fe  Fe52  1  0.66804716  0.66737800  0.66917638  1
  Fe  Fe53  1  0.83653158  0.83682934  0.83541817  1
" 