2510,Ni34Cr66_8,-226.048383593905, 140.857478562777,Ni34Cr66,"# generated using pymatgen
 data_CrNi2
_symmetry_space_group_name_H-M   'P 1'
_cell_length_a   7.49452665
_cell_length_b   7.49452665
_cell_length_c   10.59886123
_cell_angle_alpha   90.00000000
_cell_angle_beta   90.00000000
_cell_angle_gamma   90.00000000
_symmetry_Int_Tables_number   1
_chemical_formula_structural   CrNi2
_chemical_formula_sum   'Cr18 Ni36'
_cell_volume   595.31609150
_cell_formula_units_Z   18
loop_
 _symmetry_equiv_pos_site_id
 _symmetry_equiv_pos_as_xyz
  1  'x, y, z'
loop_
 _atom_site_type_symbol
 _atom_site_label
 _atom_site_symmetry_multiplicity
 _atom_site_fract_x
 _atom_site_fract_y
 _atom_site_fract_z
 _atom_site_occupancy
  Ni  Ni0  1  0.99732739  0.99729754  -0.00058171  1
  Cr  Cr1  1  0.16681240  0.16311839  0.16553608  1
  Cr  Cr2  1  0.99637230  -0.00140686  0.33196120  1
  Cr  Cr3  1  0.99796545  0.33101468  0.99601907  1
  Ni  Ni4  1  0.16837646  0.50202630  0.16419607  1
  Cr  Cr5  1  0.99748769  0.32975862  0.33258998  1
  Ni  Ni6  1  0.00112720  0.66602403  -0.00112846  1
  Ni  Ni7  1  0.16643048  0.82956165  0.16270688  1
  Cr  Cr8  1  0.99751541  0.66616071  0.33085328  1
  Ni  Ni9  1  0.33195782  0.99504125  -0.00152036  1
  Ni  Ni10  1  0.49990782  0.16321509  0.16630615  1
  Ni  Ni11  1  0.33410945  0.99730688  0.33094782  1
  Cr  Cr12  1  0.33092749  0.33306966  -0.00119212  1
  Ni  Ni13  1  0.49544685  0.49874099  0.16795034  1
  Ni  Ni14  1  0.33425108  0.33273905  0.33060041  1
  Ni  Ni15  1  0.32943673  0.66700348  0.00026550  1
  Ni  Ni16  1  0.49710632  0.83254398  0.16529088  1
  Ni  Ni17  1  0.33551288  0.66447954  0.32892933  1
  Ni  Ni18  1  0.66521333  0.99775492  -0.00008394  1
  Ni  Ni19  1  0.82765420  0.16126671  0.16442635  1
  Ni  Ni20  1  0.66391907  0.99732168  0.33018230  1
  Cr  Cr21  1  0.66565599  0.32912834  -0.00071269  1
  Cr  Cr22  1  0.83086447  0.49907860  0.16545968  1
  Ni  Ni23  1  0.66275555  0.33166552  0.33112231  1
  Cr  Cr24  1  0.66291879  0.66684870  -0.00166200  1
  Ni  Ni25  1  0.83096605  0.83395895  0.16394425  1
  Ni  Ni26  1  0.66150841  0.66551027  0.33308963  1
  Ni  Ni27  1  0.16584018  0.16560982  0.49964926  1
  Cr  Cr28  1  0.99773285  0.00108179  0.66281617  1
  Ni  Ni29  1  0.16424449  0.16594026  0.82988136  1
  Cr  Cr30  1  0.16529519  0.49612286  0.49856541  1
  Ni  Ni31  1  0.99731466  0.33208201  0.66613212  1
  Ni  Ni32  1  0.16185801  0.49722978  0.83118869  1
  Cr  Cr33  1  0.16602424  0.83313444  0.49771471  1
  Ni  Ni34  1  0.99451915  0.66087371  0.66530801  1
  Cr  Cr35  1  0.16600385  0.83130982  0.83385607  1
  Cr  Cr36  1  0.49747148  0.16509018  0.49794355  1
  Ni  Ni37  1  0.33310048  0.00000386  0.66508911  1
  Cr  Cr38  1  0.49822182  0.16162315  0.83027339  1
  Ni  Ni39  1  0.50111780  0.49875559  0.49680012  1
  Ni  Ni40  1  0.32931669  0.32998808  0.66481404  1
  Cr  Cr41  1  0.49871115  0.49896863  0.82975362  1
  Ni  Ni42  1  0.50099659  0.83099731  0.49787129  1
  Cr  Cr43  1  0.33412522  0.66533555  0.66528250  1
  Ni  Ni44  1  0.49795420  0.83357820  0.83132903  1
  Ni  Ni45  1  0.83044866  0.16572500  0.49890805  1
  Ni  Ni46  1  0.66415676  0.99716197  0.66442208  1
  Ni  Ni47  1  0.83231977  0.16604813  0.83116836  1
  Ni  Ni48  1  0.82822688  0.49845666  0.50070722  1
  Ni  Ni49  1  0.66786303  0.33268049  0.66412654  1
  Ni  Ni50  1  0.83462634  0.49719795  0.82831934  1
  Ni  Ni51  1  0.82739706  0.83028996  0.49889281  1
  Ni  Ni52  1  0.66632902  0.66466001  0.66277629  1
  Cr  Cr53  1  0.83026058  0.83082934  0.83191786  1
" 