8295,Ni34Fe26Cr38_2,-224.222265694287, 178.703474342861,Ni34Fe26Cr38,"# generated using pymatgen
 data_Cr11Fe7Ni9
_symmetry_space_group_name_H-M   'P 1'
_cell_length_a   7.48247991
_cell_length_b   7.48247991
_cell_length_c   10.58182457
_cell_angle_alpha   90.00000000
_cell_angle_beta   90.00000000
_cell_angle_gamma   90.00000000
_symmetry_Int_Tables_number   1
_chemical_formula_structural   Cr11Fe7Ni9
_chemical_formula_sum   'Cr22 Fe14 Ni18'
_cell_volume   592.44996201
_cell_formula_units_Z   2
loop_
 _symmetry_equiv_pos_site_id
 _symmetry_equiv_pos_as_xyz
  1  'x, y, z'
loop_
 _atom_site_type_symbol
 _atom_site_label
 _atom_site_symmetry_multiplicity
 _atom_site_fract_x
 _atom_site_fract_y
 _atom_site_fract_z
 _atom_site_occupancy
  Ni  Ni0  1  0.99837057  0.99824261  0.00092332  1
  Fe  Fe1  1  0.16345381  0.16552615  0.16753235  1
  Ni  Ni2  1  0.99732536  -0.00008249  0.33071535  1
  Cr  Cr3  1  0.99830373  0.33115077  -0.00044567  1
  Ni  Ni4  1  0.16350341  0.49842330  0.16772943  1
  Ni  Ni5  1  0.99786389  0.33003419  0.32993541  1
  Cr  Cr6  1  0.99680773  0.66782203  -0.00027744  1
  Cr  Cr7  1  0.16611036  0.83246456  0.16602011  1
  Fe  Fe8  1  0.99507553  0.66427550  0.33224835  1
  Fe  Fe9  1  0.33325739  0.99801912  0.99717324  1
  Cr  Cr10  1  0.50216668  0.16276179  0.16656733  1
  Fe  Fe11  1  0.33363962  -0.00077342  0.33402728  1
  Cr  Cr12  1  0.33252329  0.33244252  0.00178233  1
  Fe  Fe13  1  0.50024539  0.49922245  0.16656420  1
  Fe  Fe14  1  0.33076667  0.33200674  0.33106259  1
  Fe  Fe15  1  0.33146701  0.66597867  -0.00070904  1
  Cr  Cr16  1  0.50113895  0.83364619  0.16380230  1
  Cr  Cr17  1  0.33574358  0.66484304  0.33145736  1
  Fe  Fe18  1  0.66805681  0.99855550  0.99741708  1
  Ni  Ni19  1  0.83265890  0.16496424  0.16590261  1
  Fe  Fe20  1  0.66861211  0.99734356  0.33459579  1
  Cr  Cr21  1  0.66568319  0.33343468  0.99841156  1
  Ni  Ni22  1  0.83408734  0.49775478  0.16731637  1
  Cr  Cr23  1  0.66547995  0.33492777  0.33335869  1
  Cr  Cr24  1  0.66544286  0.66682162  -0.00011340  1
  Fe  Fe25  1  0.83249027  0.83356629  0.16719250  1
  Ni  Ni26  1  0.66661805  0.66682822  0.33280060  1
  Cr  Cr27  1  0.16405500  0.16507334  0.49649662  1
  Cr  Cr28  1  0.99690391  0.99726185  0.66522018  1
  Cr  Cr29  1  0.16698610  0.16400104  0.83300999  1
  Cr  Cr30  1  0.16274111  0.50052994  0.49981128  1
  Cr  Cr31  1  0.99632827  0.33207183  0.66679823  1
  Cr  Cr32  1  0.16404327  0.50162798  0.82932221  1
  Cr  Cr33  1  0.16747021  0.83092709  0.50057853  1
  Ni  Ni34  1  0.99488587  0.66729846  0.66509482  1
  Cr  Cr35  1  0.16737918  0.83110114  0.83054586  1
  Fe  Fe36  1  0.50088044  0.16245084  0.49890741  1
  Ni  Ni37  1  0.33688107  0.99666740  0.66566132  1
  Ni  Ni38  1  0.50040007  0.16067944  0.83128328  1
  Fe  Fe39  1  0.50122812  0.50274452  0.49976010  1
  Cr  Cr40  1  0.33487641  0.32982000  0.66321669  1
  Cr  Cr41  1  0.49883463  0.50170333  0.83149342  1
  Ni  Ni42  1  0.50154517  0.83290711  0.50057136  1
  Ni  Ni43  1  0.33592987  0.66877263  0.66609149  1
  Ni  Ni44  1  0.50100153  0.83441120  0.83200416  1
  Ni  Ni45  1  0.82977531  0.16582764  0.49734674  1
  Ni  Ni46  1  0.66317520  0.99612914  0.66482358  1
  Cr  Cr47  1  0.82926990  0.16422330  0.83302211  1
  Ni  Ni48  1  0.83135180  0.49942402  0.49951475  1
  Cr  Cr49  1  0.66534844  0.33180336  0.66537315  1
  Fe  Fe50  1  0.83065171  0.50372135  0.83063132  1
  Fe  Fe51  1  0.83066869  0.83158480  0.49875253  1
  Ni  Ni52  1  0.66560104  0.66861736  0.66465322  1
  Ni  Ni53  1  0.82920885  0.83273317  0.83133868  1
" 