8818,Ni34Fe33Cr32_6,-227.499565433312, 189.423653795432,Ni34Fe33Cr32,"# generated using pymatgen
 data_CrFeNi
_symmetry_space_group_name_H-M   'P 1'
_cell_length_a   7.46843222
_cell_length_b   7.46843222
_cell_length_c   10.56195813
_cell_angle_alpha   90.00000000
_cell_angle_beta   90.00000000
_cell_angle_gamma   90.00000000
_symmetry_Int_Tables_number   1
_chemical_formula_structural   CrFeNi
_chemical_formula_sum   'Cr18 Fe18 Ni18'
_cell_volume   589.11940657
_cell_formula_units_Z   18
loop_
 _symmetry_equiv_pos_site_id
 _symmetry_equiv_pos_as_xyz
  1  'x, y, z'
loop_
 _atom_site_type_symbol
 _atom_site_label
 _atom_site_symmetry_multiplicity
 _atom_site_fract_x
 _atom_site_fract_y
 _atom_site_fract_z
 _atom_site_occupancy
  Ni  Ni0  1  0.00273242  0.99549316  0.99952934  1
  Cr  Cr1  1  0.16694072  0.16367617  0.16410510  1
  Fe  Fe2  1  0.00072776  0.00097445  0.33501849  1
  Fe  Fe3  1  0.99952004  0.33456281  0.99838415  1
  Cr  Cr4  1  0.16892669  0.50228742  0.16489484  1
  Cr  Cr5  1  0.00245374  0.33446261  0.33274299  1
  Ni  Ni6  1  0.00100205  0.66954812  0.99746048  1
  Ni  Ni7  1  0.16850909  0.83262535  0.16608602  1
  Cr  Cr8  1  0.00260782  0.66753238  0.33477473  1
  Fe  Fe9  1  0.33150681  0.99493966  0.99772776  1
  Cr  Cr10  1  0.49759429  0.16563485  0.16669341  1
  Cr  Cr11  1  0.33252453  0.99883011  0.33523147  1
  Cr  Cr12  1  0.33297962  0.33289396  0.99822022  1
  Ni  Ni13  1  0.49929837  0.50337918  0.16786186  1
  Ni  Ni14  1  0.33390829  0.33430122  0.33533190  1
  Fe  Fe15  1  0.33376075  0.66949452  0.99792494  1
  Fe  Fe16  1  0.49840072  0.83006728  0.16697419  1
  Fe  Fe17  1  0.33554502  0.66528635  0.33497769  1
  Cr  Cr18  1  0.66525676  0.99740401  0.99814629  1
  Cr  Cr19  1  0.83433554  0.16532495  0.16660058  1
  Ni  Ni20  1  0.66488439  0.99804341  0.33520836  1
  Cr  Cr21  1  0.66472749  0.33542643  0.99959317  1
  Ni  Ni22  1  0.83113607  0.50359715  0.16444408  1
  Cr  Cr23  1  0.66530083  0.33340953  0.33275703  1
  Ni  Ni24  1  0.66604743  0.66728222  0.00050013  1
  Cr  Cr25  1  0.83397056  0.83273514  0.16733808  1
  Fe  Fe26  1  0.66309102  0.66652990  0.33319629  1
  Fe  Fe27  1  0.16747205  0.16815722  0.50248929  1
  Ni  Ni28  1  0.00026175  0.99901324  0.66510488  1
  Ni  Ni29  1  0.16859535  0.16470047  0.83255038  1
  Ni  Ni30  1  0.17000888  0.49834088  0.50138015  1
  Fe  Fe31  1  0.00461392  0.33284167  0.66662731  1
  Ni  Ni32  1  0.16789732  0.49962863  0.83251063  1
  Fe  Fe33  1  0.16733697  0.83177568  0.50164934  1
  Ni  Ni34  1  0.00243661  0.66874339  0.66820455  1
  Ni  Ni35  1  0.16565896  0.83468571  0.83264191  1
  Fe  Fe36  1  0.49968619  0.16705274  0.50148124  1
  Fe  Fe37  1  0.33189802  0.99956547  0.66684451  1
  Fe  Fe38  1  0.49709059  0.16504627  0.83008243  1
  Ni  Ni39  1  0.49677662  0.49794361  0.49938181  1
  Ni  Ni40  1  0.33363203  0.33160804  0.66596917  1
  Fe  Fe41  1  0.49746645  0.50093032  0.83295393  1
  Fe  Fe42  1  0.49940900  0.83182524  0.50055003  1
  Cr  Cr43  1  0.33027583  0.66443236  0.66662152  1
  Fe  Fe44  1  0.49863294  0.83362946  0.83293332  1
  Fe  Fe45  1  0.83274104  0.16740470  0.50162270  1
  Ni  Ni46  1  0.66565806  0.00197189  0.66645652  1
  Cr  Cr47  1  0.83513466  0.16441030  0.83127271  1
  Cr  Cr48  1  0.83329105  0.50129280  0.50354294  1
  Fe  Fe49  1  0.66398272  0.33213386  0.66606205  1
  Cr  Cr50  1  0.83477937  0.50305452  0.83217578  1
  Cr  Cr51  1  0.83264291  0.83593091  0.50117498  1
  Cr  Cr52  1  0.66577019  0.66894300  0.66860444  1
  Ni  Ni53  1  0.83415606  0.83418965  0.83238224  1
" 