2916,Ni34Cr66_1,-226.203223415922, 144.087897938467,Ni34Cr66,"# generated using pymatgen
 data_CrNi2
_symmetry_space_group_name_H-M   'P 1'
_cell_length_a   7.49343231
_cell_length_b   7.49343231
_cell_length_c   10.59731361
_cell_angle_alpha   90.00000000
_cell_angle_beta   90.00000000
_cell_angle_gamma   90.00000000
_symmetry_Int_Tables_number   1
_chemical_formula_structural   CrNi2
_chemical_formula_sum   'Cr18 Ni36'
_cell_volume   595.05534988
_cell_formula_units_Z   18
loop_
 _symmetry_equiv_pos_site_id
 _symmetry_equiv_pos_as_xyz
  1  'x, y, z'
loop_
 _atom_site_type_symbol
 _atom_site_label
 _atom_site_symmetry_multiplicity
 _atom_site_fract_x
 _atom_site_fract_y
 _atom_site_fract_z
 _atom_site_occupancy
  Ni  Ni0  1  0.00136540  0.99582057  -0.00008825  1
  Cr  Cr1  1  0.16356677  0.16305274  0.16753102  1
  Ni  Ni2  1  0.99664266  -0.00049496  0.33272428  1
  Cr  Cr3  1  0.99755325  0.33497534  0.00199144  1
  Ni  Ni4  1  0.16615587  0.50055174  0.16407320  1
  Ni  Ni5  1  0.99470994  0.33064985  0.33291263  1
  Ni  Ni6  1  0.00062215  0.66403042  0.99795243  1
  Ni  Ni7  1  0.16798265  0.83025417  0.16376641  1
  Cr  Cr8  1  0.00020481  0.65973203  0.33136245  1
  Ni  Ni9  1  0.33128134  0.99712845  -0.00070274  1
  Ni  Ni10  1  0.49757188  0.16469941  0.16550942  1
  Ni  Ni11  1  0.33305604  0.99681500  0.33066763  1
  Ni  Ni12  1  0.33189814  0.33289332  -0.00106374  1
  Ni  Ni13  1  0.49835925  0.50044873  0.16545079  1
  Cr  Cr14  1  0.32999523  0.33733339  0.33105237  1
  Ni  Ni15  1  0.32981865  0.66429098  0.00135906  1
  Ni  Ni16  1  0.49671923  0.83028685  0.16663979  1
  Ni  Ni17  1  0.33474306  0.66662141  0.33024650  1
  Cr  Cr18  1  0.66374656  0.00007303  -0.00045139  1
  Ni  Ni19  1  0.83020363  0.16564741  0.16969131  1
  Ni  Ni20  1  0.66456137  -0.00152102  0.33179779  1
  Cr  Cr21  1  0.66354458  0.33251670  0.00224825  1
  Ni  Ni22  1  0.83040491  0.49812424  0.16629412  1
  Ni  Ni23  1  0.66661878  0.33262954  0.32977823  1
  Ni  Ni24  1  0.66529185  0.66272815  0.00086794  1
  Cr  Cr25  1  0.83283045  0.83114102  0.16525165  1
  Ni  Ni26  1  0.66320109  0.66364715  0.33252871  1
  Ni  Ni27  1  0.16180809  0.16823903  0.49696615  1
  Cr  Cr28  1  0.99803015  0.99610449  0.66282113  1
  Cr  Cr29  1  0.16676629  0.16709226  0.83150411  1
  Ni  Ni30  1  0.16399242  0.49559292  0.49897696  1
  Ni  Ni31  1  0.99802100  0.33572714  0.66161775  1
  Ni  Ni32  1  0.16395208  0.50014008  0.83141500  1
  Cr  Cr33  1  0.16498407  0.83212694  0.49413505  1
  Ni  Ni34  1  0.99674177  0.66026566  0.66544839  1
  Ni  Ni35  1  0.16422051  0.82855826  0.83566325  1
  Cr  Cr36  1  0.49725508  0.16805106  0.49767304  1
  Cr  Cr37  1  0.33217879  -0.00133202  0.66451606  1
  Ni  Ni38  1  0.49577576  0.16734952  0.83181183  1
  Ni  Ni39  1  0.50023147  0.50028515  0.49744000  1
  Ni  Ni40  1  0.33047400  0.33382837  0.66421245  1
  Cr  Cr41  1  0.49952183  0.49660692  0.83053451  1
  Ni  Ni42  1  0.50200447  0.82889289  0.49382330  1
  Cr  Cr43  1  0.32964366  0.66411338  0.66070781  1
  Cr  Cr44  1  0.49737131  0.82868740  0.83294543  1
  Ni  Ni45  1  0.83252203  0.16693011  0.49529952  1
  Cr  Cr46  1  0.66446595  0.99734632  0.66336111  1
  Cr  Cr47  1  0.83151194  0.16872636  0.83103896  1
  Ni  Ni48  1  0.83026654  0.49715140  0.49907320  1
  Ni  Ni49  1  0.66597625  0.33403124  0.66381875  1
  Ni  Ni50  1  0.83347601  0.49981181  0.83006264  1
  Ni  Ni51  1  0.82964632  0.82941456  0.49701141  1
  Ni  Ni52  1  0.66787185  0.66121023  0.66085437  1
  Cr  Cr53  1  0.83357263  0.82590470  0.83280835  1
" 