1859,Ni34Cr66_17,-225.855056339422, 139.261028853201,Ni34Cr66,"# generated using pymatgen
 data_CrNi2
_symmetry_space_group_name_H-M   'P 1'
_cell_length_a   7.49425814
_cell_length_b   7.49425814
_cell_length_c   10.59848151
_cell_angle_alpha   90.00000000
_cell_angle_beta   90.00000000
_cell_angle_gamma   90.00000000
_symmetry_Int_Tables_number   1
_chemical_formula_structural   CrNi2
_chemical_formula_sum   'Cr18 Ni36'
_cell_volume   595.25210958
_cell_formula_units_Z   18
loop_
 _symmetry_equiv_pos_site_id
 _symmetry_equiv_pos_as_xyz
  1  'x, y, z'
loop_
 _atom_site_type_symbol
 _atom_site_label
 _atom_site_symmetry_multiplicity
 _atom_site_fract_x
 _atom_site_fract_y
 _atom_site_fract_z
 _atom_site_occupancy
  Ni  Ni0  1  0.99760554  0.99748805  -0.00132259  1
  Ni  Ni1  1  0.16557945  0.16230946  0.16491803  1
  Cr  Cr2  1  -0.00049174  0.99735839  0.33060349  1
  Cr  Cr3  1  -0.00137194  0.33030289  0.99793144  1
  Cr  Cr4  1  0.16736646  0.50044594  0.16661483  1
  Cr  Cr5  1  0.99724088  0.33284097  0.33237504  1
  Cr  Cr6  1  0.99787831  0.66648906  -0.00168745  1
  Ni  Ni7  1  0.16545396  0.83214174  0.16561005  1
  Ni  Ni8  1  -0.00008226  0.66445715  0.33146280  1
  Cr  Cr9  1  0.33067993  0.99649942  0.99804620  1
  Ni  Ni10  1  0.49984096  0.16432228  0.16767888  1
  Ni  Ni11  1  0.33351819  -0.00163742  0.33174596  1
  Cr  Cr12  1  0.33014535  0.33172036  -0.00139879  1
  Ni  Ni13  1  0.49811374  0.49783437  0.16597275  1
  Ni  Ni14  1  0.33334499  0.32937427  0.33100972  1
  Ni  Ni15  1  0.33184372  0.66705046  0.99782123  1
  Ni  Ni16  1  0.49763314  0.83240662  0.16521203  1
  Ni  Ni17  1  0.33012022  0.66683289  0.33124385  1
  Ni  Ni18  1  0.66629370  0.99608942  0.00013296  1
  Ni  Ni19  1  0.82911844  0.16274731  0.16437498  1
  Ni  Ni20  1  0.66139464  0.00080794  0.33014680  1
  Cr  Cr21  1  0.66580133  0.33188980  0.00106323  1
  Ni  Ni22  1  0.82945229  0.49791897  0.16665486  1
  Ni  Ni23  1  0.66372665  0.32915788  0.33054414  1
  Cr  Cr24  1  0.66446491  0.66700985  -0.00143742  1
  Ni  Ni25  1  0.83146702  0.83387998  0.16401231  1
  Cr  Cr26  1  0.66590305  0.66492100  0.32951033  1
  Ni  Ni27  1  0.16483944  0.16490977  0.49866513  1
  Ni  Ni28  1  -0.00010072  -0.00159078  0.66578984  1
  Ni  Ni29  1  0.16173161  0.16396052  0.83092607  1
  Ni  Ni30  1  0.16341296  0.49993735  0.49847547  1
  Ni  Ni31  1  0.99701325  0.33294067  0.66448329  1
  Ni  Ni32  1  0.16350878  0.50041445  0.82975107  1
  Ni  Ni33  1  0.16657661  0.82970032  0.49814480  1
  Ni  Ni34  1  -0.00161563  0.66321157  0.66569063  1
  Ni  Ni35  1  0.16379070  0.83019281  0.83080212  1
  Ni  Ni36  1  0.49932119  0.16436602  0.49507431  1
  Cr  Cr37  1  0.32958083  0.99624199  0.66352599  1
  Cr  Cr38  1  0.49903543  0.16400949  0.83174256  1
  Cr  Cr39  1  0.49769832  0.49799989  0.49821442  1
  Cr  Cr40  1  0.32863531  0.33089731  0.66475086  1
  Cr  Cr41  1  0.49747055  0.50089647  0.83048084  1
  Ni  Ni42  1  0.49526395  0.83260138  0.49772039  1
  Ni  Ni43  1  0.32989540  0.66656922  0.66552680  1
  Ni  Ni44  1  0.49799357  0.82911569  0.83155370  1
  Ni  Ni45  1  0.83040246  0.16748206  0.49933483  1
  Cr  Cr46  1  0.66421714  0.99657133  0.66373467  1
  Cr  Cr47  1  0.83352884  0.16326522  0.83088417  1
  Ni  Ni48  1  0.83332317  0.49592129  0.50041453  1
  Ni  Ni49  1  0.66907049  0.33387504  0.66292362  1
  Ni  Ni50  1  0.83337818  0.49997984  0.82753177  1
  Cr  Cr51  1  0.83290132  0.83131550  0.49908137  1
  Ni  Ni52  1  0.66627936  0.66365925  0.66664920  1
  Ni  Ni53  1  0.83277356  0.83086432  0.83125495  1
" 