5638,Ni34Fe66_18,-243.652760719855, 221.96377425839,Ni34Fe66,"# generated using pymatgen
 data_FeNi2
_symmetry_space_group_name_H-M   'P 1'
_cell_length_a   7.41307111
_cell_length_b   7.41307111
_cell_length_c   10.48366570
_cell_angle_alpha   90.00000000
_cell_angle_beta   90.00000000
_cell_angle_gamma   90.00000000
_symmetry_Int_Tables_number   1
_chemical_formula_structural   FeNi2
_chemical_formula_sum   'Fe18 Ni36'
_cell_volume   576.11541455
_cell_formula_units_Z   18
loop_
 _symmetry_equiv_pos_site_id
 _symmetry_equiv_pos_as_xyz
  1  'x, y, z'
loop_
 _atom_site_type_symbol
 _atom_site_label
 _atom_site_symmetry_multiplicity
 _atom_site_fract_x
 _atom_site_fract_y
 _atom_site_fract_z
 _atom_site_occupancy
  Fe  Fe0  1  1.00302509  0.00386603  0.00424629  1
  Ni  Ni1  1  0.17001328  0.17051257  0.17002482  1
  Fe  Fe2  1  1.00352524  0.00440590  0.33668314  1
  Ni  Ni3  1  1.00305487  0.33812440  1.00354174  1
  Ni  Ni4  1  0.16965989  0.50385768  0.17027238  1
  Ni  Ni5  1  0.00401741  0.33816554  0.33697391  1
  Ni  Ni6  1  0.00562676  0.66931963  1.00340409  1
  Ni  Ni7  1  0.17144770  0.83655411  0.17038842  1
  Ni  Ni8  1  0.00418971  0.66955133  0.33687498  1
  Fe  Fe9  1  0.33688535  1.00360021  0.00455807  1
  Fe  Fe10  1  0.50402376  0.16972506  0.17068937  1
  Ni  Ni11  1  0.33804694  0.00364917  0.33699192  1
  Fe  Fe12  1  0.33675015  0.33765502  0.00375191  1
  Fe  Fe13  1  0.50379998  0.50393039  0.16992602  1
  Ni  Ni14  1  0.33625171  0.33590204  0.33707243  1
  Ni  Ni15  1  0.33520773  0.67108486  0.00446120  1
  Ni  Ni16  1  0.50348194  0.83724159  0.16976731  1
  Fe  Fe17  1  0.33719985  0.67034889  0.33697315  1
  Ni  Ni18  1  0.66945695  0.00491386  0.00393993  1
  Ni  Ni19  1  0.83677597  0.17082782  0.17035184  1
  Ni  Ni20  1  0.66883256  0.00381922  0.33697458  1
  Ni  Ni21  1  0.67122517  0.33491419  0.00380443  1
  Ni  Ni22  1  0.83746463  0.50320906  0.16957819  1
  Ni  Ni23  1  0.67065076  0.33576067  0.33699226  1
  Fe  Fe24  1  0.67087197  0.66967283  0.00440264  1
  Ni  Ni25  1  0.83599317  0.83688540  0.17052651  1
  Ni  Ni26  1  0.67109408  0.67134154  0.33695760  1
  Ni  Ni27  1  0.17041208  0.17031046  0.50423874  1
  Fe  Fe28  1  1.00324935  0.00402364  0.66999284  1
  Fe  Fe29  1  0.16992108  0.17215657  0.83704048  1
  Ni  Ni30  1  0.16925527  0.50425982  0.50367562  1
  Ni  Ni31  1  1.00312329  0.33805455  0.67040731  1
  Ni  Ni32  1  0.16999326  0.50457783  0.83697359  1
  Ni  Ni33  1  0.17184765  0.83635373  0.50324225  1
  Ni  Ni34  1  0.00571677  0.66922745  0.67064219  1
  Fe  Fe35  1  0.17037509  0.83549881  0.83690754  1
  Ni  Ni36  1  0.50433153  0.16883393  0.50343292  1
  Fe  Fe37  1  0.33711051  0.00375881  0.66910077  1
  Ni  Ni38  1  0.50476962  0.16983147  0.83717902  1
  Fe  Fe39  1  0.50332852  0.50294057  0.50395602  1
  Fe  Fe40  1  0.33697612  0.33742776  0.66996984  1
  Ni  Ni41  1  0.50357368  0.50373546  0.83665736  1
  Ni  Ni42  1  0.50288718  0.83783825  0.50418081  1
  Ni  Ni43  1  0.33527806  0.67101539  0.66948549  1
  Fe  Fe44  1  0.50404504  0.83656727  0.83697400  1
  Ni  Ni45  1  0.83617667  0.17142735  0.50359640  1
  Ni  Ni46  1  0.66927444  0.00509755  0.67000886  1
  Ni  Ni47  1  0.83585005  0.17081867  0.83697350  1
  Ni  Ni48  1  0.83766360  0.50281263  0.50405402  1
  Ni  Ni49  1  0.67106256  0.33482106  0.67012522  1
  Ni  Ni50  1  0.83735713  0.50305750  0.83729045  1
  Fe  Fe51  1  0.83722523  0.83722310  0.50308050  1
  Fe  Fe52  1  0.67071728  0.66944958  0.66983313  1
  Fe  Fe53  1  0.83650034  0.83663579  0.83744608  1
" 