1887,Ni34Fe33Cr32_12,-226.823071577552, 187.508041624333,Ni34Fe33Cr32,"# generated using pymatgen
 data_CrFeNi
_symmetry_space_group_name_H-M   'P 1'
_cell_length_a   7.46786807
_cell_length_b   7.46786807
_cell_length_c   10.56116031
_cell_angle_alpha   90.00000000
_cell_angle_beta   90.00000000
_cell_angle_gamma   90.00000000
_symmetry_Int_Tables_number   1
_chemical_formula_structural   CrFeNi
_chemical_formula_sum   'Cr18 Fe18 Ni18'
_cell_volume   588.98591518
_cell_formula_units_Z   18
loop_
 _symmetry_equiv_pos_site_id
 _symmetry_equiv_pos_as_xyz
  1  'x, y, z'
loop_
 _atom_site_type_symbol
 _atom_site_label
 _atom_site_symmetry_multiplicity
 _atom_site_fract_x
 _atom_site_fract_y
 _atom_site_fract_z
 _atom_site_occupancy
  Fe  Fe0  1  0.00004969  0.99802716  0.99918075  1
  Cr  Cr1  1  0.16717486  0.16609765  0.16875670  1
  Ni  Ni2  1  0.99468444  0.99956000  0.33278715  1
  Cr  Cr3  1  0.00091166  0.33128477  0.00002719  1
  Ni  Ni4  1  0.16493303  0.50092795  0.16715674  1
  Fe  Fe5  1  0.99903423  0.33367701  0.33301026  1
  Fe  Fe6  1  0.00197125  0.66947728  0.99890459  1
  Cr  Cr7  1  0.16832356  0.83226045  0.16726107  1
  Fe  Fe8  1  0.99587332  0.66644353  0.33351869  1
  Ni  Ni9  1  0.33474094  0.99514959  0.99875728  1
  Fe  Fe10  1  0.50133711  0.16386278  0.16552516  1
  Fe  Fe11  1  0.33596618  0.00102590  0.33061724  1
  Cr  Cr12  1  0.33385279  0.33620728  0.99930806  1
  Cr  Cr13  1  0.50101556  0.50227118  0.16454202  1
  Ni  Ni14  1  0.33244208  0.33397782  0.33156232  1
  Ni  Ni15  1  0.33291440  0.66931786  0.99817879  1
  Ni  Ni16  1  0.50192152  0.83613171  0.16569698  1
  Cr  Cr17  1  0.33580129  0.66381729  0.33226917  1
  Ni  Ni18  1  0.66827802  0.99730720  0.00296854  1
  Ni  Ni19  1  0.83130519  0.16503089  0.16703019  1
  Fe  Fe20  1  0.66826589  0.99743027  0.33059165  1
  Ni  Ni21  1  0.66673529  0.33086680  0.00086954  1
  Cr  Cr22  1  0.83489630  0.50093782  0.16568211  1
  Cr  Cr23  1  0.66610198  0.33332215  0.33402999  1
  Fe  Fe24  1  0.66343187  0.67020239  0.99976268  1
  Fe  Fe25  1  0.83172886  0.83496549  0.16810409  1
  Ni  Ni26  1  0.66867578  0.66978155  0.33454652  1
  Cr  Cr27  1  0.16711998  0.16588564  0.49819083  1
  Cr  Cr28  1  0.99805845  0.99884787  0.66901795  1
  Ni  Ni29  1  0.16713047  0.16352300  0.83297238  1
  Cr  Cr30  1  0.16219978  0.49984547  0.49839303  1
  Ni  Ni31  1  0.99746845  0.33283128  0.66490369  1
  Fe  Fe32  1  0.16740358  0.50299607  0.83272640  1
  Cr  Cr33  1  0.16693124  0.83410954  0.49935095  1
  Fe  Fe34  1  0.99938625  0.66459968  0.66707326  1
  Ni  Ni35  1  0.16992334  0.83237645  0.83374639  1
  Cr  Cr36  1  0.49986617  0.16464536  0.49972491  1
  Fe  Fe37  1  0.33330491  0.99832608  0.67063191  1
  Cr  Cr38  1  0.50076037  0.16355033  0.83524414  1
  Fe  Fe39  1  0.50262143  0.50152206  0.50068237  1
  Cr  Cr40  1  0.33353279  0.33750142  0.66940918  1
  Fe  Fe41  1  0.49994880  0.50340198  0.83376904  1
  Cr  Cr42  1  0.50058471  0.83431858  0.50122289  1
  Ni  Ni43  1  0.33508805  0.66776222  0.66947273  1
  Ni  Ni44  1  0.49809623  0.83153581  0.83318324  1
  Fe  Fe45  1  0.83392986  0.16598080  0.49987652  1
  Fe  Fe46  1  0.66637406  0.99836653  0.66750918  1
  Cr  Cr47  1  0.83215719  0.16939453  0.83284983  1
  Ni  Ni48  1  0.83214586  0.50067053  0.50069549  1
  Ni  Ni49  1  0.66861513  0.33547156  0.66411116  1
  Cr  Cr50  1  0.83150382  0.50078724  0.83344156  1
  Ni  Ni51  1  0.83134288  0.82979941  0.49868832  1
  Fe  Fe52  1  0.66702764  0.66564851  0.66540366  1
  Fe  Fe53  1  0.83214510  0.83397390  0.83409714  1
" 