219,Ni34Fe33Cr32_19,-227.18436729703, 188.027150365056,Ni34Fe33Cr32,"# generated using pymatgen
 data_CrFeNi
_symmetry_space_group_name_H-M   'P 1'
_cell_length_a   7.46732925
_cell_length_b   7.46732925
_cell_length_c   10.56039830
_cell_angle_alpha   90.00000000
_cell_angle_beta   90.00000000
_cell_angle_gamma   90.00000000
_symmetry_Int_Tables_number   1
_chemical_formula_structural   CrFeNi
_chemical_formula_sum   'Cr18 Fe18 Ni18'
_cell_volume   588.85843390
_cell_formula_units_Z   18
loop_
 _symmetry_equiv_pos_site_id
 _symmetry_equiv_pos_as_xyz
  1  'x, y, z'
loop_
 _atom_site_type_symbol
 _atom_site_label
 _atom_site_symmetry_multiplicity
 _atom_site_fract_x
 _atom_site_fract_y
 _atom_site_fract_z
 _atom_site_occupancy
  Fe  Fe0  1  0.00271148  0.99662135  0.99952254  1
  Cr  Cr1  1  0.16747791  0.16573060  0.16801201  1
  Cr  Cr2  1  0.99717810  0.99829666  0.33310517  1
  Cr  Cr3  1  0.99973747  0.33260101  0.00158338  1
  Fe  Fe4  1  0.16666352  0.50291477  0.16753671  1
  Fe  Fe5  1  0.99747537  0.33537703  0.33295546  1
  Fe  Fe6  1  0.99957676  0.66764762  0.00160995  1
  Cr  Cr7  1  0.16925234  0.83038244  0.16536506  1
  Ni  Ni8  1  0.99865514  0.66482043  0.33158747  1
  Ni  Ni9  1  0.33331935  0.99862331  0.99940391  1
  Fe  Fe10  1  0.50140273  0.16371729  0.16792202  1
  Fe  Fe11  1  0.33643002  0.99635979  0.33445810  1
  Cr  Cr12  1  0.33280885  0.33474756  0.99937303  1
  Fe  Fe13  1  0.50066887  0.50309051  0.16670317  1
  Cr  Cr14  1  0.33285804  0.33356331  0.33471888  1
  Ni  Ni15  1  0.33644473  0.66795881  0.00036390  1
  Ni  Ni16  1  0.50138448  0.83210919  0.16630131  1
  Ni  Ni17  1  0.33445255  0.66501714  0.33173488  1
  Cr  Cr18  1  0.66779186  0.99661903  0.00276239  1
  Fe  Fe19  1  0.83020040  0.16569141  0.16800519  1
  Ni  Ni20  1  0.66543130  0.99996024  0.33277014  1
  Fe  Fe21  1  0.66470550  0.33636252  0.00170997  1
  Fe  Fe22  1  0.83209055  0.50253007  0.16673006  1
  Fe  Fe23  1  0.66623629  0.33470998  0.33346001  1
  Ni  Ni24  1  0.66627000  0.66577065  0.99977286  1
  Ni  Ni25  1  0.83212203  0.83153833  0.16663647  1
  Cr  Cr26  1  0.66614272  0.67068956  0.33573004  1
  Ni  Ni27  1  0.16625128  0.16609166  0.50183358  1
  Ni  Ni28  1  0.00247798  0.00113000  0.66823970  1
  Ni  Ni29  1  0.16581713  0.16506316  0.83150665  1
  Cr  Cr30  1  0.16564821  0.50193890  0.49802332  1
  Ni  Ni31  1  0.00063463  0.33301916  0.66548682  1
  Cr  Cr32  1  0.16672997  0.50426936  0.83215697  1
  Cr  Cr33  1  0.16811311  0.83226538  0.50026324  1
  Fe  Fe34  1  0.99923742  0.66725342  0.66530794  1
  Fe  Fe35  1  0.16966644  0.83595842  0.83310838  1
  Ni  Ni36  1  0.49950471  0.16500953  0.49703914  1
  Ni  Ni37  1  0.33084766  0.99872029  0.66524693  1
  Cr  Cr38  1  0.49895666  0.16513953  0.83385357  1
  Ni  Ni39  1  0.50074959  0.50213072  0.50092019  1
  Cr  Cr40  1  0.33169653  0.33266552  0.66574417  1
  Fe  Fe41  1  0.50196931  0.50427176  0.83329212  1
  Ni  Ni42  1  0.49960023  0.83198162  0.50005634  1
  Ni  Ni43  1  0.33695337  0.66861014  0.66736244  1
  Fe  Fe44  1  0.49685726  0.83121776  0.83341135  1
  Cr  Cr45  1  0.83315144  0.16772884  0.49978389  1
  Cr  Cr46  1  0.66504655  0.99580116  0.66314379  1
  Cr  Cr47  1  0.83418172  0.16718258  0.83459442  1
  Fe  Fe48  1  0.83271050  0.50180913  0.50045284  1
  Cr  Cr49  1  0.66612678  0.33672073  0.66693341  1
  Fe  Fe50  1  0.83304239  0.50039187  0.83321198  1
  Fe  Fe51  1  0.83351178  0.83195274  0.50029483  1
  Ni  Ni52  1  0.66618661  0.66645604  0.66570145  1
  Cr  Cr53  1  0.83382408  0.83075163  0.83217814  1
" 