8393,Ni34Fe66_17,-242.957423978234, 221.036603917861,Ni34Fe66,"# generated using pymatgen
 data_FeNi2
_symmetry_space_group_name_H-M   'P 1'
_cell_length_a   7.40779720
_cell_length_b   7.40779720
_cell_length_c   10.47620727
_cell_angle_alpha   90.00000000
_cell_angle_beta   90.00000000
_cell_angle_gamma   90.00000000
_symmetry_Int_Tables_number   1
_chemical_formula_structural   FeNi2
_chemical_formula_sum   'Fe18 Ni36'
_cell_volume   574.88668671
_cell_formula_units_Z   18
loop_
 _symmetry_equiv_pos_site_id
 _symmetry_equiv_pos_as_xyz
  1  'x, y, z'
loop_
 _atom_site_type_symbol
 _atom_site_label
 _atom_site_symmetry_multiplicity
 _atom_site_fract_x
 _atom_site_fract_y
 _atom_site_fract_z
 _atom_site_occupancy
  Ni  Ni0  1  0.00434343  1.00361233  1.00383970  1
  Fe  Fe1  1  0.17024200  0.17060291  0.16990107  1
  Fe  Fe2  1  1.00350864  1.00363792  0.33673738  1
  Ni  Ni3  1  0.00432980  0.33739784  1.00389517  1
  Fe  Fe4  1  0.17012431  0.50467118  0.17087482  1
  Ni  Ni5  1  1.00393394  0.33771737  0.33741749  1
  Ni  Ni6  1  1.00244032  0.67098685  0.00423861  1
  Ni  Ni7  1  0.17133392  0.83786528  0.17002887  1
  Ni  Ni8  1  1.00361448  0.67078349  0.33701326  1
  Ni  Ni9  1  0.33743584  0.00468721  0.00442021  1
  Fe  Fe10  1  0.50473743  0.17048339  0.17133897  1
  Fe  Fe11  1  0.33782197  1.00357365  0.33782549  1
  Ni  Ni12  1  0.33710210  0.33597571  1.00349268  1
  Ni  Ni13  1  0.50472162  0.50430515  0.17042905  1
  Ni  Ni14  1  0.33731395  0.33706406  0.33806828  1
  Fe  Fe15  1  0.33675885  0.67101266  0.00420964  1
  Ni  Ni16  1  0.50363393  0.83707214  0.17097574  1
  Ni  Ni17  1  0.33730417  0.67110668  0.33697444  1
  Fe  Fe18  1  0.67112324  1.00354177  0.00481888  1
  Ni  Ni19  1  0.83769567  0.17158001  0.17057023  1
  Ni  Ni20  1  0.67042442  1.00350733  0.33700186  1
  Fe  Fe21  1  0.67162170  0.33772650  0.00435505  1
  Ni  Ni22  1  0.83690150  0.50321735  0.17042087  1
  Ni  Ni23  1  0.67074911  0.33661555  0.33688075  1
  Ni  Ni24  1  0.67164297  0.67132252  0.00413148  1
  Ni  Ni25  1  0.83702936  0.83720200  0.17012707  1
  Ni  Ni26  1  0.67107629  0.67187228  0.33814871  1
  Ni  Ni27  1  0.17177781  0.17143984  0.50399301  1
  Fe  Fe28  1  0.00531609  0.00453306  0.67076970  1
  Ni  Ni29  1  0.17092301  0.17164749  0.83738042  1
  Ni  Ni30  1  0.16956032  0.50300348  0.50398397  1
  Ni  Ni31  1  1.00362248  0.33792689  0.67068444  1
  Ni  Ni32  1  0.16946864  0.50239048  0.83776511  1
  Ni  Ni33  1  0.17132023  0.83755685  0.50494534  1
  Ni  Ni34  1  0.00405338  0.67057810  0.67074812  1
  Fe  Fe35  1  0.17063453  0.83694285  0.83740347  1
  Ni  Ni36  1  0.50302604  0.17000344  0.50409359  1
  Ni  Ni37  1  0.33786820  1.00381607  0.67014733  1
  Fe  Fe38  1  0.50293301  0.17136925  0.83652293  1
  Fe  Fe39  1  0.50325669  0.50411422  0.50325917  1
  Ni  Ni40  1  0.33750065  0.33646486  0.67043502  1
  Fe  Fe41  1  0.50339399  0.50368805  0.83771943  1
  Ni  Ni42  1  0.50410422  0.83836916  0.50344345  1
  Ni  Ni43  1  0.33674495  0.67171786  0.67119420  1
  Ni  Ni44  1  0.50394527  0.83795535  0.83758282  1
  Fe  Fe45  1  0.83744734  0.17070761  0.50332403  1
  Fe  Fe46  1  0.66968051  1.00399603  0.66977912  1
  Fe  Fe47  1  0.83811983  0.17151674  0.83786309  1
  Ni  Ni48  1  0.83800300  0.50407858  0.50367925  1
  Ni  Ni49  1  0.67087237  0.33680596  0.67063202  1
  Ni  Ni50  1  0.83824388  0.50350860  0.83790046  1
  Ni  Ni51  1  0.83657269  0.83615164  0.50395374  1
  Fe  Fe52  1  0.67041669  0.67005398  0.67079386  1
  Fe  Fe53  1  0.83818555  0.83647880  0.83782353  1
" 