7751,Ni34Fe46Cr18_5,-231.822774765137, 197.9297730406,Ni34Fe46Cr18,"# generated using pymatgen
 data_Cr11Fe25Ni18
_symmetry_space_group_name_H-M   'P 1'
_cell_length_a   7.44259305
_cell_length_b   7.44259305
_cell_length_c   10.52541603
_cell_angle_alpha   90.00000000
_cell_angle_beta   90.00000000
_cell_angle_gamma   90.00000000
_symmetry_Int_Tables_number   1
_chemical_formula_structural   Cr11Fe25Ni18
_chemical_formula_sum   'Cr11 Fe25 Ni18'
_cell_volume   583.02585787
_cell_formula_units_Z   1
loop_
 _symmetry_equiv_pos_site_id
 _symmetry_equiv_pos_as_xyz
  1  'x, y, z'
loop_
 _atom_site_type_symbol
 _atom_site_label
 _atom_site_symmetry_multiplicity
 _atom_site_fract_x
 _atom_site_fract_y
 _atom_site_fract_z
 _atom_site_occupancy
  Ni  Ni0  1  0.00220262  0.00296295  1.00079861  1
  Ni  Ni1  1  0.16955126  0.16825679  0.16675192  1
  Fe  Fe2  1  0.00172943  1.00157565  0.33496384  1
  Fe  Fe3  1  0.00200910  0.33280057  0.00203433  1
  Fe  Fe4  1  0.16737709  0.50143178  0.16631612  1
  Cr  Cr5  1  0.00394692  0.33430063  0.33428471  1
  Ni  Ni6  1  0.00351059  0.66867107  1.00039932  1
  Fe  Fe7  1  0.16698549  0.83518210  0.16553240  1
  Ni  Ni8  1  0.00410802  0.66904338  0.33634596  1
  Fe  Fe9  1  0.33464601  1.00065520  1.00109570  1
  Fe  Fe10  1  0.50161627  0.16755938  0.16573105  1
  Cr  Cr11  1  0.33463307  0.00256726  0.33215756  1
  Fe  Fe12  1  0.33507498  0.33419214  1.00147513  1
  Fe  Fe13  1  0.49967813  0.49980525  0.16568303  1
  Ni  Ni14  1  0.33323848  0.33512703  0.33583410  1
  Fe  Fe15  1  0.33548594  0.67004785  1.00073417  1
  Fe  Fe16  1  0.50153886  0.83762234  0.16547638  1
  Cr  Cr17  1  0.33373896  0.66709632  0.33362013  1
  Ni  Ni18  1  0.66733473  0.00194187  0.99961501  1
  Fe  Fe19  1  0.83571432  0.16622444  0.16621486  1
  Ni  Ni20  1  0.66968356  0.00256949  0.33536862  1
  Fe  Fe21  1  0.66791428  0.33364919  1.00128247  1
  Fe  Fe22  1  0.83772647  0.50109652  0.16508778  1
  Cr  Cr23  1  0.66725571  0.33343900  0.33277421  1
  Ni  Ni24  1  0.66623719  0.66941957  0.00190613  1
  Cr  Cr25  1  0.83677125  0.83382457  0.16913982  1
  Cr  Cr26  1  0.66770005  0.66959084  0.33413695  1
  Ni  Ni27  1  0.16800321  0.16536655  0.50216166  1
  Fe  Fe28  1  1.00152048  0.99978822  0.66964687  1
  Ni  Ni29  1  0.17050128  0.16597413  0.83624836  1
  Fe  Fe30  1  0.17040622  0.50100961  0.50291212  1
  Cr  Cr31  1  0.00377771  0.33247188  0.66993600  1
  Fe  Fe32  1  0.17178884  0.50141118  0.83667870  1
  Ni  Ni33  1  0.16506200  0.83627959  0.50113727  1
  Fe  Fe34  1  0.00172439  0.67081499  0.66931211  1
  Ni  Ni35  1  0.16730492  0.83595683  0.83658986  1
  Cr  Cr36  1  0.50030805  0.17044655  0.50253739  1
  Fe  Fe37  1  0.33263103  1.00162238  0.67002373  1
  Ni  Ni38  1  0.50018686  0.16923017  0.83548965  1
  Ni  Ni39  1  0.50074658  0.50113170  0.50332266  1
  Fe  Fe40  1  0.33624688  0.33575519  0.66979071  1
  Ni  Ni41  1  0.50248316  0.50124314  0.83507645  1
  Cr  Cr42  1  0.50095352  0.83490080  0.50329051  1
  Fe  Fe43  1  0.33375148  0.66716264  0.66959473  1
  Fe  Fe44  1  0.50091279  0.83523890  0.83497214  1
  Ni  Ni45  1  0.83627605  0.16589319  0.50147323  1
  Fe  Fe46  1  0.67030144  0.00320400  0.67020242  1
  Fe  Fe47  1  0.83387461  0.16644380  0.83512398  1
  Cr  Cr48  1  0.83291806  0.50326017  0.50183123  1
  Ni  Ni49  1  0.66810594  0.33474748  0.66970650  1
  Cr  Cr50  1  0.83374810  0.50404264  0.83792705  1
  Fe  Fe51  1  0.83652195  0.83809959  0.50226905  1
  Ni  Ni52  1  0.66696911  0.66970126  0.66970136  1
  Fe  Fe53  1  0.83428205  0.83686570  0.83699945  1
" 