7506,Ni34Fe33Cr32_10,-226.758087624791, 187.462104558655,Ni34Fe33Cr32,"# generated using pymatgen
 data_CrFeNi
_symmetry_space_group_name_H-M   'P 1'
_cell_length_a   7.46625581
_cell_length_b   7.46625581
_cell_length_c   10.55888023
_cell_angle_alpha   90.00000000
_cell_angle_beta   90.00000000
_cell_angle_gamma   90.00000000
_symmetry_Int_Tables_number   1
_chemical_formula_structural   CrFeNi
_chemical_formula_sum   'Cr18 Fe18 Ni18'
_cell_volume   588.60452312
_cell_formula_units_Z   18
loop_
 _symmetry_equiv_pos_site_id
 _symmetry_equiv_pos_as_xyz
  1  'x, y, z'
loop_
 _atom_site_type_symbol
 _atom_site_label
 _atom_site_symmetry_multiplicity
 _atom_site_fract_x
 _atom_site_fract_y
 _atom_site_fract_z
 _atom_site_occupancy
  Ni  Ni0  1  0.00128832  0.99932624  0.99922282  1
  Ni  Ni1  1  0.16861190  0.16687642  0.16456049  1
  Cr  Cr2  1  0.99977737  0.00025218  0.33323771  1
  Ni  Ni3  1  0.00614290  0.33282526  0.00016046  1
  Ni  Ni4  1  0.16699664  0.49991469  0.16580066  1
  Fe  Fe5  1  0.00044624  0.33261753  0.33291332  1
  Fe  Fe6  1  0.00173762  0.66710714  0.99957572  1
  Cr  Cr7  1  0.16936868  0.83389010  0.16680588  1
  Cr  Cr8  1  0.99767707  0.66523151  0.33290638  1
  Fe  Fe9  1  0.33288214  0.99975207  0.99999483  1
  Ni  Ni10  1  0.49874809  0.16719360  0.16632934  1
  Ni  Ni11  1  0.33448051  0.00312822  0.33119788  1
  Ni  Ni12  1  0.33127498  0.33387711  0.00185680  1
  Fe  Fe13  1  0.49800682  0.49948026  0.16546827  1
  Cr  Cr14  1  0.33353419  0.33340894  0.33244753  1
  Ni  Ni15  1  0.33434622  0.66446557  0.99961854  1
  Fe  Fe16  1  0.49884598  0.83239626  0.16600208  1
  Fe  Fe17  1  0.33639049  0.66551811  0.33140225  1
  Cr  Cr18  1  0.66708580  0.99689835  0.99937859  1
  Cr  Cr19  1  0.83450159  0.16946416  0.16536469  1
  Cr  Cr20  1  0.66612435  0.99967478  0.33377219  1
  Fe  Fe21  1  0.66419867  0.33417078  0.00203006  1
  Cr  Cr22  1  0.83219878  0.49936543  0.16475829  1
  Ni  Ni23  1  0.66434019  0.33524428  0.33394788  1
  Ni  Ni24  1  0.66558099  0.66863184  0.00188817  1
  Fe  Fe25  1  0.83381869  0.83319807  0.16509974  1
  Fe  Fe26  1  0.66454039  0.66538847  0.33342427  1
  Ni  Ni27  1  0.16457114  0.16857225  0.49862414  1
  Cr  Cr28  1  0.99879853  0.99879011  0.66711814  1
  Fe  Fe29  1  0.16636885  0.16591920  0.83619948  1
  Fe  Fe30  1  0.16716834  0.50029407  0.49910027  1
  Fe  Fe31  1  0.99943485  0.33396687  0.66542570  1
  Fe  Fe32  1  0.16727469  0.50113919  0.83654002  1
  Cr  Cr33  1  0.16976065  0.83394679  0.49797462  1
  Cr  Cr34  1  0.99998041  0.66686239  0.66920073  1
  Ni  Ni35  1  0.16842551  0.83267607  0.83586087  1
  Fe  Fe36  1  0.50025315  0.16737200  0.49936489  1
  Cr  Cr37  1  0.33303092  0.00202980  0.66890859  1
  Cr  Cr38  1  0.50088017  0.16748574  0.83417962  1
  Ni  Ni39  1  0.50243671  0.50006489  0.49939003  1
  Cr  Cr40  1  0.33225027  0.33547482  0.66641505  1
  Cr  Cr41  1  0.50161349  0.50115136  0.83509150  1
  Cr  Cr42  1  0.49843961  0.83110909  0.50111628  1
  Fe  Fe43  1  0.33479734  0.66573277  0.66851513  1
  Ni  Ni44  1  0.49883355  0.83099614  0.83267001  1
  Fe  Fe45  1  0.83173674  0.16908086  0.50056431  1
  Fe  Fe46  1  0.66748692  0.99813970  0.66705341  1
  Cr  Cr47  1  0.83394922  0.16951909  0.83316769  1
  Fe  Fe48  1  0.83165765  0.49912172  0.50014854  1
  Ni  Ni49  1  0.66538634  0.33508242  0.66365606  1
  Cr  Cr50  1  0.83245097  0.49840820  0.83566338  1
  Ni  Ni51  1  0.83164030  0.83200122  0.50059213  1
  Ni  Ni52  1  0.66788955  0.66666700  0.66597205  1
  Ni  Ni53  1  0.83340185  0.83196223  0.83518588  1
" 