7248,Ni34Fe26Cr38_12,-224.011653168876, 177.810220857122,Ni34Fe26Cr38,"# generated using pymatgen
 data_Cr11Fe7Ni9
_symmetry_space_group_name_H-M   'P 1'
_cell_length_a   7.48691473
_cell_length_b   7.48691473
_cell_length_c   10.58809635
_cell_angle_alpha   90.00000000
_cell_angle_beta   90.00000000
_cell_angle_gamma   90.00000000
_symmetry_Int_Tables_number   1
_chemical_formula_structural   Cr11Fe7Ni9
_chemical_formula_sum   'Cr22 Fe14 Ni18'
_cell_volume   593.50401148
_cell_formula_units_Z   2
loop_
 _symmetry_equiv_pos_site_id
 _symmetry_equiv_pos_as_xyz
  1  'x, y, z'
loop_
 _atom_site_type_symbol
 _atom_site_label
 _atom_site_symmetry_multiplicity
 _atom_site_fract_x
 _atom_site_fract_y
 _atom_site_fract_z
 _atom_site_occupancy
  Ni  Ni0  1  0.99549973  0.99801793  -0.00119797  1
  Cr  Cr1  1  0.16356757  0.16292252  0.16714378  1
  Fe  Fe2  1  0.99572610  -0.00058146  0.33015445  1
  Cr  Cr3  1  -0.00118461  0.32757933  0.99653676  1
  Cr  Cr4  1  0.16606835  0.49927332  0.16692575  1
  Fe  Fe5  1  0.99513807  0.33054817  0.33244200  1
  Cr  Cr6  1  0.99776753  0.66963514  0.99607951  1
  Ni  Ni7  1  0.16362384  0.83388086  0.16530933  1
  Cr  Cr8  1  0.99547389  0.66886688  0.33175852  1
  Fe  Fe9  1  0.33053046  0.99830604  0.99763604  1
  Ni  Ni10  1  0.50046714  0.16762946  0.16365280  1
  Cr  Cr11  1  0.33322706  0.00030972  0.33236719  1
  Cr  Cr12  1  0.33312682  0.32928896  0.99695754  1
  Fe  Fe13  1  0.50082507  0.49749728  0.16692174  1
  Ni  Ni14  1  0.33295028  0.33108413  0.33152514  1
  Cr  Cr15  1  0.33180499  0.66613787  -0.00102582  1
  Cr  Cr16  1  0.49893494  0.83142949  0.16392802  1
  Fe  Fe17  1  0.33499373  0.66504232  0.33031276  1
  Fe  Fe18  1  0.66739029  -0.00045413  0.99758566  1
  Ni  Ni19  1  0.82937373  0.16378454  0.16404502  1
  Cr  Cr20  1  0.66870985  0.99687502  0.33006873  1
  Fe  Fe21  1  0.66587708  0.32879011  -0.00078150  1
  Cr  Cr22  1  0.82916403  0.49784481  0.16423134  1
  Ni  Ni23  1  0.66432605  0.33220359  0.33036431  1
  Ni  Ni24  1  0.66572174  0.67039005  0.99805920  1
  Ni  Ni25  1  0.83243923  0.83312304  0.16370338  1
  Ni  Ni26  1  0.66841183  0.66515521  0.33284670  1
  Ni  Ni27  1  0.16371759  0.16441692  0.49736058  1
  Fe  Fe28  1  0.99782782  0.99809865  0.66792894  1
  Ni  Ni29  1  0.16545540  0.15856323  0.83189224  1
  Cr  Cr30  1  0.16410816  0.49778802  0.49656639  1
  Cr  Cr31  1  -0.00081948  0.33150645  0.66656618  1
  Fe  Fe32  1  0.16407755  0.49882307  0.83179941  1
  Cr  Cr33  1  0.16377140  0.83653529  0.49796780  1
  Fe  Fe34  1  0.99591919  0.66905358  0.66570785  1
  Ni  Ni35  1  0.16490896  0.83619504  0.83225984  1
  Cr  Cr36  1  0.49816256  0.16516527  0.50095602  1
  Fe  Fe37  1  0.33133533  -0.00049734  0.66783969  1
  Ni  Ni38  1  0.49997407  0.16272166  0.83216155  1
  Cr  Cr39  1  0.50202429  0.49849393  0.49547574  1
  Cr  Cr40  1  0.33076363  0.32983021  0.66721741  1
  Cr  Cr41  1  0.50247617  0.49892973  0.83334905  1
  Cr  Cr42  1  0.50056020  0.83182458  0.50172297  1
  Cr  Cr43  1  0.33066228  0.66619659  0.66755009  1
  Fe  Fe44  1  0.50107779  0.83639843  0.83247394  1
  Cr  Cr45  1  0.83291626  0.16507152  0.49830747  1
  Ni  Ni46  1  0.66817468  0.99655670  0.66828434  1
  Ni  Ni47  1  0.83058015  0.16255655  0.83309950  1
  Ni  Ni48  1  0.83036966  0.50000498  0.49964360  1
  Fe  Fe49  1  0.66607612  0.32902418  0.66579311  1
  Cr  Cr50  1  0.83012986  0.49934451  0.83100120  1
  Ni  Ni51  1  0.83248074  0.83050112  0.50115110  1
  Fe  Fe52  1  0.66880180  0.66696437  0.66542051  1
  Ni  Ni53  1  0.83286636  0.83370590  0.83130641  1
" 