1682,Ni34Fe46Cr18_4,-231.270411953315, 194.011845244412,Ni34Fe46Cr18,"# generated using pymatgen
 data_Cr11Fe25Ni18
_symmetry_space_group_name_H-M   'P 1'
_cell_length_a   7.44116850
_cell_length_b   7.44116850
_cell_length_c   10.52340141
_cell_angle_alpha   90.00000000
_cell_angle_beta   90.00000000
_cell_angle_gamma   90.00000000
_symmetry_Int_Tables_number   1
_chemical_formula_structural   Cr11Fe25Ni18
_chemical_formula_sum   'Cr11 Fe25 Ni18'
_cell_volume   582.69113953
_cell_formula_units_Z   1
loop_
 _symmetry_equiv_pos_site_id
 _symmetry_equiv_pos_as_xyz
  1  'x, y, z'
loop_
 _atom_site_type_symbol
 _atom_site_label
 _atom_site_symmetry_multiplicity
 _atom_site_fract_x
 _atom_site_fract_y
 _atom_site_fract_z
 _atom_site_occupancy
  Fe  Fe0  1  0.00454466  1.00127093  0.00309665  1
  Fe  Fe1  1  0.16857171  0.16735723  0.16716579  1
  Fe  Fe2  1  0.00266391  1.00092968  0.33593390  1
  Ni  Ni3  1  0.00396125  0.33483338  1.00100522  1
  Cr  Cr4  1  0.16956998  0.50069621  0.16882655  1
  Ni  Ni5  1  0.00196179  0.33333336  0.33564071  1
  Fe  Fe6  1  0.00240188  0.66860799  0.00484414  1
  Fe  Fe7  1  0.16735886  0.83618283  0.16989392  1
  Ni  Ni8  1  1.00167558  0.66822598  0.33537540  1
  Ni  Ni9  1  0.33519610  0.00261407  0.00385645  1
  Fe  Fe10  1  0.49916617  0.16934316  0.16726835  1
  Fe  Fe11  1  0.33051363  0.00280557  0.33325625  1
  Ni  Ni12  1  0.33392011  0.33213035  1.00011613  1
  Fe  Fe13  1  0.50406966  0.50120828  0.16914373  1
  Fe  Fe14  1  0.33598087  0.33471837  0.33496967  1
  Fe  Fe15  1  0.33711227  0.66575841  0.00302275  1
  Fe  Fe16  1  0.50090422  0.83449820  0.16788645  1
  Ni  Ni17  1  0.33605441  0.67006709  0.33304667  1
  Fe  Fe18  1  0.66537522  0.00268051  0.00415776  1
  Cr  Cr19  1  0.83518865  0.17114582  0.16463882  1
  Cr  Cr20  1  0.66689980  1.00153360  0.33626473  1
  Fe  Fe21  1  0.66335035  0.33774246  1.00161273  1
  Fe  Fe22  1  0.83566474  0.50365951  0.16885183  1
  Fe  Fe23  1  0.66858636  0.33691920  0.33666524  1
  Ni  Ni24  1  0.66952359  0.67047216  0.00567380  1
  Ni  Ni25  1  0.83496350  0.83591171  0.16843111  1
  Fe  Fe26  1  0.66980741  0.66576459  0.33412749  1
  Fe  Fe27  1  0.16809357  0.16896685  0.50226743  1
  Fe  Fe28  1  0.00406883  0.00320404  0.66605691  1
  Ni  Ni29  1  0.16951467  0.16887402  0.83622842  1
  Cr  Cr30  1  0.17047560  0.50322026  0.50275537  1
  Ni  Ni31  1  0.00224482  0.33251641  0.66884189  1
  Fe  Fe32  1  0.17081846  0.49766955  0.83495840  1
  Ni  Ni33  1  0.16855658  0.83578514  0.50075314  1
  Fe  Fe34  1  0.00329285  0.66559128  0.66561576  1
  Cr  Cr35  1  0.16937862  0.83155659  0.83554538  1
  Fe  Fe36  1  0.50018338  0.17204500  0.50312556  1
  Fe  Fe37  1  0.33311759  0.00522343  0.66918881  1
  Ni  Ni38  1  0.49986936  0.16986018  0.83499384  1
  Ni  Ni39  1  0.50166912  0.50070490  0.49991442  1
  Ni  Ni40  1  0.33524910  0.33435568  0.66997314  1
  Fe  Fe41  1  0.50100714  0.49990013  0.83471662  1
  Cr  Cr42  1  0.49637567  0.83464081  0.50212778  1
  Ni  Ni43  1  0.33486599  0.66779678  0.67058657  1
  Cr  Cr44  1  0.50166235  0.83672223  0.83563929  1
  Ni  Ni45  1  0.83538955  0.16953920  0.50315422  1
  Fe  Fe46  1  0.66690006  0.00612100  0.66576061  1
  Cr  Cr47  1  0.83296197  0.16885954  0.83716571  1
  Ni  Ni48  1  0.83587367  0.49726200  0.49797148  1
  Ni  Ni49  1  0.66784778  0.33429695  0.66683513  1
  Cr  Cr50  1  0.83744693  0.50101988  0.83735839  1
  Fe  Fe51  1  0.83823392  0.83363259  0.50030544  1
  Cr  Cr52  1  0.66892714  0.66700994  0.66361289  1
  Cr  Cr53  1  0.83488996  0.83711640  0.83367657  1
" 