1547,Ni34Fe66_7,-242.879559919062, 220.006915532427,Ni34Fe66,"# generated using pymatgen
 data_FeNi2
_symmetry_space_group_name_H-M   'P 1'
_cell_length_a   7.40736549
_cell_length_b   7.40736549
_cell_length_c   10.47559674
_cell_angle_alpha   90.00000000
_cell_angle_beta   90.00000000
_cell_angle_gamma   90.00000000
_symmetry_Int_Tables_number   1
_chemical_formula_structural   FeNi2
_chemical_formula_sum   'Fe18 Ni36'
_cell_volume   574.78618306
_cell_formula_units_Z   18
loop_
 _symmetry_equiv_pos_site_id
 _symmetry_equiv_pos_as_xyz
  1  'x, y, z'
loop_
 _atom_site_type_symbol
 _atom_site_label
 _atom_site_symmetry_multiplicity
 _atom_site_fract_x
 _atom_site_fract_y
 _atom_site_fract_z
 _atom_site_occupancy
  Ni  Ni0  1  1.00382557  0.00440998  0.00478166  1
  Ni  Ni1  1  0.17176417  0.16997142  0.17004715  1
  Ni  Ni2  1  1.00322820  1.00341073  0.33718863  1
  Ni  Ni3  1  1.00303705  0.33634804  0.00424159  1
  Ni  Ni4  1  0.16980628  0.50491669  0.17084232  1
  Fe  Fe5  1  0.00502575  0.33731652  0.33751035  1
  Fe  Fe6  1  0.00509893  0.67000114  0.00493244  1
  Ni  Ni7  1  0.17061021  0.83719633  0.17016014  1
  Ni  Ni8  1  0.00434129  0.67151417  0.33793205  1
  Ni  Ni9  1  0.33651657  1.00329804  0.00408814  1
  Ni  Ni10  1  0.50379598  0.16997735  0.17050763  1
  Ni  Ni11  1  0.33722886  1.00388327  0.33781538  1
  Ni  Ni12  1  0.33799183  0.33814835  1.00378365  1
  Fe  Fe13  1  0.50255647  0.50343629  0.17026178  1
  Ni  Ni14  1  0.33790078  0.33813102  0.33727725  1
  Ni  Ni15  1  0.33797392  0.67063794  0.00445005  1
  Fe  Fe16  1  0.50252225  0.83747240  0.17139353  1
  Ni  Ni17  1  0.33707822  0.67006982  0.33753317  1
  Fe  Fe18  1  0.67014399  0.00538451  1.00399948  1
  Fe  Fe19  1  0.83853403  0.17091875  0.17033489  1
  Ni  Ni20  1  0.67163159  0.00422924  0.33761789  1
  Ni  Ni21  1  0.67105456  0.33780625  1.00380436  1
  Ni  Ni22  1  0.83801420  0.50457756  0.16938499  1
  Fe  Fe23  1  0.67032980  0.33685622  0.33765786  1
  Fe  Fe24  1  0.67061446  0.67010932  1.00325896  1
  Fe  Fe25  1  0.83871562  0.83776922  0.17058433  1
  Fe  Fe26  1  0.67043169  0.67130990  0.33820783  1
  Ni  Ni27  1  0.17065408  0.17006581  0.50414455  1
  Ni  Ni28  1  1.00332284  0.00462705  0.67011493  1
  Fe  Fe29  1  0.17026174  0.17121676  0.83765490  1
  Ni  Ni30  1  0.17034204  0.50499442  0.50345087  1
  Ni  Ni31  1  1.00334074  0.33592725  0.67032233  1
  Ni  Ni32  1  0.17134607  0.50473353  0.83779524  1
  Ni  Ni33  1  0.17112554  0.83702443  0.50412633  1
  Fe  Fe34  1  0.00418365  0.66952272  0.67007159  1
  Fe  Fe35  1  0.17088284  0.83769070  0.83772048  1
  Ni  Ni36  1  0.50457363  0.17007859  0.50443803  1
  Fe  Fe37  1  0.33768569  0.00465629  0.67003765  1
  Ni  Ni38  1  0.50498173  0.17115116  0.83713854  1
  Ni  Ni39  1  0.50422722  0.50432677  0.50351080  1
  Ni  Ni40  1  0.33796567  0.33858106  0.67102350  1
  Ni  Ni41  1  0.50303281  0.50326817  0.83798906  1
  Ni  Ni42  1  0.50343257  0.83768373  0.50426207  1
  Ni  Ni43  1  0.33876624  0.67002726  0.67010268  1
  Fe  Fe44  1  0.50416765  0.83670898  0.83695515  1
  Ni  Ni45  1  0.83685958  0.17086109  0.50349945  1
  Fe  Fe46  1  0.67073066  0.00487758  0.67035850  1
  Ni  Ni47  1  0.83626450  0.16951967  0.83833188  1
  Ni  Ni48  1  0.83751813  0.50385489  0.50533884  1
  Ni  Ni49  1  0.67077696  0.33821295  0.67033145  1
  Fe  Fe50  1  0.83645337  0.50295769  0.83728248  1
  Fe  Fe51  1  0.83751240  0.83765274  0.50428895  1
  Ni  Ni52  1  0.66963019  0.67004410  0.67020516  1
  Ni  Ni53  1  0.83773170  0.83817671  0.83744963  1
" 