8341,Ni34Cr66_0,-226.269639143809, 146.021952637411,Ni34Cr66,"# generated using pymatgen
 data_CrNi2
_symmetry_space_group_name_H-M   'P 1'
_cell_length_a   7.49404677
_cell_length_b   7.49404677
_cell_length_c   10.59818258
_cell_angle_alpha   90.00000000
_cell_angle_beta   90.00000000
_cell_angle_gamma   90.00000000
_symmetry_Int_Tables_number   1
_chemical_formula_structural   CrNi2
_chemical_formula_sum   'Cr18 Ni36'
_cell_volume   595.20174515
_cell_formula_units_Z   18
loop_
 _symmetry_equiv_pos_site_id
 _symmetry_equiv_pos_as_xyz
  1  'x, y, z'
loop_
 _atom_site_type_symbol
 _atom_site_label
 _atom_site_symmetry_multiplicity
 _atom_site_fract_x
 _atom_site_fract_y
 _atom_site_fract_z
 _atom_site_occupancy
  Cr  Cr0  1  0.00080899  -0.00087711  0.99215996  1
  Cr  Cr1  1  0.17099875  0.16452326  0.16675299  1
  Cr  Cr2  1  0.99561410  0.99737441  0.33688905  1
  Ni  Ni3  1  0.99687315  0.33137439  0.99523903  1
  Cr  Cr4  1  0.16303243  0.49503991  0.16732840  1
  Ni  Ni5  1  -0.00073456  0.33331478  0.33555465  1
  Cr  Cr6  1  0.99651534  0.66425060  -0.00098276  1
  Cr  Cr7  1  0.16377078  0.83212039  0.16695214  1
  Ni  Ni8  1  0.99672738  0.66194709  0.33401031  1
  Ni  Ni9  1  0.33539904  0.00044014  0.99406426  1
  Ni  Ni10  1  0.50066421  0.16592621  0.16449796  1
  Ni  Ni11  1  0.33225905  -0.00064647  0.33486030  1
  Cr  Cr12  1  0.33346091  0.33167673  0.99519007  1
  Ni  Ni13  1  0.50063208  0.49678231  0.16349285  1
  Ni  Ni14  1  0.33221821  0.32951454  0.33371627  1
  Cr  Cr15  1  0.33230437  0.66634080  0.99226167  1
  Cr  Cr16  1  0.49820723  0.83654703  0.16399675  1
  Cr  Cr17  1  0.33190738  0.66227599  0.33679891  1
  Ni  Ni18  1  0.66383891  -0.00109432  0.99592715  1
  Cr  Cr19  1  0.83236527  0.16432394  0.16330976  1
  Ni  Ni20  1  0.66192207  -0.00141482  0.33252941  1
  Ni  Ni21  1  0.66537425  0.33140021  0.99710842  1
  Ni  Ni22  1  0.83074204  0.49801084  0.16429922  1
  Cr  Cr23  1  0.66604340  0.33240762  0.33280108  1
  Ni  Ni24  1  0.66317242  0.66379420  -0.00159893  1
  Ni  Ni25  1  0.82826440  0.82943625  0.16510050  1
  Cr  Cr26  1  0.66625257  0.66411403  0.33218424  1
  Ni  Ni27  1  0.16371736  0.16735053  0.49890124  1
  Ni  Ni28  1  0.99778941  0.00059402  0.66479814  1
  Ni  Ni29  1  0.16467540  0.16753596  0.82899664  1
  Ni  Ni30  1  0.16427233  0.49662897  0.49996560  1
  Ni  Ni31  1  -0.00114164  0.33022014  0.66359152  1
  Ni  Ni32  1  0.16517186  0.49774803  0.82695523  1
  Ni  Ni33  1  0.16444370  0.83019934  0.50039570  1
  Ni  Ni34  1  0.00096794  0.66404595  0.66268126  1
  Ni  Ni35  1  0.16633693  0.83169748  0.82733343  1
  Cr  Cr36  1  0.49874552  0.16421307  0.49896396  1
  Cr  Cr37  1  0.32947005  -0.00153442  0.66602010  1
  Ni  Ni38  1  0.49979946  0.16538388  0.83159721  1
  Ni  Ni39  1  0.49763404  0.49777858  0.50228662  1
  Ni  Ni40  1  0.33127248  0.33494179  0.66532728  1
  Ni  Ni41  1  0.49843242  0.49810859  0.82869644  1
  Ni  Ni42  1  0.49641059  0.83054642  0.50071475  1
  Ni  Ni43  1  0.33171060  0.66340624  0.66474350  1
  Ni  Ni44  1  0.49822256  0.83199577  0.82980625  1
  Ni  Ni45  1  0.83262147  0.16733791  0.50226824  1
  Ni  Ni46  1  0.66488316  -0.00020616  0.66606644  1
  Ni  Ni47  1  0.83045536  0.16532379  0.82874749  1
  Ni  Ni48  1  0.83384855  0.49736468  0.50064177  1
  Ni  Ni49  1  0.66522746  0.33171510  0.66544396  1
  Cr  Cr50  1  0.83151433  0.49573799  0.82940483  1
  Cr  Cr51  1  0.82795438  0.83209712  0.50240179  1
  Ni  Ni52  1  0.66092248  0.66287175  0.66390391  1
  Cr  Cr53  1  0.82873340  0.83072032  0.82762884  1
" 