6413,Ni34Fe66_2,-243.048423471796, 223.133189235473,Ni34Fe66,"# generated using pymatgen
 data_FeNi2
_symmetry_space_group_name_H-M   'P 1'
_cell_length_a   7.40880043
_cell_length_b   7.40880043
_cell_length_c   10.47762605
_cell_angle_alpha   90.00000000
_cell_angle_beta   90.00000000
_cell_angle_gamma   90.00000000
_symmetry_Int_Tables_number   1
_chemical_formula_structural   FeNi2
_chemical_formula_sum   'Fe18 Ni36'
_cell_volume   575.12028614
_cell_formula_units_Z   18
loop_
 _symmetry_equiv_pos_site_id
 _symmetry_equiv_pos_as_xyz
  1  'x, y, z'
loop_
 _atom_site_type_symbol
 _atom_site_label
 _atom_site_symmetry_multiplicity
 _atom_site_fract_x
 _atom_site_fract_y
 _atom_site_fract_z
 _atom_site_occupancy
  Fe  Fe0  1  0.00575095  1.00349047  0.00437952  1
  Fe  Fe1  1  0.17121902  0.16922071  0.17128446  1
  Ni  Ni2  1  1.00322117  0.00487553  0.33616698  1
  Ni  Ni3  1  1.00335413  0.33815643  1.00376695  1
  Ni  Ni4  1  0.17106197  0.50454317  0.17049369  1
  Ni  Ni5  1  0.00415247  0.33763261  0.33674640  1
  Ni  Ni6  1  1.00289305  0.66959014  0.00424511  1
  Ni  Ni7  1  0.17070309  0.83467343  0.17108110  1
  Fe  Fe8  1  0.00438680  0.67115442  0.33604418  1
  Ni  Ni9  1  0.33897864  1.00384861  1.00380013  1
  Ni  Ni10  1  0.50534716  0.17021507  0.17189917  1
  Ni  Ni11  1  0.33817905  0.00420649  0.33762378  1
  Ni  Ni12  1  0.33621097  0.33694498  1.00371212  1
  Fe  Fe13  1  0.50371545  0.50442316  0.17089079  1
  Ni  Ni14  1  0.33606001  0.33734237  0.33702136  1
  Ni  Ni15  1  0.33734999  0.67092262  0.00506869  1
  Ni  Ni16  1  0.50379059  0.83841342  0.17000175  1
  Fe  Fe17  1  0.33744677  0.67146534  0.33753794  1
  Fe  Fe18  1  0.67038950  0.00437827  0.00403244  1
  Ni  Ni19  1  0.83598175  0.16995637  0.16999066  1
  Ni  Ni20  1  0.67054055  1.00114654  0.33732394  1
  Fe  Fe21  1  0.66942557  0.33715679  1.00209140  1
  Fe  Fe22  1  0.83733139  0.50446254  0.17010430  1
  Fe  Fe23  1  0.67040209  0.33473095  0.33850468  1
  Fe  Fe24  1  0.67034760  0.67017419  0.00421777  1
  Ni  Ni25  1  0.83752003  0.83878259  0.17057614  1
  Ni  Ni26  1  0.67064535  0.67144936  0.33679988  1
  Ni  Ni27  1  0.16969846  0.17215377  0.50409589  1
  Ni  Ni28  1  1.00299254  0.00451319  0.67125131  1
  Fe  Fe29  1  0.17023096  0.17216185  0.83624592  1
  Ni  Ni30  1  0.17043930  0.50455249  0.50469573  1
  Ni  Ni31  1  1.00298962  0.33739227  0.67114058  1
  Ni  Ni32  1  0.17130820  0.50527565  0.83700146  1
  Fe  Fe33  1  0.17209476  0.83959074  0.50378849  1
  Fe  Fe34  1  0.00494106  0.67074404  0.67209427  1
  Fe  Fe35  1  0.17092312  0.83692866  0.83834992  1
  Ni  Ni36  1  0.50446445  0.16993420  0.50425797  1
  Ni  Ni37  1  0.33788235  1.00331352  0.67046589  1
  Ni  Ni38  1  0.50448755  0.17047157  0.83540399  1
  Ni  Ni39  1  0.50143473  0.50429906  0.50331266  1
  Ni  Ni40  1  0.33727505  0.33804724  0.67098624  1
  Ni  Ni41  1  0.50193508  0.50331962  0.83749367  1
  Ni  Ni42  1  0.50446743  0.83733517  0.50437402  1
  Ni  Ni43  1  0.33812470  0.67068258  0.67066947  1
  Fe  Fe44  1  0.50484707  0.83645515  0.83702397  1
  Ni  Ni45  1  0.83757821  0.16880665  0.50421350  1
  Ni  Ni46  1  0.67100325  1.00337618  0.67035456  1
  Ni  Ni47  1  0.83623488  0.16942426  0.83731796  1
  Fe  Fe48  1  0.83630773  0.50206322  0.50407880  1
  Ni  Ni49  1  0.67120236  0.33754335  0.67004567  1
  Ni  Ni50  1  0.83832093  0.50435650  0.83689219  1
  Fe  Fe51  1  0.83699001  0.83811297  0.50352427  1
  Fe  Fe52  1  0.66987381  0.66999354  0.67026007  1
  Ni  Ni53  1  0.83781835  0.83806701  0.83752729  1
" 