1817,Ni34Fe33Cr32_14,-227.134806233952, 185.286108809112,Ni34Fe33Cr32,"# generated using pymatgen
 data_CrFeNi
_symmetry_space_group_name_H-M   'P 1'
_cell_length_a   7.47161713
_cell_length_b   7.47161713
_cell_length_c   10.56646228
_cell_angle_alpha   90.00000000
_cell_angle_beta   90.00000000
_cell_angle_gamma   90.00000000
_symmetry_Int_Tables_number   1
_chemical_formula_structural   CrFeNi
_chemical_formula_sum   'Cr18 Fe18 Ni18'
_cell_volume   589.87341713
_cell_formula_units_Z   18
loop_
 _symmetry_equiv_pos_site_id
 _symmetry_equiv_pos_as_xyz
  1  'x, y, z'
loop_
 _atom_site_type_symbol
 _atom_site_label
 _atom_site_symmetry_multiplicity
 _atom_site_fract_x
 _atom_site_fract_y
 _atom_site_fract_z
 _atom_site_occupancy
  Cr  Cr0  1  0.00024614  0.00142777  0.00221355  1
  Ni  Ni1  1  0.16838122  0.16814977  0.16686655  1
  Cr  Cr2  1  0.00102372  0.99812612  0.33392521  1
  Ni  Ni3  1  0.99857530  0.33187679  0.99933813  1
  Cr  Cr4  1  0.16272080  0.49950887  0.16813490  1
  Ni  Ni5  1  0.00001730  0.32941006  0.33247523  1
  Cr  Cr6  1  0.99901191  0.66597366  0.99675036  1
  Fe  Fe7  1  0.17007367  0.83376749  0.16703560  1
  Fe  Fe8  1  0.99737371  0.66478438  0.33423665  1
  Fe  Fe9  1  0.33253065  0.99949683  0.00035684  1
  Ni  Ni10  1  0.49668028  0.16779608  0.16720811  1
  Fe  Fe11  1  0.33385618  0.00268389  0.33306857  1
  Cr  Cr12  1  0.33311079  0.33594184  0.99919707  1
  Ni  Ni13  1  0.50016626  0.50023240  0.16935524  1
  Ni  Ni14  1  0.33368441  0.33464737  0.33283885  1
  Cr  Cr15  1  0.33572305  0.66441410  0.99749436  1
  Cr  Cr16  1  0.50112490  0.83377891  0.16623307  1
  Fe  Fe17  1  0.33433027  0.66502650  0.33486861  1
  Cr  Cr18  1  0.66914845  -0.00028147  0.99902010  1
  Fe  Fe19  1  0.83286148  0.17005387  0.16831098  1
  Cr  Cr20  1  0.66967717  0.00021053  0.33603757  1
  Cr  Cr21  1  0.66560932  0.33596050  0.00280567  1
  Fe  Fe22  1  0.83094098  0.49708017  0.16852454  1
  Ni  Ni23  1  0.66389267  0.33508733  0.33166654  1
  Ni  Ni24  1  0.66533979  0.66526222  0.99729778  1
  Cr  Cr25  1  0.83322993  0.82621540  0.16629503  1
  Ni  Ni26  1  0.66351227  0.66487353  0.33366797  1
  Fe  Fe27  1  0.16497521  0.16862107  0.49827065  1
  Cr  Cr28  1  0.99835980  0.99958665  0.66344948  1
  Cr  Cr29  1  0.16643218  0.16608351  0.83272864  1
  Cr  Cr30  1  0.16491244  0.50013196  0.50057593  1
  Ni  Ni31  1  0.99734709  0.33019601  0.66696602  1
  Fe  Fe32  1  0.16295038  0.49992464  0.83017063  1
  Fe  Fe33  1  0.16812568  0.83207023  0.50105347  1
  Fe  Fe34  1  0.99860278  0.66409703  0.66831475  1
  Ni  Ni35  1  0.16768861  0.83028051  0.83211740  1
  Cr  Cr36  1  0.49961842  0.16771020  0.50117043  1
  Fe  Fe37  1  0.33346982  0.99703730  0.66568848  1
  Cr  Cr38  1  0.50192167  0.16442122  0.83165565  1
  Ni  Ni39  1  0.49982557  0.50126599  0.49894146  1
  Cr  Cr40  1  0.33357246  0.33815239  0.66630537  1
  Fe  Fe41  1  0.50318689  0.50165017  0.83024623  1
  Fe  Fe42  1  0.50173955  0.82996890  0.50049058  1
  Ni  Ni43  1  0.33510476  0.66878994  0.66666038  1
  Fe  Fe44  1  0.50023367  0.83254082  0.83144193  1
  Ni  Ni45  1  0.83217415  0.16710260  0.50059688  1
  Fe  Fe46  1  0.66727204  0.99952876  0.66525377  1
  Ni  Ni47  1  0.83223539  0.16901300  0.83159644  1
  Cr  Cr48  1  0.83162591  0.49916037  0.49807309  1
  Ni  Ni49  1  0.66793320  0.33538302  0.66534863  1
  Fe  Fe50  1  0.83275773  0.49836379  0.83103650  1
  Ni  Ni51  1  0.83283604  0.83006533  0.50226950  1
  Ni  Ni52  1  0.66360996  0.66745850  0.66729970  1
  Fe  Fe53  1  0.83213320  0.83337840  0.83054218  1
" 