63,Ni34Cr66_14,-226.294406619574, 149.334996726345,Ni34Cr66,"# generated using pymatgen
 data_CrNi2
_symmetry_space_group_name_H-M   'P 1'
_cell_length_a   7.49006885
_cell_length_b   7.49006885
_cell_length_c   10.59255696
_cell_angle_alpha   90.00000000
_cell_angle_beta   90.00000000
_cell_angle_gamma   90.00000000
_symmetry_Int_Tables_number   1
_chemical_formula_structural   CrNi2
_chemical_formula_sum   'Cr18 Ni36'
_cell_volume   594.25443011
_cell_formula_units_Z   18
loop_
 _symmetry_equiv_pos_site_id
 _symmetry_equiv_pos_as_xyz
  1  'x, y, z'
loop_
 _atom_site_type_symbol
 _atom_site_label
 _atom_site_symmetry_multiplicity
 _atom_site_fract_x
 _atom_site_fract_y
 _atom_site_fract_z
 _atom_site_occupancy
  Cr  Cr0  1  0.99764079  0.99678964  -0.00147099  1
  Cr  Cr1  1  0.16724024  0.16487696  0.16230609  1
  Cr  Cr2  1  0.99742114  0.99731247  0.33176898  1
  Ni  Ni3  1  0.99586983  0.33152207  0.99575430  1
  Cr  Cr4  1  0.16584291  0.49899593  0.16601217  1
  Cr  Cr5  1  0.99694925  0.32995063  0.33373163  1
  Ni  Ni6  1  0.99608941  0.66659612  0.99783505  1
  Ni  Ni7  1  0.16553000  0.83002599  0.16469127  1
  Ni  Ni8  1  -0.00055279  0.66564727  0.33052292  1
  Ni  Ni9  1  0.33454735  0.99681051  0.99762501  1
  Ni  Ni10  1  0.50018758  0.16452024  0.16502622  1
  Cr  Cr11  1  0.33260940  0.99730358  0.33116778  1
  Cr  Cr12  1  0.33444112  0.33141161  0.99640632  1
  Ni  Ni13  1  0.49969132  0.49940746  0.16782629  1
  Ni  Ni14  1  0.33430117  0.33263581  0.33319865  1
  Cr  Cr15  1  0.33396991  0.66832302  0.99772038  1
  Ni  Ni16  1  0.49994397  0.83144522  0.16439820  1
  Ni  Ni17  1  0.33292084  0.66442108  0.33119657  1
  Ni  Ni18  1  0.66394120  0.99691794  0.99826281  1
  Ni  Ni19  1  0.82847081  0.16380925  0.16414018  1
  Cr  Cr20  1  0.66526691  -0.00062259  0.33224038  1
  Cr  Cr21  1  0.66561537  0.33278639  0.99737363  1
  Cr  Cr22  1  0.83055622  0.49976649  0.16452691  1
  Ni  Ni23  1  0.66250315  0.33122846  0.33073213  1
  Ni  Ni24  1  0.66571425  0.66760917  0.99732302  1
  Ni  Ni25  1  0.82993843  0.83078404  0.16441972  1
  Ni  Ni26  1  0.66306388  0.66558999  0.32964007  1
  Ni  Ni27  1  0.16578915  0.16830708  0.50096653  1
  Ni  Ni28  1  0.99696108  -0.00000578  0.66633424  1
  Ni  Ni29  1  0.16462564  0.16372071  0.83094010  1
  Ni  Ni30  1  0.16606447  0.49764765  0.49912618  1
  Ni  Ni31  1  -0.00066919  0.33060164  0.66546719  1
  Cr  Cr32  1  0.16361633  0.49771847  0.83006416  1
  Cr  Cr33  1  0.16527647  0.82892013  0.49950801  1
  Ni  Ni34  1  -0.00127913  0.66516366  0.66714288  1
  Ni  Ni35  1  0.16421414  0.83295122  0.83143740  1
  Ni  Ni36  1  0.49841945  0.16529220  0.49832915  1
  Cr  Cr37  1  0.33293241  0.99816264  0.66607519  1
  Ni  Ni38  1  0.49853690  0.16252079  0.83206102  1
  Cr  Cr39  1  0.49715208  0.50041933  0.49770745  1
  Ni  Ni40  1  0.33074117  0.33198901  0.66484569  1
  Ni  Ni41  1  0.50027414  0.50042977  0.82984195  1
  Ni  Ni42  1  0.49942555  0.83121478  0.49954705  1
  Ni  Ni43  1  0.33273053  0.66444597  0.66588297  1
  Ni  Ni44  1  0.50078236  0.83262595  0.83131874  1
  Ni  Ni45  1  0.83100471  0.16524677  0.50063962  1
  Ni  Ni46  1  0.66584281  0.99796391  0.66591235  1
  Ni  Ni47  1  0.83217981  0.16339704  0.83104009  1
  Cr  Cr48  1  0.83209746  0.50055572  0.49875752  1
  Cr  Cr49  1  0.66510979  0.33088715  0.66703947  1
  Ni  Ni50  1  0.83191682  0.50074330  0.83193359  1
  Cr  Cr51  1  0.82899183  0.83120729  0.50120364  1
  Ni  Ni52  1  0.66403570  0.66742923  0.66856834  1
  Ni  Ni53  1  0.83052753  0.83159321  0.83094743  1
" 