3311,Ni34Fe33Cr32_9,-226.923752326246, 182.076753553021,Ni34Fe33Cr32,"# generated using pymatgen
 data_CrFeNi
_symmetry_space_group_name_H-M   'P 1'
_cell_length_a   7.47116943
_cell_length_b   7.47116943
_cell_length_c   10.56582914
_cell_angle_alpha   90.00000000
_cell_angle_beta   90.00000000
_cell_angle_gamma   90.00000000
_symmetry_Int_Tables_number   1
_chemical_formula_structural   CrFeNi
_chemical_formula_sum   'Cr18 Fe18 Ni18'
_cell_volume   589.76738822
_cell_formula_units_Z   18
loop_
 _symmetry_equiv_pos_site_id
 _symmetry_equiv_pos_as_xyz
  1  'x, y, z'
loop_
 _atom_site_type_symbol
 _atom_site_label
 _atom_site_symmetry_multiplicity
 _atom_site_fract_x
 _atom_site_fract_y
 _atom_site_fract_z
 _atom_site_occupancy
  Cr  Cr0  1  0.99961161  0.99945518  0.99920195  1
  Ni  Ni1  1  0.17037660  0.16797860  0.16311239  1
  Cr  Cr2  1  0.00156424  0.00169165  0.33237779  1
  Fe  Fe3  1  0.00089923  0.33102786  0.99858864  1
  Fe  Fe4  1  0.17013334  0.49983925  0.16767990  1
  Cr  Cr5  1  0.00162063  0.33253435  0.33234385  1
  Cr  Cr6  1  0.00213626  0.66502909  0.00016059  1
  Ni  Ni7  1  0.17036516  0.83413097  0.16840425  1
  Fe  Fe8  1  0.99898665  0.66493985  0.33267940  1
  Ni  Ni9  1  0.33376956  -0.00016258  0.99946283  1
  Cr  Cr10  1  0.50000552  0.16788364  0.16495520  1
  Fe  Fe11  1  0.33519903  -0.00013147  0.33033462  1
  Fe  Fe12  1  0.33276977  0.33214399  0.99679812  1
  Fe  Fe13  1  0.49712070  0.50144120  0.16812790  1
  Fe  Fe14  1  0.33513637  0.33525471  0.33317894  1
  Cr  Cr15  1  0.33383450  0.66738756  0.99964737  1
  Ni  Ni16  1  0.49753193  0.83410158  0.16585901  1
  Fe  Fe17  1  0.33443794  0.66481327  0.33236522  1
  Ni  Ni18  1  0.66446258  0.00100633  0.99908758  1
  Fe  Fe19  1  0.83221535  0.16503636  0.16505744  1
  Ni  Ni20  1  0.66430959  0.99882802  0.33055953  1
  Fe  Fe21  1  0.66518321  0.33190108  0.99702926  1
  Cr  Cr22  1  0.83072432  0.49721375  0.16420634  1
  Ni  Ni23  1  0.66466592  0.33511434  0.33196083  1
  Cr  Cr24  1  0.66337472  0.66803117  0.99600720  1
  Cr  Cr25  1  0.83057990  0.83062245  0.16816949  1
  Ni  Ni26  1  0.66061383  0.66517724  0.33319484  1
  Cr  Cr27  1  0.17149710  0.16705420  0.50292742  1
  Fe  Fe28  1  0.99884551  0.99960818  0.67096738  1
  Fe  Fe29  1  0.16683049  0.16619902  0.83428793  1
  Ni  Ni30  1  0.17002284  0.50104707  0.49969363  1
  Cr  Cr31  1  -0.00025181  0.33232645  0.66669341  1
  Fe  Fe32  1  0.16633863  0.50025829  0.83109844  1
  Cr  Cr33  1  0.16596368  0.83046268  0.50042238  1
  Ni  Ni34  1  0.00220235  0.66572303  0.66779449  1
  Ni  Ni35  1  0.16691437  0.83167085  0.83199889  1
  Cr  Cr36  1  0.50051972  0.16927178  0.49976591  1
  Cr  Cr37  1  0.33490093  0.99888421  0.66941680  1
  Fe  Fe38  1  0.50040455  0.16582967  0.83364432  1
  Ni  Ni39  1  0.49801898  0.49867353  0.50026857  1
  Ni  Ni40  1  0.33486029  0.33718687  0.66732596  1
  Fe  Fe41  1  0.49941481  0.49889346  0.83032102  1
  Cr  Cr42  1  0.50050839  0.83240756  0.49995359  1
  Ni  Ni43  1  0.33249197  0.66401557  0.66714940  1
  Fe  Fe44  1  0.50036838  0.83603071  0.83302277  1
  Cr  Cr45  1  0.82896014  0.16507300  0.49957173  1
  Ni  Ni46  1  0.66772546  0.00042114  0.66968271  1
  Ni  Ni47  1  0.82965913  0.16725409  0.83507784  1
  Cr  Cr48  1  0.83047107  0.50187645  0.50178044  1
  Ni  Ni49  1  0.66429266  0.33230467  0.66841516  1
  Fe  Fe50  1  0.83347786  0.50040496  0.83171925  1
  Cr  Cr51  1  0.83276594  0.83179569  0.50257992  1
  Fe  Fe52  1  0.66305167  0.66464179  0.66926254  1
  Ni  Ni53  1  0.83322060  0.83349987  0.82971177  1
" 