5869,Ni34Fe46Cr18_7,-231.453652039561, 199.136882101861,Ni34Fe46Cr18,"# generated using pymatgen
 data_Cr11Fe25Ni18
_symmetry_space_group_name_H-M   'P 1'
_cell_length_a   7.44019941
_cell_length_b   7.44019941
_cell_length_c   10.52203092
_cell_angle_alpha   90.00000000
_cell_angle_beta   90.00000000
_cell_angle_gamma   90.00000000
_symmetry_Int_Tables_number   1
_chemical_formula_structural   Cr11Fe25Ni18
_chemical_formula_sum   'Cr11 Fe25 Ni18'
_cell_volume   582.46351270
_cell_formula_units_Z   1
loop_
 _symmetry_equiv_pos_site_id
 _symmetry_equiv_pos_as_xyz
  1  'x, y, z'
loop_
 _atom_site_type_symbol
 _atom_site_label
 _atom_site_symmetry_multiplicity
 _atom_site_fract_x
 _atom_site_fract_y
 _atom_site_fract_z
 _atom_site_occupancy
  Cr  Cr0  1  0.00315418  1.00106286  0.00445843  1
  Ni  Ni1  1  0.16764721  0.16663067  0.16989363  1
  Fe  Fe2  1  1.00125665  1.00018831  0.33452580  1
  Cr  Cr3  1  1.00055009  0.33375897  1.00172801  1
  Cr  Cr4  1  0.16872905  0.50296629  0.16755190  1
  Cr  Cr5  1  1.00130259  0.33172849  0.33482996  1
  Fe  Fe6  1  1.00074598  0.66908793  1.00115960  1
  Ni  Ni7  1  0.16682781  0.83564370  0.16803430  1
  Fe  Fe8  1  0.99892831  0.67121903  0.33600039  1
  Fe  Fe9  1  0.33438985  1.00104655  1.00145807  1
  Cr  Cr10  1  0.50272584  0.16916496  0.16793956  1
  Fe  Fe11  1  0.33353820  0.00291564  0.33637516  1
  Cr  Cr12  1  0.33643683  0.33493391  1.00128345  1
  Fe  Fe13  1  0.50502138  0.50226878  0.16741453  1
  Fe  Fe14  1  0.33632862  0.33375873  0.33675501  1
  Ni  Ni15  1  0.33621142  0.66973295  1.00097244  1
  Cr  Cr16  1  0.50276206  0.83359096  0.16660874  1
  Cr  Cr17  1  0.33681290  0.66919804  0.33697627  1
  Fe  Fe18  1  0.66858042  1.00160350  0.00229219  1
  Ni  Ni19  1  0.83476779  0.16804710  0.16918039  1
  Fe  Fe20  1  0.67061642  1.00088288  0.33685683  1
  Ni  Ni21  1  0.66821724  0.33735187  0.00287131  1
  Fe  Fe22  1  0.83233617  0.50333939  0.16818889  1
  Fe  Fe23  1  0.66812895  0.33609331  0.33570565  1
  Ni  Ni24  1  0.66854669  0.66700739  0.00254771  1
  Ni  Ni25  1  0.83552383  0.83416724  0.16869464  1
  Ni  Ni26  1  0.66967615  0.66864197  0.33554814  1
  Ni  Ni27  1  0.16857364  0.16937865  0.50207988  1
  Fe  Fe28  1  0.00276665  1.00150270  0.66752179  1
  Ni  Ni29  1  0.16976147  0.16914057  0.83344087  1
  Fe  Fe30  1  0.16819028  0.50208775  0.50376719  1
  Fe  Fe31  1  0.00316211  0.33614521  0.66751358  1
  Fe  Fe32  1  0.16949330  0.50328687  0.83332820  1
  Fe  Fe33  1  0.16733678  0.83620116  0.50255318  1
  Ni  Ni34  1  0.00353765  0.66987037  0.66857763  1
  Fe  Fe35  1  0.16837639  0.83381259  0.83479766  1
  Fe  Fe36  1  0.50235650  0.16791219  0.50214663  1
  Fe  Fe37  1  0.33432376  0.00261939  0.66757505  1
  Fe  Fe38  1  0.50095473  0.17046690  0.83441316  1
  Fe  Fe39  1  0.50226503  0.50045165  0.50270198  1
  Ni  Ni40  1  0.33506521  0.33439509  0.66811757  1
  Ni  Ni41  1  0.50114956  0.50169614  0.83601786  1
  Ni  Ni42  1  0.50268629  0.83507940  0.50182103  1
  Ni  Ni43  1  0.33266006  0.66765969  0.66770852  1
  Cr  Cr44  1  0.50136762  0.83434819  0.83678448  1
  Ni  Ni45  1  0.83505105  0.16779220  0.50269199  1
  Fe  Fe46  1  0.66832076  0.00284395  0.66625591  1
  Cr  Cr47  1  0.83418154  0.16931464  0.83329756  1
  Fe  Fe48  1  0.83495660  0.50206388  0.50199355  1
  Ni  Ni49  1  0.66729611  0.33363080  0.66756950  1
  Fe  Fe50  1  0.83442277  0.50279454  0.83523032  1
  Ni  Ni51  1  0.83424983  0.83566783  0.50133005  1
  Cr  Cr52  1  0.66858258  0.66796706  0.66717251  1
  Fe  Fe53  1  0.83657949  0.83326952  0.83517171  1
" 