2192,Ni34Fe26Cr38_11,-224.341887370048, 182.667861944834,Ni34Fe26Cr38,"# generated using pymatgen
 data_Cr11Fe7Ni9
_symmetry_space_group_name_H-M   'P 1'
_cell_length_a   7.48181154
_cell_length_b   7.48181154
_cell_length_c   10.58087935
_cell_angle_alpha   90.00000000
_cell_angle_beta   90.00000000
_cell_angle_gamma   90.00000000
_symmetry_Int_Tables_number   1
_chemical_formula_structural   Cr11Fe7Ni9
_chemical_formula_sum   'Cr22 Fe14 Ni18'
_cell_volume   592.29121436
_cell_formula_units_Z   2
loop_
 _symmetry_equiv_pos_site_id
 _symmetry_equiv_pos_as_xyz
  1  'x, y, z'
loop_
 _atom_site_type_symbol
 _atom_site_label
 _atom_site_symmetry_multiplicity
 _atom_site_fract_x
 _atom_site_fract_y
 _atom_site_fract_z
 _atom_site_occupancy
  Fe  Fe0  1  0.00201235  0.99717679  0.00078849  1
  Cr  Cr1  1  0.16566134  0.16547649  0.16284789  1
  Cr  Cr2  1  0.00031453  0.99737192  0.32941570  1
  Ni  Ni3  1  0.99717986  0.33326676  -0.00080583  1
  Cr  Cr4  1  0.16623892  0.50192840  0.16568448  1
  Fe  Fe5  1  0.99770477  0.33493885  0.33277319  1
  Ni  Ni6  1  0.99890087  0.66894921  0.00075514  1
  Ni  Ni7  1  0.16442760  0.83299640  0.16317484  1
  Ni  Ni8  1  0.99445076  0.66908922  0.33173062  1
  Ni  Ni9  1  0.33305811  0.99632419  0.00073822  1
  Ni  Ni10  1  0.50105883  0.16282904  0.16449308  1
  Fe  Fe11  1  0.33576676  0.99744940  0.32922805  1
  Ni  Ni12  1  0.33499920  0.33078464  0.00124163  1
  Ni  Ni13  1  0.50060504  0.49921284  0.16140409  1
  Cr  Cr14  1  0.33470683  0.32854818  0.32986533  1
  Ni  Ni15  1  0.33210403  0.66981360  0.00090292  1
  Ni  Ni16  1  0.50104025  0.83341437  0.16354087  1
  Cr  Cr17  1  0.33488846  0.66877517  0.32525223  1
  Fe  Fe18  1  0.66327848  0.99783092  0.00313230  1
  Fe  Fe19  1  0.82989813  0.16295342  0.16225966  1
  Fe  Fe20  1  0.66280187  0.99482532  0.32945184  1
  Ni  Ni21  1  0.66502811  0.33159338  0.00196792  1
  Cr  Cr22  1  0.83304766  0.50066546  0.16456946  1
  Cr  Cr23  1  0.66407835  0.33315651  0.32924869  1
  Fe  Fe24  1  0.66377623  0.66572044  0.00154065  1
  Ni  Ni25  1  0.83107007  0.83351860  0.16590807  1
  Ni  Ni26  1  0.66773340  0.66757963  0.33122431  1
  Ni  Ni27  1  0.16747626  0.16430668  0.49957718  1
  Cr  Cr28  1  0.00126637  0.99802909  0.66988920  1
  Fe  Fe29  1  0.16804516  0.16559593  0.83702197  1
  Cr  Cr30  1  0.16543566  0.49874103  0.49585897  1
  Cr  Cr31  1  -0.00019489  0.33179265  0.66584208  1
  Cr  Cr32  1  0.16889331  0.50013434  0.83462097  1
  Cr  Cr33  1  0.16722145  0.83189323  0.49664265  1
  Cr  Cr34  1  0.99592154  0.66628837  0.66535139  1
  Ni  Ni35  1  0.16657505  0.83234224  0.83698275  1
  Fe  Fe36  1  0.49603921  0.16481073  0.49721571  1
  Cr  Cr37  1  0.33155469  0.99849900  0.66587334  1
  Cr  Cr38  1  0.49935654  0.16552707  0.83402250  1
  Cr  Cr39  1  0.49868088  0.50233245  0.50127795  1
  Ni  Ni40  1  0.33212489  0.32974133  0.66504159  1
  Cr  Cr41  1  0.49937496  0.50042868  0.83461973  1
  Fe  Fe42  1  0.50148255  0.83227961  0.49573249  1
  Fe  Fe43  1  0.33367240  0.66705757  0.66824970  1
  Fe  Fe44  1  0.49661554  0.83148237  0.83514269  1
  Cr  Cr45  1  0.83193833  0.16264415  0.49532165  1
  Cr  Cr46  1  0.66420405  0.99565309  0.66222576  1
  Cr  Cr47  1  0.83171269  0.16450485  0.83943873  1
  Ni  Ni48  1  0.82968460  0.50207362  0.49840387  1
  Cr  Cr49  1  0.66640855  0.33484778  0.66631456  1
  Fe  Fe50  1  0.83244956  0.50099606  0.83643458  1
  Fe  Fe51  1  0.83015990  0.82858743  0.49619394  1
  Ni  Ni52  1  0.66468816  0.66746963  0.66570941  1
  Cr  Cr53  1  0.83010247  0.83247254  0.83538152  1
" 