1961,Ni35Fe9Cr54_13,-217.58133998733, 152.961707738669,Ni35Fe9Cr54,"# generated using pymatgen
 data_Cr30Fe5Ni19
_symmetry_space_group_name_H-M   'P 1'
_cell_length_a   7.52140036
_cell_length_b   7.52140036
_cell_length_c   10.63686640
_cell_angle_alpha   90.00000000
_cell_angle_beta   90.00000000
_cell_angle_gamma   90.00000000
_symmetry_Int_Tables_number   1
_chemical_formula_structural   Cr30Fe5Ni19
_chemical_formula_sum   'Cr30 Fe5 Ni19'
_cell_volume   601.74309898
_cell_formula_units_Z   1
loop_
 _symmetry_equiv_pos_site_id
 _symmetry_equiv_pos_as_xyz
  1  'x, y, z'
loop_
 _atom_site_type_symbol
 _atom_site_label
 _atom_site_symmetry_multiplicity
 _atom_site_fract_x
 _atom_site_fract_y
 _atom_site_fract_z
 _atom_site_occupancy
  Ni  Ni0  1  -0.00335788  -0.00286845  -0.00232418  1
  Ni  Ni1  1  0.16330026  0.16237363  0.16426718  1
  Ni  Ni2  1  -0.00172872  0.99635096  0.32890561  1
  Cr  Cr3  1  0.99588608  0.32858132  -0.00070444  1
  Ni  Ni4  1  0.16432974  0.49776322  0.16670658  1
  Cr  Cr5  1  -0.00119456  0.33090393  0.32881005  1
  Cr  Cr6  1  -0.00317496  0.66096131  0.00003959  1
  Ni  Ni7  1  0.16081647  0.82934810  0.16484789  1
  Ni  Ni8  1  -0.00138226  0.66309648  0.32795807  1
  Cr  Cr9  1  0.32732723  0.99593985  -0.00236464  1
  Ni  Ni10  1  0.49570140  0.16517698  0.16371505  1
  Cr  Cr11  1  0.33069613  0.99611809  0.32626295  1
  Cr  Cr12  1  0.32680302  0.32835198  0.00001414  1
  Cr  Cr13  1  0.49678649  0.49423374  0.16279658  1
  Ni  Ni14  1  0.32899873  0.33089524  0.32854211  1
  Cr  Cr15  1  0.32994631  0.66520388  -0.00306273  1
  Cr  Cr16  1  0.49759749  0.82943064  0.16321748  1
  Fe  Fe17  1  0.32697329  0.66150139  0.33023628  1
  Cr  Cr18  1  0.66100413  0.99570694  0.99524243  1
  Cr  Cr19  1  0.82808357  0.16071970  0.16381802  1
  Fe  Fe20  1  0.66371014  -0.00248876  0.33106746  1
  Ni  Ni21  1  0.66428091  0.33002408  -0.00207593  1
  Fe  Fe22  1  0.83019811  0.49634193  0.16341250  1
  Cr  Cr23  1  0.66361041  0.32994111  0.33083966  1
  Ni  Ni24  1  0.66327120  0.66108210  -0.00324648  1
  Cr  Cr25  1  0.83179792  0.82889720  0.16508243  1
  Cr  Cr26  1  0.66226061  0.66377087  0.33117335  1
  Cr  Cr27  1  0.16246876  0.16401604  0.49757246  1
  Ni  Ni28  1  0.99451622  -0.00344239  0.66290975  1
  Cr  Cr29  1  0.16086079  0.16241751  0.82804994  1
  Ni  Ni30  1  0.16688437  0.49825867  0.49599061  1
  Cr  Cr31  1  0.99426036  0.32976443  0.66237227  1
  Cr  Cr32  1  0.16526098  0.49702065  0.82532614  1
  Cr  Cr33  1  0.16185699  0.82763175  0.49612551  1
  Ni  Ni34  1  -0.00174526  0.66329970  0.66126259  1
  Cr  Cr35  1  0.16098046  0.82851925  0.82772156  1
  Cr  Cr36  1  0.49621865  0.16532178  0.49439804  1
  Cr  Cr37  1  0.33154676  0.99413433  0.66541565  1
  Cr  Cr38  1  0.49720974  0.16830852  0.83102489  1
  Fe  Fe39  1  0.49426334  0.49644900  0.49665929  1
  Ni  Ni40  1  0.33147139  0.33261572  0.65963034  1
  Cr  Cr41  1  0.49566031  0.49584793  0.82890397  1
  Ni  Ni42  1  0.49520955  0.82750832  0.49544452  1
  Ni  Ni43  1  0.33029212  0.66159279  0.65895519  1
  Fe  Fe44  1  0.49703427  0.82818308  0.82919110  1
  Ni  Ni45  1  0.82893021  0.16208724  0.49690550  1
  Cr  Cr46  1  0.66299347  -0.00298062  0.66054290  1
  Ni  Ni47  1  0.82794782  0.16206337  0.82886249  1
  Cr  Cr48  1  0.83203102  0.49737675  0.49694807  1
  Ni  Ni49  1  0.66242535  0.32930034  0.66213585  1
  Cr  Cr50  1  0.82712070  0.49552128  0.83259067  1
  Cr  Cr51  1  0.83246377  0.83255742  0.49360878  1
  Cr  Cr52  1  0.66186890  0.66371094  0.66273725  1
  Cr  Cr53  1  0.83231451  0.83044551  0.83042442  1
" 