2858,Ni35Fe15Cr49_13,-220.214918769429, 158.393408650122,Ni35Fe15Cr49,"# generated using pymatgen
 data_Cr27Fe8Ni19
_symmetry_space_group_name_H-M   'P 1'
_cell_length_a   7.51191494
_cell_length_b   7.51191494
_cell_length_c   10.62345199
_cell_angle_alpha   90.00000000
_cell_angle_beta   90.00000000
_cell_angle_gamma   90.00000000
_symmetry_Int_Tables_number   1
_chemical_formula_structural   Cr27Fe8Ni19
_chemical_formula_sum   'Cr27 Fe8 Ni19'
_cell_volume   599.46934894
_cell_formula_units_Z   1
loop_
 _symmetry_equiv_pos_site_id
 _symmetry_equiv_pos_as_xyz
  1  'x, y, z'
loop_
 _atom_site_type_symbol
 _atom_site_label
 _atom_site_symmetry_multiplicity
 _atom_site_fract_x
 _atom_site_fract_y
 _atom_site_fract_z
 _atom_site_occupancy
  Ni  Ni0  1  0.99528893  0.99692172  -0.00192637  1
  Cr  Cr1  1  0.16213920  0.16320977  0.16389081  1
  Ni  Ni2  1  0.99670423  -0.00233819  0.33037572  1
  Ni  Ni3  1  -0.00268809  0.33059017  0.99420711  1
  Fe  Fe4  1  0.16275403  0.49681250  0.16471807  1
  Ni  Ni5  1  0.00173773  0.32898376  0.33156893  1
  Fe  Fe6  1  0.99517666  0.66349180  -0.00244093  1
  Ni  Ni7  1  0.16251950  0.83156890  0.16259253  1
  Cr  Cr8  1  -0.00125826  0.66563441  0.32956580  1
  Fe  Fe9  1  0.33142317  0.99423208  -0.00171209  1
  Cr  Cr10  1  0.49587202  0.16135826  0.16390590  1
  Cr  Cr11  1  0.33020823  0.99639894  0.33151267  1
  Cr  Cr12  1  0.32787511  0.33161626  -0.00187841  1
  Cr  Cr13  1  0.49768938  0.49944378  0.16603831  1
  Ni  Ni14  1  0.32734399  0.33164060  0.33333538  1
  Cr  Cr15  1  0.32990609  0.66567607  -0.00178900  1
  Ni  Ni16  1  0.49861705  0.83006663  0.16205025  1
  Cr  Cr17  1  0.33102167  0.66266391  0.33115237  1
  Ni  Ni18  1  0.66511473  0.99295518  0.99646428  1
  Cr  Cr19  1  0.83299105  0.16162001  0.16444940  1
  Ni  Ni20  1  0.66417790  0.99339149  0.33015934  1
  Cr  Cr21  1  0.66671724  0.32885374  0.99366550  1
  Cr  Cr22  1  0.83097399  0.49924833  0.16399152  1
  Cr  Cr23  1  0.66154312  0.32945302  0.33246987  1
  Ni  Ni24  1  0.66383578  0.66818575  0.99672917  1
  Fe  Fe25  1  0.82879713  0.83190635  0.16333697  1
  Ni  Ni26  1  0.66122653  0.66752950  0.33041798  1
  Ni  Ni27  1  0.16522259  0.16457073  0.49474780  1
  Cr  Cr28  1  0.99630284  -0.00209913  0.66157598  1
  Cr  Cr29  1  0.16263438  0.16249040  0.83232667  1
  Ni  Ni30  1  0.16637454  0.49337331  0.49507578  1
  Cr  Cr31  1  0.99674158  0.33058005  0.66582426  1
  Fe  Fe32  1  0.16069202  0.49680703  0.83133542  1
  Fe  Fe33  1  0.16520035  0.83123713  0.49619091  1
  Cr  Cr34  1  -0.00048536  0.66248775  0.66429773  1
  Cr  Cr35  1  0.16583479  0.83187515  0.83011754  1
  Fe  Fe36  1  0.49539182  0.16266521  0.49662788  1
  Fe  Fe37  1  0.33309978  0.99613986  0.66131247  1
  Cr  Cr38  1  0.49713414  0.15897745  0.83030644  1
  Ni  Ni39  1  0.49423673  0.49849738  0.49468861  1
  Cr  Cr40  1  0.32995400  0.33096410  0.66081873  1
  Cr  Cr41  1  0.49903391  0.49999802  0.83081045  1
  Ni  Ni42  1  0.49716858  0.83089203  0.49760898  1
  Cr  Cr43  1  0.32986132  0.66491895  0.66153396  1
  Ni  Ni44  1  0.49782758  0.83202737  0.83140179  1
  Cr  Cr45  1  0.83221247  0.16199184  0.49514570  1
  Ni  Ni46  1  0.66062337  0.99685355  0.66431678  1
  Ni  Ni47  1  0.83143738  0.16451047  0.83214326  1
  Cr  Cr48  1  0.82949807  0.49798069  0.49565365  1
  Cr  Cr49  1  0.66432234  0.32770615  0.66508319  1
  Ni  Ni50  1  0.83235934  0.49592342  0.83264179  1
  Cr  Cr51  1  0.82834930  0.83110531  0.49431270  1
  Cr  Cr52  1  0.66170951  0.66515643  0.66378225  1
  Cr  Cr53  1  0.82828830  0.82998841  0.83220200  1
" 