5572,Ni35Fe47Cr17_19,-231.201611592275, 195.956128287983,Ni35Fe47Cr17,"# generated using pymatgen
 data_Cr11Fe25Ni18
_symmetry_space_group_name_H-M   'P 1'
_cell_length_a   7.43877666
_cell_length_b   7.43877666
_cell_length_c   10.52001884
_cell_angle_alpha   90.00000000
_cell_angle_beta   90.00000000
_cell_angle_gamma   90.00000000
_symmetry_Int_Tables_number   1
_chemical_formula_structural   Cr11Fe25Ni18
_chemical_formula_sum   'Cr11 Fe25 Ni18'
_cell_volume   582.12943140
_cell_formula_units_Z   1
loop_
 _symmetry_equiv_pos_site_id
 _symmetry_equiv_pos_as_xyz
  1  'x, y, z'
loop_
 _atom_site_type_symbol
 _atom_site_label
 _atom_site_symmetry_multiplicity
 _atom_site_fract_x
 _atom_site_fract_y
 _atom_site_fract_z
 _atom_site_occupancy
  Fe  Fe0  1  0.00369952  1.00069916  1.00134588  1
  Fe  Fe1  1  0.16848616  0.16701540  0.16907609  1
  Ni  Ni2  1  0.00515329  0.00341209  0.33497635  1
  Cr  Cr3  1  0.00377214  0.33247844  0.99940080  1
  Cr  Cr4  1  0.16966749  0.50320438  0.16898683  1
  Fe  Fe5  1  1.00157607  0.33233933  0.33653070  1
  Fe  Fe6  1  0.00234437  0.66942369  0.99888681  1
  Fe  Fe7  1  0.16840574  0.83787547  0.16738842  1
  Fe  Fe8  1  0.00316262  0.67108730  0.33809063  1
  Fe  Fe9  1  0.33271937  0.00273191  1.00143348  1
  Ni  Ni10  1  0.50054126  0.17023799  0.16972303  1
  Ni  Ni11  1  0.33113642  0.00308619  0.33475658  1
  Fe  Fe12  1  0.33731927  0.33622850  1.00040964  1
  Fe  Fe13  1  0.50261941  0.50030174  0.16735132  1
  Fe  Fe14  1  0.33604599  0.33337344  0.33711526  1
  Ni  Ni15  1  0.33425299  0.66868446  1.00040395  1
  Cr  Cr16  1  0.50024268  0.83395071  0.16707953  1
  Fe  Fe17  1  0.33479577  0.67005414  0.33589508  1
  Cr  Cr18  1  0.66963574  0.00324025  1.00041091  1
  Ni  Ni19  1  0.83556746  0.16930472  0.16958520  1
  Cr  Cr20  1  0.66887677  0.00257707  0.33724608  1
  Ni  Ni21  1  0.66884759  0.33608155  0.00277532  1
  Cr  Cr22  1  0.83568245  0.50172246  0.16858299  1
  Fe  Fe23  1  0.66778405  0.33383306  0.33577702  1
  Ni  Ni24  1  0.66690150  0.66672241  0.99898628  1
  Cr  Cr25  1  0.83715566  0.83439055  0.16904434  1
  Ni  Ni26  1  0.66800207  0.66450008  0.33635250  1
  Ni  Ni27  1  0.16736442  0.16930833  0.50224003  1
  Fe  Fe28  1  0.00227176  0.00335907  0.66829124  1
  Ni  Ni29  1  0.16751092  0.16769244  0.83477886  1
  Fe  Fe30  1  0.16821608  0.50083073  0.50257164  1
  Fe  Fe31  1  0.00325771  0.33337584  0.66916863  1
  Ni  Ni32  1  0.16979767  0.50276641  0.83284130  1
  Fe  Fe33  1  0.16675245  0.83816911  0.50242560  1
  Fe  Fe34  1  0.00452461  0.66912490  0.66872127  1
  Ni  Ni35  1  0.16850963  0.83490826  0.83534275  1
  Fe  Fe36  1  0.49860642  0.16909584  0.50278468  1
  Ni  Ni37  1  0.33182192  0.00248412  0.66894762  1
  Cr  Cr38  1  0.50129975  0.16893949  0.83267565  1
  Fe  Fe39  1  0.50013521  0.49915216  0.50168203  1
  Ni  Ni40  1  0.33136034  0.33568518  0.66894754  1
  Ni  Ni41  1  0.50011232  0.50307175  0.83762406  1
  Cr  Cr42  1  0.49999119  0.83584265  0.50389274  1
  Fe  Fe43  1  0.33409481  0.66817765  0.67057780  1
  Fe  Fe44  1  0.49831172  0.83574731  0.83480995  1
  Ni  Ni45  1  0.83765167  0.16894884  0.50184458  1
  Ni  Ni46  1  0.67053272  1.00114457  0.66776593  1
  Ni  Ni47  1  0.83653831  0.16722779  0.83398821  1
  Fe  Fe48  1  0.83717292  0.50137783  0.49991709  1
  Cr  Cr49  1  0.66937161  0.33557278  0.66822825  1
  Fe  Fe50  1  0.83660572  0.50108722  0.83663950  1
  Fe  Fe51  1  0.83866803  0.83639140  0.50141333  1
  Cr  Cr52  1  0.66980930  0.66881641  0.67146774  1
  Fe  Fe53  1  0.83792999  0.83575852  0.83541403  1
" 