2348,Ni35Fe15Cr49_14,-220.393509058058, 167.416141656111,Ni35Fe15Cr49,"# generated using pymatgen
 data_Cr27Fe8Ni19
_symmetry_space_group_name_H-M   'P 1'
_cell_length_a   7.50640477
_cell_length_b   7.50640477
_cell_length_c   10.61565942
_cell_angle_alpha   90.00000000
_cell_angle_beta   90.00000000
_cell_angle_gamma   90.00000000
_symmetry_Int_Tables_number   1
_chemical_formula_structural   Cr27Fe8Ni19
_chemical_formula_sum   'Cr27 Fe8 Ni19'
_cell_volume   598.15114028
_cell_formula_units_Z   1
loop_
 _symmetry_equiv_pos_site_id
 _symmetry_equiv_pos_as_xyz
  1  'x, y, z'
loop_
 _atom_site_type_symbol
 _atom_site_label
 _atom_site_symmetry_multiplicity
 _atom_site_fract_x
 _atom_site_fract_y
 _atom_site_fract_z
 _atom_site_occupancy
  Ni  Ni0  1  0.99695204  -0.00240574  0.99692070  1
  Ni  Ni1  1  0.16349244  0.16502135  0.16627198  1
  Ni  Ni2  1  -0.00084460  -0.00166214  0.33090317  1
  Fe  Fe3  1  0.99559795  0.32877179  -0.00177825  1
  Cr  Cr4  1  0.16351855  0.49541552  0.16252696  1
  Fe  Fe5  1  -0.00197360  0.33022790  0.32955279  1
  Ni  Ni6  1  -0.00233537  0.66391542  0.99723431  1
  Cr  Cr7  1  0.16035807  0.82929407  0.16472004  1
  Ni  Ni8  1  0.99632686  0.66365868  0.32903918  1
  Cr  Cr9  1  0.33149452  -0.00071339  0.00011413  1
  Ni  Ni10  1  0.49571277  0.16650217  0.16052676  1
  Cr  Cr11  1  0.32904583  -0.00011511  0.32640969  1
  Fe  Fe12  1  0.33222625  0.32855930  0.99737035  1
  Cr  Cr13  1  0.49546072  0.49404075  0.16492619  1
  Ni  Ni14  1  0.32889054  0.32928575  0.32995890  1
  Cr  Cr15  1  0.32966707  0.66550299  0.99251466  1
  Fe  Fe16  1  0.49873110  0.83126026  0.16260856  1
  Ni  Ni17  1  0.32920328  0.66182376  0.33095148  1
  Ni  Ni18  1  0.66462008  0.00137051  0.99704380  1
  Cr  Cr19  1  0.83160115  0.16327978  0.15945079  1
  Cr  Cr20  1  0.66502011  -0.00223763  0.32424614  1
  Ni  Ni21  1  0.66370095  0.32794546  0.99543115  1
  Ni  Ni22  1  0.83378977  0.49851631  0.16323777  1
  Cr  Cr23  1  0.66602787  0.33182914  0.33198019  1
  Cr  Cr24  1  0.66583102  0.66437641  0.00087948  1
  Ni  Ni25  1  0.83484722  0.83102854  0.16269786  1
  Cr  Cr26  1  0.66712768  0.66236411  0.32902290  1
  Fe  Fe27  1  0.16333786  0.16548515  0.49412341  1
  Fe  Fe28  1  0.99655864  -0.00108191  0.66615804  1
  Cr  Cr29  1  0.16109333  0.16492240  0.83256634  1
  Cr  Cr30  1  0.16625042  0.49761867  0.49319783  1
  Cr  Cr31  1  0.99656309  0.33096577  0.66233360  1
  Fe  Fe32  1  0.16412176  0.49566007  0.83428224  1
  Cr  Cr33  1  0.16233842  0.83186112  0.49717131  1
  Cr  Cr34  1  -0.00152110  0.66229447  0.66703762  1
  Fe  Fe35  1  0.16306538  0.83244221  0.83339921  1
  Cr  Cr36  1  0.49689062  0.16502220  0.49781308  1
  Cr  Cr37  1  0.32965795  -0.00202131  0.66589564  1
  Ni  Ni38  1  0.49928633  0.16442684  0.83323507  1
  Ni  Ni39  1  0.49526686  0.49634543  0.49572212  1
  Cr  Cr40  1  0.33076882  0.33068055  0.66535599  1
  Ni  Ni41  1  0.49499250  0.49495905  0.83199996  1
  Cr  Cr42  1  0.49706614  0.82952786  0.49604208  1
  Cr  Cr43  1  0.33065672  0.66427324  0.66926042  1
  Ni  Ni44  1  0.49863320  0.83269803  0.83127914  1
  Cr  Cr45  1  0.83229487  0.16082615  0.50031602  1
  Ni  Ni46  1  0.66310927  -0.00018692  0.66939489  1
  Ni  Ni47  1  0.82907313  0.16204887  0.83218521  1
  Ni  Ni48  1  0.83296345  0.49738731  0.49390300  1
  Cr  Cr49  1  0.66497970  0.33143539  0.66446161  1
  Cr  Cr50  1  0.83054175  0.49465933  0.83515670  1
  Cr  Cr51  1  0.83198187  0.83274396  0.49860747  1
  Cr  Cr52  1  0.66360669  0.66130451  0.66181411  1
  Cr  Cr53  1  0.83076722  0.83528075  0.83096133  1
" 