3336,Ni35Fe39Cr24_10,-229.360193932739, 190.507874679144,Ni35Fe39Cr24,"# generated using pymatgen
 data_Cr14Fe21Ni19
_symmetry_space_group_name_H-M   'P 1'
_cell_length_a   7.45135324
_cell_length_b   7.45135324
_cell_length_c   10.53780481
_cell_angle_alpha   90.00000000
_cell_angle_beta   90.00000000
_cell_angle_gamma   90.00000000
_symmetry_Int_Tables_number   1
_chemical_formula_structural   Cr14Fe21Ni19
_chemical_formula_sum   'Cr14 Fe21 Ni19'
_cell_volume   585.08700817
_cell_formula_units_Z   1
loop_
 _symmetry_equiv_pos_site_id
 _symmetry_equiv_pos_as_xyz
  1  'x, y, z'
loop_
 _atom_site_type_symbol
 _atom_site_label
 _atom_site_symmetry_multiplicity
 _atom_site_fract_x
 _atom_site_fract_y
 _atom_site_fract_z
 _atom_site_occupancy
  Ni  Ni0  1  0.00174276  0.99674228  1.00101770  1
  Fe  Fe1  1  0.16888620  0.16411116  0.16898415  1
  Fe  Fe2  1  0.00450964  0.99829742  0.33351310  1
  Cr  Cr3  1  0.99975098  0.33522987  1.00012361  1
  Cr  Cr4  1  0.16823631  0.50507016  0.16907608  1
  Fe  Fe5  1  0.00188134  0.33607615  0.33361704  1
  Fe  Fe6  1  0.99835265  0.66935016  1.00044248  1
  Ni  Ni7  1  0.17030528  0.83535509  0.16749161  1
  Ni  Ni8  1  1.00098392  0.66849155  0.33576655  1
  Fe  Fe9  1  0.33755306  0.99858219  0.00233182  1
  Ni  Ni10  1  0.50059797  0.16631107  0.16774429  1
  Ni  Ni11  1  0.33379641  0.00150375  0.33329245  1
  Cr  Cr12  1  0.33712128  0.33212020  0.00312708  1
  Fe  Fe13  1  0.50250108  0.50381933  0.16707377  1
  Ni  Ni14  1  0.33311506  0.33295062  0.33290349  1
  Fe  Fe15  1  0.33560780  0.67281188  0.00123616  1
  Ni  Ni16  1  0.49876433  0.83418531  0.16758561  1
  Fe  Fe17  1  0.33373793  0.67131857  0.33516904  1
  Ni  Ni18  1  0.66693249  1.00012429  0.99881828  1
  Cr  Cr19  1  0.83457461  0.16711094  0.16602005  1
  Cr  Cr20  1  0.66533389  0.99744589  0.33580043  1
  Ni  Ni21  1  0.66750518  0.33410040  1.00051443  1
  Ni  Ni22  1  0.83270430  0.50194466  0.16848501  1
  Cr  Cr23  1  0.66574014  0.33479470  0.33210572  1
  Ni  Ni24  1  0.66905768  0.66922798  0.00341472  1
  Cr  Cr25  1  0.83537275  0.83357744  0.16781177  1
  Fe  Fe26  1  0.66689192  0.66762291  0.33368183  1
  Cr  Cr27  1  0.16568243  0.16489275  0.49939321  1
  Fe  Fe28  1  1.00079528  0.99591148  0.66951860  1
  Cr  Cr29  1  0.16657900  0.16237386  0.83489119  1
  Fe  Fe30  1  0.16577338  0.50332851  0.50067338  1
  Fe  Fe31  1  0.99791626  0.33777364  0.66912734  1
  Cr  Cr32  1  0.16748273  0.50709330  0.83192051  1
  Ni  Ni33  1  0.16782730  0.83265963  0.50060594  1
  Ni  Ni34  1  1.00002491  0.67022735  0.66842880  1
  Ni  Ni35  1  0.16862014  0.83419812  0.83552408  1
  Fe  Fe36  1  0.49856479  0.16554101  0.50100006  1
  Fe  Fe37  1  0.33506261  0.99522036  0.66718683  1
  Ni  Ni38  1  0.50524706  0.16519142  0.83235194  1
  Cr  Cr39  1  0.50108088  0.50366238  0.49974582  1
  Cr  Cr40  1  0.33449569  0.33249294  0.66762449  1
  Cr  Cr41  1  0.50387348  0.50422604  0.83715407  1
  Fe  Fe42  1  0.49905989  0.83587790  0.50159637  1
  Ni  Ni43  1  0.33345632  0.67047685  0.66637337  1
  Fe  Fe44  1  0.50224203  0.83503899  0.83459410  1
  Cr  Cr45  1  0.83372701  0.16681306  0.50293227  1
  Fe  Fe46  1  0.66691622  0.99841070  0.66875496  1
  Ni  Ni47  1  0.83159705  0.16647795  0.83356593  1
  Fe  Fe48  1  0.83741354  0.50441446  0.50143107  1
  Fe  Fe49  1  0.66935799  0.33752391  0.66922437  1
  Ni  Ni50  1  0.83161295  0.50199772  0.83340761  1
  Fe  Fe51  1  0.83668588  0.83181843  0.50124008  1
  Ni  Ni52  1  0.67003326  0.67107166  0.66603210  1
  Fe  Fe53  1  0.83418355  0.83387825  0.83542182  1
" 