3877,Ni35Fe47Cr17_6,-231.769405558284, 201.340027397318,Ni35Fe47Cr17,"# generated using pymatgen
 data_Cr11Fe25Ni18
_symmetry_space_group_name_H-M   'P 1'
_cell_length_a   7.44129653
_cell_length_b   7.44129653
_cell_length_c   10.52358247
_cell_angle_alpha   90.00000000
_cell_angle_beta   90.00000000
_cell_angle_gamma   90.00000000
_symmetry_Int_Tables_number   1
_chemical_formula_structural   Cr11Fe25Ni18
_chemical_formula_sum   'Cr11 Fe25 Ni18'
_cell_volume   582.72121704
_cell_formula_units_Z   1
loop_
 _symmetry_equiv_pos_site_id
 _symmetry_equiv_pos_as_xyz
  1  'x, y, z'
loop_
 _atom_site_type_symbol
 _atom_site_label
 _atom_site_symmetry_multiplicity
 _atom_site_fract_x
 _atom_site_fract_y
 _atom_site_fract_z
 _atom_site_occupancy
  Cr  Cr0  1  0.00198652  0.00242196  0.00300233  1
  Fe  Fe1  1  0.17132535  0.16927932  0.16840806  1
  Cr  Cr2  1  0.00194490  0.00183229  0.33534702  1
  Cr  Cr3  1  0.00270600  0.33563880  1.00132247  1
  Ni  Ni4  1  0.17099327  0.50306686  0.16753421  1
  Cr  Cr5  1  1.00161735  0.33478340  0.33514340  1
  Cr  Cr6  1  1.00034614  0.66713121  0.00410941  1
  Ni  Ni7  1  0.17098816  0.83485454  0.16925001  1
  Cr  Cr8  1  0.00260833  0.66857689  0.33513932  1
  Ni  Ni9  1  0.33762652  0.00337688  0.00267987  1
  Fe  Fe10  1  0.50130403  0.16933591  0.16705772  1
  Fe  Fe11  1  0.33435034  1.00103242  0.33345914  1
  Ni  Ni12  1  0.33597844  0.33333396  0.00251527  1
  Ni  Ni13  1  0.50143520  0.50062057  0.16806747  1
  Fe  Fe14  1  0.33523265  0.33658478  0.33380443  1
  Fe  Fe15  1  0.33708275  0.66819875  0.00428616  1
  Fe  Fe16  1  0.50055514  0.83425049  0.16753013  1
  Ni  Ni17  1  0.33504883  0.66778467  0.33468551  1
  Ni  Ni18  1  0.66564549  1.00123031  1.00134514  1
  Fe  Fe19  1  0.83256157  0.16932994  0.16844122  1
  Fe  Fe20  1  0.66878702  0.00253284  0.33394313  1
  Ni  Ni21  1  0.66661898  0.33480019  0.00316047  1
  Ni  Ni22  1  0.83276357  0.50086335  0.16668924  1
  Fe  Fe23  1  0.66814513  0.33532139  0.33449806  1
  Ni  Ni24  1  0.66768631  0.66916004  0.00215037  1
  Fe  Fe25  1  0.83325867  0.83431580  0.16768075  1
  Cr  Cr26  1  0.66776608  0.66720310  0.33516153  1
  Ni  Ni27  1  0.16802688  0.16809411  0.50339280  1
  Fe  Fe28  1  1.00001778  0.00205809  0.66690608  1
  Fe  Fe29  1  0.17090827  0.16976430  0.83380448  1
  Fe  Fe30  1  0.16860775  0.50171484  0.50258861  1
  Fe  Fe31  1  1.00061762  0.33581153  0.66758628  1
  Fe  Fe32  1  0.16884106  0.50003750  0.83417823  1
  Fe  Fe33  1  0.16717450  0.83531815  0.50267279  1
  Ni  Ni34  1  1.00039128  0.66811922  0.66630560  1
  Cr  Cr35  1  0.16923198  0.83480427  0.83405040  1
  Cr  Cr36  1  0.50226376  0.16999498  0.50078934  1
  Fe  Fe37  1  0.33483325  0.00240702  0.66953884  1
  Ni  Ni38  1  0.50221859  0.16750789  0.83590268  1
  Fe  Fe39  1  0.50228900  0.50089079  0.50228756  1
  Fe  Fe40  1  0.33423764  0.33547038  0.66890249  1
  Cr  Cr41  1  0.50266391  0.50089376  0.83572855  1
  Cr  Cr42  1  0.50108527  0.83416220  0.50292138  1
  Fe  Fe43  1  0.33484656  0.66731101  0.66724066  1
  Fe  Fe44  1  0.50341809  0.83690988  0.83535179  1
  Ni  Ni45  1  0.83552637  0.16884854  0.50304097  1
  Fe  Fe46  1  0.67034354  1.00145015  0.66981867  1
  Fe  Fe47  1  0.83257615  0.16859645  0.83366697  1
  Ni  Ni48  1  0.83476392  0.50140675  0.50424069  1
  Ni  Ni49  1  0.66949972  0.33540317  0.66736030  1
  Fe  Fe50  1  0.83410486  0.50174575  0.83348921  1
  Ni  Ni51  1  0.83649045  0.83493744  0.50398408  1
  Ni  Ni52  1  0.67058467  0.66806793  0.66795590  1
  Fe  Fe53  1  0.83150960  0.83484845  0.83331803  1
" 