5497,Ni35Fe15Cr49_0,-219.914052247917, 157.049158705095,Ni35Fe15Cr49,"# generated using pymatgen
 data_Cr27Fe8Ni19
_symmetry_space_group_name_H-M   'P 1'
_cell_length_a   7.50732887
_cell_length_b   7.50732887
_cell_length_c   10.61696630
_cell_angle_alpha   90.00000000
_cell_angle_beta   90.00000000
_cell_angle_gamma   90.00000000
_symmetry_Int_Tables_number   1
_chemical_formula_structural   Cr27Fe8Ni19
_chemical_formula_sum   'Cr27 Fe8 Ni19'
_cell_volume   598.37207975
_cell_formula_units_Z   1
loop_
 _symmetry_equiv_pos_site_id
 _symmetry_equiv_pos_as_xyz
  1  'x, y, z'
loop_
 _atom_site_type_symbol
 _atom_site_label
 _atom_site_symmetry_multiplicity
 _atom_site_fract_x
 _atom_site_fract_y
 _atom_site_fract_z
 _atom_site_occupancy
  Cr  Cr0  1  0.99647338  0.99668026  -0.00233376  1
  Ni  Ni1  1  0.16347945  0.16627779  0.16306337  1
  Cr  Cr2  1  -0.00037335  0.99660989  0.32819061  1
  Ni  Ni3  1  -0.00151362  0.33071952  -0.00268152  1
  Ni  Ni4  1  0.16411574  0.49805895  0.16242022  1
  Cr  Cr5  1  -0.00180615  0.33068571  0.33043554  1
  Ni  Ni6  1  -0.00036741  0.66385342  0.99587864  1
  Fe  Fe7  1  0.16515190  0.82808802  0.16355779  1
  Cr  Cr8  1  -0.00002124  0.66472083  0.33329599  1
  Cr  Cr9  1  0.33094499  0.99699533  0.99531217  1
  Cr  Cr10  1  0.49940042  0.16202234  0.16685531  1
  Fe  Fe11  1  0.33007197  0.99495644  0.32946299  1
  Cr  Cr12  1  0.32974216  0.33088593  -0.00079820  1
  Fe  Fe13  1  0.49613902  0.49882825  0.16645194  1
  Cr  Cr14  1  0.33126883  0.33377812  0.32966761  1
  Fe  Fe15  1  0.32774332  0.66577951  -0.00209391  1
  Cr  Cr16  1  0.49740431  0.82986882  0.16553017  1
  Ni  Ni17  1  0.33133659  0.66357520  0.32970146  1
  Ni  Ni18  1  0.66433880  0.99726247  0.99407529  1
  Fe  Fe19  1  0.83105302  0.16465409  0.16330475  1
  Ni  Ni20  1  0.66375317  -0.00218456  0.32899077  1
  Cr  Cr21  1  0.66362250  0.32854074  0.99618517  1
  Cr  Cr22  1  0.83233793  0.49701227  0.16276812  1
  Ni  Ni23  1  0.66234422  0.33259009  0.33120667  1
  Cr  Cr24  1  0.66351193  0.66659956  0.99371052  1
  Cr  Cr25  1  0.82842341  0.83066303  0.16424626  1
  Ni  Ni26  1  0.66028894  0.66181417  0.33256104  1
  Cr  Cr27  1  0.16631127  0.16146465  0.49939455  1
  Cr  Cr28  1  -0.00149169  0.99506293  0.66641324  1
  Fe  Fe29  1  0.16300040  0.16257531  0.83158659  1
  Fe  Fe30  1  0.16682830  0.50114624  0.49701456  1
  Cr  Cr31  1  0.99613351  0.33101810  0.66391609  1
  Cr  Cr32  1  0.16099940  0.49860127  0.83242580  1
  Ni  Ni33  1  0.16883666  0.82858914  0.49597370  1
  Cr  Cr34  1  -0.00251947  0.66587652  0.66188697  1
  Ni  Ni35  1  0.16568459  0.82959843  0.83122925  1
  Cr  Cr36  1  0.49719751  0.16246410  0.49616404  1
  Fe  Fe37  1  0.32997170  0.99340248  0.66711829  1
  Ni  Ni38  1  0.49785248  0.15959539  0.83026252  1
  Ni  Ni39  1  0.49753128  0.49951940  0.49367674  1
  Cr  Cr40  1  0.33238871  0.33122858  0.66402027  1
  Cr  Cr41  1  0.49552753  0.49899494  0.83222924  1
  Cr  Cr42  1  0.49462384  0.83049891  0.49615686  1
  Ni  Ni43  1  0.32981091  0.66638122  0.66346143  1
  Ni  Ni44  1  0.49491876  0.83381717  0.83045508  1
  Cr  Cr45  1  0.82887568  0.16550755  0.49342383  1
  Cr  Cr46  1  0.66413952  0.99643878  0.66963632  1
  Ni  Ni47  1  0.83001620  0.16431870  0.83452951  1
  Ni  Ni48  1  0.82833367  0.49725967  0.49551089  1
  Cr  Cr49  1  0.66337950  0.33222188  0.66447463  1
  Ni  Ni50  1  0.83392465  0.49677375  0.83232088  1
  Cr  Cr51  1  0.82956819  0.82936488  0.49488067  1
  Cr  Cr52  1  0.66303219  0.66330019  0.66491248  1
  Ni  Ni53  1  0.83138948  0.83077267  0.83308962  1
" 