3417,Ni35Cr65_2,-225.852237560092, 139.810440066895,Ni35Cr65,"# generated using pymatgen
 data_CrNi2
_symmetry_space_group_name_H-M   'P 1'
_cell_length_a   7.49596364
_cell_length_b   7.49596364
_cell_length_c   10.60089344
_cell_angle_alpha   90.00000000
_cell_angle_beta   90.00000000
_cell_angle_gamma   90.00000000
_symmetry_Int_Tables_number   1
_chemical_formula_structural   CrNi2
_chemical_formula_sum   'Cr18 Ni36'
_cell_volume   595.65859325
_cell_formula_units_Z   18
loop_
 _symmetry_equiv_pos_site_id
 _symmetry_equiv_pos_as_xyz
  1  'x, y, z'
loop_
 _atom_site_type_symbol
 _atom_site_label
 _atom_site_symmetry_multiplicity
 _atom_site_fract_x
 _atom_site_fract_y
 _atom_site_fract_z
 _atom_site_occupancy
  Ni  Ni0  1  -0.00049177  -0.00118579  0.99667572  1
  Ni  Ni1  1  0.16729704  0.16470762  0.16290780  1
  Cr  Cr2  1  0.99794668  -0.00154975  0.33254641  1
  Ni  Ni3  1  0.00091880  0.33051223  0.99528652  1
  Cr  Cr4  1  0.16481178  0.49719342  0.16460779  1
  Ni  Ni5  1  0.00051348  0.33245000  0.33417346  1
  Ni  Ni6  1  -0.00170768  0.66490580  0.99651508  1
  Ni  Ni7  1  0.16623667  0.83230457  0.16180896  1
  Ni  Ni8  1  0.99611651  0.66270168  0.33307192  1
  Ni  Ni9  1  0.33014007  -0.00118923  0.00120763  1
  Ni  Ni10  1  0.49497571  0.16344741  0.16402898  1
  Cr  Cr11  1  0.33357682  0.00017884  0.32984390  1
  Ni  Ni12  1  0.32861050  0.33036433  -0.00067083  1
  Ni  Ni13  1  0.49653723  0.49904104  0.16381795  1
  Ni  Ni14  1  0.33037417  0.33056174  0.33217153  1
  Ni  Ni15  1  0.33120355  0.66502550  -0.00053191  1
  Ni  Ni16  1  0.49791956  0.83172845  0.16294261  1
  Cr  Cr17  1  0.33295303  0.66399125  0.33167035  1
  Ni  Ni18  1  0.66454881  0.99622257  -0.00182361  1
  Cr  Cr19  1  0.83215171  0.16409470  0.16431455  1
  Ni  Ni20  1  0.66317673  0.99640790  0.33330928  1
  Cr  Cr21  1  0.66499583  0.33188406  0.99758604  1
  Cr  Cr22  1  0.83190477  0.49957383  0.16541455  1
  Cr  Cr23  1  0.66315936  0.33162188  0.33268040  1
  Ni  Ni24  1  0.66470321  0.66644981  -0.00178206  1
  Cr  Cr25  1  0.83084580  0.83056374  0.16460646  1
  Ni  Ni26  1  0.66512238  0.66601992  0.33307522  1
  Ni  Ni27  1  0.16384466  0.16767638  0.49698598  1
  Ni  Ni28  1  0.99445239  -0.00030297  0.66504841  1
  Ni  Ni29  1  0.16129329  0.16588799  0.83434191  1
  Ni  Ni30  1  0.16495219  0.49620874  0.49630714  1
  Cr  Cr31  1  0.99637310  0.32995519  0.66544333  1
  Ni  Ni32  1  0.16343712  0.49712179  0.83396330  1
  Cr  Cr33  1  0.16383302  0.83027895  0.49915749  1
  Cr  Cr34  1  0.99679078  0.66466610  0.66495498  1
  Cr  Cr35  1  0.16379837  0.83120587  0.83266904  1
  Ni  Ni36  1  0.49996198  0.16488915  0.49777583  1
  Cr  Cr37  1  0.33088718  0.99794183  0.66270665  1
  Cr  Cr38  1  0.49909556  0.16404658  0.83180099  1
  Ni  Ni39  1  0.49875196  0.49880940  0.49912480  1
  Cr  Cr40  1  0.33128569  0.33285298  0.66301179  1
  Cr  Cr41  1  0.49752339  0.49958869  0.83093606  1
  Ni  Ni42  1  0.50257920  0.83049134  0.49903209  1
  Ni  Ni43  1  0.33361305  0.66323955  0.66307211  1
  Cr  Cr44  1  0.49996473  0.83059931  0.83130298  1
  Ni  Ni45  1  0.83040046  0.16385762  0.49940903  1
  Ni  Ni46  1  0.66793529  0.99785739  0.66271432  1
  Ni  Ni47  1  0.83363281  0.16311124  0.83103643  1
  Ni  Ni48  1  0.83054765  0.49881066  0.49689828  1
  Ni  Ni49  1  0.66627493  0.33140773  0.66306676  1
  Ni  Ni50  1  0.83271083  0.49868044  0.83249757  1
  Ni  Ni51  1  0.82777484  0.83154717  0.49807338  1
  Ni  Ni52  1  0.66451521  0.66495044  0.66290192  1
  Ni  Ni53  1  0.83107583  0.83243917  0.83215895  1
" 