4248,Ni35Fe47Cr17_12,-231.77131745543, 197.728939055839,Ni35Fe47Cr17,"# generated using pymatgen
 data_Cr11Fe25Ni18
_symmetry_space_group_name_H-M   'P 1'
_cell_length_a   7.44242986
_cell_length_b   7.44242986
_cell_length_c   10.52518525
_cell_angle_alpha   90.00000000
_cell_angle_beta   90.00000000
_cell_angle_gamma   90.00000000
_symmetry_Int_Tables_number   1
_chemical_formula_structural   Cr11Fe25Ni18
_chemical_formula_sum   'Cr11 Fe25 Ni18'
_cell_volume   582.98750897
_cell_formula_units_Z   1
loop_
 _symmetry_equiv_pos_site_id
 _symmetry_equiv_pos_as_xyz
  1  'x, y, z'
loop_
 _atom_site_type_symbol
 _atom_site_label
 _atom_site_symmetry_multiplicity
 _atom_site_fract_x
 _atom_site_fract_y
 _atom_site_fract_z
 _atom_site_occupancy
  Ni  Ni0  1  0.99958034  0.00333932  0.99983993  1
  Fe  Fe1  1  0.16488022  0.16767646  0.16965547  1
  Fe  Fe2  1  1.00001410  0.00273128  0.33627878  1
  Fe  Fe3  1  0.99996860  0.33291048  0.00196389  1
  Ni  Ni4  1  0.16746947  0.50041465  0.16942737  1
  Ni  Ni5  1  0.00194146  0.33578947  0.33334245  1
  Cr  Cr6  1  1.00111276  0.66680063  1.00004604  1
  Cr  Cr7  1  0.16638640  0.83363542  0.17017652  1
  Ni  Ni8  1  0.00207082  0.66525799  0.33869038  1
  Cr  Cr9  1  0.33333994  1.00085131  1.00026986  1
  Cr  Cr10  1  0.50507152  0.16763929  0.17073700  1
  Fe  Fe11  1  0.33543464  0.00318454  0.33749627  1
  Cr  Cr12  1  0.33152845  0.33601088  0.00286218  1
  Fe  Fe13  1  0.50333746  0.50276643  0.16710740  1
  Fe  Fe14  1  0.33437528  0.33501848  0.33601166  1
  Fe  Fe15  1  0.33510537  0.66978524  1.00162330  1
  Ni  Ni16  1  0.50249383  0.83581374  0.16708653  1
  Cr  Cr17  1  0.33561984  0.66877779  0.33507450  1
  Ni  Ni18  1  0.67012204  1.00049760  0.99926938  1
  Ni  Ni19  1  0.83502254  0.16938729  0.16821668  1
  Ni  Ni20  1  0.66657503  0.00203242  0.33691553  1
  Fe  Fe21  1  0.67296840  0.33434879  0.00219707  1
  Fe  Fe22  1  0.83598462  0.49991769  0.16853271  1
  Ni  Ni23  1  0.66943435  0.33512600  0.33505490  1
  Fe  Fe24  1  0.66791897  0.67075209  1.00058694  1
  Cr  Cr25  1  0.83509219  0.83867253  0.16989376  1
  Cr  Cr26  1  0.66983912  0.66823557  0.33529134  1
  Fe  Fe27  1  0.16794909  0.16718197  0.50213640  1
  Ni  Ni28  1  0.00249569  1.00083632  0.67010850  1
  Fe  Fe29  1  0.16570395  0.16745380  0.83284492  1
  Fe  Fe30  1  0.16661164  0.49997324  0.50187464  1
  Fe  Fe31  1  0.00282204  0.33416377  0.66838442  1
  Ni  Ni32  1  0.16687403  0.50210299  0.83291318  1
  Fe  Fe33  1  0.16695474  0.83736004  0.50312138  1
  Fe  Fe34  1  1.00148063  0.66999800  0.66832457  1
  Ni  Ni35  1  0.16754084  0.83365836  0.83351014  1
  Ni  Ni36  1  0.49991643  0.17014887  0.50131635  1
  Ni  Ni37  1  0.33458352  1.00127720  0.66783345  1
  Cr  Cr38  1  0.50406305  0.16758263  0.83244519  1
  Fe  Fe39  1  0.50329051  0.49975126  0.50347118  1
  Fe  Fe40  1  0.33220504  0.33352561  0.66679971  1
  Cr  Cr41  1  0.50094751  0.50208015  0.83520002  1
  Fe  Fe42  1  0.50304400  0.83831733  0.50307203  1
  Fe  Fe43  1  0.33335786  0.67097400  0.66794519  1
  Ni  Ni44  1  0.50177630  0.83496830  0.83394554  1
  Cr  Cr45  1  0.83338862  0.16681140  0.50130874  1
  Fe  Fe46  1  0.66896466  0.99868501  0.66727055  1
  Fe  Fe47  1  0.83750692  0.16778893  0.83504907  1
  Fe  Fe48  1  0.83546822  0.50075616  0.50267529  1
  Fe  Fe49  1  0.66951327  0.33481391  0.66672541  1
  Ni  Ni50  1  0.83656232  0.50038831  0.83341322  1
  Ni  Ni51  1  0.83781515  0.83425482  0.50188286  1
  Fe  Fe52  1  0.67019644  0.67140504  0.66829131  1
  Ni  Ni53  1  0.83558918  0.83567858  0.83379830  1
" 