499,Ni35Cr65_3,-225.954678270211, 140.396442102297,Ni35Cr65,"# generated using pymatgen
 data_CrNi2
_symmetry_space_group_name_H-M   'P 1'
_cell_length_a   7.49562636
_cell_length_b   7.49562636
_cell_length_c   10.60041645
_cell_angle_alpha   90.00000000
_cell_angle_beta   90.00000000
_cell_angle_gamma   90.00000000
_symmetry_Int_Tables_number   1
_chemical_formula_structural   CrNi2
_chemical_formula_sum   'Cr18 Ni36'
_cell_volume   595.57819129
_cell_formula_units_Z   18
loop_
 _symmetry_equiv_pos_site_id
 _symmetry_equiv_pos_as_xyz
  1  'x, y, z'
loop_
 _atom_site_type_symbol
 _atom_site_label
 _atom_site_symmetry_multiplicity
 _atom_site_fract_x
 _atom_site_fract_y
 _atom_site_fract_z
 _atom_site_occupancy
  Cr  Cr0  1  0.00206121  0.99698086  -0.00131191  1
  Ni  Ni1  1  0.16691079  0.16565926  0.16486238  1
  Cr  Cr2  1  0.00061088  0.99543381  0.33121669  1
  Ni  Ni3  1  -0.00077942  0.33174144  -0.00073752  1
  Cr  Cr4  1  0.16438144  0.50040111  0.16524780  1
  Ni  Ni5  1  0.00091654  0.33360322  0.33199546  1
  Ni  Ni6  1  0.99723464  0.66704519  -0.00103237  1
  Ni  Ni7  1  0.16630208  0.82952965  0.16384439  1
  Ni  Ni8  1  -0.00115083  0.66444532  0.33232748  1
  Ni  Ni9  1  0.33227921  0.99644918  -0.00190292  1
  Ni  Ni10  1  0.49539919  0.16327676  0.16371159  1
  Cr  Cr11  1  0.32915354  0.99676808  0.32973400  1
  Cr  Cr12  1  0.33125256  0.32896461  0.99695941  1
  Ni  Ni13  1  0.49720254  0.50069571  0.16481233  1
  Ni  Ni14  1  0.32961194  0.33293031  0.33178055  1
  Ni  Ni15  1  0.33309755  0.66813949  -0.00178775  1
  Ni  Ni16  1  0.49695561  0.83037787  0.16252887  1
  Ni  Ni17  1  0.33055097  0.66420707  0.33220023  1
  Ni  Ni18  1  0.66210295  0.99464043  0.99806959  1
  Cr  Cr19  1  0.83159145  0.16530462  0.16443061  1
  Cr  Cr20  1  0.66471431  0.99466379  0.33032304  1
  Cr  Cr21  1  0.66300651  0.33339243  -0.00113296  1
  Ni  Ni22  1  0.83285338  0.50124166  0.16399612  1
  Cr  Cr23  1  0.66356751  0.33501264  0.33034245  1
  Ni  Ni24  1  0.66395559  0.66694641  -0.00114534  1
  Ni  Ni25  1  0.83106043  0.82759656  0.16298088  1
  Cr  Cr26  1  0.66501756  0.66476210  0.33263552  1
  Ni  Ni27  1  0.16498050  0.16649937  0.49970681  1
  Ni  Ni28  1  0.00067241  0.99600169  0.66456097  1
  Ni  Ni29  1  0.16656892  0.16321397  0.82940841  1
  Ni  Ni30  1  0.16409037  0.49790168  0.49727812  1
  Ni  Ni31  1  0.00178115  0.33132495  0.66301885  1
  Cr  Cr32  1  0.16426377  0.49961241  0.83168041  1
  Ni  Ni33  1  0.16445731  0.82990141  0.49880612  1
  Ni  Ni34  1  -0.00170290  0.66703158  0.66308283  1
  Ni  Ni35  1  0.16525425  0.83263291  0.83167168  1
  Cr  Cr36  1  0.49562513  0.16290608  0.49928338  1
  Ni  Ni37  1  0.32947324  -0.00158500  0.66592994  1
  Ni  Ni38  1  0.49572713  0.16103219  0.83048285  1
  Ni  Ni39  1  0.49431413  0.49883156  0.49696894  1
  Ni  Ni40  1  0.32943150  0.32990788  0.66452875  1
  Ni  Ni41  1  0.49657137  0.49971649  0.83248479  1
  Ni  Ni42  1  0.49660726  0.83072685  0.49888022  1
  Cr  Cr43  1  0.33087492  0.66504912  0.66412184  1
  Ni  Ni44  1  0.49783522  0.83348238  0.83306567  1
  Cr  Cr45  1  0.83320356  0.16384251  0.50016692  1
  Ni  Ni46  1  0.66397991  0.99493840  0.66577184  1
  Cr  Cr47  1  0.83172019  0.16223975  0.82974728  1
  Ni  Ni48  1  0.83588750  0.49965253  0.49775199  1
  Cr  Cr49  1  0.66190800  0.33448772  0.66515459  1
  Cr  Cr50  1  0.83413620  0.50088960  0.83323308  1
  Ni  Ni51  1  0.83324940  0.82962089  0.50023696  1
  Cr  Cr52  1  0.66513234  0.66543512  0.66380539  1
  Ni  Ni53  1  0.83115356  0.83155289  0.83127922  1
" 