7109,Ni35Fe39Cr24_14,-229.913905125956, 197.437967922083,Ni35Fe39Cr24,"# generated using pymatgen
 data_Cr14Fe21Ni19
_symmetry_space_group_name_H-M   'P 1'
_cell_length_a   7.44531115
_cell_length_b   7.44531115
_cell_length_c   10.52926000
_cell_angle_alpha   90.00000000
_cell_angle_beta   90.00000000
_cell_angle_gamma   90.00000000
_symmetry_Int_Tables_number   1
_chemical_formula_structural   Cr14Fe21Ni19
_chemical_formula_sum   'Cr14 Fe21 Ni19'
_cell_volume   583.66486933
_cell_formula_units_Z   1
loop_
 _symmetry_equiv_pos_site_id
 _symmetry_equiv_pos_as_xyz
  1  'x, y, z'
loop_
 _atom_site_type_symbol
 _atom_site_label
 _atom_site_symmetry_multiplicity
 _atom_site_fract_x
 _atom_site_fract_y
 _atom_site_fract_z
 _atom_site_occupancy
  Fe  Fe0  1  0.99979447  0.00165017  0.99954233  1
  Ni  Ni1  1  0.16729792  0.16882947  0.16818260  1
  Fe  Fe2  1  0.99949040  1.00008475  0.33546542  1
  Cr  Cr3  1  1.00045439  0.33421791  0.99884055  1
  Cr  Cr4  1  0.17185398  0.49997761  0.16686403  1
  Cr  Cr5  1  1.00010448  0.33786814  0.33545845  1
  Cr  Cr6  1  0.99814933  0.66693490  0.99982887  1
  Cr  Cr7  1  0.16454983  0.83660425  0.16902509  1
  Ni  Ni8  1  0.99977576  0.66626998  0.33628140  1
  Cr  Cr9  1  0.33744275  0.00155296  1.00012912  1
  Cr  Cr10  1  0.50178100  0.17138382  0.16872543  1
  Cr  Cr11  1  0.33818723  0.99993547  0.33731622  1
  Ni  Ni12  1  0.33465740  0.33288549  1.00125039  1
  Fe  Fe13  1  0.50485378  0.50210964  0.16747844  1
  Fe  Fe14  1  0.33712631  0.33614092  0.33592634  1
  Fe  Fe15  1  0.33773988  0.66783792  1.00122942  1
  Ni  Ni16  1  0.50658365  0.83293199  0.16662358  1
  Cr  Cr17  1  0.33555158  0.66977609  0.33521720  1
  Fe  Fe18  1  0.66912592  0.99984153  0.99975967  1
  Cr  Cr19  1  0.83481931  0.16521384  0.16818304  1
  Ni  Ni20  1  0.66643627  0.00157252  0.33527070  1
  Fe  Fe21  1  0.66735764  0.33591949  1.00102060  1
  Fe  Fe22  1  0.83144965  0.50320134  0.16907793  1
  Ni  Ni23  1  0.66884325  0.33562321  0.33621791  1
  Ni  Ni24  1  0.66882254  0.66948230  0.00285170  1
  Ni  Ni25  1  0.83239607  0.83433984  0.16877761  1
  Fe  Fe26  1  0.66834678  0.66797873  0.33398250  1
  Cr  Cr27  1  0.16734013  0.16699948  0.50079002  1
  Ni  Ni28  1  1.00060406  0.00341455  0.66888447  1
  Ni  Ni29  1  0.16792205  0.16903104  0.83450455  1
  Ni  Ni30  1  0.16966386  0.50188161  0.50494039  1
  Fe  Fe31  1  0.00152462  0.33422075  0.66922629  1
  Fe  Fe32  1  0.17042727  0.49987156  0.83229833  1
  Ni  Ni33  1  0.16691885  0.83324474  0.50304368  1
  Fe  Fe34  1  1.00140519  0.66868785  0.66708920  1
  Cr  Cr35  1  0.16824929  0.83482238  0.83227778  1
  Fe  Fe36  1  0.50384944  0.16785575  0.50303063  1
  Ni  Ni37  1  0.33656534  1.00015466  0.66763418  1
  Ni  Ni38  1  0.50198259  0.16899718  0.83344989  1
  Ni  Ni39  1  0.50234819  0.50027159  0.50092657  1
  Fe  Fe40  1  0.33528733  0.33303461  0.66898947  1
  Cr  Cr41  1  0.50149699  0.50184576  0.83640388  1
  Ni  Ni42  1  0.50349889  0.83264362  0.50433173  1
  Ni  Ni43  1  0.33538827  0.66868816  0.66759685  1
  Ni  Ni44  1  0.50447001  0.83436670  0.83408493  1
  Fe  Fe45  1  0.83143755  0.16835491  0.50253040  1
  Ni  Ni46  1  0.66618404  0.00268913  0.66935010  1
  Fe  Fe47  1  0.83270815  0.16629836  0.83307157  1
  Fe  Fe48  1  0.83383705  0.50225610  0.50266220  1
  Fe  Fe49  1  0.66745432  0.33364427  0.66649466  1
  Fe  Fe50  1  0.83291950  0.50166711  0.83279386  1
  Cr  Cr51  1  0.83429152  0.83667188  0.50102763  1
  Fe  Fe52  1  0.66642776  0.67017683  0.66879257  1
  Fe  Fe53  1  0.83163218  0.83687119  0.83407370  1
" 